# generated using pymatgen
data_Li2MnV(PO4)3
_symmetry_space_group_name_H-M   'P 1'
_cell_length_a   8.90585756
_cell_length_b   8.28003076
_cell_length_c   8.44695687
_cell_angle_alpha   59.61404903
_cell_angle_beta   63.90403484
_cell_angle_gamma   90.18768019
_symmetry_Int_Tables_number   1
_chemical_formula_structural   Li2MnV(PO4)3
_chemical_formula_sum   'Li4 Mn2 V2 P6 O24'
_cell_volume   461.60144418
_cell_formula_units_Z   2
loop_
 _symmetry_equiv_pos_site_id
 _symmetry_equiv_pos_as_xyz
  1  'x, y, z'
loop_
 _atom_site_type_symbol
 _atom_site_label
 _atom_site_symmetry_multiplicity
 _atom_site_fract_x
 _atom_site_fract_y
 _atom_site_fract_z
 _atom_site_occupancy
  Li  Li0  1  0.14615400  0.33764500  0.93490600  1
  Li  Li1  1  0.86429000  0.67709100  0.06367900  1
  Li  Li2  1  0.87589000  0.92526500  0.38306900  1
  Li  Li3  1  0.86873200  0.24873200  0.81395900  1
  Mn  Mn0  1  0.56133400  0.86327100  0.29166000  1
  Mn  Mn1  1  0.43404200  0.13613200  0.71002800  1
  V  V0  1  0.04935500  0.34905400  0.31121500  1
  V  V1  1  0.96075900  0.65659300  0.69150100  1
  P  P0  1  0.24731800  0.04538500  0.21574800  1
  P  P1  1  0.25641400  0.46446100  0.49876900  1
  P  P2  1  0.25211200  0.75055900  0.79468700  1
  P  P3  1  0.75370900  0.25382800  0.20216800  1
  P  P4  1  0.74717800  0.52932600  0.50357100  1
  P  P5  1  0.74965100  0.95872300  0.77873400  1
  O  O0  1  0.10031900  0.84447300  0.38199400  1
  O  O1  1  0.25456700  0.13656100  0.00404300  1
  O  O2  1  0.18495200  0.18083100  0.29865600  1
  O  O3  1  0.18890400  0.48242800  0.35192600  1
  O  O4  1  0.10364000  0.46880600  0.68918900  1
  O  O5  1  0.09689900  0.77670900  0.74077900  1
  O  O6  1  0.42222200  0.02629000  0.20003700  1
  O  O7  1  0.27954400  0.26198500  0.61283000  1
  O  O8  1  0.42271700  0.62974700  0.36863000  1
  O  O9  1  0.17913200  0.53401600  0.99449400  1
  O  O10  1  0.25866800  0.88965700  0.86090100  1
  O  O11  1  0.41634900  0.77779400  0.61123700  1
  O  O12  1  0.58892600  0.21397300  0.39168000  1
  O  O13  1  0.74040500  0.11860000  0.12657900  1
  O  O14  1  0.81528400  0.47106400  0.00642300  1
  O  O15  1  0.57512000  0.37234300  0.64018400  1
  O  O16  1  0.73407800  0.74039600  0.38411900  1
  O  O17  1  0.57120700  0.97367100  0.80487400  1
  O  O18  1  0.90989500  0.21331200  0.24570400  1
  O  O19  1  0.88657600  0.51161300  0.32000500  1
  O  O20  1  0.82116100  0.51272300  0.64796500  1
  O  O21  1  0.81519000  0.83654700  0.68130800  1
  O  O22  1  0.74640300  0.87005000  0.98920400  1
  O  O23  1  0.88719900  0.16891100  0.62129000  1
loop_
_geom_bond_atom_site_label_1
_geom_bond_atom_site_label_2
_geom_bond_distance
_geom_bond_site_symmetry_2
Li0 O1 1.889006 1_556
Li0 O9 1.984491 1_555
Li0 O4 2.011082 1_555
Li0 O18 2.184314 1_456
Li1 O22 1.904183 1_554
Li1 O19 1.995839 1_555
Li1 O14 2.085662 1_555
Li1 O5 2.270062 1_654
Li2 O16 1.975346 1_555
Li2 O18 2.003237 1_565
Li2 O21 2.026193 1_555
Li2 O0 2.107477 1_655
Li3 O13 1.974536 1_556
Li3 O23 1.991457 1_555
Li3 O20 2.086037 1_555
Li3 O4 2.213681 1_655
Mn0 O8 1.921439 1_555
Mn0 O6 1.937399 1_565
Mn0 O13 1.999122 1_565
Mn0 O16 2.067679 1_555
Mn0 O11 2.109497 1_555
Mn0 O22 2.323075 1_554
Mn1 O17 1.930055 1_545
Mn1 O7 1.947023 1_555
Mn1 O10 1.955850 1_545
Mn1 O15 1.978993 1_555
Mn1 O12 2.127629 1_555
Mn1 O1 2.288981 1_556
O0 P0 1.567924 1_565
O0 V1 1.952972 1_455
O1 P0 1.518009 1_555
O2 P0 1.585286 1_555
O2 V0 1.859440 1_555
O3 P1 1.546654 1_555
O3 V0 1.906193 1_555
O4 P1 1.604126 1_555
O4 V1 2.014711 1_455
O5 P2 1.618942 1_555
O5 V1 1.867442 1_455
O6 P0 1.519844 1_555
O7 P1 1.524525 1_555
O8 P1 1.519014 1_555
O9 P2 1.565793 1_555
O9 V0 1.990441 1_556
O10 P2 1.524038 1_555
O11 P2 1.497274 1_555
O12 P3 1.490231 1_555
O13 P3 1.569827 1_555
O14 P3 1.567526 1_555
O14 V1 1.983842 1_554
O15 P4 1.510996 1_555
O16 P4 1.551451 1_555
O17 P5 1.519819 1_555
O18 P3 1.584564 1_555
O18 V0 2.082490 1_655
O19 P4 1.582645 1_555
O19 V0 1.984438 1_655
O20 P4 1.574367 1_555
O20 V1 1.983848 1_555
O21 P5 1.569971 1_555
O21 V1 1.972144 1_555
O22 P5 1.527973 1_555
O23 P5 1.584122 1_545
O23 V0 1.968891 1_655
