# generated using pymatgen
data_Ni3Sb(PO4)4
_symmetry_space_group_name_H-M   'P 1'
_cell_length_a   5.87642400
_cell_length_b   4.85610000
_cell_length_c   9.96260679
_cell_angle_alpha   89.85987472
_cell_angle_beta   90.00000000
_cell_angle_gamma   90.00000000
_symmetry_Int_Tables_number   1
_chemical_formula_structural   Ni3Sb(PO4)4
_chemical_formula_sum   'Ni3 Sb1 P4 O16'
_cell_volume   284.29710433
_cell_formula_units_Z   1
loop_
 _symmetry_equiv_pos_site_id
 _symmetry_equiv_pos_as_xyz
  1  'x, y, z'
loop_
 _atom_site_type_symbol
 _atom_site_label
 _atom_site_symmetry_multiplicity
 _atom_site_fract_x
 _atom_site_fract_y
 _atom_site_fract_z
 _atom_site_occupancy
  Ni  Ni0  1  0.00000000  0.03521400  0.27036400  1
  Ni  Ni1  1  0.00000000  0.45494200  0.77564100  1
  Ni  Ni2  1  0.50000000  0.54533100  0.23480700  1
  Sb  Sb0  1  0.50000000  0.96674400  0.71973000  1
  P  P0  1  0.50000000  0.08998800  0.39901800  1
  P  P1  1  0.50000000  0.39950800  0.90990400  1
  P  P2  1  0.00000000  0.59585100  0.09861000  1
  P  P3  1  0.00000000  0.92137400  0.58678100  1
  O  O0  1  0.50000000  0.18704300  0.55611600  1
  O  O1  1  0.29307600  0.23408400  0.33305400  1
  O  O2  1  0.70692400  0.23408400  0.33305400  1
  O  O3  1  0.00000000  0.22520600  0.61311600  1
  O  O4  1  0.00000000  0.27987400  0.10984400  1
  O  O5  1  0.30095700  0.24812000  0.82770100  1
  O  O6  1  0.69904300  0.24812000  0.82770100  1
  O  O7  1  0.50000000  0.34035400  0.05531200  1
  O  O8  1  0.00000000  0.65786800  0.94707400  1
  O  O9  1  0.79416700  0.73677800  0.16915100  1
  O  O10  1  0.20583300  0.73677800  0.16915100  1
  O  O11  1  0.50000000  0.71538700  0.87937000  1
  O  O12  1  0.50000000  0.77978200  0.40010900  1
  O  O13  1  0.79350700  0.77085000  0.66988000  1
  O  O14  1  0.20649300  0.77085000  0.66988000  1
  O  O15  1  0.00000000  0.82587200  0.44463300  1
loop_
_geom_bond_atom_site_label_1
_geom_bond_atom_site_label_2
_geom_bond_distance
_geom_bond_site_symmetry_2
Ni0 O4 1.989901 1_555
Ni0 O15 2.009754 1_545
Ni0 O1 2.071658 1_555
Ni0 O2 2.071658 1_455
Ni0 O10 2.141782 1_545
Ni0 O9 2.141782 1_445
Ni1 O3 1.968544 1_555
Ni1 O8 1.973903 1_555
Ni1 O5 2.098319 1_555
Ni1 O6 2.098319 1_455
Ni1 O13 2.219938 1_455
Ni1 O14 2.219938 1_555
Ni2 O12 2.004363 1_555
Ni2 O7 2.048732 1_555
Ni2 O10 2.068194 1_555
Ni2 O9 2.068194 1_555
Ni2 O1 2.171144 1_555
Ni2 O2 2.171144 1_555
O0 P0 1.635633 1_555
O0 Sb0 1.947537 1_545
O1 P0 1.548503 1_555
O2 P0 1.548503 1_555
O3 P3 1.499216 1_545
O4 P2 1.538219 1_555
O5 P1 1.606921 1_555
O5 Sb0 2.097472 1_545
O6 P1 1.606921 1_555
O6 Sb0 2.097472 1_545
O7 P1 1.476160 1_554
O8 P2 1.538717 1_556
O9 P2 1.558083 1_655
O10 P2 1.558083 1_555
O11 P1 1.563082 1_555
O11 Sb0 2.002467 1_555
O12 P0 1.506404 1_565
O13 P3 1.639869 1_655
O13 Sb0 2.031928 1_555
O14 P3 1.639869 1_555
O14 Sb0 2.031928 1_555
O15 P3 1.491246 1_555
