# generated using pymatgen
data_Li3Bi(BO3)2
_symmetry_space_group_name_H-M   'P 1'
_cell_length_a   8.61209500
_cell_length_b   6.66131800
_cell_length_c   11.00693258
_cell_angle_alpha   57.94804209
_cell_angle_beta   90.00000000
_cell_angle_gamma   90.00000000
_symmetry_Int_Tables_number   1
_chemical_formula_structural   Li3Bi(BO3)2
_chemical_formula_sum   'Li12 Bi4 B8 O24'
_cell_volume   535.19176851
_cell_formula_units_Z   4
loop_
 _symmetry_equiv_pos_site_id
 _symmetry_equiv_pos_as_xyz
  1  'x, y, z'
loop_
 _atom_site_type_symbol
 _atom_site_label
 _atom_site_symmetry_multiplicity
 _atom_site_fract_x
 _atom_site_fract_y
 _atom_site_fract_z
 _atom_site_occupancy
  Li  Li0  1  0.24146700  0.76811600  0.67869900  1
  Li  Li1  1  0.68212200  0.56163300  0.88896300  1
  Li  Li2  1  0.07539700  0.34556600  0.90179200  1
  Li  Li3  1  0.57539700  0.65443400  0.59820800  1
  Li  Li4  1  0.18212200  0.43836700  0.61103700  1
  Li  Li5  1  0.74146700  0.23188400  0.82130100  1
  Li  Li6  1  0.25853300  0.76811600  0.17869900  1
  Li  Li7  1  0.81787800  0.56163300  0.38896300  1
  Li  Li8  1  0.42460300  0.34556600  0.40179200  1
  Li  Li9  1  0.92460300  0.65443400  0.09820800  1
  Li  Li10  1  0.31787800  0.43836700  0.11103700  1
  Li  Li11  1  0.75853300  0.23188400  0.32130100  1
  Bi  Bi0  1  0.12161900  0.99579400  0.35007500  1
  Bi  Bi1  1  0.62161900  0.00420600  0.14992500  1
  Bi  Bi2  1  0.37838100  0.99579400  0.85007500  1
  Bi  Bi3  1  0.87838100  0.00420600  0.64992500  1
  B  B0  1  0.39496000  0.42471000  0.85365100  1
  B  B1  1  0.93573300  0.15593000  0.10661300  1
  B  B2  1  0.43573300  0.84407000  0.39338700  1
  B  B3  1  0.89496000  0.57529000  0.64634900  1
  B  B4  1  0.10504000  0.42471000  0.35365100  1
  B  B5  1  0.56426700  0.15593000  0.60661300  1
  B  B6  1  0.06426700  0.84407000  0.89338700  1
  B  B7  1  0.60504000  0.57529000  0.14634900  1
  O  O0  1  0.39056400  0.61859900  0.86501300  1
  O  O1  1  0.02937500  0.71124700  0.61713100  1
  O  O2  1  0.76354400  0.64168000  0.69282500  1
  O  O3  1  0.08751500  0.22858600  0.10397400  1
  O  O4  1  0.36028800  0.79416300  0.51673700  1
  O  O5  1  0.86234600  0.02657900  0.24137700  1
  O  O6  1  0.36234600  0.97342100  0.25862300  1
  O  O7  1  0.86028800  0.20583700  0.98326300  1
  O  O8  1  0.26354400  0.35832000  0.80717500  1
  O  O9  1  0.58751500  0.77141400  0.39602600  1
  O  O10  1  0.52937500  0.28875300  0.88286900  1
  O  O11  1  0.89056400  0.38140100  0.63498700  1
  O  O12  1  0.10943600  0.61859900  0.36501300  1
  O  O13  1  0.47062500  0.71124700  0.11713100  1
  O  O14  1  0.41248500  0.22858600  0.60397400  1
  O  O15  1  0.73645600  0.64168000  0.19282500  1
  O  O16  1  0.13971200  0.79416300  0.01673700  1
  O  O17  1  0.63765400  0.02657900  0.74137700  1
  O  O18  1  0.13765400  0.97342100  0.75862300  1
  O  O19  1  0.63971200  0.20583700  0.48326300  1
  O  O20  1  0.91248500  0.77141400  0.89602600  1
  O  O21  1  0.23645600  0.35832000  0.30717500  1
  O  O22  1  0.97062500  0.28875300  0.38286900  1
  O  O23  1  0.60943600  0.38140100  0.13498700  1
loop_
_geom_bond_atom_site_label_1
_geom_bond_atom_site_label_2
_geom_bond_distance
_geom_bond_site_symmetry_2
Li0 O4 1.981662 1_555
Li0 O1 2.052202 1_555
Li0 O0 2.162966 1_555
Li0 O18 2.172672 1_555
Li0 O8 2.321729 1_555
Li1 O2 2.053039 1_555
Li1 O10 2.273446 1_555
Li1 O23 2.390745 1_556
Li1 O20 2.451534 1_555
Li1 O0 2.532205 1_555
Li1 O7 2.537302 1_555
Li1 O17 2.652902 1_565
Li2 O8 1.903526 1_555
Li2 O3 1.931313 1_556
Li2 O7 2.053413 1_455
Li3 O2 1.903526 1_555
Li3 O9 1.931313 1_555
Li3 O4 2.053413 1_555
Li4 O8 2.053039 1_555
Li4 O1 2.273446 1_555
Li4 O12 2.390745 1_555
Li4 O14 2.451534 1_555
Li4 O11 2.532205 1_455
Li4 O4 2.537302 1_555
Li4 O18 2.652902 1_545
Li5 O7 1.981662 1_555
Li5 O10 2.052202 1_555
Li5 O11 2.162966 1_555
Li5 O17 2.172672 1_555
Li5 O2 2.321729 1_555
Li6 O16 1.981662 1_555
Li6 O13 2.052202 1_555
Li6 O12 2.162966 1_555
Li6 O6 2.172672 1_555
Li6 O21 2.321729 1_555
Li7 O15 2.053039 1_555
Li7 O22 2.273446 1_555
Li7 O11 2.390745 1_555
Li7 O9 2.451534 1_555
Li7 O12 2.532205 1_655
Li7 O19 2.537302 1_555
Li7 O5 2.652902 1_565
Li8 O21 1.903526 1_555
Li8 O14 1.931313 1_555
Li8 O19 2.053413 1_555
Li9 O15 1.903526 1_555
Li9 O20 1.931313 1_554
Li9 O16 2.053413 1_655
Li10 O21 2.053039 1_555
Li10 O13 2.273446 1_555
Li10 O0 2.390745 1_554
Li10 O3 2.451534 1_555
Li10 O23 2.532205 1_555
Li10 O16 2.537302 1_555
Li10 O6 2.652902 1_545
Li11 O19 1.981662 1_555
Li11 O22 2.052202 1_555
Li11 O23 2.162966 1_555
Li11 O5 2.172672 1_555
Li11 O15 2.321729 1_555
Bi0 O3 2.317379 1_565
Bi0 O6 2.343651 1_555
Bi0 O21 2.412989 1_565
Bi0 O12 2.431624 1_555
Bi0 O5 2.489751 1_465
Bi0 O22 2.525320 1_465
Bi0 O4 2.603628 1_555
Bi0 O1 2.636422 1_555
Bi1 O9 2.317379 1_545
Bi1 O5 2.343651 1_555
Bi1 O15 2.412989 1_545
Bi1 O23 2.431624 1_555
Bi1 O6 2.489751 1_545
Bi1 O13 2.525320 1_545
Bi1 O7 2.603628 1_554
Bi1 O10 2.636422 1_554
Bi2 O14 2.317379 1_565
Bi2 O18 2.343651 1_555
Bi2 O8 2.412989 1_565
Bi2 O0 2.431624 1_555
Bi2 O17 2.489751 1_565
Bi2 O10 2.525320 1_565
Bi2 O16 2.603628 1_556
Bi2 O13 2.636422 1_556
Bi3 O20 2.317379 1_545
Bi3 O17 2.343651 1_555
Bi3 O2 2.412989 1_545
Bi3 O11 2.431624 1_555
Bi3 O18 2.489751 1_645
Bi3 O1 2.525320 1_645
Bi3 O19 2.603628 1_555
Bi3 O22 2.636422 1_555
B0 O0 1.362581 1_555
B0 O10 1.398043 1_555
B0 O8 1.406516 1_555
B1 O7 1.377308 1_554
B1 O3 1.388825 1_655
B1 O5 1.409118 1_555
B2 O4 1.377308 1_555
B2 O9 1.388825 1_555
B2 O6 1.409118 1_555
B3 O11 1.362581 1_555
B3 O1 1.398043 1_655
B3 O2 1.406516 1_555
B4 O12 1.362581 1_555
B4 O22 1.398043 1_455
B4 O21 1.406516 1_555
B5 O19 1.377308 1_555
B5 O14 1.388825 1_555
B5 O17 1.409118 1_555
B6 O16 1.377308 1_556
B6 O20 1.388825 1_455
B6 O18 1.409118 1_555
B7 O23 1.362581 1_555
B7 O13 1.398043 1_555
B7 O15 1.406516 1_555
