# generated using pymatgen
data_Li2CuSiO4
_symmetry_space_group_name_H-M   'P 1'
_cell_length_a   5.15223900
_cell_length_b   6.29549000
_cell_length_c   10.52363600
_cell_angle_alpha   90.00000000
_cell_angle_beta   90.00000000
_cell_angle_gamma   90.00000000
_symmetry_Int_Tables_number   1
_chemical_formula_structural   Li2CuSiO4
_chemical_formula_sum   'Li8 Cu4 Si4 O16'
_cell_volume   341.34327977
_cell_formula_units_Z   4
loop_
 _symmetry_equiv_pos_site_id
 _symmetry_equiv_pos_as_xyz
  1  'x, y, z'
loop_
 _atom_site_type_symbol
 _atom_site_label
 _atom_site_symmetry_multiplicity
 _atom_site_fract_x
 _atom_site_fract_y
 _atom_site_fract_z
 _atom_site_occupancy
  Li  Li0  1  0.20156800  0.98869100  0.66872400  1
  Li  Li1  1  0.29843200  0.98869100  0.16872400  1
  Li  Li2  1  0.20156800  0.51130900  0.66872400  1
  Li  Li3  1  0.29843200  0.51130900  0.16872400  1
  Li  Li4  1  0.70156800  0.48869100  0.83127600  1
  Li  Li5  1  0.79843200  0.48869100  0.33127600  1
  Li  Li6  1  0.79843200  0.01130900  0.33127600  1
  Li  Li7  1  0.70156800  0.01130900  0.83127600  1
  Cu  Cu0  1  0.81136700  0.25000000  0.58654200  1
  Cu  Cu1  1  0.68863300  0.25000000  0.08654200  1
  Cu  Cu2  1  0.31136700  0.75000000  0.91345800  1
  Cu  Cu3  1  0.18863300  0.75000000  0.41345800  1
  Si  Si0  1  0.19295400  0.25000000  0.92344900  1
  Si  Si1  1  0.30704600  0.25000000  0.42344900  1
  Si  Si2  1  0.69295400  0.75000000  0.57655100  1
  Si  Si3  1  0.80704600  0.75000000  0.07655100  1
  O  O0  1  0.30653400  0.03837000  0.84775500  1
  O  O1  1  0.19346600  0.03837000  0.34775500  1
  O  O2  1  0.87354200  0.25000000  0.91751300  1
  O  O3  1  0.21021500  0.25000000  0.57231100  1
  O  O4  1  0.28978500  0.25000000  0.07231100  1
  O  O5  1  0.62645800  0.25000000  0.41751300  1
  O  O6  1  0.30653400  0.46163000  0.84775500  1
  O  O7  1  0.19346600  0.46163000  0.34775500  1
  O  O8  1  0.69346600  0.53837000  0.15224500  1
  O  O9  1  0.80653400  0.53837000  0.65224500  1
  O  O10  1  0.71021500  0.75000000  0.92768900  1
  O  O11  1  0.37354200  0.75000000  0.58248700  1
  O  O12  1  0.78978500  0.75000000  0.42768900  1
  O  O13  1  0.12645800  0.75000000  0.08248700  1
  O  O14  1  0.80653400  0.96163000  0.65224500  1
  O  O15  1  0.69346600  0.96163000  0.15224500  1
loop_
_geom_bond_atom_site_label_1
_geom_bond_atom_site_label_2
_geom_bond_distance
_geom_bond_site_symmetry_2
Li0 O3 1.933308 1_565
Li0 O11 1.966400 1_555
Li0 O0 1.984934 1_565
Li0 O14 2.049776 1_455
Li1 O4 1.933308 1_565
Li1 O13 1.966400 1_555
Li1 O1 1.984934 1_565
Li1 O15 2.049776 1_555
Li2 O3 1.933308 1_555
Li2 O11 1.966400 1_555
Li2 O6 1.984934 1_555
Li2 O9 2.049776 1_455
Li3 O4 1.933308 1_555
Li3 O13 1.966400 1_555
Li3 O7 1.984934 1_555
Li3 O8 2.049776 1_555
Li4 O10 1.933308 1_555
Li4 O2 1.966400 1_555
Li4 O9 1.984934 1_555
Li4 O6 2.049776 1_555
Li5 O12 1.933308 1_555
Li5 O5 1.966400 1_555
Li5 O8 1.984934 1_555
Li5 O7 2.049776 1_655
Li6 O12 1.933308 1_545
Li6 O5 1.966400 1_555
Li6 O15 1.984934 1_545
Li6 O1 2.049776 1_655
Li7 O10 1.933308 1_545
Li7 O2 1.966400 1_555
Li7 O14 1.984934 1_545
Li7 O0 2.049776 1_555
Cu0 O14 1.942805 1_545
Cu0 O9 1.942805 1_555
Cu0 O5 2.017859 1_555
Cu0 O3 2.060410 1_655
Cu1 O15 1.942805 1_545
Cu1 O8 1.942805 1_555
Cu1 O2 2.017859 1_554
Cu1 O4 2.060410 1_555
Cu2 O6 1.942805 1_555
Cu2 O0 1.942805 1_565
Cu2 O13 2.017859 1_556
Cu2 O10 2.060410 1_555
Cu3 O7 1.942805 1_555
Cu3 O1 1.942805 1_565
Cu3 O11 2.017859 1_555
Cu3 O12 2.060410 1_455
O0 Si0 1.658929 1_555
O1 Si1 1.658929 1_555
O2 Si0 1.646872 1_655
O3 Si1 1.644092 1_555
O4 Si0 1.644092 1_554
O5 Si1 1.646872 1_555
O6 Si0 1.658929 1_555
O7 Si1 1.658929 1_555
O8 Si3 1.658929 1_555
O9 Si2 1.658929 1_555
O10 Si3 1.644092 1_556
O11 Si2 1.646872 1_555
O12 Si2 1.644092 1_555
O13 Si3 1.646872 1_455
O14 Si2 1.658929 1_555
O15 Si3 1.658929 1_555
