# generated using pymatgen
data_Li7V3P8O29
_symmetry_space_group_name_H-M   'P 1'
_cell_length_a   9.83125000
_cell_length_b   9.84588603
_cell_length_c   13.90327273
_cell_angle_alpha   89.78914652
_cell_angle_beta   89.58846646
_cell_angle_gamma   60.12813905
_symmetry_Int_Tables_number   1
_chemical_formula_structural   Li7V3P8O29
_chemical_formula_sum   'Li14 V6 P16 O58'
_cell_volume   1166.96903562
_cell_formula_units_Z   2
loop_
 _symmetry_equiv_pos_site_id
 _symmetry_equiv_pos_as_xyz
  1  'x, y, z'
loop_
 _atom_site_type_symbol
 _atom_site_label
 _atom_site_symmetry_multiplicity
 _atom_site_fract_x
 _atom_site_fract_y
 _atom_site_fract_z
 _atom_site_occupancy
  Li  Li0  1  0.23837300  0.66337400  0.06009400  1
  Li  Li1  1  0.09350800  0.67946800  0.56565500  1
  Li  Li2  1  0.68084100  0.23304600  0.55971200  1
  Li  Li3  1  0.32179700  0.34367200  0.88319500  1
  Li  Li4  1  0.67122700  0.09553700  0.06346800  1
  Li  Li5  1  0.09546000  0.22444800  0.06060600  1
  Li  Li6  1  0.77406700  0.91066100  0.43986000  1
  Li  Li7  1  0.22549400  0.08934400  0.56059700  1
  Li  Li8  1  0.33043600  0.89830900  0.93794800  1
  Li  Li9  1  0.67064100  0.67500100  0.11133700  1
  Li  Li10  1  0.31291300  0.77778700  0.44019500  1
  Li  Li11  1  0.91416800  0.31546800  0.44309400  1
  Li  Li12  1  0.76974100  0.32445900  0.93644900  1
  Li  Li13  1  0.98632100  0.95199100  0.98881400  1
  V  V0  1  0.56736200  0.00162000  0.25051200  1
  V  V1  1  0.43334300  0.99909300  0.74996800  1
  V  V2  1  0.99537600  0.57064100  0.75324900  1
  V  V3  1  0.00171000  0.43558600  0.24723300  1
  V  V4  1  0.43092300  0.56781300  0.25112700  1
  V  V5  1  0.56663100  0.43537600  0.74959600  1
  P  P0  1  0.22450900  0.68421600  0.84280300  1
  P  P1  1  0.08651900  0.67912100  0.34486100  1
  P  P2  1  0.68107200  0.23491800  0.34167000  1
  P  P3  1  0.33114000  0.33561600  0.12378200  1
  P  P4  1  0.33520100  0.33471900  0.62858000  1
  P  P5  1  0.68443800  0.09169000  0.84603600  1
  P  P6  1  0.76860900  0.91617700  0.66001800  1
  P  P7  1  0.09070500  0.22540600  0.84267400  1
  P  P8  1  0.91600200  0.77906000  0.15794100  1
  P  P9  1  0.23114600  0.09019700  0.34147400  1
  P  P10  1  0.31870300  0.90778700  0.15770200  1
  P  P11  1  0.66865100  0.66542700  0.37121700  1
  P  P12  1  0.66039500  0.66616600  0.87339500  1
  P  P13  1  0.32367200  0.76781900  0.65858700  1
  P  P14  1  0.91330900  0.32098800  0.65810800  1
  P  P15  1  0.77317700  0.31826100  0.15528000  1
  O  O0  1  0.24399800  0.75626400  0.56928200  1
  O  O1  1  0.24974700  0.66890700  0.34203500  1
  O  O2  1  0.01574600  0.78601000  0.07782200  1
  O  O3  1  0.08059400  0.66677500  0.84229300  1
  O  O4  1  0.37471600  0.52120500  0.83296700  1
  O  O5  1  0.32305800  0.48892400  0.16167400  1
  O  O6  1  0.51896600  0.38091500  0.31744000  1
  O  O7  1  0.76755300  0.22983300  0.06810500  1
  O  O8  1  0.66557000  0.25679900  0.84305700  1
  O  O9  1  0.18813000  0.48532600  0.66479600  1
  O  O10  1  0.10477500  0.51785300  0.32373700  1
  O  O11  1  0.48538900  0.33257500  0.67605200  1
  O  O12  1  0.31716700  0.34265200  0.01581600  1
  O  O13  1  0.35821400  0.32289900  0.52194800  1
  O  O14  1  0.48318800  0.18927900  0.15740200  1
  O  O15  1  0.11082800  0.36914900  0.83463900  1
  O  O16  1  0.18348400  0.32821100  0.16598400  1
  O  O17  1  0.66909500  0.08692300  0.34409000  1
  O  O18  1  0.78780300  0.00476700  0.75168200  1
  O  O19  1  0.74573200  0.01115600  0.57005500  1
  O  O20  1  0.77441000  0.00871700  0.93506100  1
  O  O21  1  0.52133500  0.10534800  0.83486700  1
  O  O22  1  0.32944400  0.18723600  0.67058300  1
  O  O23  1  0.74961200  0.92067200  0.15533000  1
  O  O24  1  0.37327600  0.10861500  0.32190000  1
  O  O25  1  0.07834200  0.25060300  0.33961000  1
  O  O26  1  0.98825400  0.79570100  0.25856900  1
  O  O27  1  0.00059600  0.75181000  0.43702800  1
  O  O28  1  0.00552500  0.23766500  0.56875400  1
  O  O29  1  0.91412500  0.75514200  0.65729900  1
  O  O30  1  0.61937900  0.90336600  0.68302700  1
  O  O31  1  0.25674900  0.07535700  0.84136400  1
  O  O32  1  0.67282000  0.81390700  0.33674700  1
  O  O33  1  0.48301400  0.88775400  0.16623800  1
  O  O34  1  0.22952900  0.99490400  0.06878300  1
  O  O35  1  0.24282500  0.99996200  0.43190900  1
  O  O36  1  0.21432500  0.99371300  0.25098300  1
  O  O37  1  0.33448600  0.92005800  0.65794600  1
  O  O38  1  0.80300400  0.66994100  0.83462900  1
  O  O39  1  0.90505000  0.62681600  0.16260400  1
  O  O40  1  0.50542200  0.81230200  0.83750800  1
  O  O41  1  0.65051500  0.65504600  0.98165100  1
  O  O42  1  0.68128300  0.64147500  0.47711100  1
  O  O43  1  0.51460100  0.67237200  0.33083700  1
  O  O44  1  0.89884100  0.47869000  0.67528200  1
  O  O45  1  0.81590100  0.51913900  0.31931100  1
  O  O46  1  0.33463100  0.74157600  0.15922100  1
  O  O47  1  0.21331100  0.78937100  0.75055000  1
  O  O48  1  0.22724200  0.77320500  0.93203600  1
  O  O49  1  0.48493100  0.62375400  0.67509800  1
  O  O50  1  0.66540700  0.51192600  0.83221800  1
  O  O51  1  0.62691400  0.48219300  0.16874800  1
  O  O52  1  0.92118200  0.33429500  0.15200500  1
  O  O53  1  0.00159600  0.22090000  0.93133200  1
  O  O54  1  0.00504900  0.20858900  0.74990800  1
  O  O55  1  0.75199800  0.32944100  0.65912500  1
  O  O56  1  0.75059700  0.26054500  0.43084400  1
  O  O57  1  0.79228300  0.21558600  0.25015800  1
loop_
_geom_bond_atom_site_label_1
_geom_bond_atom_site_label_2
_geom_bond_distance
_geom_bond_site_symmetry_2
Li0 O2 1.915996 1_555
Li0 O46 2.034743 1_555
Li0 O5 2.052436 1_555
Li0 O48 2.054758 1_554
Li1 O0 1.969494 1_555
Li1 O27 1.976321 1_555
Li1 O29 1.988607 1_455
Li1 O9 2.155664 1_555
Li2 O19 1.952244 1_555
Li2 O56 1.979266 1_555
Li2 O55 1.996365 1_555
Li2 O11 2.315220 1_555
Li3 O12 1.844215 1_556
Li3 O15 2.078731 1_555
Li3 O4 2.169195 1_555
Li3 O21 2.283249 1_555
Li4 O23 1.966119 1_545
Li4 O7 1.974385 1_555
Li4 O20 2.017030 1_554
Li4 O14 2.061448 1_555
Li5 O52 1.962933 1_455
Li5 O34 1.972564 1_545
Li5 O53 2.034596 1_554
Li5 O16 2.202060 1_555
Li6 O27 1.984200 1_655
Li6 O19 2.016087 1_565
Li6 O17 2.017040 1_565
Li6 O32 2.220052 1_555
Li7 O28 1.916774 1_555
Li7 O35 1.965333 1_545
Li7 O37 1.995830 1_545
Li7 O22 2.307856 1_555
Li8 O48 1.949360 1_555
Li8 O31 2.026214 1_565
Li8 O40 2.037089 1_555
Li8 O34 2.060225 1_556
Li9 O41 1.837181 1_554
Li9 O33 2.125017 1_555
Li9 O39 2.230701 1_555
Li9 O51 2.285294 1_555
Li10 O35 1.941928 1_555
Li10 O0 1.961570 1_555
Li10 O1 2.020764 1_555
Li10 O43 2.288869 1_555
Li11 O28 1.942457 1_655
Li11 O56 1.943784 1_555
Li11 O25 2.007393 1_655
Li11 O45 2.446450 1_555
Li12 O8 1.970707 1_555
Li12 O53 1.980789 1_655
Li12 O7 2.055693 1_556
Li12 O50 2.162128 1_555
Li13 O2 1.950676 1_656
Li13 O20 2.017679 1_565
Li13 O48 2.272010 1_655
O0 P13 1.507290 1_555
O1 P1 1.557305 1_555
O1 V4 1.992919 1_555
O2 P8 1.502556 1_455
O3 P0 1.507831 1_555
O3 V2 1.985929 1_455
O4 P0 1.553440 1_555
O4 V5 2.001282 1_555
O5 P3 1.564636 1_555
O5 V4 2.030067 1_555
O6 P2 1.562634 1_555
O6 V4 1.843321 1_555
O7 P15 1.512204 1_555
O8 P5 1.542101 1_555
O8 V5 2.005936 1_555
O9 P4 1.549936 1_555
O9 V2 2.048788 1_455
O10 P1 1.535727 1_555
O10 V3 1.911417 1_555
O11 P4 1.612164 1_555
O11 V5 1.879515 1_555
O12 P3 1.506529 1_555
O13 P4 1.494276 1_555
O14 P3 1.545509 1_555
O14 V0 2.061362 1_555
O15 P7 1.527106 1_555
O15 V2 2.064805 1_455
O16 P3 1.596788 1_555
O16 V3 1.919677 1_555
O17 P2 1.519458 1_555
O17 V0 2.064446 1_555
O18 P6 1.611268 1_545
O18 P5 1.615180 1_555
O19 P6 1.508465 1_545
O20 P5 1.506741 1_555
O21 P5 1.549857 1_555
O21 V1 2.039945 1_545
O22 P4 1.589963 1_555
O22 V1 1.951760 1_545
O23 P8 1.532903 1_555
O23 V0 2.036666 1_565
O24 P9 1.518559 1_555
O24 V0 1.927156 1_555
O25 P9 1.545522 1_555
O25 V3 2.040633 1_555
O26 P1 1.610005 1_655
O26 P8 1.618849 1_555
O27 P1 1.502266 1_555
O28 P14 1.512859 1_455
O29 P6 1.517286 1_555
O29 V2 2.066313 1_555
O30 P6 1.564602 1_555
O30 V1 1.834260 1_555
O31 P7 1.563705 1_555
O31 V1 1.967089 1_545
O32 P11 1.556537 1_555
O32 V0 2.005252 1_565
O33 P10 1.532202 1_555
O33 V0 2.065692 1_565
O34 P10 1.513726 1_555
O35 P9 1.508530 1_565
O36 P10 1.604653 1_555
O36 P9 1.637356 1_565
O37 P13 1.554605 1_555
O37 V1 1.991368 1_555
O38 P12 1.516065 1_555
O38 V2 1.987062 1_555
O39 P8 1.556498 1_555
O39 V3 2.012458 1_655
O40 P12 1.569218 1_555
O40 V1 2.015826 1_555
O41 P12 1.514618 1_555
O42 P11 1.486447 1_555
O43 P11 1.588193 1_555
O43 V4 1.957008 1_555
O44 P14 1.506789 1_555
O44 V2 1.942497 1_555
O45 P11 1.614522 1_555
O45 V3 1.871040 1_655
O46 P10 1.564483 1_555
O46 V4 1.960588 1_555
O47 P0 1.614894 1_555
O47 P13 1.615468 1_555
O48 P0 1.529542 1_555
O49 P13 1.529995 1_555
O49 V5 1.916215 1_555
O50 P12 1.602457 1_555
O50 V5 1.892646 1_555
O51 P15 1.547371 1_555
O51 V4 2.022998 1_555
O52 P15 1.540147 1_555
O52 V3 2.045868 1_655
O53 P7 1.520405 1_555
O54 P7 1.598776 1_555
O54 P14 1.636780 1_455
O55 P14 1.546085 1_555
O55 V5 2.018532 1_555
O56 P2 1.501421 1_555
O57 P15 1.613044 1_555
O57 P2 1.620159 1_555
