# generated using pymatgen
data_Li2Fe3Si3O10
_symmetry_space_group_name_H-M   'P 1'
_cell_length_a   8.37485452
_cell_length_b   8.37485452
_cell_length_c   10.49383155
_cell_angle_alpha   86.54664399
_cell_angle_beta   86.54664399
_cell_angle_gamma   33.76206899
_symmetry_Int_Tables_number   1
_chemical_formula_structural   Li2Fe3Si3O10
_chemical_formula_sum   'Li4 Fe6 Si6 O20'
_cell_volume   408.22756308
_cell_formula_units_Z   2
loop_
 _symmetry_equiv_pos_site_id
 _symmetry_equiv_pos_as_xyz
  1  'x, y, z'
loop_
 _atom_site_type_symbol
 _atom_site_label
 _atom_site_symmetry_multiplicity
 _atom_site_fract_x
 _atom_site_fract_y
 _atom_site_fract_z
 _atom_site_occupancy
  Li  Li0  1  0.26539900  0.85353200  0.02181800  1
  Li  Li1  1  0.85353200  0.26539900  0.52181800  1
  Li  Li2  1  0.14646800  0.73460100  0.47818200  1
  Li  Li3  1  0.73460100  0.14646800  0.97818200  1
  Fe  Fe0  1  0.37308200  0.93940800  0.29065300  1
  Fe  Fe1  1  0.93940800  0.37308200  0.79065300  1
  Fe  Fe2  1  0.50000000  0.00000000  0.00000000  1
  Fe  Fe3  1  0.00000000  0.50000000  0.50000000  1
  Fe  Fe4  1  0.06059200  0.62691800  0.20934700  1
  Fe  Fe5  1  0.62691800  0.06059200  0.70934700  1
  Si  Si0  1  0.83961700  0.46888700  0.09708000  1
  Si  Si1  1  0.46888700  0.83961700  0.59708000  1
  Si  Si2  1  0.53111300  0.16038300  0.40292000  1
  Si  Si3  1  0.16038300  0.53111300  0.90292000  1
  Si  Si4  1  0.81245300  0.18754700  0.25000000  1
  Si  Si5  1  0.18754700  0.81245300  0.75000000  1
  O  O0  1  0.04183500  0.05029800  0.35533500  1
  O  O1  1  0.65249700  0.47716500  0.17409300  1
  O  O2  1  0.05029800  0.04183500  0.85533500  1
  O  O3  1  0.47716500  0.65249700  0.67409300  1
  O  O4  1  0.17663000  0.13531900  0.09985500  1
  O  O5  1  0.61076200  0.69486200  0.45623600  1
  O  O6  1  0.13531900  0.17663000  0.59985500  1
  O  O7  1  0.69486200  0.61076200  0.95623600  1
  O  O8  1  0.75852000  0.69937700  0.17017700  1
  O  O9  1  0.69937700  0.75852000  0.67017700  1
  O  O10  1  0.30062300  0.24148000  0.32982300  1
  O  O11  1  0.24148000  0.30062300  0.82982300  1
  O  O12  1  0.30513800  0.38923800  0.04376400  1
  O  O13  1  0.86468100  0.82337000  0.40014500  1
  O  O14  1  0.38923800  0.30513800  0.54376400  1
  O  O15  1  0.82337000  0.86468100  0.90014500  1
  O  O16  1  0.52283500  0.34750300  0.32590700  1
  O  O17  1  0.94970200  0.95816500  0.14466500  1
  O  O18  1  0.34750300  0.52283500  0.82590700  1
  O  O19  1  0.95816500  0.94970200  0.64466500  1
loop_
_geom_bond_atom_site_label_1
_geom_bond_atom_site_label_2
_geom_bond_distance
_geom_bond_site_symmetry_2
Li0 O4 2.008709 1_565
Li0 O2 2.026817 1_564
Li0 O7 2.292408 1_554
Li0 O17 2.300722 1_455
Li0 O1 2.454682 1_555
Li1 O6 2.008709 1_655
Li1 O0 2.026817 1_655
Li1 O5 2.292408 1_555
Li1 O19 2.300722 1_545
Li1 O3 2.454682 1_555
Li2 O13 2.008709 1_455
Li2 O19 2.026817 1_455
Li2 O14 2.292408 1_555
Li2 O0 2.300722 1_565
Li2 O16 2.454682 1_555
Li3 O15 2.008709 1_545
Li3 O17 2.026817 1_546
Li3 O12 2.292408 1_556
Li3 O2 2.300722 1_655
Li3 O18 2.454682 1_555
Fe0 O5 2.094175 1_555
Fe0 O10 2.116559 1_565
Fe0 O0 2.141145 1_565
Fe0 O4 2.218203 1_565
Fe0 O8 2.254886 1_555
Fe0 O1 2.668653 1_555
Fe1 O7 2.094175 1_555
Fe1 O11 2.116559 1_655
Fe1 O2 2.141145 1_655
Fe1 O6 2.218203 1_655
Fe1 O9 2.254886 1_555
Fe1 O3 2.668653 1_555
Fe2 O15 2.101121 1_544
Fe2 O4 2.101121 1_555
Fe2 O12 2.178368 1_555
Fe2 O7 2.178368 1_544
Fe2 O11 2.253033 1_554
Fe2 O8 2.253033 1_545
Fe3 O13 2.101121 1_455
Fe3 O6 2.101121 1_555
Fe3 O14 2.178368 1_555
Fe3 O5 2.178368 1_455
Fe3 O10 2.253033 1_555
Fe3 O9 2.253033 1_455
Fe4 O12 2.094175 1_555
Fe4 O8 2.116559 1_455
Fe4 O17 2.141145 1_455
Fe4 O13 2.218203 1_455
Fe4 O10 2.254886 1_555
Fe4 O16 2.668653 1_555
Fe5 O14 2.094175 1_555
Fe5 O9 2.116559 1_545
Fe5 O19 2.141145 1_545
Fe5 O15 2.218203 1_545
Fe5 O11 2.254886 1_555
Fe5 O18 2.668653 1_555
O0 Si4 1.632404 1_455
O1 Si0 1.669514 1_555
O1 Si4 1.674940 1_555
O2 Si5 1.632404 1_545
O3 Si1 1.669514 1_555
O3 Si5 1.674940 1_555
O4 Si0 1.631335 1_455
O5 Si1 1.635601 1_555
O6 Si1 1.631335 1_545
O7 Si0 1.635601 1_556
O8 Si0 1.646687 1_555
O9 Si1 1.646687 1_555
O10 Si2 1.646687 1_555
O11 Si3 1.646687 1_555
O12 Si3 1.635601 1_554
O13 Si2 1.631335 1_565
O14 Si2 1.635601 1_555
O15 Si3 1.631335 1_655
O16 Si2 1.669514 1_555
O16 Si4 1.674940 1_555
O17 Si4 1.632404 1_565
O18 Si3 1.669514 1_555
O18 Si5 1.674940 1_555
O19 Si5 1.632404 1_655
