# generated using pymatgen
data_Li7Ti5O12
_symmetry_space_group_name_H-M   'P 1'
_cell_length_a   5.06616503
_cell_length_b   5.06616503
_cell_length_c   9.80202396
_cell_angle_alpha   85.05587315
_cell_angle_beta   85.05587315
_cell_angle_gamma   120.00586041
_symmetry_Int_Tables_number   1
_chemical_formula_structural   Li7Ti5O12
_chemical_formula_sum   'Li7 Ti5 O12'
_cell_volume   214.59955047
_cell_formula_units_Z   1
loop_
 _symmetry_equiv_pos_site_id
 _symmetry_equiv_pos_as_xyz
  1  'x, y, z'
loop_
 _atom_site_type_symbol
 _atom_site_label
 _atom_site_symmetry_multiplicity
 _atom_site_fract_x
 _atom_site_fract_y
 _atom_site_fract_z
 _atom_site_occupancy
  Li  Li0  1  0.75544200  0.75544200  0.25695323  1
  Li  Li1  1  0.59279127  0.91884515  0.74461077  1
  Li  Li2  1  0.24455800  0.24455800  0.74304677  1
  Li  Li3  1  0.08115485  0.40720873  0.25538923  1
  Li  Li4  1  0.40720873  0.08115485  0.25538923  1
  Li  Li5  1  0.91884515  0.59279127  0.74461077  1
  Li  Li6  1  0.00000000  -0.00000000  0.50000000  1
  Ti  Ti0  1  0.66666333  0.33333667  0.50000000  1
  Ti  Ti1  1  0.50000000  0.50000000  -0.00000000  1
  Ti  Ti2  1  0.84240826  0.15759174  -0.00000000  1
  Ti  Ti3  1  0.33333667  0.66666333  0.50000000  1
  Ti  Ti4  1  0.15759174  0.84240826  -0.00000000  1
  O  O0  1  0.60662896  0.60662896  0.61365254  1
  O  O1  1  0.39337104  0.39337104  0.38634746  1
  O  O2  1  0.68235033  0.03761091  0.38653123  1
  O  O3  1  0.46110979  0.79631593  0.11628086  1
  O  O4  1  0.53889021  0.20368407  0.88371914  1
  O  O5  1  0.20368407  0.53889021  0.88371914  1
  O  O6  1  0.31764967  0.96238909  0.61346877  1
  O  O7  1  0.96238909  0.31764967  0.61346877  1
  O  O8  1  0.03761091  0.68235033  0.38653123  1
  O  O9  1  0.79631593  0.46110979  0.11628086  1
  O  O10  1  0.12359430  0.12359430  0.12727097  1
  O  O11  1  0.87640570  0.87640570  0.87272903  1
loop_
_geom_bond_atom_site_label_1
_geom_bond_atom_site_label_2
_geom_bond_distance
_geom_bond_site_symmetry_2
Li0 O1 2.042234 1_555
Li0 O10 2.067984 1_665
Li0 O2 2.134287 1_565
Li0 O8 2.134287 1_655
Li0 O9 2.186705 1_555
Li0 O3 2.186705 1_555
Li1 O6 2.052214 1_555
Li1 O11 2.064285 1_555
Li1 O7 2.143403 1_565
Li1 O0 2.144751 1_555
Li1 O4 2.164553 1_565
Li1 O5 2.177050 1_555
Li2 O0 2.042234 1_555
Li2 O11 2.067984 1_445
Li2 O7 2.134287 1_455
Li2 O6 2.134287 1_545
Li2 O5 2.186705 1_555
Li2 O4 2.186705 1_555
Li3 O8 2.052214 1_555
Li3 O10 2.064285 1_555
Li3 O2 2.143403 1_455
Li3 O1 2.144751 1_555
Li3 O9 2.164553 1_455
Li3 O3 2.177050 1_555
Li4 O2 2.052214 1_555
Li4 O10 2.064285 1_555
Li4 O8 2.143403 1_545
Li4 O1 2.144751 1_555
Li4 O3 2.164553 1_545
Li4 O9 2.177050 1_555
Li5 O7 2.052214 1_555
Li5 O11 2.064285 1_555
Li5 O6 2.143403 1_655
Li5 O0 2.144751 1_555
Li5 O5 2.164553 1_655
Li5 O4 2.177050 1_555
Li6 O2 2.107548 1_455
Li6 O6 2.107548 1_545
Li6 O8 2.107548 1_545
Li6 O7 2.107548 1_455
Li6 O1 2.108689 1_555
Li6 O0 2.108689 1_445
O0 Ti0 1.969557 1_555
O0 Ti3 1.969557 1_555
O1 Ti0 1.969557 1_555
O1 Ti3 1.969557 1_555
O2 Ti3 1.967845 1_545
O2 Ti0 1.969523 1_555
O3 Ti2 2.026149 1_565
O3 Ti1 2.035567 1_555
O3 Ti4 2.081689 1_555
O4 Ti4 2.026149 1_546
O4 Ti1 2.035567 1_556
O4 Ti2 2.081689 1_556
O5 Ti2 2.026149 1_456
O5 Ti1 2.035567 1_556
O5 Ti4 2.081689 1_556
O6 Ti0 1.967845 1_565
O6 Ti3 1.969523 1_555
O7 Ti3 1.967845 1_655
O7 Ti0 1.969523 1_555
O8 Ti0 1.967845 1_455
O8 Ti3 1.969523 1_555
O9 Ti4 2.026149 1_655
O9 Ti1 2.035567 1_555
O9 Ti2 2.081689 1_555
O10 Ti4 2.032225 1_545
O10 Ti2 2.032225 1_455
O10 Ti1 2.090918 1_555
O11 Ti4 2.032225 1_656
O11 Ti2 2.032225 1_566
O11 Ti1 2.090918 1_556
