# generated using pymatgen
data_Li3Fe4(BO3)4
_symmetry_space_group_name_H-M   'P 1'
_cell_length_a   5.24471900
_cell_length_b   9.01189852
_cell_length_c   11.39454503
_cell_angle_alpha   112.66539258
_cell_angle_beta   102.77154120
_cell_angle_gamma   89.66994610
_symmetry_Int_Tables_number   1
_chemical_formula_structural   Li3Fe4(BO3)4
_chemical_formula_sum   'Li6 Fe8 B8 O24'
_cell_volume   482.78246261
_cell_formula_units_Z   2
loop_
 _symmetry_equiv_pos_site_id
 _symmetry_equiv_pos_as_xyz
  1  'x, y, z'
loop_
 _atom_site_type_symbol
 _atom_site_label
 _atom_site_symmetry_multiplicity
 _atom_site_fract_x
 _atom_site_fract_y
 _atom_site_fract_z
 _atom_site_occupancy
  Li  Li0  1  0.02962400  0.03762900  0.41473200  1
  Li  Li1  1  0.29260800  0.27667100  0.90316000  1
  Li  Li2  1  0.48400600  0.51000300  0.66635200  1
  Li  Li3  1  0.25979500  0.24001600  0.15915900  1
  Li  Li4  1  0.52830000  0.53817700  0.41085200  1
  Li  Li5  1  0.76937000  0.74558500  0.16283200  1
  Fe  Fe0  1  0.01354200  0.35296200  0.37976900  1
  Fe  Fe1  1  0.26289300  0.93045500  0.88035500  1
  Fe  Fe2  1  0.49401200  0.15038200  0.63173100  1
  Fe  Fe3  1  0.24503600  0.56732500  0.13143200  1
  Fe  Fe4  1  0.77453000  0.45350100  0.88784300  1
  Fe  Fe5  1  0.52677100  0.84998200  0.38104400  1
  Fe  Fe6  1  0.96467700  0.66349300  0.63453200  1
  Fe  Fe7  1  0.74524600  0.05673300  0.12362000  1
  B  B0  1  0.01990800  0.68605300  0.37518500  1
  B  B1  1  0.26536600  0.60006900  0.87406600  1
  B  B2  1  0.46520200  0.81357700  0.62995300  1
  B  B3  1  0.23816300  0.89391500  0.12782200  1
  B  B4  1  0.52562400  0.18979100  0.38163400  1
  B  B5  1  0.76412400  0.10538800  0.87610000  1
  B  B6  1  0.98998700  0.31813700  0.62645100  1
  B  B7  1  0.73275800  0.39293100  0.12641800  1
  O  O0  1  0.02962500  0.10196700  0.88379300  1
  O  O1  1  0.11299900  0.71885000  0.85089500  1
  O  O2  1  0.16468800  0.49027600  0.91493200  1
  O  O3  1  0.12946800  0.18644300  0.62388200  1
  O  O4  1  0.09445800  0.43654600  0.59723100  1
  O  O5  1  0.25317600  0.84334800  0.68708100  1
  O  O6  1  0.26357800  0.65746700  0.34377900  1
  O  O7  1  0.51157400  0.59186200  0.85350100  1
  O  O8  1  0.61758800  0.21187300  0.82992000  1
  O  O9  1  0.41582600  0.08712700  0.42832500  1
  O  O10  1  0.39298800  0.31286500  0.36165800  1
  O  O11  1  0.63260600  0.01050500  0.91842300  1
  O  O12  1  0.33851000  0.00285900  0.08419300  1
  O  O13  1  0.57857800  0.66980700  0.60666600  1
  O  O14  1  0.55775200  0.92632600  0.59012200  1
  O  O15  1  0.40445500  0.78961700  0.16466700  1
  O  O16  1  0.46436700  0.37374800  0.11073400  1
  O  O17  1  0.74140100  0.33013400  0.65514500  1
  O  O18  1  0.76984000  0.16145900  0.35144200  1
  O  O19  1  0.90615800  0.58381000  0.41797000  1
  O  O20  1  0.89389900  0.81572800  0.36254800  1
  O  O21  1  0.84108800  0.51170500  0.09663300  1
  O  O22  1  0.89504900  0.29018800  0.16680400  1
  O  O23  1  0.98451600  0.89338300  0.13765400  1
loop_
_geom_bond_atom_site_label_1
_geom_bond_atom_site_label_2
_geom_bond_distance
_geom_bond_site_symmetry_2
Li0 O20 1.942195 1_445
Li0 O18 1.946815 1_455
Li0 O9 2.035721 1_555
Li0 O3 2.178391 1_555
Li1 O2 1.999896 1_555
Li1 O0 2.013094 1_555
Li1 O8 2.045572 1_555
Li1 O16 2.154856 1_556
Li2 O13 1.922176 1_555
Li2 O7 1.940379 1_555
Li2 O4 2.033468 1_555
Li2 O17 2.087511 1_555
Li3 O16 1.922820 1_555
Li3 O22 1.976085 1_455
Li3 O12 2.051002 1_555
Li3 O10 2.090021 1_555
Li4 O6 1.953023 1_555
Li4 O10 1.975921 1_555
Li4 O19 2.003917 1_555
Li4 O13 2.039272 1_555
Li5 O23 1.893293 1_555
Li5 O15 1.955344 1_555
Li5 O21 2.010941 1_555
Li5 O20 2.060050 1_555
Fe0 O18 2.032228 1_455
Fe0 O19 2.057091 1_455
Fe0 O10 2.061415 1_555
Fe0 O22 2.207740 1_455
Fe0 O4 2.233306 1_555
Fe1 O1 1.942799 1_555
Fe1 O0 1.959610 1_565
Fe1 O11 1.967621 1_565
Fe1 O5 2.021703 1_555
Fe1 O12 2.098908 1_566
Fe2 O3 1.925806 1_555
Fe2 O14 1.933412 1_545
Fe2 O17 1.979100 1_555
Fe2 O8 2.054142 1_555
Fe2 O9 2.104558 1_555
Fe3 O15 2.037208 1_555
Fe3 O16 2.049851 1_555
Fe3 O21 2.093932 1_455
Fe3 O6 2.214915 1_555
Fe3 O2 2.229127 1_554
Fe4 O7 1.930673 1_555
Fe4 O2 2.010484 1_655
Fe4 O8 2.127811 1_555
Fe4 O21 2.174887 1_556
Fe4 O17 2.413141 1_555
Fe5 O20 1.992391 1_555
Fe5 O6 2.072773 1_555
Fe5 O9 2.105482 1_565
Fe5 O14 2.177671 1_555
Fe5 O15 2.248840 1_555
Fe6 O13 1.983160 1_555
Fe6 O5 2.038335 1_655
Fe6 O4 2.066110 1_655
Fe6 O19 2.236304 1_555
Fe6 O1 2.267305 1_655
Fe7 O23 1.959294 1_545
Fe7 O22 2.082295 1_555
Fe7 O12 2.099589 1_555
Fe7 O11 2.151933 1_554
Fe7 O18 2.368831 1_555
B0 O20 1.379087 1_455
B0 O19 1.386972 1_455
B0 O6 1.398220 1_555
B1 O7 1.359095 1_555
B1 O2 1.394437 1_555
B1 O1 1.403149 1_555
B2 O13 1.377895 1_555
B2 O5 1.383583 1_555
B2 O14 1.390150 1_555
B3 O23 1.359659 1_455
B3 O15 1.397555 1_555
B3 O12 1.409196 1_565
B4 O10 1.371702 1_555
B4 O18 1.395515 1_555
B4 O9 1.411242 1_555
B5 O0 1.376681 1_655
B5 O11 1.382456 1_555
B5 O8 1.410783 1_555
B6 O4 1.382376 1_655
B6 O3 1.384638 1_655
B6 O17 1.406410 1_555
B7 O16 1.382401 1_555
B7 O22 1.392728 1_555
B7 O21 1.398547 1_555
