# generated using pymatgen
data_Li4V3P8O29
_symmetry_space_group_name_H-M   'P 1'
_cell_length_a   9.79812059
_cell_length_b   9.79812059
_cell_length_c   14.09911532
_cell_angle_alpha   89.91996579
_cell_angle_beta   89.91996579
_cell_angle_gamma   59.90178842
_symmetry_Int_Tables_number   1
_chemical_formula_structural   Li4V3P8O29
_chemical_formula_sum   'Li8 V6 P16 O58'
_cell_volume   1171.05378425
_cell_formula_units_Z   2
loop_
 _symmetry_equiv_pos_site_id
 _symmetry_equiv_pos_as_xyz
  1  'x, y, z'
loop_
 _atom_site_type_symbol
 _atom_site_label
 _atom_site_symmetry_multiplicity
 _atom_site_fract_x
 _atom_site_fract_y
 _atom_site_fract_z
 _atom_site_occupancy
  Li  Li0  1  0.31754900  0.77630600  0.94225000  1
  Li  Li1  1  0.31397500  0.91435500  0.43920400  1
  Li  Li2  1  0.77630600  0.31754900  0.44225000  1
  Li  Li3  1  0.91435500  0.31397500  0.93920400  1
  Li  Li4  1  0.08564500  0.68602500  0.06079600  1
  Li  Li5  1  0.22369400  0.68245100  0.55775000  1
  Li  Li6  1  0.68602500  0.08564500  0.56079600  1
  Li  Li7  1  0.68245100  0.22369400  0.05775000  1
  V  V0  1  0.56986900  0.43013100  0.25000000  1
  V  V1  1  0.43081100  0.00587400  0.24413300  1
  V  V2  1  0.00587400  0.43081100  0.74413300  1
  V  V3  1  0.99412600  0.56918900  0.25586700  1
  V  V4  1  0.56918900  0.99412600  0.75586700  1
  V  V5  1  0.43013100  0.56986900  0.75000000  1
  P  P0  1  0.32178500  0.76812800  0.15973000  1
  P  P1  1  0.31967100  0.91446600  0.65525100  1
  P  P2  1  0.76812800  0.32178500  0.65973000  1
  P  P3  1  0.66102800  0.66881500  0.37114200  1
  P  P4  1  0.66881500  0.66102800  0.87114200  1
  P  P5  1  0.91446600  0.31967100  0.15525100  1
  P  P6  1  0.08634000  0.22868100  0.33921300  1
  P  P7  1  0.77131900  0.91366000  0.16078700  1
  P  P8  1  0.22868100  0.08634000  0.83921300  1
  P  P9  1  0.91366000  0.77131900  0.66078700  1
  P  P10  1  0.08553400  0.68032900  0.84474900  1
  P  P11  1  0.33118500  0.33897200  0.12885800  1
  P  P12  1  0.33897200  0.33118500  0.62885800  1
  P  P13  1  0.23187200  0.67821500  0.34027000  1
  P  P14  1  0.68032900  0.08553400  0.34474900  1
  P  P15  1  0.67821500  0.23187200  0.84027000  1
  O  O0  1  0.23891400  0.75771200  0.42908800  1
  O  O1  1  0.33699400  0.74800400  0.66058900  1
  O  O2  1  0.20629200  0.00845000  0.74352100  1
  O  O3  1  0.23723800  0.99350600  0.92419800  1
  O  O4  1  0.48119300  0.61835800  0.17659300  1
  O  O5  1  0.34123800  0.91531000  0.16610000  1
  O  O6  1  0.51389800  0.67131300  0.83264500  1
  O  O7  1  0.61835800  0.48119300  0.67659300  1
  O  O8  1  0.75771200  0.23891400  0.92908800  1
  O  O9  1  0.74800400  0.33699400  0.16058900  1
  O  O10  1  0.51243500  0.81792400  0.32911300  1
  O  O11  1  0.67131300  0.51389800  0.33264500  1
  O  O12  1  0.47947500  0.90396300  0.68008800  1
  O  O13  1  0.66531700  0.66938300  0.47648800  1
  O  O14  1  0.66938300  0.66531700  0.97648800  1
  O  O15  1  0.61775100  0.90458000  0.17650300  1
  O  O16  1  0.81792400  0.51243500  0.82911300  1
  O  O17  1  0.66781900  0.81280500  0.82564400  1
  O  O18  1  0.91531000  0.34123800  0.66610000  1
  O  O19  1  0.00845000  0.20629200  0.24352100  1
  O  O20  1  0.99308200  0.25198700  0.06371500  1
  O  O21  1  0.99350600  0.23723800  0.42419800  1
  O  O22  1  0.90396300  0.47947500  0.18008800  1
  O  O23  1  0.81280500  0.66781900  0.32564400  1
  O  O24  1  0.74443300  0.91617100  0.66154400  1
  O  O25  1  0.08382900  0.25556700  0.83845600  1
  O  O26  1  0.90458000  0.61775100  0.67650300  1
  O  O27  1  0.25198700  0.99308200  0.56371500  1
  O  O28  1  0.74801300  0.00691800  0.43628500  1
  O  O29  1  0.09542000  0.38224900  0.32349700  1
  O  O30  1  0.91617100  0.74443300  0.16154400  1
  O  O31  1  0.79370800  0.99155000  0.25647900  1
  O  O32  1  0.25556700  0.08382900  0.33845600  1
  O  O33  1  0.18719500  0.33218100  0.67435600  1
  O  O34  1  0.09603700  0.52052500  0.81991200  1
  O  O35  1  0.00691800  0.74801300  0.93628500  1
  O  O36  1  0.00649400  0.76276200  0.57580200  1
  O  O37  1  0.99155000  0.79370800  0.75647900  1
  O  O38  1  0.08469000  0.65876200  0.33390000  1
  O  O39  1  0.33218100  0.18719500  0.17435600  1
  O  O40  1  0.38224900  0.09542000  0.82349700  1
  O  O41  1  0.18207600  0.48756500  0.17088700  1
  O  O42  1  0.33468300  0.33061700  0.52351200  1
  O  O43  1  0.33061700  0.33468300  0.02351200  1
  O  O44  1  0.52052500  0.09603700  0.31991200  1
  O  O45  1  0.32868700  0.48610200  0.66735500  1
  O  O46  1  0.48756500  0.18207600  0.67088700  1
  O  O47  1  0.25199600  0.66300600  0.83941100  1
  O  O48  1  0.21013500  0.78986500  0.25000000  1
  O  O49  1  0.24228800  0.76108600  0.07091200  1
  O  O50  1  0.38164200  0.51880700  0.32340700  1
  O  O51  1  0.48610200  0.32868700  0.16735500  1
  O  O52  1  0.65876200  0.08469000  0.83390000  1
  O  O53  1  0.51880700  0.38164200  0.82340700  1
  O  O54  1  0.76276200  0.00649400  0.07580200  1
  O  O55  1  0.66300600  0.25199600  0.33941100  1
  O  O56  1  0.76108600  0.24228800  0.57091200  1
  O  O57  1  0.78986500  0.21013500  0.75000000  1
loop_
_geom_bond_atom_site_label_1
_geom_bond_atom_site_label_2
_geom_bond_distance
_geom_bond_site_symmetry_2
Li0 O3 1.879483 1_555
Li0 O49 1.990601 1_556
Li0 O47 2.114118 1_555
Li0 O6 2.271274 1_555
Li1 O27 1.891186 1_555
Li1 O0 2.012439 1_555
Li1 O32 2.035958 1_565
Li1 O10 2.288265 1_555
Li2 O21 1.879483 1_555
Li2 O56 1.990601 1_555
Li2 O55 2.114118 1_555
Li2 O11 2.271274 1_555
Li3 O20 1.891186 1_556
Li3 O8 2.012439 1_555
Li3 O25 2.035958 1_655
Li3 O16 2.288265 1_555
Li4 O35 1.891186 1_554
Li4 O49 2.012439 1_555
Li4 O30 2.035958 1_455
Li4 O41 2.288265 1_555
Li5 O36 1.879483 1_555
Li5 O0 1.990601 1_555
Li5 O1 2.114118 1_555
Li5 O45 2.271274 1_555
Li6 O28 1.891186 1_555
Li6 O56 2.012439 1_555
Li6 O24 2.035958 1_545
Li6 O46 2.288265 1_555
Li7 O54 1.879483 1_555
Li7 O8 1.990601 1_554
Li7 O9 2.114118 1_555
Li7 O51 2.271274 1_555
O0 P13 1.495491 1_555
O1 P1 1.554579 1_555
O1 V5 1.966690 1_555
O2 P1 1.613772 1_545
O2 P8 1.619396 1_555
O3 P8 1.480156 1_565
O4 P0 1.533211 1_555
O4 V0 1.901956 1_555
O5 P0 1.549246 1_555
O5 V1 1.885370 1_565
O6 P4 1.567640 1_555
O6 V5 1.960478 1_555
O7 P2 1.533211 1_555
O7 V5 1.901956 1_555
O8 P15 1.495491 1_555
O9 P5 1.554579 1_555
O9 V0 1.966690 1_555
O10 P3 1.572242 1_555
O10 V1 1.996455 1_565
O11 P3 1.567640 1_555
O11 V0 1.960478 1_555
O12 P1 1.557144 1_555
O12 V4 1.865147 1_555
O13 P3 1.486036 1_555
O14 P4 1.486036 1_555
O15 P7 1.566635 1_555
O15 V1 1.850321 1_565
O16 P4 1.572242 1_555
O16 V2 1.996455 1_655
O17 P4 1.614294 1_555
O17 V4 1.825889 1_555
O18 P2 1.549246 1_555
O18 V2 1.885370 1_655
O19 P5 1.613772 1_455
O19 P6 1.619396 1_555
O20 P5 1.478512 1_555
O21 P6 1.480156 1_655
O22 P5 1.557144 1_555
O22 V3 1.865147 1_555
O23 P3 1.614294 1_555
O23 V3 1.825889 1_555
O24 P9 1.550315 1_555
O24 V4 1.995325 1_555
O25 P8 1.550315 1_555
O25 V2 1.995325 1_555
O26 P9 1.566635 1_555
O26 V2 1.850321 1_655
O27 P1 1.478512 1_555
O28 P14 1.478512 1_555
O29 P6 1.566635 1_555
O29 V3 1.850321 1_455
O30 P7 1.550315 1_555
O30 V3 1.995325 1_555
O31 P14 1.613772 1_565
O31 P7 1.619396 1_555
O32 P6 1.550315 1_555
O32 V1 1.995325 1_555
O33 P12 1.614294 1_555
O33 V2 1.825889 1_555
O34 P10 1.557144 1_555
O34 V2 1.865147 1_555
O35 P10 1.478512 1_555
O36 P9 1.480156 1_455
O37 P10 1.613772 1_655
O37 P9 1.619396 1_555
O38 P13 1.549246 1_555
O38 V3 1.885370 1_455
O39 P11 1.614294 1_555
O39 V1 1.825889 1_555
O40 P8 1.566635 1_555
O40 V4 1.850321 1_545
O41 P11 1.572242 1_555
O41 V3 1.996455 1_455
O42 P12 1.486036 1_555
O43 P11 1.486036 1_555
O44 P14 1.557144 1_555
O44 V1 1.865147 1_555
O45 P12 1.567640 1_555
O45 V5 1.960478 1_555
O46 P12 1.572242 1_555
O46 V4 1.996455 1_545
O47 P10 1.554579 1_555
O47 V5 1.966690 1_555
O48 P13 1.620224 1_555
O48 P0 1.620224 1_555
O49 P0 1.495491 1_555
O50 P13 1.533211 1_555
O50 V0 1.901956 1_555
O51 P11 1.567640 1_555
O51 V0 1.960478 1_555
O52 P15 1.549246 1_555
O52 V4 1.885370 1_545
O53 P15 1.533211 1_555
O53 V5 1.901956 1_555
O54 P7 1.480156 1_545
O55 P14 1.554579 1_555
O55 V0 1.966690 1_555
O56 P2 1.495491 1_555
O57 P15 1.620224 1_555
O57 P2 1.620224 1_555
