# generated using pymatgen
data_Sc(ClO4)3
_symmetry_space_group_name_H-M   'P 1'
_cell_length_a   9.04802662
_cell_length_b   9.04802662
_cell_length_c   9.04802679
_cell_angle_alpha   52.16193388
_cell_angle_beta   52.16193388
_cell_angle_gamma   52.16194141
_symmetry_Int_Tables_number   1
_chemical_formula_structural   Sc(ClO4)3
_chemical_formula_sum   'Sc2 Cl6 O24'
_cell_volume   427.30158895
_cell_formula_units_Z   2
loop_
 _symmetry_equiv_pos_site_id
 _symmetry_equiv_pos_as_xyz
  1  'x, y, z'
loop_
 _atom_site_type_symbol
 _atom_site_label
 _atom_site_symmetry_multiplicity
 _atom_site_fract_x
 _atom_site_fract_y
 _atom_site_fract_z
 _atom_site_occupancy
  Sc  Sc0  1  0.94251359  0.94251359  0.94251359  1
  Sc  Sc1  1  0.44251359  0.44251359  0.44251359  1
  Cl  Cl0  1  0.03798794  0.30410111  0.65772509  1
  Cl  Cl1  1  0.15772509  0.80410111  0.53798794  1
  Cl  Cl2  1  0.53798794  0.15772509  0.80410111  1
  Cl  Cl3  1  0.30410111  0.65772509  0.03798794  1
  Cl  Cl4  1  0.65772509  0.03798794  0.30410111  1
  Cl  Cl5  1  0.80410111  0.53798794  0.15772509  1
  O  O0  1  0.24229230  0.87669483  0.92147682  1
  O  O1  1  0.11767008  0.78890120  0.72806111  1
  O  O2  1  0.42944130  0.04876133  0.99754812  1
  O  O3  1  0.08496030  0.14540488  0.61394901  1
  O  O4  1  0.11394901  0.64540488  0.58496030  1
  O  O5  1  0.49754812  0.54876133  0.92944130  1
  O  O6  1  0.22806111  0.28890120  0.61767008  1
  O  O7  1  0.04876133  0.99754812  0.42944130  1
  O  O8  1  0.42147682  0.37669483  0.74229230  1
  O  O9  1  0.72806111  0.11767008  0.78890120  1
  O  O10  1  0.58496030  0.11394901  0.64540488  1
  O  O11  1  0.37669483  0.74229230  0.42147682  1
  O  O12  1  0.54876133  0.92944130  0.49754812  1
  O  O13  1  0.92147682  0.24229230  0.87669483  1
  O  O14  1  0.14540488  0.61394901  0.08496030  1
  O  O15  1  0.28890120  0.61767008  0.22806111  1
  O  O16  1  0.61767008  0.22806111  0.28890120  1
  O  O17  1  0.92944130  0.49754812  0.54876133  1
  O  O18  1  0.74229230  0.42147682  0.37669483  1
  O  O19  1  0.61394901  0.08496030  0.14540488  1
  O  O20  1  0.64540488  0.58496030  0.11394901  1
  O  O21  1  0.87669483  0.92147682  0.24229230  1
  O  O22  1  0.78890120  0.72806111  0.11767008  1
  O  O23  1  0.99754812  0.42944130  0.04876133  1
loop_
_geom_bond_atom_site_label_1
_geom_bond_atom_site_label_2
_geom_bond_distance
_geom_bond_site_symmetry_2
Cl0 O17 1.400713 1_455
Cl0 O6 1.454035 1_555
Cl0 O3 1.463493 1_555
Cl0 O13 1.466593 1_455
Cl1 O7 1.400713 1_555
Cl1 O1 1.454035 1_555
Cl1 O4 1.463493 1_555
Cl1 O11 1.466594 1_555
Cl2 O2 1.400713 1_555
Cl2 O9 1.454035 1_555
Cl2 O10 1.463493 1_555
Cl2 O8 1.466594 1_555
Cl3 O5 1.400713 1_554
Cl3 O15 1.454035 1_555
Cl3 O14 1.463493 1_555
Cl3 O0 1.466594 1_554
Cl4 O12 1.400713 1_545
Cl4 O16 1.454035 1_555
Cl4 O19 1.463493 1_555
Cl4 O21 1.466594 1_545
Cl5 O23 1.400713 1_555
Cl5 O22 1.454035 1_555
Cl5 O20 1.463493 1_555
Cl5 O18 1.466593 1_555
O0 Sc0 2.296065 1_455
O1 Sc0 2.245440 1_455
O3 Sc0 2.318509 1_445
O4 Sc1 2.318509 1_555
O6 Sc1 2.245439 1_555
O8 Sc1 2.296065 1_555
O9 Sc0 2.245440 1_545
O10 Sc1 2.318509 1_555
O11 Sc1 2.296065 1_555
O13 Sc0 2.296065 1_545
O14 Sc0 2.318509 1_454
O15 Sc1 2.245440 1_555
O16 Sc1 2.245440 1_555
O18 Sc1 2.296065 1_555
O19 Sc0 2.318509 1_544
O20 Sc1 2.318509 1_555
O21 Sc0 2.296065 1_554
O22 Sc0 2.245439 1_554
