# generated using pymatgen
data_Mg2Cu2P2(H4O5)3
_symmetry_space_group_name_H-M   'P 1'
_cell_length_a   11.62771240
_cell_length_b   11.62771240
_cell_length_c   10.63551020
_cell_angle_alpha   80.09748464
_cell_angle_beta   99.90251536
_cell_angle_gamma   154.87869834
_symmetry_Int_Tables_number   1
_chemical_formula_structural   Mg2Cu2P2(H4O5)3
_chemical_formula_sum   'Mg4 Cu4 P4 H24 O30'
_cell_volume   600.91607270
_cell_formula_units_Z   2
loop_
 _symmetry_equiv_pos_site_id
 _symmetry_equiv_pos_as_xyz
  1  'x, y, z'
loop_
 _atom_site_type_symbol
 _atom_site_label
 _atom_site_symmetry_multiplicity
 _atom_site_fract_x
 _atom_site_fract_y
 _atom_site_fract_z
 _atom_site_occupancy
  Mg  Mg0  1  0.95377500  0.71273900  0.96378500  1
  Mg  Mg1  1  0.71273900  0.95377500  0.53621500  1
  Mg  Mg2  1  0.04622500  0.28726100  0.03621500  1
  Mg  Mg3  1  0.28726100  0.04622500  0.46378500  1
  Cu  Cu0  1  0.09919200  0.60696600  0.86673200  1
  Cu  Cu1  1  0.60696600  0.09919200  0.63326800  1
  Cu  Cu2  1  0.90080900  0.39303400  0.13326800  1
  Cu  Cu3  1  0.39303400  0.90080900  0.36673200  1
  P  P0  1  0.17363900  0.48167400  0.72871800  1
  P  P1  1  0.48167400  0.17363900  0.77128200  1
  P  P2  1  0.82636100  0.51832600  0.27128200  1
  P  P3  1  0.51832600  0.82636100  0.22871800  1
  H  H0  1  0.32556700  0.86737300  0.06877200  1
  H  H1  1  0.86737300  0.32556700  0.43122800  1
  H  H2  1  0.67443300  0.13262700  0.93122800  1
  H  H3  1  0.13262700  0.67443300  0.56877200  1
  H  H4  1  0.39728700  0.19595600  0.09143300  1
  H  H5  1  0.19595600  0.39728700  0.40856700  1
  H  H6  1  0.60271300  0.80404400  0.90856700  1
  H  H7  1  0.80404400  0.60271300  0.59143300  1
  H  H8  1  0.12409900  0.94913200  0.16178100  1
  H  H9  1  0.94913200  0.12409900  0.33821900  1
  H  H10  1  0.87590100  0.05086800  0.83821900  1
  H  H11  1  0.05086800  0.87590100  0.66178100  1
  H  H12  1  0.56054500  0.51994400  0.85615200  1
  H  H13  1  0.51994400  0.56054500  0.64384800  1
  H  H14  1  0.43945500  0.48005600  0.14384800  1
  H  H15  1  0.48005600  0.43945500  0.35615200  1
  H  H16  1  0.77168700  0.77470100  0.93453200  1
  H  H17  1  0.77470100  0.77168700  0.56546800  1
  H  H18  1  0.22831300  0.22529900  0.06546800  1
  H  H19  1  0.22529900  0.22831300  0.43453200  1
  H  H20  1  0.15018700  0.22350500  0.72958500  1
  H  H21  1  0.22350500  0.15018700  0.77041500  1
  H  H22  1  0.84981300  0.77649500  0.27041500  1
  H  H23  1  0.77649500  0.84981300  0.22958500  1
  O  O0  1  0.26938100  0.53699100  0.87052900  1
  O  O1  1  0.53699100  0.26938100  0.62947100  1
  O  O2  1  0.73061900  0.46300900  0.12947100  1
  O  O3  1  0.46300900  0.73061900  0.37052900  1
  O  O4  1  0.98678800  0.42820400  0.71727400  1
  O  O5  1  0.42820400  0.98678800  0.78272600  1
  O  O6  1  0.01321200  0.57179600  0.28272600  1
  O  O7  1  0.57179600  0.01321200  0.21727400  1
  O  O8  1  0.99528900  0.22147300  0.68867500  1
  O  O9  1  0.22147300  0.99528900  0.81132500  1
  O  O10  1  0.00471100  0.77852700  0.31132500  1
  O  O11  1  0.77852700  0.00471100  0.18867500  1
  O  O12  1  0.41158000  0.72802300  0.64234000  1
  O  O13  1  0.72802300  0.41158000  0.85766000  1
  O  O14  1  0.58842000  0.27197700  0.35766000  1
  O  O15  1  0.27197700  0.58842000  0.14234000  1
  O  O16  1  0.15115600  0.72575500  0.02136300  1
  O  O17  1  0.72575500  0.15115600  0.47863700  1
  O  O18  1  0.84884400  0.27424500  0.97863700  1
  O  O19  1  0.27424500  0.84884400  0.52136300  1
  O  O20  1  0.19975900  0.03694400  0.07502400  1
  O  O21  1  0.03694400  0.19975900  0.42497600  1
  O  O22  1  0.80024100  0.96305600  0.92497600  1
  O  O23  1  0.96305600  0.80024100  0.57502400  1
  O  O24  1  0.73126000  0.66169900  0.90976100  1
  O  O25  1  0.66169900  0.73126000  0.59023900  1
  O  O26  1  0.26874000  0.33830100  0.09023900  1
  O  O27  1  0.33830100  0.26874000  0.40976100  1
  O  O28  1  0.29561700  0.29561700  0.75000000  1
  O  O29  1  0.70438300  0.70438300  0.25000000  1
loop_
_geom_bond_atom_site_label_1
_geom_bond_atom_site_label_2
_geom_bond_distance
_geom_bond_site_symmetry_2
Mg0 O13 2.030290 1_555
Mg0 O24 2.049897 1_555
Mg0 O2 2.106845 1_556
Mg0 O9 2.120702 1_655
Mg0 O16 2.141221 1_656
Mg0 O20 2.153329 1_666
Mg1 O12 2.030290 1_555
Mg1 O25 2.049897 1_555
Mg1 O3 2.106845 1_555
Mg1 O8 2.120702 1_565
Mg1 O17 2.141221 1_565
Mg1 O21 2.153329 1_665
Mg2 O15 2.030290 1_555
Mg2 O26 2.049897 1_555
Mg2 O0 2.106845 1_554
Mg2 O11 2.120702 1_455
Mg2 O18 2.141221 1_454
Mg2 O22 2.153329 1_444
Mg3 O14 2.030290 1_555
Mg3 O27 2.049897 1_555
Mg3 O1 2.106845 1_555
Mg3 O10 2.120702 1_545
Mg3 O19 2.141221 1_545
Mg3 O23 2.153329 1_445
Cu0 O16 1.976311 1_556
Cu0 O4 2.014411 1_455
Cu0 O18 2.018000 1_455
Cu0 O5 2.040115 1_555
Cu0 O13 2.444206 1_455
Cu1 O17 1.976311 1_555
Cu1 O5 2.014411 1_545
Cu1 O19 2.018000 1_545
Cu1 O4 2.040115 1_555
Cu1 O12 2.444206 1_545
Cu2 O18 1.976306 1_554
Cu2 O6 2.014416 1_655
Cu2 O16 2.018002 1_655
Cu2 O7 2.040115 1_555
Cu2 O15 2.444196 1_655
Cu3 O19 1.976306 1_555
Cu3 O7 2.014416 1_565
Cu3 O17 2.018002 1_565
Cu3 O6 2.040115 1_555
Cu3 O14 2.444196 1_565
H0 O16 0.982478 1_555
H1 O17 0.982478 1_555
H2 O18 0.982478 1_555
H3 O19 0.982478 1_555
H4 O20 1.003753 1_555
H4 O2 1.710910 1_555
H5 O21 1.003753 1_555
H5 O3 1.710910 1_555
H6 O22 1.003753 1_555
H6 O0 1.710910 1_555
H7 O23 1.003753 1_555
H7 O1 1.710910 1_555
H8 O20 0.998219 1_565
H9 O21 0.998219 1_655
H10 O22 0.998219 1_545
H11 O23 0.998219 1_455
H12 O24 0.995695 1_555
H13 O25 0.995695 1_555
H14 O26 0.995695 1_555
H15 O27 0.995695 1_555
H16 O24 0.987348 1_555
H17 O25 0.987348 1_555
H18 O26 0.987348 1_555
H19 O27 0.987348 1_555
H20 O28 0.989195 1_555
H21 O28 0.989195 1_555
H22 O29 0.989195 1_555
H23 O29 0.989195 1_555
O0 P0 1.545101 1_555
O1 P1 1.545101 1_555
O2 P2 1.545101 1_555
O3 P3 1.545101 1_555
O4 P0 1.615788 1_655
O5 P1 1.615788 1_565
O6 P2 1.615788 1_455
O7 P3 1.615788 1_545
O8 P0 1.553565 1_655
O9 P1 1.553565 1_565
O10 P2 1.553565 1_455
O11 P3 1.553565 1_545
O12 P0 1.523777 1_555
O13 P1 1.523777 1_555
O14 P2 1.523777 1_555
O15 P3 1.523777 1_555
