# generated using pymatgen
data_LiVCO3F2
_symmetry_space_group_name_H-M   'P 1'
_cell_length_a   5.71465100
_cell_length_b   6.66772200
_cell_length_c   9.00548000
_cell_angle_alpha   90.00000000
_cell_angle_beta   90.00000000
_cell_angle_gamma   90.00000000
_symmetry_Int_Tables_number   1
_chemical_formula_structural   LiVCO3F2
_chemical_formula_sum   'Li4 V4 C4 O12 F8'
_cell_volume   343.14214605
_cell_formula_units_Z   4
loop_
 _symmetry_equiv_pos_site_id
 _symmetry_equiv_pos_as_xyz
  1  'x, y, z'
loop_
 _atom_site_type_symbol
 _atom_site_label
 _atom_site_symmetry_multiplicity
 _atom_site_fract_x
 _atom_site_fract_y
 _atom_site_fract_z
 _atom_site_occupancy
  Li  Li0  1  0.71836000  0.25000000  0.27308400  1
  Li  Li1  1  0.21836000  0.25000000  0.22691600  1
  Li  Li2  1  0.28164000  0.75000000  0.72691600  1
  Li  Li3  1  0.78164000  0.75000000  0.77308400  1
  V  V0  1  0.02440300  0.25000000  0.61063700  1
  V  V1  1  0.52440300  0.25000000  0.88936300  1
  V  V2  1  0.47559700  0.75000000  0.11063700  1
  V  V3  1  0.97559700  0.75000000  0.38936300  1
  C  C0  1  0.46223400  0.25000000  0.54951500  1
  C  C1  1  0.96223400  0.25000000  0.95048500  1
  C  C2  1  0.03776600  0.75000000  0.04951500  1
  C  C3  1  0.53776600  0.75000000  0.45048500  1
  O  O0  1  0.80362200  0.25000000  0.05220100  1
  O  O1  1  0.30362200  0.25000000  0.44779900  1
  O  O2  1  0.68009100  0.25000000  0.52101500  1
  O  O3  1  0.18009100  0.25000000  0.97898500  1
  O  O4  1  0.87030500  0.25000000  0.81627500  1
  O  O5  1  0.37030500  0.25000000  0.68372500  1
  O  O6  1  0.81990900  0.75000000  0.02101500  1
  O  O7  1  0.12969500  0.75000000  0.18372500  1
  O  O8  1  0.62969500  0.75000000  0.31627500  1
  O  O9  1  0.31990900  0.75000000  0.47898500  1
  O  O10  1  0.69637800  0.75000000  0.55220100  1
  O  O11  1  0.19637800  0.75000000  0.94779900  1
  F  F0  1  0.45512000  0.03618200  0.15657100  1
  F  F1  1  0.95512000  0.03618200  0.34342900  1
  F  F2  1  0.45512000  0.46381800  0.15657100  1
  F  F3  1  0.95512000  0.46381800  0.34342900  1
  F  F4  1  0.54488000  0.53618200  0.84342900  1
  F  F5  1  0.04488000  0.53618200  0.65657100  1
  F  F6  1  0.04488000  0.96381800  0.65657100  1
  F  F7  1  0.54488000  0.96381800  0.84342900  1
loop_
_geom_bond_atom_site_label_1
_geom_bond_atom_site_label_2
_geom_bond_distance
_geom_bond_site_symmetry_2
Li0 O0 2.047963 1_555
Li0 O2 2.243423 1_555
Li1 O1 2.047963 1_555
Li1 O3 2.243423 1_554
Li2 O11 2.047963 1_555
Li2 O9 2.243423 1_555
Li3 O10 2.047963 1_555
Li3 O6 2.243423 1_556
C0 O2 1.271157 1_555
C0 O1 1.288659 1_555
C0 O5 1.317862 1_555
C1 O3 1.271157 1_655
C1 O0 1.288659 1_556
C1 O4 1.317862 1_555
C2 O6 1.271157 1_455
C2 O11 1.288659 1_554
C2 O7 1.317862 1_555
C3 O9 1.271157 1_555
C3 O10 1.288659 1_555
C3 O8 1.317862 1_555
O0 V1 2.167140 1_554
O1 V0 2.167140 1_555
O2 V0 2.126719 1_655
O3 V1 2.126719 1_555
O4 V0 2.050586 1_655
O4 V1 2.083410 1_555
O5 V1 2.050586 1_555
O5 V0 2.083410 1_555
O6 V2 2.126719 1_555
O7 V3 2.050586 1_455
O7 V2 2.083410 1_555
O8 V2 2.050586 1_555
O8 V3 2.083410 1_555
O9 V3 2.126719 1_455
O10 V3 2.167140 1_555
O11 V2 2.167140 1_556
F0 V2 1.956007 1_545
F0 Li1 2.065062 1_555
F0 Li0 2.323035 1_555
F1 V3 1.956007 1_545
F1 Li0 2.065062 1_555
F1 Li1 2.323035 1_655
F2 V2 1.956007 1_555
F2 Li1 2.065062 1_555
F2 Li0 2.323035 1_555
F3 V3 1.956007 1_555
F3 Li0 2.065062 1_555
F3 Li1 2.323035 1_655
F4 V1 1.956007 1_555
F4 Li3 2.065062 1_555
F4 Li2 2.323035 1_555
F5 V0 1.956007 1_555
F5 Li2 2.065062 1_555
F5 Li3 2.323035 1_455
F6 V0 1.956007 1_565
F6 Li2 2.065062 1_555
F6 Li3 2.323035 1_455
F7 V1 1.956007 1_565
F7 Li3 2.065062 1_555
F7 Li2 2.323035 1_555
