# generated using pymatgen
data_LiSiBiO4
_symmetry_space_group_name_H-M   'P 1'
_cell_length_a   5.03400600
_cell_length_b   7.96266300
_cell_length_c   18.34674000
_cell_angle_alpha   90.00000000
_cell_angle_beta   90.00000000
_cell_angle_gamma   90.00000000
_symmetry_Int_Tables_number   1
_chemical_formula_structural   LiSiBiO4
_chemical_formula_sum   'Li8 Si8 Bi8 O32'
_cell_volume   735.41243824
_cell_formula_units_Z   8
loop_
 _symmetry_equiv_pos_site_id
 _symmetry_equiv_pos_as_xyz
  1  'x, y, z'
loop_
 _atom_site_type_symbol
 _atom_site_label
 _atom_site_symmetry_multiplicity
 _atom_site_fract_x
 _atom_site_fract_y
 _atom_site_fract_z
 _atom_site_occupancy
  Li  Li0  1  0.72058500  0.01613700  0.44128400  1
  Li  Li1  1  0.23264800  0.17618700  0.85482000  1
  Li  Li2  1  0.73264800  0.32381300  0.35482000  1
  Li  Li3  1  0.22058500  0.48386300  0.94128400  1
  Li  Li4  1  0.72058500  0.51613700  0.05871600  1
  Li  Li5  1  0.23264800  0.67618700  0.64518000  1
  Li  Li6  1  0.73264800  0.82381300  0.14518000  1
  Li  Li7  1  0.22058500  0.98386300  0.55871600  1
  Si  Si0  1  0.71550100  0.21922300  0.18042200  1
  Si  Si1  1  0.22414100  0.24365200  0.43090800  1
  Si  Si2  1  0.72414100  0.25634800  0.93090800  1
  Si  Si3  1  0.21550100  0.28077700  0.68042200  1
  Si  Si4  1  0.71550100  0.71922300  0.31957800  1
  Si  Si5  1  0.22414100  0.74365200  0.06909200  1
  Si  Si6  1  0.72414100  0.75634800  0.56909200  1
  Si  Si7  1  0.21550100  0.78077700  0.81957800  1
  Bi  Bi0  1  0.27703900  0.04415900  0.26519900  1
  Bi  Bi1  1  0.30543300  0.18575600  0.04830000  1
  Bi  Bi2  1  0.80543300  0.31424400  0.54830000  1
  Bi  Bi3  1  0.77703900  0.45584100  0.76519900  1
  Bi  Bi4  1  0.27703900  0.54415900  0.23480100  1
  Bi  Bi5  1  0.30543300  0.68575600  0.45170000  1
  Bi  Bi6  1  0.80543300  0.81424400  0.95170000  1
  Bi  Bi7  1  0.77703900  0.95584100  0.73480100  1
  O  O0  1  0.56529300  0.05222400  0.14520100  1
  O  O1  1  0.06081300  0.10359100  0.47865400  1
  O  O2  1  0.60154300  0.07673100  0.96653600  1
  O  O3  1  0.09755200  0.11438700  0.63947600  1
  O  O4  1  0.04153900  0.20457700  0.18043900  1
  O  O5  1  0.54450300  0.23650400  0.44116900  1
  O  O6  1  0.60380300  0.21990800  0.26570100  1
  O  O7  1  0.12532500  0.23323500  0.34511400  1
  O  O8  1  0.62532500  0.26676500  0.84511400  1
  O  O9  1  0.10380300  0.28009200  0.76570100  1
  O  O10  1  0.04450300  0.26349600  0.94116900  1
  O  O11  1  0.54153900  0.29542300  0.68043900  1
  O  O12  1  0.59755200  0.38561300  0.13947600  1
  O  O13  1  0.10154300  0.42326900  0.46653600  1
  O  O14  1  0.56081300  0.39640900  0.97865400  1
  O  O15  1  0.06529300  0.44777600  0.64520100  1
  O  O16  1  0.56529300  0.55222400  0.35479900  1
  O  O17  1  0.06081300  0.60359100  0.02134600  1
  O  O18  1  0.60154300  0.57673100  0.53346400  1
  O  O19  1  0.09755200  0.61438700  0.86052400  1
  O  O20  1  0.04153900  0.70457700  0.31956100  1
  O  O21  1  0.54450300  0.73650400  0.05883100  1
  O  O22  1  0.60380300  0.71990800  0.23429900  1
  O  O23  1  0.12532500  0.73323500  0.15488600  1
  O  O24  1  0.62532500  0.76676500  0.65488600  1
  O  O25  1  0.10380300  0.78009200  0.73429900  1
  O  O26  1  0.04450300  0.76349600  0.55883100  1
  O  O27  1  0.54153900  0.79542300  0.81956100  1
  O  O28  1  0.59755200  0.88561300  0.36052400  1
  O  O29  1  0.10154300  0.92326900  0.03346400  1
  O  O30  1  0.56081300  0.89640900  0.52134600  1
  O  O31  1  0.06529300  0.94777600  0.85479900  1
loop_
_geom_bond_atom_site_label_1
_geom_bond_atom_site_label_2
_geom_bond_distance
_geom_bond_site_symmetry_2
Li0 O28 1.912893 1_545
Li0 O30 1.927011 1_545
Li0 O5 1.965886 1_555
Li0 O1 1.971896 1_655
Li1 O9 1.943857 1_555
Li1 O10 1.972340 1_555
Li1 O31 2.004404 1_545
Li1 O8 2.111728 1_555
Li2 O6 1.943857 1_555
Li2 O5 1.972340 1_555
Li2 O16 2.004404 1_555
Li2 O7 2.111728 1_655
Li3 O19 1.912893 1_555
Li3 O17 1.927011 1_556
Li3 O10 1.965886 1_555
Li3 O14 1.971896 1_555
Li4 O12 1.912893 1_555
Li4 O14 1.927011 1_554
Li4 O21 1.965886 1_555
Li4 O17 1.971896 1_655
Li5 O25 1.943857 1_555
Li5 O26 1.972340 1_555
Li5 O15 2.004404 1_555
Li5 O24 2.111728 1_555
Li6 O22 1.943857 1_555
Li6 O21 1.972340 1_555
Li6 O0 2.004404 1_565
Li6 O23 2.111728 1_655
Li7 O3 1.912893 1_565
Li7 O1 1.927011 1_565
Li7 O26 1.965886 1_555
Li7 O30 1.971896 1_555
Bi0 O6 2.159697 1_555
Bi0 O7 2.235988 1_555
Bi0 O4 2.335660 1_555
Bi0 O0 2.637547 1_555
Bi0 O28 2.693642 1_545
Bi1 O2 2.286024 1_554
Bi1 O29 2.344366 1_545
Bi1 O10 2.443713 1_554
Bi1 O0 2.449980 1_555
Bi1 O14 2.469610 1_554
Bi1 O12 2.737369 1_555
Bi1 O4 2.768492 1_555
Bi2 O13 2.286024 1_655
Bi2 O18 2.344366 1_555
Bi2 O5 2.443713 1_555
Bi2 O15 2.449980 1_655
Bi2 O1 2.469610 1_655
Bi2 O3 2.737369 1_655
Bi2 O11 2.768492 1_555
Bi3 O9 2.159697 1_655
Bi3 O8 2.235988 1_555
Bi3 O11 2.335660 1_555
Bi3 O15 2.637547 1_655
Bi3 O19 2.693642 1_655
Bi4 O22 2.159697 1_555
Bi4 O23 2.235988 1_555
Bi4 O20 2.335660 1_555
Bi4 O16 2.637547 1_555
Bi4 O12 2.693642 1_555
Bi5 O18 2.286024 1_555
Bi5 O13 2.344366 1_555
Bi5 O26 2.443713 1_555
Bi5 O16 2.449980 1_555
Bi5 O30 2.469610 1_555
Bi5 O28 2.737369 1_555
Bi5 O20 2.768492 1_555
Bi6 O29 2.286024 1_656
Bi6 O2 2.344366 1_565
Bi6 O21 2.443713 1_556
Bi6 O31 2.449980 1_655
Bi6 O17 2.469610 1_656
Bi6 O19 2.737369 1_655
Bi6 O27 2.768492 1_555
Bi7 O25 2.159697 1_655
Bi7 O24 2.235988 1_555
Bi7 O27 2.335660 1_555
Bi7 O31 2.637547 1_655
Bi7 O3 2.693642 1_665
O0 Si0 1.660595 1_555
O1 Si1 1.639253 1_555
O2 Si2 1.689293 1_555
O3 Si3 1.634707 1_555
O4 Si0 1.645415 1_455
O5 Si1 1.624652 1_555
O6 Si0 1.662572 1_555
O7 Si1 1.652855 1_555
O8 Si2 1.652855 1_555
O9 Si3 1.662572 1_555
O10 Si2 1.624652 1_455
O11 Si3 1.645415 1_555
O12 Si0 1.634707 1_555
O13 Si1 1.689293 1_555
O14 Si2 1.639253 1_555
O15 Si3 1.660595 1_555
O16 Si4 1.660595 1_555
O17 Si5 1.639253 1_555
O18 Si6 1.689293 1_555
O19 Si7 1.634707 1_555
O20 Si4 1.645415 1_455
O21 Si5 1.624652 1_555
O22 Si4 1.662572 1_555
O23 Si5 1.652855 1_555
O24 Si6 1.652855 1_555
O25 Si7 1.662572 1_555
O26 Si6 1.624652 1_455
O27 Si7 1.645415 1_555
O28 Si4 1.634707 1_555
O29 Si5 1.689293 1_555
O30 Si6 1.639253 1_555
O31 Si7 1.660595 1_555
