# generated using pymatgen
data_Cs2BaO2
_symmetry_space_group_name_H-M   'P 1'
_cell_length_a   7.05114300
_cell_length_b   7.35710800
_cell_length_c   11.50451800
_cell_angle_alpha   90.00000000
_cell_angle_beta   90.00000000
_cell_angle_gamma   90.00000000
_symmetry_Int_Tables_number   1
_chemical_formula_structural   Cs2BaO2
_chemical_formula_sum   'Cs8 Ba4 O8'
_cell_volume   596.80861247
_cell_formula_units_Z   4
loop_
 _symmetry_equiv_pos_site_id
 _symmetry_equiv_pos_as_xyz
  1  'x, y, z'
loop_
 _atom_site_type_symbol
 _atom_site_label
 _atom_site_symmetry_multiplicity
 _atom_site_fract_x
 _atom_site_fract_y
 _atom_site_fract_z
 _atom_site_occupancy
  Cs  Cs0  1  0.41247600  0.59676700  0.15910600  1
  Cs  Cs1  1  0.58752400  0.09676700  0.15910600  1
  Cs  Cs2  1  0.08752400  0.09676700  0.34089400  1
  Cs  Cs3  1  0.91247600  0.59676700  0.34089400  1
  Cs  Cs4  1  0.08752400  0.40323300  0.65910600  1
  Cs  Cs5  1  0.91247600  0.90323300  0.65910600  1
  Cs  Cs6  1  0.41247600  0.90323300  0.84089400  1
  Cs  Cs7  1  0.58752400  0.40323300  0.84089400  1
  Ba  Ba0  1  0.02670600  0.25000000  0.00000000  1
  Ba  Ba1  1  0.97329400  0.75000000  0.00000000  1
  Ba  Ba2  1  0.47329400  0.75000000  0.50000000  1
  Ba  Ba3  1  0.52670600  0.25000000  0.50000000  1
  O  O0  1  0.19308000  0.97542800  0.10582800  1
  O  O1  1  0.80692000  0.47542800  0.10582800  1
  O  O2  1  0.30692000  0.47542800  0.39417200  1
  O  O3  1  0.69308000  0.97542800  0.39417200  1
  O  O4  1  0.30692000  0.02457200  0.60582800  1
  O  O5  1  0.69308000  0.52457200  0.60582800  1
  O  O6  1  0.19308000  0.52457200  0.89417200  1
  O  O7  1  0.80692000  0.02457200  0.89417200  1
loop_
_geom_bond_atom_site_label_1
_geom_bond_atom_site_label_2
_geom_bond_distance
_geom_bond_site_symmetry_2
Cs0 O2 2.943508 1_555
Cs0 O1 2.984650 1_555
Cs0 O0 3.244971 1_555
Cs0 O6 3.459079 1_554
Cs1 O3 2.943508 1_545
Cs1 O0 2.984650 1_545
Cs1 O1 3.244971 1_555
Cs1 O7 3.459079 1_554
Cs2 O0 2.943508 1_545
Cs2 O3 2.984650 1_445
Cs2 O2 3.244971 1_555
Cs2 O4 3.459079 1_555
Cs3 O1 2.943508 1_555
Cs3 O2 2.984650 1_655
Cs3 O3 3.244971 1_555
Cs3 O5 3.459079 1_555
Cs4 O6 2.943508 1_555
Cs4 O5 2.984650 1_455
Cs4 O4 3.244971 1_555
Cs4 O2 3.459079 1_555
Cs5 O7 2.943508 1_565
Cs5 O4 2.984650 1_665
Cs5 O5 3.244971 1_555
Cs5 O3 3.459079 1_555
Cs6 O4 2.943508 1_565
Cs6 O7 2.984650 1_565
Cs6 O6 3.244971 1_555
Cs6 O0 3.459079 1_556
Cs7 O5 2.943508 1_555
Cs7 O6 2.984650 1_555
Cs7 O7 3.244971 1_555
Cs7 O1 3.459079 1_556
Ba0 O1 2.575776 1_455
Ba0 O7 2.575776 1_454
Ba0 O0 2.634228 1_545
Ba0 O6 2.634228 1_554
Ba1 O0 2.575776 1_655
Ba1 O6 2.575776 1_654
Ba1 O7 2.634228 1_564
Ba1 O1 2.634228 1_555
Ba2 O5 2.575776 1_555
Ba2 O3 2.575776 1_555
Ba2 O4 2.634228 1_565
Ba2 O2 2.634228 1_555
Ba3 O4 2.575776 1_555
Ba3 O2 2.575776 1_555
Ba3 O5 2.634228 1_555
Ba3 O3 2.634228 1_545
