# generated using pymatgen
data_MnCdO2
_symmetry_space_group_name_H-M   'P 1'
_cell_length_a   4.66143400
_cell_length_b   4.66143400
_cell_length_c   5.70924293
_cell_angle_alpha   65.90594532
_cell_angle_beta   65.90594532
_cell_angle_gamma   90.00000000
_symmetry_Int_Tables_number   1
_chemical_formula_structural   MnCdO2
_chemical_formula_sum   'Mn2 Cd2 O4'
_cell_volume   101.29281699
_cell_formula_units_Z   2
loop_
 _symmetry_equiv_pos_site_id
 _symmetry_equiv_pos_as_xyz
  1  'x, y, z'
loop_
 _atom_site_type_symbol
 _atom_site_label
 _atom_site_symmetry_multiplicity
 _atom_site_fract_x
 _atom_site_fract_y
 _atom_site_fract_z
 _atom_site_occupancy
  Mn  Mn0  1  0.50000000  0.50000000  0.00000000  1
  Mn  Mn1  1  0.00000000  0.00000000  0.00000000  1
  Cd  Cd0  1  0.25000000  0.75000000  0.50000000  1
  Cd  Cd1  1  0.75000000  0.25000000  0.50000000  1
  O  O0  1  0.50000000  0.00000000  0.00000000  1
  O  O1  1  0.00000000  0.50000000  0.00000000  1
  O  O2  1  0.25000000  0.25000000  0.50000000  1
  O  O3  1  0.75000000  0.75000000  0.50000000  1
loop_
_geom_bond_atom_site_label_1
_geom_bond_atom_site_label_2
_geom_bond_distance
_geom_bond_site_symmetry_2
Mn0 O1 2.330717 1_555
Mn0 O0 2.330717 1_565
Mn0 O1 2.330717 1_655
Mn0 O0 2.330717 1_555
Mn0 O2 2.330824 1_555
Mn0 O3 2.330824 1_554
Mn1 O1 2.330717 1_555
Mn1 O0 2.330717 1_455
Mn1 O1 2.330717 1_545
Mn1 O0 2.330717 1_555
Mn1 O3 2.330824 1_445
Mn1 O2 2.330824 1_554
Cd0 O2 2.330717 1_565
Cd0 O3 2.330717 1_455
Cd0 O3 2.330717 1_555
Cd0 O2 2.330717 1_555
Cd0 O1 2.330824 1_556
Cd0 O0 2.330824 1_565
Cd1 O3 2.330717 1_545
Cd1 O2 2.330717 1_655
Cd1 O3 2.330717 1_555
Cd1 O2 2.330717 1_555
Cd1 O1 2.330824 1_655
Cd1 O0 2.330824 1_556
