# generated using pymatgen
data_LiMnP3H8O13
_symmetry_space_group_name_H-M   'P 1'
_cell_length_a   7.13654100
_cell_length_b   7.71211204
_cell_length_c   10.01929979
_cell_angle_alpha   84.01389174
_cell_angle_beta   74.37310427
_cell_angle_gamma   78.16618925
_symmetry_Int_Tables_number   1
_chemical_formula_structural   LiMnP3H8O13
_chemical_formula_sum   'Li2 Mn2 P6 H16 O26'
_cell_volume   519.06600218
_cell_formula_units_Z   2
loop_
 _symmetry_equiv_pos_site_id
 _symmetry_equiv_pos_as_xyz
  1  'x, y, z'
loop_
 _atom_site_type_symbol
 _atom_site_label
 _atom_site_symmetry_multiplicity
 _atom_site_fract_x
 _atom_site_fract_y
 _atom_site_fract_z
 _atom_site_occupancy
  Li  Li0  1  0.00000000  0.00000000  0.00000000  1
  Li  Li1  1  0.00000000  0.50000000  0.50000000  1
  Mn  Mn0  1  0.81864000  0.80901200  0.76196500  1
  Mn  Mn1  1  0.18136000  0.19098800  0.23803500  1
  P  P0  1  0.32687900  0.80549800  0.74280900  1
  P  P1  1  0.24065600  0.80463100  0.47749500  1
  P  P2  1  0.59412600  0.46100200  0.73090500  1
  P  P3  1  0.40587400  0.53899800  0.26909500  1
  P  P4  1  0.75934400  0.19536900  0.52250500  1
  P  P5  1  0.67312100  0.19450200  0.25719100  1
  H  H0  1  0.36082700  0.98104700  0.96596200  1
  H  H1  1  0.81845100  0.81863900  0.43034300  1
  H  H2  1  0.30986800  0.86378600  0.10180000  1
  H  H3  1  0.92099900  0.74092600  0.20451200  1
  H  H4  1  0.69039000  0.69462800  0.39823800  1
  H  H5  1  0.85640800  0.66192800  0.01146500  1
  H  H6  1  0.64946500  0.62487000  0.00531100  1
  H  H7  1  0.09924100  0.65814200  0.08493500  1
  H  H8  1  0.90075900  0.34185800  0.91506500  1
  H  H9  1  0.35053500  0.37513000  0.99468900  1
  H  H10  1  0.14359200  0.33807200  0.98853500  1
  H  H11  1  0.30961000  0.30537200  0.60176200  1
  H  H12  1  0.07900100  0.25907400  0.79548800  1
  H  H13  1  0.69013200  0.13621400  0.89820000  1
  H  H14  1  0.18154900  0.18136100  0.56965700  1
  H  H15  1  0.63917300  0.01895300  0.03403800  1
  O  O0  1  0.47613200  0.87803400  0.79130200  1
  O  O1  1  0.27069200  0.98443000  0.06012000  1
  O  O2  1  0.19282300  0.96002900  0.38242000  1
  O  O3  1  0.36248300  0.86039900  0.57675400  1
  O  O4  1  0.11109600  0.85460600  0.81273900  1
  O  O5  1  0.97630000  0.74675800  0.10177300  1
  O  O6  1  0.82653100  0.71456600  0.37988600  1
  O  O7  1  0.78675500  0.62306400  0.94781500  1
  O  O8  1  0.75990300  0.56245900  0.67414300  1
  O  O9  1  0.07989300  0.71086500  0.56341400  1
  O  O10  1  0.41933600  0.65699900  0.39163800  1
  O  O11  1  0.38078000  0.59001500  0.74671800  1
  O  O12  1  0.41414300  0.65198400  0.13697700  1
  O  O13  1  0.58585700  0.34801600  0.86302300  1
  O  O14  1  0.61922000  0.40998500  0.25328200  1
  O  O15  1  0.58066400  0.34300100  0.60836200  1
  O  O16  1  0.92010700  0.28913500  0.43658600  1
  O  O17  1  0.24009700  0.43754100  0.32585700  1
  O  O18  1  0.21324500  0.37693600  0.05218500  1
  O  O19  1  0.17346900  0.28543400  0.62011400  1
  O  O20  1  0.02370000  0.25324200  0.89822700  1
  O  O21  1  0.88890400  0.14539400  0.18726100  1
  O  O22  1  0.63751700  0.13960100  0.42324600  1
  O  O23  1  0.80717700  0.03997100  0.61758000  1
  O  O24  1  0.72930800  0.01557000  0.93988000  1
  O  O25  1  0.52386800  0.12196600  0.20869800  1
loop_
_geom_bond_atom_site_label_1
_geom_bond_atom_site_label_2
_geom_bond_distance
_geom_bond_site_symmetry_2
Li0 O5 2.123654 1_445
Li0 O20 2.123654 1_554
Li0 O1 2.150768 1_545
Li0 O24 2.150768 1_454
Li0 O21 2.163073 1_455
Li0 O4 2.163073 1_544
Li1 O9 2.040663 1_555
Li1 O16 2.040663 1_455
Li1 O17 2.106752 1_555
Li1 O8 2.106752 1_455
Li1 O6 2.294816 1_455
Li1 O19 2.294816 1_555
Mn0 O23 2.176835 1_565
Mn0 O7 2.219065 1_555
Mn0 O8 2.332389 1_555
Mn0 O0 2.335887 1_555
Mn0 O4 2.376732 1_655
Mn0 O24 2.384362 1_565
Mn0 O9 2.396581 1_655
Mn1 O2 2.176835 1_545
Mn1 O18 2.219065 1_555
Mn1 O17 2.332389 1_555
Mn1 O25 2.335887 1_555
Mn1 O21 2.376732 1_455
Mn1 O1 2.384362 1_545
Mn1 O16 2.396581 1_455
H0 O1 0.987811 1_556
H1 O6 0.976241 1_555
H2 O1 0.996699 1_555
H3 O5 0.998071 1_555
H4 O6 0.980073 1_555
H5 O7 1.007660 1_554
H6 O7 0.991973 1_554
H7 O5 0.981672 1_455
H8 O20 0.981672 1_655
H9 O18 0.991973 1_556
H10 O18 1.007660 1_556
H11 O19 0.980073 1_555
H12 O20 0.998071 1_555
H13 O24 0.996699 1_555
H14 O19 0.976241 1_555
H15 O24 0.987811 1_554
O0 P0 1.504471 1_555
O2 P1 1.493151 1_555
O3 P1 1.624290 1_555
O3 P0 1.637485 1_555
O4 P0 1.496873 1_555
O8 P2 1.503230 1_555
O9 P1 1.502868 1_555
O10 P3 1.636256 1_555
O10 P1 1.637124 1_555
O11 P2 1.617039 1_555
O11 P0 1.625894 1_555
O12 P3 1.501146 1_555
O13 P2 1.501146 1_555
O14 P3 1.617039 1_555
O14 P5 1.625894 1_555
O15 P2 1.636256 1_555
O15 P4 1.637124 1_555
O16 P4 1.502868 1_555
O17 P3 1.503230 1_555
O21 P5 1.496873 1_555
O22 P4 1.624290 1_555
O22 P5 1.637485 1_555
O23 P4 1.493151 1_555
O25 P5 1.504471 1_555
