# generated using pymatgen
data_Li3V2(PO4)3
_symmetry_space_group_name_H-M   'P 1'
_cell_length_a   10.24692170
_cell_length_b   10.24692170
_cell_length_c   10.24692170
_cell_angle_alpha   109.47122063
_cell_angle_beta   109.47122063
_cell_angle_gamma   109.47122063
_symmetry_Int_Tables_number   1
_chemical_formula_structural   Li3V2(PO4)3
_chemical_formula_sum   'Li12 V8 P12 O48'
_cell_volume   828.24412075
_cell_formula_units_Z   4
loop_
 _symmetry_equiv_pos_site_id
 _symmetry_equiv_pos_as_xyz
  1  'x, y, z'
loop_
 _atom_site_type_symbol
 _atom_site_label
 _atom_site_symmetry_multiplicity
 _atom_site_fract_x
 _atom_site_fract_y
 _atom_site_fract_z
 _atom_site_occupancy
  Li  Li0  1  0.75000000  0.12500000  0.37500000  1
  Li  Li1  1  0.87500000  0.62500000  0.25000000  1
  Li  Li2  1  0.37500000  0.12500000  0.25000000  1
  Li  Li3  1  0.25000000  0.37500000  0.12500000  1
  Li  Li4  1  0.37500000  0.75000000  0.12500000  1
  Li  Li5  1  0.12500000  0.25000000  0.37500000  1
  Li  Li6  1  0.62500000  0.25000000  0.87500000  1
  Li  Li7  1  0.87500000  0.75000000  0.62500000  1
  Li  Li8  1  0.75000000  0.62500000  0.87500000  1
  Li  Li9  1  0.12500000  0.37500000  0.75000000  1
  Li  Li10  1  0.62500000  0.87500000  0.75000000  1
  Li  Li11  1  0.25000000  0.87500000  0.62500000  1
  V  V0  1  0.50000000  0.00000000  0.00000000  1
  V  V1  1  0.00000000  0.00000000  0.00000000  1
  V  V2  1  0.50000000  0.50000000  0.00000000  1
  V  V3  1  0.50000000  0.00000000  0.50000000  1
  V  V4  1  0.00000000  0.50000000  0.00000000  1
  V  V5  1  0.00000000  0.00000000  0.50000000  1
  V  V6  1  0.50000000  0.50000000  0.50000000  1
  V  V7  1  0.00000000  0.50000000  0.50000000  1
  P  P0  1  0.87500000  0.25000000  0.12500000  1
  P  P1  1  0.62500000  0.37500000  0.25000000  1
  P  P2  1  0.87500000  0.12500000  0.75000000  1
  P  P3  1  0.75000000  0.87500000  0.12500000  1
  P  P4  1  0.75000000  0.37500000  0.62500000  1
  P  P5  1  0.62500000  0.75000000  0.37500000  1
  P  P6  1  0.37500000  0.25000000  0.62500000  1
  P  P7  1  0.25000000  0.62500000  0.37500000  1
  P  P8  1  0.25000000  0.12500000  0.87500000  1
  P  P9  1  0.37500000  0.62500000  0.75000000  1
  P  P10  1  0.12500000  0.87500000  0.25000000  1
  P  P11  1  0.12500000  0.75000000  0.87500000  1
  O  O0  1  0.88887500  0.00543900  0.29825300  1
  O  O1  1  0.88343500  0.38887500  0.09062200  1
  O  O2  1  0.90937800  0.29281300  0.29825300  1
  O  O3  1  0.90937800  0.11656500  0.61112500  1
  O  O4  1  0.59062200  0.20174700  0.20718700  1
  O  O5  1  0.99456100  0.70174700  0.11112500  1
  O  O6  1  0.61656500  0.40937800  0.11112500  1
  O  O7  1  0.20718700  0.11656500  0.00543900  1
  O  O8  1  0.88887500  0.38343500  0.59062200  1
  O  O9  1  0.61112500  0.20174700  0.49456100  1
  O  O10  1  0.70718700  0.70174700  0.09062200  1
  O  O11  1  0.79825300  0.50543900  0.38887500  1
  O  O12  1  0.70174700  0.09062200  0.70718700  1
  O  O13  1  0.11656500  0.00543900  0.20718700  1
  O  O14  1  0.49456100  0.38343500  0.29281300  1
  O  O15  1  0.49456100  0.61112500  0.20174700  1
  O  O16  1  0.00543900  0.20718700  0.11656500  1
  O  O17  1  0.40937800  0.11112500  0.61656500  1
  O  O18  1  0.38343500  0.29281300  0.49456100  1
  O  O19  1  0.79825300  0.79281300  0.40937800  1
  O  O20  1  0.70174700  0.11112500  0.99456100  1
  O  O21  1  0.70718700  0.50543900  0.61656500  1
  O  O22  1  0.79281300  0.40937800  0.79825300  1
  O  O23  1  0.61112500  0.90937800  0.11656500  1
  O  O24  1  0.29281300  0.49456100  0.38343500  1
  O  O25  1  0.20718700  0.59062200  0.20174700  1
  O  O26  1  0.38887500  0.09062200  0.88343500  1
  O  O27  1  0.29825300  0.88887500  0.00543900  1
  O  O28  1  0.61656500  0.70718700  0.50543900  1
  O  O29  1  0.20174700  0.20718700  0.59062200  1
  O  O30  1  0.50543900  0.38887500  0.79825300  1
  O  O31  1  0.59062200  0.88887500  0.38343500  1
  O  O32  1  0.99456100  0.79281300  0.88343500  1
  O  O33  1  0.50543900  0.61656500  0.70718700  1
  O  O34  1  0.88343500  0.99456100  0.79281300  1
  O  O35  1  0.20174700  0.49456100  0.61112500  1
  O  O36  1  0.29825300  0.90937800  0.29281300  1
  O  O37  1  0.29281300  0.29825300  0.90937800  1
  O  O38  1  0.11112500  0.61656500  0.40937800  1
  O  O39  1  0.38887500  0.79825300  0.50543900  1
  O  O40  1  0.79281300  0.88343500  0.99456100  1
  O  O41  1  0.38343500  0.59062200  0.88887500  1
  O  O42  1  0.09062200  0.88343500  0.38887500  1
  O  O43  1  0.00543900  0.29825300  0.88887500  1
  O  O44  1  0.40937800  0.79825300  0.79281300  1
  O  O45  1  0.09062200  0.70718700  0.70174700  1
  O  O46  1  0.11656500  0.61112500  0.90937800  1
  O  O47  1  0.11112500  0.99456100  0.70174700  1
loop_
_geom_bond_atom_site_label_1
_geom_bond_atom_site_label_2
_geom_bond_distance
_geom_bond_site_symmetry_2
Li0 O23 2.326039 1_545
Li0 O8 2.326039 1_555
Li0 O9 2.326046 1_555
Li0 O0 2.326046 1_555
Li0 O4 2.475492 1_555
Li0 O3 2.475492 1_555
Li0 O31 2.475492 1_545
Li0 O2 2.475492 1_555
Li1 O6 2.326039 1_555
Li1 O42 2.326039 1_655
Li1 O5 2.326046 1_555
Li1 O11 2.326046 1_555
Li1 O38 2.475492 1_655
Li1 O1 2.475492 1_555
Li1 O19 2.475492 1_555
Li1 O10 2.475492 1_555
Li2 O4 2.326039 1_555
Li2 O36 2.326039 1_545
Li2 O13 2.326040 1_555
Li2 O14 2.326040 1_555
Li2 O9 2.475498 1_555
Li2 O27 2.475498 1_545
Li2 O18 2.475500 1_555
Li2 O7 2.475500 1_555
Li3 O25 2.326039 1_555
Li3 O37 2.326039 1_554
Li3 O7 2.326040 1_555
Li3 O24 2.326040 1_555
Li3 O43 2.475498 1_554
Li3 O15 2.475498 1_555
Li3 O14 2.475500 1_555
Li3 O16 2.475500 1_555
Li4 O46 2.326039 1_554
Li4 O31 2.326039 1_555
Li4 O15 2.326046 1_555
Li4 O27 2.326046 1_555
Li4 O36 2.475492 1_555
Li4 O23 2.475492 1_555
Li4 O25 2.475492 1_555
Li4 O41 2.475492 1_554
Li5 O29 2.326039 1_555
Li5 O2 2.326039 1_455
Li5 O16 2.326040 1_555
Li5 O18 2.326040 1_555
Li5 O0 2.475498 1_455
Li5 O35 2.475498 1_555
Li5 O24 2.475500 1_555
Li5 O13 2.475500 1_555
Li6 O1 2.326039 1_556
Li6 O17 2.326039 1_555
Li6 O20 2.326046 1_555
Li6 O30 2.326046 1_555
Li6 O6 2.475492 1_556
Li6 O12 2.475492 1_555
Li6 O26 2.475492 1_555
Li6 O22 2.475492 1_555
Li7 O19 2.326039 1_555
Li7 O45 2.326039 1_655
Li7 O28 2.326040 1_555
Li7 O32 2.326040 1_555
Li7 O47 2.475498 1_655
Li7 O11 2.475498 1_555
Li7 O34 2.475500 1_555
Li7 O21 2.475500 1_555
Li8 O22 2.326039 1_555
Li8 O10 2.326039 1_556
Li8 O21 2.326040 1_555
Li8 O40 2.326040 1_555
Li8 O30 2.475498 1_555
Li8 O5 2.475498 1_556
Li8 O33 2.475500 1_555
Li8 O32 2.475500 1_555
Li9 O3 2.326039 1_455
Li9 O41 2.326039 1_555
Li9 O43 2.326046 1_555
Li9 O35 2.326046 1_555
Li9 O37 2.475492 1_555
Li9 O29 2.475492 1_555
Li9 O8 2.475492 1_455
Li9 O46 2.475492 1_555
Li10 O12 2.326039 1_565
Li10 O44 2.326039 1_555
Li10 O33 2.326040 1_555
Li10 O34 2.326040 1_555
Li10 O20 2.475498 1_565
Li10 O39 2.475498 1_555
Li10 O28 2.475500 1_555
Li10 O40 2.475500 1_555
Li11 O38 2.326039 1_555
Li11 O26 2.326039 1_565
Li11 O47 2.326046 1_555
Li11 O39 2.326046 1_555
Li11 O17 2.475492 1_565
Li11 O42 2.475492 1_555
Li11 O44 2.475492 1_555
Li11 O45 2.475492 1_555
O0 P3 1.558557 1_545
O0 V5 2.030561 1_655
O1 P0 1.558559 1_555
O1 V4 2.030567 1_655
O2 P0 1.558559 1_555
O2 V7 2.030567 1_655
O3 P2 1.558559 1_555
O3 V5 2.030567 1_655
O4 P1 1.558559 1_555
O4 V0 2.030567 1_555
O5 P10 1.558557 1_655
O5 V4 2.030561 1_655
O6 P1 1.558559 1_555
O6 V2 2.030567 1_555
O7 P8 1.558549 1_554
O7 V1 2.030572 1_555
O8 P4 1.558559 1_555
O8 V7 2.030567 1_655
O9 P4 1.558557 1_555
O9 V3 2.030561 1_555
O10 P3 1.558559 1_555
O10 V2 2.030567 1_555
O11 P1 1.558557 1_555
O11 V7 2.030561 1_655
O12 P2 1.558559 1_555
O12 V3 2.030567 1_555
O13 P10 1.558549 1_545
O13 V1 2.030572 1_555
O14 P1 1.558549 1_555
O14 V6 2.030572 1_555
O15 P5 1.558557 1_555
O15 V2 2.030561 1_555
O16 P0 1.558549 1_455
O16 V1 2.030572 1_555
O17 P6 1.558559 1_555
O17 V3 2.030567 1_555
O18 P6 1.558549 1_555
O18 V6 2.030572 1_555
O19 P5 1.558559 1_555
O19 V5 2.030567 1_665
O20 P0 1.558557 1_556
O20 V0 2.030561 1_556
O21 P4 1.558549 1_555
O21 V6 2.030572 1_555
O22 P4 1.558559 1_555
O22 V4 2.030567 1_656
O23 P3 1.558559 1_555
O23 V0 2.030567 1_565
O24 P7 1.558549 1_555
O24 V6 2.030572 1_555
O25 P7 1.558559 1_555
O25 V4 2.030567 1_555
O26 P8 1.558559 1_555
O26 V0 2.030567 1_556
O27 P11 1.558557 1_554
O27 V0 2.030561 1_565
O28 P5 1.558549 1_555
O28 V6 2.030572 1_555
O29 P6 1.558559 1_555
O29 V5 2.030567 1_555
O30 P6 1.558557 1_555
O30 V2 2.030561 1_556
O31 P5 1.558559 1_555
O31 V3 2.030567 1_565
O32 P11 1.558549 1_655
O32 V1 2.030572 1_666
O33 P9 1.558549 1_555
O33 V6 2.030572 1_555
O34 P2 1.558549 1_565
O34 V1 2.030572 1_666
O35 P9 1.558557 1_555
O35 V7 2.030561 1_555
O36 P10 1.558559 1_555
O36 V3 2.030567 1_565
O37 P8 1.558559 1_555
O37 V2 2.030567 1_556
O38 P7 1.558559 1_555
O38 V7 2.030567 1_555
O39 P7 1.558557 1_555
O39 V3 2.030561 1_565
O40 P3 1.558549 1_556
O40 V1 2.030572 1_666
O41 P9 1.558559 1_555
O41 V2 2.030567 1_556
O42 P10 1.558559 1_555
O42 V5 2.030567 1_565
O43 P2 1.558557 1_455
O43 V4 2.030561 1_556
O44 P9 1.558559 1_555
O44 V0 2.030567 1_566
O45 P11 1.558559 1_555
O45 V7 2.030567 1_555
O46 P11 1.558559 1_555
O46 V4 2.030567 1_556
O47 P8 1.558557 1_565
O47 V5 2.030561 1_565
