# generated using pymatgen
data_Li7Mn12Cu5O32
_symmetry_space_group_name_H-M   'P 1'
_cell_length_a   8.32125543
_cell_length_b   8.28499382
_cell_length_c   8.30616287
_cell_angle_alpha   90.02191018
_cell_angle_beta   89.95294522
_cell_angle_gamma   90.04737446
_symmetry_Int_Tables_number   1
_chemical_formula_structural   Li7Mn12Cu5O32
_chemical_formula_sum   'Li7 Mn12 Cu5 O32'
_cell_volume   572.63931097
_cell_formula_units_Z   1
loop_
 _symmetry_equiv_pos_site_id
 _symmetry_equiv_pos_as_xyz
  1  'x, y, z'
loop_
 _atom_site_type_symbol
 _atom_site_label
 _atom_site_symmetry_multiplicity
 _atom_site_fract_x
 _atom_site_fract_y
 _atom_site_fract_z
 _atom_site_occupancy
  Li  Li0  1  0.00253700  0.00274600  0.00316000  1
  Li  Li1  1  0.12712000  0.87545700  0.37289100  1
  Li  Li2  1  0.37412000  0.12719400  0.87351700  1
  Li  Li3  1  0.49743300  0.99656500  0.50302600  1
  Li  Li4  1  0.50275700  0.49737400  0.99693500  1
  Li  Li5  1  0.62475100  0.62718600  0.62745700  1
  Li  Li6  1  0.87329900  0.37272800  0.12476300  1
  Mn  Mn0  1  0.12497400  0.12780400  0.62648400  1
  Mn  Mn1  1  0.12689900  0.37445800  0.87245200  1
  Mn  Mn2  1  0.12892700  0.62648700  0.12338400  1
  Mn  Mn3  1  0.37236100  0.37397500  0.62544400  1
  Mn  Mn4  1  0.37562600  0.62532500  0.37241100  1
  Mn  Mn5  1  0.37582500  0.87040500  0.12653800  1
  Mn  Mn6  1  0.62261900  0.37154500  0.37379300  1
  Mn  Mn7  1  0.62708100  0.12504400  0.12862400  1
  Mn  Mn8  1  0.62950400  0.87303400  0.87559300  1
  Mn  Mn9  1  0.87109200  0.12487300  0.37551800  1
  Mn  Mn10  1  0.87307200  0.87721500  0.62837300  1
  Mn  Mn11  1  0.87561300  0.62769000  0.87568800  1
  Cu  Cu0  1  0.24264600  0.23926700  0.24132500  1
  Cu  Cu1  1  0.25676500  0.76015200  0.74196800  1
  Cu  Cu2  1  0.74179100  0.25807400  0.75981300  1
  Cu  Cu3  1  0.75776300  0.74270600  0.25644700  1
  Cu  Cu4  1  0.99329300  0.50697700  0.49356300  1
  O  O0  1  0.10097000  0.13000200  0.39069500  1
  O  O1  1  0.10860000  0.89616000  0.62503800  1
  O  O2  1  0.11473400  0.61503500  0.88596600  1
  O  O3  1  0.12720400  0.38896400  0.10310600  1
  O  O4  1  0.12216700  0.14846800  0.85536100  1
  O  O5  1  0.13373200  0.36701900  0.63361600  1
  O  O6  1  0.14127900  0.62111100  0.35446300  1
  O  O7  1  0.14930100  0.85578400  0.12220600  1
  O  O8  1  0.35021000  0.14431300  0.62154600  1
  O  O9  1  0.35527900  0.37839400  0.85107000  1
  O  O10  1  0.36380000  0.63464400  0.13684800  1
  O  O11  1  0.37739500  0.85148700  0.35617000  1
  O  O12  1  0.37406200  0.61123900  0.60278400  1
  O  O13  1  0.38575500  0.38489300  0.38572500  1
  O  O14  1  0.39159700  0.10220300  0.12608800  1
  O  O15  1  0.39990300  0.86793600  0.89096100  1
  O  O16  1  0.60216000  0.37164700  0.61047100  1
  O  O17  1  0.60968600  0.60279800  0.37264900  1
  O  O18  1  0.61504300  0.88527300  0.11471800  1
  O  O19  1  0.62657500  0.10949300  0.89782400  1
  O  O20  1  0.62270400  0.35190200  0.14445100  1
  O  O21  1  0.63593300  0.13587500  0.36460800  1
  O  O22  1  0.64469800  0.87775400  0.64901300  1
  O  O23  1  0.65034900  0.64289600  0.87801500  1
  O  O24  1  0.85314700  0.35964200  0.37930400  1
  O  O25  1  0.85598300  0.12219700  0.14951700  1
  O  O26  1  0.86529800  0.86377900  0.86396900  1
  O  O27  1  0.87858000  0.64584400  0.64104400  1
  O  O28  1  0.87115700  0.89083800  0.39763400  1
  O  O29  1  0.88543700  0.11472400  0.61549300  1
  O  O30  1  0.89160400  0.39734200  0.87092900  1
  O  O31  1  0.89779500  0.62618300  0.10967700  1
loop_
_geom_bond_atom_site_label_1
_geom_bond_atom_site_label_2
_geom_bond_distance
_geom_bond_site_symmetry_2
Li0 O25 1.985725 1_455
Li0 O4 1.988164 1_554
Li0 O7 1.989245 1_545
Li0 O26 1.991330 1_444
Li1 O7 2.096539 1_555
Li1 O11 2.096699 1_555
Li1 O1 2.106849 1_555
Li1 O6 2.116121 1_555
Li1 O0 2.125362 1_565
Li1 O28 2.143549 1_455
Li2 O9 2.095610 1_555
Li2 O8 2.107354 1_555
Li2 O4 2.109632 1_555
Li2 O14 2.113308 1_556
Li2 O19 2.115802 1_555
Li2 O15 2.163740 1_545
Li3 O11 1.982246 1_555
Li3 O22 1.986541 1_555
Li3 O8 1.991967 1_565
Li3 O21 1.994713 1_565
Li4 O23 1.983457 1_555
Li4 O9 1.986247 1_555
Li4 O20 1.988789 1_556
Li4 O10 1.994983 1_556
Li5 O22 2.090069 1_555
Li5 O23 2.096206 1_555
Li5 O12 2.100303 1_555
Li5 O27 2.120792 1_555
Li5 O17 2.129808 1_555
Li5 O16 2.129948 1_555
Li6 O25 2.090726 1_555
Li6 O20 2.098502 1_555
Li6 O31 2.113332 1_555
Li6 O24 2.123565 1_555
Li6 O30 2.123636 1_554
Li6 O3 2.124462 1_655
Mn0 O8 1.879533 1_555
Mn0 O4 1.908843 1_555
Mn0 O1 1.923921 1_545
Mn0 O0 1.968917 1_555
Mn0 O5 1.984038 1_555
Mn0 O29 1.998262 1_455
Mn1 O4 1.878028 1_555
Mn1 O9 1.908797 1_555
Mn1 O3 1.919573 1_556
Mn1 O30 1.967315 1_455
Mn1 O5 1.985513 1_555
Mn1 O2 1.998938 1_555
Mn2 O7 1.907163 1_555
Mn2 O6 1.922749 1_555
Mn2 O31 1.926768 1_455
Mn2 O10 1.958836 1_555
Mn2 O3 1.975049 1_555
Mn2 O2 1.977899 1_554
Mn3 O9 1.879698 1_555
Mn3 O8 1.911768 1_555
Mn3 O16 1.916267 1_555
Mn3 O12 1.974831 1_555
Mn3 O5 1.987586 1_555
Mn3 O13 1.996251 1_555
Mn4 O11 1.878697 1_555
Mn4 O12 1.917149 1_555
Mn4 O6 1.956155 1_555
Mn4 O17 1.956751 1_555
Mn4 O10 1.960732 1_555
Mn4 O13 1.996940 1_555
Mn5 O7 1.889124 1_555
Mn5 O11 1.913906 1_555
Mn5 O14 1.924821 1_565
Mn5 O10 1.957660 1_555
Mn5 O15 1.966909 1_554
Mn5 O18 1.996637 1_555
Mn6 O20 1.911829 1_555
Mn6 O17 1.919066 1_555
Mn6 O24 1.921481 1_555
Mn6 O21 1.957211 1_555
Mn6 O16 1.973104 1_555
Mn6 O13 1.976600 1_555
Mn7 O20 1.884439 1_555
Mn7 O25 1.912949 1_555
Mn7 O19 1.921346 1_554
Mn7 O21 1.963580 1_555
Mn7 O14 1.968612 1_555
Mn7 O18 1.992254 1_545
Mn8 O22 1.886567 1_555
Mn8 O23 1.914823 1_555
Mn8 O15 1.915156 1_555
Mn8 O26 1.965955 1_555
Mn8 O19 1.967843 1_565
Mn8 O18 1.992303 1_556
Mn9 O25 1.881631 1_555
Mn9 O0 1.917561 1_655
Mn9 O28 1.947731 1_545
Mn9 O24 1.951146 1_555
Mn9 O21 1.961186 1_555
Mn9 O29 1.998746 1_555
Mn10 O22 1.907944 1_555
Mn10 O28 1.919999 1_555
Mn10 O27 1.920422 1_555
Mn10 O26 1.961116 1_555
Mn10 O1 1.966208 1_655
Mn10 O29 1.973302 1_565
Mn11 O23 1.878895 1_555
Mn11 O30 1.913566 1_555
Mn11 O31 1.952493 1_556
Mn11 O27 1.954978 1_555
Mn11 O26 1.960408 1_555
Mn11 O2 1.994533 1_655
Cu0 O14 1.934302 1_555
Cu0 O0 1.935293 1_555
Cu0 O3 1.945231 1_555
Cu0 O13 2.076350 1_555
Cu1 O1 1.933451 1_555
Cu1 O15 1.935844 1_555
Cu1 O12 1.952023 1_555
Cu1 O2 2.066242 1_555
Cu2 O30 1.932862 1_555
Cu2 O19 1.935446 1_555
Cu2 O16 1.944022 1_555
Cu2 O29 2.067655 1_555
Cu3 O28 1.941809 1_555
Cu3 O31 1.942831 1_555
Cu3 O17 1.946797 1_555
Cu3 O18 2.048684 1_555
Cu4 O27 1.932434 1_555
Cu4 O6 1.934443 1_655
Cu4 O24 1.936315 1_555
Cu4 O5 2.017184 1_655
