# generated using pymatgen
data_Li2TlPCO7
_symmetry_space_group_name_H-M   'P 1'
_cell_length_a   6.71180500
_cell_length_b   5.08010800
_cell_length_c   9.00212790
_cell_angle_alpha   87.22307945
_cell_angle_beta   90.00000000
_cell_angle_gamma   90.00000000
_symmetry_Int_Tables_number   1
_chemical_formula_structural   Li2TlPCO7
_chemical_formula_sum   'Li4 Tl2 P2 C2 O14'
_cell_volume   306.58237008
_cell_formula_units_Z   2
loop_
 _symmetry_equiv_pos_site_id
 _symmetry_equiv_pos_as_xyz
  1  'x, y, z'
loop_
 _atom_site_type_symbol
 _atom_site_label
 _atom_site_symmetry_multiplicity
 _atom_site_fract_x
 _atom_site_fract_y
 _atom_site_fract_z
 _atom_site_occupancy
  Li  Li0  1  0.99571400  0.79379500  0.79710200  1
  Li  Li1  1  0.50428600  0.79379500  0.79710200  1
  Li  Li2  1  0.49571400  0.20620500  0.20289800  1
  Li  Li3  1  0.00428600  0.20620500  0.20289800  1
  Tl  Tl0  1  0.25000000  0.24685800  0.63421500  1
  Tl  Tl1  1  0.75000000  0.75314200  0.36578500  1
  P  P0  1  0.75000000  0.26392100  0.59013300  1
  P  P1  1  0.25000000  0.73607900  0.40986700  1
  C  C0  1  0.25000000  0.25987600  0.94012300  1
  C  C1  1  0.75000000  0.74012400  0.05987700  1
  O  O0  1  0.75000000  0.70911300  0.92014200  1
  O  O1  1  0.25000000  0.02895400  0.88212600  1
  O  O2  1  0.25000000  0.47023400  0.84529700  1
  O  O3  1  0.93215300  0.14407400  0.67372700  1
  O  O4  1  0.56784700  0.14407400  0.67372700  1
  O  O5  1  0.25000000  0.79837700  0.57772800  1
  O  O6  1  0.75000000  0.57339100  0.59490700  1
  O  O7  1  0.25000000  0.42660900  0.40509300  1
  O  O8  1  0.75000000  0.20162300  0.42227200  1
  O  O9  1  0.43215300  0.85592600  0.32627300  1
  O  O10  1  0.06784700  0.85592600  0.32627300  1
  O  O11  1  0.75000000  0.52976600  0.15470300  1
  O  O12  1  0.75000000  0.97104600  0.11787400  1
  O  O13  1  0.25000000  0.29088700  0.07985800  1
loop_
_geom_bond_atom_site_label_1
_geom_bond_atom_site_label_2
_geom_bond_distance
_geom_bond_site_symmetry_2
Li0 O0 2.021270 1_555
Li0 O3 2.095346 1_565
Li0 O1 2.239300 1_665
Li0 O2 2.394546 1_655
Li1 O0 2.021270 1_555
Li1 O4 2.095346 1_565
Li1 O1 2.239300 1_565
Li1 O2 2.394546 1_555
Li2 O13 2.021270 1_555
Li2 O9 2.095346 1_545
Li2 O12 2.239300 1_545
Li2 O11 2.394546 1_555
Li3 O13 2.021270 1_555
Li3 O10 2.095346 1_545
Li3 O12 2.239300 1_445
Li3 O11 2.394546 1_455
C0 O13 1.275290 1_556
C0 O1 1.306949 1_555
C0 O2 1.335027 1_555
C1 O0 1.275290 1_554
C1 O12 1.306949 1_555
C1 O11 1.335027 1_555
O1 Tl0 2.442667 1_555
O2 Tl0 2.259946 1_555
O3 P0 1.545079 1_555
O3 Tl0 2.220867 1_655
O4 P0 1.545079 1_555
O4 Tl0 2.220867 1_555
O5 P1 1.558827 1_555
O5 Tl0 2.358310 1_565
O6 P0 1.574808 1_555
O6 Tl1 2.214862 1_555
O7 P1 1.574808 1_555
O7 Tl0 2.214862 1_555
O8 P0 1.558827 1_555
O8 Tl1 2.358310 1_545
O9 P1 1.545079 1_555
O9 Tl1 2.220867 1_555
O10 P1 1.545079 1_555
O10 Tl1 2.220867 1_455
O11 Tl1 2.259946 1_555
O12 Tl1 2.442667 1_555
