# generated using pymatgen
data_Mn12O7F17
_symmetry_space_group_name_H-M   'P 1'
_cell_length_a   5.05790200
_cell_length_b   5.68325122
_cell_length_c   15.35983989
_cell_angle_alpha   87.37890215
_cell_angle_beta   88.73275150
_cell_angle_gamma   86.24600333
_symmetry_Int_Tables_number   1
_chemical_formula_structural   Mn12O7F17
_chemical_formula_sum   'Mn12 O7 F17'
_cell_volume   440.03436274
_cell_formula_units_Z   1
loop_
 _symmetry_equiv_pos_site_id
 _symmetry_equiv_pos_as_xyz
  1  'x, y, z'
loop_
 _atom_site_type_symbol
 _atom_site_label
 _atom_site_symmetry_multiplicity
 _atom_site_fract_x
 _atom_site_fract_y
 _atom_site_fract_z
 _atom_site_occupancy
  Mn  Mn0  1  0.97028000  0.91047200  0.99826000  1
  Mn  Mn1  1  0.03011700  0.61380700  0.83289100  1
  Mn  Mn2  1  0.98289200  0.93398000  0.66008000  1
  Mn  Mn3  1  0.01492300  0.45661300  0.49654900  1
  Mn  Mn4  1  0.96998900  0.88630600  0.33052800  1
  Mn  Mn5  1  0.94707100  0.48144200  0.17939500  1
  Mn  Mn6  1  0.53647000  0.11868900  0.82893800  1
  Mn  Mn7  1  0.51396100  0.38475600  0.00500800  1
  Mn  Mn8  1  0.53260500  0.56542000  0.34139300  1
  Mn  Mn9  1  0.50582600  0.10030600  0.48874500  1
  Mn  Mn10  1  0.51692500  0.55653500  0.68097600  1
  Mn  Mn11  1  0.49008600  0.01464100  0.16827000  1
  O  O0  1  0.80902100  0.88440300  0.88731600  1
  O  O1  1  0.72100400  0.12219500  0.05848100  1
  O  O2  1  0.70940100  0.77291800  0.25218300  1
  O  O3  1  0.82286200  0.68420800  0.73179500  1
  O  O4  1  0.81996100  0.66161000  0.40990200  1
  O  O5  1  0.35051400  0.38427200  0.43023700  1
  O  O6  1  0.32272000  0.40574300  0.78074500  1
  F  F0  1  0.78407500  0.18689900  0.73138400  1
  F  F1  1  0.83693100  0.15400000  0.41849500  1
  F  F2  1  0.66512600  0.86606400  0.57860500  1
  F  F3  1  0.75428100  0.38172400  0.90030900  1
  F  F4  1  0.74726400  0.62167800  0.06639100  1
  F  F5  1  0.65001000  0.29447800  0.24485000  1
  F  F6  1  0.68880000  0.36812300  0.57311400  1
  F  F7  1  0.26149900  0.33858100  0.10379800  1
  F  F8  1  0.23157600  0.62758200  0.94692100  1
  F  F9  1  0.19158300  0.64014500  0.59837600  1
  F  F10  1  0.21430600  0.59995700  0.26880800  1
  F  F11  1  0.17636300  0.14259900  0.57045300  1
  F  F12  1  0.29754200  0.12303200  0.93486500  1
  F  F13  1  0.13811600  0.09790800  0.24779900  1
  F  F14  1  0.30321500  0.88170800  0.40269400  1
  F  F15  1  0.19602900  0.84376000  0.10060400  1
  F  F16  1  0.29665700  0.89344900  0.75084200  1
loop_
_geom_bond_atom_site_label_1
_geom_bond_atom_site_label_2
_geom_bond_distance
_geom_bond_site_symmetry_2
Mn0 O0 1.921326 1_555
Mn0 O1 1.935116 1_566
Mn1 O3 1.905378 1_455
Mn1 O6 2.008755 1_555
Mn1 O0 2.040943 1_455
Mn2 O3 1.962538 1_555
Mn3 O4 1.966413 1_455
Mn3 O5 1.989479 1_555
Mn4 O4 1.906964 1_555
Mn4 O2 1.962870 1_555
Mn5 O2 2.299632 1_555
Mn6 O6 2.017980 1_555
Mn6 O0 2.045097 1_545
Mn7 O1 1.928527 1_555
Mn8 O5 1.926244 1_555
Mn8 O4 1.934655 1_555
Mn8 O2 2.000992 1_555
Mn9 O5 1.939533 1_555
Mn10 O3 1.944860 1_555
Mn10 O6 1.992781 1_555
Mn11 O2 2.116772 1_545
Mn11 O1 2.119812 1_555
F0 Mn6 1.972656 1_555
F0 Mn2 2.045201 1_545
F0 Mn10 2.522730 1_555
F1 Mn9 2.004721 1_555
F1 Mn4 2.146356 1_545
F1 Mn3 2.375858 1_655
F2 Mn9 2.016720 1_565
F2 Mn2 2.124302 1_555
F2 Mn10 2.448758 1_555
F3 Mn7 1.994312 1_556
F3 Mn1 2.193315 1_655
F3 Mn6 2.251464 1_555
F4 Mn7 2.113717 1_555
F4 Mn5 2.124818 1_555
F4 Mn0 2.257087 1_554
F5 Mn5 2.107577 1_555
F5 Mn11 2.224595 1_555
F5 Mn8 2.229981 1_555
F6 Mn3 2.079791 1_655
F6 Mn10 2.150298 1_555
F6 Mn9 2.295742 1_555
F7 Mn7 1.980824 1_555
F7 Mn5 2.090971 1_455
F7 Mn11 2.304768 1_555
F8 Mn1 2.052809 1_555
F8 Mn7 2.103845 1_556
F8 Mn0 2.178282 1_455
F9 Mn10 2.116151 1_555
F9 Mn3 2.160017 1_555
F9 Mn2 2.161204 1_455
F10 Mn8 1.972656 1_555
F10 Mn5 2.110141 1_455
F10 Mn4 2.213621 1_455
F11 Mn2 2.049766 1_445
F11 Mn9 2.071799 1_555
F11 Mn3 2.192052 1_555
F12 Mn6 2.005248 1_555
F12 Mn7 2.232351 1_556
F12 Mn0 2.286995 1_445
F13 Mn4 1.931420 1_445
F13 Mn11 2.175252 1_555
F13 Mn5 2.519613 1_455
F14 Mn4 2.035740 1_455
F14 Mn9 2.171956 1_565
F14 Mn8 2.301575 1_555
F15 Mn0 1.971505 1_454
F15 Mn11 2.141332 1_565
F15 Mn5 2.708227 1_455
F16 Mn2 2.129721 1_455
F16 Mn6 2.226412 1_565
F16 Mn10 2.432049 1_555
F16 Mn1 2.440028 1_555
