# generated using pymatgen
data_LiVO2F
_symmetry_space_group_name_H-M   'P 1'
_cell_length_a   13.89916000
_cell_length_b   3.50709100
_cell_length_c   4.93465000
_cell_angle_alpha   90.00002795
_cell_angle_beta   89.99867862
_cell_angle_gamma   90.00000824
_symmetry_Int_Tables_number   1
_chemical_formula_structural   LiVO2F
_chemical_formula_sum   'Li4 V4 O8 F4'
_cell_volume   240.54256849
_cell_formula_units_Z   4
loop_
 _symmetry_equiv_pos_site_id
 _symmetry_equiv_pos_as_xyz
  1  'x, y, z'
loop_
 _atom_site_type_symbol
 _atom_site_label
 _atom_site_symmetry_multiplicity
 _atom_site_fract_x
 _atom_site_fract_y
 _atom_site_fract_z
 _atom_site_occupancy
  Li  Li0  1  0.17193200  0.75000000  0.62801700  1
  Li  Li1  1  0.32809900  0.25000000  0.12789900  1
  Li  Li2  1  0.67193400  0.75000000  0.87196800  1
  Li  Li3  1  0.82809000  0.24999900  0.37205700  1
  V  V0  1  0.08295000  0.25000000  0.09403100  1
  V  V1  1  0.41705000  0.75000100  0.59406000  1
  V  V2  1  0.58294500  0.25000000  0.40600100  1
  V  V3  1  0.91705500  0.74999900  0.90602000  1
  O  O0  1  0.06149200  0.75000000  0.93063300  1
  O  O1  1  0.11168800  0.25000000  0.42155300  1
  O  O2  1  0.38829500  0.75000000  0.92153600  1
  O  O3  1  0.43851000  0.25000200  0.43068600  1
  O  O4  1  0.56149400  0.75000000  0.56936300  1
  O  O5  1  0.61170000  0.25000000  0.07837500  1
  O  O6  1  0.88830100  0.74999900  0.57845700  1
  O  O7  1  0.93849900  0.24999900  0.06932300  1
  F  F0  1  0.20910400  0.25000100  0.91355900  1
  F  F1  1  0.29087700  0.75000200  0.41363700  1
  F  F2  1  0.70911100  0.24999800  0.58645500  1
  F  F3  1  0.79087300  0.74999800  0.08637000  1
loop_
_geom_bond_atom_site_label_1
_geom_bond_atom_site_label_2
_geom_bond_distance
_geom_bond_site_symmetry_2
Li0 O0 2.141529 1_555
Li0 O1 2.194108 1_555
Li0 O1 2.194109 1_565
Li1 O3 2.141878 1_555
Li1 O2 2.193604 1_544
Li1 O2 2.193605 1_554
Li2 O4 2.141541 1_555
Li2 O5 2.193906 1_566
Li2 O5 2.193907 1_556
Li3 O7 2.141627 1_555
Li3 O6 2.193786 1_555
Li3 O6 2.193787 1_545
O0 V0 1.952952 1_566
O0 V0 1.952953 1_556
O0 V3 2.011226 1_455
O1 V0 1.664843 1_555
O2 V1 1.664661 1_555
O3 V1 1.952899 1_555
O3 V1 1.952906 1_545
O3 V2 2.011215 1_555
O4 V2 1.952858 1_555
O4 V2 1.952859 1_565
O4 V1 2.011343 1_555
O5 V2 1.665380 1_555
O6 V3 1.665092 1_555
O7 V3 1.952729 1_544
O7 V3 1.952730 1_554
O7 V0 2.011449 1_655
F0 Li1 1.963232 1_556
F0 V0 1.966614 1_556
F0 Li0 2.308095 1_555
F0 Li0 2.308100 1_545
F1 Li0 1.962712 1_555
F1 V1 1.966776 1_555
F1 Li1 2.308824 1_565
F1 Li1 2.308834 1_555
F2 Li3 1.963158 1_555
F2 V2 1.966759 1_555
F2 Li2 2.308006 1_545
F2 Li2 2.308016 1_555
F3 Li2 1.962742 1_554
F3 V3 1.966688 1_554
F3 Li3 2.308672 1_555
F3 Li3 2.308677 1_565
