# generated using pymatgen
data_RbFeP2(HO4)2
_symmetry_space_group_name_H-M   'P 1'
_cell_length_a   18.47427305
_cell_length_b   18.47427305
_cell_length_c   18.47427392
_cell_angle_alpha   25.96881313
_cell_angle_beta   25.96881313
_cell_angle_gamma   25.96881304
_symmetry_Int_Tables_number   1
_chemical_formula_structural   RbFeP2(HO4)2
_chemical_formula_sum   'Rb6 Fe6 P12 H12 O48'
_cell_volume   1064.90899482
_cell_formula_units_Z   6
loop_
 _symmetry_equiv_pos_site_id
 _symmetry_equiv_pos_as_xyz
  1  'x, y, z'
loop_
 _atom_site_type_symbol
 _atom_site_label
 _atom_site_symmetry_multiplicity
 _atom_site_fract_x
 _atom_site_fract_y
 _atom_site_fract_z
 _atom_site_occupancy
  Rb  Rb0  1  0.75000000  0.75000000  0.75000000  1
  Rb  Rb1  1  0.25000000  0.25000000  0.25000000  1
  Rb  Rb2  1  0.83286100  0.83286100  0.83286100  1
  Rb  Rb3  1  0.33286100  0.33286100  0.33286100  1
  Rb  Rb4  1  0.16713900  0.16713900  0.16713900  1
  Rb  Rb5  1  0.66713900  0.66713900  0.66713900  1
  Fe  Fe0  1  0.41382500  0.41382500  0.41382500  1
  Fe  Fe1  1  0.91382500  0.91382500  0.91382500  1
  Fe  Fe2  1  0.58617500  0.58617500  0.58617500  1
  Fe  Fe3  1  0.08617500  0.08617500  0.08617500  1
  Fe  Fe4  1  0.50000000  0.50000000  0.50000000  1
  Fe  Fe5  1  0.00000000  0.00000000  0.00000000  1
  P  P0  1  0.20091100  0.75951600  0.40136100  1
  P  P1  1  0.40136100  0.20091100  0.75951600  1
  P  P2  1  0.75951600  0.40136100  0.20091100  1
  P  P3  1  0.90136100  0.25951600  0.70091100  1
  P  P4  1  0.70091100  0.90136100  0.25951600  1
  P  P5  1  0.25951600  0.70091100  0.90136100  1
  P  P6  1  0.79908900  0.24048400  0.59863900  1
  P  P7  1  0.59863900  0.79908900  0.24048400  1
  P  P8  1  0.24048400  0.59863900  0.79908900  1
  P  P9  1  0.09863900  0.74048400  0.29908900  1
  P  P10  1  0.29908900  0.09863900  0.74048400  1
  P  P11  1  0.74048400  0.29908900  0.09863900  1
  H  H0  1  0.01416300  0.41996600  0.92638400  1
  H  H1  1  0.92638400  0.01416300  0.41996600  1
  H  H2  1  0.41996600  0.92638400  0.01416300  1
  H  H3  1  0.42638400  0.91996600  0.51416300  1
  H  H4  1  0.51416300  0.42638400  0.91996600  1
  H  H5  1  0.91996600  0.51416300  0.42638400  1
  H  H6  1  0.98583700  0.58003400  0.07361600  1
  H  H7  1  0.07361600  0.98583700  0.58003400  1
  H  H8  1  0.58003400  0.07361600  0.98583700  1
  H  H9  1  0.57361600  0.08003400  0.48583700  1
  H  H10  1  0.48583700  0.57361600  0.08003400  1
  H  H11  1  0.08003400  0.48583700  0.57361600  1
  O  O0  1  0.31868200  0.70724800  0.41114100  1
  O  O1  1  0.41114100  0.31868200  0.70724800  1
  O  O2  1  0.70724800  0.41114100  0.31868200  1
  O  O3  1  0.91114100  0.20724800  0.81868200  1
  O  O4  1  0.81868200  0.91114100  0.20724800  1
  O  O5  1  0.20724800  0.81868200  0.91114100  1
  O  O6  1  0.68131800  0.29275200  0.58885900  1
  O  O7  1  0.58885900  0.68131800  0.29275200  1
  O  O8  1  0.29275200  0.58885900  0.68131800  1
  O  O9  1  0.08885900  0.79275200  0.18131800  1
  O  O10  1  0.18131800  0.08885900  0.79275200  1
  O  O11  1  0.79275200  0.18131800  0.08885900  1
  O  O12  1  0.20807100  0.59177200  0.50398300  1
  O  O13  1  0.50398300  0.20807100  0.59177200  1
  O  O14  1  0.59177200  0.50398300  0.20807100  1
  O  O15  1  0.00398300  0.09177200  0.70807100  1
  O  O16  1  0.70807100  0.00398300  0.09177200  1
  O  O17  1  0.09177200  0.70807100  0.00398300  1
  O  O18  1  0.79192900  0.40822800  0.49601700  1
  O  O19  1  0.49601700  0.79192900  0.40822800  1
  O  O20  1  0.40822800  0.49601700  0.79192900  1
  O  O21  1  0.99601700  0.90822800  0.29192900  1
  O  O22  1  0.29192900  0.99601700  0.90822800  1
  O  O23  1  0.90822800  0.29192900  0.99601700  1
  O  O24  1  0.98521100  0.88505700  0.50744300  1
  O  O25  1  0.50744300  0.98521100  0.88505700  1
  O  O26  1  0.88505700  0.50744300  0.98521100  1
  O  O27  1  0.00744300  0.38505700  0.48521100  1
  O  O28  1  0.48521100  0.00744300  0.38505700  1
  O  O29  1  0.38505700  0.48521100  0.00744300  1
  O  O30  1  0.01478900  0.11494300  0.49255700  1
  O  O31  1  0.49255700  0.01478900  0.11494300  1
  O  O32  1  0.11494300  0.49255700  0.01478900  1
  O  O33  1  0.99255700  0.61494300  0.51478900  1
  O  O34  1  0.51478900  0.99255700  0.61494300  1
  O  O35  1  0.61494300  0.51478900  0.99255700  1
  O  O36  1  0.25425700  0.30411500  0.60999500  1
  O  O37  1  0.60999500  0.25425700  0.30411500  1
  O  O38  1  0.30411500  0.60999500  0.25425700  1
  O  O39  1  0.10999500  0.80411500  0.75425700  1
  O  O40  1  0.75425700  0.10999500  0.80411500  1
  O  O41  1  0.80411500  0.75425700  0.10999500  1
  O  O42  1  0.74574300  0.69588500  0.39000500  1
  O  O43  1  0.39000500  0.74574300  0.69588500  1
  O  O44  1  0.69588500  0.39000500  0.74574300  1
  O  O45  1  0.89000500  0.19588500  0.24574300  1
  O  O46  1  0.24574300  0.89000500  0.19588500  1
  O  O47  1  0.19588500  0.24574300  0.89000500  1
loop_
_geom_bond_atom_site_label_1
_geom_bond_atom_site_label_2
_geom_bond_distance
_geom_bond_site_symmetry_2
Fe0 O14 2.005749 1_555
Fe0 O12 2.005749 1_555
Fe0 O13 2.005749 1_555
Fe0 O36 2.063563 1_555
Fe0 O37 2.063563 1_555
Fe0 O38 2.063563 1_555
Fe1 O15 2.005749 1_665
Fe1 O17 2.005749 1_656
Fe1 O16 2.005749 1_566
Fe1 O41 2.063563 1_556
Fe1 O40 2.063563 1_565
Fe1 O39 2.063563 1_655
Fe2 O20 2.005749 1_555
Fe2 O18 2.005749 1_555
Fe2 O19 2.005749 1_555
Fe2 O42 2.063563 1_555
Fe2 O43 2.063563 1_555
Fe2 O44 2.063563 1_555
Fe3 O21 2.005749 1_445
Fe3 O23 2.005749 1_454
Fe3 O22 2.005749 1_544
Fe3 O47 2.063563 1_554
Fe3 O46 2.063563 1_545
Fe3 O45 2.063563 1_455
Fe4 O7 2.024902 1_555
Fe4 O1 2.024902 1_555
Fe4 O6 2.024903 1_555
Fe4 O0 2.024903 1_555
Fe4 O8 2.024903 1_555
Fe4 O2 2.024903 1_555
Fe5 O10 2.024902 1_554
Fe5 O4 2.024902 1_445
Fe5 O11 2.024903 1_455
Fe5 O5 2.024903 1_544
Fe5 O9 2.024903 1_545
Fe5 O3 2.024903 1_454
H0 O26 1.023766 1_455
H0 O47 1.576542 1_555
H1 O24 1.023766 1_545
H1 O45 1.576542 1_555
H2 O25 1.023766 1_554
H2 O46 1.576542 1_555
H3 O28 1.023766 1_565
H3 O43 1.576542 1_555
H4 O29 1.023766 1_556
H4 O44 1.576542 1_555
H5 O27 1.023766 1_655
H5 O42 1.576542 1_555
H6 O32 1.023766 1_655
H6 O41 1.576542 1_555
H7 O30 1.023766 1_565
H7 O39 1.576542 1_555
H8 O31 1.023766 1_556
H8 O40 1.576542 1_555
H9 O34 1.023766 1_545
H9 O37 1.576542 1_555
H10 O35 1.023766 1_554
H10 O38 1.576542 1_555
H11 O33 1.023766 1_455
H11 O36 1.576542 1_555
O0 P0 1.521321 1_555
O0 Rb4 3.376650 1_565
O1 P1 1.521321 1_555
O1 Rb4 3.376651 1_556
O2 P2 1.521321 1_555
O2 Rb4 3.376650 1_655
O3 P3 1.521321 1_555
O3 Rb5 3.376650 1_555
O4 P4 1.521321 1_555
O4 Rb5 3.376651 1_555
O5 P5 1.521321 1_555
O5 Rb5 3.376650 1_555
O6 P6 1.521321 1_555
O6 Rb2 3.376650 1_545
O7 P7 1.521321 1_555
O7 Rb2 3.376651 1_554
O8 P8 1.521321 1_555
O8 Rb2 3.376650 1_455
O9 P9 1.521321 1_555
O9 Rb3 3.376650 1_555
O10 P10 1.521321 1_555
O10 Rb3 3.376651 1_555
O11 P11 1.521321 1_555
O11 Rb3 3.376650 1_555
O12 P0 1.537910 1_555
O12 Rb0 3.326880 1_455
O13 P1 1.537910 1_555
O13 Rb0 3.326880 1_545
O14 P2 1.537910 1_555
O14 Rb0 3.326880 1_554
O15 P3 1.537910 1_455
O15 Rb1 3.326880 1_555
O16 P4 1.537910 1_545
O16 Rb1 3.326880 1_555
O17 P5 1.537910 1_554
O17 Rb1 3.326880 1_555
O18 P6 1.537910 1_555
O18 Rb1 3.326880 1_655
O19 P7 1.537910 1_555
O19 Rb1 3.326880 1_565
O20 P8 1.537910 1_555
O20 Rb1 3.326880 1_556
O21 P9 1.537910 1_655
O21 Rb0 3.326880 1_555
O22 P10 1.537910 1_565
O22 Rb0 3.326880 1_555
O23 P11 1.537910 1_556
O23 Rb0 3.326880 1_555
O24 P0 1.616170 1_655
O24 Rb2 3.004307 1_555
O24 Rb0 3.093062 1_555
O25 P1 1.616170 1_565
O25 Rb2 3.004307 1_555
O25 Rb0 3.093062 1_555
O26 P2 1.616170 1_556
O26 Rb2 3.004307 1_555
O26 Rb0 3.093062 1_555
O27 P3 1.616170 1_455
O27 Rb3 3.004307 1_555
O27 Rb1 3.093062 1_555
O28 P4 1.616170 1_545
O28 Rb3 3.004307 1_555
O28 Rb1 3.093062 1_555
O29 P5 1.616170 1_554
O29 Rb3 3.004307 1_555
O29 Rb1 3.093062 1_555
O30 P6 1.616170 1_455
O30 Rb4 3.004307 1_555
O30 Rb1 3.093062 1_555
O31 P7 1.616170 1_545
O31 Rb4 3.004307 1_555
O31 Rb1 3.093062 1_555
O32 P8 1.616170 1_554
O32 Rb4 3.004307 1_555
O32 Rb1 3.093062 1_555
O33 P9 1.616170 1_655
O33 Rb5 3.004307 1_555
O33 Rb0 3.093062 1_555
O34 P10 1.616170 1_565
O34 Rb5 3.004307 1_555
O34 Rb0 3.093062 1_555
O35 P11 1.616170 1_556
O35 Rb5 3.004307 1_555
O35 Rb0 3.093062 1_555
O36 P10 1.545949 1_555
O37 P11 1.545950 1_555
O38 P9 1.545949 1_555
O39 P8 1.545949 1_555
O40 P6 1.545950 1_555
O41 P7 1.545949 1_555
O42 P4 1.545949 1_555
O43 P5 1.545950 1_555
O44 P3 1.545949 1_555
O45 P2 1.545949 1_555
O46 P0 1.545950 1_555
O47 P1 1.545949 1_555
