# generated using pymatgen
data_Li5Nb2Fe3O10
_symmetry_space_group_name_H-M   'P 1'
_cell_length_a   5.33585887
_cell_length_b   7.98271713
_cell_length_c   10.52585448
_cell_angle_alpha   108.00957834
_cell_angle_beta   80.86117623
_cell_angle_gamma   108.89018024
_symmetry_Int_Tables_number   1
_chemical_formula_structural   Li5Nb2Fe3O10
_chemical_formula_sum   'Li10 Nb4 Fe6 O20'
_cell_volume   402.55374954
_cell_formula_units_Z   2
loop_
 _symmetry_equiv_pos_site_id
 _symmetry_equiv_pos_as_xyz
  1  'x, y, z'
loop_
 _atom_site_type_symbol
 _atom_site_label
 _atom_site_symmetry_multiplicity
 _atom_site_fract_x
 _atom_site_fract_y
 _atom_site_fract_z
 _atom_site_occupancy
  Li  Li0  1  0.50010700  0.50033500  0.49995200  1
  Li  Li1  1  0.49960200  0.49968700  0.00000000  1
  Li  Li2  1  0.22802000  0.39863800  0.24241800  1
  Li  Li3  1  0.22749100  0.39883200  0.74266400  1
  Li  Li4  1  0.77267700  0.60127400  0.75733600  1
  Li  Li5  1  0.77202300  0.60132100  0.25761200  1
  Li  Li6  1  0.39731300  0.79641700  0.74658300  1
  Li  Li7  1  0.39708100  0.79665700  0.24685600  1
  Li  Li8  1  0.60283500  0.20328900  0.25310700  1
  Li  Li9  1  0.60253300  0.20357300  0.75345500  1
  Nb  Nb0  1  0.10556800  0.68788800  0.49049600  1
  Nb  Nb1  1  0.10597500  0.68894600  0.99096300  1
  Nb  Nb2  1  0.89375900  0.31107800  0.50913900  1
  Nb  Nb3  1  0.89423200  0.31188700  0.00942600  1
  Fe  Fe0  1  0.00015900  0.00002300  0.25009500  1
  Fe  Fe1  1  0.69398100  0.89583100  0.50125000  1
  Fe  Fe2  1  0.30617500  0.10421100  0.99872500  1
  Fe  Fe3  1  0.00016400  0.00003500  0.74996000  1
  Fe  Fe4  1  0.69313100  0.89414200  0.00098700  1
  Fe  Fe5  1  0.30685900  0.10577900  0.49901500  1
  O  O0  1  0.04925700  0.83941600  0.87793400  1
  O  O1  1  0.05047000  0.83997700  0.37832500  1
  O  O2  1  0.94943300  0.15967800  0.12150800  1
  O  O3  1  0.95080100  0.16063200  0.62206500  1
  O  O4  1  0.33522500  0.93897700  0.61634700  1
  O  O5  1  0.33636900  0.94001000  0.11696600  1
  O  O6  1  0.66374000  0.06006900  0.38306100  1
  O  O7  1  0.66474200  0.06098700  0.88340600  1
  O  O8  1  0.15641700  0.54582300  0.61860800  1
  O  O9  1  0.15709200  0.54589400  0.11875200  1
  O  O10  1  0.84295800  0.45387700  0.38111800  1
  O  O11  1  0.84346100  0.45422500  0.88143500  1
  O  O12  1  0.21793900  0.24490300  0.38145100  1
  O  O13  1  0.21801200  0.24508400  0.88143300  1
  O  O14  1  0.78205400  0.75499300  0.61853000  1
  O  O15  1  0.78230800  0.75526400  0.11880800  1
  O  O16  1  0.42206100  0.64712500  0.37893100  1
  O  O17  1  0.42215300  0.64802200  0.87902300  1
  O  O18  1  0.57789700  0.35237800  0.62117400  1
  O  O19  1  0.57792600  0.35282000  0.12108900  1
loop_
_geom_bond_atom_site_label_1
_geom_bond_atom_site_label_2
_geom_bond_distance
_geom_bond_site_symmetry_2
Li0 O10 2.115282 1_555
Li0 O8 2.116141 1_555
Li0 O16 2.139316 1_555
Li0 O18 2.147773 1_555
Li0 O14 2.236276 1_555
Li0 O12 2.239727 1_555
Li1 O9 2.112885 1_555
Li1 O11 2.116450 1_554
Li1 O19 2.141067 1_555
Li1 O17 2.147281 1_554
Li1 O13 2.235115 1_554
Li1 O15 2.242904 1_555
Li2 O16 2.109902 1_555
Li2 O9 2.147128 1_555
Li2 O19 2.155582 1_555
Li2 O12 2.166430 1_555
Li2 O2 2.175284 1_455
Li2 O10 2.404810 1_455
Li3 O17 2.113327 1_555
Li3 O8 2.149105 1_555
Li3 O18 2.159830 1_555
Li3 O13 2.165014 1_555
Li3 O3 2.166042 1_455
Li3 O11 2.400957 1_455
Li4 O18 2.111204 1_555
Li4 O11 2.149140 1_555
Li4 O17 2.161816 1_555
Li4 O14 2.165312 1_555
Li4 O0 2.165529 1_655
Li4 O8 2.399632 1_655
Li5 O19 2.110103 1_555
Li5 O10 2.146981 1_555
Li5 O16 2.155757 1_555
Li5 O15 2.165375 1_555
Li5 O1 2.172888 1_655
Li5 O9 2.405948 1_655
Li6 O17 2.132061 1_555
Li6 O4 2.153391 1_555
Li6 O8 2.165005 1_555
Li6 O0 2.186810 1_555
Li6 O7 2.321941 1_565
Li6 O14 2.329287 1_555
Li7 O16 2.136185 1_555
Li7 O5 2.152183 1_555
Li7 O9 2.164420 1_555
Li7 O1 2.181815 1_555
Li7 O6 2.312586 1_565
Li7 O15 2.331372 1_555
Li8 O19 2.135547 1_555
Li8 O6 2.152350 1_555
Li8 O10 2.163523 1_555
Li8 O2 2.182928 1_555
Li8 O5 2.311310 1_545
Li8 O12 2.331565 1_555
Li9 O18 2.132834 1_555
Li9 O7 2.151355 1_555
Li9 O11 2.165345 1_555
Li9 O3 2.187790 1_555
Li9 O4 2.323090 1_545
Li9 O13 2.328167 1_555
Nb0 O16 1.956120 1_555
Nb0 O1 2.045053 1_555
Nb0 O10 2.065487 1_455
Nb0 O8 2.106948 1_555
Nb0 O14 2.120468 1_455
Nb0 O4 2.134799 1_555
Nb1 O17 1.956703 1_555
Nb1 O0 2.045296 1_555
Nb1 O11 2.068762 1_455
Nb1 O9 2.110855 1_556
Nb1 O15 2.118264 1_456
Nb1 O5 2.136814 1_556
Nb2 O18 1.956515 1_555
Nb2 O3 2.045032 1_555
Nb2 O8 2.068985 1_655
Nb2 O10 2.110614 1_555
Nb2 O12 2.119372 1_655
Nb2 O6 2.136162 1_555
Nb3 O19 1.956078 1_555
Nb3 O2 2.045338 1_555
Nb3 O9 2.065892 1_655
Nb3 O11 2.107422 1_554
Nb3 O13 2.120642 1_654
Nb3 O7 2.134374 1_554
Fe0 O15 2.109140 1_445
Fe0 O12 2.109864 1_555
Fe0 O5 2.180435 1_545
Fe0 O6 2.180633 1_455
Fe0 O1 2.220266 1_545
Fe0 O2 2.221684 1_455
Fe1 O14 2.096030 1_555
Fe1 O6 2.121759 1_565
Fe1 O4 2.164023 1_555
Fe1 O16 2.202741 1_555
Fe1 O1 2.214011 1_655
Fe1 O3 2.231377 1_565
Fe2 O13 2.096587 1_555
Fe2 O5 2.121855 1_546
Fe2 O7 2.164205 1_555
Fe2 O19 2.202129 1_556
Fe2 O2 2.213635 1_456
Fe2 O0 2.231463 1_545
Fe3 O13 2.111291 1_555
Fe3 O14 2.111550 1_445
Fe3 O4 2.180260 1_545
Fe3 O7 2.180754 1_455
Fe3 O3 2.218923 1_455
Fe3 O0 2.219154 1_545
Fe4 O15 2.091093 1_555
Fe4 O7 2.130274 1_564
Fe4 O5 2.164465 1_555
Fe4 O17 2.188458 1_554
Fe4 O0 2.210249 1_654
Fe4 O2 2.232493 1_565
Fe5 O12 2.089818 1_555
Fe5 O4 2.127886 1_545
Fe5 O6 2.164551 1_555
Fe5 O18 2.191379 1_555
Fe5 O3 2.210235 1_455
Fe5 O1 2.234560 1_545
