# generated using pymatgen
data_Na5LiFe6(SiO3)12
_symmetry_space_group_name_H-M   'P 1'
_cell_length_a   9.42645571
_cell_length_b   9.42645571
_cell_length_c   9.62658433
_cell_angle_alpha   72.27325962
_cell_angle_beta   72.27325962
_cell_angle_gamma   56.15775738
_symmetry_Int_Tables_number   1
_chemical_formula_structural   Na5LiFe6(SiO3)12
_chemical_formula_sum   'Na5 Li1 Fe6 Si12 O36'
_cell_volume   666.82683073
_cell_formula_units_Z   1
loop_
 _symmetry_equiv_pos_site_id
 _symmetry_equiv_pos_as_xyz
  1  'x, y, z'
loop_
 _atom_site_type_symbol
 _atom_site_label
 _atom_site_symmetry_multiplicity
 _atom_site_fract_x
 _atom_site_fract_y
 _atom_site_fract_z
 _atom_site_occupancy
  Na  Na0  1  0.71222000  0.62088100  0.33322000  1
  Na  Na1  1  0.95442800  0.04557200  0.50000000  1
  Na  Na2  1  0.37911900  0.28778000  0.66678000  1
  Na  Na3  1  0.62108600  0.71235500  0.83337600  1
  Na  Na4  1  0.28764500  0.37891400  0.16662400  1
  Li  Li0  1  0.03398400  0.96601600  0.00000000  1
  Fe  Fe0  1  0.31489200  0.01856400  0.33358200  1
  Fe  Fe1  1  0.35182500  0.64817500  0.50000000  1
  Fe  Fe2  1  0.98143600  0.68510800  0.66641800  1
  Fe  Fe3  1  0.01907400  0.31346900  0.83410100  1
  Fe  Fe4  1  0.64813600  0.35186400  0.00000000  1
  Fe  Fe5  1  0.68653100  0.98092600  0.16589900  1
  Si  Si0  1  0.26021900  0.93902500  0.69317100  1
  Si  Si1  1  0.07180200  0.39448100  0.47543300  1
  Si  Si2  1  0.72718300  0.40526500  0.64267900  1
  Si  Si3  1  0.94033200  0.25965400  0.19060100  1
  Si  Si4  1  0.39413900  0.07207200  0.97580800  1
  Si  Si5  1  0.59473500  0.27281700  0.35732100  1
  Si  Si6  1  0.40476600  0.72792800  0.14157500  1
  Si  Si7  1  0.60551900  0.92819800  0.52456700  1
  Si  Si8  1  0.06097500  0.73978100  0.30682900  1
  Si  Si9  1  0.27207200  0.59523400  0.85842500  1
  Si  Si10  1  0.92792800  0.60586100  0.02419200  1
  Si  Si11  1  0.74034600  0.05966800  0.80939900  1
  O  O0  1  0.43747500  0.95030000  0.65884700  1
  O  O1  1  0.23651100  0.22612400  0.40911200  1
  O  O2  1  0.57184600  0.91219700  0.37295500  1
  O  O3  1  0.89494300  0.38335400  0.50839300  1
  O  O4  1  0.55911300  0.56996800  0.57591200  1
  O  O5  1  0.24528100  0.90479000  0.54108000  1
  O  O6  1  0.71701900  0.22799400  0.67539900  1
  O  O7  1  0.90362600  0.89188900  0.74165000  1
  O  O8  1  0.23789500  0.57943700  0.70670700  1
  O  O9  1  0.94937900  0.43762100  0.15771900  1
  O  O10  1  0.42056300  0.76210500  0.29329300  1
  O  O11  1  0.10811100  0.09637400  0.25835000  1
  O  O12  1  0.77200600  0.28298100  0.32460100  1
  O  O13  1  0.09521000  0.75471900  0.45892000  1
  O  O14  1  0.43003200  0.44088700  0.42408800  1
  O  O15  1  0.22620800  0.23687200  0.90887200  1
  O  O16  1  0.61664600  0.10505700  0.49160700  1
  O  O17  1  0.91218600  0.57081700  0.87313700  1
  O  O18  1  0.08780300  0.42815400  0.62704500  1
  O  O19  1  0.38444900  0.89498000  0.00762100  1
  O  O20  1  0.77387600  0.76348900  0.59088800  1
  O  O21  1  0.57006800  0.55882700  0.07582900  1
  O  O22  1  0.90822100  0.23848700  0.04025400  1
  O  O23  1  0.22706200  0.71955800  0.17177000  1
  O  O24  1  0.89553300  0.90516400  0.23651700  1
  O  O25  1  0.57897900  0.23780800  0.20618600  1
  O  O26  1  0.04970000  0.56252500  0.34115300  1
  O  O27  1  0.76219200  0.42102100  0.79381400  1
  O  O28  1  0.09483600  0.10446700  0.76348300  1
  O  O29  1  0.28044200  0.77293800  0.82823000  1
  O  O30  1  0.76151300  0.09177900  0.95974600  1
  O  O31  1  0.44117300  0.42993200  0.92417100  1
  O  O32  1  0.10502000  0.61555100  0.99237900  1
  O  O33  1  0.42918300  0.08781400  0.12686300  1
  O  O34  1  0.76312800  0.77379200  0.09112800  1
  O  O35  1  0.56237900  0.05062100  0.84228100  1
loop_
_geom_bond_atom_site_label_1
_geom_bond_atom_site_label_2
_geom_bond_distance
_geom_bond_site_symmetry_2
Na0 O2 2.392145 1_555
Na0 O10 2.394559 1_555
Na0 O34 2.404795 1_555
Na0 O4 2.409767 1_555
Na0 O3 2.449019 1_555
Na0 O9 2.451964 1_555
Na0 O26 2.932906 1_655
Na0 O12 2.933097 1_555
Na1 O13 2.392196 1_645
Na1 O5 2.392196 1_645
Na1 O11 2.404508 1_655
Na1 O7 2.404508 1_545
Na1 O12 2.448885 1_555
Na1 O6 2.448885 1_555
Na1 O16 2.932542 1_555
Na1 O3 2.932542 1_555
Na2 O18 2.392145 1_555
Na2 O8 2.394559 1_555
Na2 O15 2.404795 1_555
Na2 O14 2.409767 1_555
Na2 O16 2.449019 1_555
Na2 O35 2.451964 1_555
Na2 O0 2.932906 1_545
Na2 O6 2.933097 1_555
Na3 O17 2.388970 1_555
Na3 O27 2.390809 1_555
Na3 O20 2.407597 1_555
Na3 O21 2.409983 1_556
Na3 O19 2.440449 1_556
Na3 O0 2.449776 1_555
Na4 O33 2.388970 1_555
Na4 O25 2.390809 1_555
Na4 O1 2.407597 1_555
Na4 O31 2.409983 1_554
Na4 O32 2.440449 1_554
Na4 O26 2.449776 1_555
Li0 O22 2.255513 1_465
Li0 O30 2.255513 1_464
Li0 O24 2.333532 1_455
Li0 O28 2.333532 1_564
Li0 O29 2.495572 1_554
Li0 O23 2.495572 1_555
Fe0 O11 1.950812 1_555
Fe0 O1 1.957472 1_555
Fe0 O33 2.057577 1_555
Fe0 O5 2.062017 1_545
Fe0 O2 2.153714 1_545
Fe0 O10 2.154182 1_545
Fe1 O4 1.957705 1_555
Fe1 O14 1.957705 1_555
Fe1 O8 2.054608 1_555
Fe1 O10 2.054608 1_555
Fe1 O5 2.156663 1_555
Fe1 O13 2.156663 1_555
Fe2 O7 1.950812 1_555
Fe2 O20 1.957472 1_555
Fe2 O17 2.057577 1_555
Fe2 O13 2.062017 1_655
Fe2 O18 2.153714 1_655
Fe2 O8 2.154182 1_655
Fe3 O28 1.951012 1_555
Fe3 O15 1.954720 1_555
Fe3 O22 2.058053 1_456
Fe3 O18 2.059854 1_555
Fe3 O27 2.154044 1_455
Fe3 O17 2.154859 1_455
Fe4 O31 1.954876 1_554
Fe4 O21 1.954876 1_555
Fe4 O25 2.052754 1_555
Fe4 O27 2.052754 1_554
Fe4 O30 2.170486 1_554
Fe4 O22 2.170486 1_555
Fe5 O24 1.951012 1_555
Fe5 O34 1.954720 1_555
Fe5 O30 2.058053 1_564
Fe5 O2 2.059854 1_555
Fe5 O25 2.154044 1_565
Fe5 O33 2.154859 1_565
O0 Si0 1.659089 1_555
O0 Si7 1.665263 1_555
O1 Si1 1.614232 1_555
O2 Si7 1.650199 1_555
O3 Si1 1.656338 1_655
O3 Si2 1.663870 1_555
O4 Si2 1.614410 1_555
O5 Si0 1.652724 1_555
O6 Si2 1.655350 1_555
O6 Si11 1.663649 1_555
O7 Si11 1.612823 1_565
O8 Si9 1.652728 1_555
O9 Si3 1.655701 1_555
O9 Si10 1.663726 1_555
O10 Si6 1.652728 1_555
O11 Si3 1.612823 1_455
O12 Si5 1.655350 1_555
O12 Si3 1.663649 1_555
O13 Si8 1.652724 1_555
O14 Si5 1.614410 1_555
O15 Si4 1.614595 1_555
O16 Si7 1.656338 1_545
O16 Si5 1.663870 1_555
O17 Si10 1.650515 1_556
O18 Si1 1.650199 1_555
O19 Si4 1.652375 1_564
O19 Si6 1.660474 1_555
O20 Si7 1.614232 1_555
O21 Si6 1.617648 1_555
O22 Si3 1.654117 1_555
O23 Si6 1.653322 1_555
O23 Si8 1.660374 1_555
O24 Si8 1.616456 1_655
O25 Si5 1.651152 1_555
O26 Si8 1.659089 1_555
O26 Si1 1.665263 1_555
O27 Si2 1.651152 1_555
O28 Si0 1.616456 1_545
O29 Si9 1.653322 1_555
O29 Si0 1.660374 1_555
O30 Si11 1.654117 1_555
O31 Si9 1.617648 1_555
O32 Si10 1.652375 1_456
O32 Si9 1.660474 1_555
O33 Si4 1.650515 1_554
O34 Si10 1.614595 1_555
O35 Si11 1.655701 1_555
O35 Si4 1.663726 1_555
