# generated using pymatgen
data_Ti3Mn2Cu(PO4)6
_symmetry_space_group_name_H-M   'P 1'
_cell_length_a   8.63639995
_cell_length_b   8.63639995
_cell_length_c   8.63639938
_cell_angle_alpha   60.16823670
_cell_angle_beta   60.16823670
_cell_angle_gamma   60.16823584
_symmetry_Int_Tables_number   1
_chemical_formula_structural   Ti3Mn2Cu(PO4)6
_chemical_formula_sum   'Ti3 Mn2 Cu1 P6 O24'
_cell_volume   457.23013839
_cell_formula_units_Z   1
loop_
 _symmetry_equiv_pos_site_id
 _symmetry_equiv_pos_as_xyz
  1  'x, y, z'
loop_
 _atom_site_type_symbol
 _atom_site_label
 _atom_site_symmetry_multiplicity
 _atom_site_fract_x
 _atom_site_fract_y
 _atom_site_fract_z
 _atom_site_occupancy
  Ti  Ti0  1  0.14367600  0.14367600  0.14367500  1
  Ti  Ti1  1  0.35379200  0.35379200  0.35379200  1
  Ti  Ti2  1  0.64708800  0.64708800  0.64708800  1
  Mn  Mn0  1  0.99536500  0.99536500  0.99536500  1
  Mn  Mn1  1  0.49915400  0.49915400  0.49915400  1
  Cu  Cu0  1  0.85353000  0.85353000  0.85353000  1
  P  P0  1  0.95554700  0.54206000  0.25180100  1
  P  P1  1  0.25180100  0.95554700  0.54206000  1
  P  P2  1  0.54206000  0.25180100  0.95554700  1
  P  P3  1  0.45704800  0.75220800  0.04603000  1
  P  P4  1  0.75220800  0.04603000  0.45704800  1
  P  P5  1  0.04603000  0.45704800  0.75220800  1
  O  O0  1  0.48679200  0.32373600  0.11467300  1
  O  O1  1  0.11467300  0.48679200  0.32373600  1
  O  O2  1  0.26014900  0.91332900  0.05901800  1
  O  O3  1  0.32373600  0.11467300  0.48679200  1
  O  O4  1  0.60970000  0.80826900  0.01945300  1
  O  O5  1  0.43019600  0.58570500  0.23832000  1
  O  O6  1  0.91332900  0.05901800  0.26014900  1
  O  O7  1  0.58570500  0.23832000  0.43019600  1
  O  O8  1  0.00127200  0.37830300  0.19019200  1
  O  O9  1  0.23832000  0.43019600  0.58570500  1
  O  O10  1  0.94799700  0.73243500  0.09389700  1
  O  O11  1  0.19019200  0.00127200  0.37830300  1
  O  O12  1  0.80826900  0.01945300  0.60970000  1
  O  O13  1  0.05901800  0.26014900  0.91332900  1
  O  O14  1  0.76365400  0.55230100  0.41815500  1
  O  O15  1  0.01945300  0.60970000  0.80826900  1
  O  O16  1  0.41815500  0.76365400  0.55230100  1
  O  O17  1  0.09389700  0.94799700  0.73243500  1
  O  O18  1  0.55230100  0.41815500  0.76365400  1
  O  O19  1  0.37830300  0.19019200  0.00127200  1
  O  O20  1  0.69236500  0.87909000  0.50370300  1
  O  O21  1  0.73243500  0.09389700  0.94799700  1
  O  O22  1  0.87909000  0.50370300  0.69236500  1
  O  O23  1  0.50370300  0.69236500  0.87909000  1
loop_
_geom_bond_atom_site_label_1
_geom_bond_atom_site_label_2
_geom_bond_distance
_geom_bond_site_symmetry_2
Mn0 O17 2.168697 1_655
Mn0 O21 2.168698 1_565
Mn0 O10 2.168698 1_556
Mn0 O6 2.298875 1_566
Mn0 O2 2.298875 1_656
Mn0 O13 2.298876 1_665
Mn1 O18 2.247678 1_555
Mn1 O16 2.247678 1_555
Mn1 O14 2.247678 1_555
Mn1 O5 2.281337 1_555
Mn1 O7 2.281337 1_555
Mn1 O9 2.281337 1_555
Cu0 O12 1.974871 1_565
Cu0 O15 1.974871 1_655
Cu0 O4 1.974871 1_556
Cu0 O10 2.178276 1_556
Cu0 O21 2.178276 1_565
Cu0 O17 2.178276 1_655
O0 P2 1.550552 1_554
O0 Ti1 1.878344 1_555
O1 P0 1.550552 1_455
O1 Ti1 1.878344 1_555
O2 P3 1.565846 1_555
O2 Ti0 2.056316 1_565
O3 P1 1.550552 1_545
O3 Ti1 1.878344 1_555
O4 P3 1.499537 1_555
O5 P3 1.565952 1_555
O5 Ti1 2.028417 1_555
O6 P4 1.565846 1_555
O6 Ti0 2.056320 1_655
O7 P4 1.565952 1_555
O7 Ti1 2.028417 1_555
O8 P0 1.556660 1_455
O8 Ti0 1.902340 1_555
O9 P5 1.565952 1_555
O9 Ti1 2.028416 1_555
O10 P0 1.522591 1_555
O11 P1 1.556660 1_545
O11 Ti0 1.902344 1_555
O12 P4 1.499537 1_555
O13 P5 1.565846 1_555
O13 Ti0 2.056313 1_556
O14 P0 1.558901 1_555
O14 Ti2 2.098294 1_555
O15 P5 1.499537 1_555
O16 P1 1.558902 1_555
O16 Ti2 2.098295 1_555
O17 P1 1.522591 1_555
O18 P2 1.558901 1_555
O18 Ti2 2.098295 1_555
O19 P2 1.556660 1_554
O19 Ti0 1.902337 1_555
O20 P4 1.569818 1_565
O20 Ti2 1.878884 1_555
O21 P2 1.522591 1_555
O22 P5 1.569818 1_655
O22 Ti2 1.878884 1_555
O23 P3 1.569818 1_556
O23 Ti2 1.878884 1_555
