# generated using pymatgen
data_SbHC3(NCl3)3
_symmetry_space_group_name_H-M   'P 1'
_cell_length_a   9.91312500
_cell_length_b   13.39952100
_cell_length_c   14.13649027
_cell_angle_alpha   58.95029962
_cell_angle_beta   90.00000000
_cell_angle_gamma   90.00000000
_symmetry_Int_Tables_number   1
_chemical_formula_structural   SbHC3(NCl3)3
_chemical_formula_sum   'Sb4 H4 C12 N12 Cl36'
_cell_volume   1608.72003254
_cell_formula_units_Z   4
loop_
 _symmetry_equiv_pos_site_id
 _symmetry_equiv_pos_as_xyz
  1  'x, y, z'
loop_
 _atom_site_type_symbol
 _atom_site_label
 _atom_site_symmetry_multiplicity
 _atom_site_fract_x
 _atom_site_fract_y
 _atom_site_fract_z
 _atom_site_occupancy
  Sb  Sb0  1  0.62202500  0.75540200  0.45197100  1
  Sb  Sb1  1  0.87797500  0.75540200  0.95197100  1
  Sb  Sb2  1  0.37797500  0.24459800  0.54802900  1
  Sb  Sb3  1  0.12202500  0.24459800  0.04802900  1
  H  H0  1  0.69293700  0.06381300  0.20638400  1
  H  H1  1  0.80706300  0.06381300  0.70638400  1
  H  H2  1  0.30706300  0.93618700  0.79361600  1
  H  H3  1  0.19293700  0.93618700  0.29361600  1
  C  C0  1  0.59458700  0.32859400  0.94928600  1
  C  C1  1  0.90541300  0.32859400  0.44928600  1
  C  C2  1  0.40541300  0.67140600  0.05071400  1
  C  C3  1  0.09458700  0.67140600  0.55071400  1
  C  C4  1  0.63007600  0.23866200  0.13241100  1
  C  C5  1  0.86992400  0.23866200  0.63241100  1
  C  C6  1  0.36992400  0.76133800  0.86758900  1
  C  C7  1  0.13007600  0.76133800  0.36758900  1
  C  C8  1  0.64629800  0.13761200  0.03832600  1
  C  C9  1  0.85370200  0.13761200  0.53832600  1
  C  C10  1  0.35370200  0.86238800  0.96167400  1
  C  C11  1  0.14629800  0.86238800  0.46167400  1
  N  N0  1  0.59676600  0.33482200  0.04076100  1
  N  N1  1  0.90323400  0.33482200  0.54076100  1
  N  N2  1  0.40323400  0.66517800  0.95923900  1
  N  N3  1  0.09676600  0.66517800  0.45923900  1
  N  N4  1  0.66159600  0.13809900  0.13424300  1
  N  N5  1  0.83840400  0.13809900  0.63424300  1
  N  N6  1  0.33840400  0.86190100  0.86575700  1
  N  N7  1  0.16159600  0.86190100  0.36575700  1
  N  N8  1  0.61266600  0.23152300  0.94487300  1
  N  N9  1  0.88733400  0.23152300  0.44487300  1
  N  N10  1  0.38733400  0.76847700  0.05512700  1
  N  N11  1  0.11266600  0.76847700  0.55512700  1
  Cl  Cl0  1  0.80369500  0.88886700  0.33357200  1
  Cl  Cl1  1  0.69630500  0.88886700  0.83357200  1
  Cl  Cl2  1  0.19630500  0.11113300  0.66642800  1
  Cl  Cl3  1  0.30369500  0.11113300  0.16642800  1
  Cl  Cl4  1  0.43893500  0.63531600  0.56708600  1
  Cl  Cl5  1  0.06106500  0.63531600  0.06708600  1
  Cl  Cl6  1  0.56106500  0.36468400  0.43291400  1
  Cl  Cl7  1  0.93893500  0.36468400  0.93291400  1
  Cl  Cl8  1  0.73515400  0.73703400  0.61129800  1
  Cl  Cl9  1  0.76484600  0.73703400  0.11129800  1
  Cl  Cl10  1  0.26484600  0.26296600  0.38870200  1
  Cl  Cl11  1  0.23515400  0.26296600  0.88870200  1
  Cl  Cl12  1  0.50658400  0.92666100  0.42653700  1
  Cl  Cl13  1  0.99341600  0.92666100  0.92653700  1
  Cl  Cl14  1  0.49341600  0.07333900  0.57346300  1
  Cl  Cl15  1  0.00658400  0.07333900  0.07346300  1
  Cl  Cl16  1  0.50836500  0.77787100  0.29172500  1
  Cl  Cl17  1  0.99163500  0.77787100  0.79172500  1
  Cl  Cl18  1  0.49163500  0.22212900  0.70827500  1
  Cl  Cl19  1  0.00836500  0.22212900  0.20827500  1
  Cl  Cl20  1  0.74544900  0.59352000  0.47172100  1
  Cl  Cl21  1  0.75455100  0.59352000  0.97172100  1
  Cl  Cl22  1  0.25455100  0.40648000  0.52827900  1
  Cl  Cl23  1  0.24544900  0.40648000  0.02827900  1
  Cl  Cl24  1  0.63333900  0.23577600  0.25264200  1
  Cl  Cl25  1  0.86666100  0.23577600  0.75264200  1
  Cl  Cl26  1  0.36666100  0.76422400  0.74735800  1
  Cl  Cl27  1  0.13333900  0.76422400  0.24735800  1
  Cl  Cl28  1  0.56732600  0.45310100  0.82880800  1
  Cl  Cl29  1  0.93267400  0.45310100  0.32880800  1
  Cl  Cl30  1  0.43267400  0.54689900  0.17119200  1
  Cl  Cl31  1  0.06732600  0.54689900  0.67119200  1
  Cl  Cl32  1  0.67171200  0.01121000  0.04278100  1
  Cl  Cl33  1  0.82828800  0.01121000  0.54278100  1
  Cl  Cl34  1  0.32828800  0.98879000  0.95721900  1
  Cl  Cl35  1  0.17171200  0.98879000  0.45721900  1
loop_
_geom_bond_atom_site_label_1
_geom_bond_atom_site_label_2
_geom_bond_distance
_geom_bond_site_symmetry_2
H0 N4 1.039331 1_555
H1 N5 1.039331 1_555
H2 N6 1.039331 1_555
H3 N7 1.039331 1_555
C0 N0 1.338264 1_556
C0 N8 1.345938 1_555
C0 Cl28 1.681059 1_555
C1 N1 1.338264 1_555
C1 N9 1.345938 1_555
C1 Cl29 1.681059 1_555
C2 N2 1.338264 1_554
C2 N10 1.345938 1_555
C2 Cl30 1.681059 1_555
C3 N3 1.338264 1_555
C3 N11 1.345938 1_555
C3 Cl31 1.681059 1_555
C4 N0 1.313692 1_555
C4 N4 1.370419 1_555
C4 Cl24 1.680337 1_555
C5 N1 1.313692 1_555
C5 N5 1.370419 1_555
C5 Cl25 1.680337 1_555
C6 N2 1.313692 1_555
C6 N6 1.370419 1_555
C6 Cl26 1.680337 1_555
C7 N3 1.313692 1_555
C7 N7 1.370419 1_555
C7 Cl27 1.680337 1_555
C8 N8 1.313407 1_554
C8 N4 1.367740 1_555
C8 Cl32 1.681104 1_555
C9 N9 1.313407 1_555
C9 N5 1.367740 1_555
C9 Cl33 1.681104 1_555
C10 N10 1.313407 1_556
C10 N6 1.367740 1_555
C10 Cl34 1.681104 1_555
C11 N11 1.313407 1_555
C11 N7 1.367740 1_555
C11 Cl35 1.681104 1_555
Cl0 Sb0 2.480975 1_555
Cl1 Sb1 2.480975 1_555
Cl2 Sb2 2.480975 1_555
Cl3 Sb3 2.480975 1_555
Cl4 Sb0 2.414623 1_555
Cl5 Sb1 2.414623 1_454
Cl6 Sb2 2.414623 1_555
Cl7 Sb3 2.414623 1_656
Cl8 Sb0 2.412338 1_555
Cl9 Sb1 2.412338 1_554
Cl10 Sb2 2.412338 1_555
Cl11 Sb3 2.412338 1_556
Cl12 Sb0 2.419465 1_555
Cl13 Sb1 2.419465 1_555
Cl14 Sb2 2.419465 1_555
Cl15 Sb3 2.419465 1_555
Cl16 Sb0 2.405880 1_555
Cl17 Sb1 2.405880 1_555
Cl18 Sb2 2.405880 1_555
Cl19 Sb3 2.405880 1_555
Cl20 Sb0 2.378106 1_555
Cl21 Sb1 2.378106 1_555
Cl22 Sb2 2.378106 1_555
Cl23 Sb3 2.378106 1_555
