# generated using pymatgen
data_Mg(CoO2)2
_symmetry_space_group_name_H-M   'P 1'
_cell_length_a   4.86922800
_cell_length_b   5.61676500
_cell_length_c   10.02387800
_cell_angle_alpha   90.00000000
_cell_angle_beta   90.00000000
_cell_angle_gamma   90.00000000
_symmetry_Int_Tables_number   1
_chemical_formula_structural   Mg(CoO2)2
_chemical_formula_sum   'Mg4 Co8 O16'
_cell_volume   274.14614088
_cell_formula_units_Z   4
loop_
 _symmetry_equiv_pos_site_id
 _symmetry_equiv_pos_as_xyz
  1  'x, y, z'
loop_
 _atom_site_type_symbol
 _atom_site_label
 _atom_site_symmetry_multiplicity
 _atom_site_fract_x
 _atom_site_fract_y
 _atom_site_fract_z
 _atom_site_occupancy
  Mg  Mg0  1  0.35481300  0.00000000  0.50000000  1
  Mg  Mg1  1  0.64518700  0.50000000  0.00000000  1
  Mg  Mg2  1  0.03013900  0.00000000  0.00000000  1
  Mg  Mg3  1  0.96986100  0.50000000  0.50000000  1
  Co  Co0  1  0.00840000  0.50000000  0.24084100  1
  Co  Co1  1  0.00840000  0.50000000  0.75915900  1
  Co  Co2  1  0.99160000  0.00000000  0.25915900  1
  Co  Co3  1  0.99160000  0.00000000  0.74084100  1
  Co  Co4  1  0.50000000  0.25000000  0.25000000  1
  Co  Co5  1  0.50000000  0.75000000  0.75000000  1
  Co  Co6  1  0.50000000  0.75000000  0.25000000  1
  Co  Co7  1  0.50000000  0.25000000  0.75000000  1
  O  O0  1  0.34925400  0.50000000  0.14549000  1
  O  O1  1  0.34925400  0.50000000  0.85451000  1
  O  O2  1  0.65074600  0.00000000  0.35451000  1
  O  O3  1  0.65074600  0.00000000  0.64549000  1
  O  O4  1  0.68408500  0.50000000  0.34655100  1
  O  O5  1  0.68408500  0.50000000  0.65344900  1
  O  O6  1  0.31591500  0.00000000  0.15344900  1
  O  O7  1  0.31591500  0.00000000  0.84655100  1
  O  O8  1  0.16601400  0.25160700  0.35804200  1
  O  O9  1  0.16601400  0.74839300  0.64195800  1
  O  O10  1  0.83398600  0.75160700  0.14195800  1
  O  O11  1  0.83398600  0.24839300  0.85804200  1
  O  O12  1  0.83398600  0.24839300  0.14195800  1
  O  O13  1  0.83398600  0.75160700  0.85804200  1
  O  O14  1  0.16601400  0.74839300  0.35804200  1
  O  O15  1  0.16601400  0.25160700  0.64195800  1
loop_
_geom_bond_atom_site_label_1
_geom_bond_atom_site_label_2
_geom_bond_distance
_geom_bond_site_symmetry_2
Mg0 O2 2.050179 1_555
Mg0 O3 2.050179 1_555
Mg0 O8 2.206161 1_555
Mg0 O14 2.206161 1_545
Mg0 O15 2.206161 1_555
Mg0 O9 2.206161 1_545
Mg1 O1 2.050179 1_554
Mg1 O0 2.050179 1_555
Mg1 O11 2.206161 1_554
Mg1 O13 2.206161 1_554
Mg1 O10 2.206161 1_555
Mg1 O12 2.206161 1_555
Mg2 O7 2.074178 1_554
Mg2 O6 2.074178 1_555
Mg2 O13 2.209880 1_444
Mg2 O11 2.209880 1_454
Mg2 O12 2.209880 1_455
Mg2 O10 2.209880 1_445
Mg3 O5 2.074178 1_555
Mg3 O4 2.074178 1_555
Mg3 O9 2.209880 1_655
Mg3 O14 2.209880 1_655
Mg3 O8 2.209880 1_655
Mg3 O15 2.209880 1_655
Co0 O4 1.901726 1_455
Co0 O0 1.915233 1_555
Co0 O12 1.923769 1_455
Co0 O10 1.923769 1_455
Co0 O8 1.978801 1_555
Co0 O14 1.978801 1_555
Co1 O5 1.901726 1_455
Co1 O1 1.915233 1_555
Co1 O11 1.923769 1_455
Co1 O13 1.923769 1_455
Co1 O15 1.978801 1_555
Co1 O9 1.978801 1_555
Co2 O6 1.901726 1_655
Co2 O2 1.915233 1_555
Co2 O14 1.923769 1_645
Co2 O8 1.923769 1_655
Co2 O10 1.978801 1_545
Co2 O12 1.978801 1_555
Co3 O7 1.901726 1_655
Co3 O3 1.915233 1_555
Co3 O9 1.923769 1_645
Co3 O15 1.923769 1_655
Co3 O13 1.978801 1_545
Co3 O11 1.978801 1_555
Co4 O0 1.899471 1_555
Co4 O2 1.899471 1_555
Co4 O6 1.926620 1_555
Co4 O4 1.926620 1_555
Co4 O12 1.953886 1_555
Co4 O8 1.953886 1_555
Co5 O1 1.899471 1_555
Co5 O3 1.899471 1_565
Co5 O5 1.926620 1_555
Co5 O7 1.926620 1_565
Co5 O9 1.953886 1_555
Co5 O13 1.953886 1_555
Co6 O2 1.899471 1_565
Co6 O0 1.899471 1_555
Co6 O6 1.926620 1_565
Co6 O4 1.926620 1_555
Co6 O10 1.953886 1_555
Co6 O14 1.953886 1_555
Co7 O3 1.899471 1_555
Co7 O1 1.899471 1_555
Co7 O5 1.926620 1_555
Co7 O7 1.926620 1_555
Co7 O15 1.953886 1_555
Co7 O11 1.953886 1_555
