# generated using pymatgen
data_B5PH4Cl
_symmetry_space_group_name_H-M   'P 1'
_cell_length_a   12.67229300
_cell_length_b   13.61457100
_cell_length_c   13.94752400
_cell_angle_alpha   90.00000000
_cell_angle_beta   90.00000000
_cell_angle_gamma   90.00000000
_symmetry_Int_Tables_number   1
_chemical_formula_structural   B5PH4Cl
_chemical_formula_sum   'B80 P16 H64 Cl16'
_cell_volume   2406.33608839
_cell_formula_units_Z   16
loop_
 _symmetry_equiv_pos_site_id
 _symmetry_equiv_pos_as_xyz
  1  'x, y, z'
loop_
 _atom_site_type_symbol
 _atom_site_label
 _atom_site_symmetry_multiplicity
 _atom_site_fract_x
 _atom_site_fract_y
 _atom_site_fract_z
 _atom_site_occupancy
  B  B0  1  0.81175700  0.00635100  0.36653000  1
  B  B1  1  0.68824300  0.00635100  0.86653000  1
  B  B2  1  0.18319600  0.01321600  0.07648600  1
  B  B3  1  0.31680400  0.01321600  0.57648600  1
  B  B4  1  0.79655900  0.02066400  0.49134400  1
  B  B5  1  0.70344100  0.02066400  0.99134400  1
  B  B6  1  0.82888200  0.07221400  0.01900100  1
  B  B7  1  0.67111800  0.07221400  0.51900100  1
  B  B8  1  0.60087100  0.09703300  0.41163900  1
  B  B9  1  0.89912900  0.09703300  0.91163900  1
  B  B10  1  0.87196600  0.11031400  0.42917100  1
  B  B11  1  0.62803400  0.11031400  0.92917100  1
  B  B12  1  0.71476500  0.14692700  0.02239700  1
  B  B13  1  0.78523500  0.14692700  0.52239700  1
  B  B14  1  0.67164400  0.19328000  0.34681900  1
  B  B15  1  0.82835600  0.19328000  0.84681900  1
  B  B16  1  0.66627400  0.19403900  0.47278400  1
  B  B17  1  0.83372600  0.19403900  0.97278400  1
  B  B18  1  0.78946400  0.22051100  0.41762200  1
  B  B19  1  0.71053600  0.22051100  0.91762200  1
  B  B20  1  0.28946400  0.27948900  0.41762200  1
  B  B21  1  0.21053600  0.27948900  0.91762200  1
  B  B22  1  0.16627400  0.30596100  0.47278400  1
  B  B23  1  0.33372600  0.30596100  0.97278400  1
  B  B24  1  0.17164400  0.30672000  0.34681900  1
  B  B25  1  0.32835600  0.30672000  0.84681900  1
  B  B26  1  0.28523500  0.35307300  0.52239700  1
  B  B27  1  0.21476500  0.35307300  0.02239700  1
  B  B28  1  0.37196600  0.38968600  0.42917100  1
  B  B29  1  0.12803400  0.38968600  0.92917100  1
  B  B30  1  0.10087100  0.40296700  0.41163900  1
  B  B31  1  0.39912900  0.40296700  0.91163900  1
  B  B32  1  0.17111800  0.42778600  0.51900100  1
  B  B33  1  0.32888200  0.42778600  0.01900100  1
  B  B34  1  0.29655900  0.47933600  0.49134400  1
  B  B35  1  0.20344100  0.47933600  0.99134400  1
  B  B36  1  0.68319600  0.48678400  0.07648600  1
  B  B37  1  0.81680400  0.48678400  0.57648600  1
  B  B38  1  0.31175700  0.49364900  0.36653000  1
  B  B39  1  0.18824300  0.49364900  0.86653000  1
  B  B40  1  0.81175700  0.50635100  0.13347000  1
  B  B41  1  0.68824300  0.50635100  0.63347000  1
  B  B42  1  0.18319600  0.51321600  0.42351400  1
  B  B43  1  0.31680400  0.51321600  0.92351400  1
  B  B44  1  0.70344100  0.52066400  0.50865600  1
  B  B45  1  0.79655900  0.52066400  0.00865600  1
  B  B46  1  0.67111800  0.57221400  0.98099900  1
  B  B47  1  0.82888200  0.57221400  0.48099900  1
  B  B48  1  0.60087100  0.59703300  0.08836100  1
  B  B49  1  0.89912900  0.59703300  0.58836100  1
  B  B50  1  0.62803400  0.61031400  0.57082900  1
  B  B51  1  0.87196600  0.61031400  0.07082900  1
  B  B52  1  0.78523500  0.64692700  0.97760300  1
  B  B53  1  0.71476500  0.64692700  0.47760300  1
  B  B54  1  0.67164400  0.69328000  0.15318100  1
  B  B55  1  0.82835600  0.69328000  0.65318100  1
  B  B56  1  0.66627400  0.69403900  0.02721600  1
  B  B57  1  0.83372600  0.69403900  0.52721600  1
  B  B58  1  0.71053600  0.72051100  0.58237800  1
  B  B59  1  0.78946400  0.72051100  0.08237800  1
  B  B60  1  0.21053600  0.77948900  0.58237800  1
  B  B61  1  0.28946400  0.77948900  0.08237800  1
  B  B62  1  0.16627400  0.80596100  0.02721600  1
  B  B63  1  0.33372600  0.80596100  0.52721600  1
  B  B64  1  0.17164400  0.80672000  0.15318100  1
  B  B65  1  0.32835600  0.80672000  0.65318100  1
  B  B66  1  0.28523500  0.85307300  0.97760300  1
  B  B67  1  0.21476500  0.85307300  0.47760300  1
  B  B68  1  0.12803400  0.88968600  0.57082900  1
  B  B69  1  0.37196600  0.88968600  0.07082900  1
  B  B70  1  0.10087100  0.90296700  0.08836100  1
  B  B71  1  0.39912900  0.90296700  0.58836100  1
  B  B72  1  0.17111800  0.92778600  0.98099900  1
  B  B73  1  0.32888200  0.92778600  0.48099900  1
  B  B74  1  0.20344100  0.97933600  0.50865600  1
  B  B75  1  0.29655900  0.97933600  0.00865600  1
  B  B76  1  0.81680400  0.98678400  0.92351400  1
  B  B77  1  0.68319600  0.98678400  0.42351400  1
  B  B78  1  0.18824300  0.99364900  0.63347000  1
  B  B79  1  0.31175700  0.99364900  0.13347000  1
  P  P0  1  0.67214200  0.04729100  0.29132900  1
  P  P1  1  0.82785800  0.04729100  0.79132900  1
  P  P2  1  0.82151300  0.14543800  0.29610700  1
  P  P3  1  0.67848700  0.14543800  0.79610700  1
  P  P4  1  0.32151300  0.35456200  0.29610700  1
  P  P5  1  0.17848700  0.35456200  0.79610700  1
  P  P6  1  0.17214200  0.45270900  0.29132900  1
  P  P7  1  0.32785800  0.45270900  0.79132900  1
  P  P8  1  0.67214200  0.54729100  0.20867100  1
  P  P9  1  0.82785800  0.54729100  0.70867100  1
  P  P10  1  0.67848700  0.64543800  0.70389300  1
  P  P11  1  0.82151300  0.64543800  0.20389300  1
  P  P12  1  0.17848700  0.85456200  0.70389300  1
  P  P13  1  0.32151300  0.85456200  0.20389300  1
  P  P14  1  0.17214200  0.95270900  0.20867100  1
  P  P15  1  0.32785800  0.95270900  0.70867100  1
  H  H0  1  0.15929500  0.03724300  0.45839300  1
  H  H1  1  0.34070500  0.03724300  0.95839300  1
  H  H2  1  0.62389200  0.04911800  0.58965500  1
  H  H3  1  0.87610800  0.04911800  0.08965500  1
  H  H4  1  0.14533000  0.09355700  0.07639000  1
  H  H5  1  0.35467000  0.09355700  0.57639000  1
  H  H6  1  0.50726400  0.09250200  0.40343300  1
  H  H7  1  0.99273600  0.09250200  0.90343300  1
  H  H8  1  0.96601500  0.11448000  0.43313400  1
  H  H9  1  0.53398500  0.11448000  0.93313400  1
  H  H10  1  0.67914000  0.17842100  0.09544500  1
  H  H11  1  0.82086000  0.17842100  0.59544500  1
  H  H12  1  0.17376800  0.19884200  0.91405900  1
  H  H13  1  0.32623200  0.19884200  0.41405900  1
  H  H14  1  0.11633300  0.24114200  0.50829000  1
  H  H15  1  0.38366700  0.24114200  0.00829000  1
  H  H16  1  0.61633300  0.25885800  0.50829000  1
  H  H17  1  0.88366700  0.25885800  0.00829000  1
  H  H18  1  0.82623200  0.30115800  0.41405900  1
  H  H19  1  0.67376800  0.30115800  0.91405900  1
  H  H20  1  0.17914000  0.32157900  0.09544500  1
  H  H21  1  0.32086000  0.32157900  0.59544500  1
  H  H22  1  0.46601500  0.38552000  0.43313400  1
  H  H23  1  0.03398500  0.38552000  0.93313400  1
  H  H24  1  0.00726400  0.40749800  0.40343300  1
  H  H25  1  0.49273600  0.40749800  0.90343300  1
  H  H26  1  0.64533000  0.40644300  0.07639000  1
  H  H27  1  0.85467000  0.40644300  0.57639000  1
  H  H28  1  0.37610800  0.45088200  0.08965500  1
  H  H29  1  0.12389200  0.45088200  0.58965500  1
  H  H30  1  0.65929500  0.46275700  0.45839300  1
  H  H31  1  0.84070500  0.46275700  0.95839300  1
  H  H32  1  0.15929500  0.53724300  0.04160700  1
  H  H33  1  0.34070500  0.53724300  0.54160700  1
  H  H34  1  0.62389200  0.54911800  0.91034500  1
  H  H35  1  0.87610800  0.54911800  0.41034500  1
  H  H36  1  0.14533000  0.59355700  0.42361000  1
  H  H37  1  0.35467000  0.59355700  0.92361000  1
  H  H38  1  0.50726400  0.59250200  0.09656700  1
  H  H39  1  0.99273600  0.59250200  0.59656700  1
  H  H40  1  0.53398500  0.61448000  0.56686600  1
  H  H41  1  0.96601500  0.61448000  0.06686600  1
  H  H42  1  0.82086000  0.67842100  0.90455500  1
  H  H43  1  0.67914000  0.67842100  0.40455500  1
  H  H44  1  0.17376800  0.69884200  0.58594100  1
  H  H45  1  0.32623200  0.69884200  0.08594100  1
  H  H46  1  0.11633300  0.74114200  0.99171000  1
  H  H47  1  0.38366700  0.74114200  0.49171000  1
  H  H48  1  0.61633300  0.75885800  0.99171000  1
  H  H49  1  0.88366700  0.75885800  0.49171000  1
  H  H50  1  0.67376800  0.80115800  0.58594100  1
  H  H51  1  0.82623200  0.80115800  0.08594100  1
  H  H52  1  0.32086000  0.82157900  0.90455500  1
  H  H53  1  0.17914000  0.82157900  0.40455500  1
  H  H54  1  0.03398500  0.88552000  0.56686600  1
  H  H55  1  0.46601500  0.88552000  0.06686600  1
  H  H56  1  0.00726400  0.90749800  0.09656700  1
  H  H57  1  0.49273600  0.90749800  0.59656700  1
  H  H58  1  0.85467000  0.90644300  0.92361000  1
  H  H59  1  0.64533000  0.90644300  0.42361000  1
  H  H60  1  0.12389200  0.95088200  0.91034500  1
  H  H61  1  0.37610800  0.95088200  0.41034500  1
  H  H62  1  0.65929500  0.96275700  0.04160700  1
  H  H63  1  0.84070500  0.96275700  0.54160700  1
  Cl  Cl0  1  0.38719100  0.08842700  0.18925300  1
  Cl  Cl1  1  0.11280900  0.08842700  0.68925300  1
  Cl  Cl2  1  0.10695800  0.21853200  0.27251400  1
  Cl  Cl3  1  0.39304200  0.21853200  0.77251400  1
  Cl  Cl4  1  0.60695800  0.28146800  0.27251400  1
  Cl  Cl5  1  0.89304200  0.28146800  0.77251400  1
  Cl  Cl6  1  0.88719100  0.41157300  0.18925300  1
  Cl  Cl7  1  0.61280900  0.41157300  0.68925300  1
  Cl  Cl8  1  0.38719100  0.58842700  0.31074700  1
  Cl  Cl9  1  0.11280900  0.58842700  0.81074700  1
  Cl  Cl10  1  0.10695800  0.71853200  0.22748600  1
  Cl  Cl11  1  0.39304200  0.71853200  0.72748600  1
  Cl  Cl12  1  0.60695800  0.78146800  0.22748600  1
  Cl  Cl13  1  0.89304200  0.78146800  0.72748600  1
  Cl  Cl14  1  0.61280900  0.91157300  0.81074700  1
  Cl  Cl15  1  0.88719100  0.91157300  0.31074700  1
loop_
_geom_bond_atom_site_label_1
_geom_bond_atom_site_label_2
_geom_bond_distance
_geom_bond_site_symmetry_2
B0 Cl15 1.784421 1_545
B0 P0 2.130966 1_555
B0 P2 2.136776 1_555
B1 Cl14 1.784421 1_545
B1 P1 2.130966 1_555
B1 P3 2.136776 1_555
B2 H4 1.194434 1_555
B2 P14 2.024176 1_545
B3 H5 1.194434 1_555
B3 P15 2.024176 1_545
B4 H63 1.194139 1_545
B5 H62 1.194139 1_546
B6 H3 1.195048 1_555
B7 H2 1.195048 1_555
B8 H6 1.193320 1_555
B8 P0 2.022401 1_555
B9 H7 1.193320 1_555
B9 P1 2.022401 1_555
B10 H8 1.194445 1_555
B10 P2 2.020362 1_555
B11 H9 1.194445 1_555
B11 P3 2.020362 1_555
B12 H10 1.194023 1_555
B13 H11 1.194023 1_555
B14 Cl4 1.785370 1_555
B14 P2 2.128717 1_555
B14 P0 2.132956 1_555
B15 Cl5 1.785370 1_555
B15 P3 2.128717 1_555
B15 P1 2.132956 1_555
B16 H16 1.193541 1_555
B17 H17 1.193541 1_556
B18 H18 1.193781 1_555
B18 P2 2.020412 1_555
B19 H19 1.193781 1_555
B19 P3 2.020412 1_555
B20 H13 1.193781 1_555
B20 P4 2.020412 1_555
B21 H12 1.193781 1_555
B21 P5 2.020412 1_555
B22 H14 1.193541 1_555
B23 H15 1.193541 1_556
B24 Cl2 1.785370 1_555
B24 P4 2.128717 1_555
B24 P6 2.132956 1_555
B25 Cl3 1.785370 1_555
B25 P5 2.128717 1_555
B25 P7 2.132956 1_555
B26 H21 1.194023 1_555
B27 H20 1.194023 1_555
B28 H22 1.194445 1_555
B28 P4 2.020362 1_555
B29 H23 1.194445 1_555
B29 P5 2.020362 1_555
B30 H24 1.193320 1_555
B30 P6 2.022401 1_555
B31 H25 1.193320 1_555
B31 P7 2.022401 1_555
B32 H29 1.195048 1_555
B33 H28 1.195048 1_555
B34 H33 1.194139 1_555
B35 H32 1.194139 1_556
B36 H26 1.194434 1_555
B36 P8 2.024176 1_555
B37 H27 1.194434 1_555
B37 P9 2.024176 1_555
B38 Cl8 1.784421 1_555
B38 P6 2.130966 1_555
B38 P4 2.136776 1_555
B39 Cl9 1.784421 1_555
B39 P7 2.130966 1_555
B39 P5 2.136776 1_555
B40 Cl6 1.784421 1_555
B40 P8 2.130966 1_555
B40 P11 2.136776 1_555
B41 Cl7 1.784421 1_555
B41 P9 2.130966 1_555
B41 P10 2.136776 1_555
B42 H36 1.194434 1_555
B42 P6 2.024176 1_555
B43 H37 1.194434 1_555
B43 P7 2.024176 1_555
B44 H30 1.194139 1_555
B45 H31 1.194139 1_554
B46 H34 1.195048 1_555
B47 H35 1.195048 1_555
B48 H38 1.193320 1_555
B48 P8 2.022401 1_555
B49 H39 1.193320 1_555
B49 P9 2.022401 1_555
B50 H40 1.194445 1_555
B50 P10 2.020362 1_555
B51 H41 1.194445 1_555
B51 P11 2.020362 1_555
B52 H42 1.194023 1_555
B53 H43 1.194023 1_555
B54 Cl12 1.785370 1_555
B54 P11 2.128717 1_555
B54 P8 2.132956 1_555
B55 Cl13 1.785370 1_555
B55 P10 2.128717 1_555
B55 P9 2.132956 1_555
B56 H48 1.193541 1_554
B57 H49 1.193541 1_555
B58 H50 1.193781 1_555
B58 P10 2.020412 1_555
B59 H51 1.193781 1_555
B59 P11 2.020412 1_555
B60 H44 1.193781 1_555
B60 P12 2.020412 1_555
B61 H45 1.193781 1_555
B61 P13 2.020412 1_555
B62 H46 1.193541 1_554
B63 H47 1.193541 1_555
B64 Cl10 1.785370 1_555
B64 P13 2.128717 1_555
B64 P14 2.132956 1_555
B65 Cl11 1.785370 1_555
B65 P12 2.128717 1_555
B65 P15 2.132956 1_555
B66 H52 1.194023 1_555
B67 H53 1.194023 1_555
B68 H54 1.194445 1_555
B68 P12 2.020362 1_555
B69 H55 1.194445 1_555
B69 P13 2.020362 1_555
B70 H56 1.193320 1_555
B70 P14 2.022401 1_555
B71 H57 1.193320 1_555
B71 P15 2.022401 1_555
B72 H60 1.195048 1_555
B73 H61 1.195048 1_555
B74 H0 1.194139 1_565
B75 H1 1.194139 1_564
B76 H58 1.194434 1_555
B76 P1 2.024176 1_565
B77 H59 1.194434 1_555
B77 P0 2.024176 1_565
B78 Cl1 1.784421 1_565
B78 P15 2.130966 1_555
B78 P12 2.136776 1_555
B79 Cl0 1.784421 1_565
B79 P14 2.130966 1_555
B79 P13 2.136776 1_555
P0 P2 2.317956 1_555
P1 P3 2.317956 1_555
P4 P6 2.317956 1_555
P5 P7 2.317956 1_555
P10 P9 2.317956 1_555
P11 P8 2.317956 1_555
P12 P15 2.317956 1_555
P13 P14 2.317956 1_555
