# generated using pymatgen
data_Re2H6PbC(NO5)2
_symmetry_space_group_name_H-M   'P 1'
_cell_length_a   7.83764000
_cell_length_b   10.79628000
_cell_length_c   14.42631390
_cell_angle_alpha   78.67641344
_cell_angle_beta   90.00000000
_cell_angle_gamma   90.00000000
_symmetry_Int_Tables_number   1
_chemical_formula_structural   Re2H6PbC(NO5)2
_chemical_formula_sum   'Re8 H24 Pb4 C4 N8 O40'
_cell_volume   1196.95396283
_cell_formula_units_Z   4
loop_
 _symmetry_equiv_pos_site_id
 _symmetry_equiv_pos_as_xyz
  1  'x, y, z'
loop_
 _atom_site_type_symbol
 _atom_site_label
 _atom_site_symmetry_multiplicity
 _atom_site_fract_x
 _atom_site_fract_y
 _atom_site_fract_z
 _atom_site_occupancy
  Re  Re0  1  0.25168700  0.98317800  0.59181600  1
  Re  Re1  1  0.24831300  0.98317800  0.09181600  1
  Re  Re2  1  0.38958800  0.50377600  0.73495300  1
  Re  Re3  1  0.11041200  0.50377600  0.23495300  1
  Re  Re4  1  0.88958800  0.49622400  0.76504700  1
  Re  Re5  1  0.61041200  0.49622400  0.26504700  1
  Re  Re6  1  0.75168700  0.01682200  0.90818400  1
  Re  Re7  1  0.74831300  0.01682200  0.40818400  1
  H  H0  1  0.10906800  0.83622300  0.77022500  1
  H  H1  1  0.61483300  0.85771400  0.67163100  1
  H  H2  1  0.39295300  0.80227000  0.81627000  1
  H  H3  1  0.81093700  0.85348100  0.64776600  1
  H  H4  1  0.95333300  0.73979700  0.82994400  1
  H  H5  1  0.44467700  0.69641100  0.91982800  1
  H  H6  1  0.39093200  0.83622300  0.27022500  1
  H  H7  1  0.88516700  0.85771400  0.17163100  1
  H  H8  1  0.10704700  0.80227000  0.31627000  1
  H  H9  1  0.68906300  0.85348100  0.14776600  1
  H  H10  1  0.54666700  0.73979700  0.32994400  1
  H  H11  1  0.05532300  0.69641100  0.41982800  1
  H  H12  1  0.94467700  0.30358900  0.58017200  1
  H  H13  1  0.45333300  0.26020300  0.67005600  1
  H  H14  1  0.31093700  0.14651900  0.85223400  1
  H  H15  1  0.89295300  0.19773000  0.68373000  1
  H  H16  1  0.11483300  0.14228600  0.82836900  1
  H  H17  1  0.60906800  0.16377700  0.72977500  1
  H  H18  1  0.55532300  0.30358900  0.08017200  1
  H  H19  1  0.04666700  0.26020300  0.17005600  1
  H  H20  1  0.18906300  0.14651900  0.35223400  1
  H  H21  1  0.60704700  0.19773000  0.18373000  1
  H  H22  1  0.38516700  0.14228600  0.32836900  1
  H  H23  1  0.89093200  0.16377700  0.22977500  1
  Pb  Pb0  1  0.66034700  0.64242200  0.53835800  1
  Pb  Pb1  1  0.83965300  0.64242200  0.03835800  1
  Pb  Pb2  1  0.16034700  0.35757800  0.96164200  1
  Pb  Pb3  1  0.33965300  0.35757800  0.46164200  1
  C  C0  1  0.18916600  0.70987500  0.88958000  1
  C  C1  1  0.31083400  0.70987500  0.38958000  1
  C  C2  1  0.68916600  0.29012500  0.61042000  1
  C  C3  1  0.81083400  0.29012500  0.11042000  1
  N  N0  1  0.07395400  0.77438100  0.82947500  1
  N  N1  1  0.35488100  0.74053700  0.87520400  1
  N  N2  1  0.42604600  0.77438100  0.32947500  1
  N  N3  1  0.14511900  0.74053700  0.37520400  1
  N  N4  1  0.85488100  0.25946300  0.62479600  1
  N  N5  1  0.57395400  0.22561900  0.67052500  1
  N  N6  1  0.64511900  0.25946300  0.12479600  1
  N  N7  1  0.92604600  0.22561900  0.17052500  1
  O  O0  1  0.38741800  0.94563500  0.69044800  1
  O  O1  1  0.04853800  0.91962000  0.62245900  1
  O  O2  1  0.73248800  0.85018200  0.94249200  1
  O  O3  1  0.33555500  0.91981000  0.50014000  1
  O  O4  1  0.11258200  0.94563500  0.19044800  1
  O  O5  1  0.70810800  0.80064100  0.66218000  1
  O  O6  1  0.45146200  0.91962000  0.12245900  1
  O  O7  1  0.76751200  0.85018200  0.44249200  1
  O  O8  1  0.16444500  0.91981000  0.00014000  1
  O  O9  1  0.79189200  0.80064100  0.16218000  1
  O  O10  1  0.14083700  0.62293700  0.95929200  1
  O  O11  1  0.33872700  0.66118800  0.69082900  1
  O  O12  1  0.79878600  0.59266000  0.83733400  1
  O  O13  1  0.90814900  0.55148400  0.64071300  1
  O  O14  1  0.35916300  0.62293700  0.45929200  1
  O  O15  1  0.16127300  0.66118800  0.19082900  1
  O  O16  1  0.60944000  0.50294400  0.70335300  1
  O  O17  1  0.70121400  0.59266000  0.33733400  1
  O  O18  1  0.10944000  0.49705600  0.79664700  1
  O  O19  1  0.59185100  0.55148400  0.14071300  1
  O  O20  1  0.40814900  0.44851600  0.85928700  1
  O  O21  1  0.89056000  0.50294400  0.20335300  1
  O  O22  1  0.29878600  0.40734000  0.66266600  1
  O  O23  1  0.39056000  0.49705600  0.29664700  1
  O  O24  1  0.83872700  0.33881200  0.80917100  1
  O  O25  1  0.64083700  0.37706300  0.54070800  1
  O  O26  1  0.09185100  0.44851600  0.35928700  1
  O  O27  1  0.20121400  0.40734000  0.16266600  1
  O  O28  1  0.66127300  0.33881200  0.30917100  1
  O  O29  1  0.85916300  0.37706300  0.04070800  1
  O  O30  1  0.20810800  0.19935900  0.83782000  1
  O  O31  1  0.83555500  0.08019000  0.99986000  1
  O  O32  1  0.23248800  0.14981800  0.55750800  1
  O  O33  1  0.54853800  0.08038000  0.87754100  1
  O  O34  1  0.29189200  0.19935900  0.33782000  1
  O  O35  1  0.88741800  0.05436500  0.80955200  1
  O  O36  1  0.66444500  0.08019000  0.49986000  1
  O  O37  1  0.26751200  0.14981800  0.05750800  1
  O  O38  1  0.95146200  0.08038000  0.37754100  1
  O  O39  1  0.61258200  0.05436500  0.30955200  1
loop_
_geom_bond_atom_site_label_1
_geom_bond_atom_site_label_2
_geom_bond_distance
_geom_bond_site_symmetry_2
H0 N0 1.013912 1_555
H1 O5 0.982698 1_555
H2 N1 1.016643 1_555
H3 O5 0.985714 1_555
H4 N0 1.015980 1_655
H5 N1 1.008099 1_555
H6 N2 1.013912 1_555
H7 O9 0.982698 1_555
H8 N3 1.016643 1_555
H9 O9 0.985714 1_555
H10 N2 1.015980 1_555
H11 N3 1.008099 1_555
H12 N4 1.008099 1_555
H13 N5 1.015980 1_555
H14 O30 0.985714 1_555
H15 N4 1.016643 1_555
H16 O30 0.982698 1_555
H17 N5 1.013912 1_555
H18 N6 1.008099 1_555
H19 N7 1.015980 1_455
H20 O34 0.985714 1_555
H21 N6 1.016643 1_555
H22 O34 0.982698 1_555
H23 N7 1.013912 1_555
C0 O10 1.290419 1_555
C0 N1 1.346312 1_555
C0 N0 1.347261 1_555
C1 O14 1.290419 1_555
C1 N3 1.346312 1_555
C1 N2 1.347261 1_555
C2 O25 1.290419 1_555
C2 N4 1.346312 1_555
C2 N5 1.347261 1_555
C3 O29 1.290419 1_555
C3 N6 1.346312 1_555
C3 N7 1.347261 1_555
O0 Re0 1.759014 1_555
O1 Re0 1.755644 1_555
O2 Re6 1.776137 1_565
O2 Pb1 2.535971 1_556
O3 Re0 1.733370 1_555
O4 Re1 1.759014 1_555
O5 Pb0 2.728936 1_555
O6 Re1 1.755644 1_555
O7 Re7 1.776137 1_565
O7 Pb0 2.535971 1_555
O8 Re1 1.733370 1_555
O9 Pb1 2.728936 1_555
O10 Pb1 2.647984 1_456
O10 Pb2 2.862514 1_555
O11 Re2 1.739959 1_555
O12 Re4 1.761917 1_555
O13 Re4 1.781616 1_555
O13 Pb0 2.519335 1_555
O14 Pb0 2.647984 1_555
O14 Pb3 2.862514 1_555
O15 Re3 1.739959 1_555
O16 Re2 1.782878 1_555
O16 Re4 2.364980 1_555
O16 Pb0 2.585514 1_555
O17 Re5 1.761917 1_555
O18 Re4 1.782878 1_455
O18 Re2 2.364980 1_555
O18 Pb2 2.585514 1_555
O19 Re5 1.781616 1_555
O19 Pb1 2.519335 1_555
O20 Re2 1.781616 1_555
O20 Pb2 2.519335 1_555
O21 Re3 1.782878 1_655
O21 Re5 2.364980 1_555
O21 Pb1 2.585514 1_555
O22 Re2 1.761917 1_555
O23 Re5 1.782878 1_555
O23 Re3 2.364980 1_555
O23 Pb3 2.585514 1_555
O24 Re4 1.739959 1_555
O25 Pb3 2.647984 1_555
O25 Pb0 2.862514 1_555
O26 Re3 1.781616 1_555
O26 Pb3 2.519335 1_555
O27 Re3 1.761917 1_555
O28 Re5 1.739959 1_555
O29 Pb2 2.647984 1_654
O29 Pb1 2.862514 1_555
O30 Pb2 2.728936 1_555
O31 Re6 1.733370 1_555
O32 Re0 1.776137 1_545
O32 Pb3 2.535971 1_555
O33 Re6 1.755644 1_555
O34 Pb3 2.728936 1_555
O35 Re6 1.759014 1_555
O36 Re7 1.733370 1_555
O37 Re1 1.776137 1_545
O37 Pb2 2.535971 1_554
O38 Re7 1.755644 1_555
O39 Re7 1.759014 1_555
