# generated using pymatgen
data_La2Tb2O7
_symmetry_space_group_name_H-M   'P 1'
_cell_length_a   7.93334352
_cell_length_b   7.93334352
_cell_length_c   7.93334352
_cell_angle_alpha   60.00000000
_cell_angle_beta   60.00000000
_cell_angle_gamma   60.00000000
_symmetry_Int_Tables_number   1
_chemical_formula_structural   La2Tb2O7
_chemical_formula_sum   'La4 Tb4 O14'
_cell_volume   353.06428032
_cell_formula_units_Z   2
loop_
 _symmetry_equiv_pos_site_id
 _symmetry_equiv_pos_as_xyz
  1  'x, y, z'
loop_
 _atom_site_type_symbol
 _atom_site_label
 _atom_site_symmetry_multiplicity
 _atom_site_fract_x
 _atom_site_fract_y
 _atom_site_fract_z
 _atom_site_occupancy
  La  La0  1  0.62500000  0.12500000  0.12500000  1
  La  La1  1  0.12500000  0.12500000  0.12500000  1
  La  La2  1  0.12500000  0.62500000  0.12500000  1
  La  La3  1  0.12500000  0.12500000  0.62500000  1
  Tb  Tb0  1  0.62500000  0.62500000  0.12500000  1
  Tb  Tb1  1  0.62500000  0.62500000  0.62500000  1
  Tb  Tb2  1  0.62500000  0.12500000  0.62500000  1
  Tb  Tb3  1  0.12500000  0.62500000  0.62500000  1
  O  O0  1  0.72285500  0.27714500  0.27714500  1
  O  O1  1  0.72285500  0.72285500  0.27714500  1
  O  O2  1  0.27714500  0.72285500  0.27714500  1
  O  O3  1  0.00000000  0.00000000  0.00000000  1
  O  O4  1  0.72285500  0.27714500  0.72285500  1
  O  O5  1  0.97285500  0.52714500  0.52714500  1
  O  O6  1  0.27714500  0.72285500  0.72285500  1
  O  O7  1  0.52714500  0.97285500  0.52714500  1
  O  O8  1  0.25000000  0.25000000  0.25000000  1
  O  O9  1  0.97285500  0.52714500  0.97285500  1
  O  O10  1  0.52714500  0.52714500  0.97285500  1
  O  O11  1  0.97285500  0.97285500  0.52714500  1
  O  O12  1  0.52714500  0.97285500  0.97285500  1
  O  O13  1  0.27714500  0.27714500  0.72285500  1
loop_
_geom_bond_atom_site_label_1
_geom_bond_atom_site_label_2
_geom_bond_distance
_geom_bond_site_symmetry_2
La0 O3 2.429080 1_655
La0 O8 2.429080 1_555
La0 O0 2.616755 1_555
La0 O10 2.616755 1_554
La0 O7 2.616755 1_545
La0 O4 2.616755 1_554
La0 O1 2.616755 1_545
La0 O12 2.616755 1_544
La1 O3 2.429080 1_555
La1 O8 2.429080 1_555
La1 O11 2.616755 1_445
La1 O9 2.616755 1_454
La1 O12 2.616755 1_544
La1 O13 2.616755 1_554
La1 O0 2.616755 1_455
La1 O2 2.616755 1_545
La2 O3 2.429080 1_565
La2 O8 2.429080 1_555
La2 O2 2.616755 1_555
La2 O5 2.616755 1_455
La2 O10 2.616755 1_554
La2 O6 2.616755 1_554
La2 O1 2.616755 1_455
La2 O9 2.616755 1_454
La3 O3 2.429080 1_556
La3 O8 2.429080 1_555
La3 O13 2.616755 1_555
La3 O7 2.616755 1_545
La3 O5 2.616755 1_455
La3 O4 2.616755 1_455
La3 O6 2.616755 1_545
La3 O11 2.616755 1_445
O0 Tb0 2.266927 1_555
O0 Tb2 2.266927 1_555
O1 Tb0 2.266927 1_555
O1 Tb1 2.266927 1_555
O2 Tb0 2.266927 1_555
O2 Tb3 2.266927 1_555
O4 Tb2 2.266927 1_555
O4 Tb1 2.266927 1_555
O5 Tb1 2.266927 1_555
O5 Tb3 2.266927 1_655
O6 Tb3 2.266927 1_555
O6 Tb1 2.266927 1_555
O7 Tb1 2.266927 1_555
O7 Tb2 2.266927 1_565
O9 Tb0 2.266927 1_556
O9 Tb3 2.266927 1_655
O10 Tb1 2.266927 1_555
O10 Tb0 2.266927 1_556
O11 Tb3 2.266927 1_655
O11 Tb2 2.266927 1_565
O12 Tb0 2.266927 1_556
O12 Tb2 2.266927 1_565
O13 Tb2 2.266927 1_555
O13 Tb3 2.266927 1_555
