# generated using pymatgen
data_Li8Mn12Ni4O31
_symmetry_space_group_name_H-M   'P 1'
_cell_length_a   8.15160408
_cell_length_b   8.12473231
_cell_length_c   8.13954558
_cell_angle_alpha   90.16294940
_cell_angle_beta   89.87840433
_cell_angle_gamma   90.01410390
_symmetry_Int_Tables_number   1
_chemical_formula_structural   Li8Mn12Ni4O31
_chemical_formula_sum   'Li8 Mn12 Ni4 O31'
_cell_volume   539.07544659
_cell_formula_units_Z   1
loop_
 _symmetry_equiv_pos_site_id
 _symmetry_equiv_pos_as_xyz
  1  'x, y, z'
loop_
 _atom_site_type_symbol
 _atom_site_label
 _atom_site_symmetry_multiplicity
 _atom_site_fract_x
 _atom_site_fract_y
 _atom_site_fract_z
 _atom_site_occupancy
  Li  Li0  1  0.99865542  0.00189551  0.00619902  1
  Li  Li1  1  0.26446338  0.26027781  0.23040909  1
  Li  Li2  1  0.25372704  0.75020266  0.74734232  1
  Li  Li3  1  0.49652968  0.99676229  0.50289536  1
  Li  Li4  1  0.50293803  0.49941939  0.99592835  1
  Li  Li5  1  0.74836842  0.25172430  0.75157536  1
  Li  Li6  1  0.75227270  0.74745005  0.25346805  1
  Li  Li7  1  0.99669693  0.50276774  0.49724731  1
  Mn  Mn0  1  0.12741070  0.62749381  0.12368224  1
  Mn  Mn1  1  0.12441995  0.37877425  0.87247506  1
  Mn  Mn2  1  0.12261377  0.12316495  0.63349357  1
  Mn  Mn3  1  0.37798338  0.87246325  0.12526836  1
  Mn  Mn4  1  0.37416157  0.62315268  0.37243860  1
  Mn  Mn5  1  0.37062057  0.37380225  0.62079196  1
  Mn  Mn6  1  0.62901031  0.87495151  0.87822771  1
  Mn  Mn7  1  0.62519148  0.12255451  0.12937320  1
  Mn  Mn8  1  0.62057901  0.37005741  0.37449859  1
  Mn  Mn9  1  0.87855367  0.62825229  0.87572208  1
  Mn  Mn10  1  0.87563381  0.87631366  0.62824602  1
  Mn  Mn11  1  0.87344910  0.12337033  0.38067015  1
  Ni  Ni0  1  0.12263895  0.87930045  0.37949845  1
  Ni  Ni1  1  0.37771927  0.12229417  0.87178492  1
  Ni  Ni2  1  0.62738682  0.62231541  0.62272770  1
  Ni  Ni3  1  0.87216073  0.37761512  0.12748884  1
  O  O0  1  0.10997941  0.89569471  0.62433992  1
  O  O1  1  0.11519819  0.61516282  0.88580228  1
  O  O2  1  0.12489007  0.14753940  0.86374789  1
  O  O3  1  0.12455244  0.39329964  0.10278703  1
  O  O4  1  0.13418390  0.36091180  0.63340070  1
  O  O5  1  0.14161128  0.62403650  0.35251027  1
  O  O6  1  0.14740683  0.86091424  0.12783634  1
  O  O7  1  0.35092103  0.14033042  0.62054346  1
  O  O8  1  0.35696174  0.37458311  0.85121789  1
  O  O9  1  0.36378272  0.63576532  0.13552853  1
  O  O10  1  0.37464263  0.60722815  0.60236028  1
  O  O11  1  0.37253499  0.85438635  0.35819014  1
  O  O12  1  0.38280286  0.38596874  0.38462092  1
  O  O13  1  0.39120706  0.10231267  0.12155387  1
  O  O14  1  0.39872005  0.87220911  0.89176170  1
  O  O15  1  0.60049806  0.37222484  0.60737558  1
  O  O16  1  0.60646028  0.60276626  0.37385611  1
  O  O17  1  0.61417791  0.88481566  0.11509541  1
  O  O18  1  0.62246373  0.35346418  0.14137261  1
  O  O19  1  0.62708994  0.10700976  0.89671337  1
  O  O20  1  0.61958057  0.13714241  0.36165050  1
  O  O21  1  0.64419118  0.87516662  0.64726261  1
  O  O22  1  0.64928266  0.64144745  0.87484923  1
  O  O23  1  0.85133711  0.35747678  0.37743477  1
  O  O24  1  0.85714156  0.12536847  0.14856525  1
  O  O25  1  0.86566420  0.86501985  0.86507029  1
  O  O26  1  0.87844414  0.88949883  0.39867954  1
  O  O27  1  0.87716007  0.64643827  0.64285940  1
  O  O28  1  0.89140121  0.11415852  0.61507105  1
  O  O29  1  0.89251207  0.39780026  0.87539877  1
  O  O30  1  0.89778244  0.62804408  0.10845995  1
loop_
_geom_bond_atom_site_label_1
_geom_bond_atom_site_label_2
_geom_bond_distance
_geom_bond_site_symmetry_2
Li0 O24 1.915251 1_555
Li0 O25 1.931053 1_544
Li0 O6 1.942885 1_645
Li0 O2 1.950811 1_654
Li1 O13 1.868143 1_555
Li1 O12 1.883175 1_555
Li1 O3 1.886767 1_555
Li2 O10 1.923886 1_555
Li2 O1 1.936513 1_555
Li2 O14 1.939091 1_555
Li2 O0 1.945543 1_555
Li3 O20 1.905447 1_565
Li3 O7 1.917278 1_565
Li3 O11 1.934879 1_555
Li3 O21 1.954192 1_555
Li4 O22 1.930482 1_555
Li4 O18 1.941776 1_556
Li4 O9 1.947566 1_556
Li4 O8 1.957202 1_555
Li5 O19 1.938495 1_555
Li5 O15 1.949921 1_555
Li5 O29 1.950005 1_555
Li5 O28 1.957355 1_555
Li6 O30 1.931144 1_555
Li6 O16 1.937977 1_555
Li6 O26 1.945151 1_555
Li6 O17 1.947936 1_555
Li7 O27 1.924726 1_555
Li7 O23 1.935513 1_555
Li7 O5 1.937583 1_655
Li7 O4 1.955952 1_655
Mn0 O5 1.866687 1_555
Mn0 O30 1.876205 1_455
Mn0 O6 1.903641 1_555
Mn0 O3 1.910010 1_555
Mn0 O9 1.930571 1_555
Mn0 O1 1.941304 1_554
Mn1 O3 1.878013 1_556
Mn1 O2 1.879866 1_555
Mn1 O29 1.896862 1_455
Mn1 O8 1.903407 1_555
Mn1 O1 1.924825 1_555
Mn1 O4 1.952405 1_555
Mn2 O0 1.852273 1_545
Mn2 O7 1.869028 1_555
Mn2 O2 1.884169 1_555
Mn2 O28 1.892407 1_455
Mn2 O4 1.933910 1_555
Mn3 O13 1.870873 1_565
Mn3 O6 1.881961 1_555
Mn3 O11 1.902398 1_555
Mn3 O14 1.907778 1_554
Mn3 O9 1.928595 1_555
Mn3 O17 1.929568 1_555
Mn4 O10 1.876305 1_555
Mn4 O11 1.882669 1_555
Mn4 O16 1.900940 1_555
Mn4 O5 1.902945 1_555
Mn4 O12 1.931197 1_555
Mn4 O9 1.933385 1_555
Mn5 O15 1.876863 1_555
Mn5 O8 1.878621 1_555
Mn5 O10 1.903142 1_555
Mn5 O7 1.903637 1_555
Mn5 O12 1.927494 1_555
Mn5 O4 1.932681 1_555
Mn6 O14 1.880361 1_555
Mn6 O21 1.883763 1_555
Mn6 O19 1.891045 1_565
Mn6 O22 1.904498 1_555
Mn6 O17 1.932963 1_556
Mn6 O25 1.933544 1_555
Mn7 O18 1.878477 1_555
Mn7 O20 1.894463 1_555
Mn7 O19 1.897624 1_554
Mn7 O24 1.897665 1_555
Mn7 O13 1.915562 1_555
Mn7 O17 1.936799 1_545
Mn8 O23 1.884055 1_555
Mn8 O16 1.894248 1_555
Mn8 O20 1.894979 1_555
Mn8 O18 1.901970 1_555
Mn8 O15 1.902254 1_555
Mn8 O12 1.944152 1_555
Mn9 O22 1.872055 1_555
Mn9 O29 1.875837 1_555
Mn9 O30 1.901191 1_556
Mn9 O27 1.901624 1_555
Mn9 O25 1.928772 1_555
Mn9 O1 1.933916 1_655
Mn10 O27 1.871843 1_555
Mn10 O26 1.872031 1_555
Mn10 O21 1.892663 1_555
Mn10 O0 1.916937 1_655
Mn10 O25 1.931622 1_555
Mn10 O28 1.939919 1_565
Mn11 O24 1.894297 1_555
Mn11 O26 1.906656 1_545
Mn11 O23 1.910879 1_555
Mn11 O28 1.915507 1_555
Mn11 O20 2.078611 1_555
Ni0 O26 1.998083 1_455
Ni0 O0 1.999415 1_555
Ni0 O11 2.054056 1_555
Ni0 O6 2.062911 1_555
Ni0 O5 2.090663 1_555
Ni1 O13 2.043133 1_556
Ni1 O14 2.046076 1_545
Ni1 O19 2.047137 1_555
Ni1 O7 2.062717 1_555
Ni1 O8 2.064097 1_555
Ni1 O2 2.072384 1_555
Ni2 O16 2.038975 1_555
Ni2 O15 2.047146 1_555
Ni2 O27 2.052270 1_555
Ni2 O22 2.065692 1_555
Ni2 O21 2.068003 1_555
Ni2 O10 2.070853 1_555
Ni3 O18 2.047732 1_555
Ni3 O23 2.048163 1_555
Ni3 O30 2.051568 1_555
Ni3 O24 2.060679 1_555
Ni3 O29 2.065227 1_554
Ni3 O3 2.070703 1_655
