# generated using pymatgen
data_ErP2H7O10
_symmetry_space_group_name_H-M   'P 1'
_cell_length_a   8.28229800
_cell_length_b   9.77417000
_cell_length_c   11.00334300
_cell_angle_alpha   90.00000000
_cell_angle_beta   90.00000000
_cell_angle_gamma   90.00000000
_symmetry_Int_Tables_number   1
_chemical_formula_structural   ErP2H7O10
_chemical_formula_sum   'Er4 P8 H28 O40'
_cell_volume   890.74909957
_cell_formula_units_Z   4
loop_
 _symmetry_equiv_pos_site_id
 _symmetry_equiv_pos_as_xyz
  1  'x, y, z'
loop_
 _atom_site_type_symbol
 _atom_site_label
 _atom_site_symmetry_multiplicity
 _atom_site_fract_x
 _atom_site_fract_y
 _atom_site_fract_z
 _atom_site_occupancy
  Er  Er0  1  0.75000000  0.23822300  0.25000000  1
  Er  Er1  1  0.75000000  0.26177700  0.75000000  1
  Er  Er2  1  0.25000000  0.76177700  0.75000000  1
  Er  Er3  1  0.25000000  0.73822300  0.25000000  1
  P  P0  1  0.87174500  0.58021500  0.45101700  1
  P  P1  1  0.87174500  0.91978500  0.54898300  1
  P  P2  1  0.62825500  0.58021500  0.04898300  1
  P  P3  1  0.62825500  0.91978500  0.95101700  1
  P  P4  1  0.12825500  0.41978500  0.54898300  1
  P  P5  1  0.12825500  0.08021500  0.45101700  1
  P  P6  1  0.37174500  0.41978500  0.95101700  1
  P  P7  1  0.37174500  0.08021500  0.04898300  1
  H  H0  1  0.37600400  0.61278800  0.48625200  1
  H  H1  1  0.37600400  0.88721200  0.51374800  1
  H  H2  1  0.12399600  0.61278800  0.01374800  1
  H  H3  1  0.12399600  0.88721200  0.98625200  1
  H  H4  1  0.62399600  0.38721200  0.51374800  1
  H  H5  1  0.62399600  0.11278800  0.48625200  1
  H  H6  1  0.87600400  0.38721200  0.98625200  1
  H  H7  1  0.87600400  0.11278800  0.01374800  1
  H  H8  1  0.70137600  0.75000000  0.50000000  1
  H  H9  1  0.79862400  0.75000000  0.00000000  1
  H  H10  1  0.29862400  0.25000000  0.50000000  1
  H  H11  1  0.20137600  0.25000000  0.00000000  1
  H  H12  1  0.91360100  0.71329900  0.29711400  1
  H  H13  1  0.91360100  0.78670100  0.70288600  1
  H  H14  1  0.58639900  0.71329900  0.20288600  1
  H  H15  1  0.58639900  0.78670100  0.79711400  1
  H  H16  1  0.08639900  0.28670100  0.70288600  1
  H  H17  1  0.08639900  0.21329900  0.29711400  1
  H  H18  1  0.41360100  0.28670100  0.79711400  1
  H  H19  1  0.41360100  0.21329900  0.20288600  1
  H  H20  1  0.49562800  0.58050800  0.37863200  1
  H  H21  1  0.49562800  0.91949200  0.62136800  1
  H  H22  1  0.00437200  0.58050800  0.12136800  1
  H  H23  1  0.00437200  0.91949200  0.87863200  1
  H  H24  1  0.50437200  0.41949200  0.62136800  1
  H  H25  1  0.50437200  0.08050800  0.37863200  1
  H  H26  1  0.99562800  0.41949200  0.87863200  1
  H  H27  1  0.99562800  0.08050800  0.12136800  1
  O  O0  1  0.50627500  0.65567600  0.16045300  1
  O  O1  1  0.50627500  0.84432400  0.83954700  1
  O  O2  1  0.99372500  0.65567600  0.33954700  1
  O  O3  1  0.99372500  0.84432400  0.66045300  1
  O  O4  1  0.49372500  0.34432400  0.83954700  1
  O  O5  1  0.49372500  0.15567600  0.16045300  1
  O  O6  1  0.00627500  0.34432400  0.66045300  1
  O  O7  1  0.00627500  0.15567600  0.33954700  1
  O  O8  1  0.78779500  0.66273800  0.07786900  1
  O  O9  1  0.78779500  0.83726200  0.92213100  1
  O  O10  1  0.71220500  0.66273800  0.42213100  1
  O  O11  1  0.71220500  0.83726200  0.57786900  1
  O  O12  1  0.21220500  0.33726200  0.92213100  1
  O  O13  1  0.21220500  0.16273800  0.07786900  1
  O  O14  1  0.28779500  0.33726200  0.57786900  1
  O  O15  1  0.28779500  0.16273800  0.42213100  1
  O  O16  1  0.35050900  0.89939800  0.37278300  1
  O  O17  1  0.35050900  0.60060200  0.62721700  1
  O  O18  1  0.14949100  0.89939800  0.12721700  1
  O  O19  1  0.14949100  0.60060200  0.87278300  1
  O  O20  1  0.64949100  0.10060200  0.62721700  1
  O  O21  1  0.64949100  0.39939800  0.37278300  1
  O  O22  1  0.85050900  0.10060200  0.87278300  1
  O  O23  1  0.85050900  0.39939800  0.12721700  1
  O  O24  1  0.17308200  0.92304800  0.39135000  1
  O  O25  1  0.17308200  0.57695200  0.60865000  1
  O  O26  1  0.32691800  0.92304800  0.10865000  1
  O  O27  1  0.32691800  0.57695200  0.89135000  1
  O  O28  1  0.82691800  0.07695200  0.60865000  1
  O  O29  1  0.82691800  0.42304800  0.39135000  1
  O  O30  1  0.67308200  0.07695200  0.89135000  1
  O  O31  1  0.67308200  0.42304800  0.10865000  1
  O  O32  1  0.38101300  0.60378500  0.39333900  1
  O  O33  1  0.38101300  0.89621500  0.60666100  1
  O  O34  1  0.11898700  0.60378500  0.10666100  1
  O  O35  1  0.11898700  0.89621500  0.89333900  1
  O  O36  1  0.61898700  0.39621500  0.60666100  1
  O  O37  1  0.61898700  0.10378500  0.39333900  1
  O  O38  1  0.88101300  0.39621500  0.89333900  1
  O  O39  1  0.88101300  0.10378500  0.10666100  1
loop_
_geom_bond_atom_site_label_1
_geom_bond_atom_site_label_2
_geom_bond_distance
_geom_bond_site_symmetry_2
Er0 O21 2.236060 1_555
Er0 O23 2.236060 1_555
Er0 O39 2.321993 1_555
Er0 O37 2.321993 1_555
Er0 O29 2.467459 1_555
Er0 O31 2.467459 1_555
Er0 O5 2.475282 1_555
Er0 O7 2.475282 1_655
Er1 O22 2.236060 1_555
Er1 O20 2.236060 1_555
Er1 O36 2.321993 1_555
Er1 O38 2.321993 1_555
Er1 O28 2.467459 1_555
Er1 O30 2.467459 1_555
Er1 O4 2.475282 1_555
Er1 O6 2.475282 1_655
Er2 O19 2.236060 1_555
Er2 O17 2.236060 1_555
Er2 O35 2.321993 1_555
Er2 O33 2.321993 1_555
Er2 O27 2.467459 1_555
Er2 O25 2.467459 1_555
Er2 O3 2.475282 1_455
Er2 O1 2.475282 1_555
Er3 O16 2.236060 1_555
Er3 O18 2.236060 1_555
Er3 O32 2.321993 1_555
Er3 O34 2.321993 1_555
Er3 O24 2.467459 1_555
Er3 O26 2.467459 1_555
Er3 O0 2.475282 1_555
Er3 O2 2.475282 1_455
H0 O32 1.026972 1_555
H0 O17 1.569918 1_555
H1 O33 1.026972 1_555
H1 O16 1.569918 1_555
H2 O34 1.026972 1_555
H2 O19 1.569918 1_554
H3 O35 1.026972 1_555
H3 O18 1.569918 1_556
H4 O36 1.026972 1_555
H4 O21 1.569918 1_555
H5 O37 1.026972 1_555
H5 O20 1.569918 1_555
H6 O38 1.026972 1_555
H6 O23 1.569918 1_556
H7 O39 1.026972 1_555
H7 O22 1.569918 1_554
H8 O11 1.212289 1_555
H8 O10 1.212289 1_555
H9 O9 1.212289 1_554
H9 O8 1.212289 1_555
H10 O14 1.212289 1_555
H10 O15 1.212289 1_555
H11 O12 1.212289 1_554
H11 O13 1.212289 1_555
H12 O2 0.987721 1_555
H13 O3 0.987721 1_555
H14 O0 0.987721 1_555
H15 O1 0.987721 1_555
H16 O6 0.987721 1_555
H17 O7 0.987721 1_555
H18 O4 0.987721 1_555
H19 O5 0.987721 1_555
H20 O32 0.989482 1_555
H21 O33 0.989482 1_555
H22 O34 0.989482 1_555
H23 O35 0.989482 1_555
H24 O36 0.989482 1_555
H25 O37 0.989482 1_555
H26 O38 0.989482 1_555
H27 O39 0.989482 1_555
O0 P2 1.751876 1_555
O1 P3 1.751876 1_555
O2 P0 1.751876 1_555
O3 P1 1.751876 1_555
O4 P6 1.751876 1_555
O5 P7 1.751876 1_555
O6 P4 1.751876 1_555
O7 P5 1.751876 1_555
O8 P2 1.580381 1_555
O9 P3 1.580381 1_555
O10 P0 1.580381 1_555
O11 P1 1.580381 1_555
O12 P6 1.580381 1_555
O13 P7 1.580381 1_555
O14 P4 1.580381 1_555
O15 P5 1.580381 1_555
O16 O24 1.501537 1_555
O17 O25 1.501537 1_555
O18 O26 1.501537 1_555
O19 O27 1.501537 1_555
O20 O28 1.501537 1_555
O21 O29 1.501537 1_555
O22 O30 1.501537 1_555
O23 O31 1.501537 1_555
O24 P5 1.711351 1_565
O25 P4 1.711351 1_555
O26 P7 1.711351 1_565
O27 P6 1.711351 1_555
O28 P1 1.711351 1_545
O29 P0 1.711351 1_555
O30 P3 1.711351 1_545
O31 P2 1.711351 1_555
