# generated using pymatgen
data_Li7Fe3Ni(PO4)6
_symmetry_space_group_name_H-M   'P 1'
_cell_length_a   8.81594879
_cell_length_b   8.81594971
_cell_length_c   8.66528197
_cell_angle_alpha   59.42313860
_cell_angle_beta   59.42313027
_cell_angle_gamma   59.99999570
_symmetry_Int_Tables_number   1
_chemical_formula_structural   Li7Fe3Ni(PO4)6
_chemical_formula_sum   'Li7 Fe3 Ni1 P6 O24'
_cell_volume   472.02342128
_cell_formula_units_Z   1
loop_
 _symmetry_equiv_pos_site_id
 _symmetry_equiv_pos_as_xyz
  1  'x, y, z'
loop_
 _atom_site_type_symbol
 _atom_site_label
 _atom_site_symmetry_multiplicity
 _atom_site_fract_x
 _atom_site_fract_y
 _atom_site_fract_z
 _atom_site_occupancy
  Li  Li0  1  0.24242800  0.70111800  0.61806700  1
  Li  Li1  1  0.43838700  0.24242800  0.61806700  1
  Li  Li2  1  0.20422700  0.66082300  0.28961300  1
  Li  Li3  1  0.70111800  0.43838700  0.61806700  1
  Li  Li4  1  0.66082300  0.84533800  0.28961300  1
  Li  Li5  1  0.84533800  0.20422700  0.28961300  1
  Li  Li6  1  0.99018900  0.99018900  0.02943300  1
  Fe  Fe0  1  0.35372000  0.35372000  0.93884100  1
  Fe  Fe1  1  0.13946700  0.13946700  0.58160000  1
  Fe  Fe2  1  0.64514600  0.64514600  0.06456400  1
  Ni  Ni0  1  0.85139800  0.85139800  0.44580700  1
  P  P0  1  0.04699900  0.45586100  0.75005900  1
  P  P1  1  0.45586100  0.74708100  0.75005900  1
  P  P2  1  0.74708100  0.04699900  0.75005900  1
  P  P3  1  0.24649600  0.95935600  0.24710300  1
  P  P4  1  0.54704500  0.24649600  0.24710300  1
  P  P5  1  0.95935600  0.54704500  0.24710300  1
  O  O0  1  0.05652400  0.27115300  0.75968400  1
  O  O1  1  0.24102600  0.42745700  0.74233100  1
  O  O2  1  0.03199000  0.62027100  0.56303200  1
  O  O3  1  0.50207100  0.68234200  0.92625800  1
  O  O4  1  0.27115300  0.91264000  0.75968400  1
  O  O5  1  0.42745700  0.58918700  0.74233100  1
  O  O6  1  0.68234200  0.88932900  0.92625800  1
  O  O7  1  0.58918700  0.24102600  0.74233100  1
  O  O8  1  0.21065100  0.97250300  0.43643800  1
  O  O9  1  0.06832200  0.96973000  0.23992300  1
  O  O10  1  0.88932900  0.50207100  0.92625800  1
  O  O11  1  0.38040800  0.21065100  0.43643800  1
  O  O12  1  0.62027100  0.78470800  0.56303200  1
  O  O13  1  0.11501100  0.49676800  0.07419400  1
  O  O14  1  0.91264000  0.05652400  0.75968400  1
  O  O15  1  0.78470800  0.03199000  0.56303200  1
  O  O16  1  0.38743700  0.75967100  0.25143100  1
  O  O17  1  0.31402700  0.11501100  0.07419400  1
  O  O18  1  0.60146100  0.38743700  0.25143100  1
  O  O19  1  0.49676800  0.31402700  0.07419400  1
  O  O20  1  0.72202400  0.06832200  0.23992300  1
  O  O21  1  0.97250300  0.38040800  0.43643800  1
  O  O22  1  0.75967100  0.60146100  0.25143100  1
  O  O23  1  0.96973000  0.72202400  0.23992300  1
loop_
_geom_bond_atom_site_label_1
_geom_bond_atom_site_label_2
_geom_bond_distance
_geom_bond_site_symmetry_2
Li0 O5 1.972400 1_555
Li0 O8 2.055973 1_555
Li0 O1 2.086492 1_555
Li1 O1 1.972398 1_555
Li1 O11 2.055973 1_555
Li1 O7 2.086499 1_555
Li2 O16 2.012002 1_555
Li2 O2 2.016879 1_555
Li2 O23 2.074643 1_455
Li2 O9 2.259716 1_555
Li3 O7 1.972392 1_555
Li3 O21 2.055972 1_555
Li3 O5 2.086494 1_555
Li4 O22 2.012010 1_555
Li4 O12 2.016879 1_555
Li4 O20 2.074626 1_565
Li4 O23 2.259716 1_555
Li5 O18 2.012008 1_555
Li5 O15 2.016879 1_555
Li5 O9 2.074637 1_645
Li5 O20 2.259731 1_555
Li6 O9 2.157102 1_655
Li6 O20 2.157106 1_565
Li6 O23 2.157109 1_555
Li6 O14 2.471511 1_564
Li6 O4 2.471514 1_654
Li6 O0 2.471517 1_664
Fe0 O19 1.932468 1_556
Fe0 O13 1.932472 1_556
Fe0 O17 1.932476 1_556
Fe0 O7 2.063579 1_555
Fe0 O5 2.063579 1_555
Fe0 O1 2.063579 1_555
Fe1 O14 2.022253 1_455
Fe1 O0 2.022253 1_555
Fe1 O4 2.022253 1_545
Fe1 O11 2.073531 1_555
Fe1 O21 2.073535 1_455
Fe1 O8 2.073539 1_545
Fe2 O6 1.964502 1_554
Fe2 O10 1.964509 1_554
Fe2 O3 1.964517 1_554
Fe2 O22 2.104685 1_555
Fe2 O16 2.104692 1_555
Fe2 O18 2.104699 1_555
Ni0 O12 2.003482 1_555
Ni0 O2 2.003482 1_655
Ni0 O15 2.003482 1_565
Ni0 O9 2.135124 1_655
Ni0 O20 2.135134 1_565
Ni0 O23 2.135137 1_555
O0 P0 1.548493 1_555
O1 P0 1.570127 1_555
O2 P0 1.543168 1_555
O3 P1 1.528598 1_555
O4 P1 1.548497 1_555
O5 P1 1.570119 1_555
O6 P2 1.528598 1_565
O7 P2 1.570124 1_555
O8 P3 1.560245 1_555
O9 P3 1.558699 1_555
O10 P0 1.528597 1_655
O11 P4 1.560244 1_555
O12 P1 1.543169 1_555
O13 P5 1.516597 1_455
O14 P2 1.548502 1_555
O15 P2 1.543165 1_555
O16 P3 1.561158 1_555
O17 P3 1.516597 1_545
O18 P4 1.561158 1_555
O19 P4 1.516598 1_555
O20 P4 1.558695 1_555
O21 P5 1.560245 1_555
O22 P5 1.561158 1_555
O23 P5 1.558691 1_555
