# generated using pymatgen
data_V3Cu2Te(PO4)6
_symmetry_space_group_name_H-M   'P 1'
_cell_length_a   8.73196705
_cell_length_b   8.73196705
_cell_length_c   8.73196736
_cell_angle_alpha   59.84747641
_cell_angle_beta   59.84747641
_cell_angle_gamma   59.84747109
_symmetry_Int_Tables_number   1
_chemical_formula_structural   V3Cu2Te(PO4)6
_chemical_formula_sum   'V3 Cu2 Te1 P6 O24'
_cell_volume   469.15396660
_cell_formula_units_Z   1
loop_
 _symmetry_equiv_pos_site_id
 _symmetry_equiv_pos_as_xyz
  1  'x, y, z'
loop_
 _atom_site_type_symbol
 _atom_site_label
 _atom_site_symmetry_multiplicity
 _atom_site_fract_x
 _atom_site_fract_y
 _atom_site_fract_z
 _atom_site_occupancy
  V  V0  1  0.35622900  0.35622900  0.35622900  1
  V  V1  1  0.14264900  0.14264900  0.14264900  1
  V  V2  1  0.64237000  0.64237000  0.64237000  1
  Cu  Cu0  1  0.00258600  0.00258600  0.00258600  1
  Cu  Cu1  1  0.49947200  0.49947200  0.49947200  1
  Te  Te0  1  0.85602100  0.85602100  0.85602100  1
  P  P0  1  0.04545000  0.44739800  0.74848900  1
  P  P1  1  0.44739800  0.74848900  0.04545000  1
  P  P2  1  0.74848900  0.04545000  0.44739800  1
  P  P3  1  0.25965100  0.96055500  0.53321500  1
  P  P4  1  0.53321500  0.25965100  0.96055500  1
  P  P5  1  0.96055500  0.53321500  0.25965100  1
  O  O0  1  0.49473100  0.70015500  0.87696300  1
  O  O1  1  0.70015500  0.87696300  0.49473100  1
  O  O2  1  0.87696300  0.49473100  0.70015500  1
  O  O3  1  0.06169400  0.26004500  0.91687700  1
  O  O4  1  0.02577900  0.60304000  0.80000100  1
  O  O5  1  0.23499900  0.42664600  0.58301800  1
  O  O6  1  0.26004500  0.91687700  0.06169400  1
  O  O7  1  0.42664600  0.58301800  0.23499900  1
  O  O8  1  0.19753400  0.99540400  0.37890300  1
  O  O9  1  0.58301800  0.23499900  0.42664600  1
  O  O10  1  0.09719200  0.95074500  0.72733300  1
  O  O11  1  0.37890300  0.19753400  0.99540400  1
  O  O12  1  0.60304000  0.80000100  0.02577900  1
  O  O13  1  0.91687700  0.06169400  0.26004500  1
  O  O14  1  0.42317800  0.76833800  0.55319100  1
  O  O15  1  0.80000100  0.02577900  0.60304000  1
  O  O16  1  0.55319100  0.42317800  0.76833800  1
  O  O17  1  0.72733300  0.09719200  0.95074500  1
  O  O18  1  0.76833800  0.55319100  0.42317800  1
  O  O19  1  0.99540400  0.37890300  0.19753400  1
  O  O20  1  0.95074500  0.72733300  0.09719200  1
  O  O21  1  0.11819400  0.49134700  0.32061700  1
  O  O22  1  0.32061700  0.11819400  0.49134700  1
  O  O23  1  0.49134700  0.32061700  0.11819400  1
loop_
_geom_bond_atom_site_label_1
_geom_bond_atom_site_label_2
_geom_bond_distance
_geom_bond_site_symmetry_2
Cu0 O6 2.228881 1_545
Cu0 O3 2.228881 1_554
Cu0 O13 2.228881 1_455
Cu0 O17 2.320955 1_454
Cu0 O20 2.320955 1_445
Cu0 O10 2.320955 1_544
Cu1 O14 2.323105 1_555
Cu1 O18 2.323105 1_555
Cu1 O16 2.323105 1_555
Cu1 O9 2.363590 1_555
Cu1 O5 2.363590 1_555
Cu1 O7 2.363590 1_555
O0 P1 1.533338 1_556
O0 V2 1.960777 1_555
O1 P2 1.533338 1_565
O1 V2 1.960777 1_555
O2 P0 1.533338 1_655
O2 V2 1.960777 1_555
O3 P0 1.555092 1_555
O3 V1 2.019628 1_556
O4 P0 1.543004 1_555
O4 Te0 2.093772 1_455
O5 P0 1.555388 1_555
O5 V0 1.970711 1_555
O6 P1 1.555092 1_555
O6 V1 2.019628 1_565
O7 P1 1.555388 1_555
O7 V0 1.970711 1_555
O8 P3 1.535874 1_555
O8 V1 1.961676 1_565
O9 P2 1.555388 1_555
O9 V0 1.970711 1_555
O10 P3 1.566347 1_555
O10 Te0 2.195561 1_455
O11 P4 1.535874 1_555
O11 V1 1.961676 1_556
O12 P1 1.543004 1_555
O12 Te0 2.093773 1_554
O13 P2 1.555092 1_555
O13 V1 2.019628 1_655
O14 P3 1.560416 1_555
O14 V2 2.000354 1_555
O15 P2 1.543004 1_555
O15 Te0 2.093773 1_545
O16 P4 1.560416 1_555
O16 V2 2.000354 1_555
O17 P4 1.566346 1_555
O17 Te0 2.195561 1_545
O18 P5 1.560416 1_555
O18 V2 2.000354 1_555
O19 P5 1.535874 1_555
O19 V1 1.961676 1_655
O20 P5 1.566347 1_555
O20 Te0 2.195561 1_554
O21 P5 1.531957 1_455
O21 V0 1.904224 1_555
O22 P3 1.531957 1_545
O22 V0 1.904224 1_555
O23 P4 1.531957 1_554
O23 V0 1.904224 1_555
