# generated using pymatgen
data_SrLa2O4
_symmetry_space_group_name_H-M   'P 1'
_cell_length_a   6.24234218
_cell_length_b   6.24234218
_cell_length_c   11.56174800
_cell_angle_alpha   90.00000000
_cell_angle_beta   90.00000000
_cell_angle_gamma   146.65723719
_symmetry_Int_Tables_number   1
_chemical_formula_structural   SrLa2O4
_chemical_formula_sum   'Sr2 La4 O8'
_cell_volume   247.62933206
_cell_formula_units_Z   2
loop_
 _symmetry_equiv_pos_site_id
 _symmetry_equiv_pos_as_xyz
  1  'x, y, z'
loop_
 _atom_site_type_symbol
 _atom_site_label
 _atom_site_symmetry_multiplicity
 _atom_site_fract_x
 _atom_site_fract_y
 _atom_site_fract_z
 _atom_site_occupancy
  Sr  Sr0  1  0.88853200  0.11146800  0.25000000  1
  Sr  Sr1  1  0.11146800  0.88853200  0.75000000  1
  La  La0  1  0.63205700  0.36794300  0.42546200  1
  La  La1  1  0.63205700  0.36794300  0.07453800  1
  La  La2  1  0.36794300  0.63205700  0.57453800  1
  La  La3  1  0.36794300  0.63205700  0.92546200  1
  O  O0  1  0.00000000  0.00000000  0.00000000  1
  O  O1  1  0.00000000  0.00000000  0.50000000  1
  O  O2  1  0.53021300  0.46978700  0.25000000  1
  O  O3  1  0.73475600  0.26524400  0.61050200  1
  O  O4  1  0.73475600  0.26524400  0.88949800  1
  O  O5  1  0.46978700  0.53021300  0.75000000  1
  O  O6  1  0.26524400  0.73475600  0.38949800  1
  O  O7  1  0.26524400  0.73475600  0.11050200  1
loop_
_geom_bond_atom_site_label_1
_geom_bond_atom_site_label_2
_geom_bond_distance
_geom_bond_site_symmetry_2
La0 O2 2.366230 1_555
La0 O6 2.432542 1_545
La0 O6 2.432542 1_655
La0 O3 2.466905 1_555
La0 O1 2.538537 1_555
La0 O1 2.538537 1_665
La1 O2 2.366230 1_555
La1 O7 2.432542 1_545
La1 O7 2.432542 1_655
La1 O4 2.466905 1_554
La1 O0 2.538537 1_555
La1 O0 2.538537 1_665
La2 O5 2.366230 1_555
La2 O3 2.432542 1_455
La2 O3 2.432542 1_565
La2 O6 2.466905 1_555
La2 O1 2.538537 1_555
La2 O1 2.538537 1_665
La3 O5 2.366230 1_555
La3 O4 2.432542 1_455
La3 O4 2.432542 1_565
La3 O7 2.466905 1_556
La3 O0 2.538537 1_556
La3 O0 2.538537 1_666
O0 Sr0 3.183065 1_455
O0 Sr1 3.183065 1_544
O1 Sr1 3.183065 1_545
O1 Sr0 3.183065 1_455
O2 Sr0 2.465425 1_455
O2 Sr0 2.465425 1_565
O3 Sr1 2.825325 1_545
O3 Sr1 2.825325 1_655
O4 Sr1 2.825325 1_545
O4 Sr1 2.825325 1_655
O5 Sr1 2.465425 1_545
O5 Sr1 2.465425 1_655
O6 Sr0 2.825325 1_455
O6 Sr0 2.825325 1_565
O7 Sr0 2.825325 1_455
O7 Sr0 2.825325 1_565
