# generated using pymatgen
data_YbAlO3
_symmetry_space_group_name_H-M   'P 1'
_cell_length_a   3.36927868
_cell_length_b   3.36927868
_cell_length_c   11.39806361
_cell_angle_alpha   90.00000000
_cell_angle_beta   90.00000000
_cell_angle_gamma   119.99999202
_symmetry_Int_Tables_number   1
_chemical_formula_structural   YbAlO3
_chemical_formula_sum   'Yb2 Al2 O6'
_cell_volume   112.05612796
_cell_formula_units_Z   2
loop_
 _symmetry_equiv_pos_site_id
 _symmetry_equiv_pos_as_xyz
  1  'x, y, z'
loop_
 _atom_site_type_symbol
 _atom_site_label
 _atom_site_symmetry_multiplicity
 _atom_site_fract_x
 _atom_site_fract_y
 _atom_site_fract_z
 _atom_site_occupancy
  Yb  Yb0  1  0.00000000  0.00000000  0.00000000  1
  Yb  Yb1  1  0.00000000  0.00000000  0.50000000  1
  Al  Al0  1  0.33333300  0.66666700  0.25000000  1
  Al  Al1  1  0.66666700  0.33333300  0.75000000  1
  O  O0  1  0.33333300  0.66666700  0.09049590  1
  O  O1  1  0.33333300  0.66666700  0.40950410  1
  O  O2  1  0.00000000  0.00000000  0.25000000  1
  O  O3  1  0.00000000  0.00000000  0.75000000  1
  O  O4  1  0.66666700  0.33333300  0.90950410  1
  O  O5  1  0.66666700  0.33333300  0.59049590  1
loop_
_geom_bond_atom_site_label_1
_geom_bond_atom_site_label_2
_geom_bond_distance
_geom_bond_site_symmetry_2
Al0 O1 1.818038 1_555
Al0 O0 1.818038 1_555
Al0 O2 1.945252 1_565
Al0 O2 1.945255 1_555
Al0 O2 1.945255 1_665
Al1 O4 1.818038 1_555
Al1 O5 1.818038 1_555
Al1 O3 1.945252 1_655
Al1 O3 1.945255 1_555
Al1 O3 1.945255 1_665
O0 Yb0 2.201807 1_565
O0 Yb0 2.201809 1_555
O0 Yb0 2.201809 1_665
O1 Yb1 2.201807 1_565
O1 Yb1 2.201809 1_555
O1 Yb1 2.201809 1_665
O4 Yb0 2.201807 1_656
O4 Yb0 2.201809 1_556
O4 Yb0 2.201809 1_666
O5 Yb1 2.201807 1_655
O5 Yb1 2.201809 1_555
O5 Yb1 2.201809 1_665
