# generated using pymatgen
data_Li2NiP2O7
_symmetry_space_group_name_H-M   'P 1'
_cell_length_a   9.73938300
_cell_length_b   9.74362200
_cell_length_c   11.09621938
_cell_angle_alpha   77.69217249
_cell_angle_beta   90.00000000
_cell_angle_gamma   90.00000000
_symmetry_Int_Tables_number   1
_chemical_formula_structural   Li2NiP2O7
_chemical_formula_sum   'Li16 Ni8 P16 O56'
_cell_volume   1028.79486486
_cell_formula_units_Z   8
loop_
 _symmetry_equiv_pos_site_id
 _symmetry_equiv_pos_as_xyz
  1  'x, y, z'
loop_
 _atom_site_type_symbol
 _atom_site_label
 _atom_site_symmetry_multiplicity
 _atom_site_fract_x
 _atom_site_fract_y
 _atom_site_fract_z
 _atom_site_occupancy
  Li  Li0  1  0.72071800  0.11337400  0.55177200  1
  Li  Li1  1  0.42365400  0.16935700  0.45699100  1
  Li  Li2  1  0.10682500  0.08733200  0.97195100  1
  Li  Li3  1  0.91202400  0.34357000  0.04376100  1
  Li  Li4  1  0.41202400  0.15643000  0.95623900  1
  Li  Li5  1  0.60682500  0.41266800  0.02804900  1
  Li  Li6  1  0.92365400  0.33064300  0.54300900  1
  Li  Li7  1  0.22071800  0.38662600  0.44822800  1
  Li  Li8  1  0.77928200  0.61337400  0.55177200  1
  Li  Li9  1  0.07634600  0.66935700  0.45699100  1
  Li  Li10  1  0.39317500  0.58733200  0.97195100  1
  Li  Li11  1  0.58797600  0.84357000  0.04376100  1
  Li  Li12  1  0.08797600  0.65643000  0.95623900  1
  Li  Li13  1  0.89317500  0.91266800  0.02804900  1
  Li  Li14  1  0.57634600  0.83064300  0.54300900  1
  Li  Li15  1  0.27928200  0.88662600  0.44822800  1
  Ni  Ni0  1  0.92751800  0.20002300  0.32630400  1
  Ni  Ni1  1  0.21026200  0.25412500  0.17772600  1
  Ni  Ni2  1  0.71026200  0.24587500  0.82227400  1
  Ni  Ni3  1  0.42751800  0.29997700  0.67369600  1
  Ni  Ni4  1  0.57248200  0.70002300  0.32630400  1
  Ni  Ni5  1  0.28973800  0.75412500  0.17772600  1
  Ni  Ni6  1  0.78973800  0.74587500  0.82227400  1
  Ni  Ni7  1  0.07248200  0.79997700  0.67369600  1
  P  P0  1  0.45093500  0.02602200  0.23983300  1
  P  P1  1  0.70599700  0.12006900  0.10851900  1
  P  P2  1  0.92915500  0.05906100  0.75770200  1
  P  P3  1  0.15084400  0.12178000  0.57384400  1
  P  P4  1  0.65084400  0.37822000  0.42615600  1
  P  P5  1  0.42915500  0.44093900  0.24229800  1
  P  P6  1  0.04906500  0.52602200  0.23983300  1
  P  P7  1  0.20599700  0.37993100  0.89148100  1
  P  P8  1  0.79400300  0.62006900  0.10851900  1
  P  P9  1  0.95093500  0.47397800  0.76016700  1
  P  P10  1  0.57084500  0.55906100  0.75770200  1
  P  P11  1  0.34915600  0.62178000  0.57384400  1
  P  P12  1  0.84915600  0.87822000  0.42615600  1
  P  P13  1  0.07084500  0.94093900  0.24229800  1
  P  P14  1  0.29400300  0.87993100  0.89148100  1
  P  P15  1  0.54906500  0.97397800  0.76016700  1
  O  O0  1  0.41359500  0.02212100  0.37308600  1
  O  O1  1  0.84004400  0.02895900  0.44438300  1
  O  O2  1  0.08846900  0.08977200  0.26888700  1
  O  O3  1  0.35891600  0.11959200  0.14395000  1
  O  O4  1  0.60093800  0.09690500  0.22496000  1
  O  O5  1  0.83209500  0.18369700  0.15675100  1
  O  O6  1  0.63552000  0.22559600  0.00029100  1
  O  O7  1  0.27572100  0.02121800  0.92453800  1
  O  O8  1  0.07869500  0.11406300  0.70637300  1
  O  O9  1  0.93178500  0.06474600  0.89219200  1
  O  O10  1  0.53665300  0.12452800  0.78830800  1
  O  O11  1  0.29122800  0.18886900  0.58337900  1
  O  O12  1  0.82323300  0.16581900  0.68780100  1
  O  O13  1  0.06324000  0.22288900  0.47885800  1
  O  O14  1  0.56324000  0.27711100  0.52114200  1
  O  O15  1  0.32323300  0.33418100  0.31219900  1
  O  O16  1  0.79122800  0.31113100  0.41662100  1
  O  O17  1  0.03665300  0.37547200  0.21169200  1
  O  O18  1  0.57869500  0.38593700  0.29362700  1
  O  O19  1  0.43178500  0.43525400  0.10780800  1
  O  O20  1  0.77572100  0.47878200  0.07546200  1
  O  O21  1  0.13552000  0.27440400  0.99970900  1
  O  O22  1  0.33209500  0.31630300  0.84324900  1
  O  O23  1  0.10093800  0.40309500  0.77504000  1
  O  O24  1  0.58846900  0.41022800  0.73111300  1
  O  O25  1  0.85891600  0.38040800  0.85605000  1
  O  O26  1  0.08640500  0.52212100  0.37308600  1
  O  O27  1  0.34004400  0.47104100  0.55561700  1
  O  O28  1  0.65995600  0.52895900  0.44438300  1
  O  O29  1  0.91359500  0.47787900  0.62691400  1
  O  O30  1  0.14108400  0.61959200  0.14395000  1
  O  O31  1  0.41153100  0.58977200  0.26888700  1
  O  O32  1  0.89906200  0.59690500  0.22496000  1
  O  O33  1  0.66790500  0.68369700  0.15675100  1
  O  O34  1  0.86448000  0.72559600  0.00029100  1
  O  O35  1  0.22427900  0.52121800  0.92453800  1
  O  O36  1  0.56821500  0.56474600  0.89219200  1
  O  O37  1  0.42130500  0.61406300  0.70637300  1
  O  O38  1  0.96334700  0.62452800  0.78830800  1
  O  O39  1  0.20877200  0.68886900  0.58337900  1
  O  O40  1  0.67676700  0.66581900  0.68780100  1
  O  O41  1  0.43676000  0.72288900  0.47885800  1
  O  O42  1  0.93676000  0.77711100  0.52114200  1
  O  O43  1  0.17676700  0.83418100  0.31219900  1
  O  O44  1  0.70877200  0.81113100  0.41662100  1
  O  O45  1  0.46334700  0.87547200  0.21169200  1
  O  O46  1  0.06821500  0.93525400  0.10780800  1
  O  O47  1  0.92130500  0.88593700  0.29362700  1
  O  O48  1  0.72427900  0.97878200  0.07546200  1
  O  O49  1  0.36448000  0.77440400  0.99970900  1
  O  O50  1  0.16790500  0.81630300  0.84324900  1
  O  O51  1  0.39906200  0.90309500  0.77504000  1
  O  O52  1  0.64108400  0.88040800  0.85605000  1
  O  O53  1  0.91153100  0.91022800  0.73111300  1
  O  O54  1  0.15995600  0.97104100  0.55561700  1
  O  O55  1  0.58640500  0.97787900  0.62691400  1
loop_
_geom_bond_atom_site_label_1
_geom_bond_atom_site_label_2
_geom_bond_distance
_geom_bond_site_symmetry_2
Li0 O55 1.918350 1_545
Li0 O1 1.965941 1_555
Li0 O12 1.965995 1_555
Li0 O14 2.186772 1_555
Li0 O16 2.280673 1_555
Li1 O0 1.871885 1_555
Li1 O14 1.943152 1_555
Li1 O11 1.944240 1_555
Li1 O15 2.239870 1_555
Li2 O7 1.882044 1_555
Li2 O46 1.912415 1_546
Li2 O21 1.932557 1_555
Li2 O9 1.954741 1_455
Li3 O5 1.942123 1_555
Li3 O20 1.954295 1_555
Li3 O25 2.101437 1_554
Li3 O17 2.299815 1_655
Li3 O21 2.360431 1_654
Li4 O22 1.942123 1_555
Li4 O7 1.954295 1_555
Li4 O3 2.101437 1_556
Li4 O10 2.299815 1_555
Li4 O6 2.360431 1_556
Li5 O20 1.882044 1_555
Li5 O36 1.912415 1_554
Li5 O6 1.932557 1_555
Li5 O19 1.954741 1_555
Li6 O29 1.871885 1_555
Li6 O13 1.943152 1_655
Li6 O16 1.944240 1_555
Li6 O12 2.239870 1_555
Li7 O26 1.918350 1_555
Li7 O27 1.965941 1_555
Li7 O15 1.965995 1_555
Li7 O13 2.186772 1_555
Li7 O11 2.280673 1_555
Li8 O29 1.918350 1_555
Li8 O28 1.965941 1_555
Li8 O40 1.965995 1_555
Li8 O42 2.186772 1_555
Li8 O44 2.280673 1_555
Li9 O26 1.871885 1_555
Li9 O42 1.943152 1_455
Li9 O39 1.944240 1_555
Li9 O43 2.239870 1_555
Li10 O35 1.882044 1_555
Li10 O19 1.912415 1_556
Li10 O49 1.932557 1_555
Li10 O36 1.954741 1_555
Li11 O33 1.942123 1_555
Li11 O48 1.954295 1_555
Li11 O52 2.101437 1_554
Li11 O45 2.299815 1_555
Li11 O49 2.360431 1_554
Li12 O50 1.942123 1_555
Li12 O35 1.954295 1_555
Li12 O30 2.101437 1_556
Li12 O38 2.299815 1_455
Li12 O34 2.360431 1_456
Li13 O48 1.882044 1_555
Li13 O9 1.912415 1_564
Li13 O34 1.932557 1_555
Li13 O46 1.954741 1_655
Li14 O55 1.871885 1_555
Li14 O41 1.943152 1_555
Li14 O44 1.944240 1_555
Li14 O40 2.239870 1_555
Li15 O0 1.918350 1_565
Li15 O54 1.965941 1_555
Li15 O43 1.965995 1_555
Li15 O41 2.186772 1_555
Li15 O39 2.280673 1_555
Ni0 O1 2.071143 1_555
Ni0 O2 2.075801 1_655
Ni0 O16 2.097821 1_555
Ni0 O5 2.134541 1_555
Ni0 O17 2.177773 1_655
Ni0 O13 2.196176 1_655
Ni1 O3 2.040669 1_555
Ni1 O2 2.074638 1_555
Ni1 O21 2.074708 1_554
Ni1 O15 2.131137 1_555
Ni1 O17 2.142186 1_555
Ni2 O25 2.040669 1_555
Ni2 O24 2.074638 1_555
Ni2 O6 2.074708 1_556
Ni2 O12 2.131137 1_555
Ni2 O10 2.142186 1_555
Ni3 O27 2.071143 1_555
Ni3 O24 2.075801 1_555
Ni3 O11 2.097821 1_555
Ni3 O22 2.134541 1_555
Ni3 O10 2.177773 1_555
Ni3 O14 2.196176 1_555
Ni4 O28 2.071143 1_555
Ni4 O31 2.075801 1_555
Ni4 O44 2.097821 1_555
Ni4 O33 2.134541 1_555
Ni4 O45 2.177773 1_555
Ni4 O41 2.196176 1_555
Ni5 O30 2.040669 1_555
Ni5 O31 2.074638 1_555
Ni5 O49 2.074708 1_554
Ni5 O43 2.131137 1_555
Ni5 O45 2.142186 1_555
Ni6 O52 2.040669 1_555
Ni6 O53 2.074638 1_555
Ni6 O34 2.074708 1_556
Ni6 O40 2.131137 1_555
Ni6 O38 2.142186 1_555
Ni7 O54 2.071143 1_555
Ni7 O53 2.075801 1_455
Ni7 O39 2.097821 1_555
Ni7 O50 2.134541 1_555
Ni7 O38 2.177773 1_455
Ni7 O42 2.196176 1_455
O0 P0 1.515259 1_555
O1 P12 1.527296 1_545
O2 P13 1.549812 1_545
O3 P0 1.533894 1_555
O4 P0 1.609343 1_555
O4 P1 1.625725 1_555
O5 P1 1.523325 1_555
O6 P1 1.563380 1_555
O7 P14 1.508870 1_545
O8 P2 1.613275 1_455
O8 P3 1.617053 1_555
O9 P2 1.505329 1_555
O10 P15 1.568184 1_545
O11 P3 1.528847 1_555
O12 P2 1.550453 1_555
O13 P3 1.538417 1_555
O14 P4 1.538417 1_555
O15 P5 1.550453 1_555
O16 P4 1.528847 1_555
O17 P6 1.568184 1_555
O18 P5 1.613275 1_555
O18 P4 1.617053 1_555
O19 P5 1.505329 1_555
O20 P8 1.508870 1_555
O21 P7 1.563380 1_555
O22 P7 1.523325 1_555
O23 P9 1.609343 1_455
O23 P7 1.625725 1_555
O24 P10 1.549812 1_555
O25 P9 1.533894 1_555
O26 P6 1.515259 1_555
O27 P11 1.527296 1_555
O28 P4 1.527296 1_555
O29 P9 1.515259 1_555
O30 P6 1.533894 1_555
O31 P5 1.549812 1_555
O32 P6 1.609343 1_655
O32 P8 1.625725 1_555
O33 P8 1.523325 1_555
O34 P8 1.563380 1_555
O35 P7 1.508870 1_555
O36 P10 1.505329 1_555
O37 P10 1.613275 1_555
O37 P11 1.617053 1_555
O38 P9 1.568184 1_555
O39 P11 1.528847 1_555
O40 P10 1.550453 1_555
O41 P11 1.538417 1_555
O42 P12 1.538417 1_555
O43 P13 1.550453 1_555
O44 P12 1.528847 1_555
O45 P0 1.568184 1_565
O46 P13 1.505329 1_555
O47 P13 1.613275 1_655
O47 P12 1.617053 1_555
O48 P1 1.508870 1_565
O49 P14 1.563380 1_555
O50 P14 1.523325 1_555
O51 P15 1.609343 1_555
O51 P14 1.625725 1_555
O52 P15 1.533894 1_555
O53 P2 1.549812 1_565
O54 P3 1.527296 1_565
O55 P15 1.515259 1_555
