# generated using pymatgen
data_Li8Mn5Fe3(BO3)8
_symmetry_space_group_name_H-M   'P 1'
_cell_length_a   6.06155000
_cell_length_b   9.72430398
_cell_length_c   9.80697990
_cell_angle_alpha   65.02311669
_cell_angle_beta   79.50366096
_cell_angle_gamma   78.19838546
_symmetry_Int_Tables_number   1
_chemical_formula_structural   Li8Mn5Fe3(BO3)8
_chemical_formula_sum   'Li8 Mn5 Fe3 B8 O24'
_cell_volume   509.92870448
_cell_formula_units_Z   1
loop_
 _symmetry_equiv_pos_site_id
 _symmetry_equiv_pos_as_xyz
  1  'x, y, z'
loop_
 _atom_site_type_symbol
 _atom_site_label
 _atom_site_symmetry_multiplicity
 _atom_site_fract_x
 _atom_site_fract_y
 _atom_site_fract_z
 _atom_site_occupancy
  Li  Li0  1  0.04619100  0.46713400  0.81588600  1
  Li  Li1  1  0.04611300  0.96671000  0.31579200  1
  Li  Li2  1  0.45448000  0.03305100  0.18733700  1
  Li  Li3  1  0.54624100  0.46718800  0.31594200  1
  Li  Li4  1  0.45361200  0.53327900  0.68584000  1
  Li  Li5  1  0.54408300  0.96532900  0.81490300  1
  Li  Li6  1  0.95399100  0.03308600  0.68468600  1
  Li  Li7  1  0.95346300  0.53382200  0.18606700  1
  Mn  Mn0  1  0.31209200  0.29375700  0.62407400  1
  Mn  Mn1  1  0.31184600  0.79164600  0.12558800  1
  Mn  Mn2  1  0.81282500  0.29332600  0.12705000  1
  Mn  Mn3  1  0.68563500  0.20568300  0.87372900  1
  Mn  Mn4  1  0.81145400  0.79227200  0.62512300  1
  Fe  Fe0  1  0.18450500  0.21027500  0.37115100  1
  Fe  Fe1  1  0.18485100  0.70940600  0.87059100  1
  Fe  Fe2  1  0.68541800  0.70957700  0.37067300  1
  B  B0  1  0.33386100  0.36819600  0.03927100  1
  B  B1  1  0.16807000  0.13269600  0.96288300  1
  B  B2  1  0.16571800  0.63298700  0.46201500  1
  B  B3  1  0.33500600  0.86727700  0.53776500  1
  B  B4  1  0.66602400  0.13241400  0.46193200  1
  B  B5  1  0.83306700  0.36814800  0.53600300  1
  B  B6  1  0.83607800  0.86473300  0.03774700  1
  B  B7  1  0.66605200  0.63287800  0.96166100  1
  O  O0  1  0.17850900  0.01571400  0.10549200  1
  O  O1  1  0.01296500  0.24562500  0.56119700  1
  O  O2  1  0.01589000  0.74327800  0.06216900  1
  O  O3  1  0.16434600  0.36387600  0.15744500  1
  O  O4  1  0.17478700  0.51677600  0.60559200  1
  O  O5  1  0.51353500  0.24607500  0.06481200  1
  O  O6  1  0.16782600  0.86285700  0.65703900  1
  O  O7  1  0.33939700  0.13576700  0.84676000  1
  O  O8  1  0.33863200  0.63498700  0.34739000  1
  O  O9  1  0.48470800  0.25319600  0.43353500  1
  O  O10  1  0.32135600  0.48590600  0.89828400  1
  O  O11  1  0.32104100  0.98674600  0.39752800  1
  O  O12  1  0.67570500  0.01591700  0.60525400  1
  O  O13  1  0.67602000  0.51685900  0.10524600  1
  O  O14  1  0.51413700  0.74499100  0.56074800  1
  O  O15  1  0.66198200  0.36431700  0.65262900  1
  O  O16  1  0.66845500  0.86257000  0.15610400  1
  O  O17  1  0.83956900  0.13448000  0.34758300  1
  O  O18  1  0.48416000  0.75321100  0.93396200  1
  O  O19  1  0.82341800  0.48730400  0.39530300  1
  O  O20  1  0.83878700  0.63519200  0.84684000  1
  O  O21  1  0.98650200  0.25353700  0.93577300  1
  O  O22  1  0.98437300  0.75386000  0.43394000  1
  O  O23  1  0.82322400  0.98208900  0.89567000  1
loop_
_geom_bond_atom_site_label_1
_geom_bond_atom_site_label_2
_geom_bond_distance
_geom_bond_site_symmetry_2
Li0 O20 1.944978 1_455
Li0 O4 1.954831 1_555
Li0 O21 1.979286 1_455
Li0 O10 2.051456 1_555
Li1 O17 1.943736 1_465
Li1 O0 1.961649 1_565
Li1 O22 1.974908 1_455
Li1 O11 2.051608 1_555
Li2 O11 1.965643 1_545
Li2 O5 1.976780 1_555
Li2 O16 1.982160 1_545
Li2 O0 2.046903 1_555
Li3 O8 1.945493 1_555
Li3 O13 1.960111 1_555
Li3 O9 1.983289 1_555
Li3 O19 2.050914 1_555
Li4 O15 1.963189 1_555
Li4 O14 1.972334 1_555
Li4 O10 1.981813 1_555
Li4 O4 2.050318 1_555
Li5 O12 1.953074 1_565
Li5 O7 1.959295 1_565
Li5 O18 1.966722 1_555
Li5 O23 2.055975 1_555
Li6 O23 1.962690 1_545
Li6 O6 1.966497 1_645
Li6 O1 1.974022 1_655
Li6 O12 2.045467 1_555
Li7 O19 1.951725 1_555
Li7 O2 1.955990 1_655
Li7 O3 1.959797 1_655
Li7 O13 2.047734 1_555
Mn0 O7 2.085971 1_555
Mn0 O4 2.100835 1_555
Mn0 O9 2.117387 1_555
Mn0 O1 2.210236 1_555
Mn0 O15 2.453825 1_555
Mn1 O8 2.075498 1_555
Mn1 O0 2.101127 1_565
Mn1 O18 2.116750 1_554
Mn1 O2 2.196592 1_555
Mn1 O16 2.501516 1_555
Mn2 O17 2.072161 1_555
Mn2 O13 2.095975 1_555
Mn2 O21 2.122174 1_554
Mn2 O5 2.203659 1_555
Mn2 O3 2.470167 1_655
Mn3 O15 2.073609 1_555
Mn3 O23 2.097129 1_545
Mn3 O5 2.120366 1_556
Mn3 O21 2.214339 1_555
Mn3 O7 2.423772 1_555
Mn4 O20 2.076399 1_555
Mn4 O12 2.100788 1_565
Mn4 O22 2.113951 1_555
Mn4 O14 2.203749 1_555
Mn4 O6 2.503937 1_655
Fe0 O3 2.003338 1_555
Fe0 O11 2.084220 1_545
Fe0 O1 2.088487 1_555
Fe0 O9 2.189002 1_555
Fe0 O17 2.432821 1_455
Fe1 O6 1.999997 1_555
Fe1 O10 2.080815 1_555
Fe1 O2 2.090659 1_556
Fe1 O18 2.193124 1_555
Fe1 O20 2.431990 1_455
Fe2 O16 2.006082 1_555
Fe2 O19 2.079199 1_555
Fe2 O14 2.088536 1_555
Fe2 O22 2.192876 1_555
Fe2 O8 2.436253 1_555
B0 O10 1.376168 1_554
B0 O3 1.394043 1_555
B0 O5 1.406516 1_555
B1 O0 1.383210 1_556
B1 O7 1.389013 1_555
B1 O21 1.405906 1_455
B2 O4 1.386260 1_555
B2 O8 1.386795 1_555
B2 O22 1.405047 1_455
B3 O11 1.378827 1_555
B3 O6 1.393013 1_555
B3 O14 1.406598 1_555
B4 O12 1.385839 1_555
B4 O17 1.387225 1_555
B4 O9 1.404365 1_555
B5 O19 1.378931 1_555
B5 O15 1.390204 1_555
B5 O1 1.409901 1_655
B6 O23 1.382091 1_554
B6 O16 1.392308 1_555
B6 O2 1.403534 1_655
B7 O13 1.385937 1_556
B7 O20 1.386887 1_555
B7 O18 1.404141 1_555
