# generated using pymatgen
data_Li7MnNi3(PO4)6
_symmetry_space_group_name_H-M   'P 1'
_cell_length_a   8.74238444
_cell_length_b   8.74238444
_cell_length_c   8.74238440
_cell_angle_alpha   60.18565190
_cell_angle_beta   60.18565190
_cell_angle_gamma   60.18565796
_symmetry_Int_Tables_number   1
_chemical_formula_structural   Li7MnNi3(PO4)6
_chemical_formula_sum   'Li7 Mn1 Ni3 P6 O24'
_cell_volume   474.45690450
_cell_formula_units_Z   1
loop_
 _symmetry_equiv_pos_site_id
 _symmetry_equiv_pos_as_xyz
  1  'x, y, z'
loop_
 _atom_site_type_symbol
 _atom_site_label
 _atom_site_symmetry_multiplicity
 _atom_site_fract_x
 _atom_site_fract_y
 _atom_site_fract_z
 _atom_site_occupancy
  Li  Li0  1  0.72227800  0.32746200  0.14904700  1
  Li  Li1  1  0.14904700  0.72227800  0.32746200  1
  Li  Li2  1  0.32746200  0.14904700  0.72227800  1
  Li  Li3  1  0.48425400  0.48425400  0.48425400  1
  Li  Li4  1  0.72066700  0.88951200  0.23524400  1
  Li  Li5  1  0.88951200  0.23524400  0.72066700  1
  Li  Li6  1  0.23524400  0.72066700  0.88951200  1
  Mn  Mn0  1  0.85389900  0.85389900  0.85389900  1
  Ni  Ni0  1  0.35050300  0.35050300  0.35050300  1
  Ni  Ni1  1  0.14453400  0.14453400  0.14453400  1
  Ni  Ni2  1  0.64207700  0.64207700  0.64207700  1
  P  P0  1  0.46879800  0.74035400  0.04252100  1
  P  P1  1  0.74035400  0.04252100  0.46879800  1
  P  P2  1  0.04252100  0.46879800  0.74035400  1
  P  P3  1  0.95814000  0.54610000  0.23908100  1
  P  P4  1  0.23908100  0.95814000  0.54610000  1
  P  P5  1  0.54610000  0.23908100  0.95814000  1
  O  O0  1  0.27838800  0.89575000  0.08493200  1
  O  O1  1  0.46886500  0.56250800  0.22056300  1
  O  O2  1  0.63948300  0.78016400  0.00633100  1
  O  O3  1  0.70965400  0.87893600  0.47872200  1
  O  O4  1  0.89575000  0.08493200  0.27838800  1
  O  O5  1  0.56250800  0.22056300  0.46886500  1
  O  O6  1  0.87893600  0.47872200  0.70965400  1
  O  O7  1  0.22056300  0.46886500  0.56250800  1
  O  O8  1  0.98112400  0.37669800  0.21241400  1
  O  O9  1  0.96168200  0.72557000  0.05468600  1
  O  O10  1  0.47872200  0.70965400  0.87893600  1
  O  O11  1  0.21241400  0.98112400  0.37669800  1
  O  O12  1  0.78016400  0.00633100  0.63948300  1
  O  O13  1  0.53131400  0.27746800  0.12037400  1
  O  O14  1  0.08493200  0.27838800  0.89575000  1
  O  O15  1  0.00633100  0.63948300  0.78016400  1
  O  O16  1  0.76367800  0.60202300  0.38491700  1
  O  O17  1  0.12037400  0.53131400  0.27746800  1
  O  O18  1  0.38491700  0.76367800  0.60202300  1
  O  O19  1  0.05468600  0.96168200  0.72557000  1
  O  O20  1  0.27746800  0.12037400  0.53131400  1
  O  O21  1  0.37669800  0.21241400  0.98112400  1
  O  O22  1  0.60202300  0.38491700  0.76367800  1
  O  O23  1  0.72557000  0.05468600  0.96168200  1
loop_
_geom_bond_atom_site_label_1
_geom_bond_atom_site_label_2
_geom_bond_distance
_geom_bond_site_symmetry_2
Li0 O4 2.048868 1_555
Li0 O13 2.071639 1_555
Li0 O1 2.212429 1_555
Li0 O5 2.336266 1_555
Li1 O0 2.048868 1_555
Li1 O17 2.071639 1_555
Li1 O7 2.212429 1_555
Li1 O1 2.336267 1_555
Li2 O14 2.048868 1_555
Li2 O20 2.071639 1_555
Li2 O5 2.212429 1_555
Li2 O7 2.336267 1_555
Li3 O7 2.109292 1_555
Li3 O1 2.109292 1_555
Li3 O5 2.109292 1_555
Li4 O3 2.039124 1_555
Li4 O23 2.081398 1_564
Li4 O16 2.109433 1_555
Li4 O9 2.219221 1_555
Li5 O6 2.039124 1_555
Li5 O19 2.081399 1_645
Li5 O22 2.109433 1_555
Li5 O23 2.219221 1_555
Li6 O10 2.039124 1_555
Li6 O9 2.081398 1_456
Li6 O18 2.109433 1_555
Li6 O19 2.219221 1_555
Mn0 O2 1.889064 1_556
Mn0 O12 1.889064 1_565
Mn0 O15 1.889064 1_655
Mn0 O19 1.965477 1_655
Mn0 O9 1.965477 1_556
Mn0 O23 1.965477 1_565
Ni0 O20 2.016284 1_555
Ni0 O13 2.016284 1_555
Ni0 O17 2.016284 1_555
Ni0 O1 2.107363 1_555
Ni0 O7 2.107363 1_555
Ni0 O5 2.107363 1_555
Ni1 O21 1.995997 1_554
Ni1 O11 1.995997 1_545
Ni1 O8 1.995997 1_455
Ni1 O4 2.088326 1_455
Ni1 O14 2.088326 1_554
Ni1 O0 2.088326 1_545
Ni2 O3 2.028124 1_555
Ni2 O10 2.028124 1_555
Ni2 O6 2.028124 1_555
Ni2 O22 2.084033 1_555
Ni2 O16 2.084033 1_555
Ni2 O18 2.084033 1_555
O0 P0 1.546765 1_555
O1 P0 1.560019 1_555
O2 P0 1.544453 1_555
O3 P1 1.536214 1_565
O4 P1 1.546765 1_555
O5 P1 1.560019 1_555
O6 P2 1.536214 1_655
O7 P2 1.560019 1_555
O8 P3 1.512896 1_555
O9 P3 1.595305 1_555
O10 P0 1.536214 1_556
O11 P4 1.512896 1_555
O12 P1 1.544453 1_555
O13 P5 1.545574 1_554
O14 P2 1.546765 1_555
O15 P2 1.544453 1_555
O16 P3 1.546851 1_555
O17 P3 1.545574 1_455
O18 P4 1.546851 1_555
O19 P4 1.595305 1_555
O20 P4 1.545574 1_545
O21 P5 1.512896 1_555
O22 P5 1.546851 1_555
O23 P5 1.595305 1_555
