# generated using pymatgen
data_Al2Si2O7
_symmetry_space_group_name_H-M   'P 1'
_cell_length_a   5.35220200
_cell_length_b   9.13241627
_cell_length_c   7.54686824
_cell_angle_alpha   94.94306972
_cell_angle_beta   107.79171402
_cell_angle_gamma   91.88735817
_symmetry_Int_Tables_number   1
_chemical_formula_structural   Al2Si2O7
_chemical_formula_sum   'Al4 Si4 O14'
_cell_volume   349.24783228
_cell_formula_units_Z   2
loop_
 _symmetry_equiv_pos_site_id
 _symmetry_equiv_pos_as_xyz
  1  'x, y, z'
loop_
 _atom_site_type_symbol
 _atom_site_label
 _atom_site_symmetry_multiplicity
 _atom_site_fract_x
 _atom_site_fract_y
 _atom_site_fract_z
 _atom_site_occupancy
  Al  Al0  1  0.17478600  0.54045300  0.48340300  1
  Al  Al1  1  0.92491600  0.29046800  0.48381000  1
  Al  Al2  1  0.67542200  0.04041500  0.48444700  1
  Al  Al3  1  0.42612500  0.78984600  0.48345600  1
  Si  Si0  1  0.00835000  0.33736600  0.08672700  1
  Si  Si1  1  0.50085700  0.17219600  0.08374800  1
  Si  Si2  1  0.50674600  0.83704800  0.08638400  1
  Si  Si3  1  0.99939600  0.67241500  0.08415200  1
  O  O0  1  0.10337600  0.35866600  0.31985500  1
  O  O1  1  0.10836700  0.69145400  0.31763100  1
  O  O2  1  0.00312900  0.49937400  0.01469800  1
  O  O3  1  0.20896900  0.23385500  0.01751600  1
  O  O4  1  0.20577000  0.76477400  0.01018000  1
  O  O5  1  0.60316900  0.85901700  0.31963000  1
  O  O6  1  0.60926500  0.19070800  0.31733400  1
  O  O7  1  0.50270000  0.99935600  0.01381700  1
  O  O8  1  0.70588700  0.73256100  0.01766700  1
  O  O9  1  0.70792800  0.26360300  0.00986600  1
  O  O10  1  0.97536500  0.13259100  0.59609300  1
  O  O11  1  0.47612000  0.63130300  0.59412800  1
  O  O12  1  0.46359100  0.96701200  0.58955400  1
  O  O13  1  0.96166500  0.46802100  0.58820300  1
loop_
_geom_bond_atom_site_label_1
_geom_bond_atom_site_label_2
_geom_bond_distance
_geom_bond_site_symmetry_2
Al0 O13 1.719303 1_455
Al0 O11 1.719462 1_555
Al0 O1 1.910756 1_555
Al0 O0 1.934534 1_555
Al1 O13 1.718356 1_555
Al1 O10 1.722242 1_555
Al1 O0 1.909742 1_655
Al1 O6 1.914913 1_555
Al2 O12 1.719059 1_545
Al2 O10 1.719841 1_555
Al2 O6 1.912389 1_555
Al2 O5 1.936438 1_545
Al3 O12 1.719409 1_555
Al3 O11 1.721309 1_555
Al3 O5 1.907009 1_555
Al3 O1 1.915941 1_555
O0 Si0 1.667218 1_555
O1 Si3 1.669627 1_455
O2 Si0 1.617809 1_555
O2 Si3 1.624244 1_455
O3 Si1 1.623813 1_555
O3 Si0 1.626003 1_555
O4 Si3 1.624724 1_455
O4 Si2 1.630870 1_555
O5 Si2 1.668029 1_555
O6 Si1 1.670317 1_555
O7 Si1 1.621965 1_565
O7 Si2 1.622424 1_555
O8 Si2 1.623269 1_555
O8 Si3 1.626005 1_555
O9 Si1 1.622634 1_555
O9 Si0 1.633093 1_655
