# generated using pymatgen
data_Li2Fe2Si2O7
_symmetry_space_group_name_H-M   'P 1'
_cell_length_a   13.37143900
_cell_length_b   5.53153600
_cell_length_c   10.00005277
_cell_angle_alpha   56.90368933
_cell_angle_beta   90.00000000
_cell_angle_gamma   90.00000000
_symmetry_Int_Tables_number   1
_chemical_formula_structural   Li2Fe2Si2O7
_chemical_formula_sum   'Li8 Fe8 Si8 O28'
_cell_volume   619.64454373
_cell_formula_units_Z   4
loop_
 _symmetry_equiv_pos_site_id
 _symmetry_equiv_pos_as_xyz
  1  'x, y, z'
loop_
 _atom_site_type_symbol
 _atom_site_label
 _atom_site_symmetry_multiplicity
 _atom_site_fract_x
 _atom_site_fract_y
 _atom_site_fract_z
 _atom_site_occupancy
  Li  Li0  1  0.37364300  0.76059100  0.10561900  1
  Li  Li1  1  0.75357100  0.02810500  0.16743500  1
  Li  Li2  1  0.25357100  0.97189500  0.33256500  1
  Li  Li3  1  0.87364300  0.23940900  0.39438100  1
  Li  Li4  1  0.12635700  0.76059100  0.60561900  1
  Li  Li5  1  0.74642900  0.02810500  0.66743500  1
  Li  Li6  1  0.24642900  0.97189500  0.83256500  1
  Li  Li7  1  0.62635700  0.23940900  0.89438100  1
  Fe  Fe0  1  0.08665300  0.55148400  0.11780100  1
  Fe  Fe1  1  0.49195600  0.17137900  0.20497700  1
  Fe  Fe2  1  0.99195600  0.82862100  0.29502300  1
  Fe  Fe3  1  0.58665300  0.44851600  0.38219900  1
  Fe  Fe4  1  0.41334700  0.55148400  0.61780100  1
  Fe  Fe5  1  0.00804400  0.17137900  0.70497700  1
  Fe  Fe6  1  0.50804400  0.82862100  0.79502300  1
  Fe  Fe7  1  0.91334700  0.44851600  0.88219900  1
  Si  Si0  1  0.88261000  0.76617200  0.03432500  1
  Si  Si1  1  0.67068200  0.63180000  0.03560300  1
  Si  Si2  1  0.17068200  0.36820000  0.46439700  1
  Si  Si3  1  0.38261000  0.23382800  0.46567400  1
  Si  Si4  1  0.61739000  0.76617200  0.53432600  1
  Si  Si5  1  0.82931800  0.63180000  0.53560300  1
  Si  Si6  1  0.32931800  0.36820000  0.96439700  1
  Si  Si7  1  0.11739000  0.23382800  0.96567400  1
  O  O0  1  0.79238300  0.56184600  0.02935500  1
  O  O1  1  0.16238700  0.92764500  0.00871700  1
  O  O2  1  0.03489800  0.20946800  0.09497200  1
  O  O3  1  0.61626700  0.33723500  0.06769500  1
  O  O4  1  0.36009900  0.08392700  0.14073200  1
  O  O5  1  0.65596400  0.70637800  0.17103200  1
  O  O6  1  0.93815800  0.58449400  0.20992700  1
  O  O7  1  0.43815800  0.41550600  0.29007300  1
  O  O8  1  0.15596400  0.29362200  0.32896800  1
  O  O9  1  0.86009900  0.91607300  0.35926800  1
  O  O10  1  0.11626700  0.66276500  0.43230500  1
  O  O11  1  0.53489800  0.79053200  0.40502800  1
  O  O12  1  0.66238700  0.07235500  0.49128300  1
  O  O13  1  0.29238300  0.43815400  0.47064500  1
  O  O14  1  0.70761700  0.56184600  0.52935500  1
  O  O15  1  0.33761300  0.92764500  0.50871700  1
  O  O16  1  0.46510200  0.20946800  0.59497200  1
  O  O17  1  0.88373300  0.33723500  0.56769500  1
  O  O18  1  0.13990100  0.08392700  0.64073200  1
  O  O19  1  0.84403600  0.70637800  0.67103200  1
  O  O20  1  0.56184200  0.58449400  0.70992700  1
  O  O21  1  0.06184200  0.41550600  0.79007300  1
  O  O22  1  0.34403600  0.29362200  0.82896800  1
  O  O23  1  0.63990100  0.91607300  0.85926800  1
  O  O24  1  0.38373300  0.66276500  0.93230500  1
  O  O25  1  0.96510200  0.79053200  0.90502800  1
  O  O26  1  0.83761300  0.07235500  0.99128300  1
  O  O27  1  0.20761700  0.43815400  0.97064500  1
loop_
_geom_bond_atom_site_label_1
_geom_bond_atom_site_label_2
_geom_bond_distance
_geom_bond_site_symmetry_2
Li0 O7 1.986206 1_555
Li0 O4 2.010183 1_565
Li0 O24 2.083040 1_554
Li1 O26 1.988683 1_554
Li1 O9 2.189698 1_545
Li1 O5 2.191329 1_545
Li1 O3 2.329574 1_555
Li1 O0 2.537817 1_555
Li2 O15 1.988683 1_555
Li2 O4 2.189698 1_565
Li2 O8 2.191329 1_565
Li2 O10 2.329574 1_555
Li2 O13 2.537817 1_555
Li3 O6 1.986206 1_555
Li3 O9 2.010183 1_545
Li3 O17 2.083040 1_555
Li4 O21 1.986206 1_555
Li4 O18 2.010183 1_565
Li4 O10 2.083040 1_555
Li5 O12 1.988683 1_555
Li5 O23 2.189698 1_545
Li5 O19 2.191329 1_545
Li5 O17 2.329574 1_555
Li5 O14 2.537817 1_555
Li6 O1 1.988683 1_556
Li6 O18 2.189698 1_565
Li6 O22 2.191329 1_565
Li6 O24 2.329574 1_555
Li6 O27 2.537817 1_555
Li7 O20 1.986206 1_555
Li7 O23 2.010183 1_545
Li7 O3 2.083040 1_556
Fe0 O8 2.015746 1_555
Fe0 O1 2.016470 1_555
Fe0 O2 2.140536 1_555
Fe0 O6 2.237936 1_455
Fe0 O25 2.417597 1_454
Fe0 O27 2.486394 1_554
Fe1 O4 2.023547 1_555
Fe1 O3 2.028259 1_555
Fe1 O11 2.041389 1_545
Fe1 O7 2.078499 1_555
Fe2 O9 2.023547 1_555
Fe2 O10 2.028259 1_655
Fe2 O2 2.041389 1_665
Fe2 O6 2.078499 1_555
Fe3 O5 2.015746 1_555
Fe3 O12 2.016470 1_555
Fe3 O11 2.140536 1_555
Fe3 O7 2.237936 1_555
Fe3 O16 2.417597 1_555
Fe3 O14 2.486394 1_555
Fe4 O22 2.015746 1_555
Fe4 O15 2.016470 1_555
Fe4 O16 2.140536 1_555
Fe4 O20 2.237936 1_555
Fe4 O11 2.417597 1_555
Fe4 O13 2.486394 1_555
Fe5 O18 2.023547 1_555
Fe5 O17 2.028259 1_455
Fe5 O25 2.041389 1_445
Fe5 O21 2.078499 1_555
Fe6 O23 2.023547 1_555
Fe6 O24 2.028259 1_555
Fe6 O16 2.041389 1_565
Fe6 O20 2.078499 1_555
Fe7 O19 2.015746 1_555
Fe7 O26 2.016470 1_555
Fe7 O25 2.140536 1_555
Fe7 O21 2.237936 1_655
Fe7 O2 2.417597 1_656
Fe7 O0 2.486394 1_556
O0 Si0 1.672366 1_555
O0 Si1 1.681726 1_555
O1 Si7 1.618527 1_564
O2 Si7 1.648147 1_554
O3 Si1 1.648111 1_555
O4 Si6 1.650243 1_554
O5 Si1 1.628857 1_555
O6 Si0 1.648638 1_555
O7 Si3 1.648630 1_555
O8 Si2 1.628857 1_555
O9 Si5 1.650243 1_555
O10 Si2 1.648111 1_555
O11 Si4 1.648147 1_555
O12 Si4 1.618527 1_545
O13 Si3 1.672370 1_555
O13 Si2 1.681726 1_555
O14 Si4 1.672370 1_555
O14 Si5 1.681726 1_555
O15 Si3 1.618527 1_565
O16 Si3 1.648147 1_555
O17 Si5 1.648111 1_555
O18 Si2 1.650243 1_555
O19 Si5 1.628857 1_555
O20 Si4 1.648630 1_555
O21 Si7 1.648630 1_555
O22 Si6 1.628857 1_555
O23 Si1 1.650243 1_556
O24 Si6 1.648111 1_555
O25 Si0 1.648140 1_556
O26 Si0 1.618530 1_546
O27 Si7 1.672370 1_555
O27 Si6 1.681726 1_555
