# generated using pymatgen
data_Rb(BH)5
_symmetry_space_group_name_H-M   'P 1'
_cell_length_a   11.46155300
_cell_length_b   7.28178700
_cell_length_c   15.29525703
_cell_angle_alpha   66.63775862
_cell_angle_beta   90.00000000
_cell_angle_gamma   90.00000000
_symmetry_Int_Tables_number   1
_chemical_formula_structural   Rb(BH)5
_chemical_formula_sum   'Rb8 B40 H40'
_cell_volume   1171.89456494
_cell_formula_units_Z   8
loop_
 _symmetry_equiv_pos_site_id
 _symmetry_equiv_pos_as_xyz
  1  'x, y, z'
loop_
 _atom_site_type_symbol
 _atom_site_label
 _atom_site_symmetry_multiplicity
 _atom_site_fract_x
 _atom_site_fract_y
 _atom_site_fract_z
 _atom_site_occupancy
  Rb  Rb0  1  0.12073200  0.64433600  0.05522200  1
  Rb  Rb1  1  0.42934400  0.05893900  0.18815100  1
  Rb  Rb2  1  0.92934400  0.94106100  0.31184900  1
  Rb  Rb3  1  0.62073200  0.35566400  0.44477800  1
  Rb  Rb4  1  0.37926800  0.64433600  0.55522200  1
  Rb  Rb5  1  0.07065600  0.05893900  0.68815100  1
  Rb  Rb6  1  0.57065600  0.94106100  0.81184900  1
  Rb  Rb7  1  0.87926800  0.35566400  0.94477800  1
  B  B0  1  0.70402700  0.63824600  0.02323400  1
  B  B1  1  0.67237400  0.85798700  0.04661800  1
  B  B2  1  0.82278600  0.77229500  0.04839000  1
  B  B3  1  0.59578700  0.62618100  0.11337300  1
  B  B4  1  0.80903500  0.50546700  0.11718700  1
  B  B5  1  0.77967400  0.90703600  0.11175200  1
  B  B6  1  0.67006100  0.42128100  0.11655600  1
  B  B7  1  0.67128400  0.75369800  0.17715400  1
  B  B8  1  0.82228200  0.66903000  0.17926600  1
  B  B9  1  0.70224300  0.49363100  0.20656400  1
  B  B10  1  0.20224300  0.50636900  0.29343600  1
  B  B11  1  0.32228200  0.33097000  0.32073400  1
  B  B12  1  0.17128400  0.24630200  0.32284600  1
  B  B13  1  0.17006100  0.57871900  0.38344400  1
  B  B14  1  0.30903500  0.49453300  0.38281300  1
  B  B15  1  0.09578700  0.37381900  0.38662700  1
  B  B16  1  0.27967400  0.09296400  0.38824800  1
  B  B17  1  0.32278600  0.22770500  0.45161000  1
  B  B18  1  0.17237400  0.14201300  0.45338200  1
  B  B19  1  0.20402700  0.36175400  0.47676600  1
  B  B20  1  0.79597300  0.63824600  0.52323400  1
  B  B21  1  0.82762600  0.85798700  0.54661800  1
  B  B22  1  0.67721400  0.77229500  0.54839000  1
  B  B23  1  0.72032600  0.90703600  0.61175200  1
  B  B24  1  0.90421300  0.62618100  0.61337300  1
  B  B25  1  0.69096500  0.50546700  0.61718700  1
  B  B26  1  0.82993900  0.42128100  0.61655600  1
  B  B27  1  0.82871600  0.75369800  0.67715400  1
  B  B28  1  0.67771800  0.66903000  0.67926600  1
  B  B29  1  0.79775700  0.49363100  0.70656400  1
  B  B30  1  0.29775700  0.50636900  0.79343600  1
  B  B31  1  0.17771800  0.33097000  0.82073400  1
  B  B32  1  0.32871600  0.24630200  0.82284600  1
  B  B33  1  0.32993900  0.57871900  0.88344400  1
  B  B34  1  0.22032600  0.09296400  0.88824800  1
  B  B35  1  0.19096500  0.49453300  0.88281300  1
  B  B36  1  0.40421300  0.37381900  0.88662700  1
  B  B37  1  0.17721400  0.22770500  0.95161000  1
  B  B38  1  0.32762600  0.14201300  0.95338200  1
  B  B39  1  0.29597300  0.36175400  0.97676600  1
  H  H0  1  0.10077500  0.16551400  0.01077000  1
  H  H1  1  0.38124400  0.00532700  0.01122900  1
  H  H2  1  0.30473200  0.35747500  0.05632200  1
  H  H3  1  0.49103900  0.62874000  0.11194300  1
  H  H4  1  0.81256000  0.06172800  0.11305500  1
  H  H5  1  0.89141800  0.39780100  0.12107700  1
  H  H6  1  0.63770700  0.26470500  0.11714000  1
  H  H7  1  0.19255700  0.62900900  0.21342400  1
  H  H8  1  0.89938400  0.63441700  0.23697900  1
  H  H9  1  0.61856400  0.79951300  0.23407600  1
  H  H10  1  0.39938400  0.36558300  0.26302100  1
  H  H11  1  0.11856400  0.20048700  0.26592400  1
  H  H12  1  0.69255700  0.37099100  0.28657600  1
  H  H13  1  0.39141800  0.60219900  0.37892300  1
  H  H14  1  0.99103900  0.37126000  0.38805700  1
  H  H15  1  0.13770700  0.73529500  0.38286000  1
  H  H16  1  0.31256000  0.93827200  0.38694500  1
  H  H17  1  0.80473200  0.64252500  0.44367800  1
  H  H18  1  0.88124400  0.99467300  0.48877100  1
  H  H19  1  0.60077500  0.83448600  0.48923000  1
  H  H20  1  0.39922500  0.16551400  0.51077000  1
  H  H21  1  0.11875600  0.00532700  0.51122900  1
  H  H22  1  0.19526800  0.35747500  0.55632200  1
  H  H23  1  0.68744000  0.06172800  0.61305500  1
  H  H24  1  0.86229300  0.26470500  0.61714000  1
  H  H25  1  0.00896100  0.62874000  0.61194300  1
  H  H26  1  0.60858200  0.39780100  0.62107700  1
  H  H27  1  0.30744300  0.62900900  0.71342400  1
  H  H28  1  0.88143600  0.79951300  0.73407600  1
  H  H29  1  0.60061600  0.63441700  0.73697900  1
  H  H30  1  0.38143600  0.20048700  0.76592400  1
  H  H31  1  0.10061600  0.36558300  0.76302100  1
  H  H32  1  0.80744300  0.37099100  0.78657600  1
  H  H33  1  0.36229300  0.73529500  0.88286000  1
  H  H34  1  0.10858200  0.60219900  0.87892300  1
  H  H35  1  0.18744000  0.93827200  0.88694500  1
  H  H36  1  0.50896100  0.37126000  0.88805700  1
  H  H37  1  0.69526800  0.64252500  0.94367800  1
  H  H38  1  0.61875600  0.99467300  0.98877100  1
  H  H39  1  0.89922500  0.83448600  0.98923000  1
loop_
_geom_bond_atom_site_label_1
_geom_bond_atom_site_label_2
_geom_bond_distance
_geom_bond_site_symmetry_2
B0 H37 1.208989 1_554
B1 H38 1.205298 1_554
B2 H39 1.210969 1_554
B3 H3 1.200784 1_555
B4 H5 1.213584 1_555
B5 H4 1.195461 1_565
B6 H6 1.195602 1_555
B7 H9 1.210284 1_555
B8 H8 1.203011 1_555
B9 H12 1.200322 1_555
B10 H7 1.200322 1_555
B11 H10 1.203011 1_555
B12 H11 1.210284 1_555
B13 H15 1.195602 1_555
B14 H13 1.213584 1_555
B15 H14 1.200784 1_455
B16 H16 1.195461 1_545
B17 H20 1.210969 1_555
B18 H21 1.205298 1_555
B19 H22 1.208989 1_555
B20 H17 1.208989 1_555
B21 H18 1.205298 1_555
B22 H19 1.210969 1_555
B23 H23 1.195461 1_565
B24 H25 1.200784 1_655
B25 H26 1.213584 1_555
B26 H24 1.195602 1_555
B27 H28 1.210284 1_555
B28 H29 1.203011 1_555
B29 H32 1.200322 1_555
B30 H27 1.200322 1_555
B31 H31 1.203011 1_555
B32 H30 1.210284 1_555
B33 H33 1.195602 1_555
B34 H35 1.195461 1_545
B35 H34 1.213584 1_555
B36 H36 1.200784 1_555
B37 H0 1.210969 1_556
B38 H1 1.205298 1_556
B39 H2 1.208989 1_556
H0 Rb7 2.876314 1_454
H1 Rb1 2.935468 1_555
H2 Rb1 2.712007 1_555
H2 Rb0 2.963666 1_555
H4 Rb7 2.724215 1_554
H4 Rb2 3.112895 1_545
H5 Rb7 2.835674 1_554
H5 Rb0 3.116282 1_655
H6 Rb1 2.799531 1_555
H7 Rb0 2.516171 1_555
H8 Rb2 2.905712 1_555
H9 Rb1 2.777258 1_565
H10 Rb1 2.905712 1_555
H11 Rb2 2.777258 1_445
H12 Rb3 2.516171 1_555
H13 Rb4 2.835674 1_555
H13 Rb3 3.116282 1_555
H15 Rb2 2.799531 1_455
H16 Rb4 2.724215 1_555
H16 Rb1 3.112895 1_565
H17 Rb2 2.712007 1_555
H17 Rb3 2.963666 1_555
H18 Rb2 2.935468 1_555
H19 Rb4 2.876314 1_555
H20 Rb3 2.876314 1_555
H21 Rb5 2.935468 1_555
H22 Rb5 2.712007 1_555
H22 Rb4 2.963666 1_555
H23 Rb3 2.724215 1_555
H23 Rb6 3.112895 1_545
H24 Rb5 2.799531 1_655
H26 Rb3 2.835674 1_555
H26 Rb4 3.116282 1_555
H27 Rb4 2.516171 1_555
H28 Rb5 2.777258 1_665
H29 Rb6 2.905712 1_555
H30 Rb6 2.777258 1_545
H31 Rb5 2.905712 1_555
H32 Rb7 2.516171 1_555
H33 Rb6 2.799531 1_555
H34 Rb0 2.835674 1_556
H34 Rb7 3.116282 1_455
H35 Rb0 2.724215 1_556
H35 Rb5 3.112895 1_565
H37 Rb6 2.712007 1_555
H37 Rb7 2.963666 1_555
H38 Rb6 2.935468 1_555
H39 Rb0 2.876314 1_656
