# generated using pymatgen
data_ErBiO3
_symmetry_space_group_name_H-M   'P 1'
_cell_length_a   6.13627050
_cell_length_b   6.13627050
_cell_length_c   6.13627022
_cell_angle_alpha   58.52031600
_cell_angle_beta   58.52031600
_cell_angle_gamma   58.52031053
_symmetry_Int_Tables_number   1
_chemical_formula_structural   ErBiO3
_chemical_formula_sum   'Er2 Bi2 O6'
_cell_volume   157.85021467
_cell_formula_units_Z   2
loop_
 _symmetry_equiv_pos_site_id
 _symmetry_equiv_pos_as_xyz
  1  'x, y, z'
loop_
 _atom_site_type_symbol
 _atom_site_label
 _atom_site_symmetry_multiplicity
 _atom_site_fract_x
 _atom_site_fract_y
 _atom_site_fract_z
 _atom_site_occupancy
  Er  Er0  1  0.27732700  0.27732700  0.27732700  1
  Er  Er1  1  0.77732700  0.77732700  0.77732700  1
  Bi  Bi0  1  0.49097300  0.49097300  0.49097300  1
  Bi  Bi1  1  0.99097300  0.99097300  0.99097300  1
  O  O0  1  0.92425800  0.14163400  0.58740100  1
  O  O1  1  0.58740100  0.92425800  0.14163400  1
  O  O2  1  0.14163400  0.58740100  0.92425800  1
  O  O3  1  0.64163400  0.42425800  0.08740100  1
  O  O4  1  0.42425800  0.08740100  0.64163400  1
  O  O5  1  0.08740100  0.64163400  0.42425800  1
loop_
_geom_bond_atom_site_label_1
_geom_bond_atom_site_label_2
_geom_bond_distance
_geom_bond_site_symmetry_2
Er0 O1 2.220718 1_545
Er0 O2 2.220718 1_554
Er0 O0 2.220718 1_455
Er0 O4 2.335628 1_555
Er0 O5 2.335628 1_555
Er0 O3 2.335628 1_555
Er1 O4 2.220718 1_565
Er1 O5 2.220718 1_655
Er1 O3 2.220718 1_556
Er1 O1 2.335628 1_556
Er1 O2 2.335628 1_655
Er1 O0 2.335628 1_565
Bi0 O3 2.329684 1_555
Bi0 O5 2.329684 1_555
Bi0 O4 2.329685 1_555
Bi0 O0 2.525903 1_555
Bi0 O2 2.525903 1_555
Bi0 O1 2.525904 1_555
Bi1 O0 2.329684 1_565
Bi1 O2 2.329684 1_655
Bi1 O1 2.329685 1_556
Bi1 O3 2.525903 1_566
Bi1 O5 2.525903 1_656
Bi1 O4 2.525904 1_665
