# generated using pymatgen
data_Li5Ni2(PO4)3
_symmetry_space_group_name_H-M   'P 1'
_cell_length_a   8.73981500
_cell_length_b   8.62670300
_cell_length_c   12.28751520
_cell_angle_alpha   89.20419939
_cell_angle_beta   90.00000000
_cell_angle_gamma   90.00000000
_symmetry_Int_Tables_number   1
_chemical_formula_structural   Li5Ni2(PO4)3
_chemical_formula_sum   'Li20 Ni8 P12 O48'
_cell_volume   926.33753542
_cell_formula_units_Z   4
loop_
 _symmetry_equiv_pos_site_id
 _symmetry_equiv_pos_as_xyz
  1  'x, y, z'
loop_
 _atom_site_type_symbol
 _atom_site_label
 _atom_site_symmetry_multiplicity
 _atom_site_fract_x
 _atom_site_fract_y
 _atom_site_fract_z
 _atom_site_occupancy
  Li  Li0  1  0.51995500  0.18001200  0.10060000  1
  Li  Li1  1  0.09418700  0.17944100  0.44562500  1
  Li  Li2  1  0.73592400  0.10467800  0.49820000  1
  Li  Li3  1  0.65879600  0.15428300  0.72457800  1
  Li  Li4  1  0.76945600  0.04443700  0.93381800  1
  Li  Li5  1  0.26945600  0.95556300  0.06618200  1
  Li  Li6  1  0.15879600  0.84571700  0.27542200  1
  Li  Li7  1  0.23592400  0.89532200  0.50180000  1
  Li  Li8  1  0.59418700  0.82055900  0.55437500  1
  Li  Li9  1  0.01995500  0.81998800  0.89940000  1
  Li  Li10  1  0.98486200  0.68726300  0.59478400  1
  Li  Li11  1  0.40587100  0.67642400  0.94535600  1
  Li  Li12  1  0.76929000  0.62241700  0.00595000  1
  Li  Li13  1  0.68270100  0.59487900  0.24230600  1
  Li  Li14  1  0.73741400  0.54921800  0.44605900  1
  Li  Li15  1  0.23741400  0.45078200  0.55394100  1
  Li  Li16  1  0.18270100  0.40512100  0.75769400  1
  Li  Li17  1  0.26929000  0.37758300  0.99405000  1
  Li  Li18  1  0.90587100  0.32357600  0.05464400  1
  Li  Li19  1  0.48486200  0.31273700  0.40521600  1
  Ni  Ni0  1  0.53414000  0.00007900  0.35426200  1
  Ni  Ni1  1  0.03414000  0.99992100  0.64573800  1
  Ni  Ni2  1  0.45153700  0.00254000  0.86146900  1
  Ni  Ni3  1  0.95153700  0.99746000  0.13853100  1
  Ni  Ni4  1  0.04271700  0.50249400  0.35375100  1
  Ni  Ni5  1  0.54271700  0.49750600  0.64624900  1
  Ni  Ni6  1  0.94718400  0.50470300  0.86063600  1
  Ni  Ni7  1  0.44718400  0.49529700  0.13936400  1
  P  P0  1  0.24571200  0.20144600  0.24337300  1
  P  P1  1  0.39412300  0.14387600  0.59964700  1
  P  P2  1  0.10056500  0.14194500  0.90367900  1
  P  P3  1  0.89412300  0.85612400  0.40035300  1
  P  P4  1  0.60056500  0.85805500  0.09632100  1
  P  P5  1  0.74571200  0.79855400  0.75662700  1
  P  P6  1  0.24896200  0.70390400  0.74180900  1
  P  P7  1  0.39844300  0.64720000  0.39704300  1
  P  P8  1  0.10719200  0.64478800  0.09796600  1
  P  P9  1  0.89844300  0.35280000  0.60295700  1
  P  P10  1  0.60719200  0.35521200  0.90203400  1
  P  P11  1  0.74896200  0.29609600  0.25819100  1
  O  O0  1  0.86217400  0.20416000  0.19009800  1
  O  O1  1  0.86614000  0.17567000  0.62214400  1
  O  O2  1  0.67934500  0.20484600  0.35697100  1
  O  O3  1  0.58773100  0.18258600  0.94071800  1
  O  O4  1  0.37172600  0.15876600  0.32722600  1
  O  O5  1  0.22709700  0.10132200  0.56793600  1
  O  O6  1  0.42179700  0.12510200  0.72136900  1
  O  O7  1  0.97524700  0.11737400  0.99243600  1
  O  O8  1  0.26070600  0.09116300  0.94316100  1
  O  O9  1  0.17634500  0.04835900  0.19799500  1
  O  O10  1  0.05074300  0.04697400  0.80535100  1
  O  O11  1  0.51142700  0.04193600  0.53554700  1
  O  O12  1  0.01142700  0.95806400  0.46445300  1
  O  O13  1  0.55074300  0.95302600  0.19464900  1
  O  O14  1  0.67634500  0.95164100  0.80200500  1
  O  O15  1  0.76070600  0.90883700  0.05683900  1
  O  O16  1  0.92179700  0.87489800  0.27863100  1
  O  O17  1  0.47524700  0.88262600  0.00756400  1
  O  O18  1  0.72709700  0.89867800  0.43206400  1
  O  O19  1  0.87172600  0.84123400  0.67277400  1
  O  O20  1  0.17934500  0.79515400  0.64302900  1
  O  O21  1  0.36614000  0.82433000  0.37785600  1
  O  O22  1  0.08773100  0.81741400  0.05928200  1
  O  O23  1  0.36217400  0.79584000  0.80990200  1
  O  O24  1  0.62657300  0.70607900  0.69328800  1
  O  O25  1  0.91993900  0.68374800  0.43788000  1
  O  O26  1  0.61043000  0.67765900  0.11307300  1
  O  O27  1  0.81653100  0.70822900  0.85589700  1
  O  O28  1  0.12212900  0.64924500  0.82244400  1
  O  O29  1  0.26694700  0.59066100  0.05684400  1
  O  O30  1  0.51894000  0.62631800  0.48992500  1
  O  O31  1  0.10558400  0.63454200  0.22246500  1
  O  O32  1  0.24509700  0.57164200  0.42898000  1
  O  O33  1  0.31962800  0.55156000  0.69394800  1
  O  O34  1  0.47072400  0.56647100  0.29781400  1
  O  O35  1  0.97994200  0.54696800  0.04336800  1
  O  O36  1  0.47994200  0.45303200  0.95663200  1
  O  O37  1  0.97072400  0.43352900  0.70218600  1
  O  O38  1  0.81962800  0.44844000  0.30605200  1
  O  O39  1  0.74509700  0.42835800  0.57102000  1
  O  O40  1  0.01894000  0.37368200  0.51007500  1
  O  O41  1  0.60558400  0.36545800  0.77753500  1
  O  O42  1  0.76694700  0.40933900  0.94315600  1
  O  O43  1  0.62212900  0.35075500  0.17755600  1
  O  O44  1  0.41993900  0.31625200  0.56212000  1
  O  O45  1  0.31653100  0.29177100  0.14410300  1
  O  O46  1  0.11043000  0.32234100  0.88692700  1
  O  O47  1  0.12657300  0.29392100  0.30671200  1
loop_
_geom_bond_atom_site_label_1
_geom_bond_atom_site_label_2
_geom_bond_distance
_geom_bond_site_symmetry_2
Li0 O43 1.974801 1_555
Li0 O3 2.051737 1_554
Li0 O45 2.095340 1_555
Li0 O13 2.275816 1_545
Li1 O40 1.975942 1_555
Li1 O47 1.980431 1_555
Li1 O5 2.008497 1_555
Li1 O12 2.052214 1_545
Li2 O18 1.965846 1_545
Li2 O2 1.990231 1_555
Li2 O1 2.003892 1_555
Li2 O11 2.084787 1_555
Li3 O14 1.984547 1_545
Li3 O41 1.997846 1_555
Li3 O6 2.087007 1_555
Li3 O1 2.212621 1_555
Li4 O15 1.900031 1_546
Li4 O3 1.988172 1_555
Li4 O14 1.990568 1_545
Li4 O7 2.040135 1_555
Li5 O8 1.900031 1_564
Li5 O22 1.988172 1_555
Li5 O9 1.990568 1_565
Li5 O17 2.040135 1_555
Li6 O9 1.984547 1_565
Li6 O31 1.997846 1_555
Li6 O16 2.087007 1_455
Li6 O21 2.212621 1_555
Li7 O5 1.965846 1_565
Li7 O20 1.990231 1_555
Li7 O21 2.003892 1_555
Li7 O12 2.084787 1_555
Li8 O30 1.975942 1_555
Li8 O24 1.980431 1_555
Li8 O18 2.008497 1_555
Li8 O11 2.052214 1_565
Li9 O28 1.974801 1_555
Li9 O22 2.051737 1_556
Li9 O27 2.095340 1_455
Li9 O10 2.275816 1_565
Li10 O19 1.922416 1_555
Li10 O25 2.010357 1_555
Li10 O20 2.030313 1_655
Li10 O37 2.543202 1_555
Li11 O29 1.967255 1_556
Li11 O23 1.982339 1_555
Li11 O36 2.035858 1_555
Li11 O17 2.038130 1_556
Li12 O26 1.976053 1_555
Li12 O42 2.003494 1_554
Li12 O35 2.004051 1_555
Li12 O27 2.019921 1_554
Li12 O15 2.558260 1_555
Li13 O26 1.843644 1_555
Li13 O38 1.901069 1_555
Li13 O34 1.988187 1_555
Li13 O43 2.322708 1_555
Li14 O39 1.845194 1_555
Li14 O25 1.974465 1_555
Li14 O38 2.067178 1_555
Li14 O30 2.094937 1_555
Li15 O32 1.845194 1_555
Li15 O44 1.974465 1_555
Li15 O33 2.067178 1_555
Li15 O40 2.094937 1_555
Li16 O46 1.843644 1_555
Li16 O33 1.901069 1_555
Li16 O37 1.988187 1_455
Li16 O28 2.322708 1_555
Li17 O46 1.976053 1_555
Li17 O29 2.003494 1_556
Li17 O36 2.004051 1_555
Li17 O45 2.019921 1_556
Li17 O8 2.558260 1_555
Li18 O42 1.967255 1_554
Li18 O0 1.982339 1_555
Li18 O35 2.035858 1_555
Li18 O7 2.038130 1_554
Li19 O4 1.922416 1_555
Li19 O44 2.010357 1_555
Li19 O2 2.030313 1_555
Li19 O34 2.543202 1_555
Ni0 O4 1.996655 1_555
Ni0 O13 2.013560 1_545
Ni0 O18 2.121289 1_545
Ni0 O21 2.127528 1_545
Ni0 O2 2.175698 1_555
Ni0 O11 2.270259 1_555
Ni1 O19 1.996655 1_455
Ni1 O10 2.013560 1_565
Ni1 O5 2.121289 1_565
Ni1 O1 2.127528 1_465
Ni1 O20 2.175698 1_555
Ni1 O12 2.270259 1_555
Ni2 O6 2.024449 1_555
Ni2 O23 2.054859 1_545
Ni2 O17 2.069786 1_546
Ni2 O8 2.096440 1_555
Ni2 O14 2.143816 1_545
Ni2 O3 2.195342 1_555
Ni3 O16 2.024449 1_555
Ni3 O0 2.054859 1_565
Ni3 O7 2.069786 1_564
Ni3 O15 2.096440 1_555
Ni3 O9 2.143816 1_665
Ni3 O22 2.195342 1_655
Ni4 O47 2.034098 1_555
Ni4 O31 2.037358 1_555
Ni4 O32 2.086660 1_555
Ni4 O38 2.090479 1_455
Ni4 O25 2.170226 1_455
Ni4 O40 2.215471 1_555
Ni5 O24 2.034098 1_555
Ni5 O41 2.037358 1_555
Ni5 O39 2.086660 1_555
Ni5 O33 2.090479 1_555
Ni5 O44 2.170226 1_555
Ni5 O30 2.215471 1_555
Ni6 O28 2.024003 1_655
Ni6 O42 2.040374 1_555
Ni6 O37 2.059895 1_555
Ni6 O27 2.094549 1_555
Ni6 O46 2.144933 1_655
Ni6 O35 2.297633 1_556
Ni7 O43 2.024003 1_555
Ni7 O29 2.040374 1_555
Ni7 O34 2.059895 1_555
Ni7 O45 2.094549 1_555
Ni7 O26 2.144933 1_555
Ni7 O36 2.297633 1_554
O0 P11 1.525293 1_555
O1 P9 1.568506 1_555
O2 P11 1.560941 1_555
O3 P10 1.566174 1_555
O4 P0 1.549059 1_555
O5 P1 1.556120 1_555
O6 P1 1.521513 1_555
O7 P2 1.558047 1_655
O8 P2 1.542808 1_555
O9 P0 1.563003 1_555
O10 P2 1.532349 1_555
O11 P1 1.569720 1_555
O12 P3 1.569720 1_455
O13 P4 1.532349 1_555
O14 P5 1.563003 1_555
O15 P4 1.542808 1_555
O16 P3 1.521513 1_555
O17 P4 1.558047 1_555
O18 P3 1.556120 1_555
O19 P5 1.549059 1_555
O20 P6 1.560941 1_555
O21 P7 1.568506 1_555
O22 P8 1.566174 1_555
O23 P6 1.525293 1_555
O24 P5 1.530877 1_555
O25 P3 1.567088 1_555
O26 P4 1.569310 1_555
O27 P5 1.565798 1_555
O28 P6 1.555576 1_555
O29 P8 1.558639 1_555
O30 P7 1.561520 1_555
O31 P8 1.531173 1_555
O32 P7 1.538810 1_555
O33 P6 1.573516 1_555
O34 P7 1.547355 1_555
O35 P8 1.553951 1_655
O36 P10 1.553951 1_555
O37 P9 1.547355 1_555
O38 P11 1.573516 1_555
O39 P9 1.538810 1_555
O40 P9 1.561520 1_455
O41 P10 1.531173 1_555
O42 P10 1.558639 1_555
O43 P11 1.555576 1_555
O44 P1 1.567088 1_555
O45 P0 1.565798 1_555
O46 P2 1.569310 1_555
O47 P0 1.530877 1_555
