# generated using pymatgen
data_LiFePO4
_symmetry_space_group_name_H-M   'P 1'
_cell_length_a   5.11029300
_cell_length_b   10.18542300
_cell_length_c   13.73501600
_cell_angle_alpha   90.00000000
_cell_angle_beta   90.00000000
_cell_angle_gamma   90.00000000
_symmetry_Int_Tables_number   1
_chemical_formula_structural   LiFePO4
_chemical_formula_sum   'Li8 Fe8 P8 O32'
_cell_volume   714.91439343
_cell_formula_units_Z   8
loop_
 _symmetry_equiv_pos_site_id
 _symmetry_equiv_pos_as_xyz
  1  'x, y, z'
loop_
 _atom_site_type_symbol
 _atom_site_label
 _atom_site_symmetry_multiplicity
 _atom_site_fract_x
 _atom_site_fract_y
 _atom_site_fract_z
 _atom_site_occupancy
  Li  Li0  1  0.92866200  0.03064700  0.49770400  1
  Li  Li1  1  0.54908800  0.22044700  0.24981600  1
  Li  Li2  1  0.54908800  0.27955300  0.74981600  1
  Li  Li3  1  0.92866200  0.46935300  0.99770400  1
  Li  Li4  1  0.07133800  0.53064700  0.49770400  1
  Li  Li5  1  0.45091200  0.72044700  0.24981600  1
  Li  Li6  1  0.45091200  0.77955300  0.74981600  1
  Li  Li7  1  0.07133800  0.96935300  0.99770400  1
  Fe  Fe0  1  0.05935300  0.03404800  0.24738500  1
  Fe  Fe1  1  0.55592000  0.21503100  0.99927500  1
  Fe  Fe2  1  0.55592000  0.28496900  0.49927500  1
  Fe  Fe3  1  0.05935300  0.46595200  0.74738500  1
  Fe  Fe4  1  0.94064700  0.53404800  0.24738500  1
  Fe  Fe5  1  0.44408000  0.71503100  0.99927500  1
  Fe  Fe6  1  0.44408000  0.78496900  0.49927500  1
  Fe  Fe7  1  0.94064700  0.96595200  0.74738500  1
  P  P0  1  0.43409200  0.03205500  0.62367800  1
  P  P1  1  0.04952400  0.21615000  0.87232600  1
  P  P2  1  0.04952400  0.28385000  0.37232600  1
  P  P3  1  0.43409200  0.46794500  0.12367800  1
  P  P4  1  0.56590800  0.53205500  0.62367800  1
  P  P5  1  0.95047600  0.71615000  0.87232600  1
  P  P6  1  0.95047600  0.78385000  0.37232600  1
  P  P7  1  0.56590800  0.96794500  0.12367800  1
  O  O0  1  0.86468600  0.00040900  0.12042400  1
  O  O1  1  0.56337400  0.97238200  0.53099100  1
  O  O2  1  0.45087500  0.03266500  0.21702400  1
  O  O3  1  0.98914700  0.06641900  0.87360400  1
  O  O4  1  0.48737000  0.18203400  0.62496200  1
  O  O5  1  0.92468100  0.22180500  0.46511500  1
  O  O6  1  0.93142200  0.27837300  0.77906700  1
  O  O7  1  0.35021100  0.24196900  0.87302700  1
  O  O8  1  0.35021100  0.25803100  0.37302700  1
  O  O9  1  0.93142200  0.22162700  0.27906700  1
  O  O10  1  0.92468100  0.27819500  0.96511500  1
  O  O11  1  0.48737000  0.31796600  0.12496200  1
  O  O12  1  0.98914700  0.43358100  0.37360400  1
  O  O13  1  0.45087500  0.46733500  0.71702400  1
  O  O14  1  0.56337400  0.52761800  0.03099100  1
  O  O15  1  0.86468600  0.49959100  0.62042400  1
  O  O16  1  0.13531400  0.50040900  0.12042400  1
  O  O17  1  0.43662600  0.47238200  0.53099100  1
  O  O18  1  0.54912500  0.53266500  0.21702400  1
  O  O19  1  0.01085300  0.56641900  0.87360400  1
  O  O20  1  0.51263000  0.68203400  0.62496200  1
  O  O21  1  0.07531900  0.72180500  0.46511500  1
  O  O22  1  0.06857800  0.77837300  0.77906700  1
  O  O23  1  0.64978900  0.74196900  0.87302700  1
  O  O24  1  0.64978900  0.75803100  0.37302700  1
  O  O25  1  0.06857800  0.72162700  0.27906700  1
  O  O26  1  0.07531900  0.77819500  0.96511500  1
  O  O27  1  0.51263000  0.81796600  0.12496200  1
  O  O28  1  0.01085300  0.93358100  0.37360400  1
  O  O29  1  0.54912500  0.96733500  0.71702400  1
  O  O30  1  0.43662600  0.02761800  0.03099100  1
  O  O31  1  0.13531400  0.99959100  0.62042400  1
loop_
_geom_bond_atom_site_label_1
_geom_bond_atom_site_label_2
_geom_bond_distance
_geom_bond_site_symmetry_2
Li0 O5 1.997918 1_555
Li0 O1 2.011440 1_545
Li0 O31 2.014056 1_645
Li0 O28 2.014754 1_645
Li1 O9 1.994754 1_555
Li1 O11 2.006701 1_555
Li1 O8 2.010807 1_555
Li1 O2 2.028040 1_555
Li2 O6 1.994754 1_555
Li2 O4 2.006701 1_555
Li2 O7 2.010807 1_555
Li2 O13 2.028040 1_555
Li3 O10 1.997918 1_555
Li3 O14 2.011440 1_556
Li3 O16 2.014056 1_656
Li3 O19 2.014754 1_655
Li4 O21 1.997918 1_555
Li4 O17 2.011440 1_555
Li4 O15 2.014056 1_455
Li4 O12 2.014754 1_455
Li5 O25 1.994754 1_555
Li5 O27 2.006701 1_555
Li5 O24 2.010807 1_555
Li5 O18 2.028040 1_555
Li6 O22 1.994754 1_555
Li6 O20 2.006701 1_555
Li6 O23 2.010807 1_555
Li6 O29 2.028040 1_555
Li7 O26 1.997918 1_555
Li7 O30 2.011440 1_566
Li7 O0 2.014056 1_466
Li7 O3 2.014754 1_465
Fe0 O28 2.028302 1_545
Fe0 O0 2.036642 1_455
Fe0 O2 2.043836 1_555
Fe0 O9 2.065684 1_455
Fe1 O10 2.045799 1_555
Fe1 O7 2.046263 1_555
Fe1 O11 2.049901 1_556
Fe1 O30 2.050667 1_556
Fe2 O5 2.045799 1_555
Fe2 O8 2.046263 1_555
Fe2 O4 2.049901 1_555
Fe2 O17 2.050667 1_555
Fe3 O19 2.028302 1_555
Fe3 O15 2.036642 1_455
Fe3 O13 2.043836 1_555
Fe3 O6 2.065684 1_455
Fe4 O12 2.028302 1_555
Fe4 O16 2.036642 1_655
Fe4 O18 2.043836 1_555
Fe4 O25 2.065684 1_655
Fe5 O26 2.045799 1_555
Fe5 O23 2.046263 1_555
Fe5 O27 2.049901 1_556
Fe5 O14 2.050667 1_556
Fe6 O21 2.045799 1_555
Fe6 O24 2.046263 1_555
Fe6 O20 2.049901 1_555
Fe6 O1 2.050667 1_555
Fe7 O3 2.028302 1_565
Fe7 O31 2.036642 1_655
Fe7 O29 2.043836 1_555
Fe7 O22 2.065684 1_655
O0 P7 1.562877 1_545
O1 P0 1.557746 1_565
O2 P7 1.556894 1_545
O3 P1 1.556071 1_655
O4 P0 1.551773 1_555
O5 P2 1.559049 1_655
O6 P1 1.551340 1_655
O7 P1 1.558969 1_555
O8 P2 1.558969 1_555
O9 P2 1.551340 1_655
O10 P1 1.559049 1_655
O11 P3 1.551773 1_555
O12 P2 1.556071 1_655
O13 P4 1.556894 1_555
O14 P3 1.557746 1_555
O15 P4 1.562877 1_555
O16 P3 1.562877 1_555
O17 P4 1.557746 1_555
O18 P3 1.556894 1_555
O19 P5 1.556071 1_455
O20 P4 1.551773 1_555
O21 P6 1.559049 1_455
O22 P5 1.551340 1_455
O23 P5 1.558969 1_555
O24 P6 1.558969 1_555
O25 P6 1.551340 1_455
O26 P5 1.559049 1_455
O27 P7 1.551773 1_555
O28 P6 1.556071 1_455
O29 P0 1.556894 1_565
O30 P7 1.557746 1_545
O31 P0 1.562877 1_565
