# generated using pymatgen
data_V3(O2F)2
_symmetry_space_group_name_H-M   'P 1'
_cell_length_a   5.59326400
_cell_length_b   5.59543135
_cell_length_c   7.37805855
_cell_angle_alpha   71.54890564
_cell_angle_beta   71.65473539
_cell_angle_gamma   70.86345912
_symmetry_Int_Tables_number   1
_chemical_formula_structural   V3(O2F)2
_chemical_formula_sum   'V6 O8 F4'
_cell_volume   201.11809966
_cell_formula_units_Z   2
loop_
 _symmetry_equiv_pos_site_id
 _symmetry_equiv_pos_as_xyz
  1  'x, y, z'
loop_
 _atom_site_type_symbol
 _atom_site_label
 _atom_site_symmetry_multiplicity
 _atom_site_fract_x
 _atom_site_fract_y
 _atom_site_fract_z
 _atom_site_occupancy
  V  V0  1  0.67848000  0.70086600  0.84101400  1
  V  V1  1  0.32809200  0.34281200  0.67235400  1
  V  V2  1  0.64656800  0.64969000  0.32084600  1
  V  V3  1  0.31957300  0.33028700  0.16882500  1
  V  V4  1  0.99946900  0.00173000  0.49561400  1
  V  V5  1  0.03031800  0.98370700  0.00027300  1
  O  O0  1  0.02290100  0.64668700  0.66978000  1
  O  O1  1  0.36747500  0.95406500  0.33427500  1
  O  O2  1  0.22987300  0.22927800  0.96524800  1
  O  O3  1  0.76948300  0.76863000  0.03586200  1
  O  O4  1  0.42764500  0.43128500  0.37305000  1
  O  O5  1  0.32158200  0.68737800  0.99153700  1
  O  O6  1  0.63843300  0.03359900  0.67189100  1
  O  O7  1  0.94452900  0.37211200  0.33505100  1
  F  F0  1  0.57149900  0.57473200  0.63278800  1
  F  F1  1  0.89384900  0.89016500  0.29923400  1
  F  F2  1  0.10358100  0.10287600  0.69901000  1
  F  F3  1  0.70664800  0.30010100  0.99335200  1
loop_
_geom_bond_atom_site_label_1
_geom_bond_atom_site_label_2
_geom_bond_distance
_geom_bond_site_symmetry_2
O0 V0 1.930457 1_455
O0 V1 1.975428 1_555
O0 V4 1.983550 1_465
O1 V2 1.900946 1_555
O1 V4 2.005891 1_465
O1 V3 2.050101 1_565
O2 V5 1.949335 1_546
O2 V1 1.996942 1_555
O2 V3 2.006192 1_556
O3 V0 1.844382 1_554
O3 V2 1.959816 1_555
O3 V5 2.087018 1_655
O4 V2 1.878157 1_555
O4 V1 2.036259 1_555
O4 V3 2.071588 1_555
O5 V5 1.907342 1_556
O5 V0 1.968289 1_555
O5 V3 2.013584 1_556
O6 V0 1.872276 1_545
O6 V1 2.009363 1_555
O6 V4 2.014603 1_555
O7 V2 1.873657 1_555
O7 V4 2.012559 1_555
O7 V3 2.049305 1_655
F0 V1 2.071500 1_555
F0 V2 2.131984 1_555
F0 V0 2.181353 1_555
F1 V4 2.047228 1_565
F1 V5 2.047741 1_655
F1 V2 2.166678 1_555
F2 V1 2.049576 1_555
F2 V4 2.053093 1_455
F2 V5 2.054440 1_546
F3 V5 2.076984 1_646
F3 V3 2.127483 1_556
F3 V0 2.145024 1_555
