# generated using pymatgen
data_Li2V(CO3)2
_symmetry_space_group_name_H-M   'P 1'
_cell_length_a   5.22994329
_cell_length_b   7.54656978
_cell_length_c   15.32814402
_cell_angle_alpha   89.99610900
_cell_angle_beta   90.00386818
_cell_angle_gamma   107.71832124
_symmetry_Int_Tables_number   1
_chemical_formula_structural   Li2V(CO3)2
_chemical_formula_sum   'Li8 V4 C8 O24'
_cell_volume   576.27582848
_cell_formula_units_Z   4
loop_
 _symmetry_equiv_pos_site_id
 _symmetry_equiv_pos_as_xyz
  1  'x, y, z'
loop_
 _atom_site_type_symbol
 _atom_site_label
 _atom_site_symmetry_multiplicity
 _atom_site_fract_x
 _atom_site_fract_y
 _atom_site_fract_z
 _atom_site_occupancy
  Li  Li0  1  0.10556300  0.68836500  0.30750200  1
  Li  Li1  1  0.10548100  0.68838800  0.80766200  1
  Li  Li2  1  0.39431400  0.81150100  0.05748300  1
  Li  Li3  1  0.39441400  0.81185900  0.55756700  1
  Li  Li4  1  0.60555900  0.18834300  0.44231100  1
  Li  Li5  1  0.60548800  0.18842500  0.94251900  1
  Li  Li6  1  0.89437400  0.31143100  0.19252500  1
  Li  Li7  1  0.89438600  0.31190100  0.69240000  1
  V  V0  1  0.49962000  0.49985200  0.75011300  1
  V  V1  1  0.00012500  0.00003000  0.49999700  1
  V  V2  1  0.50011800  0.50010400  0.24987500  1
  V  V3  1  0.99995300  0.99999500  0.99999000  1
  C  C0  1  0.67103800  0.82314100  0.37927900  1
  C  C1  1  0.67118600  0.82313000  0.87944100  1
  C  C2  1  0.82916100  0.67666900  0.12914600  1
  C  C3  1  0.82881600  0.67707700  0.62946600  1
  C  C4  1  0.17127600  0.32309800  0.37053800  1
  C  C5  1  0.17084600  0.32319800  0.87078800  1
  C  C6  1  0.32908500  0.17662400  0.12080900  1
  C  C7  1  0.32886600  0.17713200  0.62053900  1
  O  O0  1  0.92254900  0.83163500  0.37725600  1
  O  O1  1  0.92285700  0.83210300  0.87739600  1
  O  O2  1  0.57768700  0.66821400  0.12711800  1
  O  O3  1  0.57724800  0.66841400  0.62740800  1
  O  O4  1  0.42294500  0.33205200  0.37257400  1
  O  O5  1  0.42232300  0.33164000  0.87281100  1
  O  O6  1  0.07760800  0.16822500  0.12282700  1
  O  O7  1  0.07730900  0.16841300  0.62258900  1
  O  O8  1  0.59447300  0.90485500  0.44581400  1
  O  O9  1  0.59449500  0.90495500  0.94587900  1
  O  O10  1  0.09456200  0.40494800  0.30410300  1
  O  O11  1  0.09432400  0.40484400  0.80421000  1
  O  O12  1  0.90563300  0.59517700  0.19577800  1
  O  O13  1  0.90537500  0.59514000  0.69590000  1
  O  O14  1  0.40555500  0.09512000  0.05418700  1
  O  O15  1  0.40550800  0.09517800  0.55411700  1
  O  O16  1  0.50049400  0.74256300  0.32056100  1
  O  O17  1  0.50036400  0.74210400  0.82086800  1
  O  O18  1  0.99952200  0.75687500  0.07031200  1
  O  O19  1  0.99961600  0.75789100  0.57085200  1
  O  O20  1  0.00045900  0.24210000  0.42912500  1
  O  O21  1  0.00042100  0.24261800  0.92952100  1
  O  O22  1  0.49949400  0.25683100  0.17964900  1
  O  O23  1  0.49963000  0.25792500  0.67915900  1
loop_
_geom_bond_atom_site_label_1
_geom_bond_atom_site_label_2
_geom_bond_distance
_geom_bond_site_symmetry_2
Li0 O0 1.964309 1_455
Li0 O16 1.989789 1_555
Li0 O12 2.018157 1_455
Li0 O10 2.122667 1_555
Li1 O1 1.965156 1_455
Li1 O17 1.990176 1_555
Li1 O13 2.019117 1_455
Li1 O11 2.123417 1_555
Li2 O2 1.964487 1_555
Li2 O18 1.988396 1_455
Li2 O9 2.017561 1_554
Li2 O14 2.123795 1_565
Li3 O3 1.965192 1_555
Li3 O19 1.989677 1_455
Li3 O8 2.018576 1_555
Li3 O15 2.121804 1_565
Li4 O4 1.964965 1_555
Li4 O20 1.990220 1_655
Li4 O15 2.019490 1_555
Li4 O8 2.123111 1_545
Li5 O5 1.964003 1_555
Li5 O21 1.989732 1_655
Li5 O14 2.017643 1_556
Li5 O9 2.123057 1_545
Li6 O6 1.964259 1_655
Li6 O22 1.988916 1_555
Li6 O10 2.017291 1_655
Li6 O12 2.124718 1_555
Li7 O7 1.965623 1_655
Li7 O23 1.989364 1_555
Li7 O11 2.018941 1_655
Li7 O13 2.121381 1_555
C0 O16 1.282663 1_555
C0 O0 1.297690 1_555
C0 O8 1.315738 1_555
C1 O17 1.282798 1_555
C1 O1 1.297602 1_555
C1 O9 1.315351 1_555
C2 O18 1.282677 1_555
C2 O2 1.297571 1_555
C2 O12 1.315628 1_555
C3 O19 1.282778 1_555
C3 O3 1.297667 1_555
C3 O13 1.315363 1_555
C4 O20 1.282904 1_555
C4 O4 1.297621 1_555
C4 O10 1.315369 1_555
C5 O21 1.282512 1_555
C5 O5 1.297610 1_555
C5 O11 1.315754 1_555
C6 O22 1.282855 1_555
C6 O6 1.297697 1_555
C6 O14 1.315662 1_555
C7 O23 1.282670 1_555
C7 O7 1.297502 1_555
C7 O15 1.315594 1_555
O0 V1 2.237316 1_665
O1 V3 2.233454 1_555
O2 V2 2.236321 1_555
O3 V0 2.237402 1_555
O4 V2 2.235331 1_555
O5 V0 2.235942 1_555
O6 V3 2.237919 1_444
O7 V1 2.235333 1_555
O8 V1 2.186074 1_665
O9 V3 2.184738 1_555
O10 V2 2.185966 1_555
O11 V0 2.183983 1_555
O12 V2 2.184996 1_555
O13 V0 2.186818 1_555
O14 V3 2.185916 1_444
O15 V1 2.184476 1_555
O16 V2 2.126017 1_555
O17 V0 2.124711 1_555
O18 V3 2.127276 1_554
O19 V1 2.124954 1_665
O20 V1 2.124879 1_555
O21 V3 2.125138 1_445
O22 V2 2.127389 1_555
O23 V0 2.125191 1_555
