# generated using pymatgen
data_K2Mn7H18(C9O20)2
_symmetry_space_group_name_H-M   'P 1'
_cell_length_a   7.13298251
_cell_length_b   12.77707325
_cell_length_c   15.99115653
_cell_angle_alpha   97.45092052
_cell_angle_beta   109.93588389
_cell_angle_gamma   119.84107985
_symmetry_Int_Tables_number   1
_chemical_formula_structural   K2Mn7H18(C9O20)2
_chemical_formula_sum   'K2 Mn7 H18 C18 O40'
_cell_volume   1105.44461960
_cell_formula_units_Z   1
loop_
 _symmetry_equiv_pos_site_id
 _symmetry_equiv_pos_as_xyz
  1  'x, y, z'
loop_
 _atom_site_type_symbol
 _atom_site_label
 _atom_site_symmetry_multiplicity
 _atom_site_fract_x
 _atom_site_fract_y
 _atom_site_fract_z
 _atom_site_occupancy
  K  K0  1  0.37349300  0.46187800  0.83325600  1
  K  K1  1  0.62650700  0.53812200  0.16674400  1
  Mn  Mn0  1  0.00000000  0.50000000  0.00000000  1
  Mn  Mn1  1  0.54103300  0.79904900  0.57273300  1
  Mn  Mn2  1  0.45896700  0.20095100  0.42726700  1
  Mn  Mn3  1  0.81407400  0.75125000  0.76536200  1
  Mn  Mn4  1  0.18592600  0.24875000  0.23463800  1
  Mn  Mn5  1  0.92845200  0.04582800  0.78929100  1
  Mn  Mn6  1  0.07154800  0.95417200  0.21070900  1
  H  H0  1  0.17293500  0.68114500  0.81485600  1
  H  H1  1  0.82706500  0.31885500  0.18514400  1
  H  H2  1  0.89883400  0.21141500  0.94092000  1
  H  H3  1  0.10116600  0.78858500  0.05908000  1
  H  H4  1  0.64009000  0.86131000  0.95037000  1
  H  H5  1  0.35991000  0.13869000  0.04963000  1
  H  H6  1  0.52873200  0.06796800  0.91856100  1
  H  H7  1  0.47126800  0.93203200  0.08143900  1
  H  H8  1  0.01865100  0.12856700  0.56016500  1
  H  H9  1  0.98134900  0.87143300  0.43983500  1
  H  H10  1  0.29323600  0.99321800  0.66386900  1
  H  H11  1  0.70676400  0.00678200  0.33613100  1
  H  H12  1  0.07351800  0.48189900  0.60515000  1
  H  H13  1  0.92648200  0.51810100  0.39485000  1
  H  H14  1  0.90319600  0.64265100  0.54925500  1
  H  H15  1  0.09680400  0.35734900  0.45074500  1
  H  H16  1  0.52541000  0.74954900  0.37516700  1
  H  H17  1  0.47459000  0.25045100  0.62483300  1
  C  C0  1  0.06701000  0.64175700  0.85349500  1
  C  C1  1  0.93299000  0.35824300  0.14650500  1
  C  C2  1  0.05053100  0.27879300  0.92847100  1
  C  C3  1  0.94946900  0.72120700  0.07152900  1
  C  C4  1  0.72354300  0.87430700  0.90227600  1
  C  C5  1  0.27645700  0.12569300  0.09772400  1
  C  C6  1  0.32803400  0.01632800  0.87738200  1
  C  C7  1  0.67196600  0.98367200  0.12261800  1
  C  C8  1  0.93621000  0.06794400  0.59813200  1
  C  C9  1  0.06379000  0.93205600  0.40186800  1
  C  C10  1  0.42921600  0.97303200  0.66728900  1
  C  C11  1  0.57078400  0.02696800  0.33271100  1
  C  C12  1  0.25863900  0.56629400  0.62330400  1
  C  C13  1  0.74136100  0.43370600  0.37669600  1
  C  C14  1  0.82981200  0.68047100  0.58522000  1
  C  C15  1  0.17018800  0.31952900  0.41478000  1
  C  C16  1  0.33495200  0.70895800  0.36206000  1
  C  C17  1  0.66504800  0.29104200  0.63794000  1
  O  O0  1  0.14615800  0.60295300  0.91581000  1
  O  O1  1  0.85384200  0.39704700  0.08419000  1
  O  O2  1  0.16602100  0.39972700  0.96868600  1
  O  O3  1  0.83397900  0.60027300  0.03131400  1
  O  O4  1  0.73121100  0.38957500  0.90063900  1
  O  O5  1  0.26878900  0.61042500  0.09936100  1
  O  O6  1  0.87509200  0.64020100  0.83192300  1
  O  O7  1  0.12490800  0.35979900  0.16807700  1
  O  O8  1  0.10858600  0.23167000  0.87437300  1
  O  O9  1  0.89141400  0.76833000  0.12562700  1
  O  O10  1  0.76371500  0.86601700  0.70821300  1
  O  O11  1  0.23628500  0.13398300  0.29178700  1
  O  O12  1  0.69006500  0.77130000  0.85745200  1
  O  O13  1  0.30993500  0.22870000  0.14254800  1
  O  O14  1  0.19494300  0.89955700  0.86775200  1
  O  O15  1  0.80505700  0.10044300  0.13224800  1
  O  O16  1  0.44007600  0.57599500  0.68425000  1
  O  O17  1  0.55992400  0.42400500  0.31575000  1
  O  O18  1  0.91942500  0.70424400  0.67481000  1
  O  O19  1  0.08057500  0.29575600  0.32519000  1
  O  O20  1  0.83668400  0.98431700  0.89757600  1
  O  O21  1  0.16331600  0.01568300  0.10242400  1
  O  O22  1  0.26083700  0.08472700  0.84567600  1
  O  O23  1  0.73916300  0.91527300  0.15432400  1
  O  O24  1  0.00770100  0.12428600  0.68435200  1
  O  O25  1  0.99229900  0.87571400  0.31564800  1
  O  O26  1  0.62396700  0.03856300  0.74694100  1
  O  O27  1  0.37603300  0.96143700  0.25305900  1
  O  O28  1  0.77859900  0.94736200  0.54652800  1
  O  O29  1  0.22140100  0.05263800  0.45347200  1
  O  O30  1  0.37202200  0.89038700  0.59377200  1
  O  O31  1  0.62797800  0.10961300  0.40622800  1
  O  O32  1  0.26036300  0.64175400  0.57837100  1
  O  O33  1  0.73963700  0.35824600  0.42162900  1
  O  O34  1  0.67267900  0.69545100  0.53410100  1
  O  O35  1  0.32732100  0.30454900  0.46589900  1
  O  O36  1  0.30391700  0.72508000  0.43773600  1
  O  O37  1  0.69608300  0.27492000  0.56226400  1
  O  O38  1  0.16125500  0.65130200  0.28049300  1
  O  O39  1  0.83874500  0.34869800  0.71950700  1
loop_
_geom_bond_atom_site_label_1
_geom_bond_atom_site_label_2
_geom_bond_distance
_geom_bond_site_symmetry_2
K0 O8 2.910695 1_555
K0 O2 2.995489 1_555
K0 O16 3.002137 1_555
K0 O39 3.007671 1_455
K0 O4 3.042086 1_555
K0 O3 3.101569 1_556
K0 O6 3.153549 1_555
K0 O12 3.316912 1_555
K0 O0 3.372375 1_555
K1 O9 2.910695 1_555
K1 O3 2.995489 1_555
K1 O17 3.002137 1_555
K1 O38 3.007671 1_655
K1 O5 3.042086 1_555
K1 O2 3.101569 1_554
K1 O7 3.153549 1_555
K1 O13 3.316912 1_555
K1 O1 3.372375 1_555
Mn0 O5 1.685307 1_555
Mn0 O4 1.685307 1_454
Mn0 O0 2.163661 1_554
Mn0 O1 2.163661 1_455
Mn0 O2 2.245556 1_554
Mn0 O3 2.245556 1_455
Mn1 O10 1.941318 1_555
Mn1 O36 1.950450 1_555
Mn1 O28 2.032882 1_555
Mn1 O32 2.054557 1_555
Mn1 O34 2.106194 1_555
Mn1 O30 2.122127 1_555
Mn2 O11 1.941318 1_555
Mn2 O37 1.950450 1_555
Mn2 O29 2.032882 1_555
Mn2 O33 2.054557 1_555
Mn2 O35 2.106194 1_555
Mn2 O31 2.122127 1_555
Mn3 O10 1.939691 1_555
Mn3 O18 1.996965 1_555
Mn3 O6 2.006473 1_555
Mn3 O12 2.008150 1_555
Mn3 O14 2.165853 1_655
Mn3 O16 2.180700 1_555
Mn4 O11 1.939691 1_555
Mn4 O19 1.996965 1_555
Mn4 O7 2.006473 1_555
Mn4 O13 2.008150 1_555
Mn4 O15 2.165853 1_455
Mn4 O17 2.180700 1_555
Mn5 O10 1.960082 1_545
Mn5 O22 1.983539 1_655
Mn5 O26 1.991072 1_555
Mn5 O8 2.018425 1_655
Mn5 O20 2.158366 1_545
Mn5 O24 2.158636 1_655
Mn6 O11 1.960082 1_565
Mn6 O23 1.983539 1_455
Mn6 O27 1.991072 1_555
Mn6 O9 2.018425 1_455
Mn6 O21 2.158366 1_565
Mn6 O25 2.158636 1_455
C0 H0 1.107482 1_555
C0 O0 1.257218 1_555
C0 O6 1.281606 1_455
C1 H1 1.107482 1_555
C1 O1 1.257218 1_555
C1 O7 1.281606 1_655
C2 H2 1.102676 1_455
C2 O2 1.262541 1_555
C2 O8 1.280515 1_555
C3 H3 1.102676 1_655
C3 O3 1.262541 1_555
C3 O9 1.280515 1_555
C4 H4 1.104693 1_555
C4 O20 1.254003 1_555
C4 O12 1.276256 1_555
C5 H5 1.104693 1_555
C5 O21 1.254003 1_555
C5 O13 1.276256 1_555
C6 H6 1.105808 1_555
C6 O14 1.257823 1_545
C6 O22 1.271476 1_555
C7 H7 1.105808 1_555
C7 O15 1.257823 1_565
C7 O23 1.271476 1_555
C8 H8 1.107489 1_655
C8 O24 1.255799 1_655
C8 O28 1.277665 1_545
C9 H9 1.107489 1_455
C9 O25 1.255799 1_455
C9 O29 1.277665 1_565
C10 H10 1.107587 1_555
C10 O30 1.259295 1_555
C10 O26 1.269818 1_565
C11 H11 1.107587 1_555
C11 O31 1.259295 1_555
C11 O27 1.269818 1_545
C12 H12 1.109523 1_555
C12 O16 1.260561 1_555
C12 O32 1.272768 1_555
C13 H13 1.109523 1_555
C13 O17 1.260561 1_555
C13 O33 1.272768 1_555
C14 H14 1.105991 1_555
C14 O34 1.261104 1_555
C14 O18 1.273873 1_555
C15 H15 1.105991 1_555
C15 O35 1.261104 1_555
C15 O19 1.273873 1_555
C16 H16 1.111288 1_555
C16 O38 1.232676 1_555
C16 O36 1.311224 1_555
C17 H17 1.111288 1_555
C17 O39 1.232676 1_555
C17 O37 1.311224 1_555
