# generated using pymatgen
data_Na3VPCO7
_symmetry_space_group_name_H-M   'P 1'
_cell_length_a   8.97978138
_cell_length_b   5.29329703
_cell_length_c   6.83034000
_cell_angle_alpha   89.99979180
_cell_angle_beta   90.00027151
_cell_angle_gamma   87.98622897
_symmetry_Int_Tables_number   1
_chemical_formula_structural   Na3VPCO7
_chemical_formula_sum   'Na6 V2 P2 C2 O14'
_cell_volume   324.46365195
_cell_formula_units_Z   2
loop_
 _symmetry_equiv_pos_site_id
 _symmetry_equiv_pos_as_xyz
  1  'x, y, z'
loop_
 _atom_site_type_symbol
 _atom_site_label
 _atom_site_symmetry_multiplicity
 _atom_site_fract_x
 _atom_site_fract_y
 _atom_site_fract_z
 _atom_site_occupancy
  Na  Na0  1  0.08400800  0.77642800  0.24999200  1
  Na  Na1  1  0.27443400  0.25843400  0.48921600  1
  Na  Na2  1  0.27443500  0.25842000  0.01077900  1
  Na  Na3  1  0.72546600  0.74157200  0.98921700  1
  Na  Na4  1  0.72546900  0.74157800  0.51076800  1
  Na  Na5  1  0.91591200  0.22352400  0.75001000  1
  V  V0  1  0.34369300  0.77883400  0.74999400  1
  V  V1  1  0.65660800  0.22105400  0.25005500  1
  P  P0  1  0.41349800  0.71774600  0.25000200  1
  P  P1  1  0.58645200  0.28226500  0.75001200  1
  C  C0  1  0.05721000  0.70653700  0.74999500  1
  C  C1  1  0.94281500  0.29348100  0.24999500  1
  O  O0  1  0.11227500  0.93182200  0.75000000  1
  O  O1  1  0.08465800  0.32347300  0.24999800  1
  O  O2  1  0.15212000  0.51227700  0.74997000  1
  O  O3  1  0.31728000  0.79477100  0.06793700  1
  O  O4  1  0.31728200  0.79477100  0.43206300  1
  O  O5  1  0.43487400  0.15111000  0.74999800  1
  O  O6  1  0.44269600  0.42495400  0.25000100  1
  O  O7  1  0.55742500  0.57512800  0.74999700  1
  O  O8  1  0.56503500  0.84895900  0.25000400  1
  O  O9  1  0.68268100  0.20522800  0.56795800  1
  O  O10  1  0.68267900  0.20522900  0.93206200  1
  O  O11  1  0.84789100  0.48769100  0.24997300  1
  O  O12  1  0.91535500  0.67653700  0.74999800  1
  O  O13  1  0.88775100  0.06817900  0.25000400  1
loop_
_geom_bond_atom_site_label_1
_geom_bond_atom_site_label_2
_geom_bond_distance
_geom_bond_site_symmetry_2
Na0 O13 2.302069 1_465
Na0 O1 2.397427 1_555
Na0 O3 2.440887 1_555
Na0 O4 2.440949 1_555
Na0 O11 2.656924 1_455
Na0 O1 2.895883 1_565
Na1 O5 2.348111 1_555
Na1 O1 2.377212 1_555
Na1 O6 2.413137 1_555
Na1 O2 2.465813 1_555
Na1 O4 2.501539 1_545
Na1 O4 2.904663 1_555
Na1 O0 2.908449 1_545
Na2 O5 2.348097 1_554
Na2 O1 2.377245 1_555
Na2 O6 2.413187 1_555
Na2 O2 2.466113 1_554
Na2 O3 2.501465 1_545
Na2 O3 2.904739 1_555
Na2 O0 2.908386 1_544
Na3 O8 2.348175 1_556
Na3 O12 2.377949 1_555
Na3 O7 2.411731 1_555
Na3 O11 2.466340 1_556
Na3 O10 2.501441 1_565
Na3 O10 2.904607 1_555
Na3 O13 2.909035 1_566
Na4 O8 2.348051 1_555
Na4 O12 2.377973 1_555
Na4 O7 2.411808 1_555
Na4 O11 2.466552 1_555
Na4 O9 2.501447 1_565
Na4 O9 2.904675 1_555
Na4 O13 2.908906 1_565
Na5 O0 2.302609 1_645
Na5 O12 2.397762 1_555
Na5 O9 2.440533 1_555
Na5 O10 2.440558 1_555
Na5 O2 2.657644 1_655
Na5 O12 2.895545 1_545
C0 O12 1.289212 1_455
C0 O0 1.306905 1_555
C0 O2 1.312298 1_555
C1 O1 1.289099 1_655
C1 O13 1.306984 1_555
C1 O11 1.312175 1_555
O0 V0 2.203623 1_555
O2 V0 2.262915 1_555
O3 P0 1.560270 1_555
O3 V0 2.185881 1_554
O4 P0 1.560247 1_555
O4 V0 2.185794 1_555
O5 P1 1.549541 1_555
O5 V0 2.160310 1_545
O6 P0 1.562746 1_555
O6 V1 2.170019 1_555
O7 P1 1.562913 1_555
O7 V0 2.168138 1_555
O8 P0 1.549359 1_555
O8 V1 2.160873 1_565
O9 P1 1.560288 1_555
O9 V1 2.185261 1_555
O10 P1 1.560246 1_555
O10 V1 2.185872 1_556
O11 V1 2.261155 1_555
O13 V1 2.201126 1_555
