# generated using pymatgen
data_LiMnPO4
_symmetry_space_group_name_H-M   'P 1'
_cell_length_a   4.40097100
_cell_length_b   14.70473500
_cell_length_c   4.86167800
_cell_angle_alpha   89.99998042
_cell_angle_beta   90.00000000
_cell_angle_gamma   90.00000000
_symmetry_Int_Tables_number   1
_chemical_formula_structural   LiMnPO4
_chemical_formula_sum   'Li4 Mn4 P4 O16'
_cell_volume   314.62403773
_cell_formula_units_Z   4
loop_
 _symmetry_equiv_pos_site_id
 _symmetry_equiv_pos_as_xyz
  1  'x, y, z'
loop_
 _atom_site_type_symbol
 _atom_site_label
 _atom_site_symmetry_multiplicity
 _atom_site_fract_x
 _atom_site_fract_y
 _atom_site_fract_z
 _atom_site_occupancy
  Li  Li0  1  0.00000000  0.24849200  0.75000100  1
  Li  Li1  1  0.00000000  0.75150900  0.25000100  1
  Li  Li2  1  0.50000000  0.25150900  0.25000100  1
  Li  Li3  1  0.50000000  0.74849200  0.75000100  1
  Mn  Mn0  1  0.99999900  0.92956300  0.74999400  1
  Mn  Mn1  1  0.50000700  0.57043200  0.24998400  1
  Mn  Mn2  1  0.00000100  0.07041400  0.24999900  1
  Mn  Mn3  1  0.49999900  0.42958400  0.75000000  1
  P  P0  1  0.00000000  0.38587800  0.25000100  1
  P  P1  1  0.00000000  0.61412200  0.75000100  1
  P  P2  1  0.50000000  0.88587900  0.25000100  1
  P  P3  1  0.50000000  0.11412300  0.75000100  1
  O  O0  1  0.18253700  0.32647800  0.46008100  1
  O  O1  1  0.18254200  0.67352300  0.96008300  1
  O  O2  1  0.31746200  0.17352300  0.96008100  1
  O  O3  1  0.31745800  0.82647700  0.46008300  1
  O  O4  1  0.68253800  0.17352300  0.53992100  1
  O  O5  1  0.68254200  0.82647800  0.03991900  1
  O  O6  1  0.81746300  0.32647800  0.03992100  1
  O  O7  1  0.81745700  0.67352300  0.53991800  1
  O  O8  1  0.26745000  0.05473000  0.59173000  1
  O  O9  1  0.26745000  0.94527200  0.09173400  1
  O  O10  1  0.23255100  0.44527100  0.09173000  1
  O  O11  1  0.23255000  0.55472800  0.59173400  1
  O  O12  1  0.76745000  0.55472800  0.90826900  1
  O  O13  1  0.76744800  0.44527100  0.40827200  1
  O  O14  1  0.73255000  0.05473000  0.90827100  1
  O  O15  1  0.73254900  0.94527200  0.40826800  1
loop_
_geom_bond_atom_site_label_1
_geom_bond_atom_site_label_2
_geom_bond_distance
_geom_bond_site_symmetry_2
Li0 O0 1.986732 1_555
Li0 O6 1.986733 1_456
Li0 O2 2.051932 1_555
Li0 O4 2.051932 1_455
Li1 O7 1.986732 1_455
Li1 O1 1.986735 1_554
Li1 O3 2.051917 1_555
Li1 O5 2.051925 1_455
Li2 O4 1.986734 1_555
Li2 O2 1.986734 1_554
Li2 O6 2.051935 1_555
Li2 O0 2.051935 1_555
Li3 O3 1.986726 1_555
Li3 O5 1.986735 1_556
Li3 O7 2.051925 1_555
Li3 O1 2.051925 1_555
Mn0 O15 2.049123 1_555
Mn0 O9 2.049181 1_656
Mn0 O8 2.316262 1_665
Mn0 O14 2.316278 1_565
Mn0 O3 2.497266 1_655
Mn0 O5 2.497290 1_556
Mn1 O12 2.049054 1_554
Mn1 O11 2.049227 1_555
Mn1 O10 2.316187 1_555
Mn1 O13 2.316208 1_555
Mn1 O1 2.497297 1_554
Mn1 O7 2.497351 1_555
Mn2 O14 2.049092 1_454
Mn2 O8 2.049099 1_555
Mn2 O9 2.315967 1_545
Mn2 O15 2.315980 1_445
Mn2 O2 2.497495 1_554
Mn2 O4 2.497511 1_455
Mn3 O13 2.049092 1_555
Mn3 O10 2.049097 1_556
Mn3 O11 2.315992 1_555
Mn3 O12 2.316001 1_555
Mn3 O0 2.497474 1_555
Mn3 O6 2.497483 1_556
O0 P0 1.565703 1_555
O1 P1 1.565730 1_555
O2 P3 1.565706 1_555
O3 P2 1.565737 1_555
O4 P3 1.565706 1_555
O5 P2 1.565730 1_555
O6 P0 1.565704 1_655
O7 P1 1.565735 1_655
O8 P3 1.549926 1_555
O9 P2 1.549916 1_555
O10 P0 1.549928 1_555
O11 P1 1.549924 1_555
O12 P1 1.549926 1_655
O13 P0 1.549931 1_655
O14 P3 1.549923 1_555
O15 P2 1.549913 1_555
