# generated using pymatgen
data_Li2VO2F
_symmetry_space_group_name_H-M   'P 1'
_cell_length_a   3.01555700
_cell_length_b   7.35729611
_cell_length_c   13.10317938
_cell_angle_alpha   90.22924496
_cell_angle_beta   96.60011400
_cell_angle_gamma   89.99019539
_symmetry_Int_Tables_number   1
_chemical_formula_structural   Li2VO2F
_chemical_formula_sum   'Li10 V5 O10 F5'
_cell_volume   288.78266403
_cell_formula_units_Z   5
loop_
 _symmetry_equiv_pos_site_id
 _symmetry_equiv_pos_as_xyz
  1  'x, y, z'
loop_
 _atom_site_type_symbol
 _atom_site_label
 _atom_site_symmetry_multiplicity
 _atom_site_fract_x
 _atom_site_fract_y
 _atom_site_fract_z
 _atom_site_occupancy
  Li  Li0  1  0.53063700  0.85891600  0.05773300  1
  Li  Li1  1  0.92652200  0.83979800  0.85991400  1
  Li  Li2  1  0.73213300  0.86928200  0.46097200  1
  Li  Li3  1  0.67988200  0.13296500  0.35556600  1
  Li  Li4  1  0.86403600  0.15966100  0.72999400  1
  Li  Li5  1  0.32796000  0.84202800  0.66060600  1
  Li  Li6  1  0.15049700  0.85928500  0.28664100  1
  Li  Li7  1  0.07386700  0.14896900  0.14269700  1
  Li  Li8  1  0.46228200  0.15635100  0.92624700  1
  Li  Li9  1  0.26287200  0.14357300  0.52504100  1
  V  V0  1  0.99058600  0.49349400  0.99432800  1
  V  V1  1  0.79386600  0.50052300  0.60299800  1
  V  V2  1  0.58710100  0.48318700  0.20728800  1
  V  V3  1  0.40453800  0.50134900  0.79988800  1
  V  V4  1  0.20184000  0.50032100  0.40301100  1
  O  O0  1  0.51566100  0.36093800  0.06792900  1
  O  O1  1  0.73326400  0.35554800  0.46880300  1
  O  O2  1  0.94823700  0.34354300  0.86823000  1
  O  O3  1  0.85869900  0.65330600  0.73771100  1
  O  O4  1  0.66574600  0.64379000  0.32863000  1
  O  O5  1  0.32636100  0.34796600  0.67163000  1
  O  O6  1  0.12648300  0.34573300  0.26395800  1
  O  O7  1  0.26540600  0.64589500  0.53856000  1
  O  O8  1  0.47767300  0.65390000  0.93523200  1
  O  O9  1  0.20352400  0.99968900  0.40402800  1
  F  F0  1  0.99853300  0.00139000  0.99755900  1
  F  F1  1  0.80367500  0.99965500  0.61082700  1
  F  F2  1  0.59464300  0.99242400  0.18705200  1
  F  F3  1  0.05164100  0.66024300  0.13150400  1
  F  F4  1  0.39895400  0.99838900  0.80334900  1
loop_
_geom_bond_atom_site_label_1
_geom_bond_atom_site_label_2
_geom_bond_distance
_geom_bond_site_symmetry_2
Li0 O8 2.190653 1_554
Li1 O3 2.096581 1_555
Li1 O8 2.234984 1_555
Li1 O8 2.289083 1_655
Li2 O9 1.935966 1_655
Li2 O9 1.936505 1_555
Li2 O4 2.386795 1_555
Li2 O7 2.440783 1_655
Li2 O7 2.461449 1_555
Li3 O9 1.905815 1_645
Li3 O9 1.908758 1_545
Li3 O1 2.198857 1_555
Li3 O6 2.468286 1_655
Li3 O6 2.495976 1_555
Li4 O5 2.168447 1_655
Li4 O5 2.203588 1_555
Li4 O2 2.247319 1_555
Li5 O7 2.141856 1_555
Li5 O3 2.269120 1_555
Li5 O3 2.300358 1_455
Li6 O9 1.841014 1_555
Li6 O4 2.245038 1_555
Li6 O4 2.268456 1_455
Li7 O6 2.137570 1_555
Li7 O0 2.340895 1_555
Li7 O0 2.420257 1_455
Li8 O2 2.148100 1_455
Li8 O2 2.210724 1_555
Li8 O0 2.376367 1_556
Li9 O9 1.894296 1_545
Li9 O1 2.288585 1_555
Li9 O1 2.294269 1_455
Li9 O5 2.424842 1_555
O0 V0 2.011045 1_454
O0 V2 2.021462 1_555
O0 V0 2.063444 1_554
O1 V4 2.033475 1_555
O1 V4 2.040150 1_655
O1 V1 2.043080 1_555
O2 V0 1.974952 1_555
O2 V3 2.082162 1_655
O2 V3 2.123251 1_555
O3 V3 2.013366 1_555
O3 V3 2.078798 1_655
O3 V1 2.079048 1_555
O4 V2 1.969468 1_555
O4 V4 2.079180 1_655
O4 V4 2.084048 1_555
O5 V3 2.011782 1_555
O5 V1 2.079069 1_455
O5 V1 2.087127 1_555
O6 V2 1.935734 1_555
O6 V2 1.986837 1_455
O6 V4 2.133857 1_555
O7 V1 2.023299 1_555
O7 V1 2.040231 1_455
O7 V4 2.060351 1_555
O8 V0 2.028812 1_555
O8 V3 2.085105 1_555
O8 V0 2.102196 1_455
F0 Li0 1.993526 1_546
F0 Li0 2.002591 1_646
F0 Li8 2.106680 1_655
F0 Li8 2.109142 1_555
F0 Li1 2.146256 1_545
F0 Li7 2.175202 1_656
F1 Li4 1.943493 1_565
F1 Li5 2.009561 1_655
F1 Li5 2.012464 1_555
F1 Li9 2.152162 1_565
F1 Li9 2.161023 1_665
F1 Li2 2.170218 1_555
F2 Li0 1.945493 1_555
F2 Li7 1.981282 1_565
F2 Li7 1.987888 1_665
F2 Li6 2.206503 1_555
F2 Li6 2.231340 1_655
F2 Li3 2.421188 1_565
F3 V0 2.162439 1_454
F3 V2 2.220654 1_555
F3 V2 2.230717 1_455
F3 Li0 2.280516 1_455
F3 Li0 2.343147 1_555
F3 Li6 2.490506 1_555
F4 Li8 1.973515 1_565
F4 Li1 2.043770 1_555
F4 Li1 2.047098 1_455
F4 Li4 2.141445 1_465
F4 Li4 2.149012 1_565
F4 Li5 2.181377 1_555
