# generated using pymatgen
data_KZr(PO4)2
_symmetry_space_group_name_H-M   'P 1'
_cell_length_a   5.44353700
_cell_length_b   9.34586300
_cell_length_c   17.02477893
_cell_angle_alpha   65.95108447
_cell_angle_beta   90.00000000
_cell_angle_gamma   90.00000000
_symmetry_Int_Tables_number   1
_chemical_formula_structural   KZr(PO4)2
_chemical_formula_sum   'K4 Zr4 P8 O32'
_cell_volume   790.94623798
_cell_formula_units_Z   4
loop_
 _symmetry_equiv_pos_site_id
 _symmetry_equiv_pos_as_xyz
  1  'x, y, z'
loop_
 _atom_site_type_symbol
 _atom_site_label
 _atom_site_symmetry_multiplicity
 _atom_site_fract_x
 _atom_site_fract_y
 _atom_site_fract_z
 _atom_site_occupancy
  K  K0  1  0.06301300  0.50000000  0.75000000  1
  K  K1  1  0.93698700  0.50000000  0.25000000  1
  K  K2  1  0.94590600  0.00000000  0.75000000  1
  K  K3  1  0.05409400  0.00000000  0.25000000  1
  Zr  Zr0  1  0.77066400  0.25185900  0.49772500  1
  Zr  Zr1  1  0.77066400  0.74814100  0.00227500  1
  Zr  Zr2  1  0.22933600  0.74814100  0.50227500  1
  Zr  Zr3  1  0.22933600  0.25185900  0.99772500  1
  P  P0  1  0.72465500  0.83536100  0.61459600  1
  P  P1  1  0.72465500  0.16463900  0.88540400  1
  P  P2  1  0.27534500  0.16463900  0.38540400  1
  P  P3  1  0.27534500  0.83536100  0.11459600  1
  P  P4  1  0.27349700  0.33312000  0.61174800  1
  P  P5  1  0.27349700  0.66688000  0.88825200  1
  P  P6  1  0.72650300  0.66688000  0.38825200  1
  P  P7  1  0.72650300  0.33312000  0.11174800  1
  O  O0  1  0.74729900  0.01540600  0.58384400  1
  O  O1  1  0.74729900  0.98459400  0.91615600  1
  O  O2  1  0.25270100  0.98459400  0.41615600  1
  O  O3  1  0.25270100  0.01540600  0.08384400  1
  O  O4  1  0.48444300  0.79452100  0.58041100  1
  O  O5  1  0.48444300  0.20547900  0.91958900  1
  O  O6  1  0.51555700  0.20547900  0.41958900  1
  O  O7  1  0.51555700  0.79452100  0.08041100  1
  O  O8  1  0.94636400  0.77627600  0.57875600  1
  O  O9  1  0.94636400  0.22372400  0.92124400  1
  O  O10  1  0.05363600  0.22372400  0.42124400  1
  O  O11  1  0.05363600  0.77627600  0.07875600  1
  O  O12  1  0.51270300  0.31071100  0.56968100  1
  O  O13  1  0.51270300  0.68928900  0.93031900  1
  O  O14  1  0.48729700  0.68928900  0.43031900  1
  O  O15  1  0.48729700  0.31071100  0.06968100  1
  O  O16  1  0.77180000  0.48988900  0.41284600  1
  O  O17  1  0.77180000  0.51011100  0.08715400  1
  O  O18  1  0.22820000  0.51011100  0.58715400  1
  O  O19  1  0.22820000  0.48988900  0.91284600  1
  O  O20  1  0.05371100  0.26833400  0.57818900  1
  O  O21  1  0.05371100  0.73166600  0.92181100  1
  O  O22  1  0.94628900  0.73166600  0.42181100  1
  O  O23  1  0.94628900  0.26833400  0.07818900  1
  O  O24  1  0.73873500  0.75357900  0.71344700  1
  O  O25  1  0.73873500  0.24642100  0.78655300  1
  O  O26  1  0.26126500  0.24642100  0.28655300  1
  O  O27  1  0.26126500  0.75357900  0.21344700  1
  O  O28  1  0.28244600  0.75662500  0.78966700  1
  O  O29  1  0.28244600  0.24337500  0.71033300  1
  O  O30  1  0.71755400  0.24337500  0.21033300  1
  O  O31  1  0.71755400  0.75662500  0.28966700  1
loop_
_geom_bond_atom_site_label_1
_geom_bond_atom_site_label_2
_geom_bond_distance
_geom_bond_site_symmetry_2
K0 O25 2.813848 1_455
K0 O24 2.813848 1_455
K0 O19 2.879282 1_555
K0 O18 2.879282 1_555
K0 O29 2.992524 1_555
K0 O28 2.992524 1_555
K0 O8 3.071538 1_455
K0 O9 3.071538 1_455
K1 O27 2.813848 1_655
K1 O26 2.813848 1_655
K1 O16 2.879282 1_555
K1 O17 2.879282 1_555
K1 O30 2.992524 1_555
K1 O31 2.992524 1_555
K1 O10 3.071538 1_655
K1 O11 3.071538 1_655
K2 O29 2.780972 1_655
K2 O28 2.780972 1_645
K2 O25 2.851499 1_555
K2 O24 2.851499 1_545
K2 O1 2.976498 1_545
K2 O0 2.976498 1_555
K2 O21 3.034921 1_645
K2 O20 3.034921 1_655
K3 O30 2.780972 1_455
K3 O31 2.780972 1_445
K3 O27 2.851499 1_545
K3 O26 2.851499 1_555
K3 O3 2.976498 1_555
K3 O2 2.976498 1_545
K3 O23 3.034921 1_455
K3 O22 3.034921 1_445
O0 P0 1.550059 1_545
O0 Zr0 2.099657 1_555
O1 P1 1.550059 1_565
O1 Zr1 2.099657 1_556
O2 P2 1.550059 1_565
O2 Zr2 2.099657 1_555
O3 P3 1.550059 1_545
O3 Zr3 2.099657 1_554
O4 P0 1.541192 1_555
O4 Zr2 2.087067 1_555
O5 P1 1.541192 1_555
O5 Zr3 2.087067 1_555
O6 P2 1.541192 1_555
O6 Zr0 2.087067 1_555
O7 P3 1.541192 1_555
O7 Zr1 2.087067 1_555
O8 P0 1.551904 1_555
O8 Zr2 2.101503 1_655
O9 P1 1.551904 1_555
O9 Zr3 2.101503 1_655
O10 P2 1.551904 1_555
O10 Zr0 2.101503 1_455
O11 P3 1.551904 1_555
O11 Zr1 2.101503 1_455
O12 P4 1.540960 1_555
O12 Zr0 2.079480 1_555
O13 P5 1.540960 1_555
O13 Zr1 2.079480 1_556
O14 P6 1.540960 1_555
O14 Zr2 2.079480 1_555
O15 P7 1.540960 1_555
O15 Zr3 2.079480 1_554
O16 P6 1.551703 1_555
O16 Zr0 2.101662 1_555
O17 P7 1.551703 1_555
O17 Zr1 2.101662 1_555
O18 P4 1.551703 1_555
O18 Zr2 2.101662 1_555
O19 P5 1.551703 1_555
O19 Zr3 2.101662 1_555
O20 P4 1.551252 1_555
O20 Zr0 2.108599 1_455
O21 P5 1.551252 1_555
O21 Zr1 2.108599 1_456
O22 P6 1.551252 1_555
O22 Zr2 2.108599 1_655
O23 P7 1.551252 1_555
O23 Zr3 2.108599 1_654
O24 P0 1.540747 1_555
O25 P1 1.540747 1_555
O26 P2 1.540747 1_555
O27 P3 1.540747 1_555
O28 P5 1.541265 1_555
O29 P4 1.541265 1_555
O30 P7 1.541265 1_555
O31 P6 1.541265 1_555
