# generated using pymatgen
data_Cu4H10SO12
_symmetry_space_group_name_H-M   'P 1'
_cell_length_a   7.63050130
_cell_length_b   6.02120900
_cell_length_c   11.58719253
_cell_angle_alpha   90.00000000
_cell_angle_beta   90.82869136
_cell_angle_gamma   90.00000000
_symmetry_Int_Tables_number   1
_chemical_formula_structural   Cu4H10SO12
_chemical_formula_sum   'Cu8 H20 S2 O24'
_cell_volume   532.31606045
_cell_formula_units_Z   2
loop_
 _symmetry_equiv_pos_site_id
 _symmetry_equiv_pos_as_xyz
  1  'x, y, z'
loop_
 _atom_site_type_symbol
 _atom_site_label
 _atom_site_symmetry_multiplicity
 _atom_site_fract_x
 _atom_site_fract_y
 _atom_site_fract_z
 _atom_site_occupancy
  Cu  Cu0  1  0.98783100  0.00067200  0.00480600  1
  Cu  Cu1  1  0.98783100  0.99932800  0.50480600  1
  Cu  Cu2  1  0.98922900  0.50202300  0.00594600  1
  Cu  Cu3  1  0.98922900  0.49797700  0.50594600  1
  Cu  Cu4  1  0.98548400  0.75173700  0.75639100  1
  Cu  Cu5  1  0.98548400  0.24826300  0.25639100  1
  Cu  Cu6  1  0.98886000  0.26534400  0.75160600  1
  Cu  Cu7  1  0.98886000  0.73465600  0.25160600  1
  H  H0  1  0.25062300  0.24400700  0.52837500  1
  H  H1  1  0.25062300  0.75599300  0.02837500  1
  H  H2  1  0.23118800  0.62303400  0.62706500  1
  H  H3  1  0.23118800  0.37696600  0.12706500  1
  H  H4  1  0.73383700  0.73067900  0.46590600  1
  H  H5  1  0.73383700  0.26932100  0.96590600  1
  H  H6  1  0.22226600  0.99511700  0.85416800  1
  H  H7  1  0.22226600  0.00488300  0.35416800  1
  H  H8  1  0.75432000  0.99744900  0.66707900  1
  H  H9  1  0.75432000  0.00255100  0.16707900  1
  H  H10  1  0.23510600  0.49554400  0.84125900  1
  H  H11  1  0.23510600  0.50445600  0.34125900  1
  H  H12  1  0.65233900  0.60849000  0.87268900  1
  H  H13  1  0.65233900  0.39151000  0.37268900  1
  H  H14  1  0.64212800  0.84719400  0.92284400  1
  H  H15  1  0.64212800  0.15280600  0.42284400  1
  H  H16  1  0.48140100  0.26504100  0.78147000  1
  H  H17  1  0.48140100  0.73495900  0.28147000  1
  H  H18  1  0.51523300  0.48355300  0.71445100  1
  H  H19  1  0.51523300  0.51644700  0.21445100  1
  S  S0  1  0.45155400  0.83526700  0.58157600  1
  S  S1  1  0.45155400  0.16473300  0.08157600  1
  O  O0  1  0.50405400  0.96802600  0.68181600  1
  O  O1  1  0.50405400  0.03197400  0.18181600  1
  O  O2  1  0.24383800  0.77678900  0.59867500  1
  O  O3  1  0.24383800  0.22321100  0.09867500  1
  O  O4  1  0.53717700  0.61775900  0.57505900  1
  O  O5  1  0.53717700  0.38224100  0.07505900  1
  O  O6  1  0.45169200  0.03928600  0.97275000  1
  O  O7  1  0.45169200  0.96071400  0.47275000  1
  O  O8  1  0.13383100  0.25113100  0.56154700  1
  O  O9  1  0.13383100  0.74886900  0.06154700  1
  O  O10  1  0.90923400  0.48523900  0.16137300  1
  O  O11  1  0.90923400  0.51476100  0.66137300  1
  O  O12  1  0.85546000  0.74638700  0.44169700  1
  O  O13  1  0.85546000  0.25361300  0.94169700  1
  O  O14  1  0.09427000  0.00211500  0.84566700  1
  O  O15  1  0.09427000  0.99788500  0.34566700  1
  O  O16  1  0.88368800  0.99409300  0.16406900  1
  O  O17  1  0.88368800  0.00590700  0.66406900  1
  O  O18  1  0.10558900  0.49385500  0.34815900  1
  O  O19  1  0.10558900  0.50614500  0.84815900  1
  O  O20  1  0.72641200  0.73464400  0.89737200  1
  O  O21  1  0.72641200  0.26535600  0.39737200  1
  O  O22  1  0.47515500  0.42673200  0.78988400  1
  O  O23  1  0.47515500  0.57326800  0.28988400  1
loop_
_geom_bond_atom_site_label_1
_geom_bond_atom_site_label_2
_geom_bond_distance
_geom_bond_site_symmetry_2
Cu0 O13 1.962944 1_554
Cu0 O9 1.987695 1_645
Cu0 O16 2.020153 1_545
Cu0 O14 2.025655 1_654
Cu1 O12 1.962944 1_555
Cu1 O8 1.987695 1_665
Cu1 O17 2.020153 1_565
Cu1 O15 2.025655 1_655
Cu2 O10 1.912608 1_555
Cu2 O13 1.952263 1_554
Cu2 O9 1.954761 1_655
Cu2 O19 2.044168 1_654
Cu3 O11 1.912608 1_555
Cu3 O12 1.952263 1_555
Cu3 O8 1.954761 1_655
Cu3 O18 2.044168 1_655
Cu4 O11 1.888959 1_555
Cu4 O14 2.001777 1_665
Cu4 O17 2.016393 1_565
Cu4 O19 2.032025 1_655
Cu5 O10 1.888959 1_555
Cu5 O15 2.001777 1_645
Cu5 O16 2.016393 1_545
Cu5 O18 2.032025 1_655
Cu6 O11 1.923365 1_555
Cu6 O17 2.022261 1_555
Cu6 O19 2.029393 1_655
Cu6 O14 2.078838 1_655
Cu6 O13 2.440803 1_555
Cu6 O8 2.480197 1_655
Cu7 O10 1.923365 1_555
Cu7 O16 2.022261 1_555
Cu7 O18 2.029393 1_655
Cu7 O15 2.078838 1_655
Cu7 O12 2.440803 1_555
Cu7 O9 2.480197 1_655
H0 O8 0.976572 1_555
H1 O9 0.976572 1_555
H2 O2 0.987694 1_555
H3 O3 0.987694 1_555
H4 O12 0.977973 1_555
H5 O13 0.977973 1_555
H6 O14 0.981115 1_565
H7 O15 0.981115 1_545
H8 O17 0.989574 1_565
H9 O16 0.989574 1_545
H10 O19 0.994710 1_555
H11 O18 0.994710 1_555
H12 O20 0.986703 1_555
H13 O21 0.986703 1_555
H14 O20 0.982588 1_555
H15 O21 0.982588 1_555
H16 O22 0.979673 1_555
H17 O23 0.979673 1_555
H18 O22 0.991102 1_555
H19 O23 0.991102 1_555
O0 S0 1.461197 1_555
O1 S1 1.461197 1_555
O2 S0 1.638436 1_555
O3 S1 1.638436 1_555
O4 S0 1.466016 1_555
O5 S1 1.466016 1_555
O6 S1 1.469923 1_556
O7 S0 1.469923 1_555
