# generated using pymatgen
data_Li4Mn3Cr3(FeO8)2
_symmetry_space_group_name_H-M   'P 1'
_cell_length_a   5.83980035
_cell_length_b   5.83980035
_cell_length_c   9.54283601
_cell_angle_alpha   89.65671197
_cell_angle_beta   89.65671197
_cell_angle_gamma   59.83816965
_symmetry_Int_Tables_number   1
_chemical_formula_structural   Li4Mn3Cr3(FeO8)2
_chemical_formula_sum   'Li4 Mn3 Cr3 Fe2 O16'
_cell_volume   281.37350107
_cell_formula_units_Z   1
loop_
 _symmetry_equiv_pos_site_id
 _symmetry_equiv_pos_as_xyz
  1  'x, y, z'
loop_
 _atom_site_type_symbol
 _atom_site_label
 _atom_site_symmetry_multiplicity
 _atom_site_fract_x
 _atom_site_fract_y
 _atom_site_fract_z
 _atom_site_occupancy
  Li  Li0  1  0.66887300  0.66887300  0.89243100  1
  Li  Li1  1  0.99686200  0.99686200  0.99781900  1
  Li  Li2  1  0.99805200  0.99805200  0.49620300  1
  Li  Li3  1  0.33372100  0.33372100  0.39205200  1
  Mn  Mn0  1  0.82994200  0.82994200  0.21565200  1
  Mn  Mn1  1  0.16998700  0.65954500  0.71567800  1
  Mn  Mn2  1  0.65954500  0.16998700  0.71567800  1
  Cr  Cr0  1  0.34027000  0.82778700  0.21350300  1
  Cr  Cr1  1  0.82778700  0.34027000  0.21350300  1
  Cr  Cr2  1  0.16914200  0.16914200  0.71505900  1
  Fe  Fe0  1  0.66435700  0.66435700  0.49258300  1
  Fe  Fe1  1  0.33206300  0.33206300  0.99475700  1
  O  O0  1  0.32343800  0.83303800  0.60239300  1
  O  O1  1  0.51772300  0.51772300  0.33241600  1
  O  O2  1  0.67169000  0.67169000  0.10596400  1
  O  O3  1  0.99590100  0.99590100  0.30932900  1
  O  O4  1  0.99609900  0.99609900  0.81019200  1
  O  O5  1  0.83303800  0.32343800  0.60239300  1
  O  O6  1  0.51920300  0.96251500  0.33295400  1
  O  O7  1  0.96251500  0.51920300  0.33295400  1
  O  O8  1  0.15962600  0.15962600  0.10376700  1
  O  O9  1  0.83660700  0.83660700  0.60517400  1
  O  O10  1  0.03899600  0.48334400  0.83268300  1
  O  O11  1  0.48334400  0.03899600  0.83268300  1
  O  O12  1  0.33723900  0.33723900  0.60928800  1
  O  O13  1  0.16142600  0.67145900  0.10339700  1
  O  O14  1  0.48140400  0.48140400  0.83333700  1
  O  O15  1  0.67145900  0.16142600  0.10339700  1
loop_
_geom_bond_atom_site_label_1
_geom_bond_atom_site_label_2
_geom_bond_distance
_geom_bond_site_symmetry_2
Li0 O11 1.951964 1_565
Li0 O10 1.951964 1_655
Li0 O14 1.983508 1_555
Li0 O2 2.038107 1_556
Li1 O4 1.790564 1_555
Li1 O15 1.924385 1_566
Li1 O13 1.924385 1_656
Li1 O8 1.939088 1_666
Li2 O3 1.783591 1_555
Li2 O9 1.931030 1_555
Li2 O0 1.933269 1_655
Li2 O5 1.933269 1_565
Li3 O1 1.943897 1_555
Li3 O6 1.959164 1_545
Li3 O7 1.959164 1_455
Li3 O12 2.073600 1_555
Mn0 O3 1.908494 1_555
Mn0 O2 1.919695 1_555
Mn0 O6 1.928644 1_555
Mn0 O7 1.928644 1_555
Mn0 O13 1.984464 1_655
Mn0 O15 1.984464 1_565
Mn1 O10 1.912496 1_555
Mn1 O12 1.921216 1_555
Mn1 O4 1.926704 1_455
Mn1 O14 1.938964 1_555
Mn1 O0 1.971257 1_555
Mn1 O9 1.990004 1_455
Mn2 O11 1.912496 1_555
Mn2 O12 1.921216 1_555
Mn2 O4 1.926704 1_545
Mn2 O14 1.938964 1_555
Mn2 O5 1.971257 1_555
Mn2 O9 1.990004 1_545
Cr0 O1 1.934980 1_555
Cr0 O2 1.960736 1_555
Cr0 O3 1.961909 1_455
Cr0 O6 1.965061 1_555
Cr0 O8 1.974702 1_565
Cr0 O13 2.002754 1_555
Cr1 O1 1.934980 1_555
Cr1 O2 1.960736 1_555
Cr1 O3 1.961909 1_545
Cr1 O7 1.965061 1_555
Cr1 O8 1.974702 1_655
Cr1 O15 2.002754 1_555
Cr2 O11 1.953824 1_555
Cr2 O10 1.953824 1_555
Cr2 O4 1.967417 1_445
Cr2 O12 1.972483 1_555
Cr2 O5 2.014155 1_455
Cr2 O0 2.014155 1_545
Fe0 O0 2.012149 1_555
Fe0 O5 2.012149 1_555
Fe0 O9 2.054459 1_555
Fe0 O1 2.137971 1_555
Fe0 O6 2.138054 1_555
Fe0 O7 2.138054 1_555
Fe1 O15 2.005915 1_556
Fe1 O13 2.005915 1_556
Fe1 O8 2.025866 1_556
Fe1 O10 2.144211 1_555
Fe1 O11 2.144211 1_555
Fe1 O14 2.150850 1_555
