# generated using pymatgen
data_Ti5PO11
_symmetry_space_group_name_H-M   'P 1'
_cell_length_a   13.98367800
_cell_length_b   7.61551100
_cell_length_c   9.92466574
_cell_angle_alpha   50.31700855
_cell_angle_beta   90.00000000
_cell_angle_gamma   90.00000000
_symmetry_Int_Tables_number   1
_chemical_formula_structural   Ti5PO11
_chemical_formula_sum   'Ti20 P4 O44'
_cell_volume   813.38336413
_cell_formula_units_Z   4
loop_
 _symmetry_equiv_pos_site_id
 _symmetry_equiv_pos_as_xyz
  1  'x, y, z'
loop_
 _atom_site_type_symbol
 _atom_site_label
 _atom_site_symmetry_multiplicity
 _atom_site_fract_x
 _atom_site_fract_y
 _atom_site_fract_z
 _atom_site_occupancy
  Ti  Ti0  1  0.82631500  0.74118300  0.54698500  1
  Ti  Ti1  1  0.33132100  0.47571200  0.58312100  1
  Ti  Ti2  1  0.17303500  0.74522800  0.68939600  1
  Ti  Ti3  1  0.50436200  0.55695600  0.70904800  1
  Ti  Ti4  1  0.65564200  0.97888800  0.65992600  1
  Ti  Ti5  1  0.00436200  0.44304400  0.79095200  1
  Ti  Ti6  1  0.67303500  0.25477200  0.81060400  1
  Ti  Ti7  1  0.15564200  0.02111200  0.84007400  1
  Ti  Ti8  1  0.83132100  0.52428800  0.91687900  1
  Ti  Ti9  1  0.32631500  0.25881700  0.95301500  1
  Ti  Ti10  1  0.67368500  0.74118300  0.04698500  1
  Ti  Ti11  1  0.16867900  0.47571200  0.08312100  1
  Ti  Ti12  1  0.84435800  0.97888800  0.15992600  1
  Ti  Ti13  1  0.32696500  0.74522800  0.18939600  1
  Ti  Ti14  1  0.99563800  0.55695600  0.20904800  1
  Ti  Ti15  1  0.34435800  0.02111200  0.34007400  1
  Ti  Ti16  1  0.49563800  0.44304400  0.29095200  1
  Ti  Ti17  1  0.82696500  0.25477200  0.31060400  1
  Ti  Ti18  1  0.66867900  0.52428800  0.41687900  1
  Ti  Ti19  1  0.17368500  0.25881700  0.45301500  1
  P  P0  1  0.38013900  0.75998900  0.86428400  1
  P  P1  1  0.88013900  0.24001100  0.63571600  1
  P  P2  1  0.11986100  0.75998900  0.36428400  1
  P  P3  1  0.61986100  0.24001100  0.13571600  1
  O  O0  1  0.75601300  0.99259000  0.51313800  1
  O  O1  1  0.40928200  0.73972000  0.52934800  1
  O  O2  1  0.09350300  0.69251000  0.55614700  1
  O  O3  1  0.59426000  0.49945200  0.59631500  1
  O  O4  1  0.91052400  0.46992800  0.60399200  1
  O  O5  1  0.57258200  0.78832500  0.68181400  1
  O  O6  1  0.24085800  0.25789100  0.62574800  1
  O  O7  1  0.75847600  0.26351200  0.62153900  1
  O  O8  1  0.91667200  0.69836200  0.71744400  1
  O  O9  1  0.25658200  0.50190400  0.74661700  1
  O  O10  1  0.10972500  0.99200500  0.66768600  1
  O  O11  1  0.75658200  0.49809600  0.75338300  1
  O  O12  1  0.41667200  0.30163800  0.78255600  1
  O  O13  1  0.07258200  0.21167500  0.81818600  1
  O  O14  1  0.41052400  0.53007200  0.89600800  1
  O  O15  1  0.09426000  0.50054800  0.90368500  1
  O  O16  1  0.60972500  0.00799500  0.83231400  1
  O  O17  1  0.59350300  0.30749000  0.94385300  1
  O  O18  1  0.25847600  0.73648800  0.87846100  1
  O  O19  1  0.74085800  0.74210900  0.87425200  1
  O  O20  1  0.90928200  0.26028000  0.97065200  1
  O  O21  1  0.25601300  0.00741000  0.98686200  1
  O  O22  1  0.74398700  0.99259000  0.01313800  1
  O  O23  1  0.09071800  0.73972000  0.02934800  1
  O  O24  1  0.25914200  0.25789100  0.12574800  1
  O  O25  1  0.74152400  0.26351200  0.12153900  1
  O  O26  1  0.40649700  0.69251000  0.05614700  1
  O  O27  1  0.39027500  0.99200500  0.16768600  1
  O  O28  1  0.90574000  0.49945200  0.09631500  1
  O  O29  1  0.58947600  0.46992800  0.10399200  1
  O  O30  1  0.92741800  0.78832500  0.18181400  1
  O  O31  1  0.58332800  0.69836200  0.21744400  1
  O  O32  1  0.24341800  0.50190400  0.24661700  1
  O  O33  1  0.89027500  0.00799500  0.33231400  1
  O  O34  1  0.74341800  0.49809600  0.25338300  1
  O  O35  1  0.08332800  0.30163800  0.28255600  1
  O  O36  1  0.24152400  0.73648800  0.37846100  1
  O  O37  1  0.75914200  0.74210900  0.37425200  1
  O  O38  1  0.42741800  0.21167500  0.31818600  1
  O  O39  1  0.08947600  0.53007200  0.39600800  1
  O  O40  1  0.40574000  0.50054800  0.40368500  1
  O  O41  1  0.90649700  0.30749000  0.44385300  1
  O  O42  1  0.59071800  0.26028000  0.47065200  1
  O  O43  1  0.24398700  0.00741000  0.48686200  1
loop_
_geom_bond_atom_site_label_1
_geom_bond_atom_site_label_2
_geom_bond_distance
_geom_bond_site_symmetry_2
O0 Ti17 1.971288 1_565
O0 Ti4 1.977132 1_555
O0 Ti0 1.980808 1_555
O1 Ti3 1.927595 1_555
O1 Ti15 1.950458 1_565
O1 Ti1 2.036013 1_555
O2 P2 1.666180 1_555
O2 Ti2 1.955755 1_555
O2 Ti5 2.222551 1_555
O3 Ti3 1.910395 1_555
O3 Ti18 1.964682 1_555
O3 Ti6 2.036585 1_555
O4 P1 1.625241 1_555
O4 Ti0 2.116944 1_555
O4 Ti5 2.172919 1_655
O5 Ti4 1.760600 1_555
O5 Ti3 1.865348 1_555
O6 Ti1 1.906481 1_555
O6 Ti19 1.950853 1_555
O6 Ti7 2.073101 1_555
O7 P1 1.707067 1_555
O7 Ti18 2.120127 1_555
O7 Ti6 2.189368 1_555
O7 Ti4 2.420059 1_545
O8 Ti8 1.936144 1_555
O8 Ti0 1.964765 1_555
O8 Ti5 2.001232 1_655
O9 Ti9 1.931621 1_555
O9 Ti2 1.943514 1_555
O9 Ti1 2.044110 1_555
O10 Ti2 1.960857 1_555
O10 Ti7 1.967967 1_565
O10 Ti19 1.984752 1_565
O11 Ti0 1.931621 1_555
O11 Ti6 1.943514 1_555
O11 Ti8 2.044110 1_555
O12 Ti1 1.936144 1_555
O12 Ti9 1.964765 1_555
O12 Ti3 2.001232 1_555
O13 Ti7 1.760600 1_555
O13 Ti5 1.865348 1_555
O14 P0 1.625241 1_555
O14 Ti9 2.116944 1_555
O14 Ti3 2.172919 1_555
O15 Ti5 1.910395 1_555
O15 Ti11 1.964682 1_556
O15 Ti2 2.036585 1_555
O16 Ti6 1.960857 1_555
O16 Ti4 1.967967 1_545
O16 Ti10 1.984752 1_546
O17 P3 1.666180 1_556
O17 Ti6 1.955755 1_555
O17 Ti3 2.222551 1_555
O18 P0 1.707067 1_555
O18 Ti11 2.120127 1_556
O18 Ti2 2.189368 1_555
O18 Ti7 2.420059 1_565
O19 Ti8 1.906481 1_555
O19 Ti10 1.950853 1_556
O19 Ti4 2.073101 1_555
O20 Ti5 1.927595 1_655
O20 Ti12 1.950458 1_546
O20 Ti8 2.036013 1_555
O21 Ti13 1.971288 1_546
O21 Ti7 1.977132 1_555
O21 Ti9 1.980808 1_555
O22 Ti6 1.971288 1_564
O22 Ti12 1.977132 1_555
O22 Ti10 1.980808 1_555
O23 Ti14 1.927595 1_455
O23 Ti7 1.950458 1_564
O23 Ti11 2.036013 1_555
O24 Ti11 1.906481 1_555
O24 Ti9 1.950853 1_554
O24 Ti15 2.073101 1_555
O25 P3 1.707067 1_555
O25 Ti8 2.120127 1_554
O25 Ti17 2.189368 1_555
O25 Ti12 2.420059 1_545
O26 P0 1.666180 1_554
O26 Ti13 1.955755 1_555
O26 Ti16 2.222551 1_555
O27 Ti13 1.960857 1_555
O27 Ti15 1.967967 1_565
O27 Ti9 1.984752 1_564
O28 Ti14 1.910395 1_555
O28 Ti8 1.964682 1_554
O28 Ti17 2.036585 1_555
O29 P3 1.625241 1_555
O29 Ti10 2.116944 1_555
O29 Ti16 2.172919 1_555
O30 Ti12 1.760600 1_555
O30 Ti14 1.865348 1_555
O31 Ti18 1.936144 1_555
O31 Ti10 1.964765 1_555
O31 Ti16 2.001232 1_555
O32 Ti19 1.931621 1_555
O32 Ti13 1.943514 1_555
O32 Ti11 2.044110 1_555
O33 Ti17 1.960857 1_555
O33 Ti12 1.967967 1_545
O33 Ti0 1.984752 1_545
O34 Ti10 1.931621 1_555
O34 Ti17 1.943514 1_555
O34 Ti18 2.044110 1_555
O35 Ti11 1.936144 1_555
O35 Ti19 1.964765 1_555
O35 Ti14 2.001232 1_455
O36 P2 1.707067 1_555
O36 Ti1 2.120127 1_555
O36 Ti13 2.189368 1_555
O36 Ti15 2.420059 1_565
O37 Ti18 1.906481 1_555
O37 Ti0 1.950853 1_555
O37 Ti12 2.073101 1_555
O38 Ti15 1.760600 1_555
O38 Ti16 1.865348 1_555
O39 P2 1.625241 1_555
O39 Ti19 2.116944 1_555
O39 Ti14 2.172919 1_455
O40 Ti16 1.910395 1_555
O40 Ti1 1.964682 1_555
O40 Ti13 2.036585 1_555
O41 P1 1.666180 1_555
O41 Ti17 1.955755 1_555
O41 Ti14 2.222551 1_555
O42 Ti16 1.927595 1_555
O42 Ti4 1.950458 1_545
O42 Ti18 2.036013 1_555
O43 Ti2 1.971288 1_545
O43 Ti15 1.977132 1_555
O43 Ti19 1.980808 1_555
