# generated using pymatgen
data_Li3Mn3OF7
_symmetry_space_group_name_H-M   'P 1'
_cell_length_a   6.19293233
_cell_length_b   8.85717500
_cell_length_c   6.32869454
_cell_angle_alpha   90.12734254
_cell_angle_beta   89.97678585
_cell_angle_gamma   91.97088834
_symmetry_Int_Tables_number   1
_chemical_formula_structural   Li3Mn3OF7
_chemical_formula_sum   'Li6 Mn6 O2 F14'
_cell_volume   346.93459416
_cell_formula_units_Z   2
loop_
 _symmetry_equiv_pos_site_id
 _symmetry_equiv_pos_as_xyz
  1  'x, y, z'
loop_
 _atom_site_type_symbol
 _atom_site_label
 _atom_site_symmetry_multiplicity
 _atom_site_fract_x
 _atom_site_fract_y
 _atom_site_fract_z
 _atom_site_occupancy
  Li  Li0  1  0.99908200  0.99954100  0.99996000  1
  Li  Li1  1  0.49908700  0.49954400  0.49995700  1
  Li  Li2  1  0.51686000  0.25851000  0.00009100  1
  Li  Li3  1  0.01685700  0.75850500  0.50008700  1
  Li  Li4  1  0.24568100  0.62279600  0.99999700  1
  Li  Li5  1  0.74569100  0.12279800  0.49999500  1
  Mn  Mn0  1  0.48685500  0.87314500  0.73930000  1
  Mn  Mn1  1  0.98493200  0.37393700  0.76237600  1
  Mn  Mn2  1  0.24711300  0.11307000  0.49903500  1
  Mn  Mn3  1  0.98682400  0.37312500  0.23933500  1
  Mn  Mn4  1  0.48492400  0.87392200  0.26233200  1
  Mn  Mn5  1  0.74708700  0.61306600  0.99905700  1
  O  O0  1  0.77085400  0.38548500  0.00022600  1
  O  O1  1  0.27085700  0.88549600  0.50022400  1
  F  F0  1  0.72985400  0.86481000  0.00034100  1
  F  F1  1  0.22985700  0.36482200  0.50033100  1
  F  F2  1  0.24912400  0.38581500  0.99999500  1
  F  F3  1  0.74912700  0.88581100  0.49997300  1
  F  F4  1  0.01048100  0.62459900  0.76117100  1
  F  F5  1  0.51049300  0.12459700  0.26115900  1
  F  F6  1  0.00907800  0.62327500  0.23764300  1
  F  F7  1  0.50910500  0.12329200  0.73764700  1
  F  F8  1  0.49547700  0.62924600  0.76313800  1
  F  F9  1  0.99546800  0.12924700  0.26312800  1
  F  F10  1  0.49575700  0.62955800  0.23666800  1
  F  F11  1  0.99574500  0.12955800  0.73666500  1
  F  F12  1  0.25886600  0.86621300  0.00008600  1
  F  F13  1  0.75885800  0.36621700  0.50008300  1
loop_
_geom_bond_atom_site_label_1
_geom_bond_atom_site_label_2
_geom_bond_distance
_geom_bond_site_symmetry_2
Li2 O0 1.901936 1_555
Li3 O1 1.902046 1_555
Mn0 O1 2.025594 1_555
Mn1 O0 2.010230 1_556
Mn2 O1 2.026087 1_545
Mn3 O0 2.025642 1_555
Mn4 O1 2.010400 1_555
Mn5 O0 2.026164 1_556
F0 Li0 2.016714 1_554
F0 Mn5 2.235953 1_554
F0 Mn0 2.238206 1_554
F0 Mn4 2.249946 1_555
F1 Li1 2.016679 1_555
F1 Mn2 2.236036 1_555
F1 Mn3 2.238121 1_455
F1 Mn1 2.250178 1_455
F2 Li2 2.036958 1_556
F2 Li4 2.099824 1_555
F2 Mn3 2.220783 1_456
F2 Mn1 2.222361 1_455
F3 Li3 2.036932 1_655
F3 Li5 2.099875 1_565
F3 Mn0 2.220595 1_555
F3 Mn4 2.222507 1_555
F4 Li3 2.035639 1_555
F4 Li4 2.099968 1_555
F4 Mn5 2.219228 1_455
F4 Mn1 2.220383 1_455
F5 Li2 2.035593 1_555
F5 Li5 2.100004 1_555
F5 Mn2 2.219120 1_555
F5 Mn4 2.220502 1_545
F6 Li3 2.045208 1_555
F6 Li4 2.099433 1_554
F6 Mn3 2.215218 1_455
F6 Mn5 2.216271 1_454
F7 Li2 2.045145 1_556
F7 Li5 2.099390 1_555
F7 Mn0 2.215189 1_545
F7 Mn2 2.216389 1_555
F8 Li1 2.021795 1_555
F8 Li4 2.153097 1_555
F8 Mn5 2.167016 1_555
F8 Mn0 2.168342 1_555
F9 Li0 2.021748 1_544
F9 Li5 2.153048 1_555
F9 Mn2 2.167118 1_655
F9 Mn3 2.168144 1_555
F10 Li1 2.028096 1_555
F10 Li4 2.154212 1_554
F10 Mn5 2.172100 1_554
F10 Mn4 2.173434 1_555
F11 Li0 2.028144 1_545
F11 Li5 2.154110 1_555
F11 Mn2 2.172349 1_655
F11 Mn1 2.173580 1_555
F12 Li0 2.028189 1_454
F12 Li4 2.154723 1_554
F12 Mn0 2.171134 1_554
F12 Mn4 2.171147 1_555
F13 Li1 2.028118 1_555
F13 Li5 2.154741 1_555
F13 Mn3 2.170857 1_555
F13 Mn1 2.171439 1_555
