# generated using pymatgen
data_LiV6O15
_symmetry_space_group_name_H-M   'P 1'
_cell_length_a   7.30919000
_cell_length_b   10.27281000
_cell_length_c   15.77182448
_cell_angle_alpha   68.68765734
_cell_angle_beta   90.00000000
_cell_angle_gamma   90.00000000
_symmetry_Int_Tables_number   1
_chemical_formula_structural   LiV6O15
_chemical_formula_sum   'Li4 V24 O60'
_cell_volume   1103.25514466
_cell_formula_units_Z   4
loop_
 _symmetry_equiv_pos_site_id
 _symmetry_equiv_pos_as_xyz
  1  'x, y, z'
loop_
 _atom_site_type_symbol
 _atom_site_label
 _atom_site_symmetry_multiplicity
 _atom_site_fract_x
 _atom_site_fract_y
 _atom_site_fract_z
 _atom_site_occupancy
  Li  Li0  1  0.87893200  0.65016400  0.76211100  1
  Li  Li1  1  0.12106800  0.34983600  0.23788900  1
  Li  Li2  1  0.62106800  0.65016400  0.26211100  1
  Li  Li3  1  0.37893200  0.34983600  0.73788900  1
  V  V0  1  0.87701200  0.58683500  0.03966200  1
  V  V1  1  0.37310100  0.58422000  0.03941800  1
  V  V2  1  0.87511300  0.12055200  0.62790500  1
  V  V3  1  0.37525300  0.10910500  0.63494400  1
  V  V4  1  0.62689900  0.41578000  0.96058200  1
  V  V5  1  0.12298800  0.41316500  0.96033800  1
  V  V6  1  0.37058400  0.10737600  0.41204600  1
  V  V7  1  0.87718200  0.10575600  0.41079700  1
  V  V8  1  0.62941600  0.89262400  0.58795400  1
  V  V9  1  0.12281800  0.89424400  0.58920300  1
  V  V10  1  0.62488700  0.12055200  0.12790500  1
  V  V11  1  0.12474700  0.10910500  0.13494400  1
  V  V12  1  0.62474700  0.89089500  0.36505600  1
  V  V13  1  0.12488700  0.87944800  0.37209500  1
  V  V14  1  0.62281800  0.10575600  0.91079700  1
  V  V15  1  0.12941600  0.10737600  0.91204600  1
  V  V16  1  0.37718200  0.89424400  0.08920300  1
  V  V17  1  0.87058400  0.89262400  0.08795400  1
  V  V18  1  0.62298800  0.58683500  0.53966200  1
  V  V19  1  0.12689900  0.58422000  0.53941800  1
  V  V20  1  0.87525300  0.89089500  0.86505600  1
  V  V21  1  0.37511300  0.87944800  0.87209500  1
  V  V22  1  0.87310100  0.41578000  0.46058200  1
  V  V23  1  0.37701200  0.41316500  0.46033800  1
  O  O0  1  0.37581400  0.72980600  0.85950500  1
  O  O1  1  0.87450700  0.73181800  0.86137600  1
  O  O2  1  0.88867000  0.51832000  0.14953400  1
  O  O3  1  0.36069100  0.51608200  0.14929600  1
  O  O4  1  0.12391200  0.57282300  0.00519800  1
  O  O5  1  0.62605100  0.56951800  0.01061800  1
  O  O6  1  0.87375000  0.22838300  0.48786900  1
  O  O7  1  0.37578800  0.22416200  0.48460900  1
  O  O8  1  0.12310000  0.07444300  0.61614500  1
  O  O9  1  0.62772100  0.07384800  0.61646100  1
  O  O10  1  0.87608800  0.42717700  0.99480200  1
  O  O11  1  0.37394900  0.43048200  0.98938200  1
  O  O12  1  0.34509700  0.22785300  0.31150100  1
  O  O13  1  0.91112300  0.23064500  0.31134300  1
  O  O14  1  0.63930900  0.48391800  0.85070400  1
  O  O15  1  0.11133000  0.48168000  0.85046600  1
  O  O16  1  0.62418600  0.27019400  0.14049500  1
  O  O17  1  0.12549300  0.26818200  0.13862400  1
  O  O18  1  0.61558100  0.05841100  0.42716700  1
  O  O19  1  0.13390900  0.04609800  0.44319700  1
  O  O20  1  0.86609100  0.95390200  0.55680300  1
  O  O21  1  0.38441900  0.94158900  0.57283300  1
  O  O22  1  0.62625000  0.22838300  0.98786900  1
  O  O23  1  0.12421200  0.22416200  0.98460900  1
  O  O24  1  0.87227900  0.07384800  0.11646100  1
  O  O25  1  0.37690000  0.07444300  0.11614500  1
  O  O26  1  0.08887700  0.76935500  0.68865700  1
  O  O27  1  0.65490300  0.77214700  0.68849900  1
  O  O28  1  0.62500600  0.99890700  0.24995300  1
  O  O29  1  0.12500600  0.00109300  0.25004700  1
  O  O30  1  0.15490300  0.22785300  0.81150100  1
  O  O31  1  0.58887700  0.23064500  0.81134300  1
  O  O32  1  0.87690000  0.92555700  0.38385500  1
  O  O33  1  0.37227900  0.92615200  0.38353900  1
  O  O34  1  0.62421200  0.77583800  0.51539100  1
  O  O35  1  0.12625000  0.77161700  0.51213100  1
  O  O36  1  0.36609100  0.04609800  0.94319700  1
  O  O37  1  0.88441900  0.05841100  0.92716700  1
  O  O38  1  0.11558100  0.94158900  0.07283300  1
  O  O39  1  0.63390900  0.95390200  0.05680300  1
  O  O40  1  0.62549300  0.73181800  0.36137600  1
  O  O41  1  0.12418600  0.72980600  0.35950500  1
  O  O42  1  0.61133000  0.51832000  0.64953400  1
  O  O43  1  0.13930900  0.51608200  0.64929600  1
  O  O44  1  0.41112300  0.76935500  0.18865700  1
  O  O45  1  0.84509700  0.77214700  0.18849900  1
  O  O46  1  0.87394900  0.56951800  0.51061800  1
  O  O47  1  0.37608800  0.57282300  0.50519800  1
  O  O48  1  0.62310000  0.92555700  0.88385500  1
  O  O49  1  0.12772100  0.92615200  0.88353900  1
  O  O50  1  0.87578800  0.77583800  0.01539100  1
  O  O51  1  0.37375000  0.77161700  0.01213100  1
  O  O52  1  0.62391200  0.42717700  0.49480200  1
  O  O53  1  0.12605100  0.43048200  0.48938200  1
  O  O54  1  0.86069100  0.48391800  0.35070400  1
  O  O55  1  0.38867000  0.48168000  0.35046600  1
  O  O56  1  0.87581400  0.27019400  0.64049500  1
  O  O57  1  0.37450700  0.26818200  0.63862400  1
  O  O58  1  0.37499400  0.00109300  0.75004700  1
  O  O59  1  0.87499400  0.99890700  0.74995300  1
loop_
_geom_bond_atom_site_label_1
_geom_bond_atom_site_label_2
_geom_bond_distance
_geom_bond_site_symmetry_2
Li0 O1 2.027395 1_555
Li0 O26 2.040836 1_655
Li0 O27 2.131188 1_555
Li0 O15 2.463683 1_655
Li0 O14 2.490377 1_555
Li1 O17 2.027395 1_555
Li1 O13 2.040836 1_455
Li1 O12 2.131188 1_555
Li1 O2 2.463683 1_455
Li1 O3 2.490377 1_555
Li2 O40 2.027395 1_555
Li2 O44 2.040836 1_555
Li2 O45 2.131188 1_555
Li2 O55 2.463683 1_555
Li2 O54 2.490377 1_555
Li3 O57 2.027395 1_555
Li3 O31 2.040836 1_555
Li3 O30 2.131188 1_555
Li3 O42 2.463683 1_555
Li3 O43 2.490377 1_555
O0 V21 1.620018 1_555
O1 V20 1.656155 1_555
O2 V0 1.618316 1_555
O3 V1 1.618529 1_555
O4 V0 1.905196 1_455
O4 V1 1.915285 1_555
O4 V5 2.008534 1_554
O5 V0 1.914537 1_555
O5 V1 1.922832 1_555
O5 V4 2.005750 1_554
O6 V22 1.813557 1_555
O6 V7 2.044071 1_555
O6 V2 2.080088 1_555
O7 V23 1.837425 1_555
O7 V6 1.936130 1_555
O7 V3 2.231997 1_555
O8 V2 1.899496 1_455
O8 V3 1.920473 1_555
O8 V9 2.044286 1_545
O9 V2 1.896162 1_555
O9 V3 1.923064 1_555
O9 V8 2.067991 1_545
O10 V5 1.905196 1_655
O10 V4 1.915285 1_555
O10 V0 2.008534 1_556
O11 V5 1.914537 1_555
O11 V4 1.922832 1_555
O11 V1 2.005750 1_556
O12 V6 1.629266 1_555
O13 V7 1.644724 1_555
O14 V4 1.618529 1_555
O15 V5 1.618316 1_555
O16 V10 1.620018 1_555
O17 V11 1.656155 1_555
O18 V6 1.851865 1_555
O18 V7 1.966730 1_555
O18 V12 2.269550 1_545
O18 V8 2.490414 1_545
O19 V6 1.845372 1_555
O19 V7 1.982473 1_455
O19 V9 2.265312 1_545
O19 V13 2.363946 1_545
O20 V8 1.845372 1_555
O20 V9 1.982473 1_655
O20 V7 2.265312 1_565
O20 V2 2.363946 1_565
O21 V8 1.851865 1_555
O21 V9 1.966730 1_555
O21 V3 2.269550 1_565
O21 V6 2.490414 1_565
O22 V4 1.813557 1_555
O22 V14 2.044071 1_555
O22 V10 2.080088 1_556
O23 V5 1.837425 1_555
O23 V15 1.936130 1_555
O23 V11 2.231997 1_556
O24 V10 1.896162 1_555
O24 V11 1.923064 1_655
O24 V17 2.067991 1_545
O25 V10 1.899496 1_555
O25 V11 1.920473 1_555
O25 V16 2.044286 1_545
O26 V9 1.644724 1_555
O27 V8 1.629266 1_555
O28 V12 1.750024 1_555
O28 V10 1.875734 1_565
O29 V11 1.750024 1_555
O29 V13 1.875734 1_545
O30 V15 1.629266 1_555
O31 V14 1.644724 1_555
O32 V13 1.899496 1_655
O32 V12 1.920473 1_555
O32 V7 2.044286 1_565
O33 V13 1.896162 1_555
O33 V12 1.923064 1_555
O33 V6 2.067991 1_565
O34 V18 1.837425 1_555
O34 V8 1.936130 1_555
O34 V12 2.231997 1_555
O35 V19 1.813557 1_555
O35 V9 2.044071 1_555
O35 V13 2.080088 1_555
O36 V15 1.845372 1_555
O36 V14 1.982473 1_555
O36 V16 2.265312 1_546
O36 V21 2.363946 1_545
O37 V15 1.851865 1_655
O37 V14 1.966730 1_555
O37 V20 2.269550 1_545
O37 V17 2.490414 1_546
O38 V17 1.851865 1_455
O38 V16 1.966730 1_555
O38 V11 2.269550 1_565
O38 V15 2.490414 1_564
O39 V17 1.845372 1_555
O39 V16 1.982473 1_555
O39 V14 2.265312 1_564
O39 V10 2.363946 1_565
O40 V12 1.656155 1_555
O41 V13 1.620018 1_555
O42 V18 1.618316 1_555
O43 V19 1.618529 1_555
O44 V16 1.644724 1_555
O45 V17 1.629266 1_555
O46 V18 1.914537 1_555
O46 V19 1.922832 1_655
O46 V22 2.005750 1_555
O47 V18 1.905196 1_555
O47 V19 1.915285 1_555
O47 V23 2.008534 1_555
O48 V21 1.899496 1_555
O48 V20 1.920473 1_555
O48 V14 2.044286 1_565
O49 V21 1.896162 1_555
O49 V20 1.923064 1_455
O49 V15 2.067991 1_565
O50 V0 1.837425 1_555
O50 V17 1.936130 1_555
O50 V20 2.231997 1_554
O51 V1 1.813557 1_555
O51 V16 2.044071 1_555
O51 V21 2.080088 1_554
O52 V23 1.905196 1_555
O52 V22 1.915285 1_555
O52 V18 2.008534 1_555
O53 V23 1.914537 1_555
O53 V22 1.922832 1_455
O53 V19 2.005750 1_555
O54 V22 1.618529 1_555
O55 V23 1.618316 1_555
O56 V2 1.620018 1_555
O57 V3 1.656155 1_555
O58 V3 1.750024 1_555
O58 V21 1.875734 1_545
O59 V20 1.750024 1_555
O59 V2 1.875734 1_565
