# generated using pymatgen
data_LiFe2(BO3)2
_symmetry_space_group_name_H-M   'P 1'
_cell_length_a   5.23741800
_cell_length_b   9.09770629
_cell_length_c   11.35785291
_cell_angle_alpha   112.55979810
_cell_angle_beta   103.18002307
_cell_angle_gamma   89.33797660
_symmetry_Int_Tables_number   1
_chemical_formula_structural   LiFe2(BO3)2
_chemical_formula_sum   'Li4 Fe8 B8 O24'
_cell_volume   484.87035920
_cell_formula_units_Z   4
loop_
 _symmetry_equiv_pos_site_id
 _symmetry_equiv_pos_as_xyz
  1  'x, y, z'
loop_
 _atom_site_type_symbol
 _atom_site_label
 _atom_site_symmetry_multiplicity
 _atom_site_fract_x
 _atom_site_fract_y
 _atom_site_fract_z
 _atom_site_occupancy
  Li  Li0  1  0.28197600  0.27683100  0.90317600  1
  Li  Li1  1  0.26669800  0.24791800  0.16155200  1
  Li  Li2  1  0.53224900  0.53865100  0.41686600  1
  Li  Li3  1  0.97614400  0.99524400  0.64688900  1
  Fe  Fe0  1  0.02854100  0.33627100  0.38188600  1
  Fe  Fe1  1  0.25768900  0.92909500  0.87892100  1
  Fe  Fe2  1  0.46449900  0.16714500  0.62670600  1
  Fe  Fe3  1  0.24940900  0.57327700  0.13263000  1
  Fe  Fe4  1  0.77001200  0.44505100  0.88195100  1
  Fe  Fe5  1  0.51769200  0.86236200  0.37693400  1
  Fe  Fe6  1  0.99190700  0.64285900  0.63333400  1
  Fe  Fe7  1  0.73409600  0.05719800  0.12317000  1
  B  B0  1  0.02079700  0.68801500  0.38590000  1
  B  B1  1  0.27011900  0.59608400  0.87379700  1
  B  B2  1  0.48292100  0.81528900  0.62190600  1
  B  B3  1  0.23237000  0.90576100  0.13420100  1
  B  B4  1  0.53019400  0.18449200  0.36846700  1
  B  B5  1  0.76338900  0.11343000  0.88048000  1
  B  B6  1  0.96810400  0.31727400  0.63756200  1
  B  B7  1  0.73754300  0.38351900  0.11901400  1
  O  O0  1  0.01605000  0.09862600  0.86263700  1
  O  O1  1  0.11630800  0.69712700  0.82571000  1
  O  O2  1  0.15264400  0.49576000  0.91840500  1
  O  O3  1  0.09649700  0.18606500  0.63742000  1
  O  O4  1  0.05566900  0.41911800  0.58613900  1
  O  O5  1  0.24086200  0.82672000  0.65839100  1
  O  O6  1  0.26848400  0.67668000  0.35305700  1
  O  O7  1  0.52986300  0.59658200  0.88012800  1
  O  O8  1  0.61167800  0.22771000  0.84834500  1
  O  O9  1  0.44388500  0.08564800  0.42157800  1
  O  O10  1  0.39733600  0.31453700  0.36225500  1
  O  O11  1  0.64729400  0.01875800  0.92839100  1
  O  O12  1  0.34992700  0.00850800  0.09081200  1
  O  O13  1  0.62745700  0.68552100  0.61499700  1
  O  O14  1  0.57396300  0.93287700  0.58701600  1
  O  O15  1  0.38493100  0.80553300  0.18291200  1
  O  O16  1  0.47143300  0.38394700  0.11593800  1
  O  O17  1  0.74541900  0.35154700  0.68674400  1
  O  O18  1  0.75203100  0.15081000  0.31885900  1
  O  O19  1  0.93434200  0.57228500  0.42505800  1
  O  O20  1  0.87019300  0.81059100  0.38343500  1
  O  O21  1  0.85940500  0.48378400  0.07868300  1
  O  O22  1  0.89199900  0.27603200  0.16022900  1
  O  O23  1  0.97165000  0.90513600  0.12600700  1
loop_
_geom_bond_atom_site_label_1
_geom_bond_atom_site_label_2
_geom_bond_distance
_geom_bond_site_symmetry_2
Li0 O8 1.956619 1_555
Li0 O0 1.991793 1_555
Li0 O2 2.052737 1_555
Li0 O16 2.212643 1_556
Li1 O16 1.930201 1_555
Li1 O22 1.973519 1_455
Li1 O10 2.066418 1_555
Li1 O12 2.091556 1_555
Li2 O10 1.975922 1_555
Li2 O6 2.052362 1_555
Li2 O13 2.072341 1_555
Li2 O19 2.107348 1_555
Li3 O3 1.903199 1_665
Li3 O14 2.073550 1_555
Li3 O5 2.076510 1_655
Li3 O0 2.221600 1_665
Fe0 O10 1.993332 1_555
Fe0 O18 2.028188 1_455
Fe0 O19 2.090989 1_455
Fe0 O4 2.116749 1_555
Fe0 O22 2.297651 1_455
Fe1 O0 2.020325 1_565
Fe1 O1 2.054421 1_555
Fe1 O11 2.075765 1_565
Fe1 O12 2.165864 1_566
Fe1 O5 2.293518 1_555
Fe2 O3 1.960216 1_555
Fe2 O17 2.041056 1_555
Fe2 O14 2.103988 1_545
Fe2 O9 2.133337 1_555
Fe2 O8 2.301183 1_555
Fe3 O16 2.039290 1_555
Fe3 O15 2.053922 1_555
Fe3 O21 2.072560 1_455
Fe3 O2 2.191726 1_554
Fe3 O6 2.289943 1_555
Fe4 O7 1.858183 1_555
Fe4 O2 1.974010 1_655
Fe4 O8 2.014337 1_555
Fe4 O17 2.020162 1_555
Fe4 O21 2.063673 1_556
Fe5 O20 1.892129 1_555
Fe5 O9 1.952941 1_565
Fe5 O15 2.010550 1_555
Fe5 O6 2.041764 1_555
Fe5 O14 2.168169 1_555
Fe6 O13 1.923815 1_555
Fe6 O4 1.941894 1_655
Fe6 O1 1.993215 1_655
Fe6 O5 2.023607 1_655
Fe6 O19 2.147765 1_555
Fe7 O23 1.854449 1_545
Fe7 O12 1.984469 1_555
Fe7 O22 2.015207 1_555
Fe7 O18 2.031835 1_555
Fe7 O11 2.043166 1_554
B0 O20 1.363852 1_455
B0 O19 1.404826 1_455
B0 O6 1.421506 1_555
B1 O7 1.345782 1_555
B1 O1 1.399916 1_555
B1 O2 1.406504 1_555
B2 O13 1.381430 1_555
B2 O14 1.397162 1_555
B2 O5 1.411814 1_555
B3 O23 1.347258 1_455
B3 O15 1.394507 1_555
B3 O12 1.414511 1_565
B4 O10 1.382588 1_555
B4 O18 1.385313 1_555
B4 O9 1.388107 1_555
B5 O0 1.381138 1_655
B5 O11 1.389342 1_555
B5 O8 1.409018 1_555
B6 O3 1.362930 1_655
B6 O17 1.387282 1_555
B6 O4 1.398974 1_655
B7 O21 1.384431 1_555
B7 O16 1.386179 1_555
B7 O22 1.410696 1_555
