# generated using pymatgen
data_V(SO4)2
_symmetry_space_group_name_H-M   'P 1'
_cell_length_a   8.73392085
_cell_length_b   8.73392131
_cell_length_c   8.73392048
_cell_angle_alpha   55.36563965
_cell_angle_beta   55.36564235
_cell_angle_gamma   55.36563853
_symmetry_Int_Tables_number   1
_chemical_formula_structural   V(SO4)2
_chemical_formula_sum   'V3 S6 O24'
_cell_volume   420.37947103
_cell_formula_units_Z   3
loop_
 _symmetry_equiv_pos_site_id
 _symmetry_equiv_pos_as_xyz
  1  'x, y, z'
loop_
 _atom_site_type_symbol
 _atom_site_label
 _atom_site_symmetry_multiplicity
 _atom_site_fract_x
 _atom_site_fract_y
 _atom_site_fract_z
 _atom_site_occupancy
  V  V0  1  0.14993817  0.14993817  0.14993817  1
  V  V1  1  0.64674153  0.64674153  0.64674153  1
  V  V2  1  0.84761216  0.84761216  0.84761216  1
  S  S0  1  0.75202118  0.04711779  0.45349588  1
  S  S1  1  0.04711779  0.45349588  0.75202118  1
  S  S2  1  0.45349588  0.75202118  0.04711779  1
  S  S3  1  0.53599458  0.25341303  0.96512577  1
  S  S4  1  0.96512577  0.53599458  0.25341303  1
  S  S5  1  0.25341303  0.96512577  0.53599458  1
  O  O0  1  0.27065236  0.12122878  0.52646008  1
  O  O1  1  0.52646008  0.27065236  0.12122878  1
  O  O2  1  0.97034185  -0.00061583  0.33214164  1
  O  O3  1  0.12122878  0.52646008  0.27065236  1
  O  O4  1  0.72255310  0.01211020  0.65725237  1
  O  O5  1  0.63163162  0.24155647  0.36909228  1
  O  O6  1  0.24155647  0.36909228  0.63163162  1
  O  O7  1  -0.00061583  0.33214164  0.97034185  1
  O  O8  1  0.36909228  0.63163162  0.24155647  1
  O  O9  1  0.67551600  0.04702160  0.95898985  1
  O  O10  1  0.34110059  0.28601487  0.98039438  1
  O  O11  1  0.98039438  0.34110059  0.28601487  1
  O  O12  1  0.01211020  0.65725237  0.72255310  1
  O  O13  1  0.65725237  0.72255310  0.01211020  1
  O  O14  1  0.33214164  0.97034185  -0.00061583  1
  O  O15  1  0.61261614  0.39546371  0.76335897  1
  O  O16  1  0.95898985  0.67551600  0.04702160  1
  O  O17  1  0.76335897  0.61261614  0.39546371  1
  O  O18  1  0.39546371  0.76335897  0.61261614  1
  O  O19  1  0.28601487  0.98039438  0.34110059  1
  O  O20  1  0.88610751  0.48576608  0.70674730  1
  O  O21  1  0.04702160  0.95898985  0.67551600  1
  O  O22  1  0.48576608  0.70674730  0.88610751  1
  O  O23  1  0.70674730  0.88610751  0.48576608  1
loop_
_geom_bond_atom_site_label_1
_geom_bond_atom_site_label_2
_geom_bond_distance
_geom_bond_site_symmetry_2
O0 S5 1.406583 1_545
O1 S3 1.406583 1_554
O2 S0 1.494825 1_555
O2 V0 1.962273 1_655
O3 S4 1.406583 1_455
O4 S0 1.508981 1_555
O4 V2 1.893849 1_545
O5 S0 1.400483 1_555
O6 S1 1.400483 1_555
O7 S1 1.494825 1_555
O7 V0 1.962273 1_556
O8 S2 1.400483 1_555
O9 S3 1.508618 1_555
O9 V2 1.878019 1_545
O10 S3 1.493493 1_555
O10 V0 1.958986 1_556
O11 S4 1.493493 1_555
O11 V0 1.958986 1_655
O12 S1 1.508981 1_555
O12 V2 1.893850 1_455
O13 S2 1.508981 1_555
O13 V2 1.893850 1_554
O14 S2 1.494825 1_555
O14 V0 1.962273 1_565
O15 S3 1.486816 1_555
O15 V1 1.949440 1_555
O16 S4 1.508618 1_555
O16 V2 1.878019 1_554
O17 S4 1.486816 1_555
O17 V1 1.949440 1_555
O18 S5 1.486816 1_555
O18 V1 1.949440 1_555
O19 S5 1.493493 1_555
O19 V0 1.958986 1_565
O20 S1 1.506053 1_655
O20 V1 1.920634 1_555
O21 S5 1.508618 1_555
O21 V2 1.878019 1_455
O22 S2 1.506053 1_556
O22 V1 1.920634 1_555
O23 S0 1.506053 1_565
O23 V1 1.920634 1_555
