# generated using pymatgen
data_Li4Ti3Cr2Fe3O16
_symmetry_space_group_name_H-M   'P 1'
_cell_length_a   5.93577044
_cell_length_b   5.93577044
_cell_length_c   9.60517379
_cell_angle_alpha   89.62241666
_cell_angle_beta   89.62241666
_cell_angle_gamma   59.89226583
_symmetry_Int_Tables_number   1
_chemical_formula_structural   Li4Ti3Cr2Fe3O16
_chemical_formula_sum   'Li4 Ti3 Cr2 Fe3 O16'
_cell_volume   292.75545542
_cell_formula_units_Z   1
loop_
 _symmetry_equiv_pos_site_id
 _symmetry_equiv_pos_as_xyz
  1  'x, y, z'
loop_
 _atom_site_type_symbol
 _atom_site_label
 _atom_site_symmetry_multiplicity
 _atom_site_fract_x
 _atom_site_fract_y
 _atom_site_fract_z
 _atom_site_occupancy
  Li  Li0  1  0.66872100  0.66872100  0.10812900  1
  Li  Li1  1  0.99615800  0.99615800  0.00512800  1
  Li  Li2  1  0.99652800  0.99652800  0.50333800  1
  Li  Li3  1  0.33279500  0.33279500  0.60449000  1
  Ti  Ti0  1  0.33663900  0.83238100  0.78648500  1
  Ti  Ti1  1  0.83238100  0.33663900  0.78648500  1
  Ti  Ti2  1  0.16911300  0.16911300  0.28580100  1
  Cr  Cr0  1  0.66552900  0.66552900  0.51374700  1
  Cr  Cr1  1  0.33630000  0.33630000  0.01745600  1
  Fe  Fe0  1  0.83074300  0.83074300  0.78633300  1
  Fe  Fe1  1  0.16993900  0.66061300  0.28736100  1
  Fe  Fe2  1  0.66061300  0.16993900  0.28736100  1
  O  O0  1  0.33005900  0.84137800  0.39947500  1
  O  O1  1  0.51918700  0.51918700  0.66308800  1
  O  O2  1  0.66276800  0.66276800  0.89586800  1
  O  O3  1  0.00230500  0.00230500  0.68898800  1
  O  O4  1  0.00052600  0.00052600  0.19092800  1
  O  O5  1  0.84137800  0.33005900  0.39947500  1
  O  O6  1  0.51337100  0.95706900  0.65819100  1
  O  O7  1  0.95706900  0.51337100  0.65819100  1
  O  O8  1  0.16504700  0.16504700  0.89446200  1
  O  O9  1  0.83384800  0.83384800  0.40047100  1
  O  O10  1  0.04082800  0.47272900  0.15904000  1
  O  O11  1  0.47272900  0.04082800  0.15904000  1
  O  O12  1  0.33004900  0.33004900  0.39696400  1
  O  O13  1  0.17319900  0.67223700  0.89846500  1
  O  O14  1  0.48079100  0.48079100  0.15875500  1
  O  O15  1  0.67223700  0.17319900  0.89846500  1
loop_
_geom_bond_atom_site_label_1
_geom_bond_atom_site_label_2
_geom_bond_distance
_geom_bond_site_symmetry_2
Li0 O10 1.974814 1_655
Li0 O11 1.974814 1_565
Li0 O14 1.989798 1_555
Li0 O2 2.040189 1_554
Li1 O4 1.785548 1_665
Li1 O13 1.958439 1_654
Li1 O15 1.958439 1_564
Li1 O8 2.029782 1_664
Li2 O3 1.784642 1_665
Li2 O9 1.949813 1_555
Li2 O0 1.979834 1_655
Li2 O5 1.979834 1_565
Li3 O12 1.993738 1_555
Li3 O6 1.995669 1_545
Li3 O7 1.995669 1_455
Li3 O1 2.002355 1_555
Cr0 O9 2.037900 1_555
Cr0 O6 2.045091 1_555
Cr0 O7 2.045091 1_555
Cr0 O0 2.046428 1_555
Cr0 O5 2.046428 1_555
Cr0 O1 2.071453 1_555
Cr1 O14 2.020357 1_555
Cr1 O11 2.034551 1_555
Cr1 O10 2.034551 1_555
Cr1 O13 2.065804 1_554
Cr1 O15 2.065804 1_554
Cr1 O8 2.128522 1_554
Fe0 O3 1.990893 1_665
Fe0 O2 2.016159 1_555
Fe0 O7 2.056037 1_555
Fe0 O6 2.056037 1_555
Fe0 O15 2.067373 1_565
Fe0 O13 2.067373 1_655
Fe1 O4 1.972859 1_565
Fe1 O12 1.994156 1_555
Fe1 O14 2.020209 1_555
Fe1 O9 2.036094 1_455
Fe1 O10 2.058709 1_555
Fe1 O0 2.065456 1_555
Fe2 O4 1.972859 1_655
Fe2 O12 1.994156 1_555
Fe2 O14 2.020209 1_555
Fe2 O9 2.036094 1_545
Fe2 O11 2.058709 1_555
Fe2 O5 2.065456 1_555
O0 Ti2 2.002618 1_565
O1 Ti0 2.006526 1_555
O1 Ti1 2.006526 1_555
O2 Ti0 1.980518 1_555
O2 Ti1 1.980518 1_555
O3 Ti1 1.958712 1_455
O3 Ti0 1.958712 1_545
O4 Ti2 1.965166 1_555
O5 Ti2 2.002618 1_655
O6 Ti0 1.979059 1_555
O7 Ti1 1.979059 1_555
O8 Ti1 2.001880 1_455
O8 Ti0 2.001880 1_545
O10 Ti2 1.979069 1_555
O11 Ti2 1.979069 1_555
O12 Ti2 1.976765 1_555
O13 Ti0 1.974749 1_555
O15 Ti1 1.974749 1_555
