# generated using pymatgen
data_Li3MnFe2(BO3)3
_symmetry_space_group_name_H-M   'P 1'
_cell_length_a   6.28781600
_cell_length_b   8.26199900
_cell_length_c   8.26740769
_cell_angle_alpha   60.03060340
_cell_angle_beta   90.00000000
_cell_angle_gamma   90.00000000
_symmetry_Int_Tables_number   1
_chemical_formula_structural   Li3MnFe2(BO3)3
_chemical_formula_sum   'Li6 Mn2 Fe4 B6 O18'
_cell_volume   372.06497951
_cell_formula_units_Z   2
loop_
 _symmetry_equiv_pos_site_id
 _symmetry_equiv_pos_as_xyz
  1  'x, y, z'
loop_
 _atom_site_type_symbol
 _atom_site_label
 _atom_site_symmetry_multiplicity
 _atom_site_fract_x
 _atom_site_fract_y
 _atom_site_fract_z
 _atom_site_occupancy
  Li  Li0  1  0.74964100  0.71556400  0.30163100  1
  Li  Li1  1  0.25035900  0.71556400  0.30163100  1
  Li  Li2  1  0.74902700  0.98317600  0.71511100  1
  Li  Li3  1  0.25097300  0.98317600  0.71511100  1
  Li  Li4  1  0.24876500  0.30143600  0.98420000  1
  Li  Li5  1  0.75123500  0.30143600  0.98420000  1
  Mn  Mn0  1  0.50000000  0.62663600  0.01227000  1
  Mn  Mn1  1  0.00000000  0.36038600  0.62711200  1
  Fe  Fe0  1  0.00000000  0.63416900  0.00673300  1
  Fe  Fe1  1  0.50000000  0.35885200  0.63420900  1
  Fe  Fe2  1  0.00000000  0.00795900  0.36007900  1
  Fe  Fe3  1  0.50000000  0.00813000  0.35933300  1
  B  B0  1  0.00000000  0.99945100  0.00348400  1
  B  B1  1  0.50000000  0.00167700  0.99838300  1
  B  B2  1  0.74996900  0.66776100  0.66507200  1
  B  B3  1  0.25003100  0.66776100  0.66507200  1
  B  B4  1  0.74996700  0.33189000  0.33387800  1
  B  B5  1  0.25003300  0.33189000  0.33387800  1
  O  O0  1  0.50000000  0.89246900  0.19211300  1
  O  O1  1  0.00000000  0.88839800  0.19696900  1
  O  O2  1  0.74975400  0.86192200  0.55745000  1
  O  O3  1  0.25024600  0.86192200  0.55745000  1
  O  O4  1  0.00000000  0.91492800  0.89253800  1
  O  O5  1  0.50000000  0.91936100  0.88761100  1
  O  O6  1  0.74585900  0.56005700  0.57924300  1
  O  O7  1  0.25414100  0.56005700  0.57924300  1
  O  O8  1  0.75428600  0.58163300  0.85871400  1
  O  O9  1  0.24571400  0.58163300  0.85871400  1
  O  O10  1  0.75282600  0.52578000  0.22063000  1
  O  O11  1  0.24717400  0.52578000  0.22063000  1
  O  O12  1  0.00000000  0.19249000  0.92019700  1
  O  O13  1  0.50000000  0.19664400  0.91508600  1
  O  O14  1  0.75029500  0.21808200  0.25384200  1
  O  O15  1  0.24970500  0.21808200  0.25384200  1
  O  O16  1  0.25321700  0.25192500  0.52717100  1
  O  O17  1  0.74678300  0.25192500  0.52717100  1
loop_
_geom_bond_atom_site_label_1
_geom_bond_atom_site_label_2
_geom_bond_distance
_geom_bond_site_symmetry_2
Li0 O10 1.989103 1_555
Li0 O6 1.993201 1_555
Li0 O1 2.007852 1_655
Li0 O0 2.024315 1_555
Li1 O11 1.989103 1_555
Li1 O7 1.993201 1_555
Li1 O1 2.007852 1_555
Li1 O0 2.024315 1_555
Li2 O17 1.974283 1_565
Li2 O2 2.001796 1_555
Li2 O5 2.003110 1_555
Li2 O4 2.033123 1_655
Li3 O16 1.974283 1_565
Li3 O3 2.001796 1_555
Li3 O5 2.003110 1_555
Li3 O4 2.033123 1_555
Li4 O15 1.977378 1_556
Li4 O12 2.003177 1_555
Li4 O9 2.009074 1_555
Li4 O13 2.016395 1_555
Li5 O14 1.977378 1_556
Li5 O12 2.003177 1_655
Li5 O8 2.009074 1_555
Li5 O13 2.016395 1_555
Mn0 O5 2.102630 1_554
Mn0 O10 2.180559 1_555
Mn0 O11 2.180559 1_555
Mn0 O8 2.185859 1_554
Mn0 O9 2.185859 1_554
Mn1 O12 2.106501 1_555
Mn1 O16 2.181849 1_555
Mn1 O17 2.181849 1_455
Mn1 O6 2.186181 1_455
Mn1 O7 2.186181 1_555
Fe0 O4 2.020910 1_554
Fe0 O9 2.145609 1_554
Fe0 O8 2.145609 1_454
Fe0 O11 2.182302 1_555
Fe0 O10 2.182302 1_455
Fe1 O13 2.019691 1_555
Fe1 O7 2.145942 1_555
Fe1 O6 2.145942 1_555
Fe1 O16 2.180011 1_555
Fe1 O17 2.180011 1_555
Fe2 O1 2.031021 1_545
Fe2 O2 2.151118 1_445
Fe2 O3 2.151118 1_545
Fe2 O14 2.174188 1_455
Fe2 O15 2.174188 1_555
Fe3 O0 2.035744 1_545
Fe3 O2 2.152072 1_545
Fe3 O3 2.152072 1_545
Fe3 O15 2.176002 1_555
Fe3 O14 2.176002 1_555
B0 O12 1.385865 1_564
B0 O1 1.390791 1_555
B0 O4 1.403184 1_554
B1 O5 1.386891 1_545
B1 O0 1.391251 1_546
B1 O13 1.400253 1_555
B2 O6 1.388110 1_555
B2 O8 1.389925 1_555
B2 O2 1.392480 1_555
B3 O7 1.388110 1_555
B3 O9 1.389925 1_555
B3 O3 1.392480 1_555
B4 O17 1.391329 1_555
B4 O14 1.394119 1_555
B4 O10 1.394499 1_555
B5 O16 1.391329 1_555
B5 O15 1.394119 1_555
B5 O11 1.394499 1_555
