# generated using pymatgen
data_KFeH2S2O9
_symmetry_space_group_name_H-M   'P 1'
_cell_length_a   8.14637305
_cell_length_b   10.34980907
_cell_length_c   9.36371721
_cell_angle_alpha   89.99255933
_cell_angle_beta   102.96141592
_cell_angle_gamma   90.01257168
_symmetry_Int_Tables_number   1
_chemical_formula_structural   KFeH2S2O9
_chemical_formula_sum   'K4 Fe4 H8 S8 O36'
_cell_volume   769.37179176
_cell_formula_units_Z   4
loop_
 _symmetry_equiv_pos_site_id
 _symmetry_equiv_pos_as_xyz
  1  'x, y, z'
loop_
 _atom_site_type_symbol
 _atom_site_label
 _atom_site_symmetry_multiplicity
 _atom_site_fract_x
 _atom_site_fract_y
 _atom_site_fract_z
 _atom_site_occupancy
  K  K0  1  0.42673500  0.37500400  0.78347800  1
  K  K1  1  0.42673300  0.87500800  0.78347200  1
  K  K2  1  0.57326600  0.12499600  0.21652300  1
  K  K3  1  0.57326900  0.62499700  0.21652500  1
  Fe  Fe0  1  0.08716400  0.62498700  0.22349700  1
  Fe  Fe1  1  0.91284300  0.87500900  0.77652600  1
  Fe  Fe2  1  0.08716300  0.12499400  0.22347600  1
  Fe  Fe3  1  0.91284100  0.37500800  0.77652300  1
  H  H0  1  0.16570500  0.04701900  0.49268500  1
  H  H1  1  0.16570700  0.54701100  0.49269200  1
  H  H2  1  0.16572300  0.20299100  0.49268000  1
  H  H3  1  0.16572200  0.70299100  0.49268800  1
  H  H4  1  0.83427300  0.29700800  0.50731900  1
  H  H5  1  0.83427700  0.79701300  0.50731200  1
  H  H6  1  0.83429100  0.45298200  0.50731300  1
  H  H7  1  0.83429400  0.95298300  0.50730600  1
  S  S0  1  0.15698100  0.12500100  0.88575000  1
  S  S1  1  0.15697900  0.62499400  0.88574900  1
  S  S2  1  0.84301800  0.37500000  0.11424700  1
  S  S3  1  0.84302000  0.87500500  0.11425300  1
  S  S4  1  0.33173900  0.37499700  0.34476100  1
  S  S5  1  0.33173700  0.87500600  0.34476100  1
  S  S6  1  0.66826200  0.12500200  0.65523900  1
  S  S7  1  0.66826300  0.62499400  0.65523800  1
  O  O0  1  0.10459200  0.12499900  0.44833600  1
  O  O1  1  0.10459200  0.62499600  0.44835100  1
  O  O2  1  0.89540600  0.37500100  0.55166000  1
  O  O3  1  0.89540700  0.87500300  0.55165900  1
  O  O4  1  0.06696800  0.12496300  0.00755300  1
  O  O5  1  0.06697500  0.62495900  0.00756200  1
  O  O6  1  0.93302800  0.37503600  0.99244400  1
  O  O7  1  0.93303000  0.87504200  0.99244200  1
  O  O8  1  0.33984800  0.12494500  0.93508200  1
  O  O9  1  0.33984700  0.62493900  0.93507700  1
  O  O10  1  0.66015000  0.37506000  0.06491700  1
  O  O11  1  0.66015200  0.87505700  0.06492200  1
  O  O12  1  0.25710800  0.37497100  0.47516800  1
  O  O13  1  0.25710400  0.87497900  0.47516800  1
  O  O14  1  0.74288900  0.12503300  0.52482900  1
  O  O15  1  0.74289200  0.62501800  0.52482900  1
  O  O16  1  0.48489100  0.12499600  0.62372800  1
  O  O17  1  0.48489200  0.62499200  0.62372700  1
  O  O18  1  0.51511000  0.37500000  0.37627100  1
  O  O19  1  0.51510800  0.87501300  0.37627400  1
  O  O20  1  0.10177300  0.00765200  0.79204800  1
  O  O21  1  0.10176300  0.50765200  0.79204300  1
  O  O22  1  0.10193200  0.24236600  0.79206300  1
  O  O23  1  0.10192800  0.74236300  0.79206500  1
  O  O24  1  0.89806900  0.25763500  0.20793400  1
  O  O25  1  0.89807100  0.75763500  0.20793300  1
  O  O26  1  0.89822600  0.49234800  0.20795100  1
  O  O27  1  0.89823700  0.99234900  0.20795400  1
  O  O28  1  0.26919300  0.25799300  0.25032900  1
  O  O29  1  0.26918900  0.75799500  0.25033500  1
  O  O30  1  0.26922300  0.49201400  0.25035100  1
  O  O31  1  0.26922600  0.99201800  0.25034500  1
  O  O32  1  0.73077800  0.00798500  0.74964900  1
  O  O33  1  0.73077700  0.50798300  0.74965400  1
  O  O34  1  0.73080800  0.24200700  0.74967100  1
  O  O35  1  0.73081000  0.74200500  0.74966500  1
loop_
_geom_bond_atom_site_label_1
_geom_bond_atom_site_label_2
_geom_bond_distance
_geom_bond_site_symmetry_2
K0 O10 2.883166 1_556
K0 O12 2.907627 1_555
K0 O33 2.911968 1_555
K0 O34 2.912782 1_555
K0 O22 2.997651 1_555
K0 O21 2.999421 1_555
K0 O17 3.077775 1_555
K0 O16 3.078443 1_555
K0 O9 3.108053 1_555
K0 O8 3.108577 1_555
K1 O11 2.883260 1_556
K1 O13 2.907581 1_555
K1 O32 2.911977 1_565
K1 O35 2.912840 1_555
K1 O23 2.997716 1_555
K1 O20 2.999339 1_565
K1 O16 3.077743 1_565
K1 O17 3.078495 1_555
K1 O8 3.108115 1_565
K1 O9 3.108665 1_555
K2 O8 2.883191 1_554
K2 O14 2.907585 1_555
K2 O31 2.911943 1_545
K2 O28 2.912779 1_555
K2 O24 2.997664 1_555
K2 O27 2.999418 1_545
K2 O19 3.077734 1_545
K2 O18 3.078399 1_555
K2 O11 3.108092 1_545
K2 O10 3.108622 1_555
K3 O9 2.883256 1_554
K3 O15 2.907569 1_555
K3 O30 2.912022 1_555
K3 O29 2.912845 1_555
K3 O25 2.997659 1_555
K3 O26 2.999336 1_555
K3 O18 3.077833 1_555
K3 O19 3.078519 1_555
K3 O10 3.108094 1_555
K3 O11 3.108570 1_555
Fe0 O5 1.991525 1_555
Fe0 O29 1.997262 1_555
Fe0 O30 1.997608 1_555
Fe0 O26 2.042882 1_455
Fe0 O25 2.044288 1_455
Fe0 O1 2.078236 1_555
Fe1 O7 1.991350 1_555
Fe1 O35 1.997271 1_555
Fe1 O32 1.997655 1_565
Fe1 O20 2.042884 1_665
Fe1 O23 2.044249 1_655
Fe1 O3 2.078347 1_555
Fe2 O4 1.991406 1_555
Fe2 O28 1.997221 1_555
Fe2 O31 1.997647 1_545
Fe2 O27 2.042874 1_445
Fe2 O24 2.044265 1_455
Fe2 O0 2.078290 1_555
Fe3 O6 1.991397 1_555
Fe3 O34 1.997254 1_555
Fe3 O33 1.997645 1_555
Fe3 O21 2.042844 1_655
Fe3 O22 2.044256 1_655
Fe3 O2 2.078311 1_555
H0 O0 0.989457 1_555
H1 O1 0.989483 1_555
H2 O0 0.989514 1_555
H3 O1 0.989516 1_555
H4 O2 0.989521 1_555
H5 O3 0.989503 1_555
H6 O2 0.989467 1_555
H7 O3 0.989469 1_555
O4 S0 1.487841 1_554
O5 S1 1.487875 1_554
O6 S2 1.487825 1_556
O7 S3 1.487891 1_556
O8 S0 1.457362 1_555
O9 S1 1.457366 1_555
O10 S2 1.457368 1_555
O11 S3 1.457369 1_555
O12 S4 1.481125 1_555
O13 S5 1.481134 1_555
O14 S6 1.481131 1_555
O15 S7 1.481132 1_555
O16 S6 1.456298 1_555
O17 S7 1.456298 1_555
O18 S4 1.456298 1_555
O19 S5 1.456297 1_555
O20 S0 1.506727 1_555
O21 S1 1.506699 1_555
O22 S0 1.506547 1_555
O23 S1 1.506568 1_555
O24 S2 1.506549 1_555
O25 S3 1.506557 1_555
O26 S2 1.506729 1_555
O27 S3 1.506693 1_555
O28 S4 1.518496 1_555
O29 S5 1.518529 1_555
O30 S4 1.518444 1_555
O31 S5 1.518423 1_555
O32 S6 1.518444 1_555
O33 S7 1.518420 1_555
O34 S6 1.518505 1_555
O35 S7 1.518532 1_555
