# generated using pymatgen
data_CaSiSnO5
_symmetry_space_group_name_H-M   'P 1'
_cell_length_a   7.25869900
_cell_length_b   5.63789961
_cell_length_c   5.62448095
_cell_angle_alpha   106.09956736
_cell_angle_beta   103.70907362
_cell_angle_gamma   103.90871486
_symmetry_Int_Tables_number   1
_chemical_formula_structural   CaSiSnO5
_chemical_formula_sum   'Ca2 Si2 Sn2 O10'
_cell_volume   202.96706187
_cell_formula_units_Z   2
loop_
 _symmetry_equiv_pos_site_id
 _symmetry_equiv_pos_as_xyz
  1  'x, y, z'
loop_
 _atom_site_type_symbol
 _atom_site_label
 _atom_site_symmetry_multiplicity
 _atom_site_fract_x
 _atom_site_fract_y
 _atom_site_fract_z
 _atom_site_occupancy
  Ca  Ca0  1  0.16009300  0.75420500  0.83799800  1
  Ca  Ca1  1  0.83990700  0.24579500  0.16200200  1
  Si  Si0  1  0.18324700  0.25072700  0.81792400  1
  Si  Si1  1  0.81675300  0.74927300  0.18207600  1
  Sn  Sn0  1  0.50000000  0.50000000  0.50000000  1
  Sn  Sn1  1  0.50000000  0.00000000  0.50000000  1
  O  O0  1  0.58898300  0.24948700  0.40942800  1
  O  O1  1  0.41101700  0.75051300  0.59057200  1
  O  O2  1  0.89523900  0.08680200  0.75824900  1
  O  O3  1  0.10476100  0.91319800  0.24175100  1
  O  O4  1  0.24034500  0.41226700  0.10649600  1
  O  O5  1  0.75965500  0.58773300  0.89350400  1
  O  O6  1  0.82323200  0.62987000  0.39897900  1
  O  O7  1  0.17676800  0.37013000  0.60102100  1
  O  O8  1  0.59926500  0.86932600  0.17558500  1
  O  O9  1  0.40073500  0.13067400  0.82441500  1
loop_
_geom_bond_atom_site_label_1
_geom_bond_atom_site_label_2
_geom_bond_distance
_geom_bond_site_symmetry_2
Ca0 O7 2.254287 1_555
Ca0 O3 2.366058 1_556
Ca0 O9 2.435726 1_565
Ca0 O1 2.541281 1_555
Ca0 Si0 2.799180 1_565
Ca0 O6 2.814543 1_455
Ca0 O4 2.841471 1_556
Ca0 O5 2.950951 1_455
Ca0 O2 3.033844 1_465
Ca0 O8 3.105085 1_556
Ca1 O6 2.254287 1_555
Ca1 O2 2.366058 1_554
Ca1 O8 2.435726 1_545
Ca1 O0 2.541281 1_555
Ca1 Si1 2.799180 1_545
Ca1 O7 2.814543 1_655
Ca1 O5 2.841471 1_554
Ca1 O4 2.950951 1_655
Ca1 O3 3.033844 1_645
Ca1 O9 3.105085 1_554
O0 Sn1 1.664862 1_555
O0 Sn0 1.693210 1_555
O1 Sn1 1.664862 1_565
O1 Sn0 1.693210 1_555
O2 Si0 1.975795 1_655
O3 Si1 1.975795 1_455
O4 Si0 1.521656 1_554
O5 Si1 1.521656 1_556
O6 Si1 1.545061 1_555
O6 Sn0 2.529927 1_555
O7 Si0 1.545061 1_555
O7 Sn0 2.529927 1_555
O8 Si1 1.857893 1_555
O8 Sn1 2.127005 1_565
O9 Si0 1.857893 1_555
O9 Sn1 2.127005 1_555
