# generated using pymatgen
data_LiTi(SiO3)2
_symmetry_space_group_name_H-M   'P 1'
_cell_length_a   5.22787400
_cell_length_b   8.73561700
_cell_length_c   18.60902400
_cell_angle_alpha   90.00000000
_cell_angle_beta   90.00000000
_cell_angle_gamma   90.00000000
_symmetry_Int_Tables_number   1
_chemical_formula_structural   LiTi(SiO3)2
_chemical_formula_sum   'Li8 Ti8 Si16 O48'
_cell_volume   849.85002718
_cell_formula_units_Z   8
loop_
 _symmetry_equiv_pos_site_id
 _symmetry_equiv_pos_as_xyz
  1  'x, y, z'
loop_
 _atom_site_type_symbol
 _atom_site_label
 _atom_site_symmetry_multiplicity
 _atom_site_fract_x
 _atom_site_fract_y
 _atom_site_fract_z
 _atom_site_occupancy
  Li  Li0  1  0.63359400  0.01658800  0.12232500  1
  Li  Li1  1  0.13359400  0.48341200  0.12232500  1
  Li  Li2  1  0.13359400  0.98341200  0.37767500  1
  Li  Li3  1  0.63359400  0.51658800  0.37767500  1
  Li  Li4  1  0.36640600  0.48341200  0.62232500  1
  Li  Li5  1  0.86640600  0.01658800  0.62232500  1
  Li  Li6  1  0.36640600  0.98341200  0.87767500  1
  Li  Li7  1  0.86640600  0.51658800  0.87767500  1
  Ti  Ti0  1  0.62781200  0.66009100  0.12457200  1
  Ti  Ti1  1  0.12781200  0.83990900  0.12457200  1
  Ti  Ti2  1  0.12781200  0.33990900  0.37542800  1
  Ti  Ti3  1  0.62781200  0.16009100  0.37542800  1
  Ti  Ti4  1  0.37218800  0.83990900  0.62457200  1
  Ti  Ti5  1  0.87218800  0.66009100  0.62457200  1
  Ti  Ti6  1  0.37218800  0.33990900  0.87542800  1
  Ti  Ti7  1  0.87218800  0.16009100  0.87542800  1
  Si  Si0  1  0.70771900  0.33854800  0.02824300  1
  Si  Si1  1  0.20771900  0.16145200  0.02824300  1
  Si  Si2  1  0.45143300  0.34315000  0.22513100  1
  Si  Si3  1  0.95143300  0.15685000  0.22513100  1
  Si  Si4  1  0.45143300  0.84315000  0.27486900  1
  Si  Si5  1  0.95143300  0.65685000  0.27486900  1
  Si  Si6  1  0.70771900  0.83854800  0.47175700  1
  Si  Si7  1  0.20771900  0.66145200  0.47175700  1
  Si  Si8  1  0.79228100  0.33854800  0.52824300  1
  Si  Si9  1  0.29228100  0.16145200  0.52824300  1
  Si  Si10  1  0.04856700  0.34315000  0.72513100  1
  Si  Si11  1  0.54856700  0.15685000  0.72513100  1
  Si  Si12  1  0.04856700  0.84315000  0.77486900  1
  Si  Si13  1  0.54856700  0.65685000  0.77486900  1
  Si  Si14  1  0.79228100  0.83854800  0.97175700  1
  Si  Si15  1  0.29228100  0.66145200  0.97175700  1
  O  O0  1  0.41042600  0.29774200  0.05354800  1
  O  O1  1  0.91042600  0.20225800  0.05354800  1
  O  O2  1  0.79180500  0.83705400  0.06092200  1
  O  O3  1  0.29180500  0.66294600  0.06092200  1
  O  O4  1  0.79677300  0.49525900  0.06694400  1
  O  O5  1  0.29677300  0.00474100  0.06694400  1
  O  O6  1  0.46146300  0.84017300  0.18610400  1
  O  O7  1  0.96146300  0.65982700  0.18610400  1
  O  O8  1  0.96023000  0.98930900  0.18885200  1
  O  O9  1  0.46023000  0.51069100  0.18885200  1
  O  O10  1  0.67840200  0.22897600  0.19574000  1
  O  O11  1  0.17840200  0.27102400  0.19574000  1
  O  O12  1  0.17840200  0.77102400  0.30426000  1
  O  O13  1  0.67840200  0.72897600  0.30426000  1
  O  O14  1  0.96023000  0.48930900  0.31114800  1
  O  O15  1  0.46023000  0.01069100  0.31114800  1
  O  O16  1  0.46146300  0.34017300  0.31389600  1
  O  O17  1  0.96146300  0.15982700  0.31389600  1
  O  O18  1  0.79677300  0.99525900  0.43305600  1
  O  O19  1  0.29677300  0.50474100  0.43305600  1
  O  O20  1  0.79180500  0.33705400  0.43907800  1
  O  O21  1  0.29180500  0.16294600  0.43907800  1
  O  O22  1  0.41042600  0.79774200  0.44645200  1
  O  O23  1  0.91042600  0.70225800  0.44645200  1
  O  O24  1  0.08957400  0.29774200  0.55354800  1
  O  O25  1  0.58957400  0.20225800  0.55354800  1
  O  O26  1  0.70819500  0.83705400  0.56092200  1
  O  O27  1  0.20819500  0.66294600  0.56092200  1
  O  O28  1  0.70322700  0.49525900  0.56694400  1
  O  O29  1  0.20322700  0.00474100  0.56694400  1
  O  O30  1  0.03853700  0.84017300  0.68610400  1
  O  O31  1  0.53853700  0.65982700  0.68610400  1
  O  O32  1  0.53977000  0.98930900  0.68885200  1
  O  O33  1  0.03977000  0.51069100  0.68885200  1
  O  O34  1  0.32159800  0.27102400  0.69574000  1
  O  O35  1  0.82159800  0.22897600  0.69574000  1
  O  O36  1  0.32159800  0.77102400  0.80426000  1
  O  O37  1  0.82159800  0.72897600  0.80426000  1
  O  O38  1  0.53977000  0.48930900  0.81114800  1
  O  O39  1  0.03977000  0.01069100  0.81114800  1
  O  O40  1  0.03853700  0.34017300  0.81389600  1
  O  O41  1  0.53853700  0.15982700  0.81389600  1
  O  O42  1  0.70322700  0.99525900  0.93305600  1
  O  O43  1  0.20322700  0.50474100  0.93305600  1
  O  O44  1  0.70819500  0.33705400  0.93907800  1
  O  O45  1  0.20819500  0.16294600  0.93907800  1
  O  O46  1  0.08957400  0.79774200  0.94645200  1
  O  O47  1  0.58957400  0.70225800  0.94645200  1
loop_
_geom_bond_atom_site_label_1
_geom_bond_atom_site_label_2
_geom_bond_distance
_geom_bond_site_symmetry_2
Li0 O5 2.042900 1_555
Li0 O2 2.109371 1_545
Li0 O8 2.122587 1_545
Li0 O6 2.143222 1_545
Li0 O10 2.315947 1_555
Li0 O1 2.522555 1_555
Li1 O4 2.042900 1_455
Li1 O3 2.109371 1_555
Li1 O9 2.122587 1_555
Li1 O7 2.143222 1_455
Li1 O11 2.315947 1_555
Li1 O0 2.522555 1_555
Li2 O18 2.042900 1_455
Li2 O21 2.109371 1_565
Li2 O15 2.122587 1_565
Li2 O17 2.143222 1_465
Li2 O12 2.315947 1_555
Li2 O22 2.522555 1_555
Li3 O19 2.042900 1_555
Li3 O20 2.109371 1_555
Li3 O14 2.122587 1_555
Li3 O16 2.143222 1_555
Li3 O13 2.315947 1_555
Li3 O23 2.522555 1_555
Li4 O28 2.042900 1_555
Li4 O27 2.109371 1_555
Li4 O33 2.122587 1_555
Li4 O31 2.143222 1_555
Li4 O34 2.315947 1_555
Li4 O24 2.522555 1_555
Li5 O29 2.042900 1_655
Li5 O26 2.109371 1_545
Li5 O32 2.122587 1_545
Li5 O30 2.143222 1_645
Li5 O35 2.315947 1_555
Li5 O25 2.522555 1_555
Li6 O42 2.042900 1_555
Li6 O45 2.109371 1_565
Li6 O39 2.122587 1_565
Li6 O41 2.143222 1_565
Li6 O36 2.315947 1_555
Li6 O46 2.522555 1_555
Li7 O43 2.042900 1_655
Li7 O44 2.109371 1_555
Li7 O38 2.122587 1_555
Li7 O40 2.143222 1_655
Li7 O37 2.315947 1_555
Li7 O47 2.522555 1_555
O0 Si1 1.662000 1_555
O0 Si0 1.662644 1_555
O1 Si0 1.662000 1_555
O1 Si1 1.662644 1_655
O2 Si14 1.659327 1_554
O2 Ti1 2.118780 1_655
O2 Ti0 2.127846 1_555
O3 Si15 1.659327 1_554
O3 Ti0 2.118780 1_555
O3 Ti1 2.127846 1_555
O4 Si0 1.615392 1_555
O4 Ti0 2.000903 1_555
O5 Si1 1.615392 1_555
O5 Ti1 2.000903 1_545
O6 Si4 1.652867 1_555
O6 Ti1 2.086547 1_555
O6 Ti0 2.131235 1_555
O7 Si5 1.652867 1_555
O7 Ti0 2.086547 1_555
O7 Ti1 2.131235 1_655
O8 Si3 1.612435 1_565
O8 Ti1 1.975273 1_655
O9 Si2 1.612435 1_555
O9 Ti0 1.975273 1_555
O10 Si2 1.643729 1_555
O10 Si3 1.653334 1_555
O11 Si3 1.643729 1_455
O11 Si2 1.653334 1_555
O12 Si5 1.643729 1_455
O12 Si4 1.653334 1_555
O13 Si4 1.643729 1_555
O13 Si5 1.653334 1_555
O14 Si5 1.612435 1_555
O14 Ti2 1.975273 1_655
O15 Si4 1.612435 1_545
O15 Ti3 1.975273 1_555
O16 Si2 1.652867 1_555
O16 Ti2 2.086547 1_555
O16 Ti3 2.131235 1_555
O17 Si3 1.652867 1_555
O17 Ti3 2.086547 1_555
O17 Ti2 2.131235 1_655
O18 Si6 1.615392 1_555
O18 Ti3 2.000903 1_565
O19 Si7 1.615392 1_555
O19 Ti2 2.000903 1_555
O20 Si8 1.659327 1_555
O20 Ti2 2.118780 1_655
O20 Ti3 2.127846 1_555
O21 Si9 1.659327 1_555
O21 Ti3 2.118780 1_555
O21 Ti2 2.127846 1_555
O22 Si7 1.662000 1_555
O22 Si6 1.662644 1_555
O23 Si6 1.662000 1_555
O23 Si7 1.662644 1_655
O24 Si9 1.662000 1_555
O24 Si8 1.662644 1_455
O25 Si8 1.662000 1_555
O25 Si9 1.662644 1_555
O26 Si6 1.659327 1_555
O26 Ti4 2.118780 1_555
O26 Ti5 2.127846 1_555
O27 Si7 1.659327 1_555
O27 Ti5 2.118780 1_455
O27 Ti4 2.127846 1_555
O28 Si8 1.615392 1_555
O28 Ti5 2.000903 1_555
O29 Si9 1.615392 1_555
O29 Ti4 2.000903 1_545
O30 Si12 1.652867 1_555
O30 Ti4 2.086547 1_555
O30 Ti5 2.131235 1_455
O31 Si13 1.652867 1_555
O31 Ti5 2.086547 1_555
O31 Ti4 2.131235 1_555
O32 Si11 1.612435 1_565
O32 Ti4 1.975273 1_555
O33 Si10 1.612435 1_555
O33 Ti5 1.975273 1_455
O34 Si11 1.643729 1_555
O34 Si10 1.653334 1_555
O35 Si10 1.643729 1_655
O35 Si11 1.653334 1_555
O36 Si13 1.643729 1_555
O36 Si12 1.653334 1_555
O37 Si12 1.643729 1_655
O37 Si13 1.653334 1_555
O38 Si13 1.612435 1_555
O38 Ti6 1.975273 1_555
O39 Si12 1.612435 1_545
O39 Ti7 1.975273 1_455
O40 Si10 1.652867 1_555
O40 Ti6 2.086547 1_555
O40 Ti7 2.131235 1_455
O41 Si11 1.652867 1_555
O41 Ti7 2.086547 1_555
O41 Ti6 2.131235 1_555
O42 Si14 1.615392 1_555
O42 Ti7 2.000903 1_565
O43 Si15 1.615392 1_555
O43 Ti6 2.000903 1_555
O44 Si0 1.659327 1_556
O44 Ti6 2.118780 1_555
O44 Ti7 2.127846 1_555
O45 Si1 1.659327 1_556
O45 Ti7 2.118780 1_455
O45 Ti6 2.127846 1_555
O46 Si15 1.662000 1_555
O46 Si14 1.662644 1_455
O47 Si14 1.662000 1_555
O47 Si15 1.662644 1_555
