# generated using pymatgen
data_LiCuSbO4
_symmetry_space_group_name_H-M   'P 1'
_cell_length_a   6.15730400
_cell_length_b   6.15730400
_cell_length_c   8.45402400
_cell_angle_alpha   90.00000000
_cell_angle_beta   90.00000000
_cell_angle_gamma   90.00000000
_symmetry_Int_Tables_number   1
_chemical_formula_structural   LiCuSbO4
_chemical_formula_sum   'Li4 Cu4 Sb4 O16'
_cell_volume   320.51227650
_cell_formula_units_Z   4
loop_
 _symmetry_equiv_pos_site_id
 _symmetry_equiv_pos_as_xyz
  1  'x, y, z'
loop_
 _atom_site_type_symbol
 _atom_site_label
 _atom_site_symmetry_multiplicity
 _atom_site_fract_x
 _atom_site_fract_y
 _atom_site_fract_z
 _atom_site_occupancy
  Li  Li0  1  0.50000000  0.71132000  0.00000000  1
  Li  Li1  1  0.50000000  0.28868000  0.50000000  1
  Li  Li2  1  0.71132000  0.50000000  0.25000000  1
  Li  Li3  1  0.28868000  0.50000000  0.75000000  1
  Cu  Cu0  1  0.74942900  0.74942900  0.62500000  1
  Cu  Cu1  1  0.74942900  0.25057100  0.87500000  1
  Cu  Cu2  1  0.25057100  0.74942900  0.37500000  1
  Cu  Cu3  1  0.25057100  0.25057100  0.12500000  1
  Sb  Sb0  1  0.72683100  0.00000000  0.25000000  1
  Sb  Sb1  1  0.00000000  0.72683100  0.00000000  1
  Sb  Sb2  1  0.00000000  0.27316900  0.50000000  1
  Sb  Sb3  1  0.27316900  0.00000000  0.75000000  1
  O  O0  1  0.51692000  0.76122700  0.25528800  1
  O  O1  1  0.51692000  0.23877300  0.24471200  1
  O  O2  1  0.76122700  0.51692000  0.99471200  1
  O  O3  1  0.76122700  0.48308000  0.50528800  1
  O  O4  1  0.76459900  0.97138100  0.01037900  1
  O  O5  1  0.76459900  0.02861900  0.48962100  1
  O  O6  1  0.97138100  0.76459900  0.23962100  1
  O  O7  1  0.97138100  0.23540100  0.26037900  1
  O  O8  1  0.02861900  0.76459900  0.76037900  1
  O  O9  1  0.02861900  0.23540100  0.73962100  1
  O  O10  1  0.23540100  0.02861900  0.51037900  1
  O  O11  1  0.23540100  0.97138100  0.98962100  1
  O  O12  1  0.23877300  0.51692000  0.00528800  1
  O  O13  1  0.23877300  0.48308000  0.49471200  1
  O  O14  1  0.48308000  0.76122700  0.74471200  1
  O  O15  1  0.48308000  0.23877300  0.75528800  1
loop_
_geom_bond_atom_site_label_1
_geom_bond_atom_site_label_2
_geom_bond_distance
_geom_bond_site_symmetry_2
Li0 O2 2.005463 1_554
Li0 O12 2.005463 1_555
Li0 O14 2.182466 1_554
Li0 O0 2.182466 1_555
Li0 O4 2.286072 1_555
Li0 O11 2.286072 1_554
Li1 O13 2.005463 1_555
Li1 O3 2.005463 1_555
Li1 O1 2.182466 1_555
Li1 O15 2.182466 1_555
Li1 O5 2.286072 1_555
Li1 O10 2.286072 1_555
Li2 O1 2.005463 1_555
Li2 O0 2.005463 1_555
Li2 O3 2.182466 1_555
Li2 O2 2.182466 1_554
Li2 O6 2.286072 1_555
Li2 O7 2.286072 1_555
Li3 O14 2.005463 1_555
Li3 O15 2.005463 1_555
Li3 O12 2.182466 1_556
Li3 O13 2.182466 1_555
Li3 O8 2.286072 1_555
Li3 O9 2.286072 1_555
Cu0 O3 1.928495 1_555
Cu0 O14 1.928495 1_555
Cu0 O5 2.067307 1_565
Cu0 O8 2.067307 1_655
Cu1 O15 1.928495 1_555
Cu1 O2 1.928495 1_555
Cu1 O4 2.067307 1_546
Cu1 O9 2.067307 1_655
Cu2 O13 1.928495 1_555
Cu2 O0 1.928495 1_555
Cu2 O6 2.067307 1_455
Cu2 O10 2.067307 1_565
Cu3 O12 1.928495 1_555
Cu3 O1 1.928495 1_555
Cu3 O7 2.067307 1_455
Cu3 O11 2.067307 1_544
O0 Sb0 1.958060 1_565
O1 Sb0 1.958060 1_555
O2 Sb1 1.958060 1_656
O3 Sb2 1.958060 1_655
O4 Sb0 2.046666 1_565
O4 Sb1 2.091866 1_655
O5 Sb0 2.046666 1_555
O5 Sb2 2.091866 1_655
O6 Sb1 2.046666 1_655
O6 Sb0 2.091866 1_565
O7 Sb2 2.046666 1_655
O7 Sb0 2.091866 1_555
O8 Sb1 2.046666 1_556
O8 Sb3 2.091866 1_565
O9 Sb2 2.046666 1_555
O9 Sb3 2.091866 1_555
O10 Sb3 2.046666 1_555
O10 Sb2 2.091866 1_555
O11 Sb3 2.046666 1_565
O11 Sb1 2.091866 1_556
O12 Sb1 1.958060 1_555
O13 Sb2 1.958060 1_555
O14 Sb3 1.958060 1_565
O15 Sb3 1.958060 1_555
