# generated using pymatgen
data_BaSe3
_symmetry_space_group_name_H-M   'P 1'
_cell_length_a   4.29675126
_cell_length_b   7.38597746
_cell_length_c   7.38597746
_cell_angle_alpha   90.00000000
_cell_angle_beta   90.00000000
_cell_angle_gamma   90.00000000
_symmetry_Int_Tables_number   1
_chemical_formula_structural   BaSe3
_chemical_formula_sum   'Ba2 Se6'
_cell_volume   234.39922365
_cell_formula_units_Z   2
loop_
 _symmetry_equiv_pos_site_id
 _symmetry_equiv_pos_as_xyz
  1  'x, y, z'
loop_
 _atom_site_type_symbol
 _atom_site_label
 _atom_site_symmetry_multiplicity
 _atom_site_fract_x
 _atom_site_fract_y
 _atom_site_fract_z
 _atom_site_occupancy
  Ba  Ba0  1  0.00000000  0.50000000  0.50000000  1
  Ba  Ba1  1  0.00000000  0.00000000  -0.00000000  1
  Se  Se0  1  0.48444576  0.80974977  0.30974977  1
  Se  Se1  1  0.51555424  0.30974977  0.19025023  1
  Se  Se2  1  0.17891909  0.00000000  0.50000000  1
  Se  Se3  1  0.82108091  0.50000000  -0.00000000  1
  Se  Se4  1  0.48444576  0.19025023  0.69025023  1
  Se  Se5  1  0.51555424  0.69025023  0.80974977  1
loop_
_geom_bond_atom_site_label_1
_geom_bond_atom_site_label_2
_geom_bond_distance
_geom_bond_site_symmetry_2
Ba0 Se5 3.397266 1_455
Ba0 Se4 3.397266 1_555
Ba0 Se1 3.397266 1_455
Ba0 Se0 3.397266 1_555
Ba0 Se4 3.480767 1_455
Ba0 Se0 3.480767 1_455
Ba0 Se1 3.480767 1_555
Ba0 Se5 3.480767 1_555
Ba0 Se2 3.772158 1_555
Ba0 Se2 3.772158 1_565
Ba0 Se3 3.772158 1_456
Ba0 Se3 3.772158 1_455
Ba1 Se1 3.397266 1_455
Ba1 Se5 3.397266 1_444
Ba1 Se4 3.397266 1_554
Ba1 Se0 3.397266 1_545
Ba1 Se4 3.480767 1_454
Ba1 Se0 3.480767 1_445
Ba1 Se1 3.480767 1_555
Ba1 Se5 3.480767 1_544
Ba1 Se2 3.772158 1_555
Ba1 Se2 3.772158 1_554
Ba1 Se3 3.772158 1_445
Ba1 Se3 3.772158 1_455
Se0 Se2 2.381691 1_565
Se1 Se3 2.381691 1_555
Se2 Se4 2.381691 1_555
Se3 Se5 2.381691 1_554
