# generated using pymatgen
data_Li5Ti2Ni5O12
_symmetry_space_group_name_H-M   'P 1'
_cell_length_a   5.11241419
_cell_length_b   5.11241419
_cell_length_c   9.78247201
_cell_angle_alpha   85.14783564
_cell_angle_beta   85.14783564
_cell_angle_gamma   120.67373316
_symmetry_Int_Tables_number   1
_chemical_formula_structural   Li5Ti2Ni5O12
_chemical_formula_sum   'Li5 Ti2 Ni5 O12'
_cell_volume   216.67310167
_cell_formula_units_Z   1
loop_
 _symmetry_equiv_pos_site_id
 _symmetry_equiv_pos_as_xyz
  1  'x, y, z'
loop_
 _atom_site_type_symbol
 _atom_site_label
 _atom_site_symmetry_multiplicity
 _atom_site_fract_x
 _atom_site_fract_y
 _atom_site_fract_z
 _atom_site_occupancy
  Li  Li0  1  0.83020300  0.67723000  0.75386200  1
  Li  Li1  1  0.67314500  0.83128200  0.24410300  1
  Li  Li2  1  0.32277000  0.16979700  0.24613800  1
  Li  Li3  1  0.16871800  0.32685500  0.75589700  1
  Li  Li4  1  0.08364300  0.91635700  0.00000000  1
  Ti  Ti0  1  0.75406700  0.24593300  0.00000000  1
  Ti  Ti1  1  0.25229200  0.74770800  0.50000000  1
  Ni  Ni0  1  0.91778500  0.08221500  0.50000000  1
  Ni  Ni1  1  0.00070500  0.50670500  0.24536000  1
  Ni  Ni2  1  0.49329500  0.99929500  0.75464000  1
  Ni  Ni3  1  0.58300400  0.41699600  0.50000000  1
  Ni  Ni4  1  0.41950700  0.58049300  0.00000000  1
  O  O0  1  0.02572500  0.21891000  0.12116000  1
  O  O1  1  0.78109000  0.97427500  0.87884000  1
  O  O2  1  0.88690700  0.38674300  0.61798100  1
  O  O3  1  0.61325700  0.11309300  0.38201900  1
  O  O4  1  0.70066500  0.52149600  0.11777000  1
  O  O5  1  0.47850400  0.29933500  0.88223000  1
  O  O6  1  0.52860400  0.71539500  0.61963400  1
  O  O7  1  0.28460500  0.47139600  0.38036600  1
  O  O8  1  0.39099300  0.87563300  0.11553800  1
  O  O9  1  0.12436700  0.60900700  0.88446200  1
  O  O10  1  0.21465500  0.02850300  0.61974400  1
  O  O11  1  0.97149700  0.78534500  0.38025600  1
loop_
_geom_bond_atom_site_label_1
_geom_bond_atom_site_label_2
_geom_bond_distance
_geom_bond_site_symmetry_2
Li0 O5 2.050776 1_555
Li0 O10 2.091258 1_665
Li0 O1 2.124895 1_555
Li0 O6 2.178492 1_555
Li0 O2 2.182765 1_555
Li0 O9 2.190982 1_655
Li1 O0 2.051397 1_665
Li1 O8 2.075161 1_555
Li1 O7 2.125092 1_555
Li1 O4 2.141131 1_555
Li1 O3 2.167650 1_565
Li1 O11 2.193612 1_555
Li2 O4 2.050776 1_555
Li2 O11 2.091258 1_445
Li2 O0 2.124895 1_555
Li2 O7 2.178492 1_555
Li2 O3 2.182765 1_555
Li2 O8 2.190982 1_545
Li3 O1 2.051397 1_445
Li3 O9 2.075161 1_555
Li3 O6 2.125092 1_555
Li3 O5 2.141131 1_555
Li3 O2 2.167650 1_455
Li3 O10 2.193612 1_555
Li4 O8 2.093849 1_555
Li4 O9 2.093849 1_554
Li4 O5 2.104330 1_564
Li4 O4 2.104330 1_455
Li4 O1 2.145475 1_454
Li4 O0 2.145475 1_565
Ni0 O6 2.067134 1_545
Ni0 O7 2.067134 1_655
Ni0 O2 2.074786 1_555
Ni0 O3 2.074786 1_555
Ni0 O10 2.103001 1_655
Ni0 O11 2.103001 1_545
Ni1 O0 2.031131 1_555
Ni1 O11 2.072356 1_455
Ni1 O4 2.083936 1_455
Ni1 O7 2.105869 1_555
Ni1 O8 2.116100 1_555
Ni1 O3 2.188650 1_455
Ni2 O1 2.031131 1_555
Ni2 O10 2.072356 1_565
Ni2 O5 2.083936 1_565
Ni2 O6 2.105869 1_555
Ni2 O9 2.116100 1_555
Ni2 O2 2.188650 1_565
Ni3 O11 2.068887 1_555
Ni3 O10 2.068887 1_555
Ni3 O3 2.070802 1_555
Ni3 O2 2.070802 1_555
Ni3 O7 2.110477 1_555
Ni3 O6 2.110477 1_555
Ni4 O8 2.015062 1_555
Ni4 O9 2.015062 1_554
Ni4 O5 2.036683 1_554
Ni4 O4 2.036683 1_555
Ni4 O0 2.074497 1_555
Ni4 O1 2.074497 1_554
O0 Ti0 1.949171 1_455
O1 Ti0 1.949171 1_566
O2 Ti1 1.996190 1_655
O3 Ti1 1.996190 1_545
O4 Ti0 2.000078 1_555
O5 Ti0 2.000078 1_556
O6 Ti1 1.969136 1_555
O7 Ti1 1.969136 1_555
O8 Ti0 2.001152 1_565
O9 Ti0 2.001152 1_456
O10 Ti1 1.999533 1_545
O11 Ti1 1.999533 1_655
