# generated using pymatgen
data_Li2Fe3NiO8
_symmetry_space_group_name_H-M   'P 1'
_cell_length_a   5.84498391
_cell_length_b   5.95353003
_cell_length_c   9.60125564
_cell_angle_alpha   89.87741165
_cell_angle_beta   90.06243139
_cell_angle_gamma   120.61626098
_symmetry_Int_Tables_number   1
_chemical_formula_structural   Li2Fe3NiO8
_chemical_formula_sum   'Li4 Fe6 Ni2 O16'
_cell_volume   287.53121476
_cell_formula_units_Z   2
loop_
 _symmetry_equiv_pos_site_id
 _symmetry_equiv_pos_as_xyz
  1  'x, y, z'
loop_
 _atom_site_type_symbol
 _atom_site_label
 _atom_site_symmetry_multiplicity
 _atom_site_fract_x
 _atom_site_fract_y
 _atom_site_fract_z
 _atom_site_occupancy
  Li  Li0  1  0.34125400  0.67077000  0.88868400  1
  Li  Li1  1  0.00873900  0.00351100  0.99924700  1
  Li  Li2  1  0.99126100  0.99477200  0.49924700  1
  Li  Li3  1  0.65874600  0.32951600  0.38868400  1
  Fe  Fe0  1  0.17013500  0.83115300  0.21585100  1
  Fe  Fe1  1  0.17092900  0.33935700  0.21533800  1
  Fe  Fe2  1  0.66190300  0.83149200  0.21234200  1
  Fe  Fe3  1  0.33809700  0.16958900  0.71234200  1
  Fe  Fe4  1  0.82986500  0.66101800  0.71585100  1
  Fe  Fe5  1  0.82907100  0.16842900  0.71533800  1
  Ni  Ni0  1  0.32668600  0.66365900  0.48925100  1
  Ni  Ni1  1  0.67331400  0.33697400  0.98925100  1
  O  O0  1  0.14103400  0.82451200  0.60268300  1
  O  O1  1  0.03345400  0.51492100  0.33040100  1
  O  O2  1  0.36307000  0.68233200  0.10179000  1
  O  O3  1  0.97316500  0.98641000  0.31421400  1
  O  O4  1  0.02683500  0.01324500  0.81421400  1
  O  O5  1  0.14488700  0.31511700  0.60278100  1
  O  O6  1  0.46744100  0.96100000  0.33610200  1
  O  O7  1  0.47220900  0.51200300  0.33468700  1
  O  O8  1  0.32748100  0.16510700  0.11054900  1
  O  O9  1  0.67251900  0.83762600  0.61054900  1
  O  O10  1  0.53255900  0.49355800  0.83610200  1
  O  O11  1  0.52779100  0.03979300  0.83468700  1
  O  O12  1  0.63693000  0.31926200  0.60179000  1
  O  O13  1  0.85896600  0.68347800  0.10268300  1
  O  O14  1  0.96654600  0.48146600  0.83040100  1
  O  O15  1  0.85511300  0.17022900  0.10278100  1
loop_
_geom_bond_atom_site_label_1
_geom_bond_atom_site_label_2
_geom_bond_distance
_geom_bond_site_symmetry_2
Li0 O10 1.955359 1_555
Li0 O11 1.959793 1_565
Li0 O14 1.966204 1_455
Li0 O2 2.049038 1_556
Li1 O4 1.778876 1_555
Li1 O13 1.917750 1_446
Li1 O15 1.921875 1_456
Li1 O8 1.926886 1_556
Li2 O3 1.778876 1_555
Li2 O0 1.917751 1_655
Li2 O5 1.921879 1_665
Li2 O9 1.926886 1_555
Li3 O6 1.955353 1_545
Li3 O7 1.959799 1_555
Li3 O1 1.966203 1_655
Li3 O12 2.049038 1_555
Fe0 O6 1.892490 1_555
Fe0 O13 1.905928 1_455
Fe0 O1 1.963017 1_555
Fe0 O8 1.987941 1_565
Fe0 O3 2.040045 1_455
Fe0 O2 2.068958 1_555
Fe1 O7 1.904629 1_555
Fe1 O15 1.922588 1_455
Fe1 O1 1.954737 1_555
Fe1 O8 1.974621 1_555
Fe1 O3 2.042695 1_445
Fe1 O2 2.067989 1_555
Fe2 O2 1.840165 1_555
Fe2 O3 1.846106 1_555
Fe2 O7 2.017988 1_555
Fe2 O15 2.030429 1_565
Fe2 O6 2.048869 1_555
Fe2 O13 2.062091 1_555
Fe3 O12 1.840165 1_555
Fe3 O4 1.846105 1_555
Fe3 O11 2.017993 1_555
Fe3 O5 2.030434 1_555
Fe3 O10 2.048864 1_555
Fe3 O0 2.062091 1_545
Fe4 O10 1.892491 1_555
Fe4 O0 1.905928 1_655
Fe4 O14 1.963022 1_555
Fe4 O9 1.987941 1_555
Fe4 O4 2.040044 1_665
Fe4 O12 2.068958 1_555
Fe5 O11 1.904628 1_555
Fe5 O5 1.922588 1_655
Fe5 O14 1.954728 1_555
Fe5 O9 1.974626 1_545
Fe5 O4 2.042700 1_655
Fe5 O12 2.067985 1_555
Ni0 O0 2.084758 1_555
Ni0 O5 2.090474 1_555
Ni0 O9 2.093468 1_555
Ni0 O6 2.116783 1_555
Ni0 O1 2.121793 1_555
Ni0 O7 2.128779 1_555
Ni1 O13 2.084754 1_556
Ni1 O15 2.090483 1_556
Ni1 O8 2.093468 1_556
Ni1 O10 2.116776 1_555
Ni1 O14 2.121793 1_555
Ni1 O11 2.128786 1_555
