# generated using pymatgen
data_Gd3NbO7
_symmetry_space_group_name_H-M   'P 1'
_cell_length_a   7.56820900
_cell_length_b   7.58103200
_cell_length_c   10.76848700
_cell_angle_alpha   90.00000000
_cell_angle_beta   90.00000000
_cell_angle_gamma   90.00000000
_symmetry_Int_Tables_number   1
_chemical_formula_structural   Gd3NbO7
_chemical_formula_sum   'Gd12 Nb4 O28'
_cell_volume   617.84016064
_cell_formula_units_Z   4
loop_
 _symmetry_equiv_pos_site_id
 _symmetry_equiv_pos_as_xyz
  1  'x, y, z'
loop_
 _atom_site_type_symbol
 _atom_site_label
 _atom_site_symmetry_multiplicity
 _atom_site_fract_x
 _atom_site_fract_y
 _atom_site_fract_z
 _atom_site_occupancy
  Gd  Gd0  1  0.29137700  0.01041700  0.75000000  1
  Gd  Gd1  1  0.46220300  0.24896500  0.02148200  1
  Gd  Gd2  1  0.46220300  0.24896500  0.47851800  1
  Gd  Gd3  1  0.96220300  0.25103500  0.52148200  1
  Gd  Gd4  1  0.96220300  0.25103500  0.97851800  1
  Gd  Gd5  1  0.79137700  0.48958300  0.25000000  1
  Gd  Gd6  1  0.20862300  0.51041700  0.75000000  1
  Gd  Gd7  1  0.03779700  0.74896500  0.02148200  1
  Gd  Gd8  1  0.03779700  0.74896500  0.47851800  1
  Gd  Gd9  1  0.53779700  0.75103500  0.52148200  1
  Gd  Gd10  1  0.53779700  0.75103500  0.97851800  1
  Gd  Gd11  1  0.70862300  0.98958300  0.25000000  1
  Nb  Nb0  1  0.24343200  0.99740900  0.25000000  1
  Nb  Nb1  1  0.74343200  0.50259100  0.75000000  1
  Nb  Nb2  1  0.25656800  0.49740900  0.25000000  1
  Nb  Nb3  1  0.75656800  0.00259100  0.75000000  1
  O  O0  1  0.54777100  0.03496300  0.62490000  1
  O  O1  1  0.54777100  0.03496300  0.87510000  1
  O  O2  1  0.08106500  0.04084200  0.11411300  1
  O  O3  1  0.08106500  0.04084200  0.38588700  1
  O  O4  1  0.83078000  0.24861400  0.75000000  1
  O  O5  1  0.22975700  0.25342700  0.61712300  1
  O  O6  1  0.22975700  0.25342700  0.88287700  1
  O  O7  1  0.72975700  0.24657300  0.11712300  1
  O  O8  1  0.72975700  0.24657300  0.38287700  1
  O  O9  1  0.33078000  0.25138600  0.25000000  1
  O  O10  1  0.58106500  0.45915800  0.61411300  1
  O  O11  1  0.58106500  0.45915800  0.88588700  1
  O  O12  1  0.04777100  0.46503700  0.12490000  1
  O  O13  1  0.04777100  0.46503700  0.37510000  1
  O  O14  1  0.95222900  0.53496300  0.62490000  1
  O  O15  1  0.95222900  0.53496300  0.87510000  1
  O  O16  1  0.41893500  0.54084200  0.11411300  1
  O  O17  1  0.41893500  0.54084200  0.38588700  1
  O  O18  1  0.66922000  0.74861400  0.75000000  1
  O  O19  1  0.27024300  0.75342700  0.61712300  1
  O  O20  1  0.27024300  0.75342700  0.88287700  1
  O  O21  1  0.77024300  0.74657300  0.11712300  1
  O  O22  1  0.77024300  0.74657300  0.38287700  1
  O  O23  1  0.16922000  0.75138600  0.25000000  1
  O  O24  1  0.91893500  0.95915800  0.61411300  1
  O  O25  1  0.91893500  0.95915800  0.88588700  1
  O  O26  1  0.45222900  0.96503700  0.12490000  1
  O  O27  1  0.45222900  0.96503700  0.37510000  1
loop_
_geom_bond_atom_site_label_1
_geom_bond_atom_site_label_2
_geom_bond_distance
_geom_bond_site_symmetry_2
Gd0 O1 2.369542 1_555
Gd0 O0 2.369542 1_555
Gd0 O5 2.378836 1_555
Gd0 O6 2.378836 1_555
Gd0 O20 2.422538 1_545
Gd0 O19 2.422538 1_545
Gd1 O7 2.271845 1_555
Gd1 O6 2.307311 1_554
Gd1 O11 2.341037 1_554
Gd1 O1 2.352909 1_554
Gd1 O26 2.424674 1_545
Gd1 O16 2.449163 1_555
Gd1 O9 2.654269 1_555
Gd2 O8 2.271845 1_555
Gd2 O5 2.307311 1_555
Gd2 O10 2.341037 1_555
Gd2 O0 2.352909 1_555
Gd2 O27 2.424674 1_545
Gd2 O17 2.449163 1_555
Gd2 O9 2.654269 1_555
Gd3 O5 2.271845 1_655
Gd3 O8 2.307311 1_555
Gd3 O3 2.341037 1_655
Gd3 O13 2.352909 1_655
Gd3 O14 2.424674 1_555
Gd3 O24 2.449163 1_545
Gd3 O4 2.654269 1_555
Gd4 O6 2.271845 1_655
Gd4 O7 2.307311 1_556
Gd4 O2 2.341037 1_656
Gd4 O12 2.352909 1_656
Gd4 O15 2.424674 1_555
Gd4 O25 2.449163 1_545
Gd4 O4 2.654269 1_555
Gd5 O13 2.369542 1_655
Gd5 O12 2.369542 1_655
Gd5 O8 2.378836 1_555
Gd5 O7 2.378836 1_555
Gd5 O21 2.422538 1_555
Gd5 O22 2.422538 1_555
Gd6 O14 2.369542 1_455
Gd6 O15 2.369542 1_455
Gd6 O20 2.378836 1_555
Gd6 O19 2.378836 1_555
Gd6 O5 2.422538 1_555
Gd6 O6 2.422538 1_555
Gd7 O21 2.271845 1_455
Gd7 O20 2.307311 1_554
Gd7 O25 2.341037 1_454
Gd7 O15 2.352909 1_454
Gd7 O12 2.424674 1_555
Gd7 O2 2.449163 1_565
Gd7 O23 2.654269 1_555
Gd8 O22 2.271845 1_455
Gd8 O19 2.307311 1_555
Gd8 O24 2.341037 1_455
Gd8 O14 2.352909 1_455
Gd8 O13 2.424674 1_555
Gd8 O3 2.449163 1_565
Gd8 O23 2.654269 1_555
Gd9 O19 2.271845 1_555
Gd9 O22 2.307311 1_555
Gd9 O17 2.341037 1_555
Gd9 O27 2.352909 1_555
Gd9 O0 2.424674 1_565
Gd9 O10 2.449163 1_555
Gd9 O18 2.654269 1_555
Gd10 O20 2.271845 1_555
Gd10 O21 2.307311 1_556
Gd10 O16 2.341037 1_556
Gd10 O26 2.352909 1_556
Gd10 O1 2.424674 1_565
Gd10 O11 2.449163 1_555
Gd10 O18 2.654269 1_555
Gd11 O26 2.369542 1_555
Gd11 O27 2.369542 1_555
Gd11 O21 2.378836 1_555
Gd11 O22 2.378836 1_555
Gd11 O7 2.422538 1_565
Gd11 O8 2.422538 1_565
Nb0 O2 1.938988 1_565
Nb0 O3 1.938988 1_565
Nb0 O23 1.947840 1_555
Nb0 O9 2.035732 1_565
Nb0 O27 2.090957 1_555
Nb0 O26 2.090957 1_555
Nb1 O11 1.938988 1_555
Nb1 O10 1.938988 1_555
Nb1 O18 1.947840 1_555
Nb1 O4 2.035732 1_555
Nb1 O15 2.090957 1_555
Nb1 O14 2.090957 1_555
Nb2 O16 1.938988 1_555
Nb2 O17 1.938988 1_555
Nb2 O9 1.947840 1_555
Nb2 O23 2.035732 1_555
Nb2 O12 2.090957 1_555
Nb2 O13 2.090957 1_555
Nb3 O25 1.938988 1_545
Nb3 O24 1.938988 1_545
Nb3 O4 1.947840 1_555
Nb3 O18 2.035732 1_545
Nb3 O1 2.090957 1_555
Nb3 O0 2.090957 1_555
