# generated using pymatgen
data_Li3FeB4O9
_symmetry_space_group_name_H-M   'P 1'
_cell_length_a   8.71526500
_cell_length_b   5.71332500
_cell_length_c   6.78721015
_cell_angle_alpha   78.52081286
_cell_angle_beta   90.00000000
_cell_angle_gamma   90.00000000
_symmetry_Int_Tables_number   1
_chemical_formula_structural   Li3FeB4O9
_chemical_formula_sum   'Li6 Fe2 B8 O18'
_cell_volume   331.19639123
_cell_formula_units_Z   2
loop_
 _symmetry_equiv_pos_site_id
 _symmetry_equiv_pos_as_xyz
  1  'x, y, z'
loop_
 _atom_site_type_symbol
 _atom_site_label
 _atom_site_symmetry_multiplicity
 _atom_site_fract_x
 _atom_site_fract_y
 _atom_site_fract_z
 _atom_site_occupancy
  Li  Li0  1  0.43674400  0.76718100  0.15947600  1
  Li  Li1  1  0.06325600  0.76718100  0.15947600  1
  Li  Li2  1  0.75000000  0.57704100  0.49086400  1
  Li  Li3  1  0.25000000  0.42295900  0.50913600  1
  Li  Li4  1  0.93674400  0.23281900  0.84052400  1
  Li  Li5  1  0.56325600  0.23281900  0.84052400  1
  Fe  Fe0  1  0.75000000  0.75005600  0.87987600  1
  Fe  Fe1  1  0.25000000  0.24994400  0.12012400  1
  B  B0  1  0.75000000  0.97632300  0.22837300  1
  B  B1  1  0.25000000  0.86961900  0.46743100  1
  B  B2  1  0.45240200  0.72621100  0.72122300  1
  B  B3  1  0.04759800  0.72621100  0.72122300  1
  B  B4  1  0.95240200  0.27378900  0.27877700  1
  B  B5  1  0.54759800  0.27378900  0.27877700  1
  B  B6  1  0.75000000  0.13038100  0.53256900  1
  B  B7  1  0.25000000  0.02367700  0.77162700  1
  O  O0  1  0.10688100  0.87435900  0.84416100  1
  O  O1  1  0.39311900  0.87435900  0.84416100  1
  O  O2  1  0.75000000  0.91907800  0.44670400  1
  O  O3  1  0.25000000  0.92161400  0.24837400  1
  O  O4  1  0.38708200  0.71330500  0.53918500  1
  O  O5  1  0.11291800  0.71330500  0.53918500  1
  O  O6  1  0.75000000  0.75722500  0.15267700  1
  O  O7  1  0.91911800  0.58946700  0.78574900  1
  O  O8  1  0.58088200  0.58946700  0.78574900  1
  O  O9  1  0.08088200  0.41053300  0.21425100  1
  O  O10  1  0.41911800  0.41053300  0.21425100  1
  O  O11  1  0.25000000  0.24277500  0.84732300  1
  O  O12  1  0.88708200  0.28669500  0.46081500  1
  O  O13  1  0.61291800  0.28669500  0.46081500  1
  O  O14  1  0.75000000  0.07838600  0.75162600  1
  O  O15  1  0.25000000  0.08092200  0.55329600  1
  O  O16  1  0.89311900  0.12564100  0.15583900  1
  O  O17  1  0.60688100  0.12564100  0.15583900  1
loop_
_geom_bond_atom_site_label_1
_geom_bond_atom_site_label_2
_geom_bond_distance
_geom_bond_site_symmetry_2
Li0 O3 2.000820 1_555
Li0 O10 2.003071 1_555
Li0 O1 2.139622 1_554
Li0 O17 2.524569 1_565
Li1 O3 2.000820 1_555
Li1 O9 2.003071 1_555
Li1 O0 2.139622 1_554
Li1 O16 2.524569 1_465
Li2 O2 1.917155 1_555
Li2 O12 2.086943 1_555
Li2 O13 2.086943 1_555
Li2 O6 2.321179 1_555
Li2 O8 2.497957 1_555
Li2 O7 2.497957 1_555
Li3 O15 1.917155 1_555
Li3 O4 2.086943 1_555
Li3 O5 2.086943 1_555
Li3 O11 2.321179 1_555
Li3 O9 2.497957 1_555
Li3 O10 2.497957 1_555
Li4 O14 2.000820 1_555
Li4 O7 2.003071 1_555
Li4 O16 2.139622 1_556
Li4 O0 2.524569 1_645
Li5 O14 2.000820 1_555
Li5 O8 2.003071 1_555
Li5 O17 2.139622 1_556
Li5 O1 2.524569 1_545
Fe0 O6 1.860142 1_556
Fe0 O14 1.904369 1_565
Fe0 O7 1.911976 1_555
Fe0 O8 1.911976 1_555
Fe1 O11 1.860142 1_554
Fe1 O3 1.904369 1_545
Fe1 O9 1.911976 1_555
Fe1 O10 1.911976 1_555
B0 O6 1.444604 1_555
B0 O2 1.452573 1_555
B0 O17 1.535835 1_565
B0 O16 1.535835 1_565
B1 O15 1.441217 1_565
B1 O3 1.457046 1_555
B1 O4 1.512933 1_555
B1 O5 1.512933 1_555
B2 O4 1.375614 1_555
B2 O8 1.385568 1_555
B2 O1 1.400253 1_555
B3 O5 1.375614 1_555
B3 O7 1.385568 1_455
B3 O0 1.400253 1_555
B4 O12 1.375614 1_555
B4 O9 1.385568 1_655
B4 O16 1.400253 1_555
B5 O13 1.375614 1_555
B5 O10 1.385568 1_555
B5 O17 1.400253 1_555
B6 O2 1.441217 1_545
B6 O14 1.457046 1_555
B6 O12 1.512933 1_555
B6 O13 1.512933 1_555
B7 O11 1.444604 1_555
B7 O15 1.452573 1_555
B7 O1 1.535835 1_545
B7 O0 1.535835 1_545
