# generated using pymatgen
data_MnOF
_symmetry_space_group_name_H-M   'P 1'
_cell_length_a   4.64450794
_cell_length_b   4.64450794
_cell_length_c   12.68302000
_cell_angle_alpha   90.00000000
_cell_angle_beta   90.00000000
_cell_angle_gamma   90.23754603
_symmetry_Int_Tables_number   1
_chemical_formula_structural   MnOF
_chemical_formula_sum   'Mn8 O8 F8'
_cell_volume   273.58883066
_cell_formula_units_Z   8
loop_
 _symmetry_equiv_pos_site_id
 _symmetry_equiv_pos_as_xyz
  1  'x, y, z'
loop_
 _atom_site_type_symbol
 _atom_site_label
 _atom_site_symmetry_multiplicity
 _atom_site_fract_x
 _atom_site_fract_y
 _atom_site_fract_z
 _atom_site_occupancy
  Mn  Mn0  1  0.97134100  0.97134100  0.00000000  1
  Mn  Mn1  1  0.03874900  0.02132100  0.25000000  1
  Mn  Mn2  1  0.97134100  0.97134100  0.50000000  1
  Mn  Mn3  1  0.02132100  0.03874900  0.75000000  1
  Mn  Mn4  1  0.52467000  0.47298700  0.62457700  1
  Mn  Mn5  1  0.47298700  0.52467000  0.12457700  1
  Mn  Mn6  1  0.47298700  0.52467000  0.37542300  1
  Mn  Mn7  1  0.52467000  0.47298700  0.87542300  1
  O  O0  1  0.81776900  0.18001500  0.62248200  1
  O  O1  1  0.81776900  0.18001500  0.87751800  1
  O  O2  1  0.30249600  0.33394000  0.25000000  1
  O  O3  1  0.33394000  0.30249600  0.75000000  1
  O  O4  1  0.67508500  0.67508500  0.00000000  1
  O  O5  1  0.67508500  0.67508500  0.50000000  1
  O  O6  1  0.18001500  0.81776900  0.12248200  1
  O  O7  1  0.18001500  0.81776900  0.37751800  1
  F  F0  1  0.78459000  0.22275400  0.13138400  1
  F  F1  1  0.78459000  0.22275400  0.36861600  1
  F  F2  1  0.27559600  0.27559600  0.00000000  1
  F  F3  1  0.27559600  0.27559600  0.50000000  1
  F  F4  1  0.71228200  0.74159800  0.25000000  1
  F  F5  1  0.74159800  0.71228200  0.75000000  1
  F  F6  1  0.22275400  0.78459000  0.63138400  1
  F  F7  1  0.22275400  0.78459000  0.86861600  1
loop_
_geom_bond_atom_site_label_1
_geom_bond_atom_site_label_2
_geom_bond_distance
_geom_bond_site_symmetry_2
Mn0 O4 1.941868 1_555
Mn0 O6 1.966466 1_655
Mn0 O1 1.966466 1_564
Mn1 O2 1.895787 1_555
Mn1 O7 1.986229 1_545
Mn1 O6 1.986229 1_545
Mn2 O5 1.941868 1_555
Mn2 O0 1.966466 1_565
Mn2 O7 1.966466 1_655
Mn3 O3 1.895787 1_555
Mn3 O1 1.986229 1_455
Mn3 O0 1.986229 1_455
Mn4 O0 1.928922 1_555
Mn4 O5 1.964715 1_555
Mn4 O3 1.984034 1_555
Mn5 O6 1.928922 1_555
Mn5 O4 1.964715 1_555
Mn5 O2 1.984034 1_555
Mn6 O7 1.928922 1_555
Mn6 O5 1.964715 1_555
Mn6 O2 1.984034 1_555
Mn7 O1 1.928922 1_555
Mn7 O4 1.964715 1_556
Mn7 O3 1.984034 1_555
F0 Mn5 2.021163 1_555
F0 Mn1 2.130990 1_655
F0 Mn0 2.213805 1_545
F1 Mn6 2.021163 1_555
F1 Mn1 2.130990 1_655
F1 Mn2 2.213805 1_545
F2 Mn0 1.994299 1_445
F2 Mn5 2.160182 1_555
F2 Mn7 2.160182 1_554
F3 Mn2 1.994299 1_445
F3 Mn4 2.160182 1_555
F3 Mn6 2.160182 1_555
F4 Mn1 1.992642 1_665
F4 Mn5 2.184378 1_555
F4 Mn6 2.184378 1_555
F5 Mn3 1.992642 1_665
F5 Mn7 2.184378 1_555
F5 Mn4 2.184378 1_555
F6 Mn4 2.021163 1_555
F6 Mn3 2.130990 1_565
F6 Mn2 2.213805 1_455
F7 Mn7 2.021163 1_555
F7 Mn3 2.130990 1_565
F7 Mn0 2.213805 1_456
