# generated using pymatgen
data_Li13Co15O28
_symmetry_space_group_name_H-M   'P 1'
_cell_length_a   8.33398725
_cell_length_b   8.77102746
_cell_length_c   7.73024458
_cell_angle_alpha   103.77767038
_cell_angle_beta   105.83481701
_cell_angle_gamma   103.29165815
_symmetry_Int_Tables_number   1
_chemical_formula_structural   Li13Co15O28
_chemical_formula_sum   'Li13 Co15 O28'
_cell_volume   500.99369148
_cell_formula_units_Z   1
loop_
 _symmetry_equiv_pos_site_id
 _symmetry_equiv_pos_as_xyz
  1  'x, y, z'
loop_
 _atom_site_type_symbol
 _atom_site_label
 _atom_site_symmetry_multiplicity
 _atom_site_fract_x
 _atom_site_fract_y
 _atom_site_fract_z
 _atom_site_occupancy
  Li  Li0  1  0.92956458  0.06975763  0.64087127  1
  Li  Li1  1  0.56954908  0.42831802  0.85551062  1
  Li  Li2  1  0.35820646  0.64354987  0.78531321  1
  Li  Li3  1  0.71343978  0.28557673  0.56936411  1
  Li  Li4  1  0.14110322  0.85882200  0.71332565  1
  Li  Li5  1  0.85812539  0.14303994  0.28790267  1
  Li  Li6  1  0.50062438  0.49927526  0.49936337  1
  Li  Li7  1  0.64191037  0.35888950  0.21635913  1
  Li  Li8  1  0.28565864  0.71429241  0.42859743  1
  Li  Li9  1  0.00184657  0.00023476  0.00151628  1
  Li  Li10  1  0.43016917  0.56969717  0.14366303  1
  Li  Li11  1  0.07086805  0.92929156  0.35785068  1
  Li  Li12  1  0.21318878  0.78493940  0.07181396  1
  Co  Co0  1  0.78568790  0.21423121  0.92852178  1
  Co  Co1  1  0.28574429  0.21428195  0.92857583  1
  Co  Co2  1  0.07313289  0.43046733  0.85408746  1
  Co  Co3  1  0.42716957  0.06703762  0.64324778  1
  Co  Co4  1  0.21476311  0.28582294  0.56922184  1
  Co  Co5  1  0.85470421  0.64428400  0.78184863  1
  Co  Co6  1  0.00092151  0.49832735  0.51259673  1
  Co  Co7  1  0.64183293  0.85412654  0.70742117  1
  Co  Co8  1  0.35663762  0.14276012  0.28794959  1
  Co  Co9  1  0.14430344  0.36146128  0.21385439  1
  Co  Co10  1  0.78575777  0.71433464  0.42868063  1
  Co  Co11  1  0.49824686  0.99803492  0.00295373  1
  Co  Co12  1  0.57057163  0.93039871  0.34448850  1
  Co  Co13  1  0.92955108  0.57430363  0.14949987  1
  Co  Co14  1  0.71671081  0.78437373  0.07538523  1
  O  O0  1  0.02750895  0.21803896  0.93651778  1
  O  O1  1  0.54388969  0.21051227  0.92058761  1
  O  O2  1  0.31644499  0.41317832  0.85436612  1
  O  O3  1  0.67886275  0.07657227  0.65860988  1
  O  O4  1  0.82698855  0.42640334  0.87426100  1
  O  O5  1  0.18718943  0.08140920  0.64779515  1
  O  O6  1  0.09413977  0.64376117  0.78391119  1
  O  O7  1  0.74432083  0.00190671  0.98265293  1
  O  O8  1  0.45607925  0.27285912  0.56392358  1
  O  O9  1  0.62148791  0.64875730  0.79166152  1
  O  O10  1  0.96937837  0.29294060  0.57054415  1
  O  O11  1  0.11533931  0.15570868  0.29310532  1
  O  O12  1  0.39888819  0.86576829  0.70959874  1
  O  O13  1  0.24275962  0.49257425  0.50309365  1
  O  O14  1  0.75997535  0.51633327  0.50403185  1
  O  O15  1  0.60205230  0.13565064  0.28652922  1
  O  O16  1  0.88005716  0.84261961  0.69605029  1
  O  O17  1  0.55753743  0.72786571  0.43908618  1
  O  O18  1  0.01381160  0.70080336  0.41828801  1
  O  O19  1  0.89251821  0.35194947  0.19836252  1
  O  O20  1  0.38428353  0.34730358  0.20932553  1
  O  O21  1  0.25501026  0.01544715  0.00287727  1
  O  O22  1  0.81148504  0.91229126  0.35324266  1
  O  O23  1  0.32869609  0.93591661  0.35400843  1
  O  O24  1  0.17236245  0.56283999  0.14750051  1
  O  O25  1  0.69168054  0.58606869  0.16136761  1
  O  O26  1  0.47724966  0.78470562  0.07321232  1
  O  O27  1  0.95001167  0.77988531  0.06569839  1
loop_
_geom_bond_atom_site_label_1
_geom_bond_atom_site_label_2
_geom_bond_distance
_geom_bond_site_symmetry_2
Li0 O16 2.108083 1_545
Li0 O5 2.111134 1_655
Li0 O22 2.130238 1_545
Li0 O10 2.131736 1_555
Li0 O3 2.144204 1_555
Li0 O0 2.158462 1_655
Li1 O1 2.068083 1_555
Li1 O2 2.080288 1_555
Li1 O9 2.087013 1_555
Li1 O4 2.114821 1_555
Li1 O8 2.148049 1_555
Li1 O25 2.240873 1_556
Li2 O13 2.081194 1_555
Li2 O26 2.094741 1_556
Li2 O12 2.145751 1_555
Li2 O9 2.170951 1_555
Li2 O2 2.186467 1_555
Li2 O6 2.198225 1_555
Li3 O15 2.081557 1_555
Li3 O3 2.094643 1_555
Li3 O8 2.110231 1_555
Li3 O10 2.116518 1_555
Li3 O14 2.175951 1_555
Li3 O4 2.198862 1_555
Li4 O6 2.067939 1_555
Li4 O5 2.109057 1_565
Li4 O16 2.112182 1_455
Li4 O21 2.138824 1_566
Li4 O12 2.143477 1_555
Li4 O18 2.178511 1_555
Li5 O10 2.080316 1_555
Li5 O19 2.095146 1_555
Li5 O11 2.109587 1_655
Li5 O15 2.117179 1_555
Li5 O22 2.175940 1_545
Li5 O7 2.201678 1_554
Li6 O14 2.121702 1_555
Li6 O20 2.130634 1_555
Li6 O8 2.136557 1_555
Li6 O9 2.139796 1_555
Li6 O17 2.142504 1_555
Li6 O13 2.144578 1_555
Li7 O25 2.107803 1_555
Li7 O20 2.111038 1_555
Li7 O14 2.130437 1_555
Li7 O15 2.131577 1_555
Li7 O19 2.144328 1_555
Li7 O1 2.159437 1_554
Li8 O12 2.074702 1_555
Li8 O24 2.075225 1_555
Li8 O23 2.136790 1_555
Li8 O13 2.137142 1_555
Li8 O17 2.219428 1_555
Li8 O18 2.219657 1_555
Li9 O0 2.067770 1_554
Li9 O21 2.080194 1_555
Li9 O27 2.087549 1_445
Li9 O7 2.114810 1_454
Li9 O11 2.148100 1_555
Li9 O16 2.238123 1_444
Li10 O26 2.067007 1_555
Li10 O20 2.107922 1_555
Li10 O25 2.115002 1_555
Li10 O2 2.137016 1_554
Li10 O24 2.144064 1_555
Li10 O17 2.181180 1_555
Li11 O22 2.122183 1_455
Li11 O5 2.130414 1_565
Li11 O11 2.137269 1_565
Li11 O27 2.138744 1_455
Li11 O18 2.142363 1_555
Li11 O23 2.144659 1_555
Li12 O23 2.081064 1_555
Li12 O6 2.094811 1_554
Li12 O24 2.144687 1_555
Li12 O27 2.170838 1_455
Li12 O21 2.187148 1_565
Li12 O26 2.198230 1_555
Co0 O19 1.973510 1_556
Co0 O3 1.973809 1_555
Co0 O4 1.978299 1_555
Co0 O7 1.979094 1_555
Co0 O0 1.991630 1_655
Co0 O1 1.991733 1_555
Co1 O21 1.946533 1_556
Co1 O2 1.946651 1_555
Co1 O5 2.031262 1_555
Co1 O20 2.031364 1_556
Co1 O1 2.176598 1_555
Co1 O0 2.177216 1_555
Co2 O6 2.051700 1_555
Co2 O10 2.057603 1_455
Co2 O2 2.067359 1_555
Co2 O4 2.092197 1_455
Co2 O0 2.096221 1_555
Co2 O24 2.111157 1_556
Co3 O12 1.934161 1_545
Co3 O8 2.025077 1_555
Co3 O1 2.034737 1_555
Co3 O5 2.041879 1_555
Co3 O3 2.049323 1_555
Co3 O23 2.082115 1_545
Co4 O13 1.978970 1_555
Co4 O11 1.996152 1_555
Co4 O5 2.010401 1_555
Co4 O2 2.048690 1_555
Co4 O8 2.051125 1_555
Co4 O10 2.063001 1_455
Co5 O9 1.974605 1_555
Co5 O16 1.991931 1_555
Co5 O6 1.992232 1_655
Co5 O14 2.003558 1_555
Co5 O27 2.057076 1_556
Co5 O4 2.180154 1_555
Co6 O10 1.935424 1_455
Co6 O6 2.002578 1_555
Co6 O14 2.034652 1_455
Co6 O13 2.048386 1_555
Co6 O18 2.066064 1_555
Co6 O19 2.269071 1_455
Co7 O17 1.943066 1_555
Co7 O7 2.030271 1_565
Co7 O16 2.035364 1_555
Co7 O9 2.043531 1_555
Co7 O3 2.044909 1_565
Co7 O12 2.054984 1_555
Co8 O23 1.979477 1_545
Co8 O8 1.995218 1_555
Co8 O20 2.011677 1_555
Co8 O21 2.048157 1_555
Co8 O11 2.050638 1_555
Co8 O15 2.063435 1_555
Co9 O24 1.935112 1_555
Co9 O11 2.024200 1_555
Co9 O0 2.034629 1_554
Co9 O20 2.041310 1_555
Co9 O19 2.049899 1_455
Co9 O13 2.082104 1_555
Co10 O25 1.937355 1_555
Co10 O16 1.937716 1_555
Co10 O14 1.944233 1_555
Co10 O22 1.944235 1_555
Co10 O18 1.953284 1_655
Co10 O17 1.954698 1_555
Co11 O26 2.052323 1_555
Co11 O15 2.057987 1_565
Co11 O21 2.067445 1_565
Co11 O7 2.092275 1_564
Co11 O1 2.096345 1_564
Co11 O12 2.110563 1_554
Co12 O15 1.934348 1_565
Co12 O26 2.002986 1_555
Co12 O22 2.034339 1_555
Co12 O23 2.048238 1_555
Co12 O17 2.067749 1_555
Co12 O3 2.267979 1_565
Co13 O18 1.946490 1_655
Co13 O4 2.030614 1_554
Co13 O25 2.034163 1_555
Co13 O27 2.043380 1_555
Co13 O19 2.044315 1_555
Co13 O24 2.053080 1_655
Co14 O27 1.975047 1_555
Co14 O26 1.991827 1_555
Co14 O25 1.992505 1_555
Co14 O22 2.003746 1_555
Co14 O9 2.056331 1_554
Co14 O7 2.178723 1_564
