# generated using pymatgen
data_Li8NbFe7(PO4)12
_symmetry_space_group_name_H-M   'P 1'
_cell_length_a   8.69151000
_cell_length_b   8.81186566
_cell_length_c   12.23817032
_cell_angle_alpha   90.13394830
_cell_angle_beta   90.10039034
_cell_angle_gamma   90.10449558
_symmetry_Int_Tables_number   1
_chemical_formula_structural   Li8NbFe7(PO4)12
_chemical_formula_sum   'Li8 Nb1 Fe7 P12 O48'
_cell_volume   937.29654372
_cell_formula_units_Z   1
loop_
 _symmetry_equiv_pos_site_id
 _symmetry_equiv_pos_as_xyz
  1  'x, y, z'
loop_
 _atom_site_type_symbol
 _atom_site_label
 _atom_site_symmetry_multiplicity
 _atom_site_fract_x
 _atom_site_fract_y
 _atom_site_fract_z
 _atom_site_occupancy
  Li  Li0  1  0.21722200  0.72285200  0.18161500  1
  Li  Li1  1  0.21808500  0.77800200  0.81877600  1
  Li  Li2  1  0.28269600  0.22246700  0.31788300  1
  Li  Li3  1  0.28218600  0.27706300  0.68271600  1
  Li  Li4  1  0.71653200  0.72495100  0.31640100  1
  Li  Li5  1  0.71737100  0.78474200  0.68247100  1
  Li  Li6  1  0.78399200  0.22193000  0.18140500  1
  Li  Li7  1  0.78532500  0.27514800  0.82450400  1
  Nb  Nb0  1  0.75307800  0.46153900  0.61312300  1
  Fe  Fe0  1  0.24841100  0.96022200  0.61288200  1
  Fe  Fe1  1  0.24863700  0.54174100  0.38644200  1
  Fe  Fe2  1  0.25104400  0.04102500  0.11284000  1
  Fe  Fe3  1  0.25154200  0.45872700  0.88785400  1
  Fe  Fe4  1  0.74887100  0.54135600  0.11239400  1
  Fe  Fe5  1  0.74812900  0.96005400  0.88909900  1
  Fe  Fe6  1  0.75081100  0.03817500  0.38663100  1
  P  P0  1  0.04430800  0.24575500  0.49664500  1
  P  P1  1  0.46129100  0.74976300  0.00034700  1
  P  P2  1  0.53916500  0.25030900  0.00073400  1
  P  P3  1  0.96333800  0.75349000  0.49757700  1
  P  P4  1  0.10519200  0.39268400  0.14694500  1
  P  P5  1  0.10575400  0.10677900  0.85314800  1
  P  P6  1  0.38990500  0.60625600  0.64672100  1
  P  P7  1  0.39407300  0.89322900  0.35347400  1
  P  P8  1  0.60291200  0.10286200  0.64608200  1
  P  P9  1  0.60303500  0.39189900  0.34923200  1
  P  P10  1  0.89713200  0.60962500  0.85472600  1
  P  P11  1  0.89491400  0.89259000  0.14705100  1
  O  O0  1  0.05599300  0.64071800  0.43030300  1
  O  O1  1  0.05496600  0.85764700  0.57204200  1
  O  O2  1  0.07323600  0.89582500  0.15588200  1
  O  O3  1  0.07337100  0.60492200  0.84314900  1
  O  O4  1  0.14559200  0.16431800  0.58115800  1
  O  O5  1  0.14772600  0.33837600  0.42000400  1
  O  O6  1  0.15468500  0.43419700  0.03054500  1
  O  O7  1  0.15557200  0.06626900  0.96951800  1
  O  O8  1  0.16193600  0.23257300  0.17940100  1
  O  O9  1  0.16158100  0.26771800  0.82068100  1
  O  O10  1  0.17375700  0.51430800  0.22535300  1
  O  O11  1  0.17405100  0.98608600  0.77441800  1
  O  O12  1  0.32592900  0.01370900  0.27428500  1
  O  O13  1  0.32577300  0.48529300  0.72543200  1
  O  O14  1  0.34017700  0.76749400  0.68042500  1
  O  O15  1  0.33704900  0.73264800  0.32018800  1
  O  O16  1  0.34657100  0.56692100  0.52923700  1
  O  O17  1  0.34401900  0.93473300  0.46971200  1
  O  O18  1  0.35259200  0.83744000  0.07926100  1
  O  O19  1  0.35291100  0.66191200  0.92107900  1
  O  O20  1  0.42689400  0.10728400  0.65713500  1
  O  O21  1  0.42681500  0.39424100  0.34512200  1
  O  O22  1  0.44324400  0.14274100  0.07106100  1
  O  O23  1  0.44390400  0.35742900  0.92929400  1
  O  O24  1  0.55670900  0.64299500  0.07157800  1
  O  O25  1  0.55677000  0.85694600  0.92920700  1
  O  O26  1  0.57266600  0.60076000  0.65544900  1
  O  O27  1  0.57227500  0.89589200  0.34393900  1
  O  O28  1  0.64690600  0.33838900  0.08031400  1
  O  O29  1  0.64708600  0.16286300  0.92112600  1
  O  O30  1  0.65511800  0.06789600  0.53010500  1
  O  O31  1  0.65688400  0.42989900  0.47126400  1
  O  O32  1  0.66359500  0.23309800  0.32042000  1
  O  O33  1  0.66360600  0.26847200  0.67788900  1
  O  O34  1  0.67552500  0.51544400  0.27726100  1
  O  O35  1  0.67512500  0.98863700  0.72628700  1
  O  O36  1  0.82615600  0.01331100  0.22578800  1
  O  O37  1  0.82780900  0.48639400  0.77227400  1
  O  O38  1  0.83824400  0.73203500  0.17921700  1
  O  O39  1  0.83617300  0.76642100  0.81919900  1
  O  O40  1  0.84298800  0.56390900  0.96815000  1
  O  O41  1  0.84496500  0.93314900  0.03065800  1
  O  O42  1  0.85233800  0.65956900  0.57799200  1
  O  O43  1  0.84975900  0.83617300  0.42147500  1
  O  O44  1  0.92707800  0.10412400  0.84455400  1
  O  O45  1  0.92677300  0.39570500  0.15559900  1
  O  O46  1  0.94280900  0.14090000  0.42935000  1
  O  O47  1  0.93934700  0.35698600  0.56650500  1
loop_
_geom_bond_atom_site_label_1
_geom_bond_atom_site_label_2
_geom_bond_distance
_geom_bond_site_symmetry_2
Li0 O10 1.951668 1_555
Li0 O15 1.990210 1_555
Li0 O18 1.994917 1_555
Li0 O2 1.999093 1_555
Li1 O11 1.951865 1_555
Li1 O19 1.998101 1_555
Li1 O3 1.998385 1_555
Li1 O14 2.001841 1_555
Li2 O12 1.951525 1_555
Li2 O21 1.990115 1_555
Li2 O8 1.994144 1_555
Li2 O5 1.996204 1_555
Li3 O13 1.943174 1_555
Li3 O20 1.980953 1_555
Li3 O4 1.981415 1_555
Li3 O9 1.990716 1_555
Li4 O34 1.938453 1_555
Li4 O43 1.984868 1_555
Li4 O38 1.986978 1_555
Li4 O27 1.990122 1_555
Li5 O35 1.910253 1_555
Li5 O39 1.971805 1_555
Li5 O42 2.056938 1_555
Li5 O26 2.075609 1_555
Li6 O36 1.953251 1_555
Li6 O45 1.995321 1_555
Li6 O32 2.001230 1_555
Li6 O28 2.002144 1_555
Li7 O29 1.956265 1_555
Li7 O44 1.963864 1_555
Li7 O37 2.003467 1_555
Li7 O33 2.082018 1_555
Nb0 O31 1.944884 1_555
Nb0 O47 1.949755 1_555
Nb0 O42 1.993369 1_555
Nb0 O33 2.032479 1_555
Nb0 O26 2.058890 1_555
Nb0 O37 2.063130 1_555
Fe0 O17 1.953178 1_555
Fe0 O1 1.970550 1_555
Fe0 O4 2.047374 1_565
Fe0 O14 2.052513 1_555
Fe0 O20 2.089394 1_565
Fe0 O11 2.093014 1_555
Fe1 O16 1.954477 1_555
Fe1 O0 1.964334 1_555
Fe1 O15 2.020330 1_555
Fe1 O5 2.036733 1_555
Fe1 O21 2.085749 1_555
Fe1 O10 2.088363 1_555
Fe2 O7 1.952422 1_554
Fe2 O22 1.963432 1_555
Fe2 O8 2.028032 1_555
Fe2 O18 2.042002 1_545
Fe2 O2 2.074045 1_545
Fe2 O12 2.093706 1_555
Fe3 O6 1.952215 1_556
Fe3 O23 1.963128 1_555
Fe3 O9 2.026481 1_555
Fe3 O19 2.033923 1_555
Fe3 O3 2.089164 1_555
Fe3 O13 2.104357 1_555
Fe4 O40 1.957289 1_554
Fe4 O24 1.961067 1_555
Fe4 O38 2.020388 1_555
Fe4 O28 2.031761 1_555
Fe4 O45 2.079720 1_555
Fe4 O34 2.129707 1_555
Fe5 O41 1.939952 1_556
Fe5 O25 1.957576 1_555
Fe5 O29 2.030361 1_565
Fe5 O39 2.056443 1_555
Fe5 O44 2.080135 1_565
Fe5 O35 2.105870 1_555
Fe6 O30 1.961414 1_555
Fe6 O46 1.966383 1_555
Fe6 O43 2.024291 1_545
Fe6 O32 2.047092 1_555
Fe6 O27 2.059091 1_545
Fe6 O36 2.086760 1_555
O0 P3 1.521607 1_455
O1 P3 1.515914 1_455
O2 P11 1.553667 1_455
O3 P10 1.539193 1_455
O4 P0 1.536959 1_555
O5 P0 1.535471 1_555
O6 P4 1.533667 1_555
O7 P5 1.530983 1_555
O8 P4 1.547918 1_555
O9 P5 1.550913 1_555
O10 P4 1.554151 1_555
O11 P5 1.552847 1_565
O12 P7 1.556342 1_545
O13 P6 1.542493 1_555
O14 P6 1.541350 1_555
O15 P7 1.551741 1_555
O16 P6 1.524641 1_555
O17 P7 1.531979 1_555
O18 P1 1.557095 1_555
O19 P1 1.555097 1_556
O20 P8 1.536624 1_555
O21 P9 1.532534 1_555
O22 P2 1.528962 1_555
O23 P2 1.531367 1_556
O24 P1 1.528727 1_555
O25 P1 1.530429 1_556
O26 P6 1.592702 1_555
O27 P7 1.553577 1_555
O28 P2 1.555133 1_555
O29 P2 1.557276 1_556
O30 P8 1.521870 1_555
O31 P9 1.598814 1_555
O32 P9 1.536407 1_555
O33 P8 1.597896 1_555
O34 P9 1.536837 1_555
O35 P8 1.541193 1_565
O36 P11 1.554614 1_545
O37 P10 1.597112 1_555
O38 P11 1.549173 1_555
O39 P10 1.543834 1_555
O40 P10 1.521440 1_555
O41 P11 1.531668 1_555
O42 P3 1.608866 1_555
O43 P3 1.541214 1_555
O44 P5 1.556467 1_655
O45 P4 1.554800 1_655
O46 P0 1.516952 1_655
O47 P0 1.589329 1_655
