# generated using pymatgen
data_Li3Fe8(BO3)8
_symmetry_space_group_name_H-M   'P 1'
_cell_length_a   5.24270900
_cell_length_b   9.10460372
_cell_length_c   10.21524806
_cell_angle_alpha   89.18095857
_cell_angle_beta   89.74915466
_cell_angle_gamma   89.12005146
_symmetry_Int_Tables_number   1
_chemical_formula_structural   Li3Fe8(BO3)8
_chemical_formula_sum   'Li3 Fe8 B8 O24'
_cell_volume   487.49073493
_cell_formula_units_Z   1
loop_
 _symmetry_equiv_pos_site_id
 _symmetry_equiv_pos_as_xyz
  1  'x, y, z'
loop_
 _atom_site_type_symbol
 _atom_site_label
 _atom_site_symmetry_multiplicity
 _atom_site_fract_x
 _atom_site_fract_y
 _atom_site_fract_z
 _atom_site_occupancy
  Li  Li0  1  0.32340900  0.33089700  0.40721300  1
  Li  Li1  1  0.66115800  0.67836800  0.66770500  1
  Li  Li2  1  0.68601900  0.67286300  0.16881200  1
  Fe  Fe0  1  0.16436800  0.84544300  0.62670100  1
  Fe  Fe1  1  0.17207800  0.49663700  0.12583200  1
  Fe  Fe2  1  0.32716100  0.99356400  0.88068000  1
  Fe  Fe3  1  0.31144000  0.66693000  0.38097200  1
  Fe  Fe4  1  0.67370400  0.33095200  0.62918400  1
  Fe  Fe5  1  0.67259800  0.00830000  0.12828700  1
  Fe  Fe6  1  0.84129600  0.15165900  0.37566000  1
  Fe  Fe7  1  0.82310300  0.49321000  0.88130800  1
  B  B0  1  0.16750900  0.50531300  0.62498900  1
  B  B1  1  0.17078900  0.82609000  0.12421800  1
  B  B2  1  0.34208100  0.00544700  0.37868000  1
  B  B3  1  0.32145700  0.66839400  0.87454900  1
  B  B4  1  0.65888800  0.99737200  0.63024700  1
  B  B5  1  0.67195600  0.33466100  0.13303700  1
  B  B6  1  0.82887000  0.49197200  0.37437900  1
  B  B7  1  0.82753900  0.16291800  0.87454400  1
  O  O0  1  0.09125300  0.48627000  0.33763700  1
  O  O1  1  0.08462200  0.14272300  0.87308100  1
  O  O2  1  0.19239600  0.79824500  0.83105900  1
  O  O3  1  0.24608200  0.87725800  0.43664500  1
  O  O4  1  0.21292600  0.13504700  0.38525400  1
  O  O5  1  0.17942000  0.55888200  0.93645000  1
  O  O6  1  0.31598700  0.38180700  0.61413300  1
  O  O7  1  0.32767000  0.93636800  0.07446500  1
  O  O8  1  0.27980900  0.64209100  0.59719600  1
  O  O9  1  0.29563600  0.69673300  0.16725000  1
  O  O10  1  0.41292000  0.34621100  0.14209600  1
  O  O11  1  0.41102300  0.99302200  0.68150500  1
  O  O12  1  0.57994900  0.99569700  0.31654700  1
  O  O13  1  0.57507400  0.65426000  0.85374900  1
  O  O14  1  0.71653200  0.28912600  0.82052300  1
  O  O15  1  0.71866800  0.36445900  0.42814400  1
  O  O16  1  0.68979900  0.61656800  0.35282700  1
  O  O17  1  0.66899300  0.05630700  0.93103900  1
  O  O18  1  0.81058100  0.45992300  0.09460100  1
  O  O19  1  0.80392700  0.87039700  0.62860400  1
  O  O20  1  0.75027800  0.12803300  0.58205700  1
  O  O21  1  0.79970400  0.20474600  0.16213500  1
  O  O22  1  0.91231100  0.84217500  0.13059600  1
  O  O23  1  0.90787800  0.50277400  0.65681500  1
loop_
_geom_bond_atom_site_label_1
_geom_bond_atom_site_label_2
_geom_bond_distance
_geom_bond_site_symmetry_2
Li0 O4 1.899921 1_555
Li0 O0 1.978285 1_555
Li0 O15 2.111496 1_555
Li0 O6 2.170481 1_555
Li1 O19 1.947850 1_555
Li1 O13 1.961457 1_555
Li1 O23 2.044912 1_555
Li1 O8 2.159809 1_555
Li2 O16 1.941406 1_555
Li2 O22 1.992761 1_555
Li2 O9 2.054956 1_555
Li2 O18 2.181431 1_555
Fe0 O19 1.899877 1_455
Fe0 O8 1.965936 1_555
Fe0 O11 1.967799 1_555
Fe0 O3 2.004292 1_555
Fe0 O2 2.130561 1_555
Fe1 O10 1.854686 1_555
Fe1 O18 1.957853 1_455
Fe1 O9 1.994554 1_555
Fe1 O5 2.008467 1_554
Fe1 O0 2.203899 1_555
Fe2 O1 1.847149 1_565
Fe2 O17 1.962294 1_565
Fe2 O2 1.996493 1_555
Fe2 O7 2.039701 1_556
Fe2 O11 2.079760 1_555
Fe3 O3 2.029080 1_555
Fe3 O16 2.049029 1_555
Fe3 O0 2.077896 1_555
Fe3 O9 2.197934 1_555
Fe3 O8 2.222842 1_555
Fe4 O6 1.931059 1_555
Fe4 O20 1.951186 1_555
Fe4 O14 1.998933 1_555
Fe4 O23 2.027027 1_555
Fe4 O15 2.084771 1_555
Fe5 O22 1.951534 1_545
Fe5 O21 1.954195 1_555
Fe5 O12 1.983614 1_545
Fe5 O7 2.014132 1_545
Fe5 O17 2.055790 1_554
Fe6 O4 1.954671 1_655
Fe6 O12 2.085625 1_545
Fe6 O15 2.107828 1_555
Fe6 O20 2.168106 1_555
Fe6 O21 2.238220 1_555
Fe7 O13 1.962910 1_555
Fe7 O5 2.053685 1_655
Fe7 O14 2.053823 1_555
Fe7 O18 2.196358 1_556
Fe7 O23 2.334669 1_555
B0 O6 1.363309 1_555
B0 O23 1.398532 1_455
B0 O8 1.410313 1_555
B1 O22 1.362153 1_455
B1 O7 1.396420 1_555
B1 O9 1.404555 1_555
B2 O4 1.353746 1_555
B2 O12 1.398999 1_545
B2 O3 1.400622 1_545
B3 O13 1.350075 1_555
B3 O5 1.396122 1_555
B3 O2 1.419837 1_555
B4 O20 1.373239 1_565
B4 O19 1.374189 1_555
B4 O11 1.399796 1_555
B5 O10 1.363347 1_555
B5 O21 1.379618 1_555
B5 O18 1.411795 1_555
B6 O16 1.354913 1_555
B6 O15 1.408141 1_555
B6 O0 1.424668 1_655
B7 O1 1.357541 1_655
B7 O14 1.388430 1_555
B7 O17 1.403815 1_555
