# generated using pymatgen
data_LiCuPO4
_symmetry_space_group_name_H-M   'P 1'
_cell_length_a   9.76270700
_cell_length_b   4.89441900
_cell_length_c   7.43297852
_cell_angle_alpha   81.59403925
_cell_angle_beta   90.00000000
_cell_angle_gamma   90.00000000
_symmetry_Int_Tables_number   1
_chemical_formula_structural   LiCuPO4
_chemical_formula_sum   'Li4 Cu4 P4 O16'
_cell_volume   351.35283970
_cell_formula_units_Z   4
loop_
 _symmetry_equiv_pos_site_id
 _symmetry_equiv_pos_as_xyz
  1  'x, y, z'
loop_
 _atom_site_type_symbol
 _atom_site_label
 _atom_site_symmetry_multiplicity
 _atom_site_fract_x
 _atom_site_fract_y
 _atom_site_fract_z
 _atom_site_occupancy
  Li  Li0  1  0.30768200  0.70027800  0.21690700  1
  Li  Li1  1  0.75500900  0.35088500  0.24712900  1
  Li  Li2  1  0.25500900  0.64911500  0.75287100  1
  Li  Li3  1  0.80768200  0.29972200  0.78309300  1
  Cu  Cu0  1  0.99780400  0.87106100  0.06002300  1
  Cu  Cu1  1  0.16065200  0.08723500  0.45951700  1
  Cu  Cu2  1  0.66065200  0.91276500  0.54048300  1
  Cu  Cu3  1  0.49780400  0.12893900  0.93997700  1
  P  P0  1  0.19669600  0.22905000  0.04484600  1
  P  P1  1  0.90054300  0.76780300  0.44568700  1
  P  P2  1  0.40054300  0.23219700  0.55431300  1
  P  P3  1  0.69669600  0.77095000  0.95515400  1
  O  O0  1  0.33796100  0.09058600  0.09427500  1
  O  O1  1  0.20736400  0.54408500  0.01802100  1
  O  O2  1  0.61908300  0.88365600  0.11205000  1
  O  O3  1  0.10064500  0.10695000  0.21102700  1
  O  O4  1  0.91407300  0.63842500  0.26683200  1
  O  O5  1  0.29158100  0.40568900  0.42989700  1
  O  O6  1  0.83062500  0.05690200  0.40759300  1
  O  O7  1  0.53920000  0.21759000  0.45509500  1
  O  O8  1  0.03920000  0.78241000  0.54490500  1
  O  O9  1  0.33062500  0.94309800  0.59240700  1
  O  O10  1  0.79158100  0.59431100  0.57010300  1
  O  O11  1  0.41407300  0.36157500  0.73316800  1
  O  O12  1  0.60064500  0.89305000  0.78897300  1
  O  O13  1  0.11908300  0.11634400  0.88795000  1
  O  O14  1  0.70736400  0.45591500  0.98197900  1
  O  O15  1  0.83796100  0.90941400  0.90572500  1
loop_
_geom_bond_atom_site_label_1
_geom_bond_atom_site_label_2
_geom_bond_distance
_geom_bond_site_symmetry_2
Li0 O5 1.985598 1_555
Li0 O0 2.014574 1_565
Li0 O1 2.014803 1_555
Li1 O6 1.880468 1_555
Li1 O14 2.017095 1_554
Li1 O4 2.115136 1_555
Li2 O9 1.880468 1_555
Li2 O1 2.017095 1_556
Li2 O11 2.115136 1_555
Li3 O10 1.985598 1_555
Li3 O15 2.014574 1_545
Li3 O14 2.014803 1_555
Cu0 O15 1.929461 1_554
Cu0 O4 1.953441 1_555
Cu0 O3 1.994911 1_665
Cu0 O13 2.007504 1_664
Cu1 O3 1.926626 1_555
Cu1 O8 1.938492 1_545
Cu1 O5 2.002841 1_555
Cu1 O9 2.005799 1_545
Cu2 O12 1.926626 1_555
Cu2 O7 1.938492 1_565
Cu2 O10 2.002841 1_555
Cu2 O6 2.005799 1_565
Cu3 O0 1.929461 1_556
Cu3 O11 1.953441 1_555
Cu3 O12 1.994911 1_545
Cu3 O2 2.007504 1_546
O0 P0 1.556748 1_555
O1 P0 1.529121 1_555
O2 P3 1.557737 1_554
O3 P0 1.595743 1_555
O4 P1 1.559464 1_555
O5 P2 1.574251 1_555
O6 P1 1.559201 1_545
O7 P2 1.548169 1_555
O8 P1 1.548169 1_455
O9 P2 1.559201 1_565
O10 P1 1.574251 1_555
O11 P2 1.559464 1_555
O12 P3 1.595743 1_555
O13 P0 1.557737 1_556
O14 P3 1.529121 1_555
O15 P3 1.556748 1_555
