# generated using pymatgen
data_Hf2N2O
_symmetry_space_group_name_H-M   'P 1'
_cell_length_a   8.66479737
_cell_length_b   8.66459779
_cell_length_c   8.67088786
_cell_angle_alpha   109.44694754
_cell_angle_beta   109.55270528
_cell_angle_gamma   109.20742158
_symmetry_Int_Tables_number   1
_chemical_formula_structural   Hf2N2O
_chemical_formula_sum   'Hf16 N16 O8'
_cell_volume   502.39780547
_cell_formula_units_Z   8
loop_
 _symmetry_equiv_pos_site_id
 _symmetry_equiv_pos_as_xyz
  1  'x, y, z'
loop_
 _atom_site_type_symbol
 _atom_site_label
 _atom_site_symmetry_multiplicity
 _atom_site_fract_x
 _atom_site_fract_y
 _atom_site_fract_z
 _atom_site_occupancy
  Hf  Hf0  1  0.48863031  0.49118168  0.50100257  1
  Hf  Hf1  1  0.78795960  0.53608561  0.24331090  1
  Hf  Hf2  1  0.52955994  0.75037561  0.27974122  1
  Hf  Hf3  1  0.03101260  0.74389196  0.78922777  1
  Hf  Hf4  1  0.70535700  0.96449822  0.74940203  1
  Hf  Hf5  1  0.74743343  0.71466674  0.97278322  1
  Hf  Hf6  1  0.74828609  0.21550778  0.46666851  1
  Hf  Hf7  1  0.25123138  0.29139834  0.03328277  1
  Hf  Hf8  1  0.00801587  0.00594860  0.49599960  1
  Hf  Hf9  1  0.50848543  0.99817663  0.00080074  1
  Hf  Hf10  1  0.25565529  0.78675708  0.53084843  1
  Hf  Hf11  1  0.00051891  0.51063305  0.00272510  1
  Hf  Hf12  1  0.28874066  0.03641805  0.25548135  1
  Hf  Hf13  1  0.46568858  0.25105783  0.71572498  1
  Hf  Hf14  1  0.97419565  0.25014336  0.22046455  1
  Hf  Hf15  1  0.21298863  0.45648971  0.74963328  1
  N  N0  1  0.22826496  0.26151174  0.26639690  1
  N  N1  1  0.46095087  0.73033608  0.48915606  1
  N  N2  1  0.49341965  0.95656128  0.22722599  1
  N  N3  1  0.04227591  0.52983460  0.27526591  1
  N  N4  1  0.54706271  0.27600381  0.51358909  1
  N  N5  1  0.76049741  0.77038799  0.23294462  1
  N  N6  1  0.95599965  0.47044730  0.72690726  1
  N  N7  1  0.00543993  0.23403865  0.46130870  1
  N  N8  1  0.03207373  0.77444558  0.04171675  1
  N  N9  1  0.74141377  0.96880849  0.00994083  1
  N  N10  1  0.51182400  0.04454316  0.77528696  1
  N  N11  1  0.22332759  0.98230973  0.45017694  1
  N  N12  1  0.23354435  0.22223329  0.77137623  1
  N  N13  1  0.27299982  0.54191353  0.03779251  1
  N  N14  1  0.72696291  0.45237729  0.96815084  1
  N  N15  1  0.46352851  0.51891087  0.73825214  1
  O  O0  1  0.71713714  0.27157099  0.23532466  1
  O  O1  1  0.77448411  0.73655805  0.71995454  1
  O  O2  1  0.53602655  0.47951768  0.25870800  1
  O  O3  1  0.96521199  0.22332514  0.94534679  1
  O  O4  1  0.26409064  0.03305078  0.98597484  1
  O  O5  1  0.77787459  0.02022811  0.55477069  1
  O  O6  1  0.27158243  0.73390499  0.76645326  1
  O  O7  1  0.99024940  0.76394462  0.54087847  1
loop_
_geom_bond_atom_site_label_1
_geom_bond_atom_site_label_2
_geom_bond_distance
_geom_bond_site_symmetry_2
Hf0 N15 2.083680 1_555
Hf0 N4 2.112810 1_555
Hf0 N0 2.113412 1_555
Hf0 N1 2.194137 1_555
Hf0 O1 2.226948 1_555
Hf0 O2 2.248584 1_555
Hf1 N14 2.061380 1_554
Hf1 O2 2.134940 1_555
Hf1 O0 2.138854 1_555
Hf1 N5 2.147370 1_555
Hf1 N3 2.148347 1_655
Hf1 O7 2.220678 1_555
Hf2 N2 2.076388 1_555
Hf2 N13 2.078167 1_555
Hf2 N1 2.131970 1_555
Hf2 N5 2.135614 1_555
Hf2 O5 2.307811 1_565
Hf2 O2 2.313566 1_555
Hf3 N6 2.055996 1_455
Hf3 O1 2.072078 1_455
Hf3 N8 2.112396 1_556
Hf3 O7 2.138346 1_455
Hf3 O6 2.185043 1_555
Hf3 O4 2.187409 1_565
Hf4 N10 2.063251 1_565
Hf4 O5 2.128110 1_565
Hf4 O3 2.136713 1_565
Hf4 N1 2.149178 1_555
Hf4 N9 2.160154 1_556
Hf4 O1 2.206712 1_555
Hf5 N5 2.098236 1_556
Hf5 N9 2.137731 1_556
Hf5 N15 2.161775 1_555
Hf5 N8 2.162175 1_656
Hf5 N14 2.206161 1_555
Hf5 O1 2.342742 1_555
Hf6 N4 2.101054 1_555
Hf6 O5 2.127736 1_555
Hf6 N6 2.134766 1_555
Hf6 O0 2.169191 1_555
Hf6 N2 2.188733 1_545
Hf6 N7 2.198098 1_655
Hf7 N12 2.083338 1_554
Hf7 N13 2.101862 1_555
Hf7 O3 2.131932 1_454
Hf7 O2 2.137835 1_555
Hf7 O4 2.185120 1_554
Hf7 N0 2.185453 1_555
Hf8 N11 2.091363 1_545
Hf8 N7 2.101701 1_555
Hf8 N12 2.125958 1_555
Hf8 N5 2.171092 1_445
Hf8 O7 2.223289 1_445
Hf8 O5 2.247686 1_455
Hf9 N9 2.094937 1_555
Hf9 O0 2.128136 1_565
Hf9 N10 2.130529 1_564
Hf9 O6 2.145470 1_554
Hf9 N2 2.147930 1_555
Hf9 O4 2.203832 1_564
Hf10 N11 2.099769 1_555
Hf10 N1 2.102121 1_555
Hf10 N3 2.132971 1_555
Hf10 N10 2.201071 1_565
Hf10 O6 2.208625 1_555
Hf10 O7 2.276275 1_455
Hf11 N8 2.103897 1_555
Hf11 N14 2.144618 1_454
Hf11 N6 2.174706 1_454
Hf11 N13 2.187180 1_555
Hf11 N3 2.206682 1_555
Hf11 O3 2.260661 1_454
Hf12 N11 2.093716 1_545
Hf12 N8 2.156786 1_545
Hf12 N2 2.160898 1_545
Hf12 N0 2.161048 1_555
Hf12 N4 2.196422 1_555
Hf12 O4 2.263582 1_554
Hf13 N14 2.121627 1_555
Hf13 N10 2.139200 1_555
Hf13 N4 2.143592 1_555
Hf13 N12 2.177310 1_555
Hf13 N11 2.260490 1_545
Hf13 N15 2.270235 1_555
Hf14 N0 2.063751 1_655
Hf14 N7 2.072285 1_655
Hf14 N3 2.133465 1_655
Hf14 N9 2.163357 1_545
Hf14 O3 2.290292 1_554
Hf14 O0 2.336766 1_555
Hf15 N15 2.102702 1_555
Hf15 N12 2.158079 1_555
Hf15 N7 2.168096 1_555
Hf15 N13 2.169539 1_556
Hf15 N6 2.216136 1_455
Hf15 O6 2.229530 1_555
