# generated using pymatgen
data_NaLiMnP2O7
_symmetry_space_group_name_H-M   'P 1'
_cell_length_a   6.63529800
_cell_length_b   6.69850630
_cell_length_c   7.04612115
_cell_angle_alpha   67.02535278
_cell_angle_beta   85.59766397
_cell_angle_gamma   83.49355572
_symmetry_Int_Tables_number   1
_chemical_formula_structural   NaLiMnP2O7
_chemical_formula_sum   'Na2 Li2 Mn2 P4 O14'
_cell_volume   286.29583933
_cell_formula_units_Z   2
loop_
 _symmetry_equiv_pos_site_id
 _symmetry_equiv_pos_as_xyz
  1  'x, y, z'
loop_
 _atom_site_type_symbol
 _atom_site_label
 _atom_site_symmetry_multiplicity
 _atom_site_fract_x
 _atom_site_fract_y
 _atom_site_fract_z
 _atom_site_occupancy
  Na  Na0  1  0.86092400  0.26927200  0.14944900  1
  Na  Na1  1  0.15655500  0.66629200  0.88665400  1
  Li  Li0  1  0.64606700  0.65804000  0.03579500  1
  Li  Li1  1  0.11004600  0.00097200  0.48526200  1
  Mn  Mn0  1  0.66122100  0.13038100  0.75075800  1
  Mn  Mn1  1  0.35496700  0.90958900  0.20813300  1
  P  P0  1  0.85460200  0.77692700  0.25500400  1
  P  P1  1  0.60284500  0.66017300  0.65627900  1
  P  P2  1  0.38346600  0.35225800  0.34466200  1
  P  P3  1  0.15328600  0.21953800  0.75404500  1
  O  O0  1  0.91750900  0.61394000  0.15583800  1
  O  O1  1  0.00113000  0.08591900  0.70547100  1
  O  O2  1  0.76857500  0.63815800  0.48166000  1
  O  O3  1  0.68806800  0.80221200  0.75206300  1
  O  O4  1  0.67792300  0.93887500  0.13135400  1
  O  O5  1  0.60072000  0.42544700  0.81548900  1
  O  O6  1  0.59624800  0.25828900  0.42432500  1
  O  O7  1  0.40058700  0.76129800  0.55138400  1
  O  O8  1  0.38825400  0.58564400  0.17779400  1
  O  O9  1  0.33548100  0.05968000  0.86642300  1
  O  O10  1  0.27517100  0.20391500  0.27415100  1
  O  O11  1  0.24246200  0.38205900  0.53168200  1
  O  O12  1  0.02251200  0.90374600  0.28097000  1
  O  O13  1  0.05809000  0.36490000  0.85838100  1
loop_
_geom_bond_atom_site_label_1
_geom_bond_atom_site_label_2
_geom_bond_distance
_geom_bond_site_symmetry_2
Na0 O13 2.253996 1_654
Na0 O0 2.398657 1_555
Na0 O12 2.406177 1_645
Na0 O6 2.497350 1_555
Na0 O4 2.691076 1_545
Na0 O5 2.811612 1_554
Na0 O10 2.883846 1_655
Na1 O13 2.274926 1_555
Na1 O0 2.319757 1_456
Na1 O8 2.508886 1_556
Na1 O7 2.660879 1_555
Na1 O1 2.708913 1_565
Li0 O3 1.864246 1_554
Li0 O8 1.925903 1_555
Li0 O0 1.991206 1_555
Li0 O4 2.266631 1_555
Li1 O1 1.917674 1_555
Li1 O10 1.941630 1_555
Li1 O12 1.944088 1_545
Li1 O7 2.315949 1_545
Mn0 O6 2.177257 1_555
Mn0 O3 2.181699 1_545
Mn0 O5 2.184390 1_555
Mn0 O1 2.255840 1_655
Mn0 O9 2.284801 1_555
Mn0 O4 2.485437 1_546
Mn1 O4 2.181207 1_555
Mn1 O10 2.196648 1_565
Mn1 O9 2.225602 1_564
Mn1 O12 2.227368 1_555
Mn1 O8 2.247089 1_555
Mn1 O7 2.257583 1_555
O0 P0 1.517198 1_555
O1 P3 1.560297 1_555
O2 P0 1.600577 1_555
O2 P1 1.625437 1_555
O3 P1 1.536986 1_555
O4 P0 1.562366 1_555
O5 P1 1.535086 1_555
O6 P2 1.532679 1_555
O7 P1 1.536755 1_555
O8 P2 1.548569 1_555
O9 P3 1.557813 1_555
O10 P2 1.533818 1_555
O11 P2 1.620327 1_555
O11 P3 1.631638 1_555
O12 P0 1.537378 1_455
O13 P3 1.495225 1_555
