# generated using pymatgen
data_Li3TiFe3O8
_symmetry_space_group_name_H-M   'P 1'
_cell_length_a   5.91843606
_cell_length_b   5.91843606
_cell_length_c   9.61660500
_cell_angle_alpha   90.00000000
_cell_angle_beta   90.00000000
_cell_angle_gamma   120.00000071
_symmetry_Int_Tables_number   1
_chemical_formula_structural   Li3TiFe3O8
_chemical_formula_sum   'Li6 Ti2 Fe6 O16'
_cell_volume   291.72008208
_cell_formula_units_Z   2
loop_
 _symmetry_equiv_pos_site_id
 _symmetry_equiv_pos_as_xyz
  1  'x, y, z'
loop_
 _atom_site_type_symbol
 _atom_site_label
 _atom_site_symmetry_multiplicity
 _atom_site_fract_x
 _atom_site_fract_y
 _atom_site_fract_z
 _atom_site_occupancy
  Li  Li0  1  0.82398700  0.17601300  0.55833800  1
  Li  Li1  1  0.82398700  0.64797300  0.55833800  1
  Li  Li2  1  0.35202700  0.17601300  0.55833800  1
  Li  Li3  1  0.64797300  0.82398700  0.05833800  1
  Li  Li4  1  0.17601300  0.35202700  0.05833800  1
  Li  Li5  1  0.17601300  0.82398700  0.05833800  1
  Ti  Ti0  1  0.66666700  0.33333300  0.00260000  1
  Ti  Ti1  1  0.33333300  0.66666700  0.50260000  1
  Fe  Fe0  1  0.83053700  0.16946300  0.28484300  1
  Fe  Fe1  1  0.83053700  0.66107500  0.28484300  1
  Fe  Fe2  1  0.33892500  0.16946300  0.28484300  1
  Fe  Fe3  1  0.66107500  0.83053700  0.78484300  1
  Fe  Fe4  1  0.16946300  0.33892500  0.78484300  1
  Fe  Fe5  1  0.16946300  0.83053700  0.78484300  1
  O  O0  1  0.83261300  0.16738700  0.90915200  1
  O  O1  1  0.96355700  0.48177800  0.15414300  1
  O  O2  1  0.83261300  0.66522600  0.90915200  1
  O  O3  1  0.00000000  0.00000000  0.67729000  1
  O  O4  1  0.66666700  0.33333300  0.40470400  1
  O  O5  1  0.00000000  0.00000000  0.17729000  1
  O  O6  1  0.51822200  0.03644300  0.15414300  1
  O  O7  1  0.51822200  0.48177800  0.15414300  1
  O  O8  1  0.33477400  0.16738700  0.90915200  1
  O  O9  1  0.66522600  0.83261300  0.40915200  1
  O  O10  1  0.48177800  0.51822200  0.65414300  1
  O  O11  1  0.33333300  0.66666700  0.90470400  1
  O  O12  1  0.16738700  0.33477400  0.40915200  1
  O  O13  1  0.48177800  0.96355700  0.65414300  1
  O  O14  1  0.03644300  0.51822200  0.65414300  1
  O  O15  1  0.16738700  0.83261300  0.40915200  1
loop_
_geom_bond_atom_site_label_1
_geom_bond_atom_site_label_2
_geom_bond_distance
_geom_bond_site_symmetry_2
Li0 O14 1.996305 1_655
Li0 O13 1.996305 1_545
Li0 O3 2.136374 1_655
Li0 O4 2.187144 1_555
Li0 O9 2.272021 1_545
Li0 O12 2.272021 1_655
Li1 O14 1.996296 1_655
Li1 O10 1.996306 1_555
Li1 O3 2.136378 1_665
Li1 O4 2.187144 1_555
Li1 O15 2.272022 1_655
Li1 O9 2.272026 1_555
Li2 O13 1.996296 1_545
Li2 O10 1.996306 1_555
Li2 O3 2.136378 1_555
Li2 O4 2.187144 1_555
Li2 O15 2.272022 1_545
Li2 O12 2.272026 1_555
Li3 O6 1.996296 1_565
Li3 O7 1.996306 1_555
Li3 O5 2.136378 1_665
Li3 O11 2.187144 1_554
Li3 O0 2.272022 1_564
Li3 O2 2.272026 1_554
Li4 O1 1.996296 1_455
Li4 O7 1.996306 1_555
Li4 O5 2.136378 1_555
Li4 O11 2.187144 1_554
Li4 O0 2.272022 1_454
Li4 O8 2.272026 1_554
Li5 O6 1.996305 1_565
Li5 O1 1.996305 1_455
Li5 O5 2.136374 1_565
Li5 O11 2.187144 1_554
Li5 O2 2.272021 1_454
Li5 O8 2.272021 1_564
Fe0 O5 2.021763 1_655
Fe0 O4 2.037269 1_555
Fe0 O6 2.039855 1_555
Fe0 O1 2.039855 1_555
Fe0 O12 2.100071 1_655
Fe0 O9 2.100071 1_545
Fe1 O5 2.021759 1_665
Fe1 O4 2.037278 1_555
Fe1 O7 2.039856 1_555
Fe1 O1 2.039863 1_555
Fe1 O9 2.100067 1_555
Fe1 O15 2.100071 1_655
Fe2 O5 2.021759 1_555
Fe2 O4 2.037278 1_555
Fe2 O7 2.039856 1_555
Fe2 O6 2.039863 1_555
Fe2 O12 2.100067 1_555
Fe2 O15 2.100071 1_545
Fe3 O3 2.021759 1_665
Fe3 O11 2.037278 1_555
Fe3 O10 2.039856 1_555
Fe3 O13 2.039863 1_555
Fe3 O2 2.100067 1_555
Fe3 O0 2.100071 1_565
Fe4 O3 2.021759 1_555
Fe4 O11 2.037278 1_555
Fe4 O10 2.039856 1_555
Fe4 O14 2.039863 1_555
Fe4 O8 2.100067 1_555
Fe4 O0 2.100071 1_455
Fe5 O3 2.021763 1_565
Fe5 O11 2.037269 1_555
Fe5 O13 2.039855 1_555
Fe5 O14 2.039855 1_555
Fe5 O2 2.100071 1_455
Fe5 O8 2.100071 1_565
O0 Ti0 1.923897 1_556
O1 Ti0 2.106994 1_555
O2 Ti0 1.923901 1_556
O6 Ti0 2.106994 1_555
O7 Ti0 2.106994 1_555
O8 Ti0 1.923901 1_556
O9 Ti1 1.923901 1_555
O10 Ti1 2.106994 1_555
O12 Ti1 1.923901 1_555
O13 Ti1 2.106994 1_555
O14 Ti1 2.106994 1_555
O15 Ti1 1.923897 1_555
