# generated using pymatgen
data_Cr2Fe3Co(PO4)6
_symmetry_space_group_name_H-M   'P 1'
_cell_length_a   8.36256289
_cell_length_b   8.36256289
_cell_length_c   8.36256327
_cell_angle_alpha   61.68307120
_cell_angle_beta   61.68307120
_cell_angle_gamma   61.68307430
_symmetry_Int_Tables_number   1
_chemical_formula_structural   Cr2Fe3Co(PO4)6
_chemical_formula_sum   'Cr2 Fe3 Co1 P6 O24'
_cell_volume   429.12951402
_cell_formula_units_Z   1
loop_
 _symmetry_equiv_pos_site_id
 _symmetry_equiv_pos_as_xyz
  1  'x, y, z'
loop_
 _atom_site_type_symbol
 _atom_site_label
 _atom_site_symmetry_multiplicity
 _atom_site_fract_x
 _atom_site_fract_y
 _atom_site_fract_z
 _atom_site_occupancy
  Cr  Cr0  1  0.00010600  0.00010600  0.00010600  1
  Cr  Cr1  1  0.49941000  0.49941000  0.49941000  1
  Fe  Fe0  1  0.14505500  0.14505500  0.14505500  1
  Fe  Fe1  1  0.35340200  0.35340200  0.35340200  1
  Fe  Fe2  1  0.64636700  0.64636700  0.64636700  1
  Co  Co0  1  0.85966100  0.85966100  0.85966100  1
  P  P0  1  0.75007500  0.04515200  0.45995400  1
  P  P1  1  0.04515200  0.45995400  0.75007500  1
  P  P2  1  0.45995400  0.75007500  0.04515200  1
  P  P3  1  0.54895000  0.24626800  0.94963800  1
  P  P4  1  0.94963800  0.54895000  0.24626800  1
  P  P5  1  0.24626800  0.94963800  0.54895000  1
  O  O0  1  0.31545400  0.10653800  0.51146100  1
  O  O1  1  0.51146100  0.31545400  0.10653800  1
  O  O2  1  0.90663500  0.05732500  0.25402000  1
  O  O3  1  0.10653800  0.51146100  0.31545400  1
  O  O4  1  0.81662300  0.00848600  0.61775600  1
  O  O5  1  0.59480400  0.25120800  0.43873700  1
  O  O6  1  0.05732500  0.25402000  0.90663500  1
  O  O7  1  0.25120800  0.43873700  0.59480400  1
  O  O8  1  0.39342500  0.17396700  0.99266200  1
  O  O9  1  0.43873700  0.59480400  0.25120800  1
  O  O10  1  0.75338800  0.08697200  0.93730300  1
  O  O11  1  0.99266200  0.39342500  0.17396700  1
  O  O12  1  0.00848600  0.61775600  0.81662300  1
  O  O13  1  0.25402000  0.90663500  0.05732500  1
  O  O14  1  0.56522700  0.40230500  0.74672100  1
  O  O15  1  0.61775600  0.81662300  0.00848600  1
  O  O16  1  0.74672100  0.56522700  0.40230500  1
  O  O17  1  0.93730300  0.75338800  0.08697200  1
  O  O18  1  0.40230500  0.74672100  0.56522700  1
  O  O19  1  0.17396700  0.99266200  0.39342500  1
  O  O20  1  0.89428600  0.49750300  0.67315600  1
  O  O21  1  0.08697200  0.93730300  0.75338800  1
  O  O22  1  0.49750300  0.67315600  0.89428600  1
  O  O23  1  0.67315600  0.89428600  0.49750300  1
loop_
_geom_bond_atom_site_label_1
_geom_bond_atom_site_label_2
_geom_bond_distance
_geom_bond_site_symmetry_2
Cr0 O17 2.074723 1_445
Cr0 O10 2.074724 1_454
Cr0 O21 2.074724 1_544
Cr0 O6 2.093592 1_554
Cr0 O13 2.093592 1_545
Cr0 O2 2.093592 1_455
Cr1 O7 2.060636 1_555
Cr1 O5 2.060636 1_555
Cr1 O9 2.060636 1_555
Cr1 O16 2.074182 1_555
Cr1 O18 2.074183 1_555
Cr1 O14 2.074183 1_555
Fe0 O8 1.915587 1_554
Fe0 O11 1.915587 1_455
Fe0 O19 1.915587 1_545
Fe0 O2 2.091340 1_455
Fe0 O13 2.091341 1_545
Fe0 O6 2.091341 1_554
Fe1 O0 1.935068 1_555
Fe1 O3 1.935068 1_555
Fe1 O1 1.935068 1_555
Fe1 O9 2.113368 1_555
Fe1 O5 2.113368 1_555
Fe1 O7 2.113368 1_555
Fe2 O23 1.904143 1_555
Fe2 O20 1.904143 1_555
Fe2 O22 1.904143 1_555
Fe2 O14 2.116358 1_555
Fe2 O18 2.116358 1_555
Fe2 O16 2.116358 1_555
Co0 O15 1.909983 1_556
Co0 O12 1.909983 1_655
Co0 O4 1.909983 1_565
Co0 O21 1.961023 1_655
Co0 O10 1.961023 1_565
Co0 O17 1.961023 1_556
O0 P5 1.520681 1_545
O1 P3 1.520681 1_554
O2 P0 1.584720 1_555
O3 P4 1.520681 1_455
O4 P0 1.515290 1_555
O5 P0 1.578798 1_555
O6 P1 1.584720 1_555
O7 P1 1.578798 1_555
O8 P3 1.510714 1_555
O9 P2 1.578798 1_555
O10 P3 1.584449 1_555
O11 P4 1.510714 1_555
O12 P1 1.515290 1_555
O13 P2 1.584720 1_555
O14 P3 1.565067 1_555
O15 P2 1.515290 1_555
O16 P4 1.565067 1_555
O17 P4 1.584449 1_555
O18 P5 1.565067 1_555
O19 P5 1.510714 1_555
O20 P1 1.518717 1_655
O21 P5 1.584449 1_555
O22 P2 1.518717 1_556
O23 P0 1.518717 1_565
