# generated using pymatgen
data_Li5Ni5(SbO6)2
_symmetry_space_group_name_H-M   'P 1'
_cell_length_a   5.26258872
_cell_length_b   5.26258872
_cell_length_c   10.02270372
_cell_angle_alpha   84.59286879
_cell_angle_beta   84.59286879
_cell_angle_gamma   120.58772139
_symmetry_Int_Tables_number   1
_chemical_formula_structural   Li5Ni5(SbO6)2
_chemical_formula_sum   'Li5 Ni5 Sb2 O12'
_cell_volume   234.59265211
_cell_formula_units_Z   1
loop_
 _symmetry_equiv_pos_site_id
 _symmetry_equiv_pos_as_xyz
  1  'x, y, z'
loop_
 _atom_site_type_symbol
 _atom_site_label
 _atom_site_symmetry_multiplicity
 _atom_site_fract_x
 _atom_site_fract_y
 _atom_site_fract_z
 _atom_site_occupancy
  Li  Li0  1  0.82682600  0.67535400  0.25500300  1
  Li  Li1  1  0.67427100  0.82903900  0.74315600  1
  Li  Li2  1  0.32464600  0.17317400  0.74499700  1
  Li  Li3  1  0.17096100  0.32572900  0.25684400  1
  Li  Li4  1  0.08394300  0.91605700  0.50000000  1
  Ni  Ni0  1  0.91870300  0.08129700  0.00000000  1
  Ni  Ni1  1  0.99894800  0.50344200  0.74726100  1
  Ni  Ni2  1  0.49655800  0.00105200  0.25273900  1
  Ni  Ni3  1  0.58576600  0.41423400  0.00000000  1
  Ni  Ni4  1  0.41446100  0.58553900  0.50000000  1
  Sb  Sb0  1  0.74792600  0.25207400  0.50000000  1
  Sb  Sb1  1  0.25250200  0.74749800  0.00000000  1
  O  O0  1  0.02791700  0.22721400  0.61844400  1
  O  O1  1  0.77278600  0.97208300  0.38155600  1
  O  O2  1  0.86997200  0.36592800  0.11962700  1
  O  O3  1  0.63407200  0.13002800  0.88037300  1
  O  O4  1  0.70775900  0.52309300  0.61773700  1
  O  O5  1  0.47690700  0.29224100  0.38226300  1
  O  O6  1  0.54461900  0.71436200  0.12344000  1
  O  O7  1  0.28563800  0.45538100  0.87656000  1
  O  O8  1  0.39425600  0.88627100  0.61790900  1
  O  O9  1  0.11372900  0.60574400  0.38209100  1
  O  O10  1  0.21710100  0.04026700  0.12362800  1
  O  O11  1  0.95973300  0.78289900  0.87637200  1
loop_
_geom_bond_atom_site_label_1
_geom_bond_atom_site_label_2
_geom_bond_distance
_geom_bond_site_symmetry_2
Li0 O5 2.092136 1_555
Li0 O6 2.148224 1_555
Li0 O10 2.153995 1_665
Li0 O9 2.207656 1_655
Li0 O1 2.210310 1_555
Li0 O2 2.297566 1_555
Li1 O0 2.125079 1_665
Li1 O8 2.137078 1_555
Li1 O7 2.175675 1_555
Li1 O11 2.187841 1_555
Li1 O4 2.198176 1_555
Li1 O3 2.267578 1_565
Li2 O4 2.092136 1_555
Li2 O7 2.148224 1_555
Li2 O11 2.153995 1_445
Li2 O8 2.207656 1_545
Li2 O0 2.210310 1_555
Li2 O3 2.297566 1_555
Li3 O1 2.125079 1_445
Li3 O9 2.137078 1_555
Li3 O6 2.175675 1_555
Li3 O10 2.187841 1_555
Li3 O5 2.198176 1_555
Li3 O2 2.267578 1_455
Li4 O5 2.126411 1_565
Li4 O4 2.126411 1_455
Li4 O8 2.162710 1_555
Li4 O9 2.162710 1_555
Li4 O0 2.229200 1_565
Li4 O1 2.229200 1_455
Ni0 O7 2.087338 1_654
Ni0 O6 2.087338 1_545
Ni0 O2 2.102021 1_555
Ni0 O3 2.102021 1_554
Ni0 O11 2.170096 1_544
Ni0 O10 2.170096 1_655
Ni1 O0 2.084586 1_655
Ni1 O11 2.120663 1_555
Ni1 O3 2.124055 1_555
Ni1 O4 2.134278 1_555
Ni1 O7 2.171344 1_655
Ni1 O8 2.191237 1_655
Ni2 O1 2.084586 1_545
Ni2 O10 2.120663 1_555
Ni2 O2 2.124055 1_555
Ni2 O5 2.134278 1_555
Ni2 O6 2.171344 1_545
Ni2 O9 2.191237 1_545
Ni3 O11 2.091429 1_554
Ni3 O10 2.091429 1_555
Ni3 O2 2.099206 1_555
Ni3 O3 2.099206 1_554
Ni3 O7 2.176714 1_554
Ni3 O6 2.176714 1_555
Ni4 O1 2.079022 1_555
Ni4 O0 2.079022 1_555
Ni4 O9 2.100633 1_555
Ni4 O8 2.100633 1_555
Ni4 O5 2.160861 1_555
Ni4 O4 2.160861 1_555
O0 Sb0 2.023390 1_455
O1 Sb0 2.023390 1_565
O2 Sb1 2.121258 1_655
O3 Sb1 2.121258 1_546
O4 Sb0 2.012068 1_555
O5 Sb0 2.012068 1_555
O6 Sb1 2.124843 1_555
O7 Sb1 2.124843 1_556
O8 Sb0 2.019127 1_565
O9 Sb0 2.019127 1_455
O10 Sb1 2.133608 1_545
O11 Sb1 2.133608 1_656
