# generated using pymatgen
data_Li4Mn3SbO8
_symmetry_space_group_name_H-M   'P 1'
_cell_length_a   6.24481563
_cell_length_b   10.52200863
_cell_length_c   6.24451172
_cell_angle_alpha   72.82187626
_cell_angle_beta   60.02867977
_cell_angle_gamma   72.82830686
_symmetry_Int_Tables_number   1
_chemical_formula_structural   Li4Mn3SbO8
_chemical_formula_sum   'Li8 Mn6 Sb2 O16'
_cell_volume   334.13848358
_cell_formula_units_Z   2
loop_
 _symmetry_equiv_pos_site_id
 _symmetry_equiv_pos_as_xyz
  1  'x, y, z'
loop_
 _atom_site_type_symbol
 _atom_site_label
 _atom_site_symmetry_multiplicity
 _atom_site_fract_x
 _atom_site_fract_y
 _atom_site_fract_z
 _atom_site_occupancy
  Li  Li0  1  0.25000900  0.25001200  0.24998900  1
  Li  Li1  1  0.75001500  0.74998300  0.74999600  1
  Li  Li2  1  0.75004100  0.74996900  0.24999500  1
  Li  Li3  1  0.24998200  0.25002500  0.74999300  1
  Li  Li4  1  0.25000300  0.74996400  0.75003100  1
  Li  Li5  1  0.74999900  0.25003900  0.24995500  1
  Li  Li6  1  0.75000000  0.25002100  0.75000100  1
  Li  Li7  1  0.24999900  0.74998000  0.24999600  1
  Mn  Mn0  1  0.49999600  0.49999900  0.00000800  1
  Mn  Mn1  1  0.99999900  0.49999400  0.50001200  1
  Mn  Mn2  1  0.00000500  0.49999900  0.99999800  1
  Mn  Mn3  1  0.99998700  0.00000300  0.50000800  1
  Mn  Mn4  1  0.49998400  0.00000900  0.00001800  1
  Mn  Mn5  1  0.50000700  0.99999100  0.50000800  1
  Sb  Sb0  1  0.49999800  0.50000400  0.50000100  1
  Sb  Sb1  1  0.00000100  0.99999700  0.00000000  1
  O  O0  1  0.36774100  0.89747600  0.36571300  1
  O  O1  1  0.86774900  0.39739600  0.86596700  1
  O  O2  1  0.13223600  0.60260100  0.13405100  1
  O  O3  1  0.63223900  0.10252700  0.63429600  1
  O  O4  1  0.84715200  0.38089600  0.38620400  1
  O  O5  1  0.34718700  0.88093000  0.88624300  1
  O  O6  1  0.38605800  0.38094800  0.84700500  1
  O  O7  1  0.88608800  0.88095900  0.34699300  1
  O  O8  1  0.88612600  0.88044200  0.88649300  1
  O  O9  1  0.38621100  0.38040900  0.38649100  1
  O  O10  1  0.65281200  0.11907300  0.11375600  1
  O  O11  1  0.15285200  0.61909900  0.61379200  1
  O  O12  1  0.11391100  0.11904700  0.65300000  1
  O  O13  1  0.61394100  0.61905300  0.15298800  1
  O  O14  1  0.61379500  0.61959100  0.61350000  1
  O  O15  1  0.11387700  0.11956000  0.11350100  1
loop_
_geom_bond_atom_site_label_1
_geom_bond_atom_site_label_2
_geom_bond_distance
_geom_bond_site_symmetry_2
Li0 O9 2.331688 1_555
Li0 O15 2.331775 1_555
Li0 O10 2.336064 1_555
Li0 O4 2.336087 1_455
Li0 O6 2.336566 1_554
Li0 O12 2.336803 1_555
Li1 O14 2.331700 1_555
Li1 O8 2.331780 1_555
Li1 O11 2.335997 1_655
Li1 O5 2.336208 1_555
Li1 O13 2.336578 1_556
Li1 O7 2.336811 1_555
Li2 O14 2.162995 1_555
Li2 O8 2.163366 1_554
Li2 O13 2.164581 1_555
Li2 O7 2.164955 1_555
Li2 O2 2.318713 1_655
Li2 O0 2.319831 1_555
Li3 O9 2.163004 1_555
Li3 O15 2.163361 1_556
Li3 O6 2.164555 1_555
Li3 O12 2.164937 1_555
Li3 O1 2.318887 1_455
Li3 O3 2.319607 1_555
Li4 O14 2.164549 1_555
Li4 O11 2.165362 1_555
Li4 O8 2.165364 1_455
Li4 O5 2.166264 1_555
Li4 O2 2.326054 1_556
Li4 O0 2.328026 1_555
Li5 O9 2.164520 1_555
Li5 O4 2.165345 1_555
Li5 O15 2.165370 1_655
Li5 O10 2.166218 1_555
Li5 O1 2.325890 1_554
Li5 O3 2.328123 1_555
Li6 O4 2.166465 1_555
Li6 O10 2.166577 1_556
Li6 O6 2.167671 1_555
Li6 O12 2.167734 1_655
Li6 O1 2.310478 1_555
Li6 O3 2.310510 1_555
Li7 O11 2.166488 1_555
Li7 O5 2.166577 1_554
Li7 O13 2.167670 1_555
Li7 O7 2.167757 1_455
Li7 O2 2.310485 1_555
Li7 O0 2.310498 1_555
Mn0 O1 2.071100 1_554
Mn0 O2 2.071130 1_555
Mn0 O13 2.213700 1_555
Mn0 O6 2.213753 1_554
Mn0 O9 2.221153 1_555
Mn0 O14 2.221274 1_554
Mn1 O1 2.062336 1_555
Mn1 O2 2.062394 1_655
Mn1 O11 2.212792 1_655
Mn1 O4 2.212828 1_555
Mn1 O9 2.220223 1_655
Mn1 O14 2.220239 1_555
Mn2 O2 2.073387 1_556
Mn2 O1 2.073409 1_455
Mn2 O6 2.217308 1_555
Mn2 O13 2.217367 1_456
Mn2 O11 2.217839 1_555
Mn2 O4 2.217853 1_456
Mn3 O3 2.070823 1_555
Mn3 O0 2.070862 1_645
Mn3 O7 2.213581 1_545
Mn3 O12 2.213582 1_655
Mn3 O8 2.221032 1_545
Mn3 O15 2.221112 1_655
Mn4 O0 2.060898 1_545
Mn4 O3 2.060976 1_554
Mn4 O10 2.212148 1_555
Mn4 O5 2.212289 1_544
Mn4 O15 2.219616 1_555
Mn4 O8 2.219825 1_544
Mn5 O3 2.073976 1_565
Mn5 O0 2.074002 1_555
Mn5 O7 2.217364 1_555
Mn5 O12 2.217516 1_565
Mn5 O5 2.217806 1_555
Mn5 O10 2.217958 1_565
O4 Sb0 2.039124 1_555
O5 Sb1 2.039091 1_556
O6 Sb0 2.037975 1_555
O7 Sb1 2.037850 1_655
O8 Sb1 2.036924 1_656
O9 Sb0 2.036896 1_555
O10 Sb1 2.039143 1_645
O11 Sb0 2.039033 1_555
O12 Sb1 2.037932 1_546
O13 Sb0 2.037985 1_555
O14 Sb0 2.036822 1_555
O15 Sb1 2.036971 1_545
