# generated using pymatgen
data_Li4Mn2Co3Sb3O16
_symmetry_space_group_name_H-M   'P 1'
_cell_length_a   6.05962000
_cell_length_b   6.10976182
_cell_length_c   9.76103788
_cell_angle_alpha   89.88298661
_cell_angle_beta   91.99200447
_cell_angle_gamma   119.39420901
_symmetry_Int_Tables_number   1
_chemical_formula_structural   Li4Mn2Co3Sb3O16
_chemical_formula_sum   'Li4 Mn2 Co3 Sb3 O16'
_cell_volume   314.62122101
_cell_formula_units_Z   1
loop_
 _symmetry_equiv_pos_site_id
 _symmetry_equiv_pos_as_xyz
  1  'x, y, z'
loop_
 _atom_site_type_symbol
 _atom_site_label
 _atom_site_symmetry_multiplicity
 _atom_site_fract_x
 _atom_site_fract_y
 _atom_site_fract_z
 _atom_site_occupancy
  Li  Li0  1  0.33048600  0.65607700  0.88183900  1
  Li  Li1  1  0.96419900  0.99202200  0.98756200  1
  Li  Li2  1  0.97453900  0.99041900  0.50262400  1
  Li  Li3  1  0.65608300  0.32983300  0.40163000  1
  Mn  Mn0  1  0.34631200  0.67810000  0.50060400  1
  Mn  Mn1  1  0.68912500  0.34181700  0.98015700  1
  Co  Co0  1  0.66653200  0.83908500  0.21625600  1
  Co  Co1  1  0.83154900  0.65626700  0.70947500  1
  Co  Co2  1  0.83849400  0.17151900  0.71785300  1
  Sb  Sb0  1  0.17549300  0.84337700  0.21335200  1
  Sb  Sb1  1  0.17613200  0.34975800  0.21426000  1
  Sb  Sb2  1  0.33869100  0.15735100  0.71455700  1
  O  O0  1  0.16757400  0.83990000  0.59638200  1
  O  O1  1  0.03972900  0.52759700  0.33710600  1
  O  O2  1  0.31733200  0.66415500  0.09935400  1
  O  O3  1  0.02184100  0.02218800  0.31729100  1
  O  O4  1  0.01001700  0.99593700  0.80867900  1
  O  O5  1  0.16234500  0.31206000  0.60481200  1
  O  O6  1  0.48295800  0.97886400  0.32978300  1
  O  O7  1  0.48013400  0.51791200  0.33692200  1
  O  O8  1  0.31575700  0.16720700  0.09967000  1
  O  O9  1  0.66540800  0.83622900  0.60409200  1
  O  O10  1  0.51908300  0.46076300  0.84976500  1
  O  O11  1  0.51247500  0.02085100  0.83943200  1
  O  O12  1  0.65095900  0.31520800  0.60466800  1
  O  O13  1  0.85453200  0.69537300  0.10291600  1
  O  O14  1  0.96118500  0.45672700  0.83643500  1
  O  O15  1  0.85104000  0.18370400  0.10036600  1
loop_
_geom_bond_atom_site_label_1
_geom_bond_atom_site_label_2
_geom_bond_distance
_geom_bond_site_symmetry_2
Li0 O14 1.986315 1_455
Li0 O11 1.992450 1_565
Li0 O10 2.047729 1_555
Li0 O2 2.129015 1_556
Li1 O4 1.775803 1_655
Li1 O13 1.963615 1_556
Li1 O15 1.974885 1_566
Li1 O8 2.117962 1_666
Li2 O3 1.836428 1_665
Li2 O9 1.941720 1_555
Li2 O5 1.971199 1_665
Li2 O0 2.007390 1_655
Li3 O6 1.984266 1_545
Li3 O12 1.984327 1_555
Li3 O7 2.002260 1_555
Li3 O1 2.145322 1_655
Mn0 O9 1.930550 1_555
Mn0 O0 2.037042 1_555
Mn0 O5 2.213858 1_555
Mn0 O1 2.228626 1_555
Mn0 O7 2.245805 1_555
Mn0 O6 2.330755 1_555
Mn1 O10 1.962110 1_555
Mn1 O15 2.029381 1_556
Mn1 O14 2.049239 1_555
Mn1 O11 2.174047 1_555
Mn1 O13 2.215485 1_556
Mn1 O8 2.329559 1_556
Co0 O6 2.053494 1_555
Co0 O3 2.086192 1_665
Co0 O13 2.089542 1_555
Co0 O7 2.102612 1_555
Co0 O2 2.130494 1_555
Co0 O15 2.174926 1_565
Co1 O4 2.036267 1_655
Co1 O12 2.068508 1_555
Co1 O9 2.071381 1_555
Co1 O14 2.122594 1_555
Co1 O0 2.128872 1_655
Co1 O10 2.200111 1_555
Co2 O14 1.898864 1_555
Co2 O4 2.010883 1_645
Co2 O12 2.042246 1_555
Co2 O5 2.073263 1_655
Co2 O9 2.085385 1_545
Co2 O11 2.128825 1_555
O0 Sb2 2.029633 1_565
O1 Sb1 2.063360 1_555
O1 Sb0 2.088022 1_555
O2 Sb1 2.030874 1_555
O2 Sb0 2.042368 1_555
O3 Sb1 2.027653 1_555
O3 Sb0 2.039229 1_545
O4 Sb2 1.994670 1_565
O5 Sb2 2.022542 1_555
O6 Sb0 1.946986 1_555
O7 Sb1 1.968859 1_555
O8 Sb1 2.051372 1_555
O8 Sb0 2.067402 1_545
O10 Sb2 2.072126 1_555
O11 Sb2 2.014679 1_555
O12 Sb2 2.001664 1_555
O13 Sb0 1.973369 1_655
O15 Sb1 2.009068 1_655
