# generated using pymatgen
data_UH14(NO2)4
_symmetry_space_group_name_H-M   'P 1'
_cell_length_a   6.50360600
_cell_length_b   11.11710200
_cell_length_c   12.44044900
_cell_angle_alpha   90.00000000
_cell_angle_beta   90.00000000
_cell_angle_gamma   90.00000000
_symmetry_Int_Tables_number   1
_chemical_formula_structural   UH14(NO2)4
_chemical_formula_sum   'U4 H56 N16 O32'
_cell_volume   899.46002906
_cell_formula_units_Z   4
loop_
 _symmetry_equiv_pos_site_id
 _symmetry_equiv_pos_as_xyz
  1  'x, y, z'
loop_
 _atom_site_type_symbol
 _atom_site_label
 _atom_site_symmetry_multiplicity
 _atom_site_fract_x
 _atom_site_fract_y
 _atom_site_fract_z
 _atom_site_occupancy
  U  U0  1  0.50000000  0.50000000  0.00000000  1
  U  U1  1  0.50000000  0.00000000  0.50000000  1
  U  U2  1  0.00000000  0.50000000  0.50000000  1
  U  U3  1  0.00000000  0.00000000  0.00000000  1
  H  H0  1  0.24259500  0.65160900  0.25829000  1
  H  H1  1  0.75740500  0.15160900  0.24171000  1
  H  H2  1  0.25740500  0.34839100  0.75829000  1
  H  H3  1  0.74259500  0.84839100  0.74171000  1
  H  H4  1  0.75740500  0.34839100  0.74171000  1
  H  H5  1  0.24259500  0.84839100  0.75829000  1
  H  H6  1  0.74259500  0.65160900  0.24171000  1
  H  H7  1  0.25740500  0.15160900  0.25829000  1
  H  H8  1  0.36113000  0.71998700  0.15998100  1
  H  H9  1  0.63887000  0.21998700  0.34001900  1
  H  H10  1  0.13887000  0.28001300  0.65998100  1
  H  H11  1  0.86113000  0.78001300  0.84001900  1
  H  H12  1  0.63887000  0.28001300  0.84001900  1
  H  H13  1  0.36113000  0.78001300  0.65998100  1
  H  H14  1  0.86113000  0.71998700  0.34001900  1
  H  H15  1  0.13887000  0.21998700  0.15998100  1
  H  H16  1  0.53396300  0.74806400  0.89365500  1
  H  H17  1  0.46603700  0.24806400  0.60634500  1
  H  H18  1  0.96603700  0.25193600  0.39365500  1
  H  H19  1  0.03396300  0.75193600  0.10634500  1
  H  H20  1  0.46603700  0.25193600  0.10634500  1
  H  H21  1  0.53396300  0.75193600  0.39365500  1
  H  H22  1  0.03396300  0.74806400  0.60634500  1
  H  H23  1  0.96603700  0.24806400  0.89365500  1
  H  H24  1  0.29435300  0.75085900  0.95282500  1
  H  H25  1  0.70564700  0.25085900  0.54717500  1
  H  H26  1  0.20564700  0.24914100  0.45282500  1
  H  H27  1  0.79435300  0.74914100  0.04717500  1
  H  H28  1  0.70564700  0.24914100  0.04717500  1
  H  H29  1  0.29435300  0.74914100  0.45282500  1
  H  H30  1  0.79435300  0.75085900  0.54717500  1
  H  H31  1  0.20564700  0.25085900  0.95282500  1
  H  H32  1  0.81728200  0.35902900  0.21655600  1
  H  H33  1  0.18271800  0.85902900  0.28344400  1
  H  H34  1  0.68271800  0.64097100  0.71655600  1
  H  H35  1  0.31728200  0.14097100  0.78344400  1
  H  H36  1  0.18271800  0.64097100  0.78344400  1
  H  H37  1  0.81728200  0.14097100  0.71655600  1
  H  H38  1  0.31728200  0.35902900  0.28344400  1
  H  H39  1  0.68271800  0.85902900  0.21655600  1
  H  H40  1  0.97219300  0.48149700  0.23782300  1
  H  H41  1  0.02780700  0.98149700  0.26217700  1
  H  H42  1  0.52780700  0.51850300  0.73782300  1
  H  H43  1  0.47219300  0.01850300  0.76217700  1
  H  H44  1  0.02780700  0.51850300  0.76217700  1
  H  H45  1  0.97219300  0.01850300  0.73782300  1
  H  H46  1  0.47219300  0.48149700  0.26217700  1
  H  H47  1  0.52780700  0.98149700  0.23782300  1
  H  H48  1  0.94323400  0.43213300  0.11319800  1
  H  H49  1  0.05676600  0.93213300  0.38680200  1
  H  H50  1  0.55676600  0.56786700  0.61319800  1
  H  H51  1  0.44323400  0.06786700  0.88680200  1
  H  H52  1  0.05676600  0.56786700  0.88680200  1
  H  H53  1  0.94323400  0.06786700  0.61319800  1
  H  H54  1  0.44323400  0.43213300  0.38680200  1
  H  H55  1  0.55676600  0.93213300  0.11319800  1
  N  N0  1  0.43673700  0.70769200  0.94838400  1
  N  N1  1  0.56326300  0.20769200  0.55161600  1
  N  N2  1  0.06326300  0.29230800  0.44838400  1
  N  N3  1  0.93673700  0.79230800  0.05161600  1
  N  N4  1  0.56326300  0.29230800  0.05161600  1
  N  N5  1  0.43673700  0.79230800  0.44838400  1
  N  N6  1  0.93673700  0.70769200  0.55161600  1
  N  N7  1  0.06326300  0.20769200  0.94838400  1
  N  N8  1  0.86440100  0.44286700  0.18528400  1
  N  N9  1  0.13559900  0.94286700  0.31471600  1
  N  N10  1  0.63559900  0.55713300  0.68528400  1
  N  N11  1  0.36440100  0.05713300  0.81471600  1
  N  N12  1  0.13559900  0.55713300  0.81471600  1
  N  N13  1  0.86440100  0.05713300  0.68528400  1
  N  N14  1  0.36440100  0.44286700  0.31471600  1
  N  N15  1  0.63559900  0.94286700  0.18528400  1
  O  O0  1  0.24959600  0.49390900  0.07048000  1
  O  O1  1  0.75040400  0.99390900  0.42952000  1
  O  O2  1  0.25040400  0.50609100  0.57048000  1
  O  O3  1  0.74959600  0.00609100  0.92952000  1
  O  O4  1  0.75040400  0.50609100  0.92952000  1
  O  O5  1  0.24959600  0.00609100  0.57048000  1
  O  O6  1  0.74959600  0.49390900  0.42952000  1
  O  O7  1  0.25040400  0.99390900  0.07048000  1
  O  O8  1  0.52992200  0.70172700  0.05099500  1
  O  O9  1  0.47007800  0.20172700  0.44900500  1
  O  O10  1  0.97007800  0.29827300  0.55099500  1
  O  O11  1  0.02992200  0.79827300  0.94900500  1
  O  O12  1  0.47007800  0.29827300  0.94900500  1
  O  O13  1  0.52992200  0.79827300  0.55099500  1
  O  O14  1  0.02992200  0.70172700  0.44900500  1
  O  O15  1  0.97007800  0.20172700  0.05099500  1
  O  O16  1  0.69117500  0.51894800  0.17186900  1
  O  O17  1  0.30882500  0.01894800  0.32813100  1
  O  O18  1  0.80882500  0.48105200  0.67186900  1
  O  O19  1  0.19117500  0.98105200  0.82813100  1
  O  O20  1  0.30882500  0.48105200  0.82813100  1
  O  O21  1  0.69117500  0.98105200  0.67186900  1
  O  O22  1  0.19117500  0.51894800  0.32813100  1
  O  O23  1  0.80882500  0.01894800  0.17186900  1
  O  O24  1  0.26363600  0.73086500  0.22187300  1
  O  O25  1  0.73636400  0.23086500  0.27812700  1
  O  O26  1  0.23636400  0.26913500  0.72187300  1
  O  O27  1  0.76363600  0.76913500  0.77812700  1
  O  O28  1  0.73636400  0.26913500  0.77812700  1
  O  O29  1  0.26363600  0.76913500  0.72187300  1
  O  O30  1  0.76363600  0.73086500  0.27812700  1
  O  O31  1  0.23636400  0.23086500  0.22187300  1
loop_
_geom_bond_atom_site_label_1
_geom_bond_atom_site_label_2
_geom_bond_distance
_geom_bond_site_symmetry_2
H0 O24 1.000153 1_555
H1 O25 1.000153 1_555
H2 O26 1.000153 1_555
H3 O27 1.000153 1_555
H4 O28 1.000153 1_555
H5 O29 1.000153 1_555
H6 O30 1.000153 1_555
H7 O31 1.000153 1_555
H8 O24 1.004741 1_555
H9 O25 1.004741 1_555
H10 O26 1.004741 1_555
H11 O27 1.004741 1_555
H12 O28 1.004741 1_555
H13 O29 1.004741 1_555
H14 O30 1.004741 1_555
H15 O31 1.004741 1_555
H16 N0 1.031905 1_555
H17 N1 1.031905 1_555
H18 N2 1.031905 1_655
H19 N3 1.031905 1_455
H20 N4 1.031905 1_555
H21 N5 1.031905 1_555
H22 N6 1.031905 1_455
H23 N7 1.031905 1_655
H24 N0 1.044434 1_555
H25 N1 1.044434 1_555
H26 N2 1.044434 1_555
H27 N3 1.044434 1_555
H28 N4 1.044434 1_555
H29 N5 1.044434 1_555
H30 N6 1.044434 1_555
H31 N7 1.044434 1_555
H32 N8 1.055437 1_555
H33 N9 1.055437 1_555
H34 N10 1.055437 1_555
H35 N11 1.055437 1_555
H36 N12 1.055437 1_555
H37 N13 1.055437 1_555
H38 N14 1.055437 1_555
H39 N15 1.055437 1_555
H40 N8 1.050280 1_555
H41 N9 1.050280 1_555
H42 N10 1.050280 1_555
H43 N11 1.050280 1_555
H44 N12 1.050280 1_555
H45 N13 1.050280 1_555
H46 N14 1.050280 1_555
H47 N15 1.050280 1_555
H48 N8 1.039865 1_555
H49 N9 1.039865 1_555
H50 N10 1.039865 1_555
H51 N11 1.039865 1_555
H52 N12 1.039865 1_555
H53 N13 1.039865 1_555
H54 N14 1.039865 1_555
H55 N15 1.039865 1_555
N0 O8 1.414638 1_556
N1 O9 1.414638 1_555
N2 O10 1.414638 1_455
N3 O11 1.414638 1_654
N4 O12 1.414638 1_554
N5 O13 1.414638 1_555
N6 O14 1.414638 1_655
N7 O15 1.414638 1_456
N8 O16 1.418606 1_555
N9 O17 1.418606 1_565
N10 O18 1.418606 1_555
N11 O19 1.418606 1_545
N12 O20 1.418606 1_555
N13 O21 1.418606 1_545
N14 O22 1.418606 1_555
N15 O23 1.418606 1_565
O0 U0 1.850804 1_555
O1 U1 1.850804 1_565
O2 U2 1.850804 1_555
O3 U3 1.850804 1_656
O4 U0 1.850804 1_556
O5 U1 1.850804 1_555
O6 U2 1.850804 1_655
O7 U3 1.850804 1_565
