# generated using pymatgen
data_La2SbO6
_symmetry_space_group_name_H-M   'P 1'
_cell_length_a   6.25605700
_cell_length_b   5.80835600
_cell_length_c   9.46370857
_cell_angle_alpha   58.11561189
_cell_angle_beta   90.00000000
_cell_angle_gamma   90.00000000
_symmetry_Int_Tables_number   1
_chemical_formula_structural   La2SbO6
_chemical_formula_sum   'La4 Sb2 O12'
_cell_volume   291.99951110
_cell_formula_units_Z   2
loop_
 _symmetry_equiv_pos_site_id
 _symmetry_equiv_pos_as_xyz
  1  'x, y, z'
loop_
 _atom_site_type_symbol
 _atom_site_label
 _atom_site_symmetry_multiplicity
 _atom_site_fract_x
 _atom_site_fract_y
 _atom_site_fract_z
 _atom_site_occupancy
  La  La0  1  0.58162100  0.20742000  0.25633200  1
  La  La1  1  0.08162100  0.79258000  0.24366800  1
  La  La2  1  0.91837900  0.20742000  0.75633200  1
  La  La3  1  0.41837900  0.79258000  0.74366800  1
  Sb  Sb0  1  0.00000000  0.50000000  0.00000000  1
  Sb  Sb1  1  0.50000000  0.50000000  0.50000000  1
  O  O0  1  0.06460100  0.57693400  0.77343100  1
  O  O1  1  0.27372000  0.28069900  0.07762700  1
  O  O2  1  0.34515200  0.84078700  0.44222300  1
  O  O3  1  0.84515200  0.15921300  0.05777700  1
  O  O4  1  0.77372000  0.71930100  0.42237300  1
  O  O5  1  0.56460100  0.42306600  0.72656900  1
  O  O6  1  0.43539900  0.57693400  0.27343100  1
  O  O7  1  0.22628000  0.28069900  0.57762700  1
  O  O8  1  0.15484800  0.84078700  0.94222300  1
  O  O9  1  0.65484800  0.15921300  0.55777700  1
  O  O10  1  0.72628000  0.71930100  0.92237300  1
  O  O11  1  0.93539900  0.42306600  0.22656900  1
loop_
_geom_bond_atom_site_label_1
_geom_bond_atom_site_label_2
_geom_bond_distance
_geom_bond_site_symmetry_2
La0 O6 2.415858 1_555
La0 O2 2.420872 1_545
La0 O1 2.447722 1_555
La0 O11 2.484755 1_555
La0 O3 2.623588 1_555
La0 O4 2.691698 1_545
La0 O9 2.753691 1_555
La0 O10 3.117807 1_554
La1 O11 2.415858 1_455
La1 O3 2.420872 1_465
La1 O4 2.447722 1_455
La1 O6 2.484755 1_555
La1 O2 2.623588 1_555
La1 O1 2.691698 1_565
La1 O8 2.753691 1_554
La1 O7 3.117807 1_555
La2 O0 2.415858 1_655
La2 O8 2.420872 1_645
La2 O7 2.447722 1_655
La2 O5 2.484755 1_555
La2 O9 2.623588 1_555
La2 O10 2.691698 1_545
La2 O3 2.753691 1_556
La2 O4 3.117807 1_555
La3 O5 2.415858 1_555
La3 O9 2.420872 1_565
La3 O10 2.447722 1_555
La3 O0 2.484755 1_555
La3 O8 2.623588 1_555
La3 O7 2.691698 1_565
La3 O2 2.753691 1_555
La3 O1 3.117807 1_556
O0 Sb0 1.987042 1_556
O1 Sb0 2.026324 1_555
O2 Sb1 2.003030 1_555
O3 Sb0 2.003030 1_655
O4 Sb1 2.026324 1_555
O5 Sb1 1.987042 1_555
O6 Sb1 1.987042 1_555
O7 Sb1 2.026324 1_555
O8 Sb0 2.003030 1_556
O9 Sb1 2.003030 1_555
O10 Sb0 2.026324 1_656
O11 Sb0 1.987042 1_655
