# generated using pymatgen
data_Na5Mn7O16
_symmetry_space_group_name_H-M   'P 1'
_cell_length_a   5.97796100
_cell_length_b   6.21015700
_cell_length_c   8.81149494
_cell_angle_alpha   88.03113091
_cell_angle_beta   90.00000000
_cell_angle_gamma   90.00000000
_symmetry_Int_Tables_number   1
_chemical_formula_structural   Na5Mn7O16
_chemical_formula_sum   'Na5 Mn7 O16'
_cell_volume   326.92549369
_cell_formula_units_Z   1
loop_
 _symmetry_equiv_pos_site_id
 _symmetry_equiv_pos_as_xyz
  1  'x, y, z'
loop_
 _atom_site_type_symbol
 _atom_site_label
 _atom_site_symmetry_multiplicity
 _atom_site_fract_x
 _atom_site_fract_y
 _atom_site_fract_z
 _atom_site_occupancy
  Na  Na0  1  0.00000000  0.23700500  0.62641100  1
  Na  Na1  1  0.50000000  0.23513100  0.88094900  1
  Na  Na2  1  0.00000000  0.00000000  0.00000000  1
  Na  Na3  1  0.50000000  0.76486900  0.11905100  1
  Na  Na4  1  0.00000000  0.76299500  0.37358900  1
  Mn  Mn0  1  0.24911000  0.72985600  0.75037800  1
  Mn  Mn1  1  0.75089000  0.72985600  0.75037800  1
  Mn  Mn2  1  0.00000000  0.50000000  0.00000000  1
  Mn  Mn3  1  0.75089000  0.27014400  0.24962200  1
  Mn  Mn4  1  0.24911000  0.27014400  0.24962200  1
  Mn  Mn5  1  0.50000000  0.50000000  0.50000000  1
  Mn  Mn6  1  0.50000000  0.00000000  0.50000000  1
  O  O0  1  0.50000000  0.51742500  0.72212000  1
  O  O1  1  0.50000000  0.93138900  0.74879600  1
  O  O2  1  0.00000000  0.51588300  0.77134300  1
  O  O3  1  0.00000000  0.92042100  0.73739600  1
  O  O4  1  0.77159100  0.71143500  0.96160000  1
  O  O5  1  0.22840900  0.71143500  0.96160000  1
  O  O6  1  0.22840900  0.28856500  0.03840000  1
  O  O7  1  0.77159100  0.28856500  0.03840000  1
  O  O8  1  0.00000000  0.07957900  0.26260400  1
  O  O9  1  0.00000000  0.48411700  0.22865700  1
  O  O10  1  0.50000000  0.06861100  0.25120400  1
  O  O11  1  0.50000000  0.48257500  0.27788000  1
  O  O12  1  0.70909600  0.25626400  0.47910900  1
  O  O13  1  0.29090400  0.25626400  0.47910900  1
  O  O14  1  0.29090400  0.74373600  0.52089100  1
  O  O15  1  0.70909600  0.74373600  0.52089100  1
loop_
_geom_bond_atom_site_label_1
_geom_bond_atom_site_label_2
_geom_bond_distance
_geom_bond_site_symmetry_2
Na0 O3 2.165539 1_545
Na0 O13 2.170825 1_555
Na0 O12 2.170825 1_455
Na0 O2 2.186840 1_555
Na1 O7 2.168528 1_556
Na1 O6 2.168528 1_556
Na1 O0 2.205311 1_555
Na1 O1 2.250551 1_545
Na2 O6 2.287337 1_555
Na2 O7 2.287337 1_455
Na2 O5 2.287337 1_544
Na2 O4 2.287337 1_444
Na2 O8 2.382666 1_555
Na2 O3 2.382666 1_544
Na3 O4 2.168528 1_554
Na3 O5 2.168528 1_554
Na3 O11 2.205311 1_555
Na3 O10 2.250551 1_565
Na4 O8 2.165539 1_565
Na4 O14 2.170825 1_555
Na4 O15 2.170825 1_455
Na4 O9 2.186840 1_555
Mn0 O5 1.864877 1_555
Mn0 O3 1.903139 1_555
Mn0 O1 1.953154 1_555
Mn0 O2 2.000153 1_555
Mn0 O0 2.018507 1_555
Mn0 O14 2.036384 1_555
Mn1 O4 1.864877 1_555
Mn1 O3 1.903139 1_655
Mn1 O1 1.953154 1_555
Mn1 O2 2.000153 1_655
Mn1 O0 2.018507 1_555
Mn1 O15 2.036384 1_555
Mn2 O5 1.916356 1_554
Mn2 O4 1.916356 1_454
Mn2 O6 1.916356 1_555
Mn2 O7 1.916356 1_455
Mn2 O2 2.013835 1_554
Mn2 O9 2.013835 1_555
Mn3 O7 1.864877 1_555
Mn3 O8 1.903139 1_655
Mn3 O10 1.953154 1_555
Mn3 O9 2.000153 1_655
Mn3 O11 2.018507 1_555
Mn3 O12 2.036384 1_555
Mn4 O6 1.864877 1_555
Mn4 O8 1.903139 1_555
Mn4 O10 1.953154 1_555
Mn4 O9 2.000153 1_555
Mn4 O11 2.018507 1_555
Mn4 O13 2.036384 1_555
Mn5 O11 1.963907 1_555
Mn5 O0 1.963907 1_555
Mn5 O15 1.976500 1_555
Mn5 O14 1.976500 1_555
Mn5 O12 1.976500 1_555
Mn5 O13 1.976500 1_555
Mn6 O15 2.027031 1_545
Mn6 O12 2.027031 1_555
Mn6 O14 2.027031 1_545
Mn6 O13 2.027031 1_555
Mn6 O10 2.218871 1_555
Mn6 O1 2.218871 1_545
