# generated using pymatgen
data_Li4MnV3(P2O7)4
_symmetry_space_group_name_H-M   'P 1'
_cell_length_a   4.87222200
_cell_length_b   8.28664267
_cell_length_c   26.67940803
_cell_angle_alpha   90.42782308
_cell_angle_beta   91.42725006
_cell_angle_gamma   90.40951969
_symmetry_Int_Tables_number   1
_chemical_formula_structural   Li4MnV3(P2O7)4
_chemical_formula_sum   'Li8 Mn2 V6 P16 O56'
_cell_volume   1076.77092000
_cell_formula_units_Z   2
loop_
 _symmetry_equiv_pos_site_id
 _symmetry_equiv_pos_as_xyz
  1  'x, y, z'
loop_
 _atom_site_type_symbol
 _atom_site_label
 _atom_site_symmetry_multiplicity
 _atom_site_fract_x
 _atom_site_fract_y
 _atom_site_fract_z
 _atom_site_occupancy
  Li  Li0  1  0.16026300  0.63857900  0.66877500  1
  Li  Li1  1  0.16071200  0.63948700  0.16887200  1
  Li  Li2  1  0.33878400  0.13703400  0.58093900  1
  Li  Li3  1  0.33714000  0.13782300  0.08161200  1
  Li  Li4  1  0.66025400  0.63862200  0.91888700  1
  Li  Li5  1  0.66129000  0.63926600  0.41869800  1
  Li  Li6  1  0.83875600  0.13783600  0.83131500  1
  Li  Li7  1  0.83709100  0.13777100  0.33118300  1
  Mn  Mn0  1  0.14984100  0.00092000  0.18300600  1
  Mn  Mn1  1  0.64926800  0.00062000  0.43280200  1
  V  V0  1  0.14832700  0.00015500  0.68205500  1
  V  V1  1  0.35074600  0.49978100  0.56789000  1
  V  V2  1  0.35149900  0.50131800  0.06816500  1
  V  V3  1  0.64843100  0.00054800  0.93238100  1
  V  V4  1  0.85100500  0.50046700  0.81793900  1
  V  V5  1  0.85157700  0.50062000  0.31816400  1
  P  P0  1  0.13873000  0.82034800  0.86952600  1
  P  P1  1  0.17075600  0.21652300  0.97860300  1
  P  P2  1  0.14090100  0.82237700  0.36942400  1
  P  P3  1  0.16898000  0.21543200  0.47781500  1
  P  P4  1  0.33056200  0.71592300  0.77145600  1
  P  P5  1  0.36125400  0.31899900  0.88057000  1
  P  P6  1  0.33250500  0.71290100  0.27165900  1
  P  P7  1  0.36114600  0.31942400  0.37934000  1
  P  P8  1  0.63877500  0.81969100  0.61911900  1
  P  P9  1  0.67052200  0.21588100  0.72841600  1
  P  P10  1  0.64091400  0.82279800  0.11978800  1
  P  P11  1  0.66944800  0.21600200  0.22802200  1
  P  P12  1  0.83234700  0.71328600  0.52143200  1
  P  P13  1  0.86045100  0.31899500  0.63044900  1
  P  P14  1  0.83086500  0.71576200  0.02156500  1
  P  P15  1  0.86148000  0.31963200  0.12946900  1
  O  O0  1  0.00442000  0.15613400  0.62628900  1
  O  O1  1  0.05487300  0.46114800  0.62064900  1
  O  O2  1  0.09439500  0.32196700  0.84866200  1
  O  O3  1  0.00187200  0.15794400  0.12382600  1
  O  O4  1  0.05372800  0.46420100  0.12073300  1
  O  O5  1  0.14307600  0.56572600  0.77074000  1
  O  O6  1  0.09047400  0.32512700  0.34866500  1
  O  O7  1  0.12534300  0.67407500  0.53840300  1
  O  O8  1  0.21919900  0.84714500  0.81177800  1
  O  O9  1  0.14248100  0.56383400  0.27192000  1
  O  O10  1  0.18690500  0.30455100  0.52826500  1
  O  O11  1  0.12436100  0.67558300  0.03722400  1
  O  O12  1  0.28270400  0.34713000  0.93828400  1
  O  O13  1  0.22253400  0.84698800  0.31171900  1
  O  O14  1  0.19056600  0.30471300  0.02863200  1
  O  O15  1  0.31032100  0.80306600  0.72143600  1
  O  O16  1  0.35522800  0.06693700  0.97902100  1
  O  O17  1  0.28174600  0.34455000  0.43787600  1
  O  O18  1  0.37562500  0.17598800  0.71263600  1
  O  O19  1  0.31711600  0.79598700  0.22131000  1
  O  O20  1  0.40558500  0.82240900  0.90124000  1
  O  O21  1  0.35330400  0.06577000  0.47938100  1
  O  O22  1  0.36934300  0.17576500  0.21384400  1
  O  O23  1  0.40709900  0.82382800  0.40216600  1
  O  O24  1  0.44608100  0.96147400  0.62926500  1
  O  O25  1  0.50491500  0.15614400  0.87637000  1
  O  O26  1  0.49423500  0.65617400  0.62340900  1
  O  O27  1  0.44848000  0.96457600  0.12963900  1
  O  O28  1  0.55515200  0.46164900  0.87062900  1
  O  O29  1  0.50124000  0.15789100  0.37368500  1
  O  O30  1  0.49632900  0.65863600  0.12366800  1
  O  O31  1  0.55360600  0.46355300  0.37060800  1
  O  O32  1  0.59371000  0.32162700  0.59873500  1
  O  O33  1  0.62455100  0.67595400  0.78726000  1
  O  O34  1  0.64308000  0.56346000  0.52142500  1
  O  O35  1  0.59075700  0.32530600  0.09865200  1
  O  O36  1  0.68974700  0.30324600  0.77879700  1
  O  O37  1  0.62441800  0.67293500  0.28842800  1
  O  O38  1  0.72010100  0.84610500  0.56160600  1
  O  O39  1  0.64245600  0.56624900  0.02093400  1
  O  O40  1  0.68818500  0.30628200  0.27805800  1
  O  O41  1  0.81046300  0.80304900  0.97145700  1
  O  O42  1  0.78229500  0.34689400  0.68843400  1
  O  O43  1  0.72165300  0.84782500  0.06189700  1
  O  O44  1  0.87590700  0.17635600  0.96275300  1
  O  O45  1  0.81742500  0.79639400  0.47126000  1
  O  O46  1  0.85560400  0.06657600  0.72890900  1
  O  O47  1  0.78224700  0.34486700  0.18771100  1
  O  O48  1  0.86895700  0.17546800  0.46366200  1
  O  O49  1  0.90545700  0.82226200  0.65119600  1
  O  O50  1  0.85361100  0.06625200  0.22944900  1
  O  O51  1  0.94614000  0.96187000  0.87949200  1
  O  O52  1  0.99377600  0.65672900  0.87352300  1
  O  O53  1  0.90747500  0.82417000  0.15220400  1
  O  O54  1  0.94840500  0.96421200  0.37939000  1
  O  O55  1  0.99662600  0.65810200  0.37345900  1
loop_
_geom_bond_atom_site_label_1
_geom_bond_atom_site_label_2
_geom_bond_distance
_geom_bond_site_symmetry_2
Li0 O1 2.000557 1_555
Li0 O49 2.021562 1_455
Li0 O26 2.057003 1_555
Li0 O15 2.066962 1_555
Li1 O4 1.989723 1_555
Li1 O53 2.017928 1_455
Li1 O19 2.031122 1_555
Li1 O30 2.061777 1_555
Li2 O32 2.010123 1_555
Li2 O24 2.014291 1_545
Li2 O0 2.059588 1_555
Li2 O10 2.107478 1_555
Li3 O27 2.000279 1_545
Li3 O3 2.014270 1_555
Li3 O35 2.020220 1_555
Li3 O14 2.100835 1_555
Li4 O28 1.999688 1_555
Li4 O20 2.022211 1_555
Li4 O52 2.055506 1_555
Li4 O41 2.065267 1_555
Li5 O31 1.992280 1_555
Li5 O23 2.019247 1_555
Li5 O45 2.036176 1_555
Li5 O55 2.061043 1_555
Li6 O2 2.006803 1_655
Li6 O51 2.014315 1_545
Li6 O25 2.052261 1_555
Li6 O36 2.088381 1_555
Li7 O54 2.005190 1_545
Li7 O29 2.021067 1_555
Li7 O6 2.021174 1_655
Li7 O40 2.116114 1_555
Mn0 O22 1.958600 1_555
Mn0 O50 2.000436 1_455
Mn0 O53 2.030752 1_445
Mn0 O27 2.082811 1_545
Mn0 O19 2.143987 1_545
Mn0 O3 2.166368 1_555
Mn1 O48 1.959337 1_555
Mn1 O21 2.001379 1_555
Mn1 O23 2.028757 1_545
Mn1 O54 2.085466 1_545
Mn1 O45 2.142876 1_545
Mn1 O29 2.166488 1_555
O0 P13 1.529988 1_455
O0 V0 2.089387 1_555
O1 P13 1.534366 1_455
O1 V1 2.064721 1_555
O2 P5 1.536697 1_555
O2 V4 2.064169 1_455
O3 P15 1.516895 1_455
O4 P15 1.538139 1_455
O4 V2 2.065871 1_555
O5 P4 1.538318 1_555
O5 V4 1.997897 1_455
O6 P7 1.535860 1_555
O6 V5 2.031381 1_455
O7 P12 1.524824 1_455
O7 V1 1.976766 1_555
O8 P0 1.615760 1_555
O8 P4 1.629151 1_555
O9 P6 1.538573 1_555
O9 V5 1.972713 1_455
O10 P3 1.530698 1_555
O10 V1 2.070286 1_555
O11 P14 1.519654 1_455
O11 V2 1.996653 1_555
O12 P5 1.611518 1_555
O12 P1 1.632218 1_555
O13 P2 1.613687 1_555
O13 P6 1.638073 1_555
O14 P1 1.517542 1_554
O14 V2 2.072776 1_555
O15 P4 1.523464 1_555
O15 V0 2.096889 1_565
O16 P1 1.536262 1_555
O16 V3 1.995326 1_555
O17 P3 1.618594 1_555
O17 P7 1.630437 1_555
O18 P9 1.520503 1_555
O18 V0 1.982249 1_555
O19 P6 1.514463 1_555
O20 P0 1.533401 1_555
O20 V3 2.043787 1_565
O21 P3 1.536614 1_555
O22 P11 1.534867 1_555
O23 P2 1.545490 1_555
O24 P8 1.535835 1_555
O24 V0 2.071868 1_565
O25 P5 1.529328 1_555
O25 V3 2.091428 1_555
O26 P8 1.528979 1_555
O26 V1 2.066178 1_555
O27 P10 1.533573 1_555
O28 P5 1.536672 1_555
O28 V4 2.063601 1_555
O29 P7 1.515123 1_555
O30 P10 1.532827 1_555
O30 V2 2.072705 1_555
O31 P7 1.535922 1_555
O31 V5 2.064204 1_555
O32 P13 1.533394 1_555
O32 V1 2.062179 1_555
O33 P4 1.522489 1_555
O33 V4 1.999425 1_555
O34 P12 1.541247 1_555
O34 V1 1.982641 1_555
O35 P15 1.538002 1_555
O35 V2 2.035345 1_555
O36 P9 1.522439 1_555
O36 V4 2.072210 1_555
O37 P6 1.519843 1_555
O37 V5 1.972062 1_555
O38 P8 1.610404 1_555
O38 P12 1.636900 1_555
O39 P14 1.536437 1_555
O39 V2 1.993782 1_555
O40 P11 1.525809 1_555
O40 V5 2.070165 1_555
O41 P14 1.526135 1_556
O41 V3 2.095595 1_565
O42 P13 1.617696 1_555
O42 P9 1.628142 1_555
O43 P10 1.617750 1_555
O43 P14 1.630297 1_555
O44 P1 1.521230 1_655
O44 V3 1.980390 1_555
O45 P12 1.510281 1_555
O46 P9 1.536132 1_555
O46 V0 1.997343 1_655
O47 P15 1.622784 1_555
O47 P11 1.623949 1_555
O48 P3 1.533872 1_655
O49 P8 1.537871 1_555
O49 V0 2.039496 1_665
O50 P11 1.536679 1_555
O51 P0 1.532973 1_655
O51 V3 2.073546 1_565
O52 P0 1.529940 1_655
O52 V4 2.065625 1_555
O53 P10 1.542240 1_555
O54 P2 1.534682 1_655
O55 P2 1.533329 1_655
O55 V5 2.070004 1_555
