# generated using pymatgen
data_LiCoSiO4
_symmetry_space_group_name_H-M   'P 1'
_cell_length_a   8.68545417
_cell_length_b   8.68545417
_cell_length_c   8.08451700
_cell_angle_alpha   90.00000000
_cell_angle_beta   90.00000000
_cell_angle_gamma   120.00000127
_symmetry_Int_Tables_number   1
_chemical_formula_structural   LiCoSiO4
_chemical_formula_sum   'Li6 Co6 Si6 O24'
_cell_volume   528.16518496
_cell_formula_units_Z   6
loop_
 _symmetry_equiv_pos_site_id
 _symmetry_equiv_pos_as_xyz
  1  'x, y, z'
loop_
 _atom_site_type_symbol
 _atom_site_label
 _atom_site_symmetry_multiplicity
 _atom_site_fract_x
 _atom_site_fract_y
 _atom_site_fract_z
 _atom_site_occupancy
  Li  Li0  1  0.33333300  0.66666700  0.26080500  1
  Li  Li1  1  0.33333300  0.66666700  0.74589200  1
  Li  Li2  1  0.00000000  0.00000000  0.09360600  1
  Li  Li3  1  0.00000000  0.00000000  0.59360600  1
  Li  Li4  1  0.66666700  0.33333300  0.76080500  1
  Li  Li5  1  0.66666700  0.33333300  0.24589200  1
  Co  Co0  1  0.03546100  0.69152100  0.40360600  1
  Co  Co1  1  0.30847900  0.34394000  0.40360600  1
  Co  Co2  1  0.65606000  0.96453900  0.40360600  1
  Co  Co3  1  0.34394000  0.03546100  0.90360600  1
  Co  Co4  1  0.69152100  0.65606000  0.90360600  1
  Co  Co5  1  0.96453900  0.30847900  0.90360600  1
  Si  Si0  1  0.04701200  0.68913700  0.01779100  1
  Si  Si1  1  0.31086300  0.35787500  0.01779100  1
  Si  Si2  1  0.64212500  0.95298800  0.01779100  1
  Si  Si3  1  0.35787500  0.04701200  0.51779100  1
  Si  Si4  1  0.68913700  0.64212500  0.51779100  1
  Si  Si5  1  0.95298800  0.31086300  0.51779100  1
  O  O0  1  0.14026400  0.91258400  0.50848600  1
  O  O1  1  0.14911100  0.73545900  0.19798700  1
  O  O2  1  0.08057000  0.52513200  0.49620800  1
  O  O3  1  0.20555900  0.78619800  0.87747400  1
  O  O4  1  0.21380200  0.41936100  0.87747400  1
  O  O5  1  0.44456200  0.91943000  0.49620800  1
  O  O6  1  0.08741600  0.22768100  0.50848600  1
  O  O7  1  0.26454100  0.41365200  0.19798700  1
  O  O8  1  0.58634800  0.85088900  0.19798700  1
  O  O9  1  0.47486800  0.55543800  0.49620800  1
  O  O10  1  0.22768100  0.14026400  0.00848600  1
  O  O11  1  0.58063900  0.79444100  0.87747400  1
  O  O12  1  0.41936100  0.20555900  0.37747400  1
  O  O13  1  0.77231900  0.85973600  0.50848600  1
  O  O14  1  0.52513200  0.44456200  0.99620800  1
  O  O15  1  0.41365200  0.14911100  0.69798700  1
  O  O16  1  0.73545900  0.58634800  0.69798700  1
  O  O17  1  0.91258400  0.77231900  0.00848600  1
  O  O18  1  0.55543800  0.08057000  0.99620800  1
  O  O19  1  0.78619800  0.58063900  0.37747400  1
  O  O20  1  0.79444100  0.21380200  0.37747400  1
  O  O21  1  0.91943000  0.47486800  0.99620800  1
  O  O22  1  0.85088900  0.26454100  0.69798700  1
  O  O23  1  0.85973600  0.08741600  0.00848600  1
loop_
_geom_bond_atom_site_label_1
_geom_bond_atom_site_label_2
_geom_bond_distance
_geom_bond_site_symmetry_2
Li0 O1 2.032508 1_555
Li0 O8 2.032514 1_555
Li0 O7 2.032516 1_555
Li1 O3 2.143173 1_555
Li1 O11 2.143179 1_555
Li1 O4 2.143179 1_555
Li2 O23 1.859871 1_455
Li2 O10 1.859877 1_555
Li2 O17 1.859879 1_445
Li3 O0 1.859871 1_545
Li3 O13 1.859877 1_445
Li3 O6 1.859879 1_555
Li4 O22 2.032508 1_555
Li4 O15 2.032514 1_555
Li4 O16 2.032516 1_555
Li5 O20 2.143173 1_555
Li5 O12 2.143179 1_555
Li5 O19 2.143179 1_555
Co0 O2 1.835394 1_555
Co0 O0 1.867166 1_555
Co0 O1 1.872605 1_555
Co0 O19 1.890553 1_455
Co1 O9 1.835394 1_555
Co1 O6 1.867166 1_555
Co1 O7 1.872605 1_555
Co1 O12 1.890553 1_555
Co2 O5 1.835394 1_555
Co2 O13 1.867160 1_555
Co2 O8 1.872605 1_555
Co2 O20 1.890553 1_565
Co3 O18 1.835394 1_555
Co3 O10 1.867160 1_556
Co3 O15 1.872605 1_555
Co3 O3 1.890553 1_545
Co4 O14 1.835394 1_555
Co4 O17 1.867166 1_556
Co4 O16 1.872605 1_555
Co4 O11 1.890553 1_555
Co5 O21 1.835394 1_555
Co5 O23 1.867166 1_556
Co5 O22 1.872605 1_555
Co5 O4 1.890553 1_655
O0 Si3 1.653603 1_565
O1 Si0 1.647339 1_555
O2 Si5 1.630810 1_455
O3 Si0 1.653156 1_556
O4 Si1 1.653156 1_556
O5 Si3 1.630811 1_565
O6 Si5 1.653596 1_455
O7 Si1 1.647339 1_555
O8 Si2 1.647339 1_555
O9 Si4 1.630811 1_555
O10 Si1 1.653604 1_555
O11 Si2 1.653156 1_556
O12 Si3 1.653156 1_555
O13 Si4 1.653604 1_555
O14 Si1 1.630811 1_556
O15 Si3 1.647339 1_555
O16 Si4 1.647339 1_555
O17 Si0 1.653596 1_655
O18 Si2 1.630811 1_546
O19 Si4 1.653156 1_555
O20 Si5 1.653156 1_555
O21 Si0 1.630810 1_656
O22 Si5 1.647339 1_555
O23 Si2 1.653603 1_545
