# generated using pymatgen
data_Li2CrSiO4
_symmetry_space_group_name_H-M   'P 1'
_cell_length_a   5.01318500
_cell_length_b   6.57724700
_cell_length_c   10.54488200
_cell_angle_alpha   90.00000000
_cell_angle_beta   90.00000000
_cell_angle_gamma   90.00000000
_symmetry_Int_Tables_number   1
_chemical_formula_structural   Li2CrSiO4
_chemical_formula_sum   'Li8 Cr4 Si4 O16'
_cell_volume   347.69593023
_cell_formula_units_Z   4
loop_
 _symmetry_equiv_pos_site_id
 _symmetry_equiv_pos_as_xyz
  1  'x, y, z'
loop_
 _atom_site_type_symbol
 _atom_site_label
 _atom_site_symmetry_multiplicity
 _atom_site_fract_x
 _atom_site_fract_y
 _atom_site_fract_z
 _atom_site_occupancy
  Li  Li0  1  0.18208500  0.50196800  0.58962900  1
  Li  Li1  1  0.31791500  0.50196800  0.08962900  1
  Li  Li2  1  0.31791500  0.99803200  0.08962900  1
  Li  Li3  1  0.18208500  0.99803200  0.58962900  1
  Li  Li4  1  0.68208500  0.00196800  0.91037100  1
  Li  Li5  1  0.81791500  0.00196800  0.41037100  1
  Li  Li6  1  0.81791500  0.49803200  0.41037100  1
  Li  Li7  1  0.68208500  0.49803200  0.91037100  1
  Cr  Cr0  1  0.19273400  0.75000000  0.85138400  1
  Cr  Cr1  1  0.30726600  0.75000000  0.35138400  1
  Cr  Cr2  1  0.69273400  0.25000000  0.64861600  1
  Cr  Cr3  1  0.80726600  0.25000000  0.14861600  1
  Si  Si0  1  0.66916800  0.75000000  0.66762700  1
  Si  Si1  1  0.83083200  0.75000000  0.16762700  1
  Si  Si2  1  0.33083200  0.25000000  0.33237300  1
  Si  Si3  1  0.16916800  0.25000000  0.83237300  1
  O  O0  1  0.78103700  0.54250200  0.59682200  1
  O  O1  1  0.71896300  0.54250200  0.09682200  1
  O  O2  1  0.34102300  0.75000000  0.65986200  1
  O  O3  1  0.73791900  0.75000000  0.31869800  1
  O  O4  1  0.76208100  0.75000000  0.81869800  1
  O  O5  1  0.15897700  0.75000000  0.15986200  1
  O  O6  1  0.71896300  0.95749800  0.09682200  1
  O  O7  1  0.78103700  0.95749800  0.59682200  1
  O  O8  1  0.21896300  0.04250200  0.40317800  1
  O  O9  1  0.28103700  0.04250200  0.90317800  1
  O  O10  1  0.65897700  0.25000000  0.34013800  1
  O  O11  1  0.84102300  0.25000000  0.84013800  1
  O  O12  1  0.26208100  0.25000000  0.68130200  1
  O  O13  1  0.23791900  0.25000000  0.18130200  1
  O  O14  1  0.21896300  0.45749800  0.40317800  1
  O  O15  1  0.28103700  0.45749800  0.90317800  1
loop_
_geom_bond_atom_site_label_1
_geom_bond_atom_site_label_2
_geom_bond_distance
_geom_bond_site_symmetry_2
Li0 O12 1.960050 1_555
Li0 O2 1.960794 1_555
Li0 O14 1.996320 1_555
Li0 O0 2.029545 1_455
Li1 O13 1.960050 1_555
Li1 O5 1.960794 1_555
Li1 O15 1.996320 1_554
Li1 O1 2.029545 1_555
Li2 O13 1.960050 1_565
Li2 O5 1.960794 1_555
Li2 O9 1.996320 1_564
Li2 O6 2.029545 1_555
Li3 O12 1.960050 1_565
Li3 O2 1.960794 1_555
Li3 O8 1.996320 1_565
Li3 O7 2.029545 1_455
Li4 O4 1.960050 1_545
Li4 O11 1.960794 1_555
Li4 O6 1.996320 1_546
Li4 O9 2.029545 1_555
Li5 O3 1.960050 1_545
Li5 O10 1.960794 1_555
Li5 O7 1.996320 1_545
Li5 O8 2.029545 1_655
Li6 O3 1.960050 1_555
Li6 O10 1.960794 1_555
Li6 O0 1.996320 1_555
Li6 O14 2.029545 1_655
Li7 O4 1.960050 1_555
Li7 O11 1.960794 1_555
Li7 O1 1.996320 1_556
Li7 O15 2.029545 1_555
Cr0 O9 2.048289 1_565
Cr0 O15 2.048289 1_555
Cr0 O2 2.152054 1_555
Cr0 O4 2.186283 1_455
Cr1 O8 2.048289 1_565
Cr1 O14 2.048289 1_555
Cr1 O5 2.152054 1_555
Cr1 O3 2.186283 1_555
Cr2 O0 2.048289 1_555
Cr2 O7 2.048289 1_545
Cr2 O11 2.152054 1_555
Cr2 O12 2.186283 1_555
Cr3 O1 2.048289 1_555
Cr3 O6 2.048289 1_545
Cr3 O10 2.152054 1_555
Cr3 O13 2.186283 1_655
O0 Si0 1.653651 1_555
O1 Si1 1.653651 1_555
O2 Si0 1.647088 1_555
O3 Si1 1.659726 1_555
O4 Si0 1.659726 1_555
O5 Si1 1.647088 1_455
O6 Si1 1.653651 1_555
O7 Si0 1.653651 1_555
O8 Si2 1.653651 1_555
O9 Si3 1.653651 1_555
O10 Si2 1.647088 1_555
O11 Si3 1.647088 1_655
O12 Si3 1.659726 1_555
O13 Si2 1.659726 1_555
O14 Si2 1.653651 1_555
O15 Si3 1.653651 1_555
