# generated using pymatgen
data_Mg(NiO2)4
_symmetry_space_group_name_H-M   'P 1'
_cell_length_a   10.42530315
_cell_length_b   10.42529848
_cell_length_c   14.83749300
_cell_angle_alpha   18.41136805
_cell_angle_beta   18.41140775
_cell_angle_gamma   31.74818721
_symmetry_Int_Tables_number   1
_chemical_formula_structural   Mg(NiO2)4
_chemical_formula_sum   'Mg1 Ni4 O8'
_cell_volume   139.31347590
_cell_formula_units_Z   1
loop_
 _symmetry_equiv_pos_site_id
 _symmetry_equiv_pos_as_xyz
  1  'x, y, z'
loop_
 _atom_site_type_symbol
 _atom_site_label
 _atom_site_symmetry_multiplicity
 _atom_site_fract_x
 _atom_site_fract_y
 _atom_site_fract_z
 _atom_site_occupancy
  Mg  Mg0  1  0.00000100  0.00000000  0.50000000  1
  Ni  Ni0  1  0.00000000  0.49999800  0.00000100  1
  Ni  Ni1  1  0.99999900  0.00000000  0.00000000  1
  Ni  Ni2  1  0.50000400  0.50000300  0.99999500  1
  Ni  Ni3  1  0.49999700  0.00000100  0.00000000  1
  O  O0  1  0.99999800  0.46076700  0.29108300  1
  O  O1  1  0.00000200  0.53923200  0.70891900  1
  O  O2  1  0.46077200  0.46077200  0.78737800  1
  O  O3  1  0.99999900  0.99999900  0.26931300  1
  O  O4  1  0.00000100  0.00000000  0.73068900  1
  O  O5  1  0.53922900  0.53922900  0.21262000  1
  O  O6  1  0.53923100  0.00000200  0.70891900  1
  O  O7  1  0.46076700  0.99999800  0.29108300  1
loop_
_geom_bond_atom_site_label_1
_geom_bond_atom_site_label_2
_geom_bond_distance
_geom_bond_site_symmetry_2
Mg0 O5 2.104109 1_446
Mg0 O7 2.104123 1_545
Mg0 O1 2.104123 1_545
Mg0 O0 2.104123 1_455
Mg0 O2 2.104129 1_554
Mg0 O6 2.104139 1_455
Ni0 O7 1.882715 1_554
Ni0 O6 1.882722 1_455
Ni0 O2 1.882744 1_554
Ni0 O5 1.882749 1_455
Ni0 O3 1.900734 1_445
Ni0 O4 1.900757 1_564
Ni1 O2 2.045145 1_545
Ni1 O5 2.045146 1_654
Ni1 O0 2.045162 1_545
Ni1 O7 2.045162 1_545
Ni1 O1 2.045176 1_654
Ni1 O6 2.045177 1_654
Ni2 O7 1.882736 1_546
Ni2 O6 1.882742 1_565
Ni2 O0 1.882744 1_456
Ni2 O1 1.882747 1_655
Ni2 O3 1.900712 1_555
Ni2 O4 1.900748 1_556
Ni3 O0 1.882708 1_554
Ni3 O1 1.882734 1_545
Ni3 O5 1.882742 1_545
Ni3 O2 1.882744 1_554
Ni3 O3 1.900727 1_445
Ni3 O4 1.900778 1_654
