# generated using pymatgen
data_VOF3
_symmetry_space_group_name_H-M   'P 1'
_cell_length_a   4.85559400
_cell_length_b   5.11303000
_cell_length_c   11.79443400
_cell_angle_alpha   90.00000000
_cell_angle_beta   90.00000000
_cell_angle_gamma   90.00000000
_symmetry_Int_Tables_number   1
_chemical_formula_structural   VOF3
_chemical_formula_sum   'V4 O4 F12'
_cell_volume   292.81802796
_cell_formula_units_Z   4
loop_
 _symmetry_equiv_pos_site_id
 _symmetry_equiv_pos_as_xyz
  1  'x, y, z'
loop_
 _atom_site_type_symbol
 _atom_site_label
 _atom_site_symmetry_multiplicity
 _atom_site_fract_x
 _atom_site_fract_y
 _atom_site_fract_z
 _atom_site_occupancy
  V  V0  1  0.00000000  0.00000000  0.09408900  1
  V  V1  1  0.50000000  0.00000000  0.92916400  1
  V  V2  1  0.00000000  0.50000000  0.59408900  1
  V  V3  1  0.50000000  0.50000000  0.42916400  1
  O  O0  1  0.28921500  0.17097800  0.04251000  1
  O  O1  1  0.28921500  0.32902200  0.54251000  1
  O  O2  1  0.71078500  0.67097800  0.54251000  1
  O  O3  1  0.71078500  0.82902200  0.04251000  1
  F  F0  1  0.37326300  0.21721800  0.82491700  1
  F  F1  1  0.85566500  0.22483600  0.18728600  1
  F  F2  1  0.79568800  0.23238900  0.94988200  1
  F  F3  1  0.79568800  0.26761100  0.44988200  1
  F  F4  1  0.85566500  0.27516400  0.68728600  1
  F  F5  1  0.37326300  0.28278200  0.32491700  1
  F  F6  1  0.62673700  0.71721800  0.32491700  1
  F  F7  1  0.14433500  0.72483600  0.68728600  1
  F  F8  1  0.20431200  0.73238900  0.44988200  1
  F  F9  1  0.20431200  0.76761100  0.94988200  1
  F  F10  1  0.14433500  0.77516400  0.18728600  1
  F  F11  1  0.62673700  0.78278200  0.82491700  1
loop_
_geom_bond_atom_site_label_1
_geom_bond_atom_site_label_2
_geom_bond_distance
_geom_bond_site_symmetry_2
O0 V0 1.762505 1_555
O0 V1 1.897090 1_554
O1 V2 1.762505 1_555
O1 V3 1.897090 1_555
O2 V2 1.762505 1_655
O2 V3 1.897090 1_555
O3 V0 1.762505 1_665
O3 V1 1.897090 1_564
F0 V1 1.767478 1_555
F1 V0 1.738098 1_655
F2 V1 1.879604 1_555
F2 V0 2.299756 1_656
F3 V3 1.879604 1_555
F3 V2 2.299756 1_655
F4 V2 1.738098 1_655
F5 V3 1.767478 1_555
F6 V3 1.767478 1_555
F7 V2 1.738098 1_555
F8 V3 1.879604 1_555
F8 V2 2.299756 1_555
F9 V1 1.879604 1_565
F9 V0 2.299756 1_566
F10 V0 1.738098 1_565
F11 V1 1.767478 1_565
