# generated using pymatgen
data_Sr2Mg3H10
_symmetry_space_group_name_H-M   'P 1'
_cell_length_a   9.21767892
_cell_length_b   9.21767892
_cell_length_c   7.48499152
_cell_angle_alpha   69.87402794
_cell_angle_beta   69.87402794
_cell_angle_gamma   36.02829519
_symmetry_Int_Tables_number   1
_chemical_formula_structural   Sr2Mg3H10
_chemical_formula_sum   'Sr4 Mg6 H20'
_cell_volume   348.72197946
_cell_formula_units_Z   2
loop_
 _symmetry_equiv_pos_site_id
 _symmetry_equiv_pos_as_xyz
  1  'x, y, z'
loop_
 _atom_site_type_symbol
 _atom_site_label
 _atom_site_symmetry_multiplicity
 _atom_site_fract_x
 _atom_site_fract_y
 _atom_site_fract_z
 _atom_site_occupancy
  Sr  Sr0  1  0.28101900  0.28101900  0.31118300  1
  Sr  Sr1  1  0.71898100  0.71898100  0.68881700  1
  Sr  Sr2  1  0.38326600  0.38326600  0.72074900  1
  Sr  Sr3  1  0.61673400  0.61673400  0.27925100  1
  Mg  Mg0  1  0.07544600  0.07544600  0.55358600  1
  Mg  Mg1  1  0.92455400  0.92455400  0.44641400  1
  Mg  Mg2  1  0.17397900  0.17397900  0.98189000  1
  Mg  Mg3  1  0.82602100  0.82602100  0.01811000  1
  Mg  Mg4  1  0.74225500  0.25774500  0.00000000  1
  Mg  Mg5  1  0.25774500  0.74225500  0.00000000  1
  H  H0  1  0.84038700  0.38587200  0.97424300  1
  H  H1  1  0.38587200  0.84038700  0.97424300  1
  H  H2  1  0.15961300  0.61412800  0.02575700  1
  H  H3  1  0.61412800  0.15961300  0.02575700  1
  H  H4  1  0.90879500  0.39962300  0.51594400  1
  H  H5  1  0.39962300  0.90879500  0.51594400  1
  H  H6  1  0.09120500  0.60037700  0.48405600  1
  H  H7  1  0.60037700  0.09120500  0.48405600  1
  H  H8  1  0.02165400  0.02165400  0.82283800  1
  H  H9  1  0.97834600  0.97834600  0.17716200  1
  H  H10  1  0.13574000  0.13574000  0.25807100  1
  H  H11  1  0.86426000  0.86426000  0.74192900  1
  H  H12  1  0.23711500  0.23711500  0.71459900  1
  H  H13  1  0.76288500  0.76288500  0.28540100  1
  H  H14  1  0.51639400  0.51639400  0.81088500  1
  H  H15  1  0.48360600  0.48360600  0.18911500  1
  H  H16  1  0.76900600  0.23099400  0.50000000  1
  H  H17  1  0.23099400  0.76900600  0.50000000  1
  H  H18  1  0.00000000  0.50000000  0.00000000  1
  H  H19  1  0.50000000  0.00000000  0.00000000  1
loop_
_geom_bond_atom_site_label_1
_geom_bond_atom_site_label_2
_geom_bond_distance
_geom_bond_site_symmetry_2
H0 Mg2 1.898257 1_655
H0 Mg4 1.923915 1_556
H0 Sr1 2.611081 1_555
H0 Sr3 2.645575 1_556
H1 Mg2 1.898257 1_565
H1 Mg5 1.923915 1_556
H1 Sr1 2.611081 1_555
H1 Sr3 2.645575 1_556
H2 Mg3 1.898257 1_455
H2 Mg5 1.923915 1_555
H2 Sr0 2.611081 1_555
H2 Sr2 2.645575 1_554
H3 Mg3 1.898257 1_545
H3 Mg4 1.923915 1_555
H3 Sr0 2.611081 1_555
H3 Sr2 2.645575 1_554
H4 Mg0 1.913686 1_655
H4 Sr1 2.476646 1_555
H4 Sr3 2.553301 1_555
H4 Sr0 2.604507 1_655
H5 Mg0 1.913686 1_565
H5 Sr1 2.476646 1_555
H5 Sr3 2.553301 1_555
H5 Sr0 2.604507 1_565
H6 Mg1 1.913686 1_455
H6 Sr0 2.476646 1_555
H6 Sr2 2.553301 1_555
H6 Sr1 2.604507 1_455
H7 Mg1 1.913686 1_545
H7 Sr0 2.476646 1_555
H7 Sr2 2.553301 1_555
H7 Sr1 2.604507 1_545
H8 Mg0 1.890937 1_555
H8 Mg4 1.922896 1_456
H8 Mg5 1.922896 1_546
H9 Mg1 1.890937 1_555
H9 Mg5 1.922896 1_655
H9 Mg4 1.922896 1_565
H10 Mg2 1.928714 1_554
H10 Mg0 2.077983 1_555
H10 Sr0 2.716224 1_555
H10 Sr3 2.867710 1_545
H10 Sr3 2.867710 1_455
H11 Mg3 1.928714 1_556
H11 Mg1 2.077983 1_555
H11 Sr1 2.716224 1_555
H11 Sr2 2.867710 1_565
H11 Sr2 2.867710 1_655
H12 Mg2 1.904037 1_555
H12 Sr2 2.579282 1_555
H12 Sr0 2.833433 1_555
H12 Sr1 2.882454 1_455
H12 Sr1 2.882454 1_545
H13 Mg3 1.904037 1_555
H13 Sr3 2.579282 1_555
H13 Sr1 2.833433 1_555
H13 Sr0 2.882454 1_565
H13 Sr0 2.882454 1_655
H14 Mg5 1.923394 1_556
H14 Mg4 1.923394 1_556
H14 Sr2 2.653677 1_555
H15 Mg4 1.923394 1_555
H15 Mg5 1.923394 1_555
H15 Sr3 2.653677 1_555
H16 Mg1 2.007142 1_545
H16 Mg0 2.007142 1_655
H16 Sr2 2.612185 1_555
H16 Sr3 2.612185 1_555
H17 Mg1 2.007142 1_455
H17 Mg0 2.007142 1_565
H17 Sr2 2.612185 1_555
H17 Sr3 2.612185 1_555
H18 Mg3 1.989184 1_455
H18 Mg2 1.989184 1_554
H18 Sr3 2.885327 1_455
H18 Sr2 2.885327 1_554
H18 Sr0 2.944313 1_555
H18 Sr1 2.944313 1_454
H19 Mg3 1.989184 1_545
H19 Mg2 1.989184 1_554
H19 Sr3 2.885327 1_545
H19 Sr2 2.885327 1_554
H19 Sr0 2.944313 1_555
H19 Sr1 2.944313 1_544
