# generated using pymatgen
data_Eu2Mn2O7
_symmetry_space_group_name_H-M   'P 1'
_cell_length_a   7.08596821
_cell_length_b   7.08596821
_cell_length_c   7.08596821
_cell_angle_alpha   60.00000000
_cell_angle_beta   60.00000000
_cell_angle_gamma   60.00000000
_symmetry_Int_Tables_number   1
_chemical_formula_structural   Eu2Mn2O7
_chemical_formula_sum   'Eu4 Mn4 O14'
_cell_volume   251.58375817
_cell_formula_units_Z   2
loop_
 _symmetry_equiv_pos_site_id
 _symmetry_equiv_pos_as_xyz
  1  'x, y, z'
loop_
 _atom_site_type_symbol
 _atom_site_label
 _atom_site_symmetry_multiplicity
 _atom_site_fract_x
 _atom_site_fract_y
 _atom_site_fract_z
 _atom_site_occupancy
  Eu  Eu0  1  0.12500000  0.62500000  0.12500000  1
  Eu  Eu1  1  0.12500000  0.12500000  0.62500000  1
  Eu  Eu2  1  0.62500000  0.12500000  0.12500000  1
  Eu  Eu3  1  0.12500000  0.12500000  0.12500000  1
  Mn  Mn0  1  0.62500000  0.62500000  0.62500000  1
  Mn  Mn1  1  0.12500000  0.62500000  0.62500000  1
  Mn  Mn2  1  0.62500000  0.62500000  0.12500000  1
  Mn  Mn3  1  0.62500000  0.12500000  0.62500000  1
  O  O0  1  0.30040523  0.69959477  0.69959477  1
  O  O1  1  0.55040523  0.94959477  0.94959477  1
  O  O2  1  0.69959477  0.69959477  0.30040523  1
  O  O3  1  0.30040523  0.30040523  0.69959477  1
  O  O4  1  -0.00000000  0.00000000  0.00000000  1
  O  O5  1  0.30040523  0.69959477  0.30040523  1
  O  O6  1  0.69959477  0.30040523  0.69959477  1
  O  O7  1  0.94959477  0.55040523  0.94959477  1
  O  O8  1  0.55040523  0.55040523  0.94959477  1
  O  O9  1  0.94959477  0.94959477  0.55040523  1
  O  O10  1  0.25000000  0.25000000  0.25000000  1
  O  O11  1  0.55040523  0.94959477  0.55040523  1
  O  O12  1  0.69959477  0.30040523  0.30040523  1
  O  O13  1  0.94959477  0.55040523  0.55040523  1
loop_
_geom_bond_atom_site_label_1
_geom_bond_atom_site_label_2
_geom_bond_distance
_geom_bond_site_symmetry_2
Eu0 O4 2.169626 1_565
Eu0 O10 2.169626 1_555
Eu0 O2 2.495569 1_455
Eu0 O8 2.495569 1_554
Eu0 O7 2.495569 1_454
Eu0 O0 2.495569 1_554
Eu0 O13 2.495569 1_455
Eu0 O5 2.495569 1_555
Eu1 O4 2.169626 1_556
Eu1 O10 2.169626 1_555
Eu1 O6 2.495569 1_455
Eu1 O0 2.495569 1_545
Eu1 O11 2.495569 1_545
Eu1 O13 2.495569 1_455
Eu1 O9 2.495569 1_445
Eu1 O3 2.495569 1_555
Eu2 O4 2.169626 1_655
Eu2 O10 2.169626 1_555
Eu2 O8 2.495569 1_554
Eu2 O1 2.495569 1_544
Eu2 O11 2.495569 1_545
Eu2 O6 2.495569 1_554
Eu2 O2 2.495569 1_545
Eu2 O12 2.495569 1_555
Eu3 O4 2.169626 1_555
Eu3 O10 2.169626 1_555
Eu3 O12 2.495569 1_455
Eu3 O1 2.495569 1_544
Eu3 O7 2.495569 1_454
Eu3 O3 2.495569 1_554
Eu3 O5 2.495569 1_545
Eu3 O9 2.495569 1_445
Mn0 O0 1.922751 1_555
Mn0 O6 1.922751 1_555
Mn0 O2 1.922751 1_555
Mn0 O11 1.922751 1_555
Mn0 O13 1.922751 1_555
Mn0 O8 1.922751 1_555
Mn1 O5 1.922751 1_555
Mn1 O3 1.922751 1_555
Mn1 O7 1.922751 1_455
Mn1 O13 1.922751 1_455
Mn1 O9 1.922751 1_455
Mn1 O0 1.922751 1_555
Mn2 O5 1.922751 1_555
Mn2 O12 1.922751 1_555
Mn2 O1 1.922751 1_554
Mn2 O7 1.922751 1_554
Mn2 O8 1.922751 1_554
Mn2 O2 1.922751 1_555
Mn3 O3 1.922751 1_555
Mn3 O12 1.922751 1_555
Mn3 O1 1.922751 1_545
Mn3 O11 1.922751 1_545
Mn3 O9 1.922751 1_545
Mn3 O6 1.922751 1_555
