# generated using pymatgen
data_Li4Ti3Cu3(TeO8)2
_symmetry_space_group_name_H-M   'P 1'
_cell_length_a   5.98620376
_cell_length_b   5.98620376
_cell_length_c   10.12710052
_cell_angle_alpha   88.52174393
_cell_angle_beta   88.52174393
_cell_angle_gamma   59.85310975
_symmetry_Int_Tables_number   1
_chemical_formula_structural   Li4Ti3Cu3(TeO8)2
_chemical_formula_sum   'Li4 Ti3 Cu3 Te2 O16'
_cell_volume   313.67616792
_cell_formula_units_Z   1
loop_
 _symmetry_equiv_pos_site_id
 _symmetry_equiv_pos_as_xyz
  1  'x, y, z'
loop_
 _atom_site_type_symbol
 _atom_site_label
 _atom_site_symmetry_multiplicity
 _atom_site_fract_x
 _atom_site_fract_y
 _atom_site_fract_z
 _atom_site_occupancy
  Li  Li0  1  0.65804500  0.65804500  0.08886000  1
  Li  Li1  1  0.99216800  0.99216800  0.01913000  1
  Li  Li2  1  0.00747400  0.00747400  0.51158100  1
  Li  Li3  1  0.33527500  0.33527500  0.59215500  1
  Ti  Ti0  1  0.35272100  0.83412100  0.78159100  1
  Ti  Ti1  1  0.83412100  0.35272100  0.78159100  1
  Ti  Ti2  1  0.17335300  0.17335300  0.27827200  1
  Cu  Cu0  1  0.83102300  0.83102300  0.79761500  1
  Cu  Cu1  1  0.16896600  0.66098100  0.28429800  1
  Cu  Cu2  1  0.66098100  0.16896600  0.28429800  1
  Te  Te0  1  0.67635700  0.67635700  0.49685100  1
  Te  Te1  1  0.33230300  0.33230300  0.01495900  1
  O  O0  1  0.34695400  0.86139700  0.39272900  1
  O  O1  1  0.51183600  0.51183600  0.68662800  1
  O  O2  1  0.65915700  0.65915700  0.89172100  1
  O  O3  1  0.00120800  0.00120800  0.70813000  1
  O  O4  1  0.00088600  0.00088600  0.20375200  1
  O  O5  1  0.86139700  0.34695400  0.39272900  1
  O  O6  1  0.48015500  0.98076100  0.66640100  1
  O  O7  1  0.98076100  0.48015500  0.66640100  1
  O  O8  1  0.16848300  0.16848300  0.90542100  1
  O  O9  1  0.84660000  0.84660000  0.41233600  1
  O  O10  1  0.02969100  0.45418800  0.13673900  1
  O  O11  1  0.45418800  0.02969100  0.13673900  1
  O  O12  1  0.33087700  0.33087700  0.38075400  1
  O  O13  1  0.17377200  0.66009000  0.91766900  1
  O  O14  1  0.47150700  0.47150700  0.14513400  1
  O  O15  1  0.66009000  0.17377200  0.91766900  1
loop_
_geom_bond_atom_site_label_1
_geom_bond_atom_site_label_2
_geom_bond_distance
_geom_bond_site_symmetry_2
Li0 O11 1.992980 1_565
Li0 O10 1.992980 1_655
Li0 O2 1.996136 1_554
Li0 O14 2.001348 1_555
Li1 O4 1.874560 1_665
Li1 O15 2.016528 1_564
Li1 O13 2.016528 1_654
Li1 O8 2.132498 1_664
Li2 O9 1.973929 1_445
Li2 O3 1.989598 1_555
Li2 O0 2.118104 1_545
Li2 O5 2.118104 1_455
Li3 O6 1.980869 1_545
Li3 O7 1.980869 1_455
Li3 O1 2.091878 1_555
Li3 O12 2.142723 1_555
Cu0 O3 1.960665 1_665
Cu0 O2 1.996800 1_555
Cu0 O13 2.165798 1_655
Cu0 O15 2.165798 1_565
Cu0 O6 2.274262 1_555
Cu0 O7 2.274262 1_555
Cu1 O4 1.928274 1_565
Cu1 O12 1.955486 1_555
Cu1 O9 2.105083 1_455
Cu1 O14 2.107169 1_555
Cu1 O0 2.278746 1_555
Cu1 O10 2.378436 1_555
Cu2 O4 1.928274 1_655
Cu2 O12 1.955486 1_555
Cu2 O9 2.105083 1_545
Cu2 O14 2.107169 1_555
Cu2 O5 2.278746 1_555
Cu2 O11 2.378436 1_555
O0 Ti2 1.977882 1_565
O0 Te0 2.019959 1_555
O1 Ti1 1.938265 1_555
O1 Ti0 1.938265 1_555
O1 Te0 2.532287 1_555
O2 Ti0 1.954823 1_555
O2 Ti1 1.954823 1_555
O3 Ti0 1.977377 1_545
O3 Ti1 1.977377 1_455
O4 Ti2 1.962740 1_555
O5 Ti2 1.977882 1_655
O5 Te0 2.019959 1_555
O6 Ti0 1.813057 1_555
O6 Te0 2.357095 1_555
O7 Ti1 1.813057 1_555
O7 Te0 2.357095 1_555
O8 Te1 2.057220 1_556
O8 Ti0 2.153153 1_545
O8 Ti1 2.153153 1_455
O9 Te0 1.939820 1_555
O10 Te1 1.984548 1_555
O10 Ti2 2.026648 1_555
O11 Te1 1.984548 1_555
O11 Ti2 2.026648 1_555
O12 Ti2 1.962050 1_555
O13 Te1 1.949277 1_556
O13 Ti0 2.258900 1_555
O14 Te1 1.984320 1_555
O15 Te1 1.949277 1_556
O15 Ti1 2.258900 1_555
