# generated using pymatgen
data_Mn3FeO8
_symmetry_space_group_name_H-M   'P 1'
_cell_length_a   8.30473531
_cell_length_b   8.30473531
_cell_length_c   8.31155474
_cell_angle_alpha   89.95675717
_cell_angle_beta   89.95675717
_cell_angle_gamma   90.08607538
_symmetry_Int_Tables_number   1
_chemical_formula_structural   Mn3FeO8
_chemical_formula_sum   'Mn12 Fe4 O32'
_cell_volume   573.23555850
_cell_formula_units_Z   4
loop_
 _symmetry_equiv_pos_site_id
 _symmetry_equiv_pos_as_xyz
  1  'x, y, z'
loop_
 _atom_site_type_symbol
 _atom_site_label
 _atom_site_symmetry_multiplicity
 _atom_site_fract_x
 _atom_site_fract_y
 _atom_site_fract_z
 _atom_site_occupancy
  Mn  Mn0  1  0.12823900  0.12526100  0.75263900  1
  Mn  Mn1  1  0.12528600  0.37625900  0.99690300  1
  Mn  Mn2  1  0.12448500  0.62718300  0.24669600  1
  Mn  Mn3  1  0.87849500  0.37704800  0.74902300  1
  Mn  Mn4  1  0.87325500  0.62306400  0.49870200  1
  Mn  Mn5  1  0.87473900  0.87176100  0.24736100  1
  Mn  Mn6  1  0.62592300  0.37407700  0.50000000  1
  Mn  Mn7  1  0.62295200  0.12150500  0.25097700  1
  Mn  Mn8  1  0.62374100  0.87471400  0.00309700  1
  Mn  Mn9  1  0.37693600  0.12674500  0.50129800  1
  Mn  Mn10  1  0.37281700  0.87551500  0.75330400  1
  Mn  Mn11  1  0.37242000  0.62758000  0.00000000  1
  Fe  Fe0  1  0.12517400  0.87482600  0.50000000  1
  Fe  Fe1  1  0.87550300  0.12449700  0.00000000  1
  Fe  Fe2  1  0.62381600  0.62574800  0.75150100  1
  Fe  Fe3  1  0.37425200  0.37618400  0.24849900  1
  O  O0  1  0.14128400  0.10640300  0.51653600  1
  O  O1  1  0.14267400  0.89333400  0.74457800  1
  O  O2  1  0.13878600  0.61059000  0.01512200  1
  O  O3  1  0.11722500  0.14431300  0.98352500  1
  O  O4  1  0.14381100  0.39040000  0.23380200  1
  O  O5  1  0.11046000  0.36058800  0.76358100  1
  O  O6  1  0.10950500  0.64403900  0.48285500  1
  O  O7  1  0.10666600  0.85732600  0.25542200  1
  O  O8  1  0.89155000  0.14022600  0.76958100  1
  O  O9  1  0.89372600  0.36632500  0.98191900  1
  O  O10  1  0.88974600  0.63836700  0.26468800  1
  O  O11  1  0.86696700  0.60834500  0.73003500  1
  O  O12  1  0.89359700  0.85871600  0.48346400  1
  O  O13  1  0.86025000  0.38844700  0.51433300  1
  O  O14  1  0.85977400  0.10845000  0.23041900  1
  O  O15  1  0.85568700  0.88277500  0.01647500  1
  O  O16  1  0.64247900  0.39268900  0.73415700  1
  O  O17  1  0.64313200  0.60693600  0.50860300  1
  O  O18  1  0.63941200  0.88954000  0.23641900  1
  O  O19  1  0.60731100  0.35752100  0.26584300  1
  O  O20  1  0.63367500  0.10627400  0.01808100  1
  O  O21  1  0.61155300  0.13975000  0.48566700  1
  O  O22  1  0.60960000  0.85618900  0.76619800  1
  O  O23  1  0.60496400  0.64150500  0.99186400  1
  O  O24  1  0.39306400  0.35686800  0.49139700  1
  O  O25  1  0.39165500  0.13303300  0.26996500  1
  O  O26  1  0.38941000  0.86121400  0.98487800  1
  O  O27  1  0.35596100  0.89049500  0.51714500  1
  O  O28  1  0.38272500  0.64346800  0.76888500  1
  O  O29  1  0.36163300  0.11025400  0.73531200  1
  O  O30  1  0.35849500  0.39503600  0.00813600  1
  O  O31  1  0.35653200  0.61727500  0.23111500  1
loop_
_geom_bond_atom_site_label_1
_geom_bond_atom_site_label_2
_geom_bond_distance
_geom_bond_site_symmetry_2
Mn0 O3 1.927766 1_555
Mn0 O1 1.931209 1_545
Mn0 O29 1.947695 1_555
Mn0 O5 1.962291 1_555
Mn0 O0 1.971650 1_555
Mn0 O8 1.974679 1_455
Mn1 O9 1.928812 1_455
Mn1 O3 1.930604 1_555
Mn1 O30 1.945091 1_556
Mn1 O5 1.947705 1_555
Mn1 O2 1.955109 1_556
Mn1 O4 1.978679 1_556
Mn2 O7 1.918640 1_555
Mn2 O31 1.933217 1_555
Mn2 O2 1.933345 1_555
Mn2 O10 1.957409 1_455
Mn2 O6 1.971787 1_555
Mn2 O4 1.976181 1_555
Mn3 O11 1.929740 1_555
Mn3 O5 1.935327 1_655
Mn3 O9 1.941936 1_555
Mn3 O13 1.958857 1_555
Mn3 O16 1.968513 1_555
Mn3 O8 1.977168 1_555
Mn4 O17 1.917298 1_555
Mn4 O11 1.927190 1_555
Mn4 O10 1.953761 1_555
Mn4 O13 1.955478 1_555
Mn4 O12 1.968029 1_555
Mn4 O6 1.973742 1_655
Mn5 O15 1.927766 1_555
Mn5 O7 1.931209 1_655
Mn5 O10 1.947695 1_555
Mn5 O18 1.962291 1_555
Mn5 O12 1.971650 1_555
Mn5 O14 1.974679 1_565
Mn6 O17 1.940268 1_555
Mn6 O24 1.940268 1_555
Mn6 O13 1.953232 1_555
Mn6 O21 1.953232 1_555
Mn6 O16 1.957375 1_555
Mn6 O19 1.957375 1_555
Mn7 O25 1.929740 1_555
Mn7 O18 1.935327 1_545
Mn7 O20 1.941936 1_555
Mn7 O21 1.958857 1_555
Mn7 O19 1.968513 1_555
Mn7 O14 1.977168 1_555
Mn8 O20 1.928812 1_565
Mn8 O15 1.930604 1_555
Mn8 O23 1.945091 1_554
Mn8 O18 1.947705 1_555
Mn8 O26 1.955109 1_554
Mn8 O22 1.978679 1_554
Mn9 O24 1.917298 1_555
Mn9 O25 1.927190 1_555
Mn9 O29 1.953761 1_555
Mn9 O21 1.955478 1_555
Mn9 O0 1.968029 1_555
Mn9 O27 1.973742 1_545
Mn10 O1 1.918640 1_555
Mn10 O28 1.933217 1_555
Mn10 O26 1.933345 1_555
Mn10 O29 1.957409 1_565
Mn10 O27 1.971787 1_555
Mn10 O22 1.976181 1_555
Mn11 O31 1.927180 1_555
Mn11 O28 1.927180 1_554
Mn11 O23 1.935630 1_554
Mn11 O30 1.935630 1_555
Mn11 O26 1.949136 1_554
Mn11 O2 1.949136 1_555
Fe0 O27 1.926235 1_555
Fe0 O6 1.926235 1_555
Fe0 O0 1.932637 1_565
Fe0 O12 1.932637 1_455
Fe0 O1 2.044008 1_555
Fe0 O7 2.044008 1_555
Fe1 O14 1.923998 1_555
Fe1 O8 1.923998 1_554
Fe1 O15 2.018464 1_545
Fe1 O3 2.018464 1_654
Fe1 O9 2.019263 1_554
Fe1 O20 2.019263 1_555
Fe2 O22 1.921540 1_555
Fe2 O16 1.947364 1_555
Fe2 O23 2.008180 1_555
Fe2 O28 2.012910 1_555
Fe2 O17 2.031255 1_555
Fe2 O11 2.032408 1_555
Fe3 O4 1.921540 1_555
Fe3 O19 1.947364 1_555
Fe3 O30 2.008180 1_555
Fe3 O31 2.012910 1_555
Fe3 O24 2.031255 1_555
Fe3 O25 2.032408 1_555
