# generated using pymatgen
data_CdCoO3
_symmetry_space_group_name_H-M   'P 1'
_cell_length_a   5.13142508
_cell_length_b   6.83920788
_cell_length_c   6.83901004
_cell_angle_alpha   96.83171662
_cell_angle_beta   94.51550162
_cell_angle_gamma   85.49482023
_symmetry_Int_Tables_number   1
_chemical_formula_structural   CdCoO3
_chemical_formula_sum   'Cd4 Co4 O12'
_cell_volume   236.98938525
_cell_formula_units_Z   4
loop_
 _symmetry_equiv_pos_site_id
 _symmetry_equiv_pos_as_xyz
  1  'x, y, z'
loop_
 _atom_site_type_symbol
 _atom_site_label
 _atom_site_symmetry_multiplicity
 _atom_site_fract_x
 _atom_site_fract_y
 _atom_site_fract_z
 _atom_site_occupancy
  Cd  Cd0  1  0.77526200  0.17585300  0.59923700  1
  Cd  Cd1  1  0.27538000  0.40061300  0.82407900  1
  Cd  Cd2  1  0.72465200  0.59934400  0.17589700  1
  Cd  Cd3  1  0.22483300  0.82427400  0.40081400  1
  Co  Co0  1  0.24961000  0.25881800  0.25869300  1
  Co  Co1  1  0.25002300  0.92340200  0.92345700  1
  Co  Co2  1  0.75017800  0.74119900  0.74126200  1
  Co  Co3  1  0.74995600  0.07659000  0.07656400  1
  O  O0  1  0.56265700  0.01156000  0.82586600  1
  O  O1  1  0.06275500  0.17413600  0.98846600  1
  O  O2  1  0.93725000  0.82584800  0.01156100  1
  O  O3  1  0.43729600  0.98841600  0.17409100  1
  O  O4  1  0.85863100  0.48710000  0.74059000  1
  O  O5  1  0.35871300  0.25929000  0.51289900  1
  O  O6  1  0.64137300  0.74061600  0.48705900  1
  O  O7  1  0.14140700  0.51292200  0.25945400  1
  O  O8  1  0.94579300  0.09925800  0.31272500  1
  O  O9  1  0.44569500  0.68723200  0.90069600  1
  O  O10  1  0.55438100  0.31273800  0.09930700  1
  O  O11  1  0.05415600  0.90079100  0.68728200  1
loop_
_geom_bond_atom_site_label_1
_geom_bond_atom_site_label_2
_geom_bond_distance
_geom_bond_site_symmetry_2
Cd0 O8 2.198501 1_555
Cd0 O5 2.221027 1_555
Cd0 O4 2.288496 1_555
Cd0 O11 2.379177 1_645
Cd0 O0 2.393357 1_555
Cd1 O9 2.198545 1_555
Cd1 O4 2.222277 1_455
Cd1 O5 2.288040 1_555
Cd1 O10 2.379816 1_556
Cd1 O1 2.392998 1_555
Cd2 O10 2.198345 1_555
Cd2 O7 2.222306 1_655
Cd2 O6 2.287764 1_555
Cd2 O9 2.379583 1_554
Cd2 O2 2.392856 1_555
Cd3 O11 2.198515 1_555
Cd3 O6 2.221166 1_555
Cd3 O7 2.289219 1_555
Cd3 O8 2.379243 1_465
Cd3 O3 2.392835 1_555
Co0 O7 1.781915 1_555
Co0 O5 1.783699 1_555
Co0 O8 2.052279 1_455
Co0 O1 2.055185 1_554
Co0 O10 2.055396 1_555
Co0 O3 2.058091 1_545
Co1 O9 1.830665 1_555
Co1 O11 1.830943 1_555
Co1 O3 1.919824 1_556
Co1 O1 1.920605 1_565
Co1 O0 1.949080 1_565
Co1 O2 1.949430 1_456
Co2 O4 1.782239 1_555
Co2 O6 1.783249 1_555
Co2 O11 2.052979 1_655
Co2 O9 2.054488 1_555
Co2 O2 2.056011 1_556
Co2 O0 2.057507 1_565
Co3 O10 1.830295 1_555
Co3 O8 1.830797 1_555
Co3 O0 1.920263 1_554
Co3 O2 1.920703 1_545
Co3 O3 1.949047 1_545
Co3 O1 1.949505 1_654
