# generated using pymatgen
data_LiFe2(BO3)2
_symmetry_space_group_name_H-M   'P 1'
_cell_length_a   5.27178400
_cell_length_b   9.12471073
_cell_length_c   10.11996353
_cell_angle_alpha   89.60197610
_cell_angle_beta   89.03644784
_cell_angle_gamma   89.52411994
_symmetry_Int_Tables_number   1
_chemical_formula_structural   LiFe2(BO3)2
_chemical_formula_sum   'Li4 Fe8 B8 O24'
_cell_volume   486.70880047
_cell_formula_units_Z   4
loop_
 _symmetry_equiv_pos_site_id
 _symmetry_equiv_pos_as_xyz
  1  'x, y, z'
loop_
 _atom_site_type_symbol
 _atom_site_label
 _atom_site_symmetry_multiplicity
 _atom_site_fract_x
 _atom_site_fract_y
 _atom_site_fract_z
 _atom_site_occupancy
  Li  Li0  1  0.18533800  0.16413600  0.14315000  1
  Li  Li1  1  0.31881900  0.32940900  0.41395200  1
  Li  Li2  1  0.65848100  0.67895900  0.66619400  1
  Li  Li3  1  0.68906300  0.66733500  0.16329700  1
  Fe  Fe0  1  0.15203700  0.85046400  0.62997200  1
  Fe  Fe1  1  0.18507800  0.49679000  0.12523500  1
  Fe  Fe2  1  0.33001000  0.99841700  0.87488100  1
  Fe  Fe3  1  0.32047500  0.66983900  0.38091000  1
  Fe  Fe4  1  0.66100600  0.33365400  0.63655100  1
  Fe  Fe5  1  0.68781300  0.99459700  0.12315300  1
  Fe  Fe6  1  0.82702100  0.15373600  0.38168700  1
  Fe  Fe7  1  0.83416900  0.49207900  0.87984700  1
  B  B0  1  0.16894500  0.50575300  0.62233300  1
  B  B1  1  0.17243400  0.83169200  0.13056000  1
  B  B2  1  0.33580700  0.00143600  0.37231600  1
  B  B3  1  0.32440200  0.66462900  0.87466500  1
  B  B4  1  0.65695300  0.99735600  0.62756200  1
  B  B5  1  0.67468500  0.33186500  0.13301700  1
  B  B6  1  0.82521700  0.49127700  0.37544100  1
  B  B7  1  0.83194200  0.16439200  0.88318400  1
  O  O0  1  0.08741500  0.50071700  0.34989900  1
  O  O1  1  0.08747200  0.14939600  0.89194200  1
  O  O2  1  0.21874800  0.79858000  0.84205900  1
  O  O3  1  0.23302200  0.87196500  0.41826200  1
  O  O4  1  0.18867600  0.12770800  0.36138400  1
  O  O5  1  0.17141400  0.55274600  0.92349400  1
  O  O6  1  0.29667600  0.37741300  0.60743300  1
  O  O7  1  0.30088500  0.95708200  0.08798900  1
  O  O8  1  0.28861900  0.63845100  0.58176400  1
  O  O9  1  0.31609300  0.70940100  0.17735600  1
  O  O10  1  0.41665400  0.32725400  0.14309800  1
  O  O11  1  0.41062900  0.00898500  0.67916700  1
  O  O12  1  0.58858500  0.00648900  0.33340600  1
  O  O13  1  0.58045500  0.63924400  0.85713600  1
  O  O14  1  0.72430000  0.29702800  0.84102100  1
  O  O15  1  0.72155000  0.35782100  0.41489400  1
  O  O16  1  0.67007100  0.61086600  0.35753400  1
  O  O17  1  0.67107600  0.05192900  0.92171700  1
  O  O18  1  0.79641700  0.46018900  0.08563300  1
  O  O19  1  0.78304500  0.86713400  0.62727000  1
  O  O20  1  0.76746200  0.12443700  0.57376400  1
  O  O21  1  0.82338100  0.21142600  0.17248100  1
  O  O22  1  0.91596100  0.82317300  0.13049900  1
  O  O23  1  0.91764700  0.51364000  0.67176200  1
loop_
_geom_bond_atom_site_label_1
_geom_bond_atom_site_label_2
_geom_bond_distance
_geom_bond_site_symmetry_2
Li0 O10 1.931973 1_555
Li0 O21 1.970896 1_455
Li0 O7 2.058216 1_545
Li0 O4 2.231450 1_555
Li1 O6 2.010650 1_555
Li1 O4 2.046432 1_555
Li1 O0 2.081491 1_555
Li1 O15 2.141205 1_555
Li2 O19 1.880227 1_555
Li2 O13 2.000105 1_555
Li2 O23 2.027947 1_555
Li2 O8 2.177363 1_555
Li3 O22 1.889794 1_555
Li3 O9 2.003098 1_555
Li3 O16 2.029668 1_555
Li3 O18 2.120988 1_555
Fe0 O19 1.950560 1_455
Fe0 O11 2.064972 1_565
Fe0 O8 2.115922 1_555
Fe0 O3 2.185371 1_555
Fe0 O2 2.227774 1_555
Fe1 O10 1.971890 1_555
Fe1 O5 2.103310 1_554
Fe1 O18 2.123945 1_455
Fe1 O9 2.137204 1_555
Fe1 O0 2.323152 1_555
Fe2 O1 1.878606 1_565
Fe2 O17 1.934537 1_565
Fe2 O2 1.952457 1_555
Fe2 O11 2.020518 1_565
Fe2 O7 2.189857 1_556
Fe3 O16 1.926859 1_555
Fe3 O3 1.935648 1_555
Fe3 O0 2.010143 1_555
Fe3 O8 2.055010 1_555
Fe3 O9 2.089356 1_555
Fe4 O6 1.984917 1_555
Fe4 O20 2.085716 1_555
Fe4 O14 2.125205 1_555
Fe4 O23 2.171620 1_555
Fe4 O15 2.269909 1_555
Fe5 O22 1.966970 1_555
Fe5 O17 2.104165 1_564
Fe5 O7 2.107678 1_555
Fe5 O21 2.173397 1_565
Fe5 O12 2.185767 1_565
Fe6 O12 1.918800 1_555
Fe6 O4 1.927070 1_655
Fe6 O15 1.968541 1_555
Fe6 O20 1.980432 1_555
Fe6 O21 2.178426 1_555
Fe7 O13 1.902953 1_555
Fe7 O14 1.921455 1_555
Fe7 O5 1.925764 1_655
Fe7 O18 2.107104 1_556
Fe7 O23 2.152054 1_555
B0 O6 1.354067 1_555
B0 O23 1.409643 1_455
B0 O8 1.424699 1_555
B1 O22 1.354958 1_455
B1 O7 1.396224 1_555
B1 O9 1.426073 1_555
B2 O3 1.378409 1_545
B2 O12 1.384232 1_555
B2 O4 1.388411 1_555
B3 O13 1.376429 1_555
B3 O2 1.379243 1_555
B3 O5 1.389301 1_555
B4 O19 1.356704 1_555
B4 O11 1.394971 1_565
B4 O20 1.404354 1_565
B5 O10 1.363368 1_555
B5 O21 1.404225 1_555
B5 O18 1.416744 1_555
B6 O16 1.371115 1_555
B6 O15 1.392104 1_555
B6 O0 1.405170 1_655
B7 O1 1.357218 1_655
B7 O17 1.386397 1_555
B7 O14 1.399422 1_555
