# generated using pymatgen
data_Li4Fe3TeO8
_symmetry_space_group_name_H-M   'P 1'
_cell_length_a   6.11031031
_cell_length_b   6.11031031
_cell_length_c   6.15205142
_cell_angle_alpha   60.93917996
_cell_angle_beta   60.93917996
_cell_angle_gamma   60.14997114
_symmetry_Int_Tables_number   1
_chemical_formula_structural   Li4Fe3TeO8
_chemical_formula_sum   'Li4 Fe3 Te1 O8'
_cell_volume   164.87553439
_cell_formula_units_Z   1
loop_
 _symmetry_equiv_pos_site_id
 _symmetry_equiv_pos_as_xyz
  1  'x, y, z'
loop_
 _atom_site_type_symbol
 _atom_site_label
 _atom_site_symmetry_multiplicity
 _atom_site_fract_x
 _atom_site_fract_y
 _atom_site_fract_z
 _atom_site_occupancy
  Li  Li0  1  0.50000000  0.50000000  0.50000000  1
  Li  Li1  1  0.00000000  0.50000000  0.00000000  1
  Li  Li2  1  0.50000000  0.00000000  0.00000000  1
  Li  Li3  1  0.00000000  0.00000000  0.50000000  1
  Fe  Fe0  1  0.50000000  0.00000000  0.50000000  1
  Fe  Fe1  1  0.00000000  0.50000000  0.50000000  1
  Fe  Fe2  1  0.50000000  0.50000000  0.00000000  1
  Te  Te0  1  0.00000000  0.00000000  0.00000000  1
  O  O0  1  0.74910300  0.74910300  0.72471500  1
  O  O1  1  0.24031500  0.73804500  0.25918100  1
  O  O2  1  0.73804500  0.24031500  0.25918100  1
  O  O3  1  0.25089700  0.25089700  0.27528500  1
  O  O4  1  0.24952000  0.24952000  0.73688600  1
  O  O5  1  0.75968500  0.26195500  0.74081900  1
  O  O6  1  0.26195500  0.75968500  0.74081900  1
  O  O7  1  0.75048000  0.75048000  0.26311400  1
loop_
_geom_bond_atom_site_label_1
_geom_bond_atom_site_label_2
_geom_bond_distance
_geom_bond_site_symmetry_2
Li0 O1 2.172828 1_555
Li0 O5 2.172828 1_555
Li0 O2 2.172828 1_555
Li0 O6 2.172828 1_555
Li0 O4 2.192464 1_555
Li0 O7 2.192464 1_555
Li1 O7 2.230132 1_455
Li1 O4 2.230132 1_554
Li1 O6 2.283243 1_554
Li1 O2 2.283243 1_455
Li1 O3 2.287002 1_555
Li1 O0 2.287002 1_454
Li2 O4 2.230132 1_554
Li2 O7 2.230132 1_545
Li2 O1 2.283243 1_545
Li2 O5 2.283243 1_554
Li2 O0 2.287002 1_544
Li2 O3 2.287002 1_555
Li3 O6 2.182602 1_545
Li3 O5 2.182602 1_455
Li3 O2 2.182602 1_455
Li3 O1 2.182602 1_545
Li3 O3 2.198514 1_555
Li3 O0 2.198514 1_445
Fe0 O3 2.059281 1_555
Fe0 O0 2.059281 1_545
Fe0 O2 2.094287 1_555
Fe0 O6 2.094287 1_545
Fe0 O7 2.111783 1_545
Fe0 O4 2.111783 1_555
Fe1 O3 2.059281 1_555
Fe1 O0 2.059281 1_455
Fe1 O5 2.094287 1_455
Fe1 O1 2.094287 1_555
Fe1 O7 2.111783 1_455
Fe1 O4 2.111783 1_555
Fe2 O1 2.161835 1_555
Fe2 O5 2.161835 1_554
Fe2 O2 2.161835 1_555
Fe2 O6 2.161835 1_554
Fe2 O0 2.190778 1_554
Fe2 O3 2.190778 1_555
O1 Te0 2.171658 1_565
O2 Te0 2.171658 1_655
O4 Te0 2.188190 1_556
O5 Te0 2.171658 1_656
O6 Te0 2.171658 1_566
O7 Te0 2.188190 1_665
