# generated using pymatgen
data_Li10Ti2Fe3Co3O16
_symmetry_space_group_name_H-M   'P 1'
_cell_length_a   5.98625100
_cell_length_b   5.99196035
_cell_length_c   9.87155569
_cell_angle_alpha   90.14984350
_cell_angle_beta   90.31124213
_cell_angle_gamma   119.68132411
_symmetry_Int_Tables_number   1
_chemical_formula_structural   Li10Ti2Fe3Co3O16
_chemical_formula_sum   'Li10 Ti2 Fe3 Co3 O16'
_cell_volume   307.61764589
_cell_formula_units_Z   1
loop_
 _symmetry_equiv_pos_site_id
 _symmetry_equiv_pos_as_xyz
  1  'x, y, z'
loop_
 _atom_site_type_symbol
 _atom_site_label
 _atom_site_symmetry_multiplicity
 _atom_site_fract_x
 _atom_site_fract_y
 _atom_site_fract_z
 _atom_site_occupancy
  Li  Li0  1  0.00032900  0.99829400  0.97025100  1
  Li  Li1  1  0.99222700  0.99981400  0.47337500  1
  Li  Li2  1  0.80388900  0.60349600  0.03947300  1
  Li  Li3  1  0.60169400  0.79931500  0.54129600  1
  Li  Li4  1  0.81233100  0.19514800  0.04062900  1
  Li  Li5  1  0.66955500  0.33020400  0.25424600  1
  Li  Li6  1  0.19263600  0.80639900  0.53804000  1
  Li  Li7  1  0.32970900  0.66463500  0.75337100  1
  Li  Li8  1  0.39196500  0.19458000  0.03784800  1
  Li  Li9  1  0.19661800  0.39081000  0.53792000  1
  Ti  Ti0  1  0.35045000  0.68184900  0.01449100  1
  Ti  Ti1  1  0.68316200  0.34621300  0.51762800  1
  Fe  Fe0  1  0.16965500  0.83604600  0.27307100  1
  Fe  Fe1  1  0.17916000  0.34410000  0.27001300  1
  Fe  Fe2  1  0.34242400  0.17417600  0.77032600  1
  Co  Co0  1  0.66004100  0.83234600  0.27457900  1
  Co  Co1  1  0.83203300  0.66106300  0.77456800  1
  Co  Co2  1  0.83396100  0.17046900  0.77430900  1
  O  O0  1  0.99838200  0.01465900  0.16310300  1
  O  O1  1  0.00491500  0.00054900  0.66521200  1
  O  O2  1  0.81735600  0.65234300  0.41170400  1
  O  O3  1  0.65475800  0.82089700  0.90864800  1
  O  O4  1  0.49314400  0.97827500  0.13781900  1
  O  O5  1  0.97828700  0.48960200  0.63990900  1
  O  O6  1  0.48627300  0.50243900  0.14451400  1
  O  O7  1  0.32999700  0.65519100  0.39203900  1
  O  O8  1  0.50097500  0.48244600  0.64626200  1
  O  O9  1  0.66138300  0.32877000  0.89048400  1
  O  O10  1  0.82659800  0.17916100  0.40492900  1
  O  O11  1  0.18048100  0.83174000  0.90360600  1
  O  O12  1  0.02438800  0.50790300  0.14617900  1
  O  O13  1  0.50193700  0.02081000  0.64465000  1
  O  O14  1  0.33165800  0.17431200  0.39955800  1
  O  O15  1  0.18101900  0.33985300  0.90067000  1
loop_
_geom_bond_atom_site_label_1
_geom_bond_atom_site_label_2
_geom_bond_distance
_geom_bond_site_symmetry_2
Li0 O3 1.893240 1_455
Li0 O0 1.906413 1_466
Li0 O15 1.911397 1_565
Li0 O11 1.913627 1_555
Li1 O1 1.894746 1_665
Li1 O2 1.905066 1_555
Li1 O10 1.909499 1_565
Li1 O14 1.915452 1_665
Li2 O12 1.979080 1_655
Li2 O6 1.985301 1_555
Li2 O9 2.045390 1_554
Li2 O3 2.304281 1_554
Li2 O11 2.395939 1_654
Li2 O0 2.458203 1_565
Li3 O8 1.981284 1_555
Li3 O13 1.985808 1_565
Li3 O7 2.034281 1_555
Li3 O2 2.284030 1_555
Li3 O10 2.409568 1_565
Li3 O1 2.419581 1_665
Li4 O4 1.956394 1_545
Li4 O12 1.956647 1_655
Li4 O9 2.088670 1_554
Li4 O0 2.248740 1_555
Li4 O3 2.343605 1_544
Li4 O15 2.382427 1_654
Li5 O6 2.134610 1_555
Li5 O12 2.138771 1_655
Li5 O4 2.156770 1_545
Li5 O10 2.179436 1_555
Li5 O14 2.277936 1_555
Li5 O2 2.280943 1_555
Li6 O13 1.949952 1_565
Li6 O5 1.967942 1_455
Li6 O7 2.078009 1_555
Li6 O2 2.316052 1_455
Li6 O1 2.344040 1_565
Li6 O14 2.373280 1_565
Li7 O8 2.115414 1_555
Li7 O5 2.136171 1_455
Li7 O13 2.148128 1_565
Li7 O11 2.211899 1_555
Li7 O15 2.237677 1_555
Li7 O3 2.273376 1_555
Li8 O6 1.944813 1_555
Li8 O4 1.948912 1_545
Li8 O9 2.027601 1_554
Li8 O15 2.293962 1_554
Li8 O11 2.307917 1_544
Li8 O0 2.401108 1_455
Li9 O8 1.936458 1_555
Li9 O5 1.962050 1_455
Li9 O7 1.998162 1_555
Li9 O14 2.289794 1_555
Li9 O10 2.327212 1_455
Li9 O1 2.395319 1_555
Fe0 O0 2.110865 1_465
Fe0 O12 2.115004 1_555
Fe0 O7 2.121182 1_555
Fe0 O14 2.152838 1_565
Fe0 O4 2.158362 1_555
Fe0 O2 2.296167 1_455
Fe1 O0 2.010639 1_455
Fe1 O7 2.012598 1_555
Fe1 O6 2.029368 1_555
Fe1 O12 2.051989 1_555
Fe1 O14 2.101822 1_555
Fe1 O10 2.275201 1_455
Fe2 O8 2.025063 1_555
Fe2 O9 2.031927 1_555
Fe2 O1 2.032490 1_555
Fe2 O13 2.042394 1_555
Fe2 O15 2.128714 1_555
Fe2 O11 2.222383 1_545
Co0 O7 2.080643 1_555
Co0 O0 2.084669 1_565
Co0 O4 2.107614 1_555
Co0 O6 2.138697 1_555
Co0 O2 2.209571 1_555
Co0 O10 2.210985 1_565
Co1 O1 2.076786 1_665
Co1 O9 2.080287 1_555
Co1 O5 2.117872 1_555
Co1 O8 2.131259 1_555
Co1 O3 2.193268 1_555
Co1 O11 2.207061 1_655
Co2 O9 2.063945 1_555
Co2 O1 2.069276 1_655
Co2 O5 2.133743 1_555
Co2 O13 2.143376 1_555
Co2 O15 2.186169 1_655
Co2 O3 2.258656 1_545
O2 Ti1 1.913957 1_555
O3 Ti0 1.904320 1_556
O4 Ti0 1.959957 1_555
O5 Ti1 1.945414 1_555
O6 Ti0 2.079833 1_555
O8 Ti1 2.087951 1_555
O10 Ti1 1.957711 1_555
O11 Ti0 1.984476 1_556
O12 Ti0 2.146159 1_555
O13 Ti1 2.117461 1_555
O14 Ti1 2.160477 1_555
O15 Ti0 2.099450 1_556
