# generated using pymatgen
data_Na2CoO3
_symmetry_space_group_name_H-M   'P 1'
_cell_length_a   5.01560981
_cell_length_b   10.71823802
_cell_length_c   6.19014982
_cell_angle_alpha   90.29656017
_cell_angle_beta   89.99947253
_cell_angle_gamma   90.00004988
_symmetry_Int_Tables_number   1
_chemical_formula_structural   Na2CoO3
_chemical_formula_sum   'Na8 Co4 O12'
_cell_volume   332.76871013
_cell_formula_units_Z   4
loop_
 _symmetry_equiv_pos_site_id
 _symmetry_equiv_pos_as_xyz
  1  'x, y, z'
loop_
 _atom_site_type_symbol
 _atom_site_label
 _atom_site_symmetry_multiplicity
 _atom_site_fract_x
 _atom_site_fract_y
 _atom_site_fract_z
 _atom_site_occupancy
  Na  Na0  1  0.51627439  0.75250151  0.91994970  1
  Na  Na1  1  0.51621364  0.25250672  0.41998452  1
  Na  Na2  1  0.01502430  0.58364512  0.09112541  1
  Na  Na3  1  0.01500429  0.08364010  0.59115378  1
  Na  Na4  1  0.51500044  0.41635930  0.90885735  1
  Na  Na5  1  0.51502154  0.91636144  0.40885721  1
  Na  Na6  1  0.01621060  0.24747511  0.08001033  1
  Na  Na7  1  0.01627435  0.74751529  0.58004686  1
  Co  Co0  1  0.05281151  0.91772064  0.08226876  1
  Co  Co1  1  0.55284543  0.58225312  0.41777038  1
  Co  Co2  1  0.05283446  0.41772259  0.58221946  1
  Co  Co3  1  0.55280600  0.08229359  0.91775026  1
  O  O0  1  0.40614488  0.44850731  0.55105697  1
  O  O1  1  0.40616703  0.94850615  0.05106957  1
  O  O2  1  0.90616268  0.05150012  0.94891653  1
  O  O3  1  0.90614102  0.55148163  0.44895395  1
  O  O4  1  0.98388970  0.77820190  0.94504521  1
  O  O5  1  0.98385730  0.27817741  0.44502695  1
  O  O6  1  0.48389995  0.58281663  0.14051537  1
  O  O7  1  0.48387600  0.08283287  0.64051022  1
  O  O8  1  0.98387921  0.41715790  0.85948929  1
  O  O9  1  0.98389516  0.91719874  0.35948113  1
  O  O10  1  0.48386888  0.22180951  0.05497431  1
  O  O11  1  0.48389525  0.72181332  0.55496546  1
loop_
_geom_bond_atom_site_label_1
_geom_bond_atom_site_label_2
_geom_bond_distance
_geom_bond_site_symmetry_2
Na0 O6 2.285598 1_556
Na0 O11 2.287214 1_555
Na0 O1 2.315075 1_556
Na0 O4 2.366509 1_555
Na0 O4 2.688812 1_455
Na1 O7 2.285342 1_555
Na1 O10 2.287374 1_555
Na1 O0 2.314888 1_555
Na1 O5 2.366591 1_555
Na1 O5 2.688620 1_455
Na2 O4 2.282563 1_454
Na2 O8 2.288698 1_454
Na2 O3 2.308949 1_455
Na2 O6 2.371513 1_555
Na2 O6 2.681416 1_455
Na3 O5 2.282492 1_455
Na3 O9 2.288445 1_445
Na3 O2 2.308470 1_455
Na3 O7 2.371465 1_555
Na3 O7 2.681411 1_455
Na4 O10 2.282583 1_556
Na4 O6 2.288517 1_556
Na4 O0 2.308733 1_555
Na4 O8 2.371504 1_555
Na4 O8 2.681390 1_455
Na5 O11 2.282543 1_555
Na5 O7 2.288631 1_565
Na5 O1 2.308651 1_555
Na5 O9 2.371486 1_555
Na5 O9 2.681423 1_455
Na6 O8 2.285401 1_454
Na6 O5 2.287421 1_455
Na6 O2 2.314662 1_454
Na6 O10 2.366653 1_555
Na6 O10 2.688541 1_455
Na7 O9 2.285590 1_455
Na7 O4 2.287297 1_455
Na7 O3 2.315332 1_455
Na7 O11 2.366530 1_555
Na7 O11 2.688784 1_455
Co0 O4 1.750457 1_454
Co0 O9 1.750488 1_455
Co0 O1 1.813244 1_555
Co0 O2 1.814026 1_464
Co1 O11 1.750776 1_555
Co1 O6 1.750785 1_555
Co1 O3 1.812916 1_555
Co1 O0 1.813651 1_555
Co2 O5 1.750660 1_455
Co2 O8 1.750879 1_455
Co2 O0 1.812997 1_555
Co2 O3 1.813696 1_455
Co3 O10 1.750445 1_556
Co3 O7 1.750677 1_555
Co3 O2 1.813247 1_555
Co3 O1 1.813972 1_546
