# generated using pymatgen
data_Li4V2C4SO16
_symmetry_space_group_name_H-M   'P 1'
_cell_length_a   9.64812287
_cell_length_b   9.51096985
_cell_length_c   9.48717733
_cell_angle_alpha   61.04069447
_cell_angle_beta   59.60136946
_cell_angle_gamma   59.35793607
_symmetry_Int_Tables_number   1
_chemical_formula_structural   Li4V2C4SO16
_chemical_formula_sum   'Li8 V4 C8 S2 O32'
_cell_volume   615.27403377
_cell_formula_units_Z   2
loop_
 _symmetry_equiv_pos_site_id
 _symmetry_equiv_pos_as_xyz
  1  'x, y, z'
loop_
 _atom_site_type_symbol
 _atom_site_label
 _atom_site_symmetry_multiplicity
 _atom_site_fract_x
 _atom_site_fract_y
 _atom_site_fract_z
 _atom_site_occupancy
  Li  Li0  1  0.78681700  0.21318300  0.21318300  1
  Li  Li1  1  0.05942700  0.44057300  0.44057300  1
  Li  Li2  1  0.78638800  0.78638800  0.21361200  1
  Li  Li3  1  0.21361200  0.21361200  0.78638800  1
  Li  Li4  1  0.21272000  0.78728000  0.21272000  1
  Li  Li5  1  0.21318300  0.78681700  0.78681700  1
  Li  Li6  1  0.78728000  0.21272000  0.78728000  1
  Li  Li7  1  0.44057300  0.05942700  0.05942700  1
  V  V0  1  0.62276100  0.62438600  0.62728600  1
  V  V1  1  0.62728600  0.12556700  0.62276100  1
  V  V2  1  0.12556700  0.62728600  0.62438600  1
  V  V3  1  0.62438600  0.62276100  0.12556700  1
  C  C0  1  0.77611600  0.40284900  0.40727900  1
  C  C1  1  0.41375600  0.40727900  0.40284900  1
  C  C2  1  0.40727900  0.41375600  0.77611600  1
  C  C3  1  0.40284900  0.77611600  0.41375600  1
  C  C4  1  0.85244400  0.46701900  0.83433800  1
  C  C5  1  0.84619900  0.83433800  0.46701900  1
  C  C6  1  0.83433800  0.84619900  0.85244400  1
  C  C7  1  0.46701900  0.85244400  0.84619900  1
  S  S0  1  0.00000000  0.00000000  0.00000000  1
  S  S1  1  0.25000000  0.25000000  0.25000000  1
  O  O0  1  0.72700200  0.80892400  0.46560700  1
  O  O1  1  0.77180900  0.41621100  0.26885800  1
  O  O2  1  0.54312300  0.26885800  0.41621100  1
  O  O3  1  0.46560700  0.99846700  0.72700200  1
  O  O4  1  0.42580200  0.53715500  0.26354800  1
  O  O5  1  0.06528700  0.06132100  0.80772300  1
  O  O6  1  0.06566900  0.80772300  0.06132100  1
  O  O7  1  0.78165600  0.52914000  0.42217700  1
  O  O8  1  0.26702700  0.42217700  0.52914000  1
  O  O9  1  0.42217700  0.26702700  0.78165600  1
  O  O10  1  0.52914000  0.78165600  0.26702700  1
  O  O11  1  0.06132100  0.06528700  0.06566900  1
  O  O12  1  0.80772300  0.06566900  0.06528700  1
  O  O13  1  0.99554300  0.71405600  0.45913200  1
  O  O14  1  0.83126900  0.45913200  0.71405600  1
  O  O15  1  0.26354800  0.77349500  0.42580200  1
  O  O16  1  0.99846700  0.46560700  0.80892300  1
  O  O17  1  0.26885800  0.54312300  0.77180900  1
  O  O18  1  0.41621100  0.77180900  0.54312300  1
  O  O19  1  0.44259300  0.18128900  0.18088200  1
  O  O20  1  0.19523600  0.18088200  0.18128900  1
  O  O21  1  0.73215900  0.46967400  0.98120400  1
  O  O22  1  0.81696200  0.98120400  0.46967400  1
  O  O23  1  0.46967400  0.73215900  0.81696200  1
  O  O24  1  0.98120400  0.81696200  0.73215900  1
  O  O25  1  0.18128900  0.44259300  0.19523600  1
  O  O26  1  0.18088200  0.19523600  0.44259300  1
  O  O27  1  0.80892300  0.72700200  0.99846700  1
  O  O28  1  0.77349500  0.26354800  0.53715500  1
  O  O29  1  0.71405600  0.99554300  0.83126900  1
  O  O30  1  0.45913200  0.83126900  0.99554200  1
  O  O31  1  0.53715500  0.42580200  0.77349500  1
loop_
_geom_bond_atom_site_label_1
_geom_bond_atom_site_label_2
_geom_bond_distance
_geom_bond_site_symmetry_2
Li0 O2 2.157302 1_555
Li0 O1 2.157306 1_555
Li0 O12 2.304185 1_555
Li0 O11 2.304185 1_655
Li0 O22 2.395184 1_545
Li0 O21 2.395186 1_554
Li1 O25 2.002613 1_555
Li1 O26 2.002613 1_555
Li1 O13 2.424048 1_455
Li1 O14 2.424048 1_455
Li1 O8 2.439688 1_555
Li1 O7 2.439688 1_455
Li2 O0 2.252675 1_555
Li2 O27 2.252679 1_554
Li2 O7 2.288636 1_555
Li2 O10 2.288636 1_555
Li2 O12 2.392218 1_565
Li2 O6 2.392218 1_655
Li3 O16 2.252673 1_455
Li3 O3 2.252675 1_545
Li3 O9 2.288636 1_555
Li3 O8 2.288636 1_555
Li3 O11 2.392218 1_556
Li3 O5 2.392218 1_555
Li4 O15 2.241742 1_555
Li4 O4 2.241742 1_555
Li4 O13 2.300909 1_455
Li4 O30 2.300911 1_554
Li4 O11 2.371607 1_565
Li4 O6 2.371607 1_555
Li5 O17 2.157297 1_555
Li5 O18 2.157300 1_555
Li5 O5 2.304185 1_565
Li5 O6 2.304185 1_556
Li5 O23 2.395181 1_555
Li5 O24 2.395190 1_455
Li6 O31 2.241742 1_555
Li6 O28 2.241742 1_555
Li6 O14 2.300909 1_555
Li6 O29 2.300909 1_545
Li6 O12 2.371607 1_556
Li6 O5 2.371607 1_655
Li7 O19 2.002613 1_555
Li7 O20 2.002613 1_555
Li7 O29 2.424048 1_544
Li7 O30 2.424054 1_544
Li7 O10 2.439688 1_545
Li7 O9 2.439688 1_554
C0 O1 1.276975 1_555
C0 O28 1.302287 1_555
C0 O7 1.305024 1_555
C1 O2 1.276980 1_555
C1 O4 1.302287 1_555
C1 O8 1.305024 1_555
C2 O17 1.276979 1_555
C2 O31 1.302287 1_555
C2 O9 1.305024 1_555
C3 O18 1.276985 1_555
C3 O15 1.302287 1_555
C3 O10 1.305024 1_555
C4 O21 1.287092 1_555
C4 O16 1.297396 1_555
C4 O14 1.297694 1_555
C5 O22 1.287088 1_555
C5 O0 1.297400 1_555
C5 O13 1.297694 1_555
C6 O24 1.287092 1_555
C6 O27 1.297401 1_555
C6 O29 1.297694 1_555
C7 O23 1.287098 1_555
C7 O3 1.297400 1_555
C7 O30 1.297685 1_555
O0 V0 2.018878 1_555
O1 V3 2.062235 1_555
O2 V1 2.062230 1_555
O3 V1 2.018878 1_565
O4 V3 2.016734 1_555
O5 S0 1.498623 1_556
O6 S0 1.498623 1_565
O7 V0 2.056636 1_555
O8 V2 2.056636 1_555
O9 V1 2.056636 1_555
O10 V3 2.056636 1_555
O11 S0 1.498623 1_555
O12 S0 1.498623 1_655
O13 V2 2.096417 1_655
O14 V0 2.096417 1_555
O15 V2 2.016734 1_555
O16 V2 2.018876 1_655
O17 V2 2.062237 1_555
O18 V0 2.062230 1_555
O19 S1 1.501289 1_555
O20 S1 1.501289 1_555
O21 V3 2.005874 1_556
O22 V1 2.005872 1_565
O23 V0 2.005867 1_555
O24 V2 2.005866 1_655
O25 S1 1.501289 1_555
O26 S1 1.501289 1_555
O27 V3 2.018870 1_556
O28 V1 2.016734 1_555
O29 V1 2.096417 1_565
O30 V3 2.096422 1_556
O31 V0 2.016734 1_555
