# generated using pymatgen
data_Li2PWO6
_symmetry_space_group_name_H-M   'P 1'
_cell_length_a   8.45004919
_cell_length_b   8.45004919
_cell_length_c   7.18555170
_cell_angle_alpha   77.41431519
_cell_angle_beta   77.41431519
_cell_angle_gamma   73.50866056
_symmetry_Int_Tables_number   1
_chemical_formula_structural   Li2PWO6
_chemical_formula_sum   'Li8 P4 W4 O24'
_cell_volume   473.42251881
_cell_formula_units_Z   4
loop_
 _symmetry_equiv_pos_site_id
 _symmetry_equiv_pos_as_xyz
  1  'x, y, z'
loop_
 _atom_site_type_symbol
 _atom_site_label
 _atom_site_symmetry_multiplicity
 _atom_site_fract_x
 _atom_site_fract_y
 _atom_site_fract_z
 _atom_site_occupancy
  Li  Li0  1  0.33755100  0.93110900  0.41329600  1
  Li  Li1  1  0.93110900  0.33755100  0.91329600  1
  Li  Li2  1  0.98986000  0.01014000  0.25000000  1
  Li  Li3  1  0.40743200  0.59256800  0.25000000  1
  Li  Li4  1  0.01014000  0.98986000  0.75000000  1
  Li  Li5  1  0.59256800  0.40743200  0.75000000  1
  Li  Li6  1  0.06889100  0.66244900  0.08670400  1
  Li  Li7  1  0.66244900  0.06889100  0.58670400  1
  P  P0  1  0.92715700  0.30275200  0.46086800  1
  P  P1  1  0.30275200  0.92715700  0.96086800  1
  P  P2  1  0.69724800  0.07284300  0.03913200  1
  P  P3  1  0.07284300  0.69724800  0.53913200  1
  W  W0  1  0.71263000  0.72000600  0.37113300  1
  W  W1  1  0.72000600  0.71263000  0.87113300  1
  W  W2  1  0.27999400  0.28737000  0.12886700  1
  W  W3  1  0.28737000  0.27999400  0.62886700  1
  O  O0  1  0.96836700  0.73877400  0.36993600  1
  O  O1  1  0.66010400  0.96635200  0.24312200  1
  O  O2  1  0.73877400  0.96836700  0.86993600  1
  O  O3  1  0.96635200  0.66010400  0.74312200  1
  O  O4  1  0.82399200  0.66903200  0.11172000  1
  O  O5  1  0.78845600  0.46560900  0.49591700  1
  O  O6  1  0.66903200  0.82399200  0.61172000  1
  O  O7  1  0.50297300  0.69696200  0.39613700  1
  O  O8  1  0.46560900  0.78845600  0.99591700  1
  O  O9  1  0.85945100  0.15276900  0.46774800  1
  O  O10  1  0.69696200  0.50297300  0.89613700  1
  O  O11  1  0.15276900  0.85945100  0.96774800  1
  O  O12  1  0.84723100  0.14054900  0.03225200  1
  O  O13  1  0.30303800  0.49702700  0.10386300  1
  O  O14  1  0.14054900  0.84723100  0.53225200  1
  O  O15  1  0.53439100  0.21154400  0.00408300  1
  O  O16  1  0.49702700  0.30303800  0.60386300  1
  O  O17  1  0.33096800  0.17600800  0.38828000  1
  O  O18  1  0.21154400  0.53439100  0.50408300  1
  O  O19  1  0.17600800  0.33096800  0.88828000  1
  O  O20  1  0.03364800  0.33989600  0.25687800  1
  O  O21  1  0.26122600  0.03163300  0.13006400  1
  O  O22  1  0.33989600  0.03364800  0.75687800  1
  O  O23  1  0.03163300  0.26122600  0.63006400  1
loop_
_geom_bond_atom_site_label_1
_geom_bond_atom_site_label_2
_geom_bond_distance
_geom_bond_site_symmetry_2
Li0 O14 1.946759 1_555
Li0 O17 2.023549 1_565
Li0 O7 2.084421 1_555
Li0 O21 2.187934 1_565
Li1 O12 1.946759 1_556
Li1 O19 2.023549 1_655
Li1 O10 2.084421 1_555
Li1 O23 2.187934 1_655
Li2 O9 2.105081 1_555
Li2 O12 2.105081 1_555
Li2 O21 2.311021 1_655
Li2 O0 2.311021 1_545
Li2 O14 2.557982 1_645
Li2 O11 2.557982 1_644
Li3 O13 1.926150 1_555
Li3 O7 1.926150 1_555
Li3 O18 2.251373 1_555
Li3 O8 2.251373 1_554
Li4 O11 2.105081 1_555
Li4 O14 2.105081 1_555
Li4 O23 2.311021 1_565
Li4 O2 2.311021 1_455
Li4 O12 2.557982 1_466
Li4 O9 2.557982 1_465
Li5 O16 1.926150 1_555
Li5 O10 1.926150 1_555
Li5 O5 2.251373 1_555
Li5 O15 2.251373 1_556
Li6 O11 1.946759 1_554
Li6 O4 2.023549 1_455
Li6 O13 2.084421 1_555
Li6 O0 2.187934 1_455
Li7 O9 1.946759 1_555
Li7 O6 2.023549 1_545
Li7 O16 2.084421 1_555
Li7 O2 2.187934 1_545
O0 P3 1.576882 1_655
O0 W0 2.209294 1_555
O1 P2 1.562628 1_565
O1 W0 2.048223 1_555
O2 P2 1.576882 1_566
O2 W1 2.209294 1_555
O3 P3 1.562628 1_655
O3 W1 2.048223 1_555
O4 W0 1.975092 1_555
O4 W1 2.024116 1_554
O5 P0 1.561272 1_555
O5 W0 2.112810 1_555
O6 W1 1.975092 1_555
O6 W0 2.024116 1_555
O7 W0 1.802970 1_555
O8 P1 1.561272 1_555
O8 W1 2.112810 1_555
O9 P0 1.519211 1_555
O10 W1 1.802970 1_555
O11 P1 1.519211 1_555
O12 P2 1.519211 1_555
O13 W2 1.802970 1_555
O14 P3 1.519211 1_555
O15 P2 1.561272 1_555
O15 W2 2.112810 1_555
O16 W3 1.802970 1_555
O17 W2 1.975092 1_555
O17 W3 2.024116 1_555
O18 P3 1.561272 1_555
O18 W3 2.112810 1_555
O19 W3 1.975092 1_555
O19 W2 2.024116 1_556
O20 P0 1.562628 1_455
O20 W2 2.048223 1_555
O21 P1 1.576882 1_544
O21 W2 2.209294 1_555
O22 P1 1.562628 1_545
O22 W3 2.048223 1_555
O23 P0 1.576882 1_455
O23 W3 2.209294 1_555
