# generated using pymatgen
data_SnCS(NCl)2
_symmetry_space_group_name_H-M   'P 1'
_cell_length_a   15.39719700
_cell_length_b   6.01896700
_cell_length_c   8.65030357
_cell_angle_alpha   74.34404950
_cell_angle_beta   90.00000000
_cell_angle_gamma   90.00000000
_symmetry_Int_Tables_number   1
_chemical_formula_structural   SnCS(NCl)2
_chemical_formula_sum   'Sn4 C4 S4 N8 Cl8'
_cell_volume   771.92648053
_cell_formula_units_Z   4
loop_
 _symmetry_equiv_pos_site_id
 _symmetry_equiv_pos_as_xyz
  1  'x, y, z'
loop_
 _atom_site_type_symbol
 _atom_site_label
 _atom_site_symmetry_multiplicity
 _atom_site_fract_x
 _atom_site_fract_y
 _atom_site_fract_z
 _atom_site_occupancy
  Sn  Sn0  1  0.75592700  0.10474800  0.12872000  1
  Sn  Sn1  1  0.25592700  0.89525200  0.37128000  1
  Sn  Sn2  1  0.24407300  0.89525200  0.87128000  1
  Sn  Sn3  1  0.74407300  0.10474800  0.62872000  1
  C  C0  1  0.55127700  0.27184700  0.30261800  1
  C  C1  1  0.05127700  0.72815300  0.19738200  1
  C  C2  1  0.44872300  0.72815300  0.69738200  1
  C  C3  1  0.94872300  0.27184700  0.80261800  1
  S  S0  1  0.60439600  0.04024500  0.38308500  1
  S  S1  1  0.10439600  0.95975500  0.11691500  1
  S  S2  1  0.39560400  0.95975500  0.61691500  1
  S  S3  1  0.89560400  0.04024500  0.88308500  1
  N  N0  1  0.48185400  0.38513500  0.21035600  1
  N  N1  1  0.98185400  0.61486500  0.28964400  1
  N  N2  1  0.51814600  0.61486500  0.78964400  1
  N  N3  1  0.01814600  0.38513500  0.71035600  1
  N  N4  1  0.53684100  0.50893500  0.26629300  1
  N  N5  1  0.03684100  0.49106500  0.23370700  1
  N  N6  1  0.46315900  0.49106500  0.73370700  1
  N  N7  1  0.96315900  0.50893500  0.76629300  1
  Cl  Cl0  1  0.63773900  0.11072300  0.91826400  1
  Cl  Cl1  1  0.13773900  0.88927700  0.58173600  1
  Cl  Cl2  1  0.36226100  0.88927700  0.08173600  1
  Cl  Cl3  1  0.86226100  0.11072300  0.41826400  1
  Cl  Cl4  1  0.76366000  0.53025200  0.05325500  1
  Cl  Cl5  1  0.26366000  0.46974800  0.44674500  1
  Cl  Cl6  1  0.23634000  0.46974800  0.94674500  1
  Cl  Cl7  1  0.73634000  0.53025200  0.55325500  1
loop_
_geom_bond_atom_site_label_1
_geom_bond_atom_site_label_2
_geom_bond_distance
_geom_bond_site_symmetry_2
C0 N4 1.393746 1_555
C0 N0 1.396704 1_555
C0 S0 1.604054 1_555
C1 N5 1.393746 1_555
C1 N1 1.396704 1_455
C1 S1 1.604054 1_555
C2 N6 1.393746 1_555
C2 N2 1.396704 1_555
C2 S2 1.604054 1_555
C3 N7 1.393746 1_555
C3 N3 1.396704 1_655
C3 S3 1.604054 1_555
S0 Sn3 3.120264 1_555
S0 Sn0 3.158282 1_555
S1 Sn2 3.120264 1_554
S1 Sn1 3.158282 1_555
S2 Sn1 3.120264 1_555
S2 Sn2 3.158282 1_555
S3 Sn0 3.120264 1_556
S3 Sn3 3.158282 1_555
N0 N4 1.304142 1_555
N1 N5 1.304142 1_655
N2 N6 1.304142 1_555
N3 N7 1.304142 1_455
Cl0 Sn0 2.567440 1_556
Cl0 Sn3 3.000620 1_555
Cl1 Sn1 2.567440 1_555
Cl1 Sn2 3.000620 1_555
Cl2 Sn2 2.567440 1_554
Cl2 Sn1 3.000620 1_555
Cl3 Sn3 2.567440 1_555
Cl3 Sn0 3.000620 1_555
Cl4 Sn0 2.469247 1_555
Cl5 Sn1 2.469247 1_555
Cl6 Sn2 2.469247 1_555
Cl7 Sn3 2.469247 1_555
