# generated using pymatgen
data_Cr4H67C20(NO)16
_symmetry_space_group_name_H-M   'P 1'
_cell_length_a   10.88481600
_cell_length_b   10.89104980
_cell_length_c   10.90298551
_cell_angle_alpha   90.03718744
_cell_angle_beta   90.08909422
_cell_angle_gamma   90.14689785
_symmetry_Int_Tables_number   1
_chemical_formula_structural   Cr4H67C20(NO)16
_chemical_formula_sum   'Cr4 H67 C20 N16 O16'
_cell_volume   1292.51093318
_cell_formula_units_Z   1
loop_
 _symmetry_equiv_pos_site_id
 _symmetry_equiv_pos_as_xyz
  1  'x, y, z'
loop_
 _atom_site_type_symbol
 _atom_site_label
 _atom_site_symmetry_multiplicity
 _atom_site_fract_x
 _atom_site_fract_y
 _atom_site_fract_z
 _atom_site_occupancy
  Cr  Cr0  1  0.50237300  0.49768300  0.50182500  1
  Cr  Cr1  1  0.99762000  0.99765600  0.49774700  1
  Cr  Cr2  1  0.00204900  0.50218400  0.99770400  1
  Cr  Cr3  1  0.49751400  0.00253900  0.00237000  1
  H  H0  1  0.05494600  0.43611100  0.59752700  1
  H  H1  1  0.20854200  0.38720900  0.56173000  1
  H  H2  1  0.08112700  0.27879800  0.55232000  1
  H  H3  1  0.64350700  0.26995600  0.49914400  1
  H  H4  1  0.14017700  0.23130000  0.33221700  1
  H  H5  1  0.76453200  0.16171100  0.49945100  1
  H  H6  1  0.44512100  0.93622400  0.40253600  1
  H  H7  1  0.29137400  0.88701500  0.43820200  1
  H  H8  1  0.41852700  0.77886600  0.44763900  1
  H  H9  1  0.85677200  0.77003100  0.50084900  1
  H  H10  1  0.35947200  0.73138000  0.66785200  1
  H  H11  1  0.43958900  0.71076500  0.11408900  1
  H  H12  1  0.73562800  0.66161400  0.50066600  1
  H  H13  1  0.65584600  0.64625900  0.26515400  1
  H  H14  1  0.44945200  0.58213600  0.22252300  1
  H  H15  1  0.40567900  0.55743800  0.06502700  1
  H  H16  1  0.50062800  0.26395100  0.33832700  1
  H  H17  1  0.06035300  0.20997300  0.88642100  1
  H  H18  1  0.73131800  0.16749300  0.85955500  1
  H  H19  1  0.85119200  0.15779500  0.72998500  1
  H  H20  1  0.50035900  0.14317300  0.22928000  1
  H  H21  1  0.43498600  0.09582400  0.55674400  1
  H  H22  1  0.05141000  0.08213800  0.77832300  1
  H  H23  1  0.09574100  0.05670600  0.93493500  1
  H  H24  1  0.38641600  0.06020200  0.70983200  1
  H  H25  1  0.27814100  0.05143300  0.58204900  1
  H  H26  1  0.77012800  0.00057600  0.35649600  1
  H  H27  1  0.66172400  0.99956000  0.23525200  1
  H  H28  1  0.16181800  0.99934100  0.26402400  1
  H  H29  1  0.27042300  0.99962300  0.14328800  1
  H  H30  1  0.77869400  0.94715900  0.91897300  1
  H  H31  1  0.88687600  0.93828500  0.79166800  1
  H  H32  1  0.93594200  0.90238800  0.94526600  1
  H  H33  1  0.00055900  0.85663500  0.26950700  1
  H  H34  1  0.22971100  0.85113900  0.65795300  1
  H  H35  1  0.99875300  0.73564200  0.16110100  1
  H  H36  1  0.99957800  0.76442900  0.66195100  1
  H  H37  1  0.99961800  0.64346800  0.77082400  1
  H  H38  1  0.06518600  0.59573100  0.44326100  1
  H  H39  1  0.11354800  0.56020700  0.29018200  1
  H  H40  1  0.22196100  0.55184600  0.41794100  1
  H  H41  1  0.72979700  0.50047300  0.64357400  1
  H  H42  1  0.83843900  0.49965900  0.76473400  1
  H  H43  1  0.33818600  0.49923600  0.73606000  1
  H  H44  1  0.22939700  0.49943300  0.85670700  1
  H  H45  1  0.72339700  0.44848600  0.08225500  1
  H  H46  1  0.61389300  0.43972100  0.20994500  1
  H  H47  1  0.90437900  0.44385400  0.43439800  1
  H  H48  1  0.94894800  0.41789200  0.27762300  1
  H  H49  1  0.56585900  0.40552700  0.05609900  1
  H  H50  1  0.49892800  0.35662200  0.73021000  1
  H  H51  1  0.27011200  0.35135500  0.34219100  1
  H  H52  1  0.93879000  0.29058200  0.38615800  1
  H  H53  1  0.49898600  0.23518700  0.83837100  1
  H  H54  1  0.59584400  0.94404200  0.56565400  1
  H  H55  1  0.55116900  0.91796500  0.72238900  1
  H  H56  1  0.26412900  0.83861800  0.99960700  1
  H  H57  1  0.56083600  0.79080900  0.61378400  1
  H  H58  1  0.14315600  0.72945800  0.00028200  1
  H  H59  1  0.58226600  0.72184700  0.94747400  1
  H  H60  1  0.70936000  0.61399600  0.93826600  1
  H  H61  1  0.55546300  0.56438200  0.90296900  1
  H  H62  1  0.23533000  0.33826000  0.00027000  1
  H  H63  1  0.35633200  0.22965500  0.99947100  1
  H  H64  1  0.91816700  0.22239600  0.05112700  1
  H  H65  1  0.79072800  0.11341800  0.06088100  1
  H  H66  1  0.94390000  0.06551400  0.09576600  1
  C  C0  1  0.11082900  0.37437700  0.54137100  1
  C  C1  1  0.38904600  0.87436900  0.45860000  1
  C  C2  1  0.46134600  0.61350400  0.12771900  1
  C  C3  1  0.63726700  0.13670800  0.36236100  1
  C  C4  1  0.03923800  0.11245500  0.87333200  1
  C  C5  1  0.37327900  0.03921800  0.61240700  1
  C  C6  1  0.87415400  0.95843300  0.88924400  1
  C  C7  1  0.13715200  0.86213200  0.13704500  1
  C  C8  1  0.32655500  0.82550700  0.66099100  1
  C  C9  1  0.86302300  0.63684700  0.63771500  1
  C  C10  1  0.12682000  0.53929200  0.38758700  1
  C  C11  1  0.62829400  0.46090800  0.11275900  1
  C  C12  1  0.96058200  0.38780600  0.37287500  1
  C  C13  1  0.17318500  0.32559000  0.33895500  1
  C  C14  1  0.53934100  0.88800900  0.62709600  1
  C  C15  1  0.67293400  0.67181300  0.16799600  1
  C  C16  1  0.61185300  0.62647400  0.95880000  1
  C  C17  1  0.36264500  0.36269700  0.86311500  1
  C  C18  1  0.82556100  0.16098500  0.82673000  1
  C  C19  1  0.88797600  0.12702300  0.03930500  1
  N  N0  1  0.68169200  0.19108300  0.46401700  1
  N  N1  1  0.81846700  0.69117500  0.53618600  1
  N  N2  1  0.53601400  0.18135100  0.30832900  1
  N  N3  1  0.69097500  0.03581800  0.31812600  1
  N  N4  1  0.19158900  0.96404500  0.18156500  1
  N  N5  1  0.40733500  0.90720400  0.59185200  1
  N  N6  1  0.03638900  0.81767300  0.19118200  1
  N  N7  1  0.96446400  0.68142800  0.69137100  1
  N  N8  1  0.80893000  0.53576500  0.68192600  1
  N  N9  1  0.30850800  0.46404700  0.81873900  1
  N  N10  1  0.09263000  0.40717700  0.40813600  1
  N  N11  1  0.46371300  0.31840100  0.80937000  1
  N  N12  1  0.18180200  0.80835500  0.03602200  1
  N  N13  1  0.59414800  0.59393500  0.09150200  1
  N  N14  1  0.31824100  0.30886100  0.96456800  1
  N  N15  1  0.90717600  0.09184400  0.90743600  1
  O  O0  1  0.91893100  0.12183500  0.54001700  1
  O  O1  1  0.58135500  0.62176600  0.45870800  1
  O  O2  1  0.45964200  0.41884300  0.37775700  1
  O  O3  1  0.59130800  0.40871800  0.59099200  1
  O  O4  1  0.12154500  0.04007300  0.41887300  1
  O  O5  1  0.62149600  0.96142800  0.08119900  1
  O  O6  1  0.04023200  0.91897300  0.62166800  1
  O  O7  1  0.90828100  0.90846600  0.40879200  1
  O  O8  1  0.09170200  0.59181300  0.90829100  1
  O  O9  1  0.95989900  0.57998700  0.12232800  1
  O  O10  1  0.37884500  0.54002700  0.58083300  1
  O  O11  1  0.87766800  0.46031500  0.91908600  1
  O  O12  1  0.40824000  0.09182100  0.09180400  1
  O  O13  1  0.53978400  0.08186500  0.87833400  1
  O  O14  1  0.41931100  0.87793100  0.96078200  1
  O  O15  1  0.08081000  0.37824500  0.03902500  1
loop_
_geom_bond_atom_site_label_1
_geom_bond_atom_site_label_2
_geom_bond_distance
_geom_bond_site_symmetry_2
Cr0 O10 1.663998 1_555
Cr0 O2 1.666713 1_555
Cr0 O1 1.668077 1_555
Cr0 O3 1.680526 1_555
Cr1 O4 1.665355 1_665
Cr1 O6 1.666303 1_655
Cr1 O0 1.667774 1_565
Cr1 O7 1.679542 1_555
Cr2 O15 1.662974 1_556
Cr2 O11 1.663834 1_455
Cr2 O9 1.666496 1_456
Cr2 O8 1.689630 1_555
Cr3 O5 1.661434 1_545
Cr3 O14 1.662533 1_544
Cr3 O13 1.669847 1_554
Cr3 O12 1.687350 1_555
H3 N0 1.029190 1_555
H5 N0 1.032086 1_555
H9 N1 1.029055 1_555
H12 N1 1.031473 1_555
H16 N2 1.032665 1_555
H20 N2 1.031502 1_555
H26 N3 1.032189 1_555
H27 N3 1.035255 1_565
H28 N4 1.030615 1_555
H29 N4 1.029686 1_555
H33 N6 1.030948 1_555
H35 N6 1.034835 1_655
H36 N7 1.032046 1_555
H37 N7 1.033448 1_555
H41 N8 1.030283 1_555
H42 N8 1.035931 1_555
H43 N9 1.031775 1_555
H44 N9 1.031506 1_555
H50 N11 1.032370 1_555
H53 N11 1.034663 1_555
H56 N12 1.033949 1_556
H58 N12 1.031671 1_555
H62 N14 1.034847 1_554
H63 N14 1.030840 1_555
C0 H1 1.094754 1_555
C0 H0 1.095283 1_555
C0 H2 1.095864 1_555
C0 N10 1.509043 1_555
C1 H7 1.094877 1_555
C1 H6 1.095264 1_555
C1 H8 1.095806 1_555
C1 N5 1.508752 1_555
C2 H11 1.096181 1_555
C2 H14 1.096606 1_555
C2 H15 1.097035 1_555
C2 N13 1.514641 1_555
C3 N3 1.336116 1_555
C3 N2 1.341350 1_555
C3 N0 1.344987 1_555
C4 H23 1.095074 1_555
C4 H17 1.095280 1_555
C4 H22 1.095369 1_555
C4 N15 1.501695 1_455
C5 H21 1.095061 1_555
C5 H25 1.095142 1_555
C5 H24 1.095463 1_555
C5 N5 1.502464 1_545
C6 H32 1.095124 1_555
C6 H31 1.095197 1_555
C6 H30 1.095555 1_555
C6 N15 1.508785 1_565
C7 N6 1.336210 1_555
C7 N12 1.339671 1_555
C7 N4 1.346742 1_555
C8 H10 1.089398 1_555
C8 H34 1.091617 1_555
C8 N5 1.460129 1_555
C9 N8 1.337623 1_555
C9 N7 1.338670 1_555
C9 N1 1.345860 1_555
C10 H40 1.094907 1_555
C10 H38 1.095110 1_555
C10 H39 1.095727 1_555
C10 N10 1.502323 1_555
C11 H46 1.096017 1_555
C11 H45 1.096467 1_555
C11 H49 1.096990 1_555
C11 N13 1.514535 1_555
C12 H52 1.094288 1_555
C12 H47 1.095206 1_555
C12 H48 1.096447 1_555
C12 N10 1.501604 1_655
C13 H4 1.089482 1_555
C13 H51 1.091528 1_555
C13 N10 1.460307 1_555
C14 H57 1.094367 1_555
C14 H54 1.095137 1_555
C14 H55 1.096093 1_555
C14 N5 1.501952 1_555
C15 H13 1.111272 1_555
C15 N13 1.464080 1_555
C16 H60 1.093840 1_555
C16 H59 1.095283 1_555
C16 H61 1.095799 1_555
C16 N13 1.502424 1_556
C17 N11 1.338173 1_555
C17 N14 1.342382 1_555
C17 N9 1.342709 1_555
C18 H18 1.089446 1_555
C18 H19 1.092054 1_555
C18 N15 1.460265 1_555
C19 H65 1.094435 1_555
C19 H66 1.095318 1_555
C19 H64 1.096118 1_555
C19 N15 1.502754 1_554
