# generated using pymatgen
data_Fe4OF7
_symmetry_space_group_name_H-M   'P 1'
_cell_length_a   5.79409144
_cell_length_b   10.15029733
_cell_length_c   5.80612216
_cell_angle_alpha   79.69669379
_cell_angle_beta   68.33713627
_cell_angle_gamma   100.32255721
_symmetry_Int_Tables_number   1
_chemical_formula_structural   Fe4OF7
_chemical_formula_sum   'Fe8 O2 F14'
_cell_volume   300.79667392
_cell_formula_units_Z   2
loop_
 _symmetry_equiv_pos_site_id
 _symmetry_equiv_pos_as_xyz
  1  'x, y, z'
loop_
 _atom_site_type_symbol
 _atom_site_label
 _atom_site_symmetry_multiplicity
 _atom_site_fract_x
 _atom_site_fract_y
 _atom_site_fract_z
 _atom_site_occupancy
  Fe  Fe0  1  0.63478200  0.25552800  0.83976200  1
  Fe  Fe1  1  0.86886300  0.75070400  0.62489600  1
  Fe  Fe2  1  0.24506900  0.50215000  0.74996900  1
  Fe  Fe3  1  0.75431800  0.49448600  0.26181300  1
  Fe  Fe4  1  0.50479200  0.99467600  0.47075500  1
  Fe  Fe5  1  0.38572700  0.75487600  0.13164200  1
  Fe  Fe6  1  0.11681100  0.25774100  0.37586800  1
  Fe  Fe7  1  0.98259900  0.99147000  0.00973700  1
  O  O0  1  0.80542900  0.34131000  0.49534700  1
  O  O1  1  0.58948600  0.90492000  0.21800100  1
  F  F0  1  0.84333300  0.39199600  0.95120700  1
  F  F1  1  0.91002600  0.15054400  0.79348100  1
  F  F2  1  0.57231600  0.85857400  0.72098000  1
  F  F3  1  0.33848500  0.34453000  0.95983300  1
  F  F4  1  0.89199400  0.09664300  0.31831100  1
  F  F5  1  0.64183100  0.60430500  0.55178400  1
  F  F6  1  0.39947300  0.09578400  0.78954000  1
  F  F7  1  0.11659500  0.90909000  0.67838500  1
  F  F8  1  0.34456500  0.40274400  0.44889100  1
  F  F9  1  0.68299700  0.64726100  0.02334800  1
  F  F10  1  0.16567300  0.65002900  0.53275600  1
  F  F11  1  0.43817500  0.15531900  0.25550000  1
  F  F12  1  0.07284500  0.84941900  0.22632600  1
  F  F13  1  0.15950600  0.60123300  0.05077000  1
loop_
_geom_bond_atom_site_label_1
_geom_bond_atom_site_label_2
_geom_bond_distance
_geom_bond_site_symmetry_2
Fe0 O0 1.828520 1_555
Fe3 O0 2.012690 1_555
Fe4 O1 1.825171 1_555
Fe5 O1 2.007625 1_555
Fe6 O0 2.071411 1_455
Fe7 O1 2.071586 1_555
F0 Fe0 2.023762 1_555
F0 Fe2 2.150704 1_655
F0 Fe3 2.185692 1_556
F1 Fe0 2.036219 1_555
F1 Fe7 2.066000 1_546
F1 Fe6 2.223259 1_655
F2 Fe4 2.016846 1_555
F2 Fe1 2.155777 1_555
F2 Fe5 2.180169 1_556
F3 Fe0 2.036404 1_555
F3 Fe2 2.106477 1_555
F3 Fe6 2.191654 1_556
F4 Fe6 2.058114 1_655
F4 Fe4 2.064451 1_545
F4 Fe7 2.194483 1_545
F5 Fe1 2.013986 1_555
F5 Fe2 2.109504 1_555
F5 Fe3 2.150219 1_555
F6 Fe0 2.059945 1_555
F6 Fe7 2.215659 1_446
F6 Fe4 2.218452 1_545
F7 Fe4 2.047025 1_555
F7 Fe1 2.102872 1_455
F7 Fe7 2.169935 1_456
F8 Fe6 2.006906 1_555
F8 Fe2 2.121711 1_555
F8 Fe3 2.150701 1_555
F9 Fe3 2.092010 1_555
F9 Fe1 2.121501 1_554
F9 Fe5 2.162315 1_555
F10 Fe2 2.013415 1_555
F10 Fe1 2.105726 1_455
F10 Fe5 2.148704 1_555
F11 Fe4 2.054865 1_545
F11 Fe0 2.198910 1_554
F11 Fe6 2.242590 1_555
F12 Fe7 2.010185 1_455
F12 Fe1 2.117305 1_455
F12 Fe5 2.141498 1_555
F13 Fe5 2.086721 1_555
F13 Fe2 2.115477 1_554
F13 Fe3 2.162573 1_455
