# generated using pymatgen
data_LiFe2O2F3
_symmetry_space_group_name_H-M   'P 1'
_cell_length_a   3.17614300
_cell_length_b   8.16463100
_cell_length_c   8.33058400
_cell_angle_alpha   90.00000000
_cell_angle_beta   90.00000000
_cell_angle_gamma   90.00000000
_symmetry_Int_Tables_number   1
_chemical_formula_structural   LiFe2O2F3
_chemical_formula_sum   'Li2 Fe4 O4 F6'
_cell_volume   216.02900084
_cell_formula_units_Z   2
loop_
 _symmetry_equiv_pos_site_id
 _symmetry_equiv_pos_as_xyz
  1  'x, y, z'
loop_
 _atom_site_type_symbol
 _atom_site_label
 _atom_site_symmetry_multiplicity
 _atom_site_fract_x
 _atom_site_fract_y
 _atom_site_fract_z
 _atom_site_occupancy
  Li  Li0  1  0.00000000  0.39611400  0.17220600  1
  Li  Li1  1  0.00000000  0.60388600  0.67220600  1
  Fe  Fe0  1  0.50000000  0.75805100  0.99155100  1
  Fe  Fe1  1  0.00000000  0.89901500  0.32983400  1
  Fe  Fe2  1  0.00000000  0.10098500  0.82983400  1
  Fe  Fe3  1  0.50000000  0.24194900  0.49155100  1
  O  O0  1  0.50000000  0.86566100  0.20931500  1
  O  O1  1  0.00000000  0.88543600  0.91678800  1
  O  O2  1  0.00000000  0.11456400  0.41678800  1
  O  O3  1  0.50000000  0.13433900  0.70931500  1
  F  F0  1  0.00000000  0.75525400  0.50342900  1
  F  F1  1  0.00000000  0.24474600  0.00342900  1
  F  F2  1  0.50000000  0.38007900  0.29879700  1
  F  F3  1  0.00000000  0.38732400  0.57828000  1
  F  F4  1  0.00000000  0.61267600  0.07828000  1
  F  F5  1  0.50000000  0.61992100  0.79879700  1
loop_
_geom_bond_atom_site_label_1
_geom_bond_atom_site_label_2
_geom_bond_distance
_geom_bond_site_symmetry_2
Fe0 O1 1.997894 1_555
Fe0 O1 1.997894 1_655
Fe0 O0 2.015662 1_556
Fe1 O0 1.898456 1_455
Fe1 O0 1.898456 1_555
Fe1 O2 1.903127 1_565
Fe2 O3 1.898456 1_455
Fe2 O3 1.898456 1_555
Fe2 O1 1.903127 1_545
Fe3 O2 1.997894 1_555
Fe3 O2 1.997894 1_655
Fe3 O3 2.015662 1_555
F0 Fe1 1.862537 1_555
F0 Li1 1.871958 1_555
F1 Fe2 1.862537 1_554
F1 Li0 1.871958 1_555
F2 Li0 1.910823 1_655
F2 Li0 1.910823 1_555
F2 Fe3 1.962226 1_555
F3 Li1 1.933544 1_555
F3 Fe3 2.110164 1_455
F3 Fe3 2.110164 1_555
F4 Li0 1.933544 1_555
F4 Fe0 2.110164 1_454
F4 Fe0 2.110164 1_554
F5 Li1 1.910823 1_555
F5 Li1 1.910823 1_655
F5 Fe0 1.962226 1_555
