# generated using pymatgen
data_Ga2NiO4
_symmetry_space_group_name_H-M   'P 1'
_cell_length_a   5.93513006
_cell_length_b   5.93513006
_cell_length_c   5.93513056
_cell_angle_alpha   59.85519605
_cell_angle_beta   59.85519605
_cell_angle_gamma   59.85520671
_symmetry_Int_Tables_number   1
_chemical_formula_structural   Ga2NiO4
_chemical_formula_sum   'Ga4 Ni2 O8'
_cell_volume   147.34870863
_cell_formula_units_Z   2
loop_
 _symmetry_equiv_pos_site_id
 _symmetry_equiv_pos_as_xyz
  1  'x, y, z'
loop_
 _atom_site_type_symbol
 _atom_site_label
 _atom_site_symmetry_multiplicity
 _atom_site_fract_x
 _atom_site_fract_y
 _atom_site_fract_z
 _atom_site_occupancy
  Ga  Ga0  1  0.62735300  0.62735300  0.11730200  1
  Ga  Ga1  1  0.62735300  0.11730200  0.62735300  1
  Ga  Ga2  1  0.24583600  0.24583600  0.24583600  1
  Ga  Ga3  1  0.11730200  0.62735300  0.62735300  1
  Ni  Ni0  1  0.00209600  0.00209600  0.00209600  1
  Ni  Ni1  1  0.62679400  0.62679400  0.62679400  1
  O  O0  1  0.85215900  0.37872700  0.37872700  1
  O  O1  1  0.38020500  0.38020500  0.38020500  1
  O  O2  1  0.87097300  0.87097300  0.40657400  1
  O  O3  1  0.86492400  0.86492400  0.86492400  1
  O  O4  1  0.87097300  0.40657400  0.87097300  1
  O  O5  1  0.40657400  0.87097300  0.87097300  1
  O  O6  1  0.37872700  0.85215900  0.37872700  1
  O  O7  1  0.37872700  0.37872700  0.85215900  1
loop_
_geom_bond_atom_site_label_1
_geom_bond_atom_site_label_2
_geom_bond_distance
_geom_bond_site_symmetry_2
Ga0 O5 1.960387 1_554
Ga0 O4 1.960387 1_554
Ga0 O3 1.993546 1_554
Ga0 O6 2.041410 1_555
Ga0 O0 2.041410 1_555
Ga0 O1 2.073997 1_555
Ga1 O5 1.960387 1_545
Ga1 O2 1.960387 1_545
Ga1 O3 1.993546 1_545
Ga1 O0 2.041410 1_555
Ga1 O7 2.041410 1_555
Ga1 O1 2.073997 1_555
Ga2 O7 1.904326 1_554
Ga2 O0 1.904326 1_455
Ga2 O6 1.904326 1_545
Ga2 O1 1.955597 1_555
Ga3 O4 1.960387 1_455
Ga3 O2 1.960387 1_455
Ga3 O3 1.993546 1_455
Ga3 O6 2.041410 1_555
Ga3 O7 2.041410 1_555
Ga3 O1 2.073997 1_555
Ni0 O2 1.956980 1_445
Ni0 O4 1.956980 1_454
Ni0 O5 1.956980 1_544
Ni0 O3 1.996392 1_444
Ni1 O2 2.052656 1_555
Ni1 O4 2.052656 1_555
Ni1 O5 2.052656 1_555
Ni1 O7 2.084658 1_555
Ni1 O6 2.084659 1_555
Ni1 O0 2.084659 1_555
