# generated using pymatgen
data_La11V12O36
_symmetry_space_group_name_H-M   'P 1'
_cell_length_a   7.90969900
_cell_length_b   9.66335294
_cell_length_c   11.15629645
_cell_angle_alpha   106.62456282
_cell_angle_beta   89.89033145
_cell_angle_gamma   113.86563820
_symmetry_Int_Tables_number   1
_chemical_formula_structural   La11V12O36
_chemical_formula_sum   'La11 V12 O36'
_cell_volume   740.88360399
_cell_formula_units_Z   1
loop_
 _symmetry_equiv_pos_site_id
 _symmetry_equiv_pos_as_xyz
  1  'x, y, z'
loop_
 _atom_site_type_symbol
 _atom_site_label
 _atom_site_symmetry_multiplicity
 _atom_site_fract_x
 _atom_site_fract_y
 _atom_site_fract_z
 _atom_site_occupancy
  La  La0  1  0.94089700  0.84244600  0.59240100  1
  La  La1  1  0.60356500  0.17400200  0.92531400  1
  La  La2  1  0.72935700  0.49566300  0.74583300  1
  La  La3  1  0.09700800  0.18140900  0.93166400  1
  La  La4  1  0.76986900  0.51587500  0.25820000  1
  La  La5  1  0.43702700  0.84609000  0.59760600  1
  La  La6  1  0.57198600  0.15468900  0.40333000  1
  La  La7  1  0.23578900  0.49061200  0.73991600  1
  La  La8  1  0.26741700  0.50862100  0.25579200  1
  La  La9  1  0.06559100  0.15645400  0.40648200  1
  La  La10  1  0.38712700  0.82220000  0.07708500  1
  V  V0  1  0.67033500  0.83408700  0.83764700  1
  V  V1  1  0.83481800  0.16830600  0.66752500  1
  V  V2  1  0.83057000  0.15515400  0.16602900  1
  V  V3  1  0.33501000  0.16712700  0.66645000  1
  V  V4  1  0.16121100  0.83733300  0.84053300  1
  V  V5  1  0.50088700  0.49925800  0.49769400  1
  V  V6  1  0.66956300  0.83321700  0.32990700  1
  V  V7  1  0.50656600  0.50689000  0.00002200  1
  V  V8  1  0.33221300  0.16487100  0.16538100  1
  V  V9  1  0.00089300  0.50100200  0.50062300  1
  V  V10  1  0.16652400  0.83307700  0.33157800  1
  V  V11  1  0.99599200  0.50576500  0.00346400  1
  O  O0  1  0.93639800  0.30899300  0.84890300  1
  O  O1  1  0.78931700  0.03704600  0.98503000  1
  O  O2  1  0.89793500  0.78427200  0.81094700  1
  O  O3  1  0.73687500  0.48446300  0.96208600  1
  O  O4  1  0.90385600  0.37401700  0.61893800  1
  O  O5  1  0.54566300  0.67803200  0.94030300  1
  O  O6  1  0.76582700  0.96558400  0.72011700  1
  O  O7  1  0.43763800  0.87899100  0.84140000  1
  O  O8  1  0.58050400  0.15572800  0.70227600  1
  O  O9  1  0.91321800  0.82772600  0.36919600  1
  O  O10  1  0.77585100  0.55036800  0.50459100  1
  O  O11  1  0.39798000  0.36105600  0.82078200  1
  O  O12  1  0.53793300  0.63782900  0.68180700  1
  O  O13  1  0.73499200  0.03107700  0.48764800  1
  O  O14  1  0.86928500  0.30217900  0.34281200  1
  O  O15  1  0.12082700  0.65042600  0.89510200  1
  O  O16  1  0.78081700  0.99336800  0.23459200  1
  O  O17  1  0.45561100  0.31115800  0.56232600  1
  O  O18  1  0.54752800  0.68972300  0.43608700  1
  O  O19  1  0.21174700  0.02228800  0.77256700  1
  O  O20  1  0.87569300  0.34418300  0.10606900  1
  O  O21  1  0.58142900  0.62665600  0.17915900  1
  O  O22  1  0.46239000  0.36016400  0.31493300  1
  O  O23  1  0.26868900  0.97006300  0.51428100  1
  O  O24  1  0.13556500  0.70386700  0.66039500  1
  O  O25  1  0.56004300  0.11309600  0.15610300  1
  O  O26  1  0.42367500  0.84222500  0.29778900  1
  O  O27  1  0.08809000  0.17796600  0.63087800  1
  O  O28  1  0.22486300  0.44970200  0.49219700  1
  O  O29  1  0.25114800  0.03985800  0.28649300  1
  O  O30  1  0.42943300  0.30840500  0.05058900  1
  O  O31  1  0.09738700  0.63338500  0.38724800  1
  O  O32  1  0.10367400  0.21634500  0.17407400  1
  O  O33  1  0.24614400  0.48936000  0.03126700  1
  O  O34  1  0.22341400  0.97873600  0.00434900  1
  O  O35  1  0.07561200  0.68054400  0.15921900  1
loop_
_geom_bond_atom_site_label_1
_geom_bond_atom_site_label_2
_geom_bond_distance
_geom_bond_site_symmetry_2
La0 O6 2.391500 1_555
La0 O9 2.458288 1_555
La0 O10 2.464022 1_555
La0 O19 2.579713 1_665
La0 O24 2.644581 1_655
La0 O2 2.646254 1_555
La0 O23 2.649850 1_655
La0 O27 2.864080 1_665
La1 O30 2.436941 1_556
La1 O8 2.445451 1_555
La1 O7 2.485152 1_545
La1 O1 2.536875 1_555
La1 O20 2.580451 1_556
La1 O3 2.649213 1_555
La1 O0 2.684732 1_555
La1 O25 2.791774 1_556
La2 O4 2.375752 1_555
La2 O2 2.432915 1_555
La2 O3 2.447646 1_555
La2 O17 2.619721 1_555
La2 O12 2.634173 1_555
La2 O11 2.667649 1_555
La2 O10 2.882906 1_555
La2 O8 2.893478 1_555
La3 O19 2.428945 1_555
La3 O0 2.430964 1_455
La3 O1 2.438456 1_455
La3 O30 2.578876 1_556
La3 O33 2.598894 1_556
La3 O32 2.625689 1_556
La3 O11 2.843335 1_555
La4 O20 2.416801 1_555
La4 O21 2.445712 1_555
La4 O22 2.481424 1_555
La4 O31 2.602244 1_655
La4 O9 2.646806 1_555
La4 O10 2.670725 1_555
La4 O35 2.735169 1_655
La4 O14 2.864596 1_555
La5 O18 2.408078 1_555
La5 O24 2.440888 1_555
La5 O23 2.450505 1_555
La5 O6 2.577908 1_555
La5 O8 2.619636 1_565
La5 O7 2.646249 1_555
La5 O12 2.820275 1_555
La5 O13 2.844203 1_565
La6 O14 2.418563 1_555
La6 O17 2.421819 1_555
La6 O13 2.422378 1_555
La6 O29 2.505356 1_555
La6 O26 2.642797 1_545
La6 O25 2.667160 1_555
La6 O22 2.860606 1_555
La6 O23 2.873888 1_545
La7 O15 2.410322 1_555
La7 O12 2.434384 1_555
La7 O11 2.444871 1_555
La7 O4 2.594996 1_455
La7 O27 2.649292 1_555
La7 O28 2.673856 1_555
La7 O0 2.830794 1_455
La7 O24 2.834244 1_555
La7 O5 2.897856 1_555
La8 O31 2.388694 1_555
La8 O33 2.459028 1_555
La8 O32 2.461054 1_555
La8 O21 2.541324 1_555
La8 O18 2.623488 1_555
La8 O22 2.684667 1_555
La8 O26 2.837852 1_555
La8 O28 2.845015 1_555
La9 O29 2.383934 1_555
La9 O27 2.452760 1_555
La9 O28 2.469212 1_555
La9 O16 2.578664 1_445
La9 O13 2.679700 1_455
La9 O14 2.691540 1_455
La9 O32 2.804093 1_555
La9 O9 2.804337 1_445
La10 O26 2.422491 1_555
La10 O25 2.454642 1_565
La10 O5 2.455966 1_554
La10 O15 2.563747 1_554
La10 O35 2.600858 1_555
La10 O34 2.629608 1_555
La10 O33 2.829998 1_555
La10 O7 2.831716 1_554
O0 V1 2.033871 1_555
O0 V11 2.052521 1_556
O1 V2 1.966984 1_556
O1 V0 2.025568 1_545
O2 V4 1.936533 1_655
O2 V0 2.044135 1_555
O3 V7 1.951567 1_556
O3 V11 2.015920 1_556
O4 V9 1.999492 1_655
O4 V1 2.068969 1_555
O5 V7 1.868267 1_556
O5 V0 2.082963 1_555
O6 V0 2.019247 1_555
O6 V1 2.066652 1_565
O7 V0 2.052630 1_555
O7 V4 2.056297 1_555
O8 V1 2.009362 1_555
O8 V3 2.035595 1_555
O9 V6 2.002118 1_555
O9 V10 2.029403 1_655
O10 V9 2.018095 1_655
O10 V5 2.022292 1_555
O11 V3 2.031307 1_555
O11 V7 2.033954 1_556
O12 V5 2.051568 1_555
O12 V0 2.056538 1_555
O13 V1 2.011256 1_555
O13 V6 2.073151 1_545
O14 V2 2.012207 1_555
O14 V9 2.080332 1_655
O15 V4 1.973932 1_555
O15 V11 2.058181 1_456
O16 V2 1.835599 1_565
O16 V6 2.033771 1_555
O17 V3 2.010739 1_555
O17 V5 2.043120 1_555
O18 V6 2.027346 1_555
O18 V5 2.041927 1_555
O19 V4 2.031083 1_545
O19 V3 2.037297 1_555
O20 V2 2.020452 1_555
O20 V11 2.114256 1_555
O21 V7 1.952079 1_555
O21 V6 2.063091 1_555
O22 V8 2.009457 1_555
O22 V5 2.039527 1_555
O23 V3 2.031940 1_565
O23 V10 2.038813 1_555
O24 V4 2.012484 1_555
O24 V9 2.114939 1_555
O25 V2 2.006881 1_555
O25 V8 2.051269 1_555
O26 V6 2.018939 1_555
O26 V10 2.039032 1_555
O27 V1 2.014071 1_455
O27 V3 2.043331 1_555
O28 V9 2.018973 1_555
O28 V5 2.034067 1_555
O29 V8 2.000003 1_555
O29 V10 2.045809 1_545
O30 V7 2.010035 1_555
O30 V8 2.074796 1_555
O31 V9 1.987704 1_555
O31 V10 2.058898 1_555
O32 V2 1.990180 1_455
O32 V8 2.055194 1_555
O33 V7 2.035168 1_555
O33 V11 2.078607 1_455
O34 V4 1.865409 1_554
O34 V8 2.026755 1_565
O35 V11 1.932045 1_455
O35 V10 1.978141 1_555
