# generated using pymatgen
data_Li3V2(PO4)3
_symmetry_space_group_name_H-M   'P 1'
_cell_length_a   8.75528355
_cell_length_b   8.75528355
_cell_length_c   8.73975671
_cell_angle_alpha   60.77142201
_cell_angle_beta   60.77142201
_cell_angle_gamma   59.68615684
_symmetry_Int_Tables_number   1
_chemical_formula_structural   Li3V2(PO4)3
_chemical_formula_sum   'Li6 V4 P6 O24'
_cell_volume   477.99970016
_cell_formula_units_Z   2
loop_
 _symmetry_equiv_pos_site_id
 _symmetry_equiv_pos_as_xyz
  1  'x, y, z'
loop_
 _atom_site_type_symbol
 _atom_site_label
 _atom_site_symmetry_multiplicity
 _atom_site_fract_x
 _atom_site_fract_y
 _atom_site_fract_z
 _atom_site_occupancy
  Li  Li0  1  0.03624600  0.34904700  0.17678700  1
  Li  Li1  1  0.74046300  0.88874800  0.20395100  1
  Li  Li2  1  0.34904700  0.03624600  0.67678700  1
  Li  Li3  1  0.62016900  0.36282400  0.24763700  1
  Li  Li4  1  0.36282400  0.62016900  0.74763700  1
  Li  Li5  1  0.88874800  0.74046300  0.70395100  1
  V  V0  1  0.85336900  0.35621300  0.85885200  1
  V  V1  1  0.35621300  0.85336900  0.35885200  1
  V  V2  1  0.15328000  0.64342600  0.14048700  1
  V  V3  1  0.64342600  0.15328000  0.64048700  1
  P  P0  1  0.24989800  0.47323100  0.54024500  1
  P  P1  1  0.52891800  0.75261300  0.95641800  1
  P  P2  1  0.47323100  0.24989800  0.04024500  1
  P  P3  1  0.75261300  0.52891800  0.45641800  1
  P  P4  1  0.04472100  0.95174200  0.75466200  1
  P  P5  1  0.95174200  0.04472100  0.25466200  1
  O  O0  1  0.05538500  0.47700400  0.68328900  1
  O  O1  1  0.75507700  0.48109600  0.64789600  1
  O  O2  1  0.98161000  0.89052700  0.19384600  1
  O  O3  1  0.61919000  0.29176100  0.05235600  1
  O  O4  1  0.47700400  0.05538500  0.18328900  1
  O  O5  1  0.89052700  0.98161000  0.69384600  1
  O  O6  1  0.92810500  0.24054600  0.09983700  1
  O  O7  1  0.37814800  0.71891000  0.94346900  1
  O  O8  1  0.54991500  0.93332200  0.79407600  1
  O  O9  1  0.00909600  0.11514300  0.80622400  1
  O  O10  1  0.72431700  0.59624800  0.91937300  1
  O  O11  1  0.05855800  0.76676400  0.91937900  1
  O  O12  1  0.29176100  0.61919000  0.55235600  1
  O  O13  1  0.24054600  0.92810500  0.59983700  1
  O  O14  1  0.59624800  0.72431700  0.41937300  1
  O  O15  1  0.11514300  0.00909600  0.30622400  1
  O  O16  1  0.27376800  0.39812300  0.08460800  1
  O  O17  1  0.39812300  0.27376800  0.58460800  1
  O  O18  1  0.52037600  0.26310300  0.84106800  1
  O  O19  1  0.93332200  0.54991500  0.29407600  1
  O  O20  1  0.48109600  0.75507700  0.14789600  1
  O  O21  1  0.71891000  0.37814800  0.44346900  1
  O  O22  1  0.76676400  0.05855800  0.41937900  1
  O  O23  1  0.26310300  0.52037600  0.34106800  1
loop_
_geom_bond_atom_site_label_1
_geom_bond_atom_site_label_2
_geom_bond_distance
_geom_bond_site_symmetry_2
Li0 O16 2.021408 1_555
Li0 O19 2.052889 1_455
Li0 O6 2.098773 1_455
Li0 O15 2.452578 1_555
Li0 O21 2.599589 1_455
Li1 O14 2.019384 1_555
Li1 O4 2.057702 1_565
Li1 O2 2.077362 1_555
Li1 O19 2.496484 1_555
Li2 O17 2.021408 1_555
Li2 O8 2.052889 1_545
Li2 O13 2.098773 1_545
Li2 O9 2.452578 1_555
Li2 O7 2.599589 1_545
Li3 O3 2.087275 1_555
Li3 O6 2.262578 1_555
Li3 O21 2.341155 1_555
Li3 O22 2.349850 1_555
Li3 O23 2.568385 1_555
Li3 O17 2.599415 1_555
Li3 O10 2.615225 1_554
Li4 O12 2.087275 1_555
Li4 O13 2.262578 1_555
Li4 O7 2.341155 1_555
Li4 O11 2.349850 1_555
Li4 O18 2.568385 1_555
Li4 O16 2.599415 1_556
Li4 O14 2.615225 1_555
Li5 O10 2.019384 1_555
Li5 O0 2.057702 1_655
Li5 O5 2.077362 1_555
Li5 O8 2.496484 1_555
O0 P0 1.539027 1_555
O0 V0 2.062586 1_455
O1 P3 1.522545 1_555
O1 V0 1.991554 1_555
O2 P5 1.543395 1_565
O2 V2 2.043354 1_655
O3 P2 1.556087 1_555
O3 V0 2.057171 1_554
O4 P2 1.539027 1_555
O4 V1 2.062586 1_545
O5 P4 1.543395 1_655
O5 V3 2.043354 1_565
O6 P5 1.569387 1_555
O6 V0 2.117443 1_554
O7 P1 1.553731 1_555
O7 V2 2.041873 1_556
O8 P1 1.548135 1_555
O8 V3 2.043195 1_565
O9 P4 1.545616 1_545
O9 V0 1.988959 1_455
O10 P1 1.559955 1_555
O10 V0 2.019389 1_555
O11 P4 1.550921 1_555
O11 V2 2.052146 1_556
O12 P0 1.556087 1_555
O12 V1 2.057171 1_555
O13 P4 1.569387 1_555
O13 V1 2.117443 1_555
O14 P3 1.559955 1_555
O14 V1 2.019389 1_555
O15 P5 1.545616 1_455
O15 V1 1.988959 1_545
O16 P2 1.557748 1_555
O16 V2 2.048913 1_555
O17 P0 1.557748 1_555
O17 V3 2.048913 1_555
O18 P2 1.537500 1_556
O18 V3 1.978470 1_555
O19 P3 1.548135 1_555
O19 V2 2.043195 1_655
O20 P1 1.522545 1_554
O20 V1 1.991554 1_555
O21 P3 1.553731 1_555
O21 V3 2.041873 1_555
O22 P5 1.550921 1_555
O22 V3 2.052146 1_555
O23 P0 1.537500 1_555
O23 V2 1.978470 1_555
