# generated using pymatgen
data_CsVZn(PO3)6
_symmetry_space_group_name_H-M   'P 1'
_cell_length_a   10.29387878
_cell_length_b   10.29387878
_cell_length_c   10.98672777
_cell_angle_alpha   66.90485876
_cell_angle_beta   66.90485876
_cell_angle_gamma   81.34277747
_symmetry_Int_Tables_number   1
_chemical_formula_structural   CsVZn(PO3)6
_chemical_formula_sum   'Cs2 V2 Zn2 P12 O36'
_cell_volume   985.05752909
_cell_formula_units_Z   2
loop_
 _symmetry_equiv_pos_site_id
 _symmetry_equiv_pos_as_xyz
  1  'x, y, z'
loop_
 _atom_site_type_symbol
 _atom_site_label
 _atom_site_symmetry_multiplicity
 _atom_site_fract_x
 _atom_site_fract_y
 _atom_site_fract_z
 _atom_site_occupancy
  Cs  Cs0  1  0.20522500  0.20522500  0.74505500  1
  Cs  Cs1  1  0.79477500  0.79477500  0.25494500  1
  V  V0  1  0.71921400  0.28078600  0.00000000  1
  V  V1  1  0.28078600  0.71921400  0.00000000  1
  Zn  Zn0  1  0.77067600  0.22932400  0.50000000  1
  Zn  Zn1  1  0.22932400  0.77067600  0.50000000  1
  P  P0  1  0.47494400  0.24821000  0.29218300  1
  P  P1  1  0.24821000  0.47494400  0.29218300  1
  P  P2  1  0.08558900  0.46506700  0.20706400  1
  P  P3  1  0.46506700  0.08558900  0.20706400  1
  P  P4  1  0.26002900  0.03733900  0.20677900  1
  P  P5  1  0.03733900  0.26002900  0.20677900  1
  P  P6  1  0.73997100  0.96266100  0.79322100  1
  P  P7  1  0.96266100  0.73997100  0.79322100  1
  P  P8  1  0.53493300  0.91441100  0.79293600  1
  P  P9  1  0.91441100  0.53493300  0.79293600  1
  P  P10  1  0.75179000  0.52505600  0.70781700  1
  P  P11  1  0.52505600  0.75179000  0.70781700  1
  O  O0  1  0.62687500  0.30004800  0.18416000  1
  O  O1  1  0.30004800  0.62687500  0.18416000  1
  O  O2  1  0.37113600  0.37113600  0.23257800  1
  O  O3  1  0.39620800  0.55373400  0.56668600  1
  O  O4  1  0.55373400  0.39620800  0.56668600  1
  O  O5  1  0.18009200  0.55415900  0.04812900  1
  O  O6  1  0.55415900  0.18009200  0.04812900  1
  O  O7  1  0.20893200  0.45004500  0.44462900  1
  O  O8  1  0.45004500  0.20893200  0.44462900  1
  O  O9  1  0.27184500  0.05276100  0.06336300  1
  O  O10  1  0.05276100  0.27184500  0.06336300  1
  O  O11  1  0.94706600  0.52363700  0.27668900  1
  O  O12  1  0.52363700  0.94706600  0.27668900  1
  O  O13  1  0.86355200  0.17490200  0.92510800  1
  O  O14  1  0.17490200  0.86355200  0.92510800  1
  O  O15  1  0.14570000  0.14570000  0.27251400  1
  O  O16  1  0.89058500  0.22078900  0.32684200  1
  O  O17  1  0.22078900  0.89058500  0.32684200  1
  O  O18  1  0.77921100  0.10941500  0.67315800  1
  O  O19  1  0.10941500  0.77921100  0.67315800  1
  O  O20  1  0.85430000  0.85430000  0.72748600  1
  O  O21  1  0.82509800  0.13644800  0.07489200  1
  O  O22  1  0.13644800  0.82509800  0.07489200  1
  O  O23  1  0.47636300  0.05293400  0.72331100  1
  O  O24  1  0.05293400  0.47636300  0.72331100  1
  O  O25  1  0.94723900  0.72815500  0.93663700  1
  O  O26  1  0.72815500  0.94723900  0.93663700  1
  O  O27  1  0.54995500  0.79106800  0.55537100  1
  O  O28  1  0.79106800  0.54995500  0.55537100  1
  O  O29  1  0.44584100  0.81990800  0.95187100  1
  O  O30  1  0.81990800  0.44584100  0.95187100  1
  O  O31  1  0.44626600  0.60379200  0.43331400  1
  O  O32  1  0.60379200  0.44626600  0.43331400  1
  O  O33  1  0.62886400  0.62886400  0.76742200  1
  O  O34  1  0.37312500  0.69995200  0.81584000  1
  O  O35  1  0.69995200  0.37312500  0.81584000  1
loop_
_geom_bond_atom_site_label_1
_geom_bond_atom_site_label_2
_geom_bond_distance
_geom_bond_site_symmetry_2
Cs0 O23 2.959421 1_555
Cs0 O24 2.959421 1_555
Cs0 O7 3.263669 1_555
Cs0 O8 3.263669 1_555
Cs0 O14 3.281568 1_545
Cs0 O13 3.281568 1_455
Cs0 O10 3.523517 1_556
Cs0 O9 3.523517 1_556
Cs1 O11 2.959421 1_555
Cs1 O12 2.959421 1_555
Cs1 O27 3.263669 1_555
Cs1 O28 3.263669 1_555
Cs1 O21 3.281568 1_565
Cs1 O22 3.281568 1_655
Cs1 O26 3.523517 1_554
Cs1 O25 3.523517 1_554
O0 P0 1.561243 1_555
O0 V0 1.945719 1_555
O1 P1 1.561243 1_555
O1 V1 1.945719 1_555
O2 P1 1.632101 1_555
O2 P0 1.632101 1_555
O3 O31 1.254362 1_555
O5 P2 1.586234 1_555
O5 V1 1.906870 1_555
O6 P3 1.586234 1_555
O6 V0 1.906870 1_555
O7 P1 1.482413 1_555
O8 P0 1.482413 1_555
O9 P4 1.477145 1_555
O10 P5 1.477145 1_555
O11 P2 1.493060 1_655
O12 P3 1.493060 1_565
O13 V0 1.824714 1_556
O14 V1 1.824714 1_556
O15 P5 1.649511 1_555
O15 P4 1.649511 1_555
O16 P5 1.545207 1_655
O16 Zn0 1.845755 1_555
O17 P4 1.545207 1_565
O17 Zn1 1.845755 1_555
O18 P6 1.545207 1_545
O18 Zn0 1.845755 1_555
O19 P7 1.545207 1_455
O19 Zn1 1.845755 1_555
O20 P7 1.649511 1_555
O20 P6 1.649511 1_555
O21 V0 1.824714 1_555
O22 V1 1.824714 1_555
O23 P8 1.493060 1_545
O24 P9 1.493060 1_455
O25 P7 1.477145 1_555
O26 P6 1.477145 1_555
O27 P11 1.482413 1_555
O28 P10 1.482413 1_555
O29 P8 1.586234 1_555
O29 V1 1.906870 1_556
O30 P9 1.586234 1_555
O30 V0 1.906870 1_556
O32 O4 1.254362 1_555
O33 P10 1.632101 1_555
O33 P11 1.632101 1_555
O34 P11 1.561243 1_555
O34 V1 1.945719 1_556
O35 P10 1.561243 1_555
O35 V0 1.945719 1_556
