# generated using pymatgen
data_Hf5N5O2
_symmetry_space_group_name_H-M   'P 1'
_cell_length_a   5.43065267
_cell_length_b   5.43065267
_cell_length_c   9.11705535
_cell_angle_alpha   75.17307713
_cell_angle_beta   75.17307713
_cell_angle_gamma   32.80971378
_symmetry_Int_Tables_number   1
_chemical_formula_structural   Hf5N5O2
_chemical_formula_sum   'Hf5 N5 O2'
_cell_volume   140.41340168
_cell_formula_units_Z   1
loop_
 _symmetry_equiv_pos_site_id
 _symmetry_equiv_pos_as_xyz
  1  'x, y, z'
loop_
 _atom_site_type_symbol
 _atom_site_label
 _atom_site_symmetry_multiplicity
 _atom_site_fract_x
 _atom_site_fract_y
 _atom_site_fract_z
 _atom_site_occupancy
  Hf  Hf0  1  0.88595400  0.88595400  0.42335300  1
  Hf  Hf1  1  0.29772300  0.29772300  0.80693100  1
  Hf  Hf2  1  0.70227700  0.70227700  0.19306900  1
  Hf  Hf3  1  0.11404600  0.11404600  0.57664700  1
  Hf  Hf4  1  0.00000000  0.00000000  0.00000000  1
  N  N0  1  0.50000000  0.50000000  0.50000000  1
  N  N1  1  0.34471800  0.34471800  0.05189400  1
  N  N2  1  0.26146200  0.26146200  0.35209300  1
  N  N3  1  0.73853800  0.73853800  0.64790700  1
  N  N4  1  0.65528200  0.65528200  0.94810600  1
  O  O0  1  0.95500900  0.95500900  0.78711700  1
  O  O1  1  0.04499100  0.04499100  0.21288300  1
loop_
_geom_bond_atom_site_label_1
_geom_bond_atom_site_label_2
_geom_bond_distance
_geom_bond_site_symmetry_2
Hf0 N0 2.166944 1_655
Hf0 N0 2.166944 1_565
Hf0 O1 2.175180 1_665
Hf0 N3 2.207443 1_555
Hf0 N2 2.215064 1_565
Hf0 N2 2.215064 1_655
Hf1 O0 2.216453 1_455
Hf1 O0 2.216453 1_545
Hf1 N4 2.278694 1_455
Hf1 N4 2.278694 1_545
Hf1 N3 2.304696 1_545
Hf1 N3 2.304696 1_455
Hf1 N1 2.410601 1_556
Hf2 O1 2.216453 1_565
Hf2 O1 2.216453 1_655
Hf2 N1 2.278694 1_565
Hf2 N1 2.278694 1_655
Hf2 N2 2.304696 1_565
Hf2 N2 2.304696 1_655
Hf2 N4 2.410601 1_554
Hf3 N0 2.166944 1_455
Hf3 N0 2.166944 1_545
Hf3 O0 2.175180 1_445
Hf3 N2 2.207443 1_555
Hf3 N3 2.215064 1_545
Hf3 N3 2.215064 1_455
Hf4 O1 2.114736 1_555
Hf4 O0 2.114736 1_444
Hf4 N1 2.187562 1_455
Hf4 N1 2.187562 1_545
Hf4 N4 2.187562 1_544
Hf4 N4 2.187562 1_454
