# generated using pymatgen
data_Li10Mn2Fe3Co3O16
_symmetry_space_group_name_H-M   'P 1'
_cell_length_a   5.87664100
_cell_length_b   6.03510472
_cell_length_c   9.86041610
_cell_angle_alpha   89.73430567
_cell_angle_beta   89.78379549
_cell_angle_gamma   61.07543261
_symmetry_Int_Tables_number   1
_chemical_formula_structural   Li10Mn2Fe3Co3O16
_chemical_formula_sum   'Li10 Mn2 Fe3 Co3 O16'
_cell_volume   306.08326337
_cell_formula_units_Z   1
loop_
 _symmetry_equiv_pos_site_id
 _symmetry_equiv_pos_as_xyz
  1  'x, y, z'
loop_
 _atom_site_type_symbol
 _atom_site_label
 _atom_site_symmetry_multiplicity
 _atom_site_fract_x
 _atom_site_fract_y
 _atom_site_fract_z
 _atom_site_occupancy
  Li  Li0  1  0.98248300  0.03029400  0.97513300  1
  Li  Li1  1  0.00597400  0.98147500  0.48524700  1
  Li  Li2  1  0.20831500  0.59269300  0.53435400  1
  Li  Li3  1  0.18838900  0.20569700  0.55428400  1
  Li  Li4  1  0.31132900  0.37828800  0.76748800  1
  Li  Li5  1  0.37878500  0.80551700  0.05163000  1
  Li  Li6  1  0.61771100  0.21176300  0.55598400  1
  Li  Li7  1  0.82425500  0.79622800  0.04877500  1
  Li  Li8  1  0.79731000  0.41450900  0.04012300  1
  Li  Li9  1  0.67439100  0.65119600  0.26909000  1
  Mn  Mn0  1  0.32494200  0.34089700  0.02134200  1
  Mn  Mn1  1  0.65354200  0.69600800  0.52656900  1
  Fe  Fe0  1  0.17570400  0.15454900  0.27926600  1
  Fe  Fe1  1  0.67017700  0.15374300  0.27789900  1
  Fe  Fe2  1  0.81106200  0.37645800  0.77797100  1
  Co  Co0  1  0.17395000  0.65079200  0.27967900  1
  Co  Co1  1  0.31686400  0.86605700  0.78016300  1
  Co  Co2  1  0.80913900  0.86936400  0.78159800  1
  O  O0  1  0.00593400  0.98947700  0.16545900  1
  O  O1  1  0.96194600  0.04461200  0.67345900  1
  O  O2  1  0.12827100  0.71398100  0.89566100  1
  O  O3  1  0.02754500  0.47149300  0.15331300  1
  O  O4  1  0.49894900  0.47157800  0.14740700  1
  O  O5  1  0.34416700  0.31436600  0.39857600  1
  O  O6  1  0.13958800  0.21224900  0.90406100  1
  O  O7  1  0.50260400  0.99575300  0.16245000  1
  O  O8  1  0.34061000  0.82696200  0.40701700  1
  O  O9  1  0.64824500  0.19676100  0.89561900  1
  O  O10  1  0.49896500  0.02047100  0.66691100  1
  O  O11  1  0.50251000  0.53650700  0.64886300  1
  O  O12  1  0.83381800  0.82227200  0.40377100  1
  O  O13  1  0.66237500  0.69274600  0.89459600  1
  O  O14  1  0.96039900  0.55346700  0.65712600  1
  O  O15  1  0.85104600  0.29821300  0.39596400  1
loop_
_geom_bond_atom_site_label_1
_geom_bond_atom_site_label_2
_geom_bond_distance
_geom_bond_site_symmetry_2
Li0 O2 1.849067 1_645
Li0 O6 1.875647 1_655
Li0 O0 1.888512 1_646
Li0 O9 1.891453 1_555
Li1 O12 1.882999 1_455
Li1 O8 1.884996 1_555
Li1 O1 1.887823 1_465
Li1 O15 1.888103 1_465
Li2 O11 1.955245 1_555
Li2 O14 1.990429 1_455
Li2 O5 1.991715 1_555
Li2 O8 2.284583 1_555
Li2 O12 2.340154 1_455
Li3 O10 1.960687 1_555
Li3 O5 2.046035 1_555
Li3 O14 2.125527 1_455
Li3 O1 2.307776 1_455
Li3 O15 2.371378 1_455
Li3 O8 2.485244 1_545
Li4 O14 2.110024 1_455
Li4 O11 2.135337 1_555
Li4 O10 2.137979 1_555
Li4 O9 2.150449 1_555
Li4 O2 2.182724 1_555
Li4 O6 2.189009 1_555
Li5 O7 1.966564 1_555
Li5 O4 2.015676 1_555
Li5 O13 2.128697 1_554
Li5 O0 2.221088 1_555
Li5 O2 2.376836 1_554
Li6 O10 1.943693 1_555
Li6 O11 1.966378 1_555
Li6 O5 2.103244 1_555
Li6 O1 2.117679 1_555
Li6 O15 2.304385 1_555
Li6 O12 2.553738 1_545
Li7 O3 2.014043 1_655
Li7 O7 2.018446 1_555
Li7 O13 2.049551 1_554
Li7 O2 2.201469 1_654
Li7 O0 2.247240 1_655
Li7 O9 2.598659 1_564
Li8 O3 1.913018 1_655
Li8 O4 1.928006 1_555
Li8 O13 2.050803 1_554
Li8 O6 2.226133 1_654
Li8 O9 2.380109 1_554
Li9 O7 2.099044 1_555
Li9 O3 2.145454 1_655
Li9 O12 2.159898 1_555
Li9 O4 2.186365 1_555
Li9 O8 2.191563 1_555
Li9 O15 2.242047 1_555
Mn0 O6 1.990612 1_554
Mn0 O4 2.002912 1_555
Mn0 O3 2.007211 1_555
Mn0 O9 2.072869 1_554
Mn0 O7 2.290245 1_545
Mn0 O2 2.325714 1_554
Mn1 O12 1.982886 1_555
Mn1 O11 1.994016 1_555
Mn1 O8 1.999491 1_555
Mn1 O14 2.038581 1_555
Mn1 O10 2.206714 1_565
Mn1 O15 2.468029 1_555
Fe0 O15 2.026932 1_455
Fe0 O7 2.036757 1_545
Fe0 O0 2.056057 1_545
Fe0 O5 2.058488 1_555
Fe0 O3 2.081927 1_555
Fe0 O8 2.137139 1_545
Fe1 O7 2.025240 1_545
Fe1 O15 2.039717 1_555
Fe1 O0 2.051044 1_645
Fe1 O5 2.055016 1_555
Fe1 O4 2.113605 1_555
Fe1 O12 2.142939 1_545
Fe2 O13 2.031982 1_555
Fe2 O11 2.037979 1_555
Fe2 O1 2.038042 1_555
Fe2 O14 2.053879 1_555
Fe2 O6 2.100280 1_655
Fe2 O9 2.102630 1_555
Co0 O3 2.094011 1_555
Co0 O0 2.110950 1_555
Co0 O4 2.124786 1_555
Co0 O5 2.125942 1_555
Co0 O12 2.134444 1_455
Co0 O8 2.166819 1_555
Co1 O10 2.051024 1_565
Co1 O2 2.081437 1_555
Co1 O13 2.107586 1_555
Co1 O1 2.109600 1_465
Co1 O11 2.176313 1_555
Co1 O6 2.202642 1_565
Co2 O10 1.957312 1_565
Co2 O1 1.990729 1_565
Co2 O2 1.991607 1_655
Co2 O13 1.998123 1_555
Co2 O9 2.065803 1_565
Co2 O14 2.074933 1_555
