# generated using pymatgen
data_Er2Co12P7
_symmetry_space_group_name_H-M   'P 1'
_cell_length_a   8.91060734
_cell_length_b   8.91057940
_cell_length_c   3.56542230
_cell_angle_alpha   90.00004419
_cell_angle_beta   89.99995189
_cell_angle_gamma   119.99891080
_symmetry_Int_Tables_number   1
_chemical_formula_structural   Er2Co12P7
_chemical_formula_sum   'Er2 Co12 P7'
_cell_volume   245.16565236
_cell_formula_units_Z   1
loop_
 _symmetry_equiv_pos_site_id
 _symmetry_equiv_pos_as_xyz
  1  'x, y, z'
loop_
 _atom_site_type_symbol
 _atom_site_label
 _atom_site_symmetry_multiplicity
 _atom_site_fract_x
 _atom_site_fract_y
 _atom_site_fract_z
 _atom_site_occupancy
  Er  Er0  1  0.66663864  0.33336682  0.50000142  1
  Er  Er1  1  0.33338707  0.66665441  0.00000461  1
  Co  Co0  1  0.11915889  0.84632293  -0.00000147  1
  Co  Co1  1  0.38202052  0.43369777  0.50000308  1
  Co  Co2  1  0.72716193  0.88084332  -0.00000049  1
  Co  Co3  1  0.56630034  0.94829459  0.49999944  1
  Co  Co4  1  0.22931306  0.10016901  0.49999650  1
  Co  Co5  1  0.87083641  0.77069737  0.49999997  1
  Co  Co6  1  0.89984042  0.12912205  0.49999653  1
  Co  Co7  1  0.94001275  0.37306597  -0.00000048  1
  Co  Co8  1  0.62693256  0.56693895  0.00000137  1
  Co  Co9  1  0.43305371  0.05998587  -0.00000103  1
  Co  Co10  1  0.05168567  0.61801131  0.49999995  1
  Co  Co11  1  0.15369461  0.27285783  -0.00000050  1
  P  P0  1  -0.00002215  -0.00000940  -0.00000297  1
  P  P1  1  0.59559422  0.70766875  0.50000065  1
  P  P2  1  0.70382952  0.11285202  -0.00000002  1
  P  P3  1  0.88713083  0.59098225  0.00000069  1
  P  P4  1  0.40903462  0.29615740  0.00000345  1
  P  P5  1  0.29232186  0.88791629  0.49999982  1
  P  P6  1  0.11207551  0.40440248  0.49999949  1
loop_
_geom_bond_atom_site_label_1
_geom_bond_atom_site_label_2
_geom_bond_distance
_geom_bond_site_symmetry_2
Er0 P4 2.792102 1_555
Er0 P4 2.792109 1_556
Er0 P3 2.792424 1_556
Er0 P3 2.792428 1_555
Er0 P2 2.792829 1_556
Er0 P2 2.792834 1_555
Er1 P1 2.813648 1_555
Er1 P1 2.813663 1_554
Er1 P6 2.814156 1_555
Er1 P6 2.814179 1_554
Er1 P5 2.814318 1_555
Er1 P5 2.814342 1_554
Co0 P0 2.111106 1_565
Co0 P3 2.178847 1_455
Co0 P5 2.263706 1_554
Co0 P5 2.263715 1_555
Co0 Er1 3.043503 1_555
Co1 P1 2.221628 1_555
Co1 P4 2.243435 1_555
Co1 P4 2.243439 1_556
Co1 P6 2.286065 1_555
Co1 Er1 2.928176 1_555
Co1 Er1 2.928180 1_556
Co2 P0 2.110900 1_665
Co2 P2 2.178734 1_565
Co2 P1 2.263754 1_554
Co2 P1 2.263761 1_555
Co2 Er1 3.042631 1_555
Co3 P5 2.221727 1_555
Co3 P2 2.243439 1_565
Co3 P2 2.243442 1_566
Co3 P1 2.285830 1_555
Co3 Er1 2.928318 1_555
Co3 Er1 2.928341 1_556
Co4 P5 2.225768 1_545
Co4 P4 2.448624 1_555
Co4 P4 2.448660 1_556
Co4 P0 2.515304 1_555
Co4 P0 2.515305 1_556
Co5 P1 2.225572 1_555
Co5 P3 2.448673 1_555
Co5 P3 2.448679 1_556
Co5 P0 2.515071 1_666
Co5 P0 2.515087 1_665
Co6 P6 2.225878 1_655
Co6 P2 2.448747 1_555
Co6 P2 2.448763 1_556
Co6 P0 2.514924 1_655
Co6 P0 2.514929 1_656
Co7 P3 2.215269 1_555
Co7 P2 2.219393 1_555
Co7 P6 2.275650 1_654
Co7 P6 2.275652 1_655
Co7 Er0 2.894005 1_554
Co7 Er0 2.894011 1_555
Co7 Er1 3.156054 1_655
Co8 P4 2.215161 1_555
Co8 P3 2.219178 1_555
Co8 P1 2.275666 1_555
Co8 P1 2.275672 1_554
Co8 Er0 2.893307 1_554
Co8 Er0 2.893309 1_555
Co8 Er1 3.155186 1_555
Co9 P2 2.215142 1_555
Co9 P4 2.219188 1_555
Co9 P5 2.275692 1_544
Co9 P5 2.275697 1_545
Co9 Er0 2.893812 1_554
Co9 Er0 2.893823 1_555
Co9 Er1 3.155934 1_545
Co10 P6 2.221847 1_555
Co10 P3 2.243415 1_455
Co10 P3 2.243418 1_456
Co10 P5 2.285835 1_555
Co10 Er1 2.928936 1_555
Co10 Er1 2.928959 1_556
Co11 P0 2.111309 1_555
Co11 P4 2.178863 1_555
Co11 P6 2.263663 1_555
Co11 P6 2.263665 1_554
Co11 Er1 3.042740 1_555
