# generated using pymatgen
data_LiMnSiO4
_symmetry_space_group_name_H-M   'P 1'
_cell_length_a   5.71167900
_cell_length_b   6.19627857
_cell_length_c   9.27743989
_cell_angle_alpha   78.05129553
_cell_angle_beta   81.18125075
_cell_angle_gamma   76.49834062
_symmetry_Int_Tables_number   1
_chemical_formula_structural   LiMnSiO4
_chemical_formula_sum   'Li4 Mn4 Si4 O16'
_cell_volume   310.44019870
_cell_formula_units_Z   4
loop_
 _symmetry_equiv_pos_site_id
 _symmetry_equiv_pos_as_xyz
  1  'x, y, z'
loop_
 _atom_site_type_symbol
 _atom_site_label
 _atom_site_symmetry_multiplicity
 _atom_site_fract_x
 _atom_site_fract_y
 _atom_site_fract_z
 _atom_site_occupancy
  Li  Li0  1  0.68111100  0.36254500  0.91446100  1
  Li  Li1  1  0.19388300  0.44180800  0.77238100  1
  Li  Li2  1  0.80611700  0.55819200  0.22761900  1
  Li  Li3  1  0.31888900  0.63745500  0.08553900  1
  Mn  Mn0  1  0.30556500  0.93409800  0.77992900  1
  Mn  Mn1  1  0.78095800  0.16072300  0.58863700  1
  Mn  Mn2  1  0.21904200  0.83927700  0.41136300  1
  Mn  Mn3  1  0.69443500  0.06590200  0.22007100  1
  Si  Si0  1  0.81475900  0.83957700  0.90806900  1
  Si  Si1  1  0.67928400  0.70996800  0.53754900  1
  Si  Si2  1  0.32071600  0.29003200  0.46245100  1
  Si  Si3  1  0.18524100  0.16042300  0.09193100  1
  O  O0  1  0.61107300  0.70441300  0.88510600  1
  O  O1  1  0.10288900  0.70710000  0.87718400  1
  O  O2  1  0.22479900  0.13462500  0.91668800  1
  O  O3  1  0.78735500  0.09318100  0.80302000  1
  O  O4  1  0.86648600  0.85172500  0.57253300  1
  O  O5  1  0.38983700  0.77760300  0.60935600  1
  O  O6  1  0.79062300  0.45211100  0.60222200  1
  O  O7  1  0.35654400  0.22514300  0.64053700  1
  O  O8  1  0.64345600  0.77485700  0.35946300  1
  O  O9  1  0.20937700  0.54788900  0.39777800  1
  O  O10  1  0.61016300  0.22239700  0.39064400  1
  O  O11  1  0.13351400  0.14827500  0.42746700  1
  O  O12  1  0.21264500  0.90681900  0.19698000  1
  O  O13  1  0.77520100  0.86537500  0.08331200  1
  O  O14  1  0.89711100  0.29290000  0.12281600  1
  O  O15  1  0.38892700  0.29558700  0.11489400  1
loop_
_geom_bond_atom_site_label_1
_geom_bond_atom_site_label_2
_geom_bond_distance
_geom_bond_site_symmetry_2
Li0 O0 2.029844 1_555
Li0 O3 2.066912 1_555
Li0 O15 2.338233 1_556
Li0 O14 2.362626 1_556
Li1 O7 1.977567 1_555
Li1 O1 2.006384 1_555
Li1 O2 2.075294 1_555
Li2 O8 1.977567 1_555
Li2 O14 2.006384 1_555
Li2 O13 2.075294 1_555
Li3 O15 2.029844 1_555
Li3 O12 2.066912 1_555
Li3 O0 2.338233 1_554
Li3 O1 2.362626 1_554
Mn0 O2 1.890004 1_565
Mn0 O5 1.964719 1_555
Mn0 O1 2.011740 1_555
Mn0 O7 2.042902 1_565
Mn0 O0 2.193156 1_555
Mn1 O6 1.849794 1_555
Mn1 O4 1.893707 1_545
Mn1 O3 1.950073 1_555
Mn1 O10 2.134589 1_555
Mn1 O11 2.312716 1_655
Mn1 O7 2.353164 1_555
Mn2 O9 1.849794 1_555
Mn2 O11 1.893707 1_565
Mn2 O12 1.950073 1_555
Mn2 O5 2.134589 1_555
Mn2 O4 2.312716 1_455
Mn2 O8 2.353164 1_555
Mn3 O13 1.890004 1_545
Mn3 O10 1.964719 1_555
Mn3 O14 2.011740 1_555
Mn3 O8 2.042902 1_545
Mn3 O15 2.193156 1_555
O0 Si0 1.644729 1_555
O1 Si0 1.669214 1_455
O2 Si3 1.642548 1_556
O3 Si0 1.655719 1_545
O4 Si1 1.638028 1_555
O5 Si1 1.675406 1_555
O6 Si1 1.600882 1_555
O7 Si2 1.650280 1_555
O8 Si1 1.650280 1_555
O9 Si2 1.600882 1_555
O10 Si2 1.675406 1_555
O11 Si2 1.638028 1_555
O12 Si3 1.655719 1_565
O13 Si0 1.642548 1_554
O14 Si3 1.669214 1_655
O15 Si3 1.644729 1_555
