# generated using pymatgen
data_Fe6O7F5
_symmetry_space_group_name_H-M   'P 1'
_cell_length_a   9.18157600
_cell_length_b   4.75285000
_cell_length_c   4.75376624
_cell_angle_alpha   86.16723593
_cell_angle_beta   90.00000000
_cell_angle_gamma   90.00000000
_symmetry_Int_Tables_number   1
_chemical_formula_structural   Fe6O7F5
_chemical_formula_sum   'Fe6 O7 F5'
_cell_volume   206.98398109
_cell_formula_units_Z   1
loop_
 _symmetry_equiv_pos_site_id
 _symmetry_equiv_pos_as_xyz
  1  'x, y, z'
loop_
 _atom_site_type_symbol
 _atom_site_label
 _atom_site_symmetry_multiplicity
 _atom_site_fract_x
 _atom_site_fract_y
 _atom_site_fract_z
 _atom_site_occupancy
  Fe  Fe0  1  0.32724400  0.99545100  0.98479500  1
  Fe  Fe1  1  0.67275600  0.99545100  0.98479500  1
  Fe  Fe2  1  0.00000000  0.95540500  0.00570100  1
  Fe  Fe3  1  0.50000000  0.49301200  0.48886900  1
  Fe  Fe4  1  0.17523200  0.53707900  0.51697900  1
  Fe  Fe5  1  0.82476800  0.53707900  0.51697900  1
  O  O0  1  0.83128900  0.80800600  0.81400700  1
  O  O1  1  0.16871100  0.80800600  0.81400700  1
  O  O2  1  0.34387700  0.69524300  0.29838200  1
  O  O3  1  0.65612300  0.69524300  0.29838200  1
  O  O4  1  0.00000000  0.68546700  0.32427300  1
  O  O5  1  0.34106400  0.30725800  0.68734600  1
  O  O6  1  0.65893600  0.30725800  0.68734600  1
  F  F0  1  0.50000000  0.81114900  0.79764300  1
  F  F1  1  0.00000000  0.29785900  0.71010800  1
  F  F2  1  0.50000000  0.18772000  0.17905800  1
  F  F3  1  0.16538300  0.19165800  0.19566300  1
  F  F4  1  0.83461700  0.19165800  0.19566300  1
loop_
_geom_bond_atom_site_label_1
_geom_bond_atom_site_label_2
_geom_bond_distance
_geom_bond_site_symmetry_2
Fe0 O1 1.915275 1_555
Fe0 O5 1.982826 1_565
Fe0 O2 1.999272 1_556
Fe1 O0 1.915275 1_555
Fe1 O6 1.982826 1_565
Fe1 O3 1.999272 1_556
Fe2 O4 1.918262 1_555
Fe2 O1 1.950911 1_554
Fe2 O0 1.950911 1_454
Fe3 O2 1.918926 1_555
Fe3 O3 1.918926 1_555
Fe3 O6 1.920366 1_555
Fe3 O5 1.920366 1_555
Fe4 O4 1.959287 1_555
Fe4 O1 1.974466 1_555
Fe4 O2 1.984475 1_555
Fe4 O5 2.012234 1_555
Fe5 O4 1.959287 1_655
Fe5 O0 1.974466 1_555
Fe5 O3 1.984475 1_555
Fe5 O6 2.012234 1_555
F0 Fe1 2.044250 1_555
F0 Fe0 2.044250 1_555
F0 Fe3 2.176600 1_555
F1 Fe2 2.077969 1_546
F1 Fe4 2.141176 1_555
F1 Fe5 2.141176 1_455
F2 Fe1 2.077657 1_544
F2 Fe0 2.077657 1_544
F2 Fe3 2.135454 1_555
F3 Fe0 2.051355 1_544
F3 Fe2 2.125477 1_545
F3 Fe4 2.317726 1_555
F4 Fe1 2.051355 1_544
F4 Fe2 2.125477 1_645
F4 Fe5 2.317726 1_555
