# generated using pymatgen
data_Fe4OF7
_symmetry_space_group_name_H-M   'P 1'
_cell_length_a   5.84111594
_cell_length_b   5.84111594
_cell_length_c   9.30339359
_cell_angle_alpha   87.90472414
_cell_angle_beta   87.90472414
_cell_angle_gamma   72.45604279
_symmetry_Int_Tables_number   1
_chemical_formula_structural   Fe4OF7
_chemical_formula_sum   'Fe8 O2 F14'
_cell_volume   302.34363068
_cell_formula_units_Z   2
loop_
 _symmetry_equiv_pos_site_id
 _symmetry_equiv_pos_as_xyz
  1  'x, y, z'
loop_
 _atom_site_type_symbol
 _atom_site_label
 _atom_site_symmetry_multiplicity
 _atom_site_fract_x
 _atom_site_fract_y
 _atom_site_fract_z
 _atom_site_occupancy
  Fe  Fe0  1  0.11822500  0.11822500  0.37087500  1
  Fe  Fe1  1  0.88177500  0.88177500  0.62912500  1
  Fe  Fe2  1  0.73107600  0.73107600  0.24624000  1
  Fe  Fe3  1  0.00000000  0.00000000  0.00000000  1
  Fe  Fe4  1  0.50000000  0.50000000  0.50000000  1
  Fe  Fe5  1  0.61446700  0.61446700  0.85902500  1
  Fe  Fe6  1  0.38553300  0.38553300  0.14097500  1
  Fe  Fe7  1  0.26892400  0.26892400  0.75376000  1
  O  O0  1  0.47620100  0.47620100  0.71203900  1
  O  O1  1  0.52379900  0.52379900  0.28796100  1
  F  F0  1  0.19767500  0.80232500  0.50000000  1
  F  F1  1  0.05338700  0.44067900  0.24454000  1
  F  F2  1  0.80232500  0.19767500  0.50000000  1
  F  F3  1  0.23119700  0.23119700  0.97445400  1
  F  F4  1  0.96095600  0.96095600  0.22544700  1
  F  F5  1  0.72652900  0.72652900  0.47576200  1
  F  F6  1  0.76880300  0.76880300  0.02554600  1
  F  F7  1  0.03904400  0.03904400  0.77455300  1
  F  F8  1  0.27347100  0.27347100  0.52423800  1
  F  F9  1  0.69537800  0.30462200  0.00000000  1
  F  F10  1  0.44067900  0.05338700  0.24454000  1
  F  F11  1  0.94661300  0.55932100  0.75546000  1
  F  F12  1  0.30462200  0.69537800  0.00000000  1
  F  F13  1  0.55932100  0.94661300  0.75546000  1
loop_
_geom_bond_atom_site_label_1
_geom_bond_atom_site_label_2
_geom_bond_distance
_geom_bond_site_symmetry_2
Fe2 O1 1.974182 1_555
Fe4 O0 1.975265 1_555
Fe4 O1 1.975265 1_555
Fe5 O0 1.931125 1_555
Fe6 O1 1.931125 1_555
Fe7 O0 1.974182 1_555
F0 Fe4 2.087313 1_555
F0 Fe0 2.103737 1_565
F0 Fe1 2.103737 1_455
F1 Fe6 2.074934 1_555
F1 Fe2 2.120477 1_455
F1 Fe0 2.124390 1_555
F2 Fe4 2.087313 1_555
F2 Fe0 2.103737 1_655
F2 Fe1 2.103737 1_545
F3 Fe7 2.067819 1_555
F3 Fe6 2.172472 1_556
F3 Fe3 2.180926 1_556
F4 Fe0 2.051537 1_665
F4 Fe3 2.112961 1_665
F4 Fe2 2.166195 1_555
F5 Fe1 2.089335 1_555
F5 Fe2 2.133821 1_555
F5 Fe4 2.136435 1_555
F6 Fe2 2.067819 1_555
F6 Fe5 2.172472 1_554
F6 Fe3 2.180926 1_665
F7 Fe1 2.051537 1_445
F7 Fe3 2.112961 1_556
F7 Fe7 2.166195 1_555
F8 Fe0 2.089335 1_555
F8 Fe7 2.133821 1_555
F8 Fe4 2.136435 1_555
F9 Fe3 2.103172 1_655
F9 Fe5 2.138954 1_554
F9 Fe6 2.138954 1_555
F10 Fe6 2.074934 1_555
F10 Fe2 2.120477 1_545
F10 Fe0 2.124390 1_555
F11 Fe5 2.074934 1_555
F11 Fe7 2.120477 1_655
F11 Fe1 2.124390 1_555
F12 Fe3 2.103172 1_565
F12 Fe5 2.138954 1_554
F12 Fe6 2.138954 1_555
F13 Fe5 2.074934 1_555
F13 Fe7 2.120477 1_565
F13 Fe1 2.124390 1_555
