# generated using pymatgen
data_Li3Fe3(SnO5)2
_symmetry_space_group_name_H-M   'P 1'
_cell_length_a   5.21500300
_cell_length_b   5.35059568
_cell_length_c   8.14230861
_cell_angle_alpha   74.42223163
_cell_angle_beta   74.87446779
_cell_angle_gamma   77.25604655
_symmetry_Int_Tables_number   1
_chemical_formula_structural   Li3Fe3(SnO5)2
_chemical_formula_sum   'Li3 Fe3 Sn2 O10'
_cell_volume   208.48417123
_cell_formula_units_Z   1
loop_
 _symmetry_equiv_pos_site_id
 _symmetry_equiv_pos_as_xyz
  1  'x, y, z'
loop_
 _atom_site_type_symbol
 _atom_site_label
 _atom_site_symmetry_multiplicity
 _atom_site_fract_x
 _atom_site_fract_y
 _atom_site_fract_z
 _atom_site_occupancy
  Li  Li0  1  0.52961900  0.79536300  0.38672300  1
  Li  Li1  1  0.00000000  0.50000000  0.50000000  1
  Li  Li2  1  0.47038100  0.20463700  0.61327700  1
  Fe  Fe0  1  0.50000000  0.00000000  0.00000000  1
  Fe  Fe1  1  0.02989900  0.68883900  0.10403900  1
  Fe  Fe2  1  0.97010100  0.31116100  0.89596100  1
  Sn  Sn0  1  0.01161800  0.87996300  0.69662300  1
  Sn  Sn1  1  0.98838200  0.12003700  0.30337700  1
  O  O0  1  0.22886800  0.95539000  0.86750900  1
  O  O1  1  0.79036100  0.67851600  0.94024200  1
  O  O2  1  0.77222500  0.89529300  0.52025900  1
  O  O3  1  0.26833900  0.80244700  0.21898800  1
  O  O4  1  0.18403300  0.50532400  0.67862300  1
  O  O5  1  0.81596700  0.49467600  0.32137700  1
  O  O6  1  0.73166100  0.19755300  0.78101200  1
  O  O7  1  0.22777500  0.10470700  0.47974100  1
  O  O8  1  0.20963900  0.32148400  0.05975800  1
  O  O9  1  0.77113200  0.04461000  0.13249100  1
loop_
_geom_bond_atom_site_label_1
_geom_bond_atom_site_label_2
_geom_bond_distance
_geom_bond_site_symmetry_2
Li0 O5 2.021540 1_555
Li0 O2 2.096997 1_555
Li0 O3 2.154971 1_555
Li0 O7 2.166265 1_565
Li0 O9 2.355341 1_565
Li1 O4 1.949345 1_555
Li1 O5 1.949345 1_455
Li1 O7 2.210960 1_555
Li1 O2 2.210960 1_455
Li2 O4 2.021540 1_555
Li2 O7 2.096997 1_555
Li2 O6 2.154971 1_555
Li2 O2 2.166265 1_545
Li2 O0 2.355341 1_545
Fe0 O3 2.045264 1_545
Fe0 O6 2.045264 1_554
Fe0 O9 2.074426 1_555
Fe0 O0 2.074426 1_544
Fe0 O8 2.098659 1_555
Fe0 O1 2.098659 1_544
Fe1 O5 1.987257 1_455
Fe1 O3 2.009510 1_555
Fe1 O8 2.064818 1_555
Fe1 O1 2.069228 1_454
Fe1 O9 2.106833 1_465
Fe1 O0 2.225891 1_554
Fe2 O4 1.987257 1_655
Fe2 O6 2.009510 1_555
Fe2 O1 2.064818 1_555
Fe2 O8 2.069228 1_656
Fe2 O0 2.106833 1_645
Fe2 O9 2.225891 1_556
O0 Sn0 2.169906 1_555
O1 Sn0 2.152632 1_655
O2 Sn1 2.062494 1_565
O2 Sn0 2.110590 1_655
O3 Sn1 2.121392 1_465
O4 Sn0 2.035181 1_555
O5 Sn1 2.035181 1_555
O6 Sn0 2.121392 1_645
O7 Sn0 2.062494 1_545
O7 Sn1 2.110590 1_455
O8 Sn1 2.152632 1_455
O9 Sn1 2.169906 1_555
