# generated using pymatgen
data_Li10Ge(PO6)2
_symmetry_space_group_name_H-M   'P 1'
_cell_length_a   6.99241600
_cell_length_b   7.15829124
_cell_length_c   10.72442856
_cell_angle_alpha   90.25687173
_cell_angle_beta   90.58668619
_cell_angle_gamma   90.17977270
_symmetry_Int_Tables_number   1
_chemical_formula_structural   Li10Ge(PO6)2
_chemical_formula_sum   'Li20 Ge2 P4 O24'
_cell_volume   536.76161160
_cell_formula_units_Z   2
loop_
 _symmetry_equiv_pos_site_id
 _symmetry_equiv_pos_as_xyz
  1  'x, y, z'
loop_
 _atom_site_type_symbol
 _atom_site_label
 _atom_site_symmetry_multiplicity
 _atom_site_fract_x
 _atom_site_fract_y
 _atom_site_fract_z
 _atom_site_occupancy
  Li  Li0  1  0.53400000  0.02096500  0.92911800  1
  Li  Li1  1  0.52836500  0.05368300  0.42430300  1
  Li  Li2  1  0.95493600  0.46612900  0.55812600  1
  Li  Li3  1  0.99517400  0.52036500  0.06521300  1
  Li  Li4  1  0.26946300  0.73022700  0.15760300  1
  Li  Li5  1  0.72120300  0.30637700  0.28372400  1
  Li  Li6  1  0.84751800  0.80794200  0.74514100  1
  Li  Li7  1  0.76118100  0.78521900  0.26211700  1
  Li  Li8  1  0.23519500  0.24329100  0.35374000  1
  Li  Li9  1  0.50868700  0.54780100  0.74974700  1
  Li  Li10  1  0.27908700  0.76662400  0.38830800  1
  Li  Li11  1  0.25394300  0.21375000  0.87945600  1
  Li  Li12  1  0.76412700  0.76811900  0.99405900  1
  Li  Li13  1  0.20410000  0.25221800  0.11238200  1
  Li  Li14  1  0.73959600  0.23408400  0.67710400  1
  Li  Li15  1  0.23418400  0.83059300  0.91527100  1
  Li  Li16  1  0.78218800  0.23751800  0.00773000  1
  Li  Li17  1  0.70475700  0.72664100  0.49928600  1
  Li  Li18  1  0.22710100  0.25429300  0.62215800  1
  Li  Li19  1  0.20722500  0.73038400  0.64468800  1
  Ge  Ge0  1  0.49087400  0.01010900  0.17152500  1
  Ge  Ge1  1  0.99482400  0.49195000  0.81576600  1
  P  P0  1  0.97073600  0.99897900  0.49652000  1
  P  P1  1  0.50633300  0.50077000  0.99857000  1
  P  P2  1  0.48178500  0.98281500  0.68328300  1
  P  P3  1  0.00726600  0.51589300  0.31916400  1
  O  O0  1  0.16313200  0.00326800  0.42647800  1
  O  O1  1  0.79308000  0.97634300  0.40916800  1
  O  O2  1  0.50005700  0.67752300  0.91268400  1
  O  O3  1  0.51162200  0.31718000  0.91813300  1
  O  O4  1  0.69841700  0.51076600  0.07448600  1
  O  O5  1  0.32356400  0.49942600  0.07902000  1
  O  O6  1  0.96517800  0.82269300  0.58340400  1
  O  O7  1  0.95987400  0.18323900  0.57426100  1
  O  O8  1  0.30009100  0.00276900  0.05814800  1
  O  O9  1  0.70301000  0.99980900  0.08126600  1
  O  O10  1  0.47540100  0.79525000  0.60707600  1
  O  O11  1  0.48350300  0.15356200  0.59404400  1
  O  O12  1  0.81033900  0.52646700  0.38744100  1
  O  O13  1  0.17001800  0.50947500  0.41905500  1
  O  O14  1  0.98844900  0.71129800  0.89619800  1
  O  O15  1  0.01354700  0.31509600  0.93061700  1
  O  O16  1  0.66495200  0.99631700  0.76600500  1
  O  O17  1  0.30249700  0.99418700  0.76877800  1
  O  O18  1  0.47310800  0.20410300  0.27339900  1
  O  O19  1  0.47661600  0.81294300  0.27163500  1
  O  O20  1  0.19801500  0.48178000  0.71490600  1
  O  O21  1  0.79127100  0.49583200  0.71221700  1
  O  O22  1  0.01145100  0.33166600  0.23972400  1
  O  O23  1  0.02606100  0.68487200  0.23095700  1
loop_
_geom_bond_atom_site_label_1
_geom_bond_atom_site_label_2
_geom_bond_distance
_geom_bond_site_symmetry_2
Li0 O16 1.990141 1_545
Li0 O9 2.011431 1_546
Li0 O3 2.130346 1_555
Li0 O8 2.157214 1_556
Li0 O17 2.356291 1_545
Li0 O2 2.474471 1_545
Li1 O1 1.941858 1_545
Li1 O11 1.981104 1_555
Li1 O18 1.983229 1_555
Li1 O19 2.395827 1_545
Li2 O21 2.030487 1_555
Li2 O7 2.033532 1_555
Li2 O12 2.128731 1_555
Li2 O13 2.151678 1_655
Li2 O20 2.380584 1_655
Li2 O6 2.566235 1_555
Li3 O15 2.060370 1_654
Li3 O4 2.079382 1_555
Li3 O23 2.136510 1_655
Li3 O14 2.275210 1_554
Li3 O5 2.304887 1_655
Li3 O22 2.315040 1_655
Li4 O5 1.892323 1_555
Li4 O23 1.909767 1_555
Li4 O19 1.973865 1_555
Li4 O8 2.238383 1_565
Li5 O18 1.882840 1_555
Li5 O12 2.017852 1_555
Li5 O22 2.095834 1_655
Li6 O16 1.874023 1_555
Li6 O6 1.930536 1_555
Li6 O14 2.013886 1_555
Li6 O21 2.292480 1_555
Li7 O19 2.003884 1_555
Li7 O23 2.019153 1_655
Li7 O1 2.092867 1_555
Li7 O12 2.317789 1_555
Li7 O9 2.510234 1_555
Li8 O18 1.902288 1_555
Li8 O0 1.956812 1_555
Li8 O22 2.077739 1_555
Li8 O13 2.080627 1_555
Li9 O2 1.976691 1_555
Li9 O21 2.055311 1_555
Li9 O20 2.248868 1_555
Li9 O10 2.356356 1_555
Li9 O3 2.452140 1_555
Li10 O19 1.902506 1_555
Li10 O0 1.924499 1_565
Li10 O13 2.020027 1_555
Li10 O23 2.498783 1_555
Li11 O15 1.917264 1_555
Li11 O3 1.985010 1_555
Li11 O17 1.997308 1_545
Li11 O8 2.464516 1_556
Li12 O14 1.939366 1_555
Li12 O9 1.951071 1_556
Li12 O4 2.089464 1_556
Li12 O2 2.132159 1_555
Li13 O5 1.989917 1_555
Li13 O8 1.995867 1_555
Li13 O22 2.009636 1_555
Li13 O15 2.395049 1_554
Li14 O7 1.938062 1_555
Li14 O21 1.941555 1_555
Li14 O16 2.024205 1_545
Li14 O11 2.070894 1_555
Li15 O14 1.924990 1_455
Li15 O8 2.011047 1_566
Li15 O17 2.023883 1_555
Li15 O2 2.161289 1_555
Li16 O15 1.906653 1_654
Li16 O9 1.959320 1_545
Li16 O4 2.164433 1_555
Li16 O3 2.191401 1_554
Li17 O12 2.011557 1_555
Li17 O10 2.046301 1_555
Li17 O1 2.128661 1_555
Li17 O6 2.134349 1_555
Li18 O20 1.916814 1_555
Li18 O11 1.960217 1_555
Li18 O7 1.996526 1_455
Li18 O17 2.496516 1_545
Li19 O6 1.929054 1_455
Li19 O20 1.936601 1_555
Li19 O10 1.976457 1_555
Li19 O17 2.394202 1_555
Ge0 O18 1.768538 1_555
Ge0 O19 1.780301 1_545
Ge0 O9 1.781059 1_545
Ge0 O8 1.796274 1_555
Ge1 O15 1.774446 1_655
Ge1 O14 1.788999 1_555
Ge1 O20 1.795934 1_655
Ge1 O21 1.796666 1_555
O0 P0 1.547803 1_445
O1 P0 1.555817 1_555
O2 P1 1.568801 1_555
O3 P1 1.569525 1_555
O4 P1 1.564753 1_554
O5 P1 1.549302 1_554
O6 P0 1.572613 1_555
O7 P0 1.559699 1_545
O10 P2 1.568970 1_555
O11 P2 1.555830 1_545
O12 P3 1.568061 1_655
O13 P3 1.555845 1_555
O16 P2 1.553046 1_555
O17 P2 1.562840 1_555
O22 P3 1.567308 1_555
O23 P3 1.545016 1_555
