# generated using pymatgen
data_LiTiSiO4
_symmetry_space_group_name_H-M   'P 1'
_cell_length_a   4.98098000
_cell_length_b   6.10274900
_cell_length_c   9.36038700
_cell_angle_alpha   90.00000000
_cell_angle_beta   90.00000000
_cell_angle_gamma   90.00000000
_symmetry_Int_Tables_number   1
_chemical_formula_structural   LiTiSiO4
_chemical_formula_sum   'Li4 Ti4 Si4 O16'
_cell_volume   284.53396178
_cell_formula_units_Z   4
loop_
 _symmetry_equiv_pos_site_id
 _symmetry_equiv_pos_as_xyz
  1  'x, y, z'
loop_
 _atom_site_type_symbol
 _atom_site_label
 _atom_site_symmetry_multiplicity
 _atom_site_fract_x
 _atom_site_fract_y
 _atom_site_fract_z
 _atom_site_occupancy
  Li  Li0  1  0.48025000  0.75000000  0.16962600  1
  Li  Li1  1  0.98025000  0.25000000  0.33037400  1
  Li  Li2  1  0.01975000  0.75000000  0.66962600  1
  Li  Li3  1  0.51975000  0.25000000  0.83037400  1
  Ti  Ti0  1  0.00000000  0.00000000  0.00000000  1
  Ti  Ti1  1  0.00000000  0.50000000  0.00000000  1
  Ti  Ti2  1  0.50000000  0.00000000  0.50000000  1
  Ti  Ti3  1  0.50000000  0.50000000  0.50000000  1
  Si  Si0  1  0.47543100  0.25000000  0.17756200  1
  Si  Si1  1  0.97543100  0.75000000  0.32243800  1
  Si  Si2  1  0.02456900  0.25000000  0.67756200  1
  Si  Si3  1  0.52456900  0.75000000  0.82243800  1
  O  O0  1  0.79842700  0.25000000  0.12907600  1
  O  O1  1  0.32792200  0.03149500  0.11553500  1
  O  O2  1  0.32792200  0.46850500  0.11553500  1
  O  O3  1  0.90132600  0.75000000  0.14717500  1
  O  O4  1  0.40132600  0.25000000  0.35282500  1
  O  O5  1  0.82792200  0.96850500  0.38446500  1
  O  O6  1  0.82792200  0.53149500  0.38446500  1
  O  O7  1  0.29842700  0.75000000  0.37092400  1
  O  O8  1  0.70157300  0.25000000  0.62907600  1
  O  O9  1  0.17207800  0.03149500  0.61553500  1
  O  O10  1  0.17207800  0.46850500  0.61553500  1
  O  O11  1  0.59867400  0.75000000  0.64717500  1
  O  O12  1  0.09867400  0.25000000  0.85282500  1
  O  O13  1  0.67207800  0.53149500  0.88446500  1
  O  O14  1  0.67207800  0.96850500  0.88446500  1
  O  O15  1  0.20157300  0.75000000  0.87092400  1
loop_
_geom_bond_atom_site_label_1
_geom_bond_atom_site_label_2
_geom_bond_distance
_geom_bond_site_symmetry_2
Li0 O1 1.945045 1_565
Li0 O2 1.945045 1_555
Li0 O7 2.090580 1_555
Li0 O3 2.107873 1_555
Li1 O6 1.945045 1_555
Li1 O5 1.945045 1_545
Li1 O0 2.090580 1_555
Li1 O4 2.107873 1_655
Li2 O9 1.945045 1_565
Li2 O10 1.945045 1_555
Li2 O15 2.090580 1_555
Li2 O11 2.107873 1_455
Li3 O13 1.945045 1_555
Li3 O14 1.945045 1_545
Li3 O8 2.090580 1_555
Li3 O12 2.107873 1_555
O0 Si0 1.671626 1_555
O0 Ti0 2.189875 1_655
O0 Ti1 2.189875 1_655
O1 Si0 1.629450 1_555
O1 Ti0 1.968347 1_555
O2 Si0 1.629450 1_555
O2 Ti1 1.968347 1_555
O3 Si1 1.681542 1_555
O3 Ti1 2.113554 1_655
O3 Ti0 2.113554 1_665
O4 Si0 1.681542 1_555
O4 Ti2 2.113554 1_555
O4 Ti3 2.113554 1_555
O5 Si1 1.629450 1_555
O5 Ti2 1.968347 1_565
O6 Si1 1.629450 1_555
O6 Ti3 1.968347 1_555
O7 Si1 1.671626 1_455
O7 Ti2 2.189875 1_565
O7 Ti3 2.189875 1_555
O8 Si2 1.671626 1_655
O8 Ti3 2.189875 1_555
O8 Ti2 2.189875 1_555
O9 Si2 1.629450 1_555
O9 Ti2 1.968347 1_555
O10 Si2 1.629450 1_555
O10 Ti3 1.968347 1_555
O11 Si3 1.681542 1_555
O11 Ti3 2.113554 1_555
O11 Ti2 2.113554 1_565
O12 Si2 1.681542 1_555
O12 Ti0 2.113554 1_556
O12 Ti1 2.113554 1_556
O13 Si3 1.629450 1_555
O13 Ti1 1.968347 1_656
O14 Si3 1.629450 1_555
O14 Ti0 1.968347 1_666
O15 Si3 1.671626 1_555
O15 Ti1 2.189875 1_556
O15 Ti0 2.189875 1_566
