# generated using pymatgen
data_Li5Nb2Ni3O10
_symmetry_space_group_name_H-M   'P 1'
_cell_length_a   5.21076400
_cell_length_b   5.21924073
_cell_length_c   7.87913876
_cell_angle_alpha   71.34887749
_cell_angle_beta   71.37612630
_cell_angle_gamma   80.06706150
_symmetry_Int_Tables_number   1
_chemical_formula_structural   Li5Nb2Ni3O10
_chemical_formula_sum   'Li5 Nb2 Ni3 O10'
_cell_volume   191.80620754
_cell_formula_units_Z   1
loop_
 _symmetry_equiv_pos_site_id
 _symmetry_equiv_pos_as_xyz
  1  'x, y, z'
loop_
 _atom_site_type_symbol
 _atom_site_label
 _atom_site_symmetry_multiplicity
 _atom_site_fract_x
 _atom_site_fract_y
 _atom_site_fract_z
 _atom_site_occupancy
  Li  Li0  1  0.50621800  0.77649800  0.39742000  1
  Li  Li1  1  0.50679500  0.58114400  0.80076400  1
  Li  Li2  1  0.00000000  0.50000000  0.50000000  1
  Li  Li3  1  0.49320500  0.41885600  0.19923600  1
  Li  Li4  1  0.49378200  0.22350200  0.60258000  1
  Nb  Nb0  1  0.01281600  0.89892800  0.69190500  1
  Nb  Nb1  1  0.98718400  0.10107200  0.30809500  1
  Ni  Ni0  1  0.50000000  0.00000000  0.00000000  1
  Ni  Ni1  1  0.99645300  0.30110400  0.90031900  1
  Ni  Ni2  1  0.00354700  0.69889600  0.09968100  1
  O  O0  1  0.24004100  0.95246200  0.85076800  1
  O  O1  1  0.76343000  0.66165600  0.94355400  1
  O  O2  1  0.75509800  0.84862300  0.54925600  1
  O  O3  1  0.24018100  0.77352700  0.24645400  1
  O  O4  1  0.23563600  0.56729300  0.65434700  1
  O  O5  1  0.76436400  0.43270700  0.34565300  1
  O  O6  1  0.75981900  0.22647300  0.75354600  1
  O  O7  1  0.24490200  0.15137700  0.45074400  1
  O  O8  1  0.23657000  0.33834400  0.05644600  1
  O  O9  1  0.75995900  0.04753800  0.14923200  1
loop_
_geom_bond_atom_site_label_1
_geom_bond_atom_site_label_2
_geom_bond_distance
_geom_bond_site_symmetry_2
Li0 O3 2.099812 1_555
Li0 O5 2.116691 1_555
Li0 O4 2.138343 1_555
Li0 O2 2.168448 1_555
Li0 O9 2.190398 1_565
Li0 O7 2.258344 1_565
Li1 O4 2.112397 1_555
Li1 O6 2.142090 1_555
Li1 O1 2.165134 1_555
Li1 O2 2.183119 1_555
Li1 O8 2.194976 1_556
Li1 O0 2.247753 1_555
Li2 O2 2.103366 1_455
Li2 O7 2.103366 1_555
Li2 O4 2.117923 1_555
Li2 O5 2.117923 1_455
Li2 O6 2.188748 1_455
Li2 O3 2.188748 1_555
Li3 O5 2.112397 1_555
Li3 O3 2.142090 1_555
Li3 O8 2.165134 1_555
Li3 O7 2.183119 1_555
Li3 O1 2.194976 1_554
Li3 O9 2.247753 1_555
Li4 O6 2.099812 1_555
Li4 O4 2.116691 1_555
Li4 O5 2.138343 1_555
Li4 O7 2.168448 1_555
Li4 O0 2.190398 1_545
Li4 O2 2.258344 1_545
Nb0 O4 1.961235 1_555
Nb0 O6 2.059354 1_465
Nb0 O7 2.071178 1_565
Nb0 O0 2.081138 1_555
Nb0 O2 2.100007 1_455
Nb0 O1 2.119584 1_455
Nb1 O5 1.961235 1_555
Nb1 O3 2.059354 1_645
Nb1 O2 2.071178 1_545
Nb1 O9 2.081138 1_555
Nb1 O7 2.100007 1_655
Nb1 O8 2.119584 1_655
Ni0 O3 2.098974 1_545
Ni0 O6 2.098974 1_554
Ni0 O8 2.115792 1_555
Ni0 O1 2.115792 1_544
Ni0 O9 2.144495 1_555
Ni0 O0 2.144495 1_544
Ni1 O8 2.082406 1_656
Ni1 O6 2.091426 1_555
Ni1 O0 2.101354 1_645
Ni1 O9 2.115488 1_556
Ni1 O1 2.118759 1_555
Ni1 O4 2.138212 1_655
Ni2 O1 2.082406 1_454
Ni2 O3 2.091426 1_555
Ni2 O9 2.101354 1_465
Ni2 O0 2.115488 1_554
Ni2 O8 2.118759 1_555
Ni2 O5 2.138212 1_455
