# generated using pymatgen
data_SmIO
_symmetry_space_group_name_H-M   'P 1'
_cell_length_a   4.02143741
_cell_length_b   4.02143741
_cell_length_c   9.44322722
_cell_angle_alpha   90.00000000
_cell_angle_beta   90.00000000
_cell_angle_gamma   90.00000000
_symmetry_Int_Tables_number   1
_chemical_formula_structural   SmIO
_chemical_formula_sum   'Sm2 I2 O2'
_cell_volume   152.71548194
_cell_formula_units_Z   2
loop_
 _symmetry_equiv_pos_site_id
 _symmetry_equiv_pos_as_xyz
  1  'x, y, z'
loop_
 _atom_site_type_symbol
 _atom_site_label
 _atom_site_symmetry_multiplicity
 _atom_site_fract_x
 _atom_site_fract_y
 _atom_site_fract_z
 _atom_site_occupancy
  Sm  Sm0  1  0.00000000  0.50000000  0.12030476  1
  Sm  Sm1  1  0.50000000  -0.00000000  0.87969524  1
  I  I0  1  0.00000000  0.50000000  0.67815050  1
  I  I1  1  0.50000000  0.00000000  0.32184950  1
  O  O0  1  0.00000000  0.00000000  0.00000000  1
  O  O1  1  0.50000000  0.50000000  0.00000000  1
loop_
_geom_bond_atom_site_label_1
_geom_bond_atom_site_label_2
_geom_bond_distance
_geom_bond_site_symmetry_2
I0 Sm1 3.421736 1_465
I0 Sm1 3.421736 1_565
I0 Sm1 3.421736 1_555
I0 Sm1 3.421736 1_455
I1 Sm0 3.421736 1_645
I1 Sm0 3.421736 1_655
I1 Sm0 3.421736 1_545
I1 Sm0 3.421736 1_555
O0 Sm0 2.309466 1_545
O0 Sm1 2.309466 1_454
O0 Sm0 2.309466 1_555
O0 Sm1 2.309466 1_554
O1 Sm1 2.309466 1_564
O1 Sm0 2.309466 1_555
O1 Sm1 2.309466 1_554
O1 Sm0 2.309466 1_655
