# generated using pymatgen
data_Li2Mn3(PO4)3
_symmetry_space_group_name_H-M   'P 1'
_cell_length_a   8.73217736
_cell_length_b   8.73217736
_cell_length_c   6.67910763
_cell_angle_alpha   71.55650184
_cell_angle_beta   71.55650184
_cell_angle_gamma   92.48843911
_symmetry_Int_Tables_number   1
_chemical_formula_structural   Li2Mn3(PO4)3
_chemical_formula_sum   'Li4 Mn6 P6 O24'
_cell_volume   452.44866452
_cell_formula_units_Z   2
loop_
 _symmetry_equiv_pos_site_id
 _symmetry_equiv_pos_as_xyz
  1  'x, y, z'
loop_
 _atom_site_type_symbol
 _atom_site_label
 _atom_site_symmetry_multiplicity
 _atom_site_fract_x
 _atom_site_fract_y
 _atom_site_fract_z
 _atom_site_occupancy
  Li  Li0  1  0.50000000  0.50000000  0.50000000  1
  Li  Li1  1  0.50000000  0.50000000  0.00000000  1
  Li  Li2  1  0.99003000  0.00997000  0.75000000  1
  Li  Li3  1  0.00997000  0.99003000  0.25000000  1
  Mn  Mn0  1  0.06278200  0.38012200  0.36236200  1
  Mn  Mn1  1  0.38012200  0.06278200  0.86236200  1
  Mn  Mn2  1  0.27369600  0.72630400  0.75000000  1
  Mn  Mn3  1  0.72630400  0.27369600  0.25000000  1
  Mn  Mn4  1  0.61987800  0.93721800  0.13763800  1
  Mn  Mn5  1  0.93721800  0.61987800  0.63763800  1
  P  P0  1  0.12317800  0.33794400  0.87469600  1
  P  P1  1  0.33794400  0.12317800  0.37469600  1
  P  P2  1  0.70747000  0.29253000  0.75000000  1
  P  P3  1  0.29253000  0.70747000  0.25000000  1
  P  P4  1  0.66205600  0.87682200  0.62530400  1
  P  P5  1  0.87682200  0.66205600  0.12530400  1
  O  O0  1  0.15811000  0.15955100  0.90311400  1
  O  O1  1  0.15955100  0.15811000  0.40311400  1
  O  O2  1  0.39603700  0.04397100  0.19012400  1
  O  O3  1  0.04397100  0.39603700  0.69012400  1
  O  O4  1  0.00572400  0.67424800  0.89520300  1
  O  O5  1  0.67424800  0.00572400  0.39520300  1
  O  O6  1  0.46217200  0.27844900  0.30995700  1
  O  O7  1  0.27844900  0.46217200  0.80995700  1
  O  O8  1  0.53429500  0.27530800  0.73305600  1
  O  O9  1  0.27530800  0.53429500  0.23305600  1
  O  O10  1  0.73332600  0.17475300  0.96235500  1
  O  O11  1  0.17475300  0.73332600  0.46235500  1
  O  O12  1  0.26667400  0.82524700  0.03764500  1
  O  O13  1  0.82524700  0.26667400  0.53764500  1
  O  O14  1  0.72469200  0.46570500  0.76694400  1
  O  O15  1  0.46570500  0.72469200  0.26694400  1
  O  O16  1  0.53782800  0.72155100  0.69004300  1
  O  O17  1  0.72155100  0.53782800  0.19004300  1
  O  O18  1  0.32575200  0.99427600  0.60479700  1
  O  O19  1  0.99427600  0.32575200  0.10479700  1
  O  O20  1  0.95602900  0.60396300  0.30987600  1
  O  O21  1  0.60396300  0.95602900  0.80987600  1
  O  O22  1  0.84189000  0.84044900  0.09688600  1
  O  O23  1  0.84044900  0.84189000  0.59688600  1
loop_
_geom_bond_atom_site_label_1
_geom_bond_atom_site_label_2
_geom_bond_distance
_geom_bond_site_symmetry_2
Li0 O8 2.185372 1_555
Li0 O15 2.185372 1_555
Li0 O7 2.261719 1_555
Li0 O17 2.261719 1_555
Li1 O9 2.185372 1_555
Li1 O14 2.185372 1_554
Li1 O6 2.261719 1_555
Li1 O16 2.261719 1_554
Li2 O1 2.236035 1_655
Li2 O22 2.236035 1_546
Li2 O23 2.556271 1_545
Li2 O0 2.556271 1_655
Li3 O0 2.236035 1_564
Li3 O23 2.236035 1_455
Li3 O22 2.556271 1_455
Li3 O1 2.556271 1_565
Mn0 O9 2.008879 1_555
Mn0 O13 2.050738 1_455
Mn0 O1 2.121409 1_555
Mn0 O19 2.164712 1_455
Mn0 O20 2.178034 1_455
Mn0 O3 2.192182 1_555
Mn1 O8 2.008879 1_555
Mn1 O12 2.050738 1_546
Mn1 O0 2.121409 1_555
Mn1 O18 2.164712 1_545
Mn1 O21 2.178034 1_545
Mn1 O2 2.192182 1_556
Mn2 O4 2.194417 1_555
Mn2 O18 2.194417 1_555
Mn2 O7 2.217250 1_555
Mn2 O16 2.217250 1_555
Mn2 O12 2.328441 1_556
Mn2 O11 2.328441 1_555
Mn3 O5 2.194417 1_555
Mn3 O19 2.194417 1_555
Mn3 O6 2.217250 1_555
Mn3 O17 2.217250 1_555
Mn3 O10 2.328441 1_554
Mn3 O13 2.328441 1_555
Mn4 O15 2.008879 1_555
Mn4 O10 2.050738 1_564
Mn4 O22 2.121409 1_555
Mn4 O5 2.164712 1_565
Mn4 O2 2.178034 1_565
Mn4 O21 2.192182 1_554
Mn5 O14 2.008879 1_555
Mn5 O11 2.050738 1_655
Mn5 O23 2.121409 1_555
Mn5 O4 2.164712 1_655
Mn5 O3 2.178034 1_655
Mn5 O20 2.192182 1_555
O0 P0 1.564128 1_555
O1 P1 1.564128 1_555
O2 P1 1.558759 1_555
O3 P0 1.558759 1_555
O4 P5 1.559411 1_456
O5 P4 1.559411 1_545
O6 P1 1.551320 1_555
O7 P0 1.551320 1_555
O8 P2 1.556105 1_555
O9 P3 1.556105 1_555
O10 P2 1.555697 1_555
O11 P3 1.555697 1_555
O12 P3 1.555697 1_555
O13 P2 1.555697 1_555
O14 P2 1.556105 1_555
O15 P3 1.556105 1_555
O16 P4 1.551320 1_555
O17 P5 1.551320 1_555
O18 P1 1.559411 1_565
O19 P0 1.559411 1_654
O20 P5 1.558759 1_555
O21 P4 1.558759 1_555
O22 P5 1.564128 1_555
O23 P4 1.564128 1_555
