# generated using pymatgen
data_H8S(NO3)2
_symmetry_space_group_name_H-M   'P 1'
_cell_length_a   7.41122100
_cell_length_b   7.99658100
_cell_length_c   10.57565384
_cell_angle_alpha   72.87039614
_cell_angle_beta   90.00000000
_cell_angle_gamma   90.00000000
_symmetry_Int_Tables_number   1
_chemical_formula_structural   H8S(NO3)2
_chemical_formula_sum   'H32 S4 N8 O24'
_cell_volume   598.95761145
_cell_formula_units_Z   4
loop_
 _symmetry_equiv_pos_site_id
 _symmetry_equiv_pos_as_xyz
  1  'x, y, z'
loop_
 _atom_site_type_symbol
 _atom_site_label
 _atom_site_symmetry_multiplicity
 _atom_site_fract_x
 _atom_site_fract_y
 _atom_site_fract_z
 _atom_site_occupancy
  H  H0  1  0.42363900  0.03859300  0.82441900  1
  H  H1  1  0.92363900  0.96140700  0.67558100  1
  H  H2  1  0.57636100  0.96140700  0.17558100  1
  H  H3  1  0.07636100  0.03859300  0.32441900  1
  H  H4  1  0.54139900  0.91751500  0.73948600  1
  H  H5  1  0.04139900  0.08248500  0.76051400  1
  H  H6  1  0.45860100  0.08248500  0.26051400  1
  H  H7  1  0.95860100  0.91751500  0.23948600  1
  H  H8  1  0.49739200  0.13526900  0.66806100  1
  H  H9  1  0.99739200  0.86473100  0.83193900  1
  H  H10  1  0.50260800  0.86473100  0.33193900  1
  H  H11  1  0.00260800  0.13526900  0.16806100  1
  H  H12  1  0.69806900  0.01508100  0.90208400  1
  H  H13  1  0.19806900  0.98491900  0.59791600  1
  H  H14  1  0.30193100  0.98491900  0.09791600  1
  H  H15  1  0.80193100  0.01508100  0.40208400  1
  H  H16  1  0.69215800  0.34300700  0.37475000  1
  H  H17  1  0.19215800  0.65699300  0.12525000  1
  H  H18  1  0.30784200  0.65699300  0.62525000  1
  H  H19  1  0.80784200  0.34300700  0.87475000  1
  H  H20  1  0.73694900  0.52854800  0.41451600  1
  H  H21  1  0.23694900  0.47145200  0.08548400  1
  H  H22  1  0.26305100  0.47145200  0.58548400  1
  H  H23  1  0.76305100  0.52854800  0.91451600  1
  H  H24  1  0.91148700  0.42001800  0.36330100  1
  H  H25  1  0.41148700  0.57998200  0.13669900  1
  H  H26  1  0.08851300  0.57998200  0.63669900  1
  H  H27  1  0.58851300  0.42001800  0.86330100  1
  H  H28  1  0.81973000  0.39391700  0.59798200  1
  H  H29  1  0.31973000  0.60608300  0.90201800  1
  H  H30  1  0.18027000  0.60608300  0.40201800  1
  H  H31  1  0.68027000  0.39391700  0.09798200  1
  S  S0  1  0.69219800  0.72709900  0.58645000  1
  S  S1  1  0.19219800  0.27290100  0.91355000  1
  S  S2  1  0.30780200  0.27290100  0.41355000  1
  S  S3  1  0.80780200  0.72709900  0.08645000  1
  N  N0  1  0.52762200  0.03935900  0.75722700  1
  N  N1  1  0.02762200  0.96064100  0.74277300  1
  N  N2  1  0.47237800  0.96064100  0.24277300  1
  N  N3  1  0.97237800  0.03935900  0.25722700  1
  N  N4  1  0.78957900  0.40669500  0.41465500  1
  N  N5  1  0.28957900  0.59330500  0.08534500  1
  N  N6  1  0.21042100  0.59330500  0.58534500  1
  N  N7  1  0.71042100  0.40669500  0.91465500  1
  O  O0  1  0.62400400  0.70171100  0.46032100  1
  O  O1  1  0.12400400  0.29828900  0.03967900  1
  O  O2  1  0.37599600  0.29828900  0.53967900  1
  O  O3  1  0.87599600  0.70171100  0.96032100  1
  O  O4  1  0.82308800  0.58360400  0.64902500  1
  O  O5  1  0.32308800  0.41639600  0.85097500  1
  O  O6  1  0.17691200  0.41639600  0.35097500  1
  O  O7  1  0.67691200  0.58360400  0.14902500  1
  O  O8  1  0.54052000  0.72488000  0.67889500  1
  O  O9  1  0.04052000  0.27512000  0.82110500  1
  O  O10  1  0.45948000  0.27512000  0.32110500  1
  O  O11  1  0.95948000  0.72488000  0.17889500  1
  O  O12  1  0.78571300  0.90182500  0.55588100  1
  O  O13  1  0.28571300  0.09817500  0.94411900  1
  O  O14  1  0.21428700  0.09817500  0.44411900  1
  O  O15  1  0.71428700  0.90182500  0.05588100  1
  O  O16  1  0.69050800  0.09009500  0.80596100  1
  O  O17  1  0.19050800  0.90990500  0.69403900  1
  O  O18  1  0.30949200  0.90990500  0.19403900  1
  O  O19  1  0.80949200  0.09009500  0.30596100  1
  O  O20  1  0.82259100  0.30563500  0.54747300  1
  O  O21  1  0.32259100  0.69436500  0.95252700  1
  O  O22  1  0.17740900  0.69436500  0.45252700  1
  O  O23  1  0.67740900  0.30563500  0.04747300  1
loop_
_geom_bond_atom_site_label_1
_geom_bond_atom_site_label_2
_geom_bond_distance
_geom_bond_site_symmetry_2
H0 N0 1.047049 1_555
H1 N1 1.047049 1_655
H2 N2 1.047049 1_555
H3 N3 1.047049 1_455
H4 N0 1.050068 1_565
H5 N1 1.050068 1_545
H6 N2 1.050068 1_545
H7 N3 1.050068 1_565
H8 N0 1.049575 1_555
H9 N1 1.049575 1_655
H10 N2 1.049575 1_555
H11 N3 1.049575 1_455
H12 O16 1.018410 1_555
H12 O15 1.616307 1_546
H13 O17 1.018410 1_555
H13 O14 1.616307 1_565
H14 O18 1.018410 1_555
H14 O13 1.616307 1_564
H15 O19 1.018410 1_555
H15 O12 1.616307 1_545
H16 N4 1.041815 1_555
H17 N5 1.041815 1_555
H18 N6 1.041815 1_555
H19 N7 1.041815 1_555
H20 N4 1.049175 1_555
H21 N5 1.049175 1_555
H22 N6 1.049175 1_555
H23 N7 1.049175 1_555
H24 N4 1.043319 1_555
H25 N5 1.043319 1_555
H26 N6 1.043319 1_555
H27 N7 1.043319 1_555
H28 O20 1.003140 1_555
H29 O21 1.003140 1_555
H30 O22 1.003140 1_555
H31 O23 1.003140 1_555
N0 O16 1.417993 1_555
N1 O17 1.417993 1_555
N2 O18 1.417993 1_555
N3 O19 1.417993 1_555
N4 O20 1.420307 1_555
N5 O21 1.420307 1_554
N6 O22 1.420307 1_555
N7 O23 1.420307 1_556
O0 S0 1.495142 1_555
O1 S1 1.495142 1_554
O2 S2 1.495142 1_555
O3 S3 1.495142 1_556
O4 S0 1.499439 1_555
O5 S1 1.499439 1_555
O6 S2 1.499439 1_555
O7 S3 1.499439 1_555
O8 S0 1.486463 1_555
O9 S1 1.486463 1_555
O10 S2 1.486463 1_555
O11 S3 1.486463 1_555
O12 S0 1.506971 1_555
O13 S1 1.506971 1_555
O14 S2 1.506971 1_555
O15 S3 1.506971 1_555
