# generated using pymatgen
data_Li34(Sb3S2)3
_symmetry_space_group_name_H-M   'P 1'
_cell_length_a   11.70584875
_cell_length_b   11.70584875
_cell_length_c   11.70584875
_cell_angle_alpha   129.97550640
_cell_angle_beta   129.97550640
_cell_angle_gamma   73.44592479
_symmetry_Int_Tables_number   1
_chemical_formula_structural   Li34(Sb3S2)3
_chemical_formula_sum   'Li34 Sb9 S6'
_cell_volume   919.36155741
_cell_formula_units_Z   1
loop_
 _symmetry_equiv_pos_site_id
 _symmetry_equiv_pos_as_xyz
  1  'x, y, z'
loop_
 _atom_site_type_symbol
 _atom_site_label
 _atom_site_symmetry_multiplicity
 _atom_site_fract_x
 _atom_site_fract_y
 _atom_site_fract_z
 _atom_site_occupancy
  Li  Li0  1  0.71823500  0.15231900  0.87055400  1
  Li  Li1  1  0.05479100  0.34506500  0.14850000  1
  Li  Li2  1  0.15231900  0.28176500  0.43408400  1
  Li  Li3  1  0.48710200  0.35792300  0.69299900  1
  Li  Li4  1  0.65602800  0.54945900  0.72611600  1
  Li  Li5  1  0.92991200  0.65602800  0.10656800  1
  Li  Li6  1  0.79410300  0.48710200  0.12917900  1
  Li  Li7  1  0.65493500  0.80343600  0.70972600  1
  Li  Li8  1  0.07382100  0.57382100  0.50000000  1
  Li  Li9  1  0.25000000  0.75000000  0.50000000  1
  Li  Li10  1  0.42617900  0.92617900  0.50000000  1
  Li  Li11  1  0.09371000  0.94520900  0.29027400  1
  Li  Li12  1  0.35792300  0.66492400  0.87082100  1
  Li  Li13  1  0.54945900  0.82334400  0.89343200  1
  Li  Li14  1  0.82334400  0.92991200  0.27388400  1
  Li  Li15  1  0.80343600  0.09371000  0.14850000  1
  Li  Li16  1  0.66492400  0.79410300  0.30700100  1
  Li  Li17  1  0.84768100  0.71823500  0.56591600  1
  Li  Li18  1  0.33507600  0.20589700  0.69299900  1
  Li  Li19  1  0.19656400  0.90629000  0.85150000  1
  Li  Li20  1  0.17665600  0.07008800  0.72611600  1
  Li  Li21  1  0.28176500  0.84768100  0.12944600  1
  Li  Li22  1  0.45054100  0.17665600  0.10656800  1
  Li  Li23  1  0.64207700  0.33507600  0.12917900  1
  Li  Li24  1  0.90629000  0.05479100  0.70972600  1
  Li  Li25  1  0.75000000  0.25000000  0.50000000  1
  Li  Li26  1  0.92617900  0.42617900  0.50000000  1
  Li  Li27  1  0.57382100  0.07382100  0.50000000  1
  Li  Li28  1  0.34506500  0.19656400  0.29027400  1
  Li  Li29  1  0.20589700  0.51289800  0.87082100  1
  Li  Li30  1  0.07008800  0.34397200  0.89343200  1
  Li  Li31  1  0.34397200  0.45054100  0.27388400  1
  Li  Li32  1  0.51289800  0.64207700  0.30700100  1
  Li  Li33  1  0.94520900  0.65493500  0.85150000  1
  Sb  Sb0  1  0.78559900  0.34798100  0.81955100  1
  Sb  Sb1  1  0.34798100  0.52843000  0.56238300  1
  Sb  Sb2  1  0.50000000  0.50000000  0.00000000  1
  Sb  Sb3  1  0.96604800  0.78559900  0.43761700  1
  Sb  Sb4  1  0.47157000  0.03395200  0.81955100  1
  Sb  Sb5  1  0.52843000  0.96604800  0.18044900  1
  Sb  Sb6  1  0.03395200  0.21440100  0.56238300  1
  Sb  Sb7  1  0.65201900  0.47157000  0.43761700  1
  Sb  Sb8  1  0.21440100  0.65201900  0.18044900  1
  S  S0  1  0.31523300  0.10178000  0.41701300  1
  S  S1  1  0.89822000  0.31523300  0.21345300  1
  S  S2  1  0.81648400  0.81648400  0.00000000  1
  S  S3  1  0.10178000  0.68476700  0.78654700  1
  S  S4  1  0.68476700  0.89822000  0.58298700  1
  S  S5  1  0.18351600  0.18351600  0.00000000  1
loop_
_geom_bond_atom_site_label_1
_geom_bond_atom_site_label_2
_geom_bond_distance
_geom_bond_site_symmetry_2
Li0 S1 2.403084 1_556
Li0 S4 2.536985 1_545
Li0 Sb4 3.100857 1_555
Li0 Sb0 3.100857 1_555
Li1 S5 2.527142 1_555
Li1 S1 2.560399 1_455
Li1 Sb0 3.045439 1_454
Li1 Sb1 3.054356 1_555
Li2 S0 2.403084 1_555
Li2 S1 2.536985 1_455
Li2 Sb1 3.100850 1_555
Li2 Sb6 3.100868 1_555
Li3 S0 2.472705 1_555
Li3 Sb2 2.733079 1_556
Li3 Sb0 2.784957 1_555
Li3 Sb1 2.800565 1_555
Li4 S2 2.511647 1_556
Li4 Sb1 2.784978 1_555
Li4 Sb7 2.846542 1_555
Li4 Sb0 2.864203 1_555
Li5 S2 2.511639 1_555
Li5 Sb0 2.784976 1_554
Li5 Sb8 2.846526 1_655
Li5 Sb3 2.864203 1_555
Li6 S1 2.472705 1_555
Li6 Sb2 2.733079 1_555
Li6 Sb3 2.784957 1_555
Li6 Sb0 2.800572 1_554
Li7 S2 2.527148 1_556
Li7 S4 2.560389 1_555
Li7 Sb7 3.045449 1_555
Li7 Sb4 3.054347 1_565
Li8 S3 2.505820 1_555
Li8 S1 2.505820 1_455
Li8 Sb1 2.762354 1_555
Li8 Sb3 2.762365 1_455
Li9 Sb3 2.870207 1_455
Li9 Sb4 2.870211 1_565
Li9 Sb8 2.870211 1_555
Li9 Sb1 2.870218 1_555
Li10 S0 2.505820 1_565
Li10 S4 2.505820 1_555
Li10 Sb8 2.762359 1_555
Li10 Sb4 2.762359 1_565
Li11 S2 2.527148 1_455
Li11 S0 2.560389 1_565
Li11 Sb6 3.045452 1_565
Li11 Sb8 3.054347 1_555
Li12 S3 2.472705 1_555
Li12 Sb2 2.733079 1_556
Li12 Sb1 2.784946 1_555
Li12 Sb5 2.800572 1_556
Li13 S2 2.511650 1_556
Li13 Sb5 2.784968 1_556
Li13 Sb4 2.846527 1_565
Li13 Sb1 2.864209 1_555
Li14 S2 2.511639 1_555
Li14 Sb3 2.784968 1_555
Li14 Sb6 2.846524 1_665
Li14 Sb5 2.864213 1_555
Li15 S2 2.527150 1_545
Li15 S1 2.560382 1_555
Li15 Sb4 3.045443 1_554
Li15 Sb6 3.054364 1_655
Li16 S4 2.472705 1_555
Li16 Sb2 2.733079 1_555
Li16 Sb5 2.784957 1_555
Li16 Sb3 2.800575 1_555
Li17 S4 2.403084 1_555
Li17 S3 2.536985 1_655
Li17 Sb7 3.100850 1_555
Li17 Sb3 3.100868 1_555
Li18 S0 2.472705 1_555
Li18 Sb2 2.733079 1_556
Li18 Sb4 2.784957 1_555
Li18 Sb6 2.800575 1_555
Li19 S5 2.527150 1_566
Li19 S3 2.560382 1_555
Li19 Sb5 3.045443 1_556
Li19 Sb3 3.054364 1_455
Li20 S5 2.511639 1_556
Li20 Sb6 2.784968 1_555
Li20 Sb3 2.846524 1_445
Li20 Sb4 2.864213 1_555
Li21 S3 2.403084 1_554
Li21 S0 2.536985 1_565
Li21 Sb5 3.100857 1_555
Li21 Sb8 3.100857 1_555
Li22 S5 2.511650 1_555
Li22 Sb4 2.784968 1_554
Li22 Sb5 2.846527 1_545
Li22 Sb7 2.864209 1_555
Li23 S1 2.472705 1_555
Li23 Sb2 2.733079 1_555
Li23 Sb7 2.784946 1_555
Li23 Sb4 2.800572 1_554
Li24 S5 2.527148 1_656
Li24 S4 2.560389 1_545
Li24 Sb3 3.045452 1_545
Li24 Sb0 3.054347 1_555
Li25 Sb6 2.870207 1_655
Li25 Sb5 2.870211 1_545
Li25 Sb0 2.870211 1_555
Li25 Sb7 2.870218 1_555
Li26 S3 2.505820 1_655
Li26 S1 2.505820 1_555
Li26 Sb7 2.762354 1_555
Li26 Sb6 2.762365 1_655
Li27 S4 2.505820 1_545
Li27 S0 2.505820 1_555
Li27 Sb5 2.762359 1_545
Li27 Sb0 2.762359 1_555
Li28 S5 2.527148 1_555
Li28 S0 2.560389 1_555
Li28 Sb1 3.045449 1_555
Li28 Sb5 3.054347 1_545
Li29 S3 2.472705 1_555
Li29 Sb2 2.733079 1_556
Li29 Sb6 2.784957 1_555
Li29 Sb8 2.800572 1_556
Li30 S5 2.511639 1_556
Li30 Sb8 2.784976 1_556
Li30 Sb0 2.846526 1_455
Li30 Sb6 2.864203 1_555
Li31 S5 2.511647 1_555
Li31 Sb7 2.784978 1_555
Li31 Sb1 2.846542 1_555
Li31 Sb8 2.864203 1_555
Li32 S4 2.472705 1_555
Li32 Sb2 2.733079 1_555
Li32 Sb8 2.784957 1_555
Li32 Sb7 2.800565 1_555
Li33 S2 2.527142 1_556
Li33 S3 2.560399 1_655
Li33 Sb8 3.045439 1_656
Li33 Sb7 3.054356 1_555
