# generated using pymatgen
data_KAuS
_symmetry_space_group_name_H-M   'P 1'
_cell_length_a   5.04562125
_cell_length_b   5.04562123
_cell_length_c   6.68526250
_cell_angle_alpha   90.00000000
_cell_angle_beta   90.00000000
_cell_angle_gamma   102.53933749
_symmetry_Int_Tables_number   1
_chemical_formula_structural   KAuS
_chemical_formula_sum   'K2 Au2 S2'
_cell_volume   166.13573598
_cell_formula_units_Z   2
loop_
 _symmetry_equiv_pos_site_id
 _symmetry_equiv_pos_as_xyz
  1  'x, y, z'
loop_
 _atom_site_type_symbol
 _atom_site_label
 _atom_site_symmetry_multiplicity
 _atom_site_fract_x
 _atom_site_fract_y
 _atom_site_fract_z
 _atom_site_occupancy
  K  K0  1  0.62691854  0.37308046  0.25000000  1
  K  K1  1  0.37308046  0.62691854  0.75000000  1
  Au  Au0  1  0.00000000  -0.00000000  0.00000000  1
  Au  Au1  1  0.00000000  -0.00000000  0.50000000  1
  S  S0  1  0.20387686  0.79612314  0.25000000  1
  S  S1  1  0.79612314  0.20387686  0.75000000  1
loop_
_geom_bond_atom_site_label_1
_geom_bond_atom_site_label_2
_geom_bond_distance
_geom_bond_site_symmetry_2
K0 S0 3.214425 1_545
K0 S0 3.214431 1_655
K0 S0 3.330260 1_555
K0 S1 3.598252 1_555
K0 S1 3.598252 1_554
K1 S1 3.214425 1_455
K1 S1 3.214431 1_565
K1 S1 3.330260 1_555
K1 S0 3.598252 1_555
K1 S0 3.598252 1_556
Au0 S1 2.317147 1_454
Au0 S0 2.317147 1_545
Au0 K1 3.379203 1_544
Au0 K0 3.379203 1_455
Au0 K1 3.709051 1_554
Au0 K0 3.709051 1_555
Au0 K0 3.709056 1_445
Au0 K1 3.709056 1_444
Au1 S1 2.317147 1_455
Au1 S0 2.317147 1_545
Au1 K1 3.379203 1_545
Au1 K0 3.379203 1_455
Au1 K1 3.709051 1_555
Au1 K0 3.709051 1_555
Au1 K0 3.709056 1_445
Au1 K1 3.709056 1_445
