# generated using pymatgen
data_NaCaAlH2OF6
_symmetry_space_group_name_H-M   'P 1'
_cell_length_a   8.07319684
_cell_length_b   8.07319684
_cell_length_c   10.04886500
_cell_angle_alpha   62.77369274
_cell_angle_beta   62.77369274
_cell_angle_gamma   81.57601725
_symmetry_Int_Tables_number   1
_chemical_formula_structural   NaCaAlH2OF6
_chemical_formula_sum   'Na4 Ca4 Al4 H8 O4 F24'
_cell_volume   516.22430465
_cell_formula_units_Z   4
loop_
 _symmetry_equiv_pos_site_id
 _symmetry_equiv_pos_as_xyz
  1  'x, y, z'
loop_
 _atom_site_type_symbol
 _atom_site_label
 _atom_site_symmetry_multiplicity
 _atom_site_fract_x
 _atom_site_fract_y
 _atom_site_fract_z
 _atom_site_occupancy
  Na  Na0  1  0.73944300  0.49364100  0.00801500  1
  Na  Na1  1  0.49364100  0.73944300  0.50801500  1
  Na  Na2  1  0.50635900  0.26055700  0.49198500  1
  Na  Na3  1  0.26055700  0.50635900  0.99198500  1
  Ca  Ca0  1  0.07781900  0.92218100  0.75000000  1
  Ca  Ca1  1  0.92218100  0.07781900  0.25000000  1
  Ca  Ca2  1  0.67934000  0.32066000  0.75000000  1
  Ca  Ca3  1  0.32066000  0.67934000  0.25000000  1
  Al  Al0  1  0.39920800  0.15217000  0.25616500  1
  Al  Al1  1  0.15217000  0.39920800  0.75616500  1
  Al  Al2  1  0.84783000  0.60079200  0.24383500  1
  Al  Al3  1  0.60079200  0.84783000  0.74383500  1
  H  H0  1  0.77267100  0.00583200  0.02433700  1
  H  H1  1  0.00583200  0.77267100  0.52433700  1
  H  H2  1  0.68790700  0.91620500  0.95727500  1
  H  H3  1  0.91620500  0.68790700  0.45727500  1
  H  H4  1  0.99416800  0.22732900  0.47566300  1
  H  H5  1  0.22732900  0.99416800  0.97566300  1
  H  H6  1  0.08379500  0.31209300  0.54272500  1
  H  H7  1  0.31209300  0.08379500  0.04272500  1
  O  O0  1  0.77256400  0.01980800  0.92239100  1
  O  O1  1  0.01980800  0.77256400  0.42239100  1
  O  O2  1  0.98019200  0.22743600  0.57760900  1
  O  O3  1  0.22743600  0.98019200  0.07760900  1
  F  F0  1  0.58699300  0.08685700  0.71732400  1
  F  F1  1  0.08685700  0.58699300  0.21732400  1
  F  F2  1  0.35019700  0.83009200  0.79961400  1
  F  F3  1  0.83009200  0.35019700  0.29961400  1
  F  F4  1  0.33199900  0.06096200  0.47952100  1
  F  F5  1  0.06096200  0.33199900  0.97952100  1
  F  F6  1  0.45782300  0.24415800  0.03089900  1
  F  F7  1  0.24415800  0.45782300  0.53089900  1
  F  F8  1  0.15544900  0.15398900  0.79518700  1
  F  F9  1  0.15398900  0.15544900  0.29518700  1
  F  F10  1  0.39179300  0.39834700  0.72970700  1
  F  F11  1  0.39834700  0.39179300  0.22970700  1
  F  F12  1  0.91314300  0.41300700  0.78267600  1
  F  F13  1  0.41300700  0.91314300  0.28267600  1
  F  F14  1  0.16990800  0.64980300  0.70038600  1
  F  F15  1  0.64980300  0.16990800  0.20038600  1
  F  F16  1  0.93903800  0.66800100  0.02047900  1
  F  F17  1  0.66800100  0.93903800  0.52047900  1
  F  F18  1  0.75584200  0.54217700  0.46910100  1
  F  F19  1  0.54217700  0.75584200  0.96910100  1
  F  F20  1  0.84601100  0.84455100  0.70481300  1
  F  F21  1  0.84455100  0.84601100  0.20481300  1
  F  F22  1  0.60165300  0.60820700  0.77029300  1
  F  F23  1  0.60820700  0.60165300  0.27029300  1
loop_
_geom_bond_atom_site_label_1
_geom_bond_atom_site_label_2
_geom_bond_distance
_geom_bond_site_symmetry_2
Ca0 F8 2.341542 1_565
Ca0 F20 2.341542 1_455
Ca0 F16 2.374336 1_456
Ca0 F4 2.374336 1_565
Ca0 F2 2.412823 1_555
Ca0 F14 2.412823 1_555
Ca0 O2 2.543479 1_465
Ca0 O0 2.543479 1_465
Ca1 F9 2.341542 1_655
Ca1 F21 2.341542 1_545
Ca1 F5 2.374336 1_654
Ca1 F17 2.374336 1_545
Ca1 F3 2.412823 1_555
Ca1 F15 2.412823 1_555
Ca1 O1 2.543479 1_645
Ca1 O3 2.543479 1_645
Ca2 F0 2.330205 1_555
Ca2 F12 2.330205 1_555
Ca2 F6 2.378405 1_556
Ca2 F18 2.378405 1_555
Ca2 F10 2.390291 1_555
Ca2 F22 2.390291 1_555
Ca2 O2 2.504812 1_555
Ca2 O0 2.504812 1_555
Ca3 F13 2.330205 1_555
Ca3 F1 2.330205 1_555
Ca3 F19 2.378405 1_554
Ca3 F7 2.378405 1_555
Ca3 F23 2.390291 1_555
Ca3 F11 2.390291 1_555
Ca3 O3 2.504812 1_555
Ca3 O1 2.504812 1_555
Al0 F13 1.816850 1_545
Al0 F11 1.827634 1_555
Al0 F9 1.832350 1_555
Al0 F4 1.834328 1_555
Al0 F15 1.844305 1_555
Al0 F6 1.866609 1_555
Al1 F12 1.816850 1_455
Al1 F10 1.827634 1_555
Al1 F8 1.832350 1_555
Al1 F5 1.834328 1_555
Al1 F14 1.844305 1_555
Al1 F7 1.866609 1_555
Al2 F1 1.816850 1_655
Al2 F23 1.827634 1_555
Al2 F21 1.832350 1_555
Al2 F16 1.834328 1_555
Al2 F3 1.844305 1_555
Al2 F18 1.866609 1_555
Al3 F0 1.816850 1_565
Al3 F22 1.827634 1_555
Al3 F20 1.832350 1_555
Al3 F17 1.834328 1_555
Al3 F2 1.844305 1_555
Al3 F19 1.866609 1_555
H0 O0 0.978380 1_554
H1 O1 0.978380 1_555
H2 O0 0.984660 1_565
H3 O1 0.984660 1_655
H4 O2 0.978380 1_555
H5 O3 0.978380 1_556
H6 O2 0.984660 1_455
H7 O3 0.984660 1_545
F0 Na2 2.386117 1_555
F1 Na3 2.386117 1_554
F2 Na3 2.396354 1_555
F3 Na2 2.396354 1_555
F4 Na2 2.367325 1_555
F4 Na1 2.681770 1_545
F5 Na3 2.367325 1_555
F5 Na0 2.681770 1_456
F6 Na3 2.448413 1_554
F7 Na2 2.448413 1_555
F8 Na2 2.909753 1_555
F9 Na3 2.909753 1_554
F10 Na1 2.568283 1_555
F10 Na2 2.812084 1_555
F10 Na3 2.847180 1_555
F11 Na0 2.568283 1_555
F11 Na3 2.812084 1_554
F11 Na2 2.847180 1_555
F12 Na0 2.386117 1_556
F13 Na1 2.386117 1_555
F14 Na1 2.396354 1_555
F15 Na0 2.396354 1_555
F16 Na0 2.367325 1_555
F16 Na3 2.681770 1_654
F17 Na1 2.367325 1_555
F17 Na2 2.681770 1_565
F18 Na1 2.448413 1_555
F19 Na0 2.448413 1_556
F20 Na0 2.909753 1_556
F21 Na1 2.909753 1_555
F22 Na3 2.568283 1_555
F22 Na0 2.812084 1_556
F22 Na1 2.847180 1_555
F23 Na2 2.568283 1_555
F23 Na1 2.812084 1_555
F23 Na0 2.847180 1_555
