# generated using pymatgen
data_Sr3Hf2O7
_symmetry_space_group_name_H-M   'P 1'
_cell_length_a   11.00477405
_cell_length_b   11.00477405
_cell_length_c   5.71413511
_cell_angle_alpha   90.00000000
_cell_angle_beta   90.00000000
_cell_angle_gamma   149.90318609
_symmetry_Int_Tables_number   1
_chemical_formula_structural   Sr3Hf2O7
_chemical_formula_sum   'Sr6 Hf4 O14'
_cell_volume   347.01746793
_cell_formula_units_Z   2
loop_
 _symmetry_equiv_pos_site_id
 _symmetry_equiv_pos_as_xyz
  1  'x, y, z'
loop_
 _atom_site_type_symbol
 _atom_site_label
 _atom_site_symmetry_multiplicity
 _atom_site_fract_x
 _atom_site_fract_y
 _atom_site_fract_z
 _atom_site_occupancy
  Sr  Sr0  1  0.18837557  0.81162443  0.50000000  1
  Sr  Sr1  1  0.81162443  0.18837557  0.50000000  1
  Sr  Sr2  1  0.68837557  0.31162443  -0.00000000  1
  Sr  Sr3  1  0.00000000  0.00000000  0.50000000  1
  Sr  Sr4  1  0.50000000  0.50000000  -0.00000000  1
  Sr  Sr5  1  0.31162443  0.68837557  -0.00000000  1
  Hf  Hf0  1  0.09818915  0.90181085  -0.00000000  1
  Hf  Hf1  1  0.59818915  0.40181085  0.50000000  1
  Hf  Hf2  1  0.90181085  0.09818915  -0.00000000  1
  Hf  Hf3  1  0.40181085  0.59818915  0.50000000  1
  O  O0  1  0.19593534  0.80406466  -0.00000000  1
  O  O1  1  0.60480818  0.79842136  0.20160955  1
  O  O2  1  0.29842136  0.10480818  0.70160955  1
  O  O3  1  0.70157864  0.89519182  0.70160955  1
  O  O4  1  0.39519182  0.20157864  0.20160955  1
  O  O5  1  0.00000000  0.00000000  -0.00000000  1
  O  O6  1  0.69593534  0.30406466  0.50000000  1
  O  O7  1  0.80406466  0.19593534  -0.00000000  1
  O  O8  1  0.10480818  0.29842136  0.29839045  1
  O  O9  1  0.79842136  0.60480818  0.79839045  1
  O  O10  1  0.89519182  0.70157864  0.29839045  1
  O  O11  1  0.20157864  0.39519182  0.79839045  1
  O  O12  1  0.50000000  0.50000000  0.50000000  1
  O  O13  1  0.30406466  0.69593534  0.50000000  1
loop_
_geom_bond_atom_site_label_1
_geom_bond_atom_site_label_2
_geom_bond_distance
_geom_bond_site_symmetry_2
Hf0 O2 2.058011 1_564
Hf0 O10 2.058011 1_455
Hf0 O4 2.058012 1_565
Hf0 O9 2.058012 1_454
Hf0 O0 2.077573 1_555
Hf0 O5 2.086988 1_565
Hf1 O9 2.058011 1_555
Hf1 O4 2.058011 1_555
Hf1 O2 2.058012 1_555
Hf1 O10 2.058012 1_555
Hf1 O6 2.077573 1_555
Hf1 O12 2.086988 1_555
Hf2 O3 2.058011 1_544
Hf2 O8 2.058011 1_655
Hf2 O11 2.058012 1_654
Hf2 O1 2.058012 1_545
Hf2 O7 2.077573 1_555
Hf2 O5 2.086988 1_655
Hf3 O1 2.058011 1_555
Hf3 O11 2.058011 1_555
Hf3 O8 2.058012 1_555
Hf3 O3 2.058012 1_555
Hf3 O13 2.077573 1_555
Hf3 O12 2.086988 1_555
O0 Sr5 2.458945 1_555
O0 Sr0 2.861582 1_555
O0 Sr0 2.861582 1_554
O0 Sr2 2.861739 1_565
O0 Sr2 2.861739 1_455
O1 Sr5 2.538214 1_555
O1 Sr4 2.624549 1_555
O1 Sr1 3.098800 1_565
O1 Sr3 3.169904 1_665
O2 Sr0 2.538214 1_545
O2 Sr3 2.624549 1_555
O2 Sr2 3.098800 1_556
O2 Sr4 3.169904 1_556
O3 Sr1 2.538214 1_565
O3 Sr3 2.624549 1_665
O3 Sr5 3.098800 1_556
O3 Sr4 3.169904 1_556
O4 Sr2 2.538214 1_555
O4 Sr4 2.624549 1_555
O4 Sr0 3.098800 1_545
O4 Sr3 3.169904 1_555
O5 Sr3 2.857068 1_555
O5 Sr3 2.857068 1_554
O5 Sr4 2.857225 1_445
O5 Sr4 2.857225 1_555
O6 Sr1 2.458945 1_555
O6 Sr2 2.861582 1_556
O6 Sr2 2.861582 1_555
O6 Sr0 2.861739 1_655
O6 Sr0 2.861739 1_545
O7 Sr2 2.458945 1_555
O7 Sr1 2.861582 1_554
O7 Sr1 2.861582 1_555
O7 Sr5 2.861739 1_655
O7 Sr5 2.861739 1_545
O8 Sr1 2.538214 1_455
O8 Sr3 2.624549 1_555
O8 Sr5 3.098800 1_555
O8 Sr4 3.169904 1_555
O9 Sr2 2.538214 1_556
O9 Sr4 2.624549 1_556
O9 Sr0 3.098800 1_655
O9 Sr3 3.169904 1_665
O10 Sr0 2.538214 1_655
O10 Sr3 2.624549 1_665
O10 Sr2 3.098800 1_555
O10 Sr4 3.169904 1_555
O11 Sr5 2.538214 1_556
O11 Sr4 2.624549 1_556
O11 Sr1 3.098800 1_455
O11 Sr3 3.169904 1_555
O12 Sr4 2.857068 1_556
O12 Sr4 2.857068 1_555
O12 Sr3 2.857225 1_665
O12 Sr3 2.857225 1_555
O13 Sr0 2.458945 1_555
O13 Sr5 2.861582 1_556
O13 Sr5 2.861582 1_555
O13 Sr1 2.861739 1_565
O13 Sr1 2.861739 1_455
