# generated using pymatgen
data_Tb2Te4O11
_symmetry_space_group_name_H-M   'P 1'
_cell_length_a   6.78003472
_cell_length_b   6.78003472
_cell_length_c   17.84197358
_cell_angle_alpha   64.69506830
_cell_angle_beta   64.69506830
_cell_angle_gamma   45.01573392
_symmetry_Int_Tables_number   1
_chemical_formula_structural   Tb2Te4O11
_chemical_formula_sum   'Tb4 Te8 O22'
_cell_volume   514.28313816
_cell_formula_units_Z   2
loop_
 _symmetry_equiv_pos_site_id
 _symmetry_equiv_pos_as_xyz
  1  'x, y, z'
loop_
 _atom_site_type_symbol
 _atom_site_label
 _atom_site_symmetry_multiplicity
 _atom_site_fract_x
 _atom_site_fract_y
 _atom_site_fract_z
 _atom_site_occupancy
  Tb  Tb0  1  0.32604100  0.32244100  0.53899100  1
  Tb  Tb1  1  0.66240900  0.67442900  0.96595700  1
  Tb  Tb2  1  0.65763700  0.67475500  0.45908600  1
  Tb  Tb3  1  0.34777700  0.32918100  0.03407200  1
  Te  Te0  1  0.63913600  0.70941600  0.69438800  1
  Te  Te1  1  0.31130500  0.34212200  0.80554000  1
  Te  Te2  1  0.34996600  0.30580400  0.30047000  1
  Te  Te3  1  0.70337600  0.63995000  0.19476100  1
  Te  Te4  1  0.04799800  0.95221800  0.87399300  1
  Te  Te5  1  0.03841200  0.94536300  0.62522200  1
  Te  Te6  1  0.94998300  0.03522900  0.12795900  1
  Te  Te7  1  0.97607200  0.02088300  0.37793000  1
  O  O0  1  0.60689600  0.40152000  0.74649700  1
  O  O1  1  0.38855400  0.60263600  0.25103700  1
  O  O2  1  0.57631700  0.97422000  0.82747300  1
  O  O3  1  0.05354900  0.41168400  0.66548300  1
  O  O4  1  0.42689700  0.03387200  0.16561900  1
  O  O5  1  0.97505600  0.56012200  0.33437700  1
  O  O6  1  0.14699200  0.48998200  0.90568000  1
  O  O7  1  0.51293200  0.84139800  0.59815800  1
  O  O8  1  0.83531200  0.50947800  0.09741600  1
  O  O9  1  0.48147400  0.16237700  0.40098800  1
  O  O10  1  0.71767200  0.02084600  0.95481100  1
  O  O11  1  0.98075700  0.28700400  0.54837100  1
  O  O12  1  0.31580000  0.94548200  0.37362000  1
  O  O13  1  0.05178400  0.68795900  0.12461700  1
  O  O14  1  0.67971600  0.05631200  0.62863000  1
  O  O15  1  0.93261000  0.32049300  0.87646000  1
  O  O16  1  0.73063500  0.29404200  0.44960300  1
  O  O17  1  0.68593000  0.28455100  0.05677200  1
  O  O18  1  0.27436500  0.69076200  0.55678900  1
  O  O19  1  0.31493500  0.71476300  0.94489500  1
  O  O20  1  0.99645600  0.72954100  0.45711500  1
  O  O21  1  0.27310000  0.01088000  0.04093400  1
loop_
_geom_bond_atom_site_label_1
_geom_bond_atom_site_label_2
_geom_bond_distance
_geom_bond_site_symmetry_2
O0 Te0 2.020460 1_555
O0 Te1 2.064464 1_555
O1 Te2 1.981509 1_555
O1 Te3 2.083852 1_555
O2 Te1 1.741718 1_565
O2 Tb1 2.416470 1_555
O3 Te0 1.966650 1_455
O3 Tb0 2.212531 1_555
O4 Te3 1.866857 1_545
O4 Tb3 2.312094 1_555
O5 Te2 1.783486 1_655
O5 Tb2 2.281762 1_555
O6 Te1 1.920676 1_555
O6 Tb1 2.415595 1_455
O6 Te4 2.535290 1_555
O6 Tb3 2.592676 1_556
O7 Te0 1.827764 1_555
O7 Tb0 2.390517 1_565
O7 Te5 2.614848 1_555
O7 Tb2 2.672892 1_555
O8 Te3 1.861658 1_555
O8 Tb1 2.526031 1_554
O8 Te6 2.563243 1_555
O8 Tb3 2.581297 1_655
O9 Te2 1.899291 1_555
O9 Tb2 2.444829 1_545
O9 Tb0 2.607704 1_555
O9 Te7 2.635246 1_555
O10 Te4 1.910790 1_645
O10 Tb3 2.177778 1_556
O10 Tb1 2.545120 1_545
O11 Te5 1.965000 1_645
O11 Tb2 2.347131 1_555
O11 Tb0 2.447880 1_655
O12 Te7 1.946825 1_465
O12 Te2 2.353977 1_565
O12 Tb2 2.383252 1_555
O13 Te6 1.952139 1_465
O13 Te3 2.337492 1_455
O13 Tb3 2.498094 1_555
O14 Te5 1.951986 1_645
O14 Te0 2.294326 1_545
O14 Tb0 2.501591 1_555
O15 Te4 2.037473 1_645
O15 Te1 2.410674 1_655
O15 Tb1 2.494796 1_555
O16 Te7 1.919019 1_555
O16 Tb2 2.330660 1_555
O16 Tb0 2.425142 1_555
O17 Te6 1.872317 1_555
O17 Tb3 2.284779 1_555
O17 Tb1 2.366798 1_554
O18 Te5 1.804850 1_555
O18 Tb2 2.386167 1_555
O18 Tb0 2.409467 1_555
O19 Te4 1.887962 1_555
O19 Tb3 2.310738 1_556
O19 Tb1 2.350386 1_555
O20 Te7 1.819949 1_565
O20 Tb0 2.317182 1_655
O20 Tb2 2.557841 1_555
O21 Te6 2.009325 1_455
O21 Tb1 2.244458 1_544
O21 Tb3 2.488911 1_555
