# generated using pymatgen
data_Li3SbS3
_symmetry_space_group_name_H-M   'P 1'
_cell_length_a   11.92475600
_cell_length_b   4.15421200
_cell_length_c   12.73048327
_cell_angle_alpha   73.08823262
_cell_angle_beta   90.00000000
_cell_angle_gamma   90.00000000
_symmetry_Int_Tables_number   1
_chemical_formula_structural   Li3SbS3
_chemical_formula_sum   'Li12 Sb4 S12'
_cell_volume   603.36938546
_cell_formula_units_Z   4
loop_
 _symmetry_equiv_pos_site_id
 _symmetry_equiv_pos_as_xyz
  1  'x, y, z'
loop_
 _atom_site_type_symbol
 _atom_site_label
 _atom_site_symmetry_multiplicity
 _atom_site_fract_x
 _atom_site_fract_y
 _atom_site_fract_z
 _atom_site_occupancy
  Li  Li0  1  0.45050500  0.89027800  0.61332500  1
  Li  Li1  1  0.97333600  0.81443900  0.62538500  1
  Li  Li2  1  0.22330500  0.42551900  0.01725800  1
  Li  Li3  1  0.04949500  0.89027800  0.11332500  1
  Li  Li4  1  0.52666400  0.81443900  0.12538500  1
  Li  Li5  1  0.72330500  0.57448100  0.48274200  1
  Li  Li6  1  0.27669500  0.42551900  0.51725800  1
  Li  Li7  1  0.47333600  0.18556100  0.87461500  1
  Li  Li8  1  0.95050500  0.10972200  0.88667500  1
  Li  Li9  1  0.77669500  0.57448100  0.98274200  1
  Li  Li10  1  0.02666400  0.18556100  0.37461500  1
  Li  Li11  1  0.54949500  0.10972200  0.38667500  1
  Sb  Sb0  1  0.69343000  0.52212000  0.74881800  1
  Sb  Sb1  1  0.80657000  0.52212000  0.24881800  1
  Sb  Sb2  1  0.19343000  0.47788000  0.75118200  1
  Sb  Sb3  1  0.30657000  0.47788000  0.25118200  1
  S  S0  1  0.65479800  0.98242300  0.57550200  1
  S  S1  1  0.58708700  0.66223800  0.89753500  1
  S  S2  1  0.84520200  0.98242300  0.07550200  1
  S  S3  1  0.88158300  0.68201800  0.80320500  1
  S  S4  1  0.91291300  0.66223800  0.39753500  1
  S  S5  1  0.61841700  0.68201800  0.30320500  1
  S  S6  1  0.38158300  0.31798200  0.69679500  1
  S  S7  1  0.08708700  0.33776200  0.60246500  1
  S  S8  1  0.11841700  0.31798200  0.19679500  1
  S  S9  1  0.15479800  0.01757700  0.92449800  1
  S  S10  1  0.41291300  0.33776200  0.10246500  1
  S  S11  1  0.34520200  0.01757700  0.42449800  1
loop_
_geom_bond_atom_site_label_1
_geom_bond_atom_site_label_2
_geom_bond_distance
_geom_bond_site_symmetry_2
Li0 S6 2.446845 1_555
Li0 S6 2.461707 1_565
Li0 S0 2.491172 1_555
Li0 S11 2.625912 1_565
Li1 S3 2.428935 1_555
Li1 S7 2.486468 1_655
Li1 S7 2.506452 1_665
Li2 S9 2.469429 1_554
Li2 S10 2.488316 1_555
Li2 S8 2.528611 1_555
Li2 S9 2.534044 1_564
Li3 S8 2.446845 1_555
Li3 S8 2.461707 1_565
Li3 S2 2.491172 1_455
Li3 S9 2.625912 1_564
Li4 S5 2.428935 1_555
Li4 S10 2.486468 1_555
Li4 S10 2.506452 1_565
Li5 S0 2.469429 1_555
Li5 S4 2.488316 1_555
Li5 S5 2.528611 1_555
Li5 S0 2.534044 1_545
Li6 S11 2.469429 1_555
Li6 S7 2.488316 1_555
Li6 S6 2.528611 1_555
Li6 S11 2.534044 1_565
Li7 S6 2.428935 1_555
Li7 S1 2.486468 1_555
Li7 S1 2.506452 1_545
Li8 S3 2.446845 1_555
Li8 S3 2.461707 1_545
Li8 S9 2.491172 1_655
Li8 S2 2.625912 1_546
Li9 S2 2.469429 1_556
Li9 S1 2.488316 1_555
Li9 S3 2.528611 1_555
Li9 S2 2.534044 1_546
Li10 S8 2.428935 1_555
Li10 S4 2.486468 1_455
Li10 S4 2.506452 1_445
Li11 S5 2.446845 1_555
Li11 S5 2.461707 1_545
Li11 S11 2.491172 1_555
Li11 S0 2.625912 1_545
S0 Sb0 2.506444 1_555
S1 Sb0 2.484439 1_555
S2 Sb1 2.506444 1_555
S3 Sb0 2.494449 1_555
S4 Sb1 2.484439 1_555
S5 Sb1 2.494449 1_555
S6 Sb2 2.494449 1_555
S7 Sb2 2.484439 1_555
S8 Sb3 2.494449 1_555
S9 Sb2 2.506444 1_555
S10 Sb3 2.484439 1_555
S11 Sb3 2.506444 1_555
