# generated using pymatgen
data_Li2CrPO4F
_symmetry_space_group_name_H-M   'P 1'
_cell_length_a   5.33807500
_cell_length_b   5.48737517
_cell_length_c   7.76063967
_cell_angle_alpha   107.67205385
_cell_angle_beta   108.25292722
_cell_angle_gamma   94.87198103
_symmetry_Int_Tables_number   1
_chemical_formula_structural   Li2CrPO4F
_chemical_formula_sum   'Li4 Cr2 P2 O8 F2'
_cell_volume   201.58735661
_cell_formula_units_Z   2
loop_
 _symmetry_equiv_pos_site_id
 _symmetry_equiv_pos_as_xyz
  1  'x, y, z'
loop_
 _atom_site_type_symbol
 _atom_site_label
 _atom_site_symmetry_multiplicity
 _atom_site_fract_x
 _atom_site_fract_y
 _atom_site_fract_z
 _atom_site_occupancy
  Li  Li0  1  0.09016800  0.43099000  0.85474700  1
  Li  Li1  1  0.01698200  0.58310800  0.51194000  1
  Li  Li2  1  0.08510900  0.06968400  0.38470900  1
  Li  Li3  1  0.84266300  0.50669700  0.12916400  1
  Cr  Cr0  1  0.99676700  0.98745900  0.98742800  1
  Cr  Cr1  1  0.51169500  0.50366900  0.50283000  1
  P  P0  1  0.57044700  0.87186200  0.24276400  1
  P  P1  1  0.43044900  0.12686800  0.75817200  1
  O  O0  1  0.25897700  0.79232300  0.13584800  1
  O  O1  1  0.65830900  0.15199900  0.38954500  1
  O  O2  1  0.67028700  0.67232400  0.34466100  1
  O  O3  1  0.73042400  0.83857800  0.10201400  1
  O  O4  1  0.28521600  0.16022400  0.90548900  1
  O  O5  1  0.33358500  0.31807200  0.64809300  1
  O  O6  1  0.34703200  0.84840800  0.60547700  1
  O  O7  1  0.74162200  0.21157800  0.87107800  1
  F  F0  1  0.91486500  0.62940500  0.72551000  1
  F  F1  1  0.08451700  0.36170100  0.28849400  1
loop_
_geom_bond_atom_site_label_1
_geom_bond_atom_site_label_2
_geom_bond_distance
_geom_bond_site_symmetry_2
Li0 O4 1.951378 1_555
Li0 O7 2.187973 1_455
Li0 O0 2.311140 1_556
Li0 O5 2.341628 1_555
Li1 O6 1.967720 1_555
Li1 O2 2.093980 1_455
Li1 O5 2.513909 1_555
Li2 O5 2.024401 1_555
Li2 O3 2.303709 1_445
Li2 O1 2.369412 1_455
Li2 O6 2.532871 1_545
Li2 O0 2.546764 1_545
Li3 O3 2.014746 1_555
Li3 O7 2.032421 1_554
Li3 O2 2.157039 1_555
Li3 O0 2.585480 1_655
Cr0 O7 2.090725 1_565
Cr0 O4 2.098906 1_665
Cr0 O0 2.103787 1_656
Cr0 O3 2.124947 1_556
Cr0 F0 2.248520 1_555
Cr0 F1 2.476621 1_666
Cr1 O2 2.070633 1_555
Cr1 O5 2.101444 1_555
Cr1 O1 2.183318 1_555
Cr1 F0 2.188222 1_555
Cr1 O6 2.189043 1_555
Cr1 F1 2.260311 1_555
O0 P0 1.560781 1_555
O1 P0 1.536332 1_545
O2 P0 1.571333 1_555
O3 P0 1.563796 1_555
O4 P1 1.547221 1_555
O5 P1 1.567683 1_555
O6 P1 1.546574 1_565
O7 P1 1.566141 1_555
F0 Li0 1.820763 1_655
F0 Li1 1.855433 1_655
F1 Li3 1.897513 1_455
F1 Li1 1.949354 1_555
F1 Li2 1.962418 1_555
