# generated using pymatgen
data_Y2Si2O7
_symmetry_space_group_name_H-M   'P 1'
_cell_length_a   10.84153424
_cell_length_b   4.70747866
_cell_length_c   5.58476584
_cell_angle_alpha   84.00212186
_cell_angle_beta   90.00000000
_cell_angle_gamma   90.00000000
_symmetry_Int_Tables_number   1
_chemical_formula_structural   Y2Si2O7
_chemical_formula_sum   'Y4 Si4 O14'
_cell_volume   283.46543732
_cell_formula_units_Z   2
loop_
 _symmetry_equiv_pos_site_id
 _symmetry_equiv_pos_as_xyz
  1  'x, y, z'
loop_
 _atom_site_type_symbol
 _atom_site_label
 _atom_site_symmetry_multiplicity
 _atom_site_fract_x
 _atom_site_fract_y
 _atom_site_fract_z
 _atom_site_occupancy
  Y  Y0  1  0.65055603  0.88966719  0.40531185  1
  Y  Y1  1  0.15055603  0.11033281  0.09468815  1
  Y  Y2  1  0.34944397  0.11033281  0.59468815  1
  Y  Y3  1  0.84944397  0.88966719  0.90531185  1
  Si  Si0  1  0.88791285  0.36131986  0.35559340  1
  Si  Si1  1  0.38791285  0.63868014  0.14440660  1
  Si  Si2  1  0.11208715  0.63868014  0.64440660  1
  Si  Si3  1  0.61208715  0.36131986  0.85559340  1
  O  O0  1  0.94874666  0.20592729  0.13432197  1
  O  O1  1  0.44874666  0.79407271  0.36567803  1
  O  O2  1  0.05125334  0.79407271  0.86567803  1
  O  O3  1  0.55125334  0.20592729  0.63432197  1
  O  O4  1  0.68290202  0.12548971  0.03923361  1
  O  O5  1  0.18290202  0.87451029  0.46076639  1
  O  O6  1  0.31709798  0.87451029  0.96076639  1
  O  O7  1  0.81709798  0.12548971  0.53923361  1
  O  O8  1  -0.00000000  0.50000000  0.50000000  1
  O  O9  1  0.50000000  0.50000000  -0.00000000  1
  O  O10  1  0.70168840  0.62001842  0.74711737  1
  O  O11  1  0.20168840  0.37998158  0.75288263  1
  O  O12  1  0.29831160  0.37998158  0.25288263  1
  O  O13  1  0.79831160  0.62001842  0.24711737  1
loop_
_geom_bond_atom_site_label_1
_geom_bond_atom_site_label_2
_geom_bond_distance
_geom_bond_site_symmetry_2
O0 Si0 1.638924 1_555
O0 Y1 2.249295 1_655
O0 Y3 2.325775 1_544
O1 Si1 1.638924 1_555
O1 Y0 2.249295 1_555
O1 Y2 2.325775 1_565
O2 Si2 1.638924 1_555
O2 Y3 2.249295 1_455
O2 Y1 2.325775 1_566
O3 Si3 1.638924 1_555
O3 Y2 2.249295 1_555
O3 Y0 2.325775 1_545
O4 Si3 1.623509 1_554
O4 Y0 2.249639 1_545
O4 Y3 2.285908 1_544
O5 Si2 1.623509 1_555
O5 Y1 2.249639 1_565
O5 Y2 2.285908 1_565
O6 Si1 1.623509 1_556
O6 Y2 2.249639 1_565
O6 Y1 2.285908 1_566
O7 Si0 1.623509 1_555
O7 Y3 2.249639 1_545
O7 Y0 2.285908 1_545
O8 Si2 1.631971 1_555
O8 Si0 1.631971 1_455
O9 Si1 1.631971 1_555
O9 Si3 1.631971 1_554
O10 Si3 1.624671 1_555
O10 Y0 2.248583 1_555
O10 Y3 2.278654 1_555
O11 Si2 1.624671 1_555
O11 Y1 2.248583 1_556
O11 Y2 2.278654 1_555
O12 Si1 1.624671 1_555
O12 Y2 2.248583 1_555
O12 Y1 2.278654 1_555
O13 Si0 1.624671 1_555
O13 Y3 2.248583 1_554
O13 Y0 2.278654 1_555
