# generated using pymatgen
data_Co3Sb(PO4)4
_symmetry_space_group_name_H-M   'P 1'
_cell_length_a   5.98397400
_cell_length_b   4.90420300
_cell_length_c   9.96937574
_cell_angle_alpha   89.83620520
_cell_angle_beta   90.00000000
_cell_angle_gamma   90.00000000
_symmetry_Int_Tables_number   1
_chemical_formula_structural   Co3Sb(PO4)4
_chemical_formula_sum   'Co3 Sb1 P4 O16'
_cell_volume   292.56631823
_cell_formula_units_Z   1
loop_
 _symmetry_equiv_pos_site_id
 _symmetry_equiv_pos_as_xyz
  1  'x, y, z'
loop_
 _atom_site_type_symbol
 _atom_site_label
 _atom_site_symmetry_multiplicity
 _atom_site_fract_x
 _atom_site_fract_y
 _atom_site_fract_z
 _atom_site_occupancy
  Co  Co0  1  0.00000000  0.03027600  0.26726000  1
  Co  Co1  1  0.00000000  0.45353600  0.77879000  1
  Co  Co2  1  0.50000000  0.54848200  0.23477700  1
  Sb  Sb0  1  0.50000000  0.95929100  0.71577200  1
  P  P0  1  0.50000000  0.09523500  0.39732500  1
  P  P1  1  0.50000000  0.38733700  0.90480600  1
  P  P2  1  0.00000000  0.59719300  0.10240200  1
  P  P3  1  0.00000000  0.92666000  0.58758400  1
  O  O0  1  0.50000000  0.18858600  0.55646800  1
  O  O1  1  0.29461900  0.23711500  0.33438700  1
  O  O2  1  0.70538100  0.23711500  0.33438700  1
  O  O3  1  0.00000000  0.22846500  0.61551600  1
  O  O4  1  0.00000000  0.28703100  0.12856100  1
  O  O5  1  0.30311500  0.23265900  0.82662700  1
  O  O6  1  0.69688500  0.23265900  0.82662700  1
  O  O7  1  0.50000000  0.34669400  0.05257400  1
  O  O8  1  0.00000000  0.64223500  0.95022600  1
  O  O9  1  0.79844100  0.74577000  0.17112900  1
  O  O10  1  0.20155900  0.74577000  0.17112900  1
  O  O11  1  0.50000000  0.69993500  0.86954400  1
  O  O12  1  0.50000000  0.78730400  0.39862900  1
  O  O13  1  0.79698800  0.77329100  0.66687400  1
  O  O14  1  0.20301200  0.77329100  0.66687400  1
  O  O15  1  0.00000000  0.84406900  0.44173000  1
loop_
_geom_bond_atom_site_label_1
_geom_bond_atom_site_label_2
_geom_bond_distance
_geom_bond_site_symmetry_2
Co0 O4 1.867499 1_555
Co0 O15 1.962195 1_545
Co0 O10 2.080298 1_545
Co0 O9 2.080298 1_445
Co0 O1 2.142158 1_555
Co0 O2 2.142158 1_455
Co1 O8 1.945893 1_555
Co1 O3 1.969307 1_555
Co1 O5 2.165144 1_555
Co1 O6 2.165144 1_455
Co1 O14 2.273700 1_555
Co1 O13 2.273700 1_455
Co2 O12 2.012722 1_555
Co2 O7 2.071013 1_555
Co2 O9 2.127102 1_555
Co2 O10 2.127102 1_555
Co2 O2 2.195371 1_555
Co2 O1 2.195371 1_555
O0 P0 1.652545 1_555
O0 Sb0 1.943339 1_545
O1 P0 1.544596 1_555
O2 P0 1.544596 1_555
O3 P3 1.506862 1_545
O4 P2 1.542556 1_555
O5 P1 1.604468 1_555
O5 Sb0 2.101246 1_545
O6 P1 1.604468 1_555
O6 Sb0 2.101246 1_545
O7 P1 1.486013 1_554
O8 P2 1.532472 1_556
O9 P2 1.567793 1_655
O10 P2 1.567793 1_555
O11 P1 1.571853 1_555
O11 Sb0 1.989168 1_555
O12 P0 1.510175 1_565
O13 P3 1.631859 1_655
O13 Sb0 2.056839 1_555
O14 P3 1.631859 1_555
O14 Sb0 2.056839 1_555
O15 P3 1.510548 1_555
