# generated using pymatgen
data_Li2MnFe(PO4)2
_symmetry_space_group_name_H-M   'P 1'
_cell_length_a   6.13039800
_cell_length_b   10.50630400
_cell_length_c   14.29617649
_cell_angle_alpha   89.92425314
_cell_angle_beta   90.00000000
_cell_angle_gamma   90.00000000
_symmetry_Int_Tables_number   1
_chemical_formula_structural   Li2MnFe(PO4)2
_chemical_formula_sum   'Li12 Mn6 Fe6 P12 O48'
_cell_volume   920.78482950
_cell_formula_units_Z   6
loop_
 _symmetry_equiv_pos_site_id
 _symmetry_equiv_pos_as_xyz
  1  'x, y, z'
loop_
 _atom_site_type_symbol
 _atom_site_label
 _atom_site_symmetry_multiplicity
 _atom_site_fract_x
 _atom_site_fract_y
 _atom_site_fract_z
 _atom_site_occupancy
  Li  Li0  1  0.25125700  0.00071100  0.00005900  1
  Li  Li1  1  0.74874300  0.00071100  0.00005900  1
  Li  Li2  1  0.25097100  0.49972100  0.16660400  1
  Li  Li3  1  0.74902900  0.49972100  0.16660400  1
  Li  Li4  1  0.25086200  0.00016300  0.33339200  1
  Li  Li5  1  0.74913800  0.00016300  0.33339200  1
  Li  Li6  1  0.25107700  0.49995500  0.50014300  1
  Li  Li7  1  0.74892300  0.49995500  0.50014300  1
  Li  Li8  1  0.25087400  0.00052900  0.66672300  1
  Li  Li9  1  0.74912600  0.00052900  0.66672300  1
  Li  Li10  1  0.25127100  0.49981700  0.83324900  1
  Li  Li11  1  0.74872900  0.49981700  0.83324900  1
  Mn  Mn0  1  0.00000000  0.71839300  0.00827500  1
  Mn  Mn1  1  0.00000000  0.21867000  0.15822300  1
  Mn  Mn2  1  0.50000000  0.78124600  0.17488500  1
  Mn  Mn3  1  0.00000000  0.71872300  0.34183700  1
  Mn  Mn4  1  0.00000000  0.21847700  0.49160100  1
  Mn  Mn5  1  0.00000000  0.71830900  0.67509200  1
  Fe  Fe0  1  0.50000000  0.28150300  0.32439700  1
  Fe  Fe1  1  0.50000000  0.78159000  0.50894800  1
  Fe  Fe2  1  0.50000000  0.28150000  0.65787200  1
  Fe  Fe3  1  0.00000000  0.21833100  0.82545100  1
  Fe  Fe4  1  0.50000000  0.78177700  0.84202000  1
  Fe  Fe5  1  0.50000000  0.28135400  0.99067300  1
  P  P0  1  0.50000000  0.59216300  0.02840900  1
  P  P1  1  0.50000000  0.09441600  0.13735300  1
  P  P2  1  0.00000000  0.90766100  0.19581600  1
  P  P3  1  0.00000000  0.40684700  0.30507500  1
  P  P4  1  0.50000000  0.59265100  0.36311700  1
  P  P5  1  0.50000000  0.09347700  0.47067600  1
  P  P6  1  0.00000000  0.90685300  0.52813100  1
  P  P7  1  0.00000000  0.40570900  0.63898300  1
  P  P8  1  0.50000000  0.59348200  0.69583100  1
  P  P9  1  0.50000000  0.09396900  0.80466100  1
  P  P10  1  0.00000000  0.90783600  0.86100200  1
  P  P11  1  0.00000000  0.40601300  0.97115600  1
  O  O0  1  0.50000000  0.45457300  0.06894800  1
  O  O1  1  0.29866400  0.66159800  0.07324200  1
  O  O2  1  0.70133600  0.66159800  0.07324200  1
  O  O3  1  0.00000000  0.40423100  0.07838800  1
  O  O4  1  0.00000000  0.90464700  0.08793500  1
  O  O5  1  0.29876800  0.16381400  0.09205200  1
  O  O6  1  0.70123200  0.16381400  0.09205200  1
  O  O7  1  0.50000000  0.95684000  0.09638800  1
  O  O8  1  0.00000000  0.04430000  0.23707200  1
  O  O9  1  0.79860800  0.83758300  0.23990200  1
  O  O10  1  0.20139200  0.83758300  0.23990200  1
  O  O11  1  0.50000000  0.09705600  0.24472800  1
  O  O12  1  0.50000000  0.59611100  0.25548400  1
  O  O13  1  0.79718000  0.33660300  0.26172800  1
  O  O14  1  0.20282000  0.33660300  0.26172800  1
  O  O15  1  0.00000000  0.54326900  0.26249300  1
  O  O16  1  0.50000000  0.45492800  0.40333200  1
  O  O17  1  0.29910200  0.66284600  0.40792700  1
  O  O18  1  0.70089800  0.66284600  0.40792700  1
  O  O19  1  0.00000000  0.40488500  0.41263000  1
  O  O20  1  0.00000000  0.90495300  0.42089200  1
  O  O21  1  0.70095300  0.16289500  0.42550600  1
  O  O22  1  0.29904700  0.16289500  0.42550600  1
  O  O23  1  0.50000000  0.95537800  0.43090500  1
  O  O24  1  0.00000000  0.04302500  0.57068300  1
  O  O25  1  0.79710800  0.83629900  0.57165100  1
  O  O26  1  0.20289200  0.83629900  0.57165100  1
  O  O27  1  0.50000000  0.09729100  0.57865300  1
  O  O28  1  0.50000000  0.59754700  0.58825300  1
  O  O29  1  0.20297900  0.33618600  0.59514500  1
  O  O30  1  0.79702100  0.33618600  0.59514500  1
  O  O31  1  0.00000000  0.54236700  0.59709700  1
  O  O32  1  0.50000000  0.45536100  0.73587200  1
  O  O33  1  0.29912700  0.66304200  0.74125300  1
  O  O34  1  0.70087300  0.66304200  0.74125300  1
  O  O35  1  0.00000000  0.40234800  0.74681800  1
  O  O36  1  0.00000000  0.90448500  0.75368100  1
  O  O37  1  0.70268600  0.16368500  0.76006200  1
  O  O38  1  0.29731400  0.16368500  0.76006200  1
  O  O39  1  0.50000000  0.95635400  0.76412600  1
  O  O40  1  0.00000000  0.04492100  0.90235600  1
  O  O41  1  0.79742800  0.83760600  0.90511000  1
  O  O42  1  0.20257200  0.83760600  0.90511000  1
  O  O43  1  0.50000000  0.09723600  0.91222500  1
  O  O44  1  0.50000000  0.59693000  0.92067500  1
  O  O45  1  0.20259800  0.33558700  0.92718500  1
  O  O46  1  0.79740200  0.33558700  0.92718500  1
  O  O47  1  0.00000000  0.54273600  0.92901200  1
loop_
_geom_bond_atom_site_label_1
_geom_bond_atom_site_label_2
_geom_bond_distance
_geom_bond_site_symmetry_2
Li0 O7 2.105368 1_545
Li0 O40 2.130156 1_554
Li0 O5 2.181024 1_555
Li0 O42 2.207785 1_544
Li0 O43 2.219715 1_554
Li0 O4 2.228474 1_545
Li1 O7 2.105368 1_545
Li1 O40 2.130156 1_654
Li1 O6 2.181024 1_555
Li1 O41 2.207785 1_544
Li1 O43 2.219715 1_554
Li1 O4 2.228474 1_645
Li2 O15 2.111244 1_555
Li2 O0 2.122855 1_555
Li2 O1 2.180238 1_555
Li2 O14 2.206201 1_555
Li2 O3 2.228788 1_555
Li2 O12 2.230282 1_555
Li3 O15 2.111244 1_655
Li3 O0 2.122855 1_555
Li3 O2 2.180238 1_555
Li3 O13 2.206201 1_555
Li3 O3 2.228788 1_655
Li3 O12 2.230282 1_555
Li4 O8 2.115321 1_555
Li4 O23 2.120321 1_545
Li4 O22 2.179562 1_555
Li4 O10 2.191354 1_545
Li4 O20 2.219725 1_545
Li4 O11 2.229860 1_555
Li5 O8 2.115321 1_655
Li5 O23 2.120321 1_545
Li5 O21 2.179562 1_555
Li5 O9 2.191354 1_545
Li5 O20 2.219725 1_645
Li5 O11 2.229860 1_555
Li6 O16 2.114172 1_555
Li6 O31 2.119085 1_555
Li6 O17 2.178888 1_555
Li6 O29 2.210399 1_555
Li6 O19 2.221570 1_555
Li6 O28 2.229365 1_555
Li7 O16 2.114172 1_555
Li7 O31 2.119085 1_655
Li7 O18 2.178888 1_555
Li7 O30 2.210399 1_555
Li7 O19 2.221570 1_655
Li7 O28 2.229365 1_555
Li8 O24 2.109070 1_555
Li8 O39 2.117827 1_545
Li8 O38 2.192274 1_555
Li8 O26 2.217484 1_545
Li8 O36 2.219387 1_545
Li8 O27 2.224370 1_555
Li9 O24 2.109070 1_655
Li9 O39 2.117827 1_545
Li9 O37 2.192274 1_555
Li9 O25 2.217484 1_545
Li9 O36 2.219387 1_645
Li9 O27 2.224370 1_555
Li10 O47 2.109988 1_555
Li10 O32 2.117287 1_555
Li10 O33 2.179607 1_555
Li10 O45 2.205342 1_555
Li10 O44 2.220712 1_555
Li10 O35 2.225218 1_555
Li11 O47 2.109988 1_655
Li11 O32 2.117287 1_555
Li11 O34 2.179607 1_555
Li11 O46 2.205342 1_555
Li11 O44 2.220712 1_555
Li11 O35 2.225218 1_655
Mn0 O1 2.137645 1_555
Mn0 O2 2.137645 1_455
Mn0 O47 2.166903 1_554
Mn0 O4 2.265405 1_555
Mn0 O42 2.298098 1_554
Mn0 O41 2.298098 1_454
Mn1 O5 2.140827 1_555
Mn1 O6 2.140827 1_455
Mn1 O8 2.149738 1_555
Mn1 O3 2.257775 1_555
Mn1 O13 2.296871 1_455
Mn1 O14 2.296871 1_555
Mn2 O9 2.137007 1_555
Mn2 O10 2.137007 1_555
Mn2 O7 2.158083 1_555
Mn2 O12 2.259452 1_555
Mn2 O2 2.284724 1_555
Mn2 O1 2.284724 1_555
Mn3 O17 2.144301 1_555
Mn3 O18 2.144301 1_455
Mn3 O15 2.165693 1_555
Mn3 O20 2.260841 1_555
Mn3 O9 2.280915 1_455
Mn3 O10 2.280915 1_555
Mn4 O22 2.143880 1_555
Mn4 O21 2.143880 1_455
Mn4 O24 2.161163 1_555
Mn4 O19 2.259274 1_555
Mn4 O30 2.296489 1_455
Mn4 O29 2.296489 1_555
Mn5 O33 2.143138 1_555
Mn5 O34 2.143138 1_455
Mn5 O31 2.160022 1_555
Mn5 O36 2.257019 1_555
Mn5 O26 2.294733 1_555
Mn5 O25 2.294733 1_455
Fe0 O14 2.110807 1_555
Fe0 O13 2.110807 1_555
Fe0 O16 2.144473 1_555
Fe0 O11 2.249079 1_555
Fe0 O21 2.270485 1_555
Fe0 O22 2.270485 1_555
Fe1 O25 2.110157 1_555
Fe1 O26 2.110157 1_555
Fe1 O23 2.138513 1_555
Fe1 O28 2.240193 1_555
Fe1 O17 2.272383 1_555
Fe1 O18 2.272383 1_555
Fe2 O29 2.109131 1_555
Fe2 O30 2.109131 1_555
Fe2 O32 2.141364 1_555
Fe2 O27 2.243662 1_555
Fe2 O37 2.281577 1_555
Fe2 O38 2.281577 1_555
Fe3 O40 2.126688 1_555
Fe3 O38 2.127670 1_555
Fe3 O37 2.127670 1_455
Fe3 O35 2.235121 1_555
Fe3 O45 2.276019 1_555
Fe3 O46 2.276019 1_455
Fe4 O41 2.117443 1_555
Fe4 O42 2.117443 1_555
Fe4 O39 2.144484 1_555
Fe4 O44 2.242820 1_555
Fe4 O33 2.269939 1_555
Fe4 O34 2.269939 1_555
Fe5 O46 2.114504 1_555
Fe5 O45 2.114504 1_555
Fe5 O0 2.137668 1_556
Fe5 O43 2.237278 1_555
Fe5 O5 2.267749 1_556
Fe5 O6 2.267749 1_556
O0 P0 1.556701 1_555
O1 P0 1.570873 1_555
O2 P0 1.570873 1_555
O3 P11 1.533097 1_554
O4 P2 1.542653 1_555
O5 P1 1.572144 1_555
O6 P1 1.572144 1_555
O7 P1 1.560270 1_565
O8 P2 1.552730 1_545
O9 P2 1.569188 1_655
O10 P2 1.569188 1_555
O11 P1 1.535339 1_555
O12 P4 1.539122 1_555
O13 P3 1.573482 1_655
O14 P3 1.573482 1_555
O15 P3 1.556472 1_555
O16 P4 1.556286 1_555
O17 P4 1.572363 1_555
O18 P4 1.572363 1_555
O19 P3 1.537736 1_555
O20 P6 1.533264 1_555
O21 P5 1.570130 1_555
O22 P5 1.570130 1_555
O23 P5 1.559037 1_565
O24 P6 1.555368 1_545
O25 P6 1.575565 1_655
O26 P6 1.575565 1_555
O27 P5 1.544231 1_555
O28 P8 1.538491 1_555
O29 P7 1.573499 1_555
O30 P7 1.573499 1_655
O31 P7 1.554907 1_555
O32 P8 1.559261 1_555
O33 P8 1.572718 1_555
O34 P8 1.572718 1_555
O35 P7 1.541986 1_555
O36 P10 1.534730 1_555
O37 P9 1.576612 1_555
O38 P9 1.576612 1_555
O39 P9 1.558345 1_565
O40 P10 1.557598 1_545
O41 P10 1.575758 1_655
O42 P10 1.575758 1_555
O43 P9 1.538182 1_555
O44 P0 1.540932 1_556
O45 P11 1.576847 1_555
O46 P11 1.576847 1_655
O47 P11 1.556957 1_555
