# generated using pymatgen
data_SrNiO3
_symmetry_space_group_name_H-M   'P 1'
_cell_length_a   5.50461919
_cell_length_b   5.51383529
_cell_length_c   5.51244713
_cell_angle_alpha   60.07997227
_cell_angle_beta   119.91678749
_cell_angle_gamma   119.94202108
_symmetry_Int_Tables_number   1
_chemical_formula_structural   SrNiO3
_chemical_formula_sum   'Sr2 Ni2 O6'
_cell_volume   118.50465607
_cell_formula_units_Z   2
loop_
 _symmetry_equiv_pos_site_id
 _symmetry_equiv_pos_as_xyz
  1  'x, y, z'
loop_
 _atom_site_type_symbol
 _atom_site_label
 _atom_site_symmetry_multiplicity
 _atom_site_fract_x
 _atom_site_fract_y
 _atom_site_fract_z
 _atom_site_occupancy
  Sr  Sr0  1  0.75000100  0.75000200  0.75000200  1
  Sr  Sr1  1  0.24999800  0.24999900  0.24999900  1
  Ni  Ni0  1  0.00006000  0.49984000  0.50017900  1
  Ni  Ni1  1  0.49994200  0.00015700  0.99981500  1
  O  O0  1  0.74971100  0.24971000  0.24971100  1
  O  O1  1  0.25028600  0.75028900  0.75028900  1
  O  O2  1  0.24999400  0.74998700  0.25001500  1
  O  O3  1  0.75000700  0.25001600  0.74998500  1
  O  O4  1  0.75000200  0.74999000  0.25001200  1
  O  O5  1  0.24999800  0.25001000  0.74999200  1
loop_
_geom_bond_atom_site_label_1
_geom_bond_atom_site_label_2
_geom_bond_distance
_geom_bond_site_symmetry_2
Ni0 O3 1.947818 1_455
Ni0 O5 1.948451 1_555
Ni0 O2 1.948754 1_555
Ni0 O4 1.950169 1_455
Ni0 O1 1.952270 1_555
Ni0 O0 1.952422 1_455
Ni1 O1 1.947726 1_545
Ni1 O0 1.947941 1_556
Ni1 O3 1.947958 1_555
Ni1 O5 1.948564 1_555
Ni1 O2 1.948948 1_546
Ni1 O4 1.950243 1_546
O0 Sr1 2.752303 1_655
O0 Sr1 2.752318 1_555
O0 Sr0 2.759900 1_545
O0 Sr0 2.759906 1_554
O1 Sr0 2.752300 1_455
O1 Sr0 2.752321 1_555
O1 Sr1 2.759903 1_565
O1 Sr1 2.759903 1_556
O2 Sr1 2.756906 1_555
O2 Sr1 2.756929 1_565
O2 Sr0 2.757715 1_555
O2 Sr0 2.757749 1_454
O3 Sr0 2.756904 1_555
O3 Sr0 2.756932 1_545
O3 Sr1 2.757718 1_555
O3 Sr1 2.757746 1_656
O4 Sr0 2.756204 1_555
O4 Sr0 2.756243 1_554
O4 Sr1 2.757016 1_555
O4 Sr1 2.757044 1_665
O5 Sr1 2.756215 1_555
O5 Sr1 2.756232 1_556
O5 Sr0 2.757016 1_555
O5 Sr0 2.757044 1_445
