# generated using pymatgen
data_MgAsH15O11
_symmetry_space_group_name_H-M   'P 1'
_cell_length_a   13.63674050
_cell_length_b   13.63674050
_cell_length_c   11.45588047
_cell_angle_alpha   88.63584561
_cell_angle_beta   88.63584561
_cell_angle_gamma   151.62074346
_symmetry_Int_Tables_number   1
_chemical_formula_structural   MgAsH15O11
_chemical_formula_sum   'Mg4 As4 H60 O44'
_cell_volume   1007.77787795
_cell_formula_units_Z   4
loop_
 _symmetry_equiv_pos_site_id
 _symmetry_equiv_pos_as_xyz
  1  'x, y, z'
loop_
 _atom_site_type_symbol
 _atom_site_label
 _atom_site_symmetry_multiplicity
 _atom_site_fract_x
 _atom_site_fract_y
 _atom_site_fract_z
 _atom_site_occupancy
  Mg  Mg0  1  0.72023400  0.27976600  0.25000000  1
  Mg  Mg1  1  0.55381300  0.44618700  0.75000000  1
  Mg  Mg2  1  0.44618700  0.55381300  0.25000000  1
  Mg  Mg3  1  0.27976600  0.72023400  0.75000000  1
  As  As0  1  0.97006000  0.16136200  0.95813400  1
  As  As1  1  0.83863800  0.02994000  0.54186600  1
  As  As2  1  0.16136200  0.97006000  0.45813400  1
  As  As3  1  0.02994000  0.83863800  0.04186600  1
  H  H0  1  0.80662600  0.77687400  0.31983500  1
  H  H1  1  0.74282500  0.67435400  0.20105100  1
  H  H2  1  0.92477400  0.69223600  0.82313300  1
  H  H3  1  0.93601500  0.69965300  0.68550800  1
  H  H4  1  0.84640800  0.54914600  0.36848500  1
  H  H5  1  0.98450400  0.54626000  0.62774700  1
  H  H6  1  0.88015600  0.37923500  0.85824600  1
  H  H7  1  0.91930400  0.30013900  0.83857200  1
  H  H8  1  0.82602400  0.21544200  0.39350500  1
  H  H9  1  0.73388200  0.63518700  0.53520100  1
  H  H10  1  0.66776500  0.40358700  0.12180600  1
  H  H11  1  0.60612700  0.48223800  0.99134900  1
  H  H12  1  0.59641300  0.33223500  0.37819400  1
  H  H13  1  0.70754500  0.36903100  0.85099800  1
  H  H14  1  0.00000000  0.00000000  0.00000000  1
  H  H15  1  0.78455800  0.17397600  0.10649500  1
  H  H16  1  0.67049200  0.29426300  0.98119900  1
  H  H17  1  0.87626400  0.12373600  0.75000000  1
  H  H18  1  0.70573700  0.32950800  0.51880100  1
  H  H19  1  0.00000000  0.00000000  0.50000000  1
  H  H20  1  0.63096900  0.29245500  0.64900200  1
  H  H21  1  0.51776200  0.39387300  0.50865100  1
  H  H22  1  0.45085400  0.15359200  0.13151500  1
  H  H23  1  0.36481300  0.26611800  0.96479900  1
  H  H24  1  0.69223600  0.92477400  0.32313300  1
  H  H25  1  0.69965300  0.93601500  0.18550800  1
  H  H26  1  0.32564600  0.25717500  0.29894900  1
  H  H27  1  0.69986100  0.08069600  0.66142800  1
  H  H28  1  0.62076500  0.11984400  0.64175400  1
  H  H29  1  0.54626000  0.98450400  0.12774700  1
  H  H30  1  0.77687400  0.80662600  0.81983500  1
  H  H31  1  0.22312600  0.19337400  0.18016500  1
  H  H32  1  0.45374000  0.01549600  0.87225300  1
  H  H33  1  0.37923500  0.88015600  0.35824600  1
  H  H34  1  0.30013900  0.91930400  0.33857200  1
  H  H35  1  0.67435400  0.74282500  0.70105100  1
  H  H36  1  0.30034700  0.06398500  0.81449200  1
  H  H37  1  0.30776400  0.07522600  0.67686700  1
  H  H38  1  0.63518700  0.73388200  0.03520100  1
  H  H39  1  0.54914600  0.84640800  0.86848500  1
  H  H40  1  0.48223800  0.60612700  0.49134900  1
  H  H41  1  0.36903100  0.70754500  0.35099800  1
  H  H42  1  0.29426300  0.67049200  0.48119900  1
  H  H43  1  0.12373600  0.87626400  0.25000000  1
  H  H44  1  0.32950800  0.70573700  0.01880100  1
  H  H45  1  0.21544200  0.82602400  0.89350500  1
  H  H46  1  0.29245500  0.63096900  0.14900200  1
  H  H47  1  0.40358700  0.66776500  0.62180600  1
  H  H48  1  0.39387300  0.51776200  0.00865100  1
  H  H49  1  0.33223500  0.59641300  0.87819400  1
  H  H50  1  0.26611800  0.36481300  0.46479900  1
  H  H51  1  0.17397600  0.78455800  0.60649500  1
  H  H52  1  0.08069600  0.69986100  0.16142800  1
  H  H53  1  0.11984400  0.62076500  0.14175400  1
  H  H54  1  0.01549600  0.45374000  0.37225300  1
  H  H55  1  0.15359200  0.45085400  0.63151500  1
  H  H56  1  0.06398500  0.30034700  0.31449200  1
  H  H57  1  0.07522600  0.30776400  0.17686700  1
  H  H58  1  0.25717500  0.32564600  0.79894900  1
  H  H59  1  0.19337400  0.22312600  0.68016500  1
  O  O0  1  0.11489400  0.03435300  0.02283400  1
  O  O1  1  0.72499400  0.71650800  0.25296100  1
  O  O2  1  0.77469100  0.61020900  0.09477600  1
  O  O3  1  0.98592200  0.42346900  0.82832900  1
  O  O4  1  0.83373900  0.61168900  0.75578300  1
  O  O5  1  0.86367500  0.31701300  0.36826800  1
  O  O6  1  0.72014700  0.39599900  0.37218200  1
  O  O7  1  0.82327900  0.08611100  0.41740800  1
  O  O8  1  0.91388900  0.17672100  0.08259200  1
  O  O9  1  0.91919300  0.18040300  0.64668100  1
  O  O10  1  0.03435300  0.11489400  0.52283400  1
  O  O11  1  0.60100600  0.48982800  0.57186700  1
  O  O12  1  0.68585300  0.28878100  0.89728100  1
  O  O13  1  0.60400100  0.27985300  0.12781800  1
  O  O14  1  0.71121900  0.31414700  0.60271900  1
  O  O15  1  0.51017200  0.39899400  0.92813300  1
  O  O16  1  0.68298700  0.13632500  0.13173200  1
  O  O17  1  0.81959700  0.08080700  0.85331900  1
  O  O18  1  0.38979100  0.22530900  0.40522400  1
  O  O19  1  0.28349200  0.27500600  0.24703900  1
  O  O20  1  0.42346900  0.98592200  0.32832900  1
  O  O21  1  0.61168900  0.83373900  0.25578300  1
  O  O22  1  0.38831100  0.16626100  0.74421700  1
  O  O23  1  0.57653100  0.01407800  0.67167100  1
  O  O24  1  0.71650800  0.72499400  0.75296100  1
  O  O25  1  0.61020900  0.77469100  0.59477600  1
  O  O26  1  0.18040300  0.91919300  0.14668100  1
  O  O27  1  0.31701300  0.86367500  0.86826800  1
  O  O28  1  0.48982800  0.60100600  0.07186700  1
  O  O29  1  0.28878100  0.68585300  0.39728100  1
  O  O30  1  0.39599900  0.72014700  0.87218200  1
  O  O31  1  0.31414700  0.71121900  0.10271900  1
  O  O32  1  0.39899400  0.51017200  0.42813300  1
  O  O33  1  0.96564700  0.88510600  0.47716600  1
  O  O34  1  0.08080700  0.81959700  0.35331900  1
  O  O35  1  0.08611100  0.82327900  0.91740800  1
  O  O36  1  0.17672100  0.91388900  0.58259200  1
  O  O37  1  0.27985300  0.60400100  0.62781800  1
  O  O38  1  0.13632500  0.68298700  0.63173200  1
  O  O39  1  0.16626100  0.38831100  0.24421700  1
  O  O40  1  0.01407800  0.57653100  0.17167100  1
  O  O41  1  0.22530900  0.38979100  0.90522400  1
  O  O42  1  0.27500600  0.28349200  0.74703900  1
  O  O43  1  0.88510600  0.96564700  0.97716600  1
loop_
_geom_bond_atom_site_label_1
_geom_bond_atom_site_label_2
_geom_bond_distance
_geom_bond_site_symmetry_2
Mg0 O5 2.080991 1_555
Mg0 O16 2.080991 1_555
Mg0 O40 2.088156 1_655
Mg0 O20 2.088156 1_545
Mg0 O6 2.140183 1_555
Mg0 O13 2.140183 1_555
Mg1 O11 2.034302 1_555
Mg1 O15 2.034302 1_555
Mg1 O4 2.128157 1_555
Mg1 O22 2.128157 1_555
Mg1 O24 2.132014 1_555
Mg1 O42 2.132014 1_555
Mg2 O28 2.034302 1_555
Mg2 O32 2.034302 1_555
Mg2 O21 2.128157 1_555
Mg2 O39 2.128157 1_555
Mg2 O1 2.132014 1_555
Mg2 O19 2.132014 1_555
Mg3 O27 2.080991 1_555
Mg3 O38 2.080991 1_555
Mg3 O23 2.088156 1_565
Mg3 O3 2.088156 1_455
Mg3 O30 2.140183 1_555
Mg3 O37 2.140183 1_555
As0 O8 1.705277 1_556
As0 O41 1.707903 1_655
As0 O43 1.741362 1_545
As0 O17 1.752848 1_555
As1 O7 1.705277 1_555
As1 O25 1.707903 1_545
As1 O10 1.741362 1_655
As1 O9 1.752848 1_555
As2 O36 1.705277 1_555
As2 O18 1.707903 1_565
As2 O33 1.741362 1_455
As2 O34 1.752848 1_555
As3 O35 1.705277 1_554
As3 O2 1.707903 1_455
As3 O0 1.741362 1_565
As3 O26 1.752848 1_555
H0 O1 0.980766 1_555
H1 O1 0.999278 1_555
H1 O2 1.769351 1_555
H2 O4 1.014620 1_555
H2 O35 1.577051 1_655
H3 O4 0.994433 1_555
H4 O6 0.996404 1_555
H5 O38 0.990369 1_655
H6 O3 0.998638 1_555
H7 O3 0.982154 1_555
H8 O5 0.994071 1_555
H9 O11 0.996416 1_555
H9 O33 1.698336 1_555
H10 O13 1.008860 1_555
H10 O2 1.693715 1_555
H11 O15 0.997894 1_555
H11 O2 1.703700 1_556
H12 O6 1.008860 1_555
H12 O18 1.693715 1_555
H13 O12 0.980564 1_555
H14 O0 1.215110 1_555
H14 O43 1.215110 1_444
H15 O16 0.994071 1_555
H16 O12 0.997527 1_555
H17 O9 1.211702 1_555
H17 O17 1.211702 1_555
H18 O14 0.997527 1_555
H19 O10 1.215110 1_555
H19 O33 1.215110 1_445
H20 O14 0.980564 1_555
H21 O11 0.997894 1_555
H21 O18 1.703700 1_555
H22 O13 0.996404 1_555
H23 O15 0.996416 1_555
H23 O0 1.698336 1_556
H24 O21 1.014620 1_555
H24 O7 1.577051 1_565
H25 O21 0.994433 1_555
H26 O19 0.999278 1_555
H26 O18 1.769351 1_555
H27 O23 0.982154 1_555
H28 O23 0.998638 1_555
H29 O16 0.990369 1_565
H30 O24 0.980766 1_555
H31 O19 0.980766 1_555
H32 O27 0.990369 1_545
H33 O20 0.998638 1_555
H34 O20 0.982154 1_555
H35 O24 0.999278 1_555
H35 O25 1.769351 1_555
H36 O22 0.994433 1_555
H37 O22 1.014620 1_555
H37 O36 1.577051 1_545
H38 O28 0.996416 1_555
H38 O43 1.698336 1_554
H39 O30 0.996404 1_555
H40 O32 0.997894 1_555
H40 O25 1.703700 1_555
H41 O29 0.980564 1_555
H42 O29 0.997527 1_555
H43 O26 1.211702 1_555
H43 O34 1.211702 1_555
H44 O31 0.997527 1_555
H45 O27 0.994071 1_555
H46 O31 0.980564 1_555
H47 O37 1.008860 1_555
H47 O25 1.693715 1_555
H48 O28 0.997894 1_555
H48 O41 1.703700 1_554
H49 O30 1.008860 1_555
H49 O41 1.693715 1_555
H50 O32 0.996416 1_555
H50 O10 1.698336 1_555
H51 O38 0.994071 1_555
H52 O40 0.982154 1_555
H53 O40 0.998638 1_555
H54 O5 0.990369 1_455
H55 O37 0.996404 1_555
H56 O39 0.994433 1_555
H57 O39 1.014620 1_555
H57 O8 1.577051 1_455
H58 O42 0.999278 1_555
H58 O41 1.769351 1_555
H59 O42 0.980766 1_555
