# generated using pymatgen
data_Li6WO6
_symmetry_space_group_name_H-M   'P 1'
_cell_length_a   5.57939961
_cell_length_b   5.57939960
_cell_length_c   5.57939960
_cell_angle_alpha   61.16643579
_cell_angle_beta   61.16643577
_cell_angle_gamma   61.16642535
_symmetry_Int_Tables_number   1
_chemical_formula_structural   Li6WO6
_chemical_formula_sum   'Li6 W1 O6'
_cell_volume   126.03699194
_cell_formula_units_Z   1
loop_
 _symmetry_equiv_pos_site_id
 _symmetry_equiv_pos_as_xyz
  1  'x, y, z'
loop_
 _atom_site_type_symbol
 _atom_site_label
 _atom_site_symmetry_multiplicity
 _atom_site_fract_x
 _atom_site_fract_y
 _atom_site_fract_z
 _atom_site_occupancy
  Li  Li0  1  0.91524762  0.27929052  0.48891090  1
  Li  Li1  1  0.51108910  0.08475238  0.72070948  1
  Li  Li2  1  0.72070948  0.51108910  0.08475238  1
  Li  Li3  1  0.27929052  0.48891090  0.91524762  1
  Li  Li4  1  0.48891090  0.91524762  0.27929052  1
  Li  Li5  1  0.08475238  0.72070948  0.51108910  1
  W  W0  1  -0.00000000  0.00000000  0.00000000  1
  O  O0  1  0.79629841  0.09961891  0.35123286  1
  O  O1  1  0.64876714  0.20370159  0.90038109  1
  O  O2  1  0.90038109  0.64876714  0.20370159  1
  O  O3  1  0.09961891  0.35123286  0.79629841  1
  O  O4  1  0.35123286  0.79629841  0.09961891  1
  O  O5  1  0.20370159  0.90038109  0.64876714  1
loop_
_geom_bond_atom_site_label_1
_geom_bond_atom_site_label_2
_geom_bond_distance
_geom_bond_site_symmetry_2
Li0 O2 1.893951 1_555
Li0 O0 1.977779 1_555
Li0 O1 2.009377 1_555
Li0 O5 2.034481 1_645
Li1 O0 1.893951 1_555
Li1 O1 1.977779 1_555
Li1 O3 2.009377 1_555
Li1 O4 2.034481 1_546
Li2 O4 1.893951 1_555
Li2 O2 1.977779 1_555
Li2 O0 2.009377 1_555
Li2 O3 2.034481 1_654
Li3 O1 1.893951 1_555
Li3 O3 1.977779 1_555
Li3 O5 2.009377 1_555
Li3 O2 2.034481 1_456
Li4 O5 1.893951 1_555
Li4 O4 1.977779 1_555
Li4 O2 2.009377 1_555
Li4 O1 2.034481 1_564
Li5 O3 1.893951 1_555
Li5 O5 1.977779 1_555
Li5 O4 2.009377 1_555
Li5 O0 2.034481 1_465
O0 W0 1.932352 1_655
O1 W0 1.932352 1_656
O2 W0 1.932352 1_665
O3 W0 1.932352 1_556
O4 W0 1.932352 1_565
O5 W0 1.932352 1_566
