# generated using pymatgen
data_Li3Sn(PO4)2
_symmetry_space_group_name_H-M   'P 1'
_cell_length_a   8.51899964
_cell_length_b   8.51899964
_cell_length_c   7.70899400
_cell_angle_alpha   90.00000000
_cell_angle_beta   90.00000000
_cell_angle_gamma   119.99999721
_symmetry_Int_Tables_number   1
_chemical_formula_structural   Li3Sn(PO4)2
_chemical_formula_sum   'Li9 Sn3 P6 O24'
_cell_volume   484.51313086
_cell_formula_units_Z   3
loop_
 _symmetry_equiv_pos_site_id
 _symmetry_equiv_pos_as_xyz
  1  'x, y, z'
loop_
 _atom_site_type_symbol
 _atom_site_label
 _atom_site_symmetry_multiplicity
 _atom_site_fract_x
 _atom_site_fract_y
 _atom_site_fract_z
 _atom_site_occupancy
  Li  Li0  1  0.35049500  0.00807400  0.64032100  1
  Li  Li1  1  0.99192600  0.34242100  0.64032100  1
  Li  Li2  1  0.00000000  0.00000000  0.60123200  1
  Li  Li3  1  0.33333300  0.66666700  0.52904700  1
  Li  Li4  1  0.30689900  0.34842900  0.35473300  1
  Li  Li5  1  0.65757900  0.64950500  0.64032100  1
  Li  Li6  1  0.66666700  0.33333300  0.49918200  1
  Li  Li7  1  0.04153000  0.69310100  0.35473300  1
  Li  Li8  1  0.65157100  0.95847000  0.35473300  1
  Sn  Sn0  1  0.00000000  0.00000000  0.05004600  1
  Sn  Sn1  1  0.33333300  0.66666700  0.02737800  1
  Sn  Sn2  1  0.66666700  0.33333300  0.94642100  1
  P  P0  1  0.02150700  0.68526000  0.74753800  1
  P  P1  1  0.31474000  0.33624600  0.74753800  1
  P  P2  1  0.66375400  0.97849300  0.74753800  1
  P  P3  1  0.37024300  0.03773900  0.24525200  1
  P  P4  1  0.66749600  0.62975700  0.24525200  1
  P  P5  1  0.96226100  0.33250400  0.24525200  1
  O  O0  1  0.15955200  0.93907800  0.25454600  1
  O  O1  1  0.14358800  0.70938500  0.58802300  1
  O  O2  1  0.14408900  0.76854500  0.90863000  1
  O  O3  1  0.43200400  0.89444700  0.21841300  1
  O  O4  1  0.10555300  0.53755700  0.21841300  1
  O  O5  1  0.06092200  0.22047400  0.25454600  1
  O  O6  1  0.62445600  0.85591100  0.90863000  1
  O  O7  1  0.22790900  0.13339300  0.70871900  1
  O  O8  1  0.23145500  0.37554400  0.90863000  1
  O  O9  1  0.29061500  0.43420200  0.58802300  1
  O  O10  1  0.56579800  0.85641200  0.58802300  1
  O  O11  1  0.46244300  0.56799600  0.21841300  1
  O  O12  1  0.52773000  0.41711900  0.77496800  1
  O  O13  1  0.44852400  0.13684100  0.41614700  1
  O  O14  1  0.68831700  0.55147600  0.41614700  1
  O  O15  1  0.74468300  0.56728000  0.09140700  1
  O  O16  1  0.77952600  0.84044800  0.25454600  1
  O  O17  1  0.43272000  0.17740400  0.09140700  1
  O  O18  1  0.90548400  0.77209100  0.70871900  1
  O  O19  1  0.88938900  0.47227000  0.77496800  1
  O  O20  1  0.58288100  0.11061100  0.77496800  1
  O  O21  1  0.82259600  0.25531700  0.09140700  1
  O  O22  1  0.86315900  0.31168300  0.41614700  1
  O  O23  1  0.86660700  0.09451600  0.70871900  1
loop_
_geom_bond_atom_site_label_1
_geom_bond_atom_site_label_2
_geom_bond_distance
_geom_bond_site_symmetry_2
Li0 O7 1.903486 1_555
Li0 O13 1.992782 1_555
Li0 O20 2.007576 1_555
Li0 O1 2.293249 1_545
Li1 O23 1.903486 1_555
Li1 O22 1.992782 1_555
Li1 O19 2.007576 1_555
Li1 O9 2.293251 1_655
Li2 O23 1.881823 1_455
Li2 O18 1.881823 1_445
Li2 O7 1.881824 1_555
Li3 O1 1.881556 1_555
Li3 O10 1.881566 1_555
Li3 O9 1.881572 1_555
Li4 O11 1.969871 1_555
Li4 O9 1.972026 1_555
Li4 O5 1.972707 1_555
Li5 O18 1.903486 1_555
Li5 O14 1.992782 1_555
Li5 O12 2.007576 1_555
Li5 O10 2.293243 1_555
Li6 O22 1.885335 1_555
Li6 O13 1.885340 1_555
Li6 O14 1.885343 1_555
Li7 O4 1.969871 1_555
Li7 O1 1.972030 1_555
Li7 O0 1.972707 1_555
Li8 O3 1.969871 1_555
Li8 O10 1.972028 1_555
Li8 O16 1.972707 1_555
O0 P3 1.557101 1_565
O0 Sn0 2.303821 1_565
O1 P0 1.556366 1_555
O2 P0 1.547643 1_555
O2 Sn1 2.364222 1_556
O3 P3 1.565892 1_565
O3 Sn1 2.238225 1_555
O4 P5 1.565892 1_455
O4 Sn1 2.238225 1_555
O5 P5 1.557101 1_455
O5 Sn0 2.303821 1_555
O6 P2 1.547642 1_555
O6 Sn1 2.364228 1_556
O7 P1 1.531265 1_555
O8 P1 1.547647 1_555
O8 Sn1 2.364230 1_556
O9 P1 1.556366 1_555
O10 P2 1.556366 1_555
O11 P4 1.565892 1_555
O11 Sn1 2.238231 1_555
O12 P1 1.600488 1_555
O12 Sn2 2.121836 1_555
O13 P3 1.526463 1_555
O14 P4 1.526463 1_555
O15 P4 1.572327 1_555
O15 Sn2 2.082885 1_554
O16 P4 1.557101 1_555
O16 Sn0 2.303821 1_665
O17 P3 1.572332 1_555
O17 Sn2 2.082882 1_554
O18 P0 1.531273 1_655
O19 P0 1.600489 1_655
O19 Sn2 2.121830 1_555
O20 P2 1.600496 1_545
O20 Sn2 2.121829 1_555
O21 P5 1.572332 1_555
O21 Sn2 2.082871 1_554
O22 P5 1.526463 1_555
O23 P2 1.531266 1_545
