# generated using pymatgen
data_Li5Fe5(CuO6)2
_symmetry_space_group_name_H-M   'P 1'
_cell_length_a   5.14537586
_cell_length_b   5.14537586
_cell_length_c   9.79151443
_cell_angle_alpha   86.78226650
_cell_angle_beta   86.78226650
_cell_angle_gamma   116.82911152
_symmetry_Int_Tables_number   1
_chemical_formula_structural   Li5Fe5(CuO6)2
_chemical_formula_sum   'Li5 Fe5 Cu2 O12'
_cell_volume   229.99279668
_cell_formula_units_Z   1
loop_
 _symmetry_equiv_pos_site_id
 _symmetry_equiv_pos_as_xyz
  1  'x, y, z'
loop_
 _atom_site_type_symbol
 _atom_site_label
 _atom_site_symmetry_multiplicity
 _atom_site_fract_x
 _atom_site_fract_y
 _atom_site_fract_z
 _atom_site_occupancy
  Li  Li0  1  0.83562700  0.65135100  0.26395000  1
  Li  Li1  1  0.67888700  0.85844400  0.73728800  1
  Li  Li2  1  0.34864900  0.16437300  0.73605000  1
  Li  Li3  1  0.14155600  0.32111300  0.26271200  1
  Li  Li4  1  0.08123400  0.91876600  0.50000000  1
  Fe  Fe0  1  0.91661200  0.08338800  0.00000000  1
  Fe  Fe1  1  0.00077900  0.50733900  0.73986600  1
  Fe  Fe2  1  0.49266100  0.99922100  0.26013400  1
  Fe  Fe3  1  0.58347700  0.41652300  0.00000000  1
  Fe  Fe4  1  0.41551600  0.58448400  0.50000000  1
  Cu  Cu0  1  0.74955000  0.25045000  0.50000000  1
  Cu  Cu1  1  0.25086000  0.74914000  0.00000000  1
  O  O0  1  0.05097400  0.23303100  0.61748700  1
  O  O1  1  0.76696900  0.94902600  0.38251300  1
  O  O2  1  0.83329300  0.33269500  0.13062400  1
  O  O3  1  0.66730500  0.16670700  0.86937600  1
  O  O4  1  0.70270300  0.53167400  0.62179000  1
  O  O5  1  0.46832600  0.29729700  0.37821000  1
  O  O6  1  0.56246400  0.73335100  0.11058300  1
  O  O7  1  0.26664900  0.43753600  0.88941700  1
  O  O8  1  0.34266100  0.82910600  0.63652600  1
  O  O9  1  0.17089400  0.65733900  0.36347400  1
  O  O10  1  0.23033200  0.05797600  0.11341900  1
  O  O11  1  0.94202400  0.76966800  0.88658100  1
loop_
_geom_bond_atom_site_label_1
_geom_bond_atom_site_label_2
_geom_bond_distance
_geom_bond_site_symmetry_2
Li0 O9 2.017567 1_655
Li0 O1 2.111980 1_555
Li0 O5 2.137331 1_555
Li0 O2 2.148711 1_555
Li0 O6 2.260470 1_555
Li0 O10 2.481276 1_665
Li1 O8 1.990408 1_555
Li1 O3 2.121097 1_565
Li1 O4 2.122448 1_555
Li1 O11 2.210014 1_555
Li1 O0 2.217988 1_665
Li1 O7 2.558298 1_555
Li2 O8 2.017567 1_545
Li2 O0 2.111980 1_555
Li2 O4 2.137331 1_555
Li2 O3 2.148711 1_555
Li2 O7 2.260470 1_555
Li2 O11 2.481276 1_445
Li3 O9 1.990408 1_555
Li3 O2 2.121097 1_455
Li3 O5 2.122448 1_555
Li3 O10 2.210014 1_555
Li3 O1 2.217988 1_445
Li3 O6 2.558298 1_555
Li4 O1 2.092441 1_455
Li4 O0 2.092441 1_565
Li4 O8 2.121802 1_555
Li4 O9 2.121802 1_555
Li4 O5 2.270134 1_565
Li4 O4 2.270134 1_455
Fe0 O2 2.020942 1_555
Fe0 O3 2.020942 1_554
Fe0 O10 2.057069 1_655
Fe0 O11 2.057069 1_544
Fe0 O6 2.081788 1_545
Fe0 O7 2.081788 1_654
Fe1 O8 1.960248 1_555
Fe1 O0 1.994702 1_555
Fe1 O4 2.015137 1_455
Fe1 O3 2.101361 1_455
Fe1 O11 2.124684 1_455
Fe1 O7 2.180376 1_555
Fe2 O9 1.960248 1_555
Fe2 O1 1.994702 1_555
Fe2 O5 2.015137 1_565
Fe2 O2 2.101361 1_565
Fe2 O10 2.124684 1_565
Fe2 O6 2.180376 1_555
Fe3 O2 2.024163 1_555
Fe3 O3 2.024163 1_554
Fe3 O6 2.045912 1_555
Fe3 O7 2.045912 1_554
Fe3 O10 2.110941 1_555
Fe3 O11 2.110941 1_554
Fe4 O8 2.017509 1_555
Fe4 O9 2.017509 1_555
Fe4 O5 2.050208 1_555
Fe4 O4 2.050208 1_555
Fe4 O1 2.138748 1_555
Fe4 O0 2.138748 1_555
Cu0 O4 2.012532 1_555
Cu0 O5 2.012532 1_555
Cu0 O0 2.012711 1_655
Cu0 O1 2.012711 1_545
Cu0 O8 2.476628 1_545
Cu0 O9 2.476628 1_655
Cu1 O7 2.013014 1_554
Cu1 O6 2.013014 1_555
Cu1 O10 2.026347 1_565
Cu1 O11 2.026347 1_454
Cu1 O3 2.464077 1_564
Cu1 O2 2.464077 1_455
