# generated using pymatgen
data_Li3Fe8(BO3)8
_symmetry_space_group_name_H-M   'P 1'
_cell_length_a   5.23908600
_cell_length_b   9.05579098
_cell_length_c   10.15837282
_cell_angle_alpha   89.77807785
_cell_angle_beta   89.75767714
_cell_angle_gamma   89.57172928
_symmetry_Int_Tables_number   1
_chemical_formula_structural   Li3Fe8(BO3)8
_chemical_formula_sum   'Li3 Fe8 B8 O24'
_cell_volume   481.93319752
_cell_formula_units_Z   1
loop_
 _symmetry_equiv_pos_site_id
 _symmetry_equiv_pos_as_xyz
  1  'x, y, z'
loop_
 _atom_site_type_symbol
 _atom_site_label
 _atom_site_symmetry_multiplicity
 _atom_site_fract_x
 _atom_site_fract_y
 _atom_site_fract_z
 _atom_site_occupancy
  Li  Li0  1  0.33638800  0.32365300  0.89824600  1
  Li  Li1  1  0.65609000  0.67885800  0.66421700  1
  Li  Li2  1  0.68960900  0.67017700  0.16651600  1
  Fe  Fe0  1  0.15059400  0.84734200  0.62810300  1
  Fe  Fe1  1  0.18224000  0.48715000  0.13571000  1
  Fe  Fe2  1  0.32272700  0.98554600  0.87716300  1
  Fe  Fe3  1  0.32049200  0.66371100  0.38390800  1
  Fe  Fe4  1  0.67161000  0.33336700  0.62924100  1
  Fe  Fe5  1  0.67408700  0.01045300  0.12574200  1
  Fe  Fe6  1  0.83691300  0.16365800  0.37626200  1
  Fe  Fe7  1  0.82707500  0.50378400  0.88600100  1
  B  B0  1  0.17363300  0.50297900  0.62864500  1
  B  B1  1  0.17362100  0.83001500  0.12941200  1
  B  B2  1  0.33888300  0.00064200  0.37241600  1
  B  B3  1  0.32334300  0.66221700  0.87306100  1
  B  B4  1  0.65081300  0.99736500  0.62786700  1
  B  B5  1  0.66853000  0.33376900  0.12506300  1
  B  B6  1  0.83021000  0.49616800  0.37980600  1
  B  B7  1  0.83125200  0.16569700  0.87833200  1
  O  O0  1  0.08679400  0.50404700  0.34714200  1
  O  O1  1  0.08904100  0.15318800  0.87904400  1
  O  O2  1  0.18360900  0.79121900  0.84297400  1
  O  O3  1  0.25778100  0.86731900  0.42317800  1
  O  O4  1  0.18400900  0.12017200  0.37216000  1
  O  O5  1  0.20029300  0.53680600  0.91927400  1
  O  O6  1  0.32212500  0.38205500  0.65113100  1
  O  O7  1  0.32781800  0.94072900  0.07659500  1
  O  O8  1  0.28806900  0.63338400  0.58247600  1
  O  O9  1  0.30050200  0.70464000  0.17875600  1
  O  O10  1  0.41693200  0.32007200  0.09755900  1
  O  O11  1  0.41189100  0.00414400  0.68805600  1
  O  O12  1  0.59067700  0.00893700  0.32237700  1
  O  O13  1  0.58135400  0.66325100  0.85205500  1
  O  O14  1  0.70798800  0.29242900  0.82841700  1
  O  O15  1  0.73490500  0.36334600  0.42994700  1
  O  O16  1  0.67182600  0.61365500  0.35924600  1
  O  O17  1  0.67423800  0.05624400  0.93130000  1
  O  O18  1  0.79925600  0.46469700  0.09898300  1
  O  O19  1  0.78117200  0.86999200  0.61892600  1
  O  O20  1  0.74821800  0.12980200  0.57397100  1
  O  O21  1  0.80638900  0.20932800  0.17370900  1
  O  O22  1  0.91322900  0.84466500  0.13359200  1
  O  O23  1  0.90951200  0.50381200  0.65482600  1
loop_
_geom_bond_atom_site_label_1
_geom_bond_atom_site_label_2
_geom_bond_distance
_geom_bond_site_symmetry_2
Li0 O1 2.033397 1_555
Li0 O5 2.064288 1_555
Li0 O10 2.070030 1_556
Li0 O14 2.086857 1_555
Li0 O6 2.564672 1_555
Li1 O19 1.909257 1_555
Li1 O13 1.951066 1_555
Li1 O23 2.062358 1_555
Li1 O8 2.145851 1_555
Li2 O22 2.000372 1_555
Li2 O16 2.023648 1_555
Li2 O18 2.062454 1_555
Li2 O9 2.063311 1_555
Fe0 O19 1.947334 1_455
Fe0 O11 2.074625 1_565
Fe0 O8 2.114470 1_555
Fe0 O3 2.161085 1_555
Fe0 O2 2.246300 1_555
Fe1 O10 1.980905 1_555
Fe1 O18 2.054152 1_455
Fe1 O9 2.116933 1_555
Fe1 O0 2.208811 1_555
Fe1 O5 2.244188 1_554
Fe2 O2 1.942868 1_555
Fe2 O1 1.943255 1_565
Fe2 O11 1.981913 1_565
Fe2 O17 2.032910 1_565
Fe2 O7 2.064859 1_556
Fe3 O16 1.908091 1_555
Fe3 O3 1.913721 1_555
Fe3 O0 1.940013 1_555
Fe3 O8 2.041223 1_555
Fe3 O9 2.118190 1_555
Fe4 O6 1.892509 1_555
Fe4 O20 1.967142 1_555
Fe4 O23 2.009497 1_555
Fe4 O14 2.064925 1_555
Fe4 O15 2.067290 1_555
Fe5 O22 1.949847 1_545
Fe5 O7 1.991540 1_545
Fe5 O21 1.997420 1_555
Fe5 O17 2.016699 1_554
Fe5 O12 2.042943 1_555
Fe6 O4 1.858067 1_655
Fe6 O15 1.960566 1_555
Fe6 O12 1.991466 1_555
Fe6 O20 2.081603 1_555
Fe6 O21 2.103706 1_555
Fe7 O13 1.957989 1_555
Fe7 O5 2.010489 1_655
Fe7 O14 2.103425 1_555
Fe7 O18 2.195371 1_556
Fe7 O23 2.385949 1_555
B0 O6 1.357716 1_555
B0 O8 1.406378 1_555
B0 O23 1.407944 1_455
B1 O22 1.370160 1_455
B1 O7 1.396417 1_555
B1 O9 1.403327 1_555
B2 O4 1.347929 1_555
B2 O3 1.380261 1_545
B2 O12 1.414125 1_555
B3 O13 1.367685 1_555
B3 O5 1.389259 1_555
B3 O2 1.407274 1_555
B4 O19 1.339281 1_555
B4 O11 1.391801 1_565
B4 O20 1.414300 1_565
B5 O10 1.355278 1_555
B5 O18 1.397572 1_555
B5 O21 1.422082 1_555
B6 O16 1.360396 1_555
B6 O0 1.385539 1_655
B6 O15 1.399135 1_555
B7 O1 1.354524 1_655
B7 O17 1.397485 1_555
B7 O14 1.406575 1_555
