# generated using pymatgen
data_Li4V3Cr3(FeO8)2
_symmetry_space_group_name_H-M   'P 1'
_cell_length_a   5.86601490
_cell_length_b   5.93129056
_cell_length_c   9.58529270
_cell_angle_alpha   90.00330240
_cell_angle_beta   89.31278677
_cell_angle_gamma   120.35211625
_symmetry_Int_Tables_number   1
_chemical_formula_structural   Li4V3Cr3(FeO8)2
_chemical_formula_sum   'Li4 V3 Cr3 Fe2 O16'
_cell_volume   287.76284407
_cell_formula_units_Z   1
loop_
 _symmetry_equiv_pos_site_id
 _symmetry_equiv_pos_as_xyz
  1  'x, y, z'
loop_
 _atom_site_type_symbol
 _atom_site_label
 _atom_site_symmetry_multiplicity
 _atom_site_fract_x
 _atom_site_fract_y
 _atom_site_fract_z
 _atom_site_occupancy
  Li  Li0  1  0.33487700  0.66692200  0.89078100  1
  Li  Li1  1  0.00341500  0.00317200  0.99623700  1
  Li  Li2  1  0.99393500  0.99582700  0.49617100  1
  Li  Li3  1  0.67441900  0.33767300  0.39363800  1
  V  V0  1  0.82950200  0.65788300  0.71513000  1
  V  V1  1  0.65924000  0.83072800  0.21596900  1
  V  V2  1  0.82591400  0.16563000  0.71337400  1
  Cr  Cr0  1  0.17198200  0.83278000  0.21522700  1
  Cr  Cr1  1  0.17223100  0.34047500  0.21539900  1
  Cr  Cr2  1  0.33952200  0.17028400  0.71032600  1
  Fe  Fe0  1  0.32534900  0.66281000  0.49029900  1
  Fe  Fe1  1  0.65854700  0.33056000  0.99123700  1
  O  O0  1  0.15121500  0.83057300  0.60011700  1
  O  O1  1  0.04299300  0.52201000  0.33940100  1
  O  O2  1  0.35499900  0.67804800  0.10487700  1
  O  O3  1  0.98888000  0.99510900  0.31093400  1
  O  O4  1  0.99512200  0.99615100  0.81091900  1
  O  O5  1  0.14914900  0.31989000  0.60124300  1
  O  O6  1  0.49679700  0.96423200  0.33670100  1
  O  O7  1  0.49675300  0.53354800  0.33677400  1
  O  O8  1  0.32549700  0.16323500  0.09857400  1
  O  O9  1  0.66734600  0.83249200  0.60407100  1
  O  O10  1  0.52627500  0.48668500  0.83498400  1
  O  O11  1  0.52689100  0.03805200  0.83412800  1
  O  O12  1  0.67659300  0.33778500  0.60039800  1
  O  O13  1  0.82477200  0.67570800  0.10597200  1
  O  O14  1  0.96326100  0.48152400  0.83880600  1
  O  O15  1  0.82452500  0.15051500  0.10615700  1
loop_
_geom_bond_atom_site_label_1
_geom_bond_atom_site_label_2
_geom_bond_distance
_geom_bond_site_symmetry_2
Li0 O14 1.952639 1_455
Li0 O10 1.971796 1_555
Li0 O11 1.972028 1_565
Li0 O2 2.056119 1_556
Li1 O4 1.777486 1_445
Li1 O8 1.914350 1_556
Li1 O15 1.968564 1_456
Li1 O13 1.973268 1_446
Li2 O3 1.776123 1_555
Li2 O0 1.934099 1_655
Li2 O9 1.937863 1_555
Li2 O5 1.947040 1_665
Li3 O1 1.929842 1_655
Li3 O12 1.982047 1_555
Li3 O7 1.992582 1_555
Li3 O6 1.992675 1_545
Cr0 O3 1.985863 1_455
Cr0 O1 1.988958 1_555
Cr0 O2 2.020414 1_555
Cr0 O8 2.023661 1_565
Cr0 O6 2.036130 1_555
Cr0 O13 2.060669 1_455
Cr1 O3 1.985330 1_445
Cr1 O1 1.987474 1_555
Cr1 O2 2.020956 1_555
Cr1 O8 2.024432 1_555
Cr1 O7 2.034365 1_555
Cr1 O15 2.062687 1_455
Cr2 O4 1.980534 1_445
Cr2 O12 1.992923 1_555
Cr2 O10 2.025623 1_555
Cr2 O11 2.033218 1_555
Cr2 O5 2.038955 1_555
Cr2 O0 2.043141 1_545
Fe0 O0 2.035407 1_555
Fe0 O5 2.045836 1_555
Fe0 O1 2.047502 1_555
Fe0 O9 2.058808 1_555
Fe0 O7 2.123148 1_555
Fe0 O6 2.126740 1_555
Fe1 O8 1.962836 1_556
Fe1 O13 2.087890 1_556
Fe1 O15 2.092464 1_556
Fe1 O14 2.109870 1_555
Fe1 O10 2.111145 1_555
Fe1 O11 2.132557 1_555
O0 V0 1.955153 1_455
O2 V1 1.884463 1_555
O3 V1 1.911821 1_555
O4 V0 1.965612 1_555
O4 V2 1.975007 1_565
O5 V2 1.945637 1_455
O6 V1 1.900072 1_555
O7 V1 1.905819 1_555
O9 V2 2.008203 1_565
O9 V0 2.032394 1_555
O10 V0 1.908025 1_555
O11 V2 1.897123 1_555
O12 V2 1.977210 1_555
O12 V0 1.980148 1_555
O13 V1 1.943601 1_555
O14 V0 1.991761 1_555
O14 V2 2.025492 1_555
O15 V1 1.939801 1_545
