# generated using pymatgen
data_Mn2Co(PO4)3
_symmetry_space_group_name_H-M   'P 1'
_cell_length_a   8.50503621
_cell_length_b   8.50503621
_cell_length_c   8.50503658
_cell_angle_alpha   60.91131217
_cell_angle_beta   60.91131217
_cell_angle_gamma   60.91130852
_symmetry_Int_Tables_number   1
_chemical_formula_structural   Mn2Co(PO4)3
_chemical_formula_sum   'Mn4 Co2 P6 O24'
_cell_volume   443.95946635
_cell_formula_units_Z   2
loop_
 _symmetry_equiv_pos_site_id
 _symmetry_equiv_pos_as_xyz
  1  'x, y, z'
loop_
 _atom_site_type_symbol
 _atom_site_label
 _atom_site_symmetry_multiplicity
 _atom_site_fract_x
 _atom_site_fract_y
 _atom_site_fract_z
 _atom_site_occupancy
  Mn  Mn0  1  0.64245900  0.64245900  0.64245900  1
  Mn  Mn1  1  0.14245900  0.14245900  0.14245900  1
  Mn  Mn2  1  0.85754100  0.85754100  0.85754100  1
  Mn  Mn3  1  0.35754100  0.35754100  0.35754100  1
  Co  Co0  1  0.00000000  0.00000000  0.00000000  1
  Co  Co1  1  0.50000000  0.50000000  0.50000000  1
  P  P0  1  0.95765700  0.25000000  0.54234300  1
  P  P1  1  0.54234300  0.95765700  0.25000000  1
  P  P2  1  0.25000000  0.54234300  0.95765700  1
  P  P3  1  0.75000000  0.45765700  0.04234300  1
  P  P4  1  0.45765700  0.04234300  0.75000000  1
  P  P5  1  0.04234300  0.75000000  0.45765700  1
  O  O0  1  0.51085600  0.11568300  0.31020100  1
  O  O1  1  0.31020100  0.51085600  0.11568300  1
  O  O2  1  0.11568300  0.31020100  0.51085600  1
  O  O3  1  0.94317500  0.08913500  0.74171300  1
  O  O4  1  0.98914400  0.18979900  0.38431700  1
  O  O5  1  0.75828700  0.41086500  0.55682500  1
  O  O6  1  0.74171300  0.94317500  0.08913500  1
  O  O7  1  0.55682500  0.75828700  0.41086500  1
  O  O8  1  0.81020100  0.61568300  0.01085600  1
  O  O9  1  0.41086500  0.55682500  0.75828700  1
  O  O10  1  0.91086500  0.25828700  0.05682500  1
  O  O11  1  0.61568300  0.01085600  0.81020100  1
  O  O12  1  0.38431700  0.98914400  0.18979900  1
  O  O13  1  0.08913500  0.74171300  0.94317500  1
  O  O14  1  0.58913500  0.44317500  0.24171300  1
  O  O15  1  0.18979900  0.38431700  0.98914400  1
  O  O16  1  0.44317500  0.24171300  0.58913500  1
  O  O17  1  0.25828700  0.05682500  0.91086500  1
  O  O18  1  0.24171300  0.58913500  0.44317500  1
  O  O19  1  0.01085600  0.81020100  0.61568300  1
  O  O20  1  0.05682500  0.91086500  0.25828700  1
  O  O21  1  0.88431700  0.68979900  0.48914400  1
  O  O22  1  0.68979900  0.48914400  0.88431700  1
  O  O23  1  0.48914400  0.88431700  0.68979900  1
loop_
_geom_bond_atom_site_label_1
_geom_bond_atom_site_label_2
_geom_bond_distance
_geom_bond_site_symmetry_2
Mn0 O23 1.944349 1_555
Mn0 O21 1.944349 1_555
Mn0 O22 1.944349 1_555
Mn0 O5 2.047251 1_555
Mn0 O9 2.047251 1_555
Mn0 O7 2.047251 1_555
Mn1 O12 1.944349 1_545
Mn1 O15 1.944349 1_554
Mn1 O4 1.944349 1_455
Mn1 O10 2.047251 1_455
Mn1 O20 2.047251 1_545
Mn1 O17 2.047251 1_554
Mn2 O11 1.944349 1_565
Mn2 O8 1.944349 1_556
Mn2 O19 1.944349 1_655
Mn2 O13 2.047251 1_655
Mn2 O3 2.047251 1_565
Mn2 O6 2.047251 1_556
Mn3 O0 1.944349 1_555
Mn3 O2 1.944349 1_555
Mn3 O1 1.944349 1_555
Mn3 O18 2.047251 1_555
Mn3 O14 2.047251 1_555
Mn3 O16 2.047251 1_555
Co0 O10 2.165815 1_455
Co0 O13 2.165815 1_544
Co0 O17 2.165815 1_554
Co0 O6 2.165815 1_445
Co0 O20 2.165815 1_545
Co0 O3 2.165815 1_454
Co1 O5 2.165815 1_555
Co1 O18 2.165815 1_555
Co1 O7 2.165815 1_555
Co1 O16 2.165815 1_555
Co1 O9 2.165815 1_555
Co1 O14 2.165815 1_555
O0 P1 1.525148 1_545
O1 P2 1.525148 1_554
O2 P0 1.525148 1_455
O3 P0 1.570772 1_555
O4 P0 1.525148 1_555
O5 P0 1.570772 1_555
O6 P1 1.570772 1_555
O7 P1 1.570772 1_555
O8 P3 1.525148 1_555
O9 P2 1.570772 1_555
O10 P3 1.570772 1_555
O11 P4 1.525148 1_555
O12 P1 1.525148 1_555
O13 P2 1.570772 1_555
O14 P3 1.570772 1_555
O15 P2 1.525148 1_555
O16 P4 1.570772 1_555
O17 P4 1.570772 1_555
O18 P5 1.570772 1_555
O19 P5 1.525148 1_555
O20 P5 1.570772 1_555
O21 P5 1.525148 1_655
O22 P3 1.525148 1_556
O23 P4 1.525148 1_565
