# generated using pymatgen
data_Li5(CoO2)8
_symmetry_space_group_name_H-M   'P 1'
_cell_length_a   9.98373024
_cell_length_b   5.65450600
_cell_length_c   9.76160860
_cell_angle_alpha   89.90569943
_cell_angle_beta   85.46898389
_cell_angle_gamma   81.98940087
_symmetry_Int_Tables_number   1
_chemical_formula_structural   Li5(CoO2)8
_chemical_formula_sum   'Li10 Co16 O32'
_cell_volume   543.96557760
_cell_formula_units_Z   2
loop_
 _symmetry_equiv_pos_site_id
 _symmetry_equiv_pos_as_xyz
  1  'x, y, z'
loop_
 _atom_site_type_symbol
 _atom_site_label
 _atom_site_symmetry_multiplicity
 _atom_site_fract_x
 _atom_site_fract_y
 _atom_site_fract_z
 _atom_site_occupancy
  Li  Li0  1  0.74284600  0.06053100  0.53170000  1
  Li  Li1  1  0.74519300  0.05556300  0.00586300  1
  Li  Li2  1  0.25452100  0.18710800  0.73257000  1
  Li  Li3  1  0.25403000  0.41453000  0.99328300  1
  Li  Li4  1  0.74979900  0.30974200  0.27338500  1
  Li  Li5  1  0.74414100  0.57108700  0.00409400  1
  Li  Li6  1  0.24959900  0.68575800  0.22876400  1
  Li  Li7  1  0.25554100  0.68604100  0.73253800  1
  Li  Li8  1  0.74777600  0.56550800  0.53436800  1
  Li  Li9  1  0.25850200  0.95360000  0.46378600  1
  Co  Co0  1  0.00710700  0.99815400  0.00041500  1
  Co  Co1  1  0.00088400  0.00307800  0.49759000  1
  Co  Co2  1  0.00635100  0.24974900  0.24998300  1
  Co  Co3  1  0.50129300  0.12412700  0.87360200  1
  Co  Co4  1  0.49994600  0.12462200  0.37576300  1
  Co  Co5  1  0.99505800  0.25329700  0.75153900  1
  Co  Co6  1  0.49894800  0.37450800  0.12664200  1
  Co  Co7  1  0.00714700  0.49847200  0.49850500  1
  Co  Co8  1  0.99948600  0.50179700  0.99908800  1
  Co  Co9  1  0.49754200  0.37539300  0.62423400  1
  Co  Co10  1  0.99267500  0.75190700  0.24940000  1
  Co  Co11  1  0.99206700  0.74986700  0.75149300  1
  Co  Co12  1  0.49972500  0.62484100  0.87417300  1
  Co  Co13  1  0.50295200  0.62402100  0.37599400  1
  Co  Co14  1  0.49717300  0.87536400  0.12656100  1
  Co  Co15  1  0.50105100  0.87434800  0.62465400  1
  O  O0  1  0.89708700  0.03281100  0.34489800  1
  O  O1  1  0.60153000  0.10108800  0.19810900  1
  O  O2  1  0.39645100  0.14284700  0.55088600  1
  O  O3  1  0.10393100  0.21680200  0.41083700  1
  O  O4  1  0.40175600  0.15048300  0.05004300  1
  O  O5  1  0.10309000  0.22817200  0.90850100  1
  O  O6  1  0.59844200  0.09941000  0.69706300  1
  O  O7  1  0.90074400  0.02326800  0.84572500  1
  O  O8  1  0.10272200  0.48293900  0.15605900  1
  O  O9  1  0.60653100  0.34634600  0.45059800  1
  O  O10  1  0.40249600  0.40265500  0.29792300  1
  O  O11  1  0.09994300  0.48052300  0.66558400  1
  O  O12  1  0.89946800  0.27465400  0.58828200  1
  O  O13  1  0.39299800  0.40099000  0.80142300  1
  O  O14  1  0.60259900  0.34989700  0.95367700  1
  O  O15  1  0.89744000  0.27348500  0.09043600  1
  O  O16  1  0.39666800  0.64699600  0.05288000  1
  O  O17  1  0.10154300  0.72173900  0.90419400  1
  O  O18  1  0.10224700  0.73471300  0.40475000  1
  O  O19  1  0.59783800  0.60129000  0.69804300  1
  O  O20  1  0.89637400  0.52732000  0.84266200  1
  O  O21  1  0.60237000  0.59725000  0.19686500  1
  O  O22  1  0.90024900  0.51780400  0.34414800  1
  O  O23  1  0.39758700  0.65787100  0.55042000  1
  O  O24  1  0.09816900  0.97094600  0.15716300  1
  O  O25  1  0.89598500  0.78001500  0.08399100  1
  O  O26  1  0.39896200  0.89486800  0.30048500  1
  O  O27  1  0.10239500  0.97340300  0.65982800  1
  O  O28  1  0.60073300  0.84897400  0.95478500  1
  O  O29  1  0.60417500  0.85041800  0.45450300  1
  O  O30  1  0.89886600  0.77653600  0.58824900  1
  O  O31  1  0.39725800  0.90047200  0.79700300  1
loop_
_geom_bond_atom_site_label_1
_geom_bond_atom_site_label_2
_geom_bond_distance
_geom_bond_site_symmetry_2
Li0 O6 2.068239 1_555
Li0 O29 2.126581 1_545
Li0 O9 2.154953 1_555
Li0 O30 2.178429 1_545
Li0 O12 2.209616 1_555
Li0 O0 2.282758 1_555
Li1 O28 2.068426 1_544
Li1 O7 2.104053 1_554
Li1 O14 2.123103 1_554
Li1 O25 2.190763 1_545
Li1 O1 2.262436 1_555
Li1 O15 2.287794 1_555
Li2 O13 2.107424 1_555
Li2 O31 2.132563 1_545
Li2 O2 2.172893 1_555
Li2 O5 2.186824 1_555
Li2 O27 2.226180 1_545
Li2 O11 2.236995 1_555
Li3 O4 2.055252 1_556
Li3 O8 2.101498 1_556
Li3 O5 2.169962 1_555
Li3 O16 2.179308 1_556
Li3 O13 2.235783 1_555
Li3 O17 2.357682 1_555
Li4 O9 2.146850 1_555
Li4 O0 2.149075 1_555
Li4 O22 2.185536 1_555
Li4 O1 2.187388 1_555
Li4 O21 2.206841 1_555
Li4 O15 2.214758 1_555
Li5 O28 2.056691 1_554
Li5 O20 2.091052 1_554
Li5 O14 2.099505 1_554
Li5 O25 2.234080 1_555
Li5 O21 2.255658 1_555
Li5 O15 2.316441 1_555
Li6 O8 2.145935 1_555
Li6 O16 2.159852 1_555
Li6 O18 2.163515 1_555
Li6 O26 2.184272 1_555
Li6 O10 2.196975 1_555
Li6 O24 2.204174 1_555
Li7 O13 2.111673 1_555
Li7 O31 2.118801 1_555
Li7 O17 2.172536 1_555
Li7 O23 2.176374 1_555
Li7 O11 2.203841 1_555
Li7 O27 2.226434 1_555
Li8 O19 2.091238 1_555
Li8 O30 2.145925 1_555
Li8 O12 2.168929 1_555
Li8 O29 2.187999 1_555
Li8 O9 2.205798 1_555
Li8 O22 2.297503 1_555
Li9 O26 2.033870 1_555
Li9 O3 2.084933 1_565
Li9 O2 2.088920 1_565
Li9 O23 2.230097 1_555
Li9 O18 2.231627 1_555
Li9 O27 2.363171 1_555
Co0 O24 1.836158 1_555
Co0 O5 1.903325 1_564
Co0 O7 1.907506 1_464
Co0 O25 1.911259 1_455
Co0 O17 1.915276 1_554
Co0 O15 1.942213 1_465
Co1 O3 1.855142 1_555
Co1 O0 1.875754 1_455
Co1 O18 1.892026 1_545
Co1 O12 1.896466 1_455
Co1 O30 1.918067 1_445
Co1 O27 1.941311 1_545
Co2 O24 1.901921 1_545
Co2 O3 1.907733 1_555
Co2 O22 1.915120 1_455
Co2 O8 1.927486 1_555
Co2 O0 1.939765 1_455
Co2 O15 1.962682 1_455
Co3 O6 1.904984 1_555
Co3 O4 1.914517 1_556
Co3 O28 1.929782 1_545
Co3 O31 1.931111 1_545
Co3 O14 1.936947 1_555
Co3 O13 1.939392 1_555
Co4 O10 1.918882 1_555
Co4 O2 1.921565 1_555
Co4 O26 1.931185 1_545
Co4 O9 1.932750 1_555
Co4 O1 1.933638 1_555
Co4 O29 1.936596 1_545
Co5 O20 1.898248 1_555
Co5 O7 1.903782 1_555
Co5 O12 1.916409 1_555
Co5 O11 1.919372 1_655
Co5 O5 1.936182 1_655
Co5 O27 1.958328 1_645
Co6 O10 1.857928 1_555
Co6 O4 1.888294 1_555
Co6 O1 1.895755 1_555
Co6 O21 1.897232 1_555
Co6 O16 1.899787 1_555
Co6 O14 1.904090 1_554
Co7 O22 1.908490 1_455
Co7 O3 1.909880 1_555
Co7 O18 1.932786 1_555
Co7 O11 1.934069 1_555
Co7 O12 1.937038 1_455
Co7 O30 1.946653 1_455
Co8 O20 1.902220 1_555
Co8 O8 1.907863 1_656
Co8 O17 1.908718 1_655
Co8 O25 1.909311 1_556
Co8 O5 1.913021 1_655
Co8 O15 1.928471 1_556
Co9 O6 1.904430 1_555
Co9 O19 1.904431 1_555
Co9 O23 1.931808 1_555
Co9 O9 1.934837 1_555
Co9 O2 1.935838 1_555
Co9 O13 1.943068 1_555
Co10 O22 1.913310 1_555
Co10 O24 1.914175 1_655
Co10 O8 1.931596 1_655
Co10 O18 1.933338 1_655
Co10 O0 1.935077 1_565
Co10 O25 1.940850 1_555
Co11 O20 1.866914 1_555
Co11 O7 1.883266 1_565
Co11 O11 1.893962 1_655
Co11 O30 1.903221 1_555
Co11 O17 1.910494 1_655
Co11 O27 1.959639 1_655
Co12 O19 1.905666 1_555
Co12 O31 1.927852 1_555
Co12 O28 1.930605 1_555
Co12 O13 1.933978 1_555
Co12 O14 1.936780 1_555
Co12 O16 1.949024 1_556
Co13 O10 1.904531 1_555
Co13 O26 1.908067 1_555
Co13 O23 1.924651 1_555
Co13 O9 1.930719 1_555
Co13 O29 1.932251 1_555
Co13 O21 1.936603 1_555
Co14 O26 1.887717 1_555
Co14 O4 1.892364 1_565
Co14 O28 1.893897 1_554
Co14 O16 1.915685 1_555
Co14 O1 1.921176 1_565
Co14 O21 1.922780 1_555
Co15 O19 1.876383 1_555
Co15 O6 1.876432 1_565
Co15 O29 1.878505 1_555
Co15 O23 1.887869 1_555
Co15 O2 1.894052 1_565
Co15 O31 1.899685 1_555
