# generated using pymatgen
data_Li2MnFe(BO3)2
_symmetry_space_group_name_H-M   'P 1'
_cell_length_a   3.16248500
_cell_length_b   8.26232600
_cell_length_c   14.29922708
_cell_angle_alpha   89.82061415
_cell_angle_beta   90.00000000
_cell_angle_gamma   90.00000000
_symmetry_Int_Tables_number   1
_chemical_formula_structural   Li2MnFe(BO3)2
_chemical_formula_sum   'Li6 Mn3 Fe3 B6 O18'
_cell_volume   373.62956602
_cell_formula_units_Z   3
loop_
 _symmetry_equiv_pos_site_id
 _symmetry_equiv_pos_as_xyz
  1  'x, y, z'
loop_
 _atom_site_type_symbol
 _atom_site_label
 _atom_site_symmetry_multiplicity
 _atom_site_fract_x
 _atom_site_fract_y
 _atom_site_fract_z
 _atom_site_occupancy
  Li  Li0  1  0.50000000  0.70744900  0.99089100  1
  Li  Li1  1  0.50000000  0.65968500  0.35822600  1
  Li  Li2  1  0.50000000  0.63445800  0.64991400  1
  Li  Li3  1  0.50000000  0.20759600  0.49090900  1
  Li  Li4  1  0.50000000  0.15747100  0.85672100  1
  Li  Li5  1  0.50000000  0.13282000  0.15113500  1
  Mn  Mn0  1  0.00000000  0.80813800  0.18014400  1
  Mn  Mn1  1  0.00000000  0.36550600  0.00585300  1
  Mn  Mn2  1  0.00000000  0.30738200  0.68031600  1
  Fe  Fe0  1  0.00000000  0.86411600  0.50424200  1
  Fe  Fe1  1  0.00000000  0.82421500  0.81628800  1
  Fe  Fe2  1  0.00000000  0.32410700  0.31703700  1
  B  B0  1  0.50000000  0.99732600  0.66597200  1
  B  B1  1  0.00000000  0.00065200  0.99867600  1
  B  B2  1  0.50000000  0.00101000  0.33448500  1
  B  B3  1  0.50000000  0.49790400  0.16803300  1
  B  B4  1  0.00000000  0.50224200  0.49984500  1
  B  B5  1  0.50000000  0.50219500  0.83330900  1
  O  O0  1  0.50000000  0.98899100  0.43142000  1
  O  O1  1  0.50000000  0.98065000  0.76291700  1
  O  O2  1  0.50000000  0.86180000  0.60859900  1
  O  O3  1  0.50000000  0.86199300  0.28026500  1
  O  O4  1  0.00000000  0.84686500  0.95816200  1
  O  O5  1  0.50000000  0.65099000  0.12643000  1
  O  O6  1  0.50000000  0.65310200  0.78984500  1
  O  O7  1  0.00000000  0.64088500  0.44413300  1
  O  O8  1  0.00000000  0.51657800  0.59653800  1
  O  O9  1  0.50000000  0.49144300  0.93010400  1
  O  O10  1  0.50000000  0.48210000  0.26493100  1
  O  O11  1  0.50000000  0.36065000  0.11180500  1
  O  O12  1  0.50000000  0.36193800  0.77999000  1
  O  O13  1  0.00000000  0.34944800  0.45822800  1
  O  O14  1  0.50000000  0.15171400  0.62570100  1
  O  O15  1  0.50000000  0.15263800  0.29168400  1
  O  O16  1  0.00000000  0.13714500  0.94162000  1
  O  O17  1  0.00000000  0.01679700  0.09562900  1
loop_
_geom_bond_atom_site_label_1
_geom_bond_atom_site_label_2
_geom_bond_distance
_geom_bond_site_symmetry_2
Li0 O9 1.987569 1_555
Li0 O5 1.992031 1_556
Li0 O4 2.010684 1_555
Li0 O4 2.010684 1_655
Li1 O10 1.986153 1_555
Li1 O3 2.006265 1_555
Li1 O7 2.008043 1_655
Li1 O7 2.008043 1_555
Li2 O2 1.967321 1_555
Li2 O6 2.007307 1_555
Li2 O8 2.009008 1_555
Li2 O8 2.009008 1_655
Li3 O14 1.980546 1_555
Li3 O0 1.998882 1_545
Li3 O13 2.022110 1_555
Li3 O13 2.022110 1_655
Li4 O1 1.986405 1_545
Li4 O16 2.000257 1_655
Li4 O16 2.000257 1_555
Li4 O12 2.011519 1_555
Li5 O11 1.962932 1_555
Li5 O17 2.013453 1_655
Li5 O17 2.013453 1_555
Li5 O15 2.016912 1_555
Mn0 O17 2.102292 1_565
Mn0 O3 2.179895 1_455
Mn0 O3 2.179895 1_555
Mn0 O5 2.186862 1_555
Mn0 O5 2.186862 1_455
Mn1 O16 2.101059 1_554
Mn1 O9 2.179265 1_454
Mn1 O9 2.179265 1_554
Mn1 O11 2.190178 1_455
Mn1 O11 2.190178 1_555
Mn2 O8 2.099921 1_555
Mn2 O12 2.176902 1_555
Mn2 O12 2.176902 1_455
Mn2 O14 2.184207 1_455
Mn2 O14 2.184207 1_555
Fe0 O7 2.037284 1_555
Fe0 O0 2.154629 1_455
Fe0 O0 2.154629 1_555
Fe0 O2 2.174224 1_455
Fe0 O2 2.174224 1_555
Fe1 O4 2.037885 1_555
Fe1 O6 2.155331 1_455
Fe1 O6 2.155331 1_555
Fe1 O1 2.178800 1_455
Fe1 O1 2.178800 1_555
Fe2 O13 2.030402 1_555
Fe2 O15 2.154554 1_455
Fe2 O15 2.154554 1_555
Fe2 O10 2.180233 1_555
Fe2 O10 2.180233 1_455
B0 O2 1.390199 1_555
B0 O1 1.392640 1_555
B0 O14 1.397914 1_565
B1 O16 1.389849 1_555
B1 O17 1.393172 1_556
B1 O4 1.398121 1_545
B2 O3 1.387791 1_545
B2 O0 1.389338 1_545
B2 O15 1.392579 1_555
B3 O10 1.391299 1_555
B3 O11 1.392190 1_555
B3 O5 1.396073 1_555
B4 O8 1.388069 1_555
B4 O7 1.393241 1_555
B4 O13 1.397346 1_555
B5 O9 1.386664 1_555
B5 O12 1.389154 1_555
B5 O6 1.391413 1_555
