# generated using pymatgen
data_KLiMnPCO7
_symmetry_space_group_name_H-M   'P 1'
_cell_length_a   5.39605121
_cell_length_b   6.31738507
_cell_length_c   9.99270718
_cell_angle_alpha   90.01645094
_cell_angle_beta   91.62803855
_cell_angle_gamma   89.99484626
_symmetry_Int_Tables_number   1
_chemical_formula_structural   KLiMnPCO7
_chemical_formula_sum   'K2 Li2 Mn2 P2 C2 O14'
_cell_volume   340.50320798
_cell_formula_units_Z   2
loop_
 _symmetry_equiv_pos_site_id
 _symmetry_equiv_pos_as_xyz
  1  'x, y, z'
loop_
 _atom_site_type_symbol
 _atom_site_label
 _atom_site_symmetry_multiplicity
 _atom_site_fract_x
 _atom_site_fract_y
 _atom_site_fract_z
 _atom_site_occupancy
  K  K0  1  0.23475200  0.42428800  0.75712500  1
  K  K1  1  0.76526500  0.92432900  0.24288100  1
  Li  Li0  1  0.23003500  0.91399600  0.88376100  1
  Li  Li1  1  0.77007100  0.41396500  0.11625700  1
  Mn  Mn0  1  0.77374600  0.78302000  0.63781800  1
  Mn  Mn1  1  0.22563500  0.28279600  0.36223000  1
  P  P0  1  0.70623100  0.27760200  0.55844300  1
  P  P1  1  0.29370400  0.77750500  0.44156500  1
  C  C0  1  0.73375000  0.73391500  0.90281000  1
  C  C1  1  0.26637200  0.23385700  0.09720200  1
  O  O0  1  0.22909100  0.17719100  0.97611500  1
  O  O1  1  0.92794600  0.76867700  0.82593500  1
  O  O2  1  0.51920800  0.75844300  0.84510800  1
  O  O3  1  0.76709300  0.08861600  0.65453000  1
  O  O4  1  0.76308300  0.47237500  0.65095000  1
  O  O5  1  0.14805200  0.77347200  0.57001600  1
  O  O6  1  0.41977500  0.27854200  0.52655100  1
  O  O7  1  0.58024000  0.77864900  0.47339800  1
  O  O8  1  0.85196400  0.27337300  0.43000300  1
  O  O9  1  0.23695900  0.97225100  0.34896700  1
  O  O10  1  0.23312700  0.58845600  0.34550200  1
  O  O11  1  0.48086800  0.25837600  0.15489400  1
  O  O12  1  0.07204000  0.26840900  0.17407200  1
  O  O13  1  0.77099100  0.67708100  0.02384700  1
loop_
_geom_bond_atom_site_label_1
_geom_bond_atom_site_label_2
_geom_bond_distance
_geom_bond_site_symmetry_2
K0 O0 2.689259 1_555
K0 O6 2.698620 1_555
K0 O2 2.740093 1_555
K0 O4 2.746334 1_455
K0 O1 2.830227 1_455
K0 O5 2.921190 1_555
K0 O4 3.085094 1_555
K1 O13 2.689450 1_555
K1 O7 2.698503 1_555
K1 O11 2.739580 1_565
K1 O9 2.746006 1_655
K1 O12 2.829157 1_665
K1 O8 2.919857 1_565
K1 O9 3.084426 1_555
Li0 O2 1.892998 1_555
Li0 O0 1.901494 1_565
Li0 O1 1.944303 1_455
Li1 O11 1.893475 1_555
Li1 O13 1.901791 1_555
Li1 O12 1.944462 1_655
Mn0 O7 1.921718 1_555
Mn0 O3 1.938146 1_565
Mn0 O4 1.967840 1_555
Mn0 O1 2.036026 1_555
Mn0 O5 2.149391 1_655
Mn0 O2 2.522527 1_555
Mn1 O6 1.922666 1_555
Mn1 O10 1.938766 1_555
Mn1 O9 1.967327 1_545
Mn1 O12 2.035124 1_555
Mn1 O8 2.146040 1_455
Mn1 O11 2.524894 1_555
C0 O13 1.272234 1_556
C0 O2 1.287940 1_555
C0 O1 1.335027 1_555
C1 O0 1.272250 1_554
C1 O11 1.287656 1_555
C1 O12 1.335264 1_555
O3 P0 1.561359 1_555
O4 P0 1.563951 1_555
O5 P1 1.524226 1_555
O6 P0 1.569360 1_555
O7 P1 1.569685 1_555
O8 P0 1.524374 1_555
O9 P1 1.564620 1_555
O10 P1 1.560845 1_555
