# generated using pymatgen
data_BiP2O7
_symmetry_space_group_name_H-M   'P 1'
_cell_length_a   8.86145700
_cell_length_b   7.17858500
_cell_length_c   9.84219691
_cell_angle_alpha   74.21508097
_cell_angle_beta   90.00000000
_cell_angle_gamma   90.00000000
_symmetry_Int_Tables_number   1
_chemical_formula_structural   BiP2O7
_chemical_formula_sum   'Bi4 P8 O28'
_cell_volume   602.47889185
_cell_formula_units_Z   4
loop_
 _symmetry_equiv_pos_site_id
 _symmetry_equiv_pos_as_xyz
  1  'x, y, z'
loop_
 _atom_site_type_symbol
 _atom_site_label
 _atom_site_symmetry_multiplicity
 _atom_site_fract_x
 _atom_site_fract_y
 _atom_site_fract_z
 _atom_site_occupancy
  Bi  Bi0  1  0.76891200  0.71806200  0.99370700  1
  Bi  Bi1  1  0.73108800  0.71806200  0.49370700  1
  Bi  Bi2  1  0.26891200  0.28193800  0.50629300  1
  Bi  Bi3  1  0.23108800  0.28193800  0.00629300  1
  P  P0  1  0.53398000  0.93970300  0.71920200  1
  P  P1  1  0.96602000  0.93970300  0.21920200  1
  P  P2  1  0.41583800  0.55598000  0.70744500  1
  P  P3  1  0.91583800  0.44402000  0.79255500  1
  P  P4  1  0.08416200  0.55598000  0.20744500  1
  P  P5  1  0.58416200  0.44402000  0.29255500  1
  P  P6  1  0.03398000  0.06029700  0.78079800  1
  P  P7  1  0.46602000  0.06029700  0.28079800  1
  O  O0  1  0.57666100  0.91377500  0.87517700  1
  O  O1  1  0.95541600  0.86559400  0.83750600  1
  O  O2  1  0.67393600  0.91369500  0.63342700  1
  O  O3  1  0.92333900  0.91377500  0.37517700  1
  O  O4  1  0.40643700  0.78115300  0.70831300  1
  O  O5  1  0.54458400  0.86559400  0.33750600  1
  O  O6  1  0.82606400  0.91369500  0.13342700  1
  O  O7  1  0.09356300  0.78115300  0.20831300  1
  O  O8  1  0.91579900  0.56583000  0.63773600  1
  O  O9  1  0.06736700  0.47521700  0.85886300  1
  O  O10  1  0.77872100  0.47776500  0.87843200  1
  O  O11  1  0.27872100  0.52223500  0.62156800  1
  O  O12  1  0.56736700  0.52478300  0.64113700  1
  O  O13  1  0.41579900  0.43417000  0.86226400  1
  O  O14  1  0.58420100  0.56583000  0.13773600  1
  O  O15  1  0.43263300  0.47521700  0.35886300  1
  O  O16  1  0.72127900  0.47776500  0.37843200  1
  O  O17  1  0.22127900  0.52223500  0.12156800  1
  O  O18  1  0.93263300  0.52478300  0.14113700  1
  O  O19  1  0.08420100  0.43417000  0.36226400  1
  O  O20  1  0.90643700  0.21884700  0.79168700  1
  O  O21  1  0.17393600  0.08630500  0.86657300  1
  O  O22  1  0.45541600  0.13440600  0.66249400  1
  O  O23  1  0.59356300  0.21884700  0.29168700  1
  O  O24  1  0.07666100  0.08622500  0.62482300  1
  O  O25  1  0.32606400  0.08630500  0.36657300  1
  O  O26  1  0.04458400  0.13440600  0.16249400  1
  O  O27  1  0.42333900  0.08622500  0.12482300  1
loop_
_geom_bond_atom_site_label_1
_geom_bond_atom_site_label_2
_geom_bond_distance
_geom_bond_site_symmetry_2
Bi0 O14 2.245006 1_556
Bi0 O18 2.245014 1_556
Bi0 O6 2.273867 1_556
Bi0 O1 2.308832 1_555
Bi0 O10 2.309794 1_555
Bi0 O0 2.312021 1_555
Bi1 O8 2.245006 1_555
Bi1 O12 2.245014 1_555
Bi1 O2 2.273867 1_555
Bi1 O5 2.308832 1_555
Bi1 O16 2.309794 1_555
Bi1 O3 2.312021 1_555
Bi2 O19 2.245006 1_555
Bi2 O15 2.245014 1_555
Bi2 O25 2.273867 1_555
Bi2 O22 2.308832 1_555
Bi2 O11 2.309794 1_555
Bi2 O24 2.312021 1_555
Bi3 O13 2.245006 1_554
Bi3 O9 2.245014 1_554
Bi3 O21 2.273867 1_554
Bi3 O26 2.308832 1_555
Bi3 O17 2.309794 1_555
Bi3 O27 2.312021 1_555
O0 P0 1.542363 1_555
O1 P6 1.524901 1_665
O2 P0 1.539947 1_555
O3 P1 1.542363 1_555
O4 P2 1.620911 1_555
O4 P0 1.628084 1_555
O5 P7 1.524901 1_565
O6 P1 1.539947 1_555
O7 P4 1.620911 1_555
O7 P1 1.628084 1_455
O8 P3 1.536735 1_555
O9 P3 1.535774 1_455
O10 P3 1.536499 1_555
O11 P2 1.536499 1_555
O12 P2 1.535774 1_555
O13 P2 1.536735 1_555
O14 P5 1.536735 1_555
O15 P5 1.535774 1_555
O16 P5 1.536499 1_555
O17 P4 1.536499 1_555
O18 P4 1.535774 1_655
O19 P4 1.536735 1_555
O20 P3 1.620911 1_555
O20 P6 1.628084 1_655
O21 P6 1.539947 1_555
O22 P0 1.524901 1_545
O23 P5 1.620911 1_555
O23 P7 1.628084 1_555
O24 P6 1.542363 1_555
O25 P7 1.539947 1_555
O26 P1 1.524901 1_445
O27 P7 1.542363 1_555
