# generated using pymatgen
data_Y3Ge13Ru4
_symmetry_space_group_name_H-M   'P 1'
_cell_length_a   9.00779800
_cell_length_b   9.00779800
_cell_length_c   9.00779800
_cell_angle_alpha   90.00000000
_cell_angle_beta   90.00000000
_cell_angle_gamma   90.00000000
_symmetry_Int_Tables_number   1
_chemical_formula_structural   Y3Ge13Ru4
_chemical_formula_sum   'Y6 Ge26 Ru8'
_cell_volume   730.89655631
_cell_formula_units_Z   2
loop_
 _symmetry_equiv_pos_site_id
 _symmetry_equiv_pos_as_xyz
  1  'x, y, z'
loop_
 _atom_site_type_symbol
 _atom_site_label
 _atom_site_symmetry_multiplicity
 _atom_site_fract_x
 _atom_site_fract_y
 _atom_site_fract_z
 _atom_site_occupancy
  Y  Y0  1  0.50000000  0.00000000  0.25000000  1
  Y  Y1  1  0.75000000  0.50000000  0.00000000  1
  Y  Y2  1  0.00000000  0.75000000  0.50000000  1
  Y  Y3  1  0.25000000  0.50000000  0.00000000  1
  Y  Y4  1  0.50000000  0.00000000  0.75000000  1
  Y  Y5  1  0.00000000  0.25000000  0.50000000  1
  Ge  Ge0  1  0.00000000  0.69336300  0.85031200  1
  Ge  Ge1  1  0.50000000  0.64968800  0.19336300  1
  Ge  Ge2  1  0.30663700  0.14968800  0.00000000  1
  Ge  Ge3  1  0.50000000  0.50000000  0.50000000  1
  Ge  Ge4  1  0.64968800  0.19336300  0.50000000  1
  Ge  Ge5  1  0.19336300  0.50000000  0.64968800  1
  Ge  Ge6  1  0.14968800  0.00000000  0.30663700  1
  Ge  Ge7  1  0.69336300  0.14968800  0.00000000  1
  Ge  Ge8  1  0.80663700  0.50000000  0.35031200  1
  Ge  Ge9  1  0.50000000  0.35031200  0.80663700  1
  Ge  Ge10  1  0.35031200  0.19336300  0.50000000  1
  Ge  Ge11  1  0.30663700  0.85031200  0.00000000  1
  Ge  Ge12  1  0.00000000  0.69336300  0.14968800  1
  Ge  Ge13  1  0.69336300  0.85031200  0.00000000  1
  Ge  Ge14  1  0.35031200  0.80663700  0.50000000  1
  Ge  Ge15  1  0.85031200  0.00000000  0.30663700  1
  Ge  Ge16  1  0.00000000  0.30663700  0.14968800  1
  Ge  Ge17  1  0.14968800  0.00000000  0.69336300  1
  Ge  Ge18  1  0.64968800  0.80663700  0.50000000  1
  Ge  Ge19  1  0.50000000  0.64968800  0.80663700  1
  Ge  Ge20  1  0.50000000  0.35031200  0.19336300  1
  Ge  Ge21  1  0.00000000  0.00000000  0.00000000  1
  Ge  Ge22  1  0.80663700  0.50000000  0.64968800  1
  Ge  Ge23  1  0.00000000  0.30663700  0.85031200  1
  Ge  Ge24  1  0.19336300  0.50000000  0.35031200  1
  Ge  Ge25  1  0.85031200  0.00000000  0.69336300  1
  Ru  Ru0  1  0.25000000  0.25000000  0.25000000  1
  Ru  Ru1  1  0.25000000  0.75000000  0.25000000  1
  Ru  Ru2  1  0.75000000  0.25000000  0.25000000  1
  Ru  Ru3  1  0.25000000  0.75000000  0.75000000  1
  Ru  Ru4  1  0.75000000  0.75000000  0.25000000  1
  Ru  Ru5  1  0.25000000  0.25000000  0.75000000  1
  Ru  Ru6  1  0.75000000  0.25000000  0.75000000  1
  Ru  Ru7  1  0.75000000  0.75000000  0.75000000  1
loop_
_geom_bond_atom_site_label_1
_geom_bond_atom_site_label_2
_geom_bond_distance
_geom_bond_site_symmetry_2
Ge0 Ru7 2.479522 1_455
Ge0 Ru3 2.479522 1_555
Ge0 Ge12 2.696719 1_556
Ge0 Ge21 3.073663 1_566
Ge0 Y1 3.150100 1_456
Ge0 Y3 3.150100 1_556
Ge0 Y2 3.196515 1_555
Ge1 Ru4 2.479522 1_555
Ge1 Ru1 2.479522 1_555
Ge1 Ge20 2.696719 1_555
Ge1 Ge3 3.073663 1_555
Ge1 Y1 3.150100 1_555
Ge1 Y3 3.150100 1_555
Ge1 Y0 3.196515 1_565
Ge2 Ru5 2.479522 1_554
Ge2 Ru0 2.479522 1_555
Ge2 Ge21 3.073663 1_555
Ge2 Y4 3.150100 1_554
Ge2 Y0 3.150100 1_555
Ge2 Y3 3.196515 1_555
Ge3 Ge4 3.073663 1_555
Ge3 Ge5 3.073663 1_555
Ge3 Ge8 3.073663 1_555
Ge3 Ge9 3.073663 1_555
Ge4 Ru2 2.479522 1_555
Ge4 Ru6 2.479522 1_555
Ge4 Y0 3.150100 1_555
Ge4 Y4 3.150100 1_555
Ge4 Y5 3.196515 1_655
Ge5 Ru5 2.479522 1_555
Ge5 Ru3 2.479522 1_555
Ge5 Y2 3.150100 1_555
Ge5 Y5 3.150100 1_555
Ge5 Y3 3.196515 1_556
Ge6 Ru0 2.479522 1_555
Ge6 Ru1 2.479522 1_545
Ge6 Y5 3.150100 1_555
Ge6 Y2 3.150100 1_545
Ge6 Y0 3.196515 1_555
Ge7 Ru2 2.479522 1_555
Ge7 Ru6 2.479522 1_554
Ge7 Y4 3.150100 1_554
Ge7 Y0 3.150100 1_555
Ge7 Y1 3.196515 1_555
Ge8 Ru2 2.479522 1_555
Ge8 Ru4 2.479522 1_555
Ge8 Y2 3.150100 1_655
Ge8 Y5 3.150100 1_655
Ge8 Y1 3.196515 1_555
Ge9 Ru6 2.479522 1_555
Ge9 Ru5 2.479522 1_555
Ge9 Y1 3.150100 1_556
Ge9 Y3 3.150100 1_556
Ge9 Y4 3.196515 1_555
Ge10 Ru0 2.479522 1_555
Ge10 Ru5 2.479522 1_555
Ge10 Ge4 2.696719 1_555
Ge10 Ge3 3.073663 1_555
Ge10 Y0 3.150100 1_555
Ge10 Y4 3.150100 1_555
Ge10 Y5 3.196515 1_555
Ge11 Ru3 2.479522 1_554
Ge11 Ru1 2.479522 1_555
Ge11 Ge2 2.696719 1_565
Ge11 Ge21 3.073663 1_565
Ge11 Y4 3.150100 1_564
Ge11 Y0 3.150100 1_565
Ge11 Y3 3.196515 1_555
Ge12 Ru4 2.479522 1_455
Ge12 Ru1 2.479522 1_555
Ge12 Ge21 3.073663 1_565
Ge12 Y1 3.150100 1_455
Ge12 Y3 3.150100 1_555
Ge12 Y2 3.196515 1_555
Ge13 Ru4 2.479522 1_555
Ge13 Ru7 2.479522 1_554
Ge13 Ge7 2.696719 1_565
Ge13 Ge21 3.073663 1_665
Ge13 Y0 3.150100 1_565
Ge13 Y4 3.150100 1_564
Ge13 Y1 3.196515 1_555
Ge14 Ru3 2.479522 1_555
Ge14 Ru1 2.479522 1_555
Ge14 Ge18 2.696719 1_555
Ge14 Ge3 3.073663 1_555
Ge14 Y0 3.150100 1_565
Ge14 Y4 3.150100 1_565
Ge14 Y2 3.196515 1_555
Ge15 Ru4 2.479522 1_545
Ge15 Ru2 2.479522 1_555
Ge15 Ge6 2.696719 1_655
Ge15 Ge21 3.073663 1_655
Ge15 Y2 3.150100 1_645
Ge15 Y5 3.150100 1_655
Ge15 Y0 3.196515 1_555
Ge16 Ru0 2.479522 1_555
Ge16 Ru2 2.479522 1_455
Ge16 Ge23 2.696719 1_554
Ge16 Ge21 3.073663 1_555
Ge16 Y1 3.150100 1_455
Ge16 Y3 3.150100 1_555
Ge16 Y5 3.196515 1_555
Ge17 Ru3 2.479522 1_545
Ge17 Ru5 2.479522 1_555
Ge17 Ge25 2.696719 1_455
Ge17 Ge21 3.073663 1_556
Ge17 Y2 3.150100 1_545
Ge17 Y5 3.150100 1_555
Ge17 Y4 3.196515 1_555
Ge18 Ru7 2.479522 1_555
Ge18 Ru4 2.479522 1_555
Ge18 Ge3 3.073663 1_555
Ge18 Y0 3.150100 1_565
Ge18 Y4 3.150100 1_565
Ge18 Y2 3.196515 1_655
Ge19 Ru7 2.479522 1_555
Ge19 Ru3 2.479522 1_555
Ge19 Ge9 2.696719 1_555
Ge19 Ge3 3.073663 1_555
Ge19 Y1 3.150100 1_556
Ge19 Y3 3.150100 1_556
Ge19 Y4 3.196515 1_565
Ge20 Ru0 2.479522 1_555
Ge20 Ru2 2.479522 1_555
Ge20 Ge3 3.073663 1_555
Ge20 Y3 3.150100 1_555
Ge20 Y1 3.150100 1_555
Ge20 Y0 3.196515 1_555
Ge21 Ge6 3.073663 1_555
Ge21 Ge23 3.073663 1_554
Ge21 Ge25 3.073663 1_454
Ge21 Ge7 3.073663 1_455
Ge22 Ru7 2.479522 1_555
Ge22 Ru6 2.479522 1_555
Ge22 Ge8 2.696719 1_555
Ge22 Ge3 3.073663 1_555
Ge22 Y2 3.150100 1_655
Ge22 Y5 3.150100 1_655
Ge22 Y1 3.196515 1_556
Ge23 Ru6 2.479522 1_455
Ge23 Ru5 2.479522 1_555
Ge23 Y3 3.150100 1_556
Ge23 Y1 3.150100 1_456
Ge23 Y5 3.196515 1_555
Ge24 Ru0 2.479522 1_555
Ge24 Ru1 2.479522 1_555
Ge24 Ge5 2.696719 1_555
Ge24 Ge3 3.073663 1_555
Ge24 Y2 3.150100 1_555
Ge24 Y5 3.150100 1_555
Ge24 Y3 3.196515 1_555
Ge25 Ru6 2.479522 1_555
Ge25 Ru7 2.479522 1_545
Ge25 Y2 3.150100 1_645
Ge25 Y5 3.150100 1_655
Ge25 Y4 3.196515 1_555
Ru0 Y3 3.184738 1_555
Ru0 Y0 3.184738 1_555
Ru0 Y5 3.184738 1_555
Ru1 Y2 3.184738 1_555
Ru1 Y3 3.184738 1_555
Ru1 Y0 3.184738 1_565
Ru2 Y5 3.184738 1_655
Ru2 Y0 3.184738 1_555
Ru2 Y1 3.184738 1_555
Ru3 Y2 3.184738 1_555
Ru3 Y4 3.184738 1_565
Ru3 Y3 3.184738 1_556
Ru4 Y1 3.184738 1_555
Ru4 Y0 3.184738 1_565
Ru4 Y2 3.184738 1_655
Ru5 Y5 3.184738 1_555
Ru5 Y4 3.184738 1_555
Ru5 Y3 3.184738 1_556
Ru6 Y5 3.184738 1_655
Ru6 Y1 3.184738 1_556
Ru6 Y4 3.184738 1_555
Ru7 Y1 3.184738 1_556
Ru7 Y4 3.184738 1_565
Ru7 Y2 3.184738 1_655
