# generated using pymatgen
data_MnCd9O10
_symmetry_space_group_name_H-M   'P 1'
_cell_length_a   6.72428842
_cell_length_b   8.90331722
_cell_length_c   19.91093114
_cell_angle_alpha   100.90268429
_cell_angle_beta   80.26680798
_cell_angle_gamma   112.23621840
_symmetry_Int_Tables_number   1
_chemical_formula_structural   MnCd9O10
_chemical_formula_sum   'Mn4 Cd36 O40'
_cell_volume   1077.22114121
_cell_formula_units_Z   4
loop_
 _symmetry_equiv_pos_site_id
 _symmetry_equiv_pos_as_xyz
  1  'x, y, z'
loop_
 _atom_site_type_symbol
 _atom_site_label
 _atom_site_symmetry_multiplicity
 _atom_site_fract_x
 _atom_site_fract_y
 _atom_site_fract_z
 _atom_site_occupancy
  Mn  Mn0  1  0.00011400  0.49960000  0.49981600  1
  Mn  Mn1  1  0.49980000  0.24984000  0.74989400  1
  Mn  Mn2  1  0.00059600  0.00086500  0.00000800  1
  Mn  Mn3  1  0.49982400  0.74985300  0.25021100  1
  Cd  Cd0  1  0.50003100  0.49995300  0.49995400  1
  Cd  Cd1  1  0.50001600  0.00011000  0.99998400  1
  Cd  Cd2  1  0.99996400  0.74998900  0.24999800  1
  Cd  Cd3  1  0.00002500  0.24982500  0.74997300  1
  Cd  Cd4  1  0.79853800  0.20000300  0.59983600  1
  Cd  Cd5  1  0.79866700  0.70018600  0.09988900  1
  Cd  Cd6  1  0.29861600  0.45012300  0.34996700  1
  Cd  Cd7  1  0.29879100  0.95034900  0.84994700  1
  Cd  Cd8  1  0.20135500  0.79991500  0.40016800  1
  Cd  Cd9  1  0.20121200  0.29974500  0.90019900  1
  Cd  Cd10  1  0.70139300  0.04987300  0.15009200  1
  Cd  Cd11  1  0.70117500  0.54976100  0.65005400  1
  Cd  Cd12  1  0.30349600  0.20307000  0.59937300  1
  Cd  Cd13  1  0.30347000  0.70307600  0.09939200  1
  Cd  Cd14  1  0.80337600  0.45318600  0.34946600  1
  Cd  Cd15  1  0.80347700  0.95341200  0.84951000  1
  Cd  Cd16  1  0.69650400  0.79687500  0.40063900  1
  Cd  Cd17  1  0.69639100  0.29667100  0.90063900  1
  Cd  Cd18  1  0.19657800  0.04677300  0.15054200  1
  Cd  Cd19  1  0.19667400  0.54676500  0.65055600  1
  Cd  Cd20  1  0.90040600  0.84875000  0.54980400  1
  Cd  Cd21  1  0.90042900  0.34859000  0.04983400  1
  Cd  Cd22  1  0.40041200  0.09870800  0.29993900  1
  Cd  Cd23  1  0.40029900  0.59873100  0.79988400  1
  Cd  Cd24  1  0.09967300  0.15131700  0.45013900  1
  Cd  Cd25  1  0.09973100  0.65136600  0.95022100  1
  Cd  Cd26  1  0.59966900  0.40121400  0.20010400  1
  Cd  Cd27  1  0.59964300  0.90144300  0.70005400  1
  Cd  Cd28  1  0.60154100  0.15002800  0.44890600  1
  Cd  Cd29  1  0.60146700  0.65011600  0.94898000  1
  Cd  Cd30  1  0.10156000  0.39992700  0.19880600  1
  Cd  Cd31  1  0.10186700  0.90017900  0.69879000  1
  Cd  Cd32  1  0.39847600  0.85002100  0.55104500  1
  Cd  Cd33  1  0.39824500  0.34984500  0.05106800  1
  Cd  Cd34  1  0.89824700  0.10001100  0.30120300  1
  Cd  Cd35  1  0.89842700  0.60004100  0.80115300  1
  O  O0  1  0.95133300  0.05026900  0.64895500  1
  O  O1  1  0.95117500  0.55022400  0.14912800  1
  O  O2  1  0.45151700  0.30049500  0.39889600  1
  O  O3  1  0.45139100  0.80042600  0.89897500  1
  O  O4  1  0.04863600  0.94968700  0.35096900  1
  O  O5  1  0.04873000  0.44978700  0.85093700  1
  O  O6  1  0.54849300  0.19950500  0.10114500  1
  O  O7  1  0.54865400  0.69956900  0.60096500  1
  O  O8  1  0.45176500  0.05741800  0.65310100  1
  O  O9  1  0.45169700  0.55740400  0.15329000  1
  O  O10  1  0.95190500  0.30784600  0.40319100  1
  O  O11  1  0.95190700  0.80785300  0.90326200  1
  O  O12  1  0.54823700  0.94249000  0.34680800  1
  O  O13  1  0.54825300  0.44257400  0.84675300  1
  O  O14  1  0.04808700  0.19220900  0.09688400  1
  O  O15  1  0.04813000  0.69215000  0.59670200  1
  O  O16  1  0.14429400  0.35575300  0.54903000  1
  O  O17  1  0.14436000  0.85565700  0.04928300  1
  O  O18  1  0.64361500  0.60656900  0.29859100  1
  O  O19  1  0.64384000  0.10629300  0.79857400  1
  O  O20  1  0.85583100  0.64409400  0.45087000  1
  O  O21  1  0.85568300  0.14443000  0.95093100  1
  O  O22  1  0.35626100  0.89347100  0.20150400  1
  O  O23  1  0.35605400  0.39367900  0.70123400  1
  O  O24  1  0.66470300  0.35659200  0.54732800  1
  O  O25  1  0.66418200  0.85643800  0.04755000  1
  O  O26  1  0.16717500  0.60771400  0.29705300  1
  O  O27  1  0.16672200  0.10747000  0.79706600  1
  O  O28  1  0.33528800  0.64327700  0.45253300  1
  O  O29  1  0.33588600  0.14365800  0.95254900  1
  O  O30  1  0.83275300  0.89231900  0.20307100  1
  O  O31  1  0.83328300  0.39253400  0.70286000  1
  O  O32  1  0.25306600  0.00349200  0.50043200  1
  O  O33  1  0.25297400  0.50345900  0.00054800  1
  O  O34  1  0.75337200  0.25393500  0.25066100  1
  O  O35  1  0.75334200  0.75380700  0.75054500  1
  O  O36  1  0.74699100  0.99647900  0.49941500  1
  O  O37  1  0.74699700  0.49661900  0.99956100  1
  O  O38  1  0.24657500  0.24610000  0.24944600  1
  O  O39  1  0.24667000  0.74614800  0.74936400  1
loop_
_geom_bond_atom_site_label_1
_geom_bond_atom_site_label_2
_geom_bond_distance
_geom_bond_site_symmetry_2
Mn0 O28 2.271210 1_555
Mn0 O24 2.272377 1_455
Mn0 O10 2.295791 1_455
Mn0 O16 2.296973 1_555
Mn0 O20 2.298849 1_455
Mn0 O15 2.303308 1_555
Mn1 O27 2.257343 1_555
Mn1 O31 2.259068 1_555
Mn1 O19 2.287773 1_555
Mn1 O23 2.288216 1_555
Mn1 O8 2.301367 1_555
Mn1 O13 2.303796 1_555
Mn2 O29 2.270922 1_554
Mn2 O25 2.280723 1_445
Mn2 O21 2.296805 1_454
Mn2 O14 2.297457 1_555
Mn2 O11 2.303499 1_444
Mn2 O17 2.305416 1_545
Mn3 O26 2.252428 1_555
Mn3 O30 2.256633 1_555
Mn3 O18 2.281133 1_555
Mn3 O22 2.286337 1_555
Mn3 O12 2.299580 1_555
Mn3 O9 2.303332 1_555
Cd0 O24 2.371354 1_555
Cd0 O28 2.371987 1_555
Cd0 O16 2.384329 1_555
Cd0 O20 2.384569 1_555
Cd0 O2 2.395952 1_555
Cd0 O7 2.396021 1_555
Cd1 O29 2.370685 1_555
Cd1 O25 2.373248 1_546
Cd1 O21 2.384081 1_555
Cd1 O17 2.385988 1_546
Cd1 O3 2.396314 1_545
Cd1 O6 2.397138 1_556
Cd2 O30 2.371616 1_555
Cd2 O26 2.372697 1_655
Cd2 O22 2.381655 1_655
Cd2 O18 2.382448 1_555
Cd2 O1 2.394698 1_555
Cd2 O4 2.395834 1_655
Cd3 O27 2.371129 1_555
Cd3 O31 2.374068 1_455
Cd3 O19 2.381924 1_455
Cd3 O23 2.382755 1_555
Cd3 O0 2.395837 1_455
Cd3 O5 2.396983 1_555
Cd4 O8 2.367777 1_555
Cd4 O16 2.376343 1_655
Cd4 O0 2.378862 1_555
Cd4 O24 2.380279 1_555
Cd4 O31 2.393655 1_555
Cd4 O36 2.406228 1_545
Cd5 O9 2.370186 1_555
Cd5 O17 2.373851 1_655
Cd5 O25 2.378728 1_555
Cd5 O1 2.380524 1_555
Cd5 O30 2.394277 1_555
Cd5 O37 2.405115 1_554
Cd6 O10 2.366491 1_455
Cd6 O2 2.376384 1_555
Cd6 O18 2.378934 1_555
Cd6 O26 2.381693 1_555
Cd6 O28 2.389463 1_555
Cd6 O38 2.410053 1_555
Cd7 O11 2.368489 1_455
Cd7 O19 2.377814 1_565
Cd7 O3 2.378208 1_555
Cd7 O27 2.380713 1_565
Cd7 O29 2.390638 1_565
Cd7 O39 2.411791 1_555
Cd8 O12 2.368998 1_555
Cd8 O20 2.374692 1_455
Cd8 O28 2.379330 1_555
Cd8 O4 2.379709 1_555
Cd8 O26 2.393585 1_555
Cd8 O32 2.404256 1_565
Cd9 O13 2.370971 1_555
Cd9 O21 2.373614 1_455
Cd9 O29 2.378529 1_555
Cd9 O5 2.381241 1_555
Cd9 O27 2.394129 1_555
Cd9 O33 2.406122 1_556
Cd10 O14 2.366419 1_655
Cd10 O6 2.376619 1_555
Cd10 O22 2.379696 1_545
Cd10 O30 2.381859 1_545
Cd10 O25 2.390323 1_545
Cd10 O34 2.410922 1_555
Cd11 O15 2.368873 1_655
Cd11 O23 2.377067 1_555
Cd11 O7 2.377724 1_555
Cd11 O31 2.380736 1_555
Cd11 O24 2.391911 1_555
Cd11 O35 2.409738 1_555
Cd12 O32 2.366213 1_555
Cd12 O23 2.367424 1_555
Cd12 O8 2.384120 1_555
Cd12 O0 2.390059 1_455
Cd12 O16 2.445074 1_555
Cd12 O24 2.452265 1_555
Cd13 O33 2.365020 1_555
Cd13 O22 2.370247 1_555
Cd13 O9 2.386171 1_555
Cd13 O1 2.391893 1_455
Cd13 O17 2.441162 1_555
Cd13 O25 2.448078 1_555
Cd14 O20 2.361959 1_555
Cd14 O34 2.362709 1_555
Cd14 O10 2.383122 1_555
Cd14 O2 2.387282 1_555
Cd14 O18 2.458998 1_555
Cd14 O26 2.469600 1_655
Cd15 O21 2.362666 1_565
Cd15 O35 2.366685 1_555
Cd15 O11 2.384524 1_555
Cd15 O3 2.389321 1_555
Cd15 O19 2.455551 1_565
Cd15 O27 2.466088 1_665
Cd16 O36 2.363990 1_555
Cd16 O18 2.368916 1_555
Cd16 O12 2.385129 1_555
Cd16 O4 2.390558 1_655
Cd16 O20 2.445062 1_555
Cd16 O28 2.451403 1_555
Cd17 O37 2.367720 1_555
Cd17 O19 2.369433 1_555
Cd17 O13 2.387222 1_555
Cd17 O5 2.392503 1_655
Cd17 O21 2.441766 1_555
Cd17 O29 2.446765 1_555
Cd18 O17 2.360709 1_545
Cd18 O38 2.364483 1_555
Cd18 O14 2.382785 1_555
Cd18 O6 2.387415 1_555
Cd18 O22 2.459070 1_545
Cd18 O30 2.470384 1_445
Cd19 O39 2.363386 1_555
Cd19 O16 2.364219 1_555
Cd19 O15 2.385107 1_555
Cd19 O7 2.389261 1_555
Cd19 O23 2.452733 1_555
Cd19 O31 2.466181 1_455
Cd20 O15 2.378440 1_655
Cd20 O0 2.378543 1_565
Cd20 O36 2.382612 1_555
Cd20 O7 2.390772 1_555
Cd20 O20 2.391408 1_555
Cd20 O32 2.395695 1_665
Cd21 O14 2.378271 1_655
Cd21 O1 2.381127 1_555
Cd21 O37 2.383437 1_554
Cd21 O21 2.388484 1_554
Cd21 O6 2.392511 1_555
Cd21 O33 2.394864 1_655
Cd22 O12 2.375805 1_545
Cd22 O2 2.377092 1_555
Cd22 O38 2.383491 1_555
Cd22 O22 2.387436 1_545
Cd22 O4 2.389566 1_545
Cd22 O34 2.397658 1_555
Cd23 O13 2.375974 1_555
Cd23 O3 2.378543 1_555
Cd23 O39 2.382992 1_555
Cd23 O5 2.388568 1_555
Cd23 O23 2.389481 1_555
Cd23 O35 2.398102 1_555
Cd24 O10 2.378704 1_455
Cd24 O4 2.379348 1_545
Cd24 O32 2.382043 1_555
Cd24 O16 2.389707 1_555
Cd24 O2 2.391797 1_555
Cd24 O36 2.395365 1_445
Cd25 O11 2.378789 1_455
Cd25 O5 2.380717 1_555
Cd25 O33 2.382310 1_556
Cd25 O3 2.390669 1_555
Cd25 O17 2.391375 1_556
Cd25 O37 2.395833 1_455
Cd26 O9 2.375671 1_555
Cd26 O6 2.376742 1_555
Cd26 O34 2.382813 1_555
Cd26 O1 2.387865 1_555
Cd26 O18 2.388787 1_555
Cd26 O38 2.398458 1_555
Cd27 O8 2.375249 1_565
Cd27 O7 2.379382 1_555
Cd27 O35 2.384532 1_555
Cd27 O19 2.386672 1_565
Cd27 O0 2.389202 1_565
Cd27 O39 2.398112 1_555
Cd28 O10 2.367827 1_555
Cd28 O32 2.371740 1_555
Cd28 O2 2.381382 1_555
Cd28 O36 2.387794 1_545
Cd28 O24 2.393722 1_555
Cd28 O12 2.449380 1_545
Cd29 O11 2.367999 1_555
Cd29 O33 2.372413 1_556
Cd29 O3 2.380449 1_555
Cd29 O37 2.388654 1_555
Cd29 O25 2.394546 1_556
Cd29 O13 2.451228 1_555
Cd30 O9 2.364573 1_555
Cd30 O34 2.371559 1_455
Cd30 O1 2.377952 1_455
Cd30 O38 2.389316 1_555
Cd30 O26 2.397686 1_555
Cd30 O14 2.447758 1_555
Cd31 O8 2.363956 1_565
Cd31 O35 2.373290 1_455
Cd31 O0 2.379043 1_465
Cd31 O39 2.389004 1_555
Cd31 O27 2.395524 1_565
Cd31 O15 2.451614 1_555
Cd32 O15 2.367500 1_555
Cd32 O36 2.372517 1_555
Cd32 O7 2.380940 1_555
Cd32 O32 2.388287 1_565
Cd32 O28 2.395863 1_555
Cd32 O8 2.448105 1_565
Cd33 O14 2.367043 1_555
Cd33 O37 2.373464 1_554
Cd33 O6 2.382336 1_555
Cd33 O33 2.387553 1_555
Cd33 O29 2.393118 1_554
Cd33 O9 2.451242 1_555
Cd34 O12 2.364664 1_545
Cd34 O38 2.371721 1_655
Cd34 O4 2.379205 1_645
Cd34 O34 2.388189 1_555
Cd34 O30 2.395593 1_545
Cd34 O10 2.449260 1_555
Cd35 O13 2.365271 1_555
Cd35 O39 2.371595 1_655
Cd35 O5 2.378509 1_655
Cd35 O35 2.388824 1_555
Cd35 O31 2.396870 1_555
Cd35 O11 2.450861 1_555
