# generated using pymatgen
data_Li2Mn3F8
_symmetry_space_group_name_H-M   'P 1'
_cell_length_a   6.44171180
_cell_length_b   6.44171180
_cell_length_c   9.33906700
_cell_angle_alpha   90.00000000
_cell_angle_beta   90.00000000
_cell_angle_gamma   119.99999790
_symmetry_Int_Tables_number   1
_chemical_formula_structural   Li2Mn3F8
_chemical_formula_sum   'Li4 Mn6 F16'
_cell_volume   335.61140650
_cell_formula_units_Z   2
loop_
 _symmetry_equiv_pos_site_id
 _symmetry_equiv_pos_as_xyz
  1  'x, y, z'
loop_
 _atom_site_type_symbol
 _atom_site_label
 _atom_site_symmetry_multiplicity
 _atom_site_fract_x
 _atom_site_fract_y
 _atom_site_fract_z
 _atom_site_occupancy
  Li  Li0  1  0.33333300  0.66666700  0.54360700  1
  Li  Li1  1  0.33333300  0.66666700  0.91536100  1
  Li  Li2  1  0.66666700  0.33333300  0.04360700  1
  Li  Li3  1  0.66666700  0.33333300  0.41536100  1
  Mn  Mn0  1  0.16495500  0.83504500  0.24690800  1
  Mn  Mn1  1  0.16495500  0.32991100  0.24690800  1
  Mn  Mn2  1  0.32991100  0.16495500  0.74690800  1
  Mn  Mn3  1  0.67008900  0.83504500  0.24690800  1
  Mn  Mn4  1  0.83504500  0.67008900  0.74690800  1
  Mn  Mn5  1  0.83504500  0.16495500  0.74690800  1
  F  F0  1  0.17132700  0.82867300  0.64073600  1
  F  F1  1  0.02550100  0.51275000  0.37510000  1
  F  F2  1  0.33333300  0.66666700  0.12443200  1
  F  F3  1  0.00000000  0.00000000  0.36220000  1
  F  F4  1  0.00000000  0.00000000  0.86220000  1
  F  F5  1  0.17132700  0.34265400  0.64073600  1
  F  F6  1  0.48725000  0.97449900  0.37510000  1
  F  F7  1  0.48725000  0.51275000  0.37510000  1
  F  F8  1  0.65734600  0.82867300  0.64073600  1
  F  F9  1  0.34265400  0.17132700  0.14073600  1
  F  F10  1  0.51275000  0.48725000  0.87510000  1
  F  F11  1  0.51275000  0.02550100  0.87510000  1
  F  F12  1  0.82867300  0.65734600  0.14073600  1
  F  F13  1  0.66666700  0.33333300  0.62443200  1
  F  F14  1  0.97449900  0.48725000  0.87510000  1
  F  F15  1  0.82867300  0.17132700  0.14073600  1
loop_
_geom_bond_atom_site_label_1
_geom_bond_atom_site_label_2
_geom_bond_distance
_geom_bond_site_symmetry_2
F0 Li0 2.022399 1_555
F0 Mn4 2.122823 1_455
F0 Mn2 2.122823 1_565
F1 Li3 2.036828 1_455
F1 Mn1 2.164602 1_555
F1 Mn0 2.164611 1_555
F1 Li0 2.329300 1_555
F2 Li1 1.952528 1_554
F2 Mn0 2.199467 1_555
F2 Mn3 2.199467 1_555
F2 Mn1 2.199467 1_555
F3 Mn0 2.132284 1_545
F3 Mn1 2.132289 1_555
F3 Mn3 2.132289 1_445
F4 Mn5 2.132284 1_455
F4 Mn2 2.132289 1_555
F4 Mn4 2.132289 1_445
F5 Li0 2.022404 1_555
F5 Mn5 2.122823 1_455
F5 Mn2 2.122828 1_555
F6 Li3 2.036828 1_565
F6 Mn3 2.164602 1_555
F6 Mn0 2.164611 1_555
F6 Li0 2.329300 1_555
F7 Li3 2.036828 1_555
F7 Mn3 2.164611 1_555
F7 Mn1 2.164611 1_555
F7 Li0 2.329308 1_555
F8 Li0 2.022404 1_555
F8 Mn5 2.122823 1_565
F8 Mn4 2.122828 1_555
F9 Li2 2.022404 1_555
F9 Mn0 2.122823 1_545
F9 Mn1 2.122828 1_555
F10 Li1 2.036828 1_555
F10 Mn4 2.164611 1_555
F10 Mn2 2.164611 1_555
F10 Li2 2.329308 1_556
F11 Li1 2.036828 1_545
F11 Mn2 2.164602 1_555
F11 Mn5 2.164611 1_555
F11 Li2 2.329300 1_556
F12 Li2 2.022404 1_555
F12 Mn0 2.122823 1_655
F12 Mn3 2.122828 1_555
F13 Li3 1.952528 1_555
F13 Mn5 2.199467 1_555
F13 Mn4 2.199467 1_555
F13 Mn2 2.199467 1_555
F14 Li1 2.036828 1_655
F14 Mn4 2.164602 1_555
F14 Mn5 2.164611 1_555
F14 Li2 2.329300 1_556
F15 Li2 2.022399 1_555
F15 Mn1 2.122823 1_655
F15 Mn3 2.122823 1_545
