# generated using pymatgen
data_Ti2Cr3Sb3O16
_symmetry_space_group_name_H-M   'P 1'
_cell_length_a   6.09588353
_cell_length_b   6.09588353
_cell_length_c   9.10620891
_cell_angle_alpha   89.62686345
_cell_angle_beta   89.62686345
_cell_angle_gamma   60.16578013
_symmetry_Int_Tables_number   1
_chemical_formula_structural   Ti2Cr3Sb3O16
_chemical_formula_sum   'Ti2 Cr3 Sb3 O16'
_cell_volume   293.52989149
_cell_formula_units_Z   1
loop_
 _symmetry_equiv_pos_site_id
 _symmetry_equiv_pos_as_xyz
  1  'x, y, z'
loop_
 _atom_site_type_symbol
 _atom_site_label
 _atom_site_symmetry_multiplicity
 _atom_site_fract_x
 _atom_site_fract_y
 _atom_site_fract_z
 _atom_site_occupancy
  Ti  Ti0  1  0.64964700  0.64964700  0.52359100  1
  Ti  Ti1  1  0.32234300  0.32234300  0.99427300  1
  Cr  Cr0  1  0.33674300  0.83261700  0.79095300  1
  Cr  Cr1  1  0.83261700  0.33674300  0.79095300  1
  Cr  Cr2  1  0.17149400  0.17149400  0.28997900  1
  Sb  Sb0  1  0.83299200  0.83299200  0.78933500  1
  Sb  Sb1  1  0.66702800  0.17089600  0.28763400  1
  Sb  Sb2  1  0.17089600  0.66702800  0.28763400  1
  O  O0  1  0.33659200  0.82828200  0.39970000  1
  O  O1  1  0.52270100  0.52270100  0.66104700  1
  O  O2  1  0.66854200  0.66854200  0.89880400  1
  O  O3  1  0.99974900  0.99974900  0.68911200  1
  O  O4  1  0.00356400  0.00356400  0.17989100  1
  O  O5  1  0.82828200  0.33659200  0.39970000  1
  O  O6  1  0.52564200  0.94877700  0.65572800  1
  O  O7  1  0.94877700  0.52564200  0.65572800  1
  O  O8  1  0.17222300  0.17222300  0.90004400  1
  O  O9  1  0.83565900  0.83565900  0.39840000  1
  O  O10  1  0.05265700  0.47875600  0.16142700  1
  O  O11  1  0.47875600  0.05265700  0.16142700  1
  O  O12  1  0.33575200  0.33575200  0.40591000  1
  O  O13  1  0.16836700  0.65526700  0.90171800  1
  O  O14  1  0.48352300  0.48352300  0.15955300  1
  O  O15  1  0.65526700  0.16836700  0.90171800  1
loop_
_geom_bond_atom_site_label_1
_geom_bond_atom_site_label_2
_geom_bond_distance
_geom_bond_site_symmetry_2
Cr0 O3 2.012003 1_455
Cr0 O2 2.013977 1_555
Cr0 O6 2.031046 1_555
Cr0 O1 2.033300 1_555
Cr0 O8 2.055823 1_565
Cr0 O13 2.077511 1_555
Cr1 O3 2.012003 1_545
Cr1 O2 2.013977 1_555
Cr1 O7 2.031046 1_555
Cr1 O1 2.033300 1_555
Cr1 O8 2.055823 1_655
Cr1 O15 2.077511 1_555
Cr2 O10 2.008936 1_555
Cr2 O11 2.008936 1_555
Cr2 O12 2.035874 1_555
Cr2 O4 2.042113 1_555
Cr2 O5 2.068624 1_455
Cr2 O0 2.068624 1_545
O0 Sb2 2.010545 1_555
O0 Ti0 2.011156 1_555
O1 Ti0 1.826211 1_555
O2 Sb0 1.994357 1_555
O3 Sb0 1.975751 1_555
O4 Sb2 2.028893 1_545
O4 Sb1 2.028893 1_455
O5 Sb1 2.010545 1_555
O5 Ti0 2.011156 1_555
O6 Ti0 1.997381 1_555
O6 Sb0 2.047298 1_555
O7 Ti0 1.997381 1_555
O7 Sb0 2.047298 1_555
O8 Ti1 1.806886 1_555
O9 Sb2 2.036356 1_655
O9 Sb1 2.036356 1_565
O9 Ti0 2.262024 1_555
O10 Sb2 2.002135 1_555
O10 Ti1 2.086950 1_554
O11 Sb1 2.002135 1_555
O11 Ti1 2.086950 1_554
O12 Sb2 2.052935 1_555
O12 Sb1 2.052935 1_555
O13 Ti1 1.950071 1_555
O13 Sb0 2.051749 1_455
O14 Sb1 2.027417 1_555
O14 Sb2 2.027417 1_555
O14 Ti1 2.279265 1_554
O15 Ti1 1.950071 1_555
O15 Sb0 2.051749 1_545
