# generated using pymatgen
data_Li7Fe3(WO8)2
_symmetry_space_group_name_H-M   'P 1'
_cell_length_a   5.92363950
_cell_length_b   5.92363950
_cell_length_c   9.71436688
_cell_angle_alpha   89.38719008
_cell_angle_beta   89.38719008
_cell_angle_gamma   59.32815641
_symmetry_Int_Tables_number   1
_chemical_formula_structural   Li7Fe3(WO8)2
_chemical_formula_sum   'Li7 Fe3 W2 O16'
_cell_volume   293.16312045
_cell_formula_units_Z   1
loop_
 _symmetry_equiv_pos_site_id
 _symmetry_equiv_pos_as_xyz
  1  'x, y, z'
loop_
 _atom_site_type_symbol
 _atom_site_label
 _atom_site_symmetry_multiplicity
 _atom_site_fract_x
 _atom_site_fract_y
 _atom_site_fract_z
 _atom_site_occupancy
  Li  Li0  1  0.82361700  0.33669200  0.21028700  1
  Li  Li1  1  0.67307000  0.67307000  0.90781200  1
  Li  Li2  1  0.99779700  0.99779700  0.99614800  1
  Li  Li3  1  0.00066600  0.00066600  0.48492300  1
  Li  Li4  1  0.33669200  0.82361700  0.21028700  1
  Li  Li5  1  0.17019800  0.17019800  0.71158100  1
  Li  Li6  1  0.33324800  0.33324800  0.40309500  1
  Fe  Fe0  1  0.82836500  0.82836500  0.21765600  1
  Fe  Fe1  1  0.66236100  0.16462400  0.71461300  1
  Fe  Fe2  1  0.16462400  0.66236100  0.71461300  1
  W  W0  1  0.65034100  0.65034100  0.47963200  1
  W  W1  1  0.32794800  0.32794800  0.99110100  1
  O  O0  1  0.82769900  0.34089800  0.59013400  1
  O  O1  1  0.51504700  0.51504700  0.35838700  1
  O  O2  1  0.68390600  0.68390600  0.11569800  1
  O  O3  1  0.98375600  0.98375600  0.29711900  1
  O  O4  1  0.99205200  0.99205200  0.80274600  1
  O  O5  1  0.34089800  0.82769900  0.59013400  1
  O  O6  1  0.96357600  0.53165700  0.35667900  1
  O  O7  1  0.53165700  0.96357600  0.35667900  1
  O  O8  1  0.16856500  0.16856500  0.07486900  1
  O  O9  1  0.83441000  0.83441000  0.59831900  1
  O  O10  1  0.49700600  0.04348500  0.84667300  1
  O  O11  1  0.04348500  0.49700600  0.84667300  1
  O  O12  1  0.34706100  0.34706100  0.61364200  1
  O  O13  1  0.65070100  0.16662600  0.08822600  1
  O  O14  1  0.48524700  0.48524700  0.84170000  1
  O  O15  1  0.16662600  0.65070100  0.08822600  1
loop_
_geom_bond_atom_site_label_1
_geom_bond_atom_site_label_2
_geom_bond_distance
_geom_bond_site_symmetry_2
Li0 O3 1.984513 1_545
Li0 O2 1.999689 1_555
Li0 O1 2.129120 1_555
Li0 O13 2.138771 1_555
Li0 O8 2.189062 1_655
Li0 O6 2.254054 1_555
Li1 O11 1.976269 1_655
Li1 O10 1.976269 1_565
Li1 O2 2.023930 1_556
Li1 O14 2.044921 1_555
Li2 O4 1.880436 1_555
Li2 O8 1.925726 1_666
Li2 O15 1.977277 1_656
Li2 O13 1.977277 1_566
Li3 O3 1.834815 1_445
Li3 O5 2.017713 1_545
Li3 O0 2.017713 1_455
Li3 O9 2.023959 1_445
Li4 O3 1.984513 1_455
Li4 O2 1.999689 1_555
Li4 O1 2.129120 1_555
Li4 O15 2.138771 1_555
Li4 O8 2.189062 1_565
Li4 O7 2.254054 1_555
Li5 O4 2.026738 1_445
Li5 O12 2.043922 1_555
Li5 O0 2.112628 1_455
Li5 O5 2.112628 1_545
Li5 O10 2.141046 1_555
Li5 O11 2.141046 1_555
Li6 O1 1.916065 1_555
Li6 O6 1.940077 1_455
Li6 O7 1.940077 1_545
Li6 O12 2.052013 1_555
Fe0 O3 1.784735 1_555
Fe0 O2 1.796906 1_555
Fe0 O6 2.022544 1_555
Fe0 O7 2.022544 1_555
Fe0 O15 2.127530 1_655
Fe0 O13 2.127530 1_565
Fe1 O4 1.890054 1_545
Fe1 O12 1.890930 1_555
Fe1 O10 1.946963 1_555
Fe1 O9 2.032218 1_545
Fe1 O14 2.054645 1_555
Fe1 O0 2.121987 1_555
Fe2 O4 1.890054 1_455
Fe2 O12 1.890930 1_555
Fe2 O11 1.946963 1_555
Fe2 O9 2.032218 1_455
Fe2 O14 2.054645 1_555
Fe2 O5 2.121987 1_555
O0 W0 1.906132 1_555
O1 W0 1.835081 1_555
O5 W0 1.906132 1_555
O6 W0 2.000849 1_555
O7 W0 2.000849 1_555
O8 W1 1.822498 1_554
O9 W0 2.230208 1_555
O10 W1 2.027229 1_555
O11 W1 2.027229 1_555
O13 W1 1.901044 1_554
O14 W1 2.161192 1_555
O15 W1 1.901044 1_554
