# generated using pymatgen
data_Li3Fe2(SiO4)2
_symmetry_space_group_name_H-M   'P 1'
_cell_length_a   10.63019100
_cell_length_b   5.13260500
_cell_length_c   6.59877055
_cell_angle_alpha   89.47166173
_cell_angle_beta   90.00000000
_cell_angle_gamma   90.00000000
_symmetry_Int_Tables_number   1
_chemical_formula_structural   Li3Fe2(SiO4)2
_chemical_formula_sum   'Li6 Fe4 Si4 O16'
_cell_volume   360.01738529
_cell_formula_units_Z   2
loop_
 _symmetry_equiv_pos_site_id
 _symmetry_equiv_pos_as_xyz
  1  'x, y, z'
loop_
 _atom_site_type_symbol
 _atom_site_label
 _atom_site_symmetry_multiplicity
 _atom_site_fract_x
 _atom_site_fract_y
 _atom_site_fract_z
 _atom_site_occupancy
  Li  Li0  1  0.16035500  0.56366400  0.73786400  1
  Li  Li1  1  0.66035500  0.43633600  0.26213600  1
  Li  Li2  1  0.34420100  0.06612900  0.25010500  1
  Li  Li3  1  0.57398100  0.04391900  0.01921700  1
  Li  Li4  1  0.07398100  0.95608100  0.98078300  1
  Li  Li5  1  0.84420100  0.93387100  0.74989500  1
  Fe  Fe0  1  0.34134800  0.08193500  0.73349900  1
  Fe  Fe1  1  0.84134800  0.91806500  0.26650100  1
  Fe  Fe2  1  0.16375600  0.56047300  0.25053500  1
  Fe  Fe3  1  0.66375600  0.43952700  0.74946500  1
  Si  Si0  1  0.58828200  0.94085800  0.49639800  1
  Si  Si1  1  0.08828200  0.05914200  0.50360200  1
  Si  Si2  1  0.90635900  0.42999600  0.00990200  1
  Si  Si3  1  0.40635900  0.57000400  0.99009800  1
  O  O0  1  0.65766200  0.06846700  0.70535800  1
  O  O1  1  0.15685000  0.94980300  0.71026000  1
  O  O2  1  0.11411200  0.37751300  0.48276400  1
  O  O3  1  0.94006900  0.99343900  0.50903100  1
  O  O4  1  0.61411200  0.62248700  0.51723600  1
  O  O5  1  0.44006900  0.00656100  0.49096900  1
  O  O6  1  0.65685000  0.05019700  0.28974000  1
  O  O7  1  0.15766200  0.93153300  0.29464200  1
  O  O8  1  0.83179000  0.53879300  0.20587800  1
  O  O9  1  0.32988900  0.45182900  0.19128100  1
  O  O10  1  0.55552200  0.45578700  0.98936400  1
  O  O11  1  0.40902000  0.88947100  0.99926900  1
  O  O12  1  0.05552200  0.54421300  0.01063600  1
  O  O13  1  0.90902000  0.11052900  0.00073100  1
  O  O14  1  0.82988900  0.54817100  0.80871900  1
  O  O15  1  0.33179000  0.46120700  0.79412200  1
loop_
_geom_bond_atom_site_label_1
_geom_bond_atom_site_label_2
_geom_bond_distance
_geom_bond_site_symmetry_2
Li0 O15 1.931799 1_555
Li0 O1 1.988928 1_555
Li0 O2 2.004451 1_555
Li0 O12 2.118581 1_556
Li1 O8 1.931799 1_555
Li1 O6 1.988928 1_555
Li1 O4 2.004451 1_555
Li1 O10 2.118581 1_554
Li2 O5 1.910309 1_555
Li2 O11 2.016012 1_544
Li2 O9 2.019566 1_555
Li2 O7 2.119420 1_545
Li3 O11 1.929418 1_544
Li3 O6 1.991170 1_555
Li3 O10 2.130361 1_554
Li3 O0 2.256488 1_554
Li4 O13 1.929418 1_466
Li4 O1 1.991170 1_555
Li4 O12 2.130361 1_556
Li4 O7 2.256488 1_556
Li5 O3 1.910309 1_555
Li5 O13 2.016012 1_566
Li5 O14 2.019566 1_555
Li5 O0 2.119420 1_565
Fe0 O5 1.955416 1_555
Fe0 O15 1.993533 1_555
Fe0 O1 2.081312 1_545
Fe0 O11 2.130030 1_545
Fe1 O3 1.955416 1_555
Fe1 O8 1.993533 1_555
Fe1 O6 2.081312 1_565
Fe1 O13 2.130030 1_565
Fe2 O2 1.866044 1_555
Fe2 O9 1.893858 1_555
Fe2 O7 1.930354 1_555
Fe2 O12 1.959381 1_555
Fe3 O4 1.866044 1_555
Fe3 O14 1.893858 1_555
Fe3 O0 1.930354 1_555
Fe3 O10 1.959381 1_555
O0 Si0 1.700260 1_545
O1 Si1 1.640657 1_565
O2 Si1 1.661430 1_555
O3 Si1 1.611548 1_665
O4 Si0 1.661430 1_555
O5 Si0 1.611548 1_545
O6 Si0 1.640657 1_545
O7 Si1 1.700260 1_565
O8 Si2 1.620449 1_555
O9 Si3 1.666210 1_554
O10 Si3 1.690553 1_555
O11 Si3 1.641616 1_555
O12 Si2 1.690553 1_455
O13 Si2 1.641616 1_555
O14 Si2 1.666210 1_556
O15 Si3 1.620449 1_555
