# generated using pymatgen
data_La4FeO8
_symmetry_space_group_name_H-M   'P 1'
_cell_length_a   7.55284797
_cell_length_b   12.99396690
_cell_length_c   7.55285565
_cell_angle_alpha   90.00046481
_cell_angle_beta   89.72397913
_cell_angle_gamma   89.99921722
_symmetry_Int_Tables_number   1
_chemical_formula_structural   La4FeO8
_chemical_formula_sum   'La16 Fe4 O32'
_cell_volume   741.23965309
_cell_formula_units_Z   4
loop_
 _symmetry_equiv_pos_site_id
 _symmetry_equiv_pos_as_xyz
  1  'x, y, z'
loop_
 _atom_site_type_symbol
 _atom_site_label
 _atom_site_symmetry_multiplicity
 _atom_site_fract_x
 _atom_site_fract_y
 _atom_site_fract_z
 _atom_site_occupancy
  La  La0  1  0.25003100  0.13624700  0.24993500  1
  La  La1  1  0.75003800  0.13624600  0.74993900  1
  La  La2  1  0.49993400  0.63624300  0.00005600  1
  La  La3  1  0.99993500  0.63624500  0.50004100  1
  La  La4  1  0.49995700  0.36375300  0.00004500  1
  La  La5  1  0.99995600  0.36375300  0.50005000  1
  La  La6  1  0.75006200  0.86375500  0.74993800  1
  La  La7  1  0.25005700  0.86376000  0.24993700  1
  La  La8  1  0.25007200  0.13758200  0.74991500  1
  La  La9  1  0.75006500  0.13758500  0.24993900  1
  La  La10  1  0.50003000  0.63758200  0.49994600  1
  La  La11  1  0.00003400  0.63758400  0.99994400  1
  La  La12  1  0.49993200  0.36241900  0.50007700  1
  La  La13  1  0.99992700  0.36241400  0.00009600  1
  La  La14  1  0.74994500  0.86241800  0.25005500  1
  La  La15  1  0.24993600  0.86241100  0.75005400  1
  Fe  Fe0  1  0.00004100  0.00000800  0.49996000  1
  Fe  Fe1  1  0.24997400  0.49999500  0.25003400  1
  Fe  Fe2  1  0.50004100  0.00000900  0.99995800  1
  Fe  Fe3  1  0.74997000  0.50001000  0.75003500  1
  O  O0  1  0.99994500  0.18739300  0.00009500  1
  O  O1  1  0.49995100  0.18739100  0.50008400  1
  O  O2  1  0.24993800  0.68738800  0.75006100  1
  O  O3  1  0.74995000  0.68739100  0.25006200  1
  O  O4  1  0.75007100  0.31261100  0.24994300  1
  O  O5  1  0.25005300  0.31260800  0.74993100  1
  O  O6  1  0.00003800  0.81260900  0.99994000  1
  O  O7  1  0.50003800  0.81260700  0.49995000  1
  O  O8  1  0.50004600  0.17467800  0.99995100  1
  O  O9  1  0.00005000  0.17467800  0.49995200  1
  O  O10  1  0.75004500  0.67468200  0.74996100  1
  O  O11  1  0.25005300  0.67467800  0.24996200  1
  O  O12  1  0.24994800  0.32532000  0.25004700  1
  O  O13  1  0.74994800  0.32531400  0.75004500  1
  O  O14  1  0.49995200  0.82531400  0.00005100  1
  O  O15  1  0.99995500  0.82532100  0.50005000  1
  O  O16  1  0.25790000  0.00003000  0.00275700  1
  O  O17  1  0.75790200  0.00003000  0.50275400  1
  O  O18  1  0.50773200  0.50002500  0.75276900  1
  O  O19  1  0.00773500  0.50002600  0.25277500  1
  O  O20  1  0.49725000  0.00002800  0.24209300  1
  O  O21  1  0.99725400  0.00003300  0.74209600  1
  O  O22  1  0.74722700  0.50003100  0.99227300  1
  O  O23  1  0.24723400  0.50002700  0.49227200  1
  O  O24  1  0.25275300  0.49997000  0.00789500  1
  O  O25  1  0.75274800  0.49997100  0.50789200  1
  O  O26  1  0.50276900  0.99996600  0.75771000  1
  O  O27  1  0.00277000  0.99997300  0.25771900  1
  O  O28  1  0.49211400  0.49996800  0.24725200  1
  O  O29  1  0.99211500  0.49997700  0.74724800  1
  O  O30  1  0.74228800  0.99996700  0.99722800  1
  O  O31  1  0.24228300  0.99997100  0.49722800  1
loop_
_geom_bond_atom_site_label_1
_geom_bond_atom_site_label_2
_geom_bond_distance
_geom_bond_site_symmetry_2
La0 O12 2.456809 1_555
La0 O16 2.573056 1_555
La0 O20 2.573287 1_555
La0 O27 2.574036 1_545
La0 O31 2.574218 1_545
La0 O9 2.710280 1_555
La0 O8 2.710300 1_554
La0 O0 2.757643 1_455
La0 O1 2.758385 1_555
La1 O13 2.456744 1_555
La1 O17 2.573085 1_555
La1 O21 2.573217 1_555
La1 O26 2.574131 1_545
La1 O30 2.574223 1_545
La1 O9 2.710303 1_655
La1 O8 2.710314 1_555
La1 O1 2.757723 1_555
La1 O0 2.758363 1_556
La2 O14 2.456782 1_555
La2 O24 2.573596 1_555
La2 O22 2.573621 1_554
La2 O18 2.573652 1_554
La2 O28 2.573688 1_555
La2 O11 2.709185 1_555
La2 O10 2.711404 1_554
La2 O2 2.757977 1_554
La2 O3 2.758153 1_555
La3 O15 2.456847 1_555
La3 O19 2.573546 1_655
La3 O25 2.573640 1_555
La3 O29 2.573686 1_555
La3 O23 2.573705 1_655
La3 O10 2.709310 1_555
La3 O11 2.711342 1_655
La3 O3 2.757840 1_555
La3 O2 2.758142 1_655
La4 O8 2.456834 1_554
La4 O24 2.573188 1_555
La4 O28 2.573193 1_555
La4 O18 2.574093 1_554
La4 O22 2.574119 1_554
La4 O13 2.710263 1_554
La4 O12 2.710368 1_555
La4 O4 2.758077 1_555
La4 O5 2.758123 1_554
La5 O9 2.456834 1_655
La5 O25 2.573217 1_555
La5 O29 2.573224 1_555
La5 O19 2.574097 1_655
La5 O23 2.574128 1_655
La5 O12 2.710269 1_655
La5 O13 2.710341 1_555
La5 O5 2.757910 1_655
La5 O4 2.757978 1_555
La6 O10 2.456808 1_555
La6 O26 2.573610 1_555
La6 O30 2.573611 1_555
La6 O17 2.573625 1_565
La6 O21 2.573702 1_565
La6 O15 2.709151 1_555
La6 O14 2.711497 1_556
La6 O6 2.757913 1_655
La6 O7 2.758101 1_555
La7 O11 2.456925 1_555
La7 O16 2.573559 1_565
La7 O27 2.573597 1_555
La7 O31 2.573608 1_555
La7 O20 2.573618 1_565
La7 O14 2.709180 1_555
La7 O15 2.711451 1_455
La7 O7 2.758018 1_555
La7 O6 2.758131 1_554
La8 O5 2.274282 1_555
La8 O31 2.616150 1_545
La8 O26 2.616242 1_545
La8 O21 2.616354 1_455
La8 O16 2.616508 1_556
La8 O9 2.719734 1_555
La8 O8 2.719870 1_555
La8 O1 2.739901 1_555
La8 O0 2.742979 1_456
La9 O4 2.274282 1_555
La9 O27 2.616248 1_645
La9 O30 2.616342 1_544
La9 O17 2.616388 1_555
La9 O20 2.616414 1_555
La9 O9 2.719800 1_655
La9 O8 2.719843 1_554
La9 O0 2.739970 1_555
La9 O1 2.742715 1_555
La10 O7 2.274269 1_555
La10 O28 2.616241 1_555
La10 O23 2.616257 1_555
La10 O25 2.616343 1_555
La10 O18 2.616423 1_555
La10 O11 2.719608 1_555
La10 O10 2.719984 1_555
La10 O3 2.740388 1_555
La10 O2 2.742445 1_555
La11 O6 2.274269 1_555
La11 O29 2.616190 1_455
La11 O22 2.616300 1_455
La11 O24 2.616376 1_556
La11 O19 2.616476 1_556
La11 O10 2.719671 1_455
La11 O11 2.720008 1_556
La11 O2 2.740284 1_555
La11 O3 2.742423 1_456
La12 O1 2.274308 1_555
La12 O18 2.616136 1_555
La12 O23 2.616178 1_555
La12 O25 2.616369 1_555
La12 O28 2.616386 1_555
La12 O13 2.719750 1_555
La12 O12 2.719898 1_555
La12 O5 2.740026 1_555
La12 O4 2.742793 1_555
La13 O0 2.274217 1_555
La13 O19 2.616119 1_655
La13 O22 2.616273 1_554
La13 O24 2.616456 1_655
La13 O29 2.616636 1_554
La13 O12 2.719661 1_655
La13 O13 2.719984 1_554
La13 O4 2.739846 1_555
La13 O5 2.742880 1_654
La14 O3 2.274295 1_555
La14 O20 2.616211 1_565
La14 O17 2.616259 1_565
La14 O30 2.616366 1_554
La14 O27 2.616415 1_655
La14 O14 2.719820 1_555
La14 O15 2.719842 1_555
La14 O7 2.740383 1_555
La14 O6 2.742460 1_654
La15 O2 2.274243 1_555
La15 O21 2.616245 1_465
La15 O16 2.616344 1_566
La15 O31 2.616457 1_555
La15 O26 2.616458 1_555
La15 O15 2.719724 1_455
La15 O14 2.719884 1_556
La15 O6 2.740263 1_555
La15 O7 2.742434 1_555
Fe0 O21 1.828838 1_455
Fe0 O17 1.828859 1_455
Fe0 O27 1.829628 1_545
Fe0 O31 1.829634 1_545
Fe0 O9 2.269656 1_555
Fe0 O15 2.269877 1_445
Fe1 O24 1.828860 1_555
Fe1 O28 1.828866 1_555
Fe1 O23 1.829606 1_555
Fe1 O19 1.829612 1_555
Fe1 O12 2.269721 1_555
Fe1 O11 2.269825 1_555
Fe2 O20 1.828831 1_556
Fe2 O16 1.828875 1_556
Fe2 O30 1.829672 1_545
Fe2 O26 1.829681 1_545
Fe2 O8 2.269643 1_555
Fe2 O14 2.269981 1_546
Fe3 O25 1.828890 1_555
Fe3 O29 1.828904 1_555
Fe3 O18 1.829604 1_555
Fe3 O22 1.829606 1_555
Fe3 O10 2.269682 1_555
Fe3 O13 2.269994 1_555
