# generated using pymatgen
data_Li4Fe5Sb3O16
_symmetry_space_group_name_H-M   'P 1'
_cell_length_a   6.15803972
_cell_length_b   6.15803972
_cell_length_c   9.81265274
_cell_angle_alpha   89.33874823
_cell_angle_beta   89.33874823
_cell_angle_gamma   59.58858364
_symmetry_Int_Tables_number   1
_chemical_formula_structural   Li4Fe5Sb3O16
_chemical_formula_sum   'Li4 Fe5 Sb3 O16'
_cell_volume   320.88410184
_cell_formula_units_Z   1
loop_
 _symmetry_equiv_pos_site_id
 _symmetry_equiv_pos_as_xyz
  1  'x, y, z'
loop_
 _atom_site_type_symbol
 _atom_site_label
 _atom_site_symmetry_multiplicity
 _atom_site_fract_x
 _atom_site_fract_y
 _atom_site_fract_z
 _atom_site_occupancy
  Li  Li0  1  0.66203200  0.66203200  0.11787800  1
  Li  Li1  1  0.99029700  0.99029700  0.00883300  1
  Li  Li2  1  0.99181700  0.99181700  0.49755100  1
  Li  Li3  1  0.32536600  0.32536600  0.60351000  1
  Fe  Fe0  1  0.67682900  0.67682900  0.49876100  1
  Fe  Fe1  1  0.83279500  0.83279500  0.78298800  1
  Fe  Fe2  1  0.34588600  0.34588600  0.01258700  1
  Fe  Fe3  1  0.17398300  0.65620700  0.28351800  1
  Fe  Fe4  1  0.65620700  0.17398300  0.28351800  1
  Sb  Sb0  1  0.33846400  0.83086100  0.78349200  1
  Sb  Sb1  1  0.83086100  0.33846400  0.78349200  1
  Sb  Sb2  1  0.17149200  0.17149200  0.28657000  1
  O  O0  1  0.32426000  0.84588700  0.40238700  1
  O  O1  1  0.51371500  0.51371500  0.66283300  1
  O  O2  1  0.65913000  0.65913000  0.89758200  1
  O  O3  1  0.00842600  0.00842600  0.67924800  1
  O  O4  1  0.00362200  0.00362200  0.19277900  1
  O  O5  1  0.84588700  0.32426000  0.40238700  1
  O  O6  1  0.50383900  0.95726000  0.65834500  1
  O  O7  1  0.95726000  0.50383900  0.65834500  1
  O  O8  1  0.15910800  0.15910800  0.89439000  1
  O  O9  1  0.83624900  0.83624900  0.40277500  1
  O  O10  1  0.03107000  0.47995300  0.16751000  1
  O  O11  1  0.47995300  0.03107000  0.16751000  1
  O  O12  1  0.33015000  0.33015000  0.39853100  1
  O  O13  1  0.17198500  0.69048500  0.89625300  1
  O  O14  1  0.48358100  0.48358100  0.17134200  1
  O  O15  1  0.69048500  0.17198500  0.89625300  1
loop_
_geom_bond_atom_site_label_1
_geom_bond_atom_site_label_2
_geom_bond_distance
_geom_bond_site_symmetry_2
Li0 O14 1.971396 1_555
Li0 O11 2.022893 1_565
Li0 O10 2.022893 1_655
Li0 O2 2.162323 1_554
Li1 O4 1.812495 1_665
Li1 O13 1.951432 1_654
Li1 O15 1.951432 1_564
Li1 O8 2.112484 1_664
Li2 O3 1.794093 1_665
Li2 O9 1.915903 1_555
Li2 O5 1.995818 1_565
Li2 O0 1.995818 1_655
Li3 O12 2.011358 1_555
Li3 O6 2.024626 1_545
Li3 O7 2.024626 1_455
Li3 O1 2.102987 1_555
Fe0 O9 1.935898 1_555
Fe0 O0 2.104348 1_555
Fe0 O5 2.104348 1_555
Fe0 O6 2.175004 1_555
Fe0 O7 2.175004 1_555
Fe0 O1 2.357275 1_555
Fe1 O3 2.123476 1_665
Fe1 O13 2.131674 1_655
Fe1 O15 2.131674 1_565
Fe1 O7 2.156521 1_555
Fe1 O6 2.156521 1_555
Fe1 O2 2.157359 1_555
Fe2 O15 2.150502 1_554
Fe2 O13 2.150502 1_554
Fe2 O14 2.157227 1_555
Fe2 O10 2.256443 1_555
Fe2 O11 2.256443 1_555
Fe2 O8 2.322065 1_554
Fe3 O14 1.975654 1_555
Fe3 O4 2.043457 1_565
Fe3 O12 2.061050 1_555
Fe3 O10 2.065694 1_555
Fe3 O9 2.136219 1_455
Fe3 O0 2.175314 1_555
Fe4 O14 1.975654 1_555
Fe4 O4 2.043457 1_655
Fe4 O12 2.061050 1_555
Fe4 O11 2.065694 1_555
Fe4 O9 2.136219 1_545
Fe4 O5 2.175314 1_555
O0 Sb2 2.063817 1_565
O1 Sb1 2.066577 1_555
O1 Sb0 2.066577 1_555
O2 Sb1 2.044639 1_555
O2 Sb0 2.044639 1_555
O3 Sb1 2.035890 1_455
O3 Sb0 2.035890 1_545
O4 Sb2 2.027344 1_555
O5 Sb2 2.063817 1_655
O6 Sb0 1.975501 1_555
O7 Sb1 1.975501 1_555
O8 Sb1 2.062213 1_455
O8 Sb0 2.062213 1_545
O10 Sb2 2.007479 1_555
O11 Sb2 2.007479 1_555
O12 Sb2 2.032760 1_555
O13 Sb0 1.967618 1_555
O15 Sb1 1.967618 1_555
