# generated using pymatgen
data_CaP3H10NO12
_symmetry_space_group_name_H-M   'P 1'
_cell_length_a   7.09737800
_cell_length_b   12.76578000
_cell_length_c   13.12913200
_cell_angle_alpha   90.00000000
_cell_angle_beta   90.00000000
_cell_angle_gamma   90.00000000
_symmetry_Int_Tables_number   1
_chemical_formula_structural   CaP3H10NO12
_chemical_formula_sum   'Ca4 P12 H40 N4 O48'
_cell_volume   1189.54617932
_cell_formula_units_Z   4
loop_
 _symmetry_equiv_pos_site_id
 _symmetry_equiv_pos_as_xyz
  1  'x, y, z'
loop_
 _atom_site_type_symbol
 _atom_site_label
 _atom_site_symmetry_multiplicity
 _atom_site_fract_x
 _atom_site_fract_y
 _atom_site_fract_z
 _atom_site_occupancy
  Ca  Ca0  1  0.15368500  0.74472700  0.31784100  1
  Ca  Ca1  1  0.15368500  0.25527300  0.68215900  1
  Ca  Ca2  1  0.84631500  0.75527300  0.81784100  1
  Ca  Ca3  1  0.84631500  0.24472700  0.18215900  1
  P  P0  1  0.67213600  0.65991600  0.34760500  1
  P  P1  1  0.67213600  0.34008400  0.65239500  1
  P  P2  1  0.32786400  0.84008400  0.84760500  1
  P  P3  1  0.32786400  0.15991600  0.15239500  1
  P  P4  1  0.93755400  0.51588600  0.67237300  1
  P  P5  1  0.93755400  0.48411400  0.32762700  1
  P  P6  1  0.06244600  0.98411400  0.17237300  1
  P  P7  1  0.06244600  0.01588600  0.82762700  1
  P  P8  1  0.86944100  0.70639900  0.54530200  1
  P  P9  1  0.86944100  0.29360100  0.45469800  1
  P  P10  1  0.13055900  0.79360100  0.04530200  1
  P  P11  1  0.13055900  0.20639900  0.95469800  1
  H  H0  1  0.73600200  0.97004400  0.94191600  1
  H  H1  1  0.73600200  0.02995600  0.05808400  1
  H  H2  1  0.26399800  0.52995600  0.44191600  1
  H  H3  1  0.26399800  0.47004400  0.55808400  1
  H  H4  1  0.57276400  0.06018300  0.96971900  1
  H  H5  1  0.57276400  0.93981700  0.03028100  1
  H  H6  1  0.42723600  0.43981700  0.46971900  1
  H  H7  1  0.42723600  0.56018300  0.53028100  1
  H  H8  1  0.91511500  0.99307200  0.56184200  1
  H  H9  1  0.91511500  0.00692800  0.43815800  1
  H  H10  1  0.08488500  0.50692800  0.06184200  1
  H  H11  1  0.08488500  0.49307200  0.93815800  1
  H  H12  1  0.08661500  0.93369100  0.49075200  1
  H  H13  1  0.08661500  0.06630900  0.50924800  1
  H  H14  1  0.91338500  0.56630900  0.99075200  1
  H  H15  1  0.91338500  0.43369100  0.00924800  1
  H  H16  1  0.55679300  0.59512600  0.96402500  1
  H  H17  1  0.55679300  0.40487400  0.03597500  1
  H  H18  1  0.44320700  0.90487400  0.46402500  1
  H  H19  1  0.44320700  0.09512600  0.53597500  1
  H  H20  1  0.64649800  0.69622200  0.00869500  1
  H  H21  1  0.64649800  0.30377800  0.99130500  1
  H  H22  1  0.35350200  0.80377800  0.50869500  1
  H  H23  1  0.35350200  0.19622200  0.49130500  1
  H  H24  1  0.30629300  0.26871200  0.33801600  1
  H  H25  1  0.30629300  0.73128800  0.66198400  1
  H  H26  1  0.69370700  0.23128800  0.83801600  1
  H  H27  1  0.69370700  0.76871200  0.16198400  1
  H  H28  1  0.51645100  0.73276400  0.62588500  1
  H  H29  1  0.51645100  0.26723600  0.37411500  1
  H  H30  1  0.48354900  0.76723600  0.12588500  1
  H  H31  1  0.48354900  0.23276400  0.87411500  1
  H  H32  1  0.41160400  0.56968100  0.84374700  1
  H  H33  1  0.41160400  0.43031900  0.15625300  1
  H  H34  1  0.58839600  0.93031900  0.34374700  1
  H  H35  1  0.58839600  0.06968100  0.65625300  1
  H  H36  1  0.20632400  0.44746700  0.19267900  1
  H  H37  1  0.20632400  0.55253300  0.80732100  1
  H  H38  1  0.79367600  0.05253300  0.69267900  1
  H  H39  1  0.79367600  0.94746700  0.30732100  1
  N  N0  1  0.34867400  0.50000000  0.50000000  1
  N  N1  1  0.65132600  0.00000000  0.00000000  1
  N  N2  1  0.99586800  0.50000000  0.00000000  1
  N  N3  1  0.00413200  0.00000000  0.50000000  1
  O  O0  1  0.46597600  0.33144200  0.67165400  1
  O  O1  1  0.46597600  0.66855800  0.32834600  1
  O  O2  1  0.53402400  0.16855800  0.17165400  1
  O  O3  1  0.53402400  0.83144200  0.82834600  1
  O  O4  1  0.80914500  0.27408400  0.71208600  1
  O  O5  1  0.80914500  0.72591600  0.28791400  1
  O  O6  1  0.19085500  0.22591600  0.21208600  1
  O  O7  1  0.19085500  0.77408400  0.78791400  1
  O  O8  1  0.72901500  0.53576300  0.33616600  1
  O  O9  1  0.72901500  0.46423700  0.66383400  1
  O  O10  1  0.27098500  0.96423700  0.83616600  1
  O  O11  1  0.27098500  0.03576300  0.16383400  1
  O  O12  1  0.30210900  0.82479300  0.97005000  1
  O  O13  1  0.30210900  0.17520700  0.02995000  1
  O  O14  1  0.69789100  0.67520700  0.47005000  1
  O  O15  1  0.69789100  0.32479300  0.52995000  1
  O  O16  1  0.08763600  0.56527400  0.34525700  1
  O  O17  1  0.08763600  0.43472600  0.65474300  1
  O  O18  1  0.91236400  0.93472600  0.84525700  1
  O  O19  1  0.91236400  0.06527400  0.15474300  1
  O  O20  1  0.05725000  0.92000600  0.26831800  1
  O  O21  1  0.05725000  0.07999400  0.73168200  1
  O  O22  1  0.94275000  0.57999400  0.76831800  1
  O  O23  1  0.94275000  0.42000600  0.23168200  1
  O  O24  1  0.95174200  0.59128200  0.57386400  1
  O  O25  1  0.95174200  0.40871800  0.42613600  1
  O  O26  1  0.04825800  0.90871800  0.07386400  1
  O  O27  1  0.04825800  0.09128200  0.92613600  1
  O  O28  1  0.78049400  0.75391000  0.63856000  1
  O  O29  1  0.78049400  0.24609000  0.36144000  1
  O  O30  1  0.21950600  0.74609000  0.13856000  1
  O  O31  1  0.21950600  0.25391000  0.86144000  1
  O  O32  1  0.01769800  0.76340500  0.48684600  1
  O  O33  1  0.01769800  0.23659500  0.51315400  1
  O  O34  1  0.98230200  0.73659500  0.98684600  1
  O  O35  1  0.98230200  0.26340500  0.01315400  1
  O  O36  1  0.65962600  0.35667100  0.04824400  1
  O  O37  1  0.65962600  0.64332900  0.95175600  1
  O  O38  1  0.34037400  0.14332900  0.54824400  1
  O  O39  1  0.34037400  0.85667100  0.45175600  1
  O  O40  1  0.61266400  0.78396800  0.10278900  1
  O  O41  1  0.61266400  0.21603200  0.89721100  1
  O  O42  1  0.38733600  0.71603200  0.60278900  1
  O  O43  1  0.38733600  0.28396800  0.39721100  1
  O  O44  1  0.69901500  0.02616900  0.64442000  1
  O  O45  1  0.69901500  0.97383100  0.35558000  1
  O  O46  1  0.30098500  0.47383100  0.14442000  1
  O  O47  1  0.30098500  0.52616900  0.85558000  1
loop_
_geom_bond_atom_site_label_1
_geom_bond_atom_site_label_2
_geom_bond_distance
_geom_bond_site_symmetry_2
Ca0 O16 2.365870 1_555
Ca0 O30 2.399777 1_555
Ca0 O1 2.424281 1_555
Ca0 O20 2.428567 1_555
Ca0 O32 2.431427 1_555
Ca0 O5 2.488311 1_455
Ca0 O39 2.624699 1_555
Ca1 O17 2.365870 1_555
Ca1 O31 2.399777 1_555
Ca1 O0 2.424281 1_555
Ca1 O21 2.428567 1_555
Ca1 O33 2.431427 1_555
Ca1 O4 2.488311 1_455
Ca1 O38 2.624699 1_555
Ca2 O18 2.365870 1_555
Ca2 O28 2.399777 1_555
Ca2 O3 2.424281 1_555
Ca2 O22 2.428567 1_555
Ca2 O34 2.431427 1_555
Ca2 O7 2.488311 1_655
Ca2 O37 2.624699 1_555
Ca3 O19 2.365870 1_555
Ca3 O29 2.399777 1_555
Ca3 O2 2.424281 1_555
Ca3 O23 2.428567 1_555
Ca3 O35 2.431427 1_555
Ca3 O6 2.488311 1_655
Ca3 O36 2.624699 1_555
H0 N1 1.043533 1_566
H1 N1 1.043533 1_555
H2 N0 1.043533 1_555
H3 N0 1.043533 1_555
H4 N1 1.029182 1_556
H5 N1 1.029182 1_565
H6 N0 1.029182 1_555
H7 N0 1.029182 1_555
H8 N3 1.032575 1_665
H9 N3 1.032575 1_655
H10 N2 1.032575 1_455
H11 N2 1.032575 1_456
H12 N3 1.036335 1_565
H13 N3 1.036335 1_555
H14 N2 1.036335 1_556
H15 N2 1.036335 1_555
H16 O37 0.968129 1_555
H17 O36 0.968129 1_555
H18 O39 0.968129 1_555
H19 O38 0.968129 1_555
H20 O37 1.011657 1_554
H21 O36 1.011657 1_556
H22 O39 1.011657 1_555
H23 O38 1.011657 1_555
H24 O43 0.986298 1_555
H25 O42 0.986298 1_555
H26 O41 0.986298 1_555
H27 O40 0.986298 1_555
H28 O42 0.988595 1_555
H29 O43 0.988595 1_555
H30 O40 0.988595 1_555
H31 O41 0.988595 1_555
H32 O47 0.974200 1_555
H33 O46 0.974200 1_555
H34 O45 0.974200 1_555
H35 O44 0.974200 1_555
H36 O46 0.982901 1_555
H37 O47 0.982901 1_555
H38 O44 0.982901 1_555
H39 O45 0.982901 1_555
O0 P1 1.488975 1_555
O1 P0 1.488975 1_555
O2 P3 1.488975 1_555
O3 P2 1.488975 1_555
O4 P1 1.506525 1_555
O5 P0 1.506525 1_555
O6 P3 1.506525 1_555
O7 P2 1.506525 1_555
O8 P5 1.624172 1_555
O8 P0 1.642395 1_555
O9 P4 1.624172 1_555
O9 P1 1.642395 1_555
O10 P7 1.624172 1_565
O10 P2 1.642395 1_555
O11 P6 1.624172 1_545
O11 P3 1.642395 1_555
O12 P10 1.617754 1_556
O12 P2 1.629688 1_555
O13 P11 1.617754 1_554
O13 P3 1.629688 1_555
O14 P8 1.617754 1_555
O14 P0 1.629688 1_555
O15 P9 1.617754 1_555
O15 P1 1.629688 1_555
O16 P5 1.503877 1_455
O17 P4 1.503877 1_455
O18 P7 1.503877 1_665
O19 P6 1.503877 1_645
O20 P6 1.502631 1_555
O21 P7 1.502631 1_555
O22 P4 1.502631 1_555
O23 P5 1.502631 1_555
O24 P4 1.615316 1_555
O24 P8 1.625245 1_555
O25 P5 1.615316 1_555
O25 P9 1.625245 1_555
O26 P6 1.615316 1_555
O26 P10 1.625245 1_555
O27 P7 1.615316 1_555
O27 P11 1.625245 1_555
O28 P8 1.505169 1_555
O29 P9 1.505169 1_555
O30 P10 1.505169 1_555
O31 P11 1.505169 1_555
O32 P8 1.491914 1_455
O33 P9 1.491914 1_455
O34 P10 1.491914 1_656
O35 P11 1.491914 1_654
