# generated using pymatgen
data_Zr2N2O
_symmetry_space_group_name_H-M   'P 1'
_cell_length_a   8.77845845
_cell_length_b   8.78966720
_cell_length_c   8.79170268
_cell_angle_alpha   109.32888170
_cell_angle_beta   109.42708787
_cell_angle_gamma   109.56595185
_symmetry_Int_Tables_number   1
_chemical_formula_structural   Zr2N2O
_chemical_formula_sum   'Zr16 N16 O8'
_cell_volume   522.79463127
_cell_formula_units_Z   8
loop_
 _symmetry_equiv_pos_site_id
 _symmetry_equiv_pos_as_xyz
  1  'x, y, z'
loop_
 _atom_site_type_symbol
 _atom_site_label
 _atom_site_symmetry_multiplicity
 _atom_site_fract_x
 _atom_site_fract_y
 _atom_site_fract_z
 _atom_site_occupancy
  Zr  Zr0  1  0.21338406  0.24864770  0.96304000  1
  Zr  Zr1  1  0.99715642  0.48861585  0.99161209  1
  Zr  Zr2  1  0.75390230  0.96904526  0.71640796  1
  Zr  Zr3  1  0.24247420  0.53007329  0.77975068  1
  Zr  Zr4  1  0.52558061  0.77835963  0.24829755  1
  Zr  Zr5  1  0.02961855  0.28067901  0.25226137  1
  Zr  Zr6  1  0.99824222  0.98815922  0.48999642  1
  Zr  Zr7  1  0.49703660  0.49769269  0.49836720  1
  Zr  Zr8  1  0.50903807  0.01692175  0.01255728  1
  Zr  Zr9  1  0.71446502  0.25754962  0.46650247  1
  Zr  Zr10  1  0.29643690  0.75430046  0.53835955  1
  Zr  Zr11  1  0.47138022  0.21243963  0.75333570  1
  Zr  Zr12  1  0.96190380  0.71400634  0.74324424  1
  Zr  Zr13  1  0.25802215  0.03567809  0.29605701  1
  Zr  Zr14  1  0.74465701  0.46546876  0.21144733  1
  Zr  Zr15  1  0.78445483  0.74939583  0.04072139  1
  N  N0  1  0.27404639  0.53151246  0.04066830  1
  N  N1  1  0.49269388  0.73102567  0.45837406  1
  N  N2  1  0.45172195  0.98190075  0.22437135  1
  N  N3  1  0.25911285  0.48714539  0.53275031  1
  N  N4  1  0.01118231  0.96487976  0.73788809  1
  N  N5  1  0.46418616  0.23838132  0.01261273  1
  N  N6  1  0.22389187  0.95023990  0.48724257  1
  N  N7  1  0.96881320  0.45455725  0.72815723  1
  N  N8  1  0.77246736  0.23110636  0.23913108  1
  N  N9  1  0.99194794  0.03290264  0.25938071  1
  N  N10  1  0.54413535  0.00952320  0.77456008  1
  N  N11  1  0.74097539  0.51772950  0.47092339  1
  N  N12  1  0.75851512  0.73229437  0.27142372  1
  N  N13  1  0.95581358  0.22962206  0.97013681  1
  N  N14  1  0.50687708  0.27315163  0.54192831  1
  N  N15  1  0.73104591  0.46987830  0.95685793  1
  O  O0  1  0.03948239  0.77213572  0.02775757  1
  O  O1  1  0.23591830  0.27110637  0.72641437  1
  O  O2  1  0.22860688  0.77018111  0.76552714  1
  O  O3  1  0.77693825  0.05122865  0.51846099  1
  O  O4  1  0.03654683  0.54921927  0.27228496  1
  O  O5  1  0.27725978  0.26641440  0.22880004  1
  O  O6  1  0.53371595  0.75933671  0.97907385  1
  O  O7  1  0.72635332  0.73748707  0.77331716  1
loop_
_geom_bond_atom_site_label_1
_geom_bond_atom_site_label_2
_geom_bond_distance
_geom_bond_site_symmetry_2
N0 Zr4 2.098434 1_555
N0 Zr0 2.163134 1_554
N0 Zr1 2.194874 1_454
N0 Zr3 2.212356 1_554
N1 Zr4 2.109624 1_555
N1 Zr10 2.109801 1_555
N1 Zr7 2.202764 1_555
N1 Zr2 2.228438 1_555
N2 Zr13 2.136808 1_565
N2 Zr4 2.144920 1_555
N2 Zr8 2.171344 1_565
N2 Zr9 2.301808 1_565
N3 Zr3 2.141226 1_555
N3 Zr5 2.171880 1_555
N3 Zr7 2.184282 1_555
N3 Zr10 2.240786 1_555
N4 Zr12 2.120182 1_455
N4 Zr0 2.172365 1_565
N4 Zr2 2.216791 1_455
N4 Zr6 2.224995 1_455
N5 Zr8 2.111146 1_555
N5 Zr0 2.136862 1_554
N5 Zr14 2.153466 1_555
N5 Zr11 2.239056 1_554
N6 Zr13 2.121055 1_565
N6 Zr6 2.122316 1_455
N6 Zr10 2.151797 1_555
N6 Zr11 2.280491 1_565
N7 Zr3 2.103636 1_655
N7 Zr1 2.150378 1_555
N7 Zr9 2.152295 1_555
N7 Zr12 2.262649 1_555
N8 Zr8 2.096937 1_555
N8 Zr5 2.105600 1_655
N8 Zr9 2.181278 1_555
N8 Zr14 2.234169 1_555
N9 Zr5 2.116135 1_655
N9 Zr15 2.163893 1_545
N9 Zr6 2.176322 1_545
N9 Zr13 2.239595 1_655
N10 Zr11 2.127874 1_555
N10 Zr10 2.172136 1_545
N10 Zr2 2.173360 1_545
N10 Zr8 2.197608 1_556
N11 Zr12 2.098959 1_555
N11 Zr14 2.186639 1_555
N11 Zr7 2.189539 1_555
N11 Zr9 2.205501 1_555
N12 Zr6 2.111456 1_555
N12 Zr15 2.162047 1_555
N12 Zr4 2.172323 1_555
N12 Zr14 2.177359 1_555
N13 Zr1 2.113339 1_555
N13 Zr2 2.152243 1_545
N13 Zr5 2.184655 1_656
N13 Zr0 2.234234 1_655
N14 Zr13 2.149318 1_555
N14 Zr7 2.154516 1_555
N14 Zr9 2.165722 1_555
N14 Zr11 2.183311 1_555
N15 Zr15 2.144529 1_556
N15 Zr11 2.160944 1_555
N15 Zr1 2.193571 1_555
N15 Zr14 2.215463 1_556
O0 Zr12 2.183887 1_454
O0 Zr15 2.224869 1_455
O0 Zr13 2.237518 1_565
O0 Zr1 2.286126 1_454
O1 Zr3 2.142934 1_555
O1 Zr0 2.219319 1_555
O1 Zr11 2.250253 1_555
O1 Zr6 2.253079 1_445
O2 Zr12 2.149459 1_455
O2 Zr3 2.195720 1_555
O2 Zr10 2.241653 1_555
O2 Zr8 2.286925 1_566
O3 Zr2 2.135362 1_545
O3 Zr9 2.201378 1_555
O3 Zr6 2.257643 1_545
O3 Zr4 2.336811 1_545
O4 Zr10 2.197809 1_555
O4 Zr1 2.220636 1_454
O4 Zr14 2.226630 1_455
O4 Zr5 2.286425 1_555
O5 Zr7 2.147939 1_555
O5 Zr0 2.150872 1_554
O5 Zr13 2.263231 1_555
O5 Zr5 2.290822 1_555
O6 Zr15 2.124339 1_556
O6 Zr3 2.213465 1_555
O6 Zr8 2.278027 1_566
O6 Zr4 2.343906 1_556
O7 Zr15 2.191280 1_556
O7 Zr2 2.208226 1_555
O7 Zr7 2.210536 1_555
O7 Zr12 2.236417 1_555
