# generated using pymatgen
data_Fe10O9F11
_symmetry_space_group_name_H-M   'P 1'
_cell_length_a   15.41743500
_cell_length_b   4.77461500
_cell_length_c   4.78551166
_cell_angle_alpha   85.33434102
_cell_angle_beta   90.00000000
_cell_angle_gamma   90.00000000
_symmetry_Int_Tables_number   1
_chemical_formula_structural   Fe10O9F11
_chemical_formula_sum   'Fe10 O9 F11'
_cell_volume   351.10527943
_cell_formula_units_Z   1
loop_
 _symmetry_equiv_pos_site_id
 _symmetry_equiv_pos_as_xyz
  1  'x, y, z'
loop_
 _atom_site_type_symbol
 _atom_site_label
 _atom_site_symmetry_multiplicity
 _atom_site_fract_x
 _atom_site_fract_y
 _atom_site_fract_z
 _atom_site_occupancy
  Fe  Fe0  1  0.29774300  0.00429400  0.99480000  1
  Fe  Fe1  1  0.50000000  0.00136800  0.99836200  1
  Fe  Fe2  1  0.70225700  0.00429400  0.99480000  1
  Fe  Fe3  1  0.90956400  0.97055700  0.01089000  1
  Fe  Fe4  1  0.09043600  0.97055700  0.01089000  1
  Fe  Fe5  1  0.40212200  0.50104200  0.49886100  1
  Fe  Fe6  1  0.79195800  0.50757200  0.48570000  1
  Fe  Fe7  1  0.59787800  0.50104200  0.49886100  1
  Fe  Fe8  1  0.00000000  0.54855700  0.50637700  1
  Fe  Fe9  1  0.20804200  0.50757200  0.48570000  1
  O  O0  1  0.00000000  0.79864000  0.79791200  1
  O  O1  1  0.30403300  0.70329800  0.29367200  1
  O  O2  1  0.50000000  0.70293200  0.29732400  1
  O  O3  1  0.69596700  0.70329800  0.29367200  1
  O  O4  1  0.89476500  0.68508100  0.31875000  1
  O  O5  1  0.10523500  0.68508100  0.31875000  1
  O  O6  1  0.30154100  0.30086300  0.69569600  1
  O  O7  1  0.50000000  0.30091300  0.69912400  1
  O  O8  1  0.69845900  0.30086300  0.69569600  1
  F  F0  1  0.40044600  0.81005500  0.80516500  1
  F  F1  1  0.59955400  0.81005500  0.80516500  1
  F  F2  1  0.79750900  0.80170400  0.80284600  1
  F  F3  1  0.20249100  0.80170400  0.80284600  1
  F  F4  1  0.89674800  0.29583900  0.70807900  1
  F  F5  1  0.10325200  0.29583900  0.70807900  1
  F  F6  1  0.40024900  0.19428100  0.18882100  1
  F  F7  1  0.79873600  0.19323300  0.19185400  1
  F  F8  1  0.59975100  0.19428100  0.18882100  1
  F  F9  1  0.20126400  0.19323300  0.19185400  1
  F  F10  1  0.00000000  0.21195000  0.21063200  1
loop_
_geom_bond_atom_site_label_1
_geom_bond_atom_site_label_2
_geom_bond_distance
_geom_bond_site_symmetry_2
Fe0 O6 1.930692 1_555
Fe0 O1 1.945769 1_546
Fe1 O2 1.935357 1_546
Fe1 O7 1.939836 1_555
Fe2 O8 1.930692 1_555
Fe2 O3 1.945769 1_546
Fe3 O4 1.937463 1_555
Fe3 O0 1.947488 1_654
Fe4 O5 1.937463 1_555
Fe4 O0 1.947488 1_554
Fe5 O7 1.989899 1_555
Fe5 O2 1.996320 1_555
Fe5 O1 2.007359 1_555
Fe5 O6 2.014697 1_555
Fe6 O4 1.938752 1_555
Fe6 O3 1.941209 1_555
Fe6 O8 1.974992 1_555
Fe7 O7 1.989899 1_555
Fe7 O2 1.996320 1_555
Fe7 O3 2.007359 1_555
Fe7 O8 2.014697 1_555
Fe8 O0 1.908714 1_555
Fe8 O5 1.941200 1_555
Fe8 O4 1.941200 1_455
Fe9 O5 1.938752 1_555
Fe9 O1 1.941209 1_555
Fe9 O6 1.974992 1_555
F0 Fe1 2.045086 1_565
F0 Fe0 2.080333 1_565
F0 Fe5 2.162866 1_555
F1 Fe1 2.045086 1_565
F1 Fe2 2.080333 1_565
F1 Fe7 2.162866 1_555
F2 Fe2 2.020059 1_565
F2 Fe6 2.151684 1_555
F2 Fe3 2.180910 1_556
F3 Fe0 2.020059 1_565
F3 Fe9 2.151684 1_555
F3 Fe4 2.180910 1_556
F4 Fe3 2.045709 1_546
F4 Fe6 2.142345 1_555
F4 Fe8 2.175378 1_655
F5 Fe4 2.045709 1_546
F5 Fe9 2.142345 1_555
F5 Fe8 2.175378 1_555
F6 Fe1 2.044713 1_554
F6 Fe0 2.078357 1_554
F6 Fe5 2.168173 1_555
F7 Fe2 2.013452 1_554
F7 Fe6 2.141077 1_555
F7 Fe3 2.224799 1_545
F8 Fe1 2.044713 1_554
F8 Fe2 2.078357 1_554
F8 Fe7 2.168173 1_555
F9 Fe0 2.013452 1_554
F9 Fe9 2.141077 1_555
F9 Fe4 2.224799 1_545
F10 Fe4 2.089342 1_545
F10 Fe3 2.089342 1_445
F10 Fe8 2.226225 1_555
