# generated using pymatgen
data_Ba2YCl7
_symmetry_space_group_name_H-M   'P 1'
_cell_length_a   11.16274000
_cell_length_b   8.80460700
_cell_length_c   14.74555701
_cell_angle_alpha   62.89615627
_cell_angle_beta   90.00000000
_cell_angle_gamma   90.00000000
_symmetry_Int_Tables_number   1
_chemical_formula_structural   Ba2YCl7
_chemical_formula_sum   'Ba8 Y4 Cl28'
_cell_volume   1290.09262961
_cell_formula_units_Z   4
loop_
 _symmetry_equiv_pos_site_id
 _symmetry_equiv_pos_as_xyz
  1  'x, y, z'
loop_
 _atom_site_type_symbol
 _atom_site_label
 _atom_site_symmetry_multiplicity
 _atom_site_fract_x
 _atom_site_fract_y
 _atom_site_fract_z
 _atom_site_occupancy
  Ba  Ba0  1  0.20574300  0.76624300  0.46899600  1
  Ba  Ba1  1  0.28334000  0.36589000  0.79625500  1
  Ba  Ba2  1  0.78334000  0.63411000  0.70374500  1
  Ba  Ba3  1  0.29425700  0.76624300  0.96899600  1
  Ba  Ba4  1  0.70574300  0.23375700  0.03100400  1
  Ba  Ba5  1  0.21666000  0.36589000  0.29625500  1
  Ba  Ba6  1  0.71666000  0.63411000  0.20374500  1
  Ba  Ba7  1  0.79425700  0.23375700  0.53100400  1
  Y  Y0  1  0.58908300  0.95403800  0.36833100  1
  Y  Y1  1  0.91091700  0.95403800  0.86833100  1
  Y  Y2  1  0.08908300  0.04596200  0.13166900  1
  Y  Y3  1  0.41091700  0.04596200  0.63166900  1
  Cl  Cl0  1  0.55731600  0.93354500  0.19121800  1
  Cl  Cl1  1  0.86628100  0.94130300  0.19275900  1
  Cl  Cl2  1  0.19941800  0.74872100  0.26014300  1
  Cl  Cl3  1  0.46737000  0.78878500  0.55051800  1
  Cl  Cl4  1  0.94268400  0.93354500  0.69121800  1
  Cl  Cl5  1  0.05482500  0.54662300  0.65378400  1
  Cl  Cl6  1  0.78900600  0.92416100  0.47666000  1
  Cl  Cl7  1  0.34121200  0.37720700  0.58044400  1
  Cl  Cl8  1  0.63371900  0.94130300  0.69275900  1
  Cl  Cl9  1  0.30058200  0.74872100  0.76014300  1
  Cl  Cl10  1  0.84121200  0.62279300  0.91955600  1
  Cl  Cl11  1  0.28900600  0.07583900  0.02334000  1
  Cl  Cl12  1  0.55482500  0.45337700  0.84621600  1
  Cl  Cl13  1  0.03263000  0.78878500  0.05051800  1
  Cl  Cl14  1  0.96737000  0.21121500  0.94948200  1
  Cl  Cl15  1  0.44517500  0.54662300  0.15378400  1
  Cl  Cl16  1  0.71099400  0.92416100  0.97666000  1
  Cl  Cl17  1  0.15878800  0.37720700  0.08044400  1
  Cl  Cl18  1  0.69941800  0.25127900  0.23985700  1
  Cl  Cl19  1  0.36628100  0.05869700  0.30724100  1
  Cl  Cl20  1  0.65878800  0.62279300  0.41955600  1
  Cl  Cl21  1  0.21099400  0.07583900  0.52334000  1
  Cl  Cl22  1  0.94517500  0.45337700  0.34621600  1
  Cl  Cl23  1  0.05731600  0.06645500  0.30878200  1
  Cl  Cl24  1  0.53263000  0.21121500  0.44948200  1
  Cl  Cl25  1  0.80058200  0.25127900  0.73985700  1
  Cl  Cl26  1  0.13371900  0.05869700  0.80724100  1
  Cl  Cl27  1  0.44268400  0.06645500  0.80878200  1
loop_
_geom_bond_atom_site_label_1
_geom_bond_atom_site_label_2
_geom_bond_distance
_geom_bond_site_symmetry_2
Ba0 Cl5 3.033258 1_555
Ba0 Cl23 3.102095 1_565
Ba0 Cl19 3.151893 1_565
Ba0 Cl2 3.153725 1_555
Ba0 Cl21 3.172747 1_565
Ba0 Cl3 3.198589 1_555
Ba0 Cl7 3.404545 1_555
Ba1 Cl27 3.115260 1_555
Ba1 Cl26 3.119611 1_555
Ba1 Cl11 3.153756 1_556
Ba1 Cl9 3.169631 1_555
Ba1 Cl7 3.203914 1_555
Ba1 Cl5 3.225879 1_555
Ba1 Cl12 3.291989 1_555
Ba2 Cl4 3.115260 1_555
Ba2 Cl8 3.119611 1_555
Ba2 Cl6 3.153756 1_555
Ba2 Cl25 3.169631 1_555
Ba2 Cl10 3.203914 1_555
Ba2 Cl12 3.225879 1_555
Ba2 Cl5 3.291989 1_655
Ba3 Cl15 3.033258 1_556
Ba3 Cl27 3.102095 1_565
Ba3 Cl26 3.151893 1_565
Ba3 Cl9 3.153725 1_555
Ba3 Cl11 3.172747 1_566
Ba3 Cl13 3.198589 1_556
Ba3 Cl17 3.404545 1_556
Ba4 Cl12 3.033258 1_554
Ba4 Cl0 3.102095 1_545
Ba4 Cl1 3.151893 1_545
Ba4 Cl18 3.153725 1_555
Ba4 Cl16 3.172747 1_544
Ba4 Cl14 3.198589 1_554
Ba4 Cl10 3.404545 1_554
Ba5 Cl23 3.115260 1_555
Ba5 Cl19 3.119611 1_555
Ba5 Cl21 3.153756 1_555
Ba5 Cl2 3.169631 1_555
Ba5 Cl17 3.203914 1_555
Ba5 Cl15 3.225879 1_555
Ba5 Cl22 3.291989 1_455
Ba6 Cl0 3.115260 1_555
Ba6 Cl1 3.119611 1_555
Ba6 Cl16 3.153756 1_554
Ba6 Cl18 3.169631 1_555
Ba6 Cl20 3.203914 1_555
Ba6 Cl22 3.225879 1_555
Ba6 Cl15 3.291989 1_555
Ba7 Cl22 3.033258 1_555
Ba7 Cl4 3.102095 1_545
Ba7 Cl8 3.151893 1_545
Ba7 Cl25 3.153725 1_555
Ba7 Cl6 3.172747 1_545
Ba7 Cl24 3.198589 1_555
Ba7 Cl20 3.404545 1_555
Cl0 Y0 2.721818 1_555
Cl1 Y2 2.662664 1_665
Cl2 Y2 2.727136 1_565
Cl3 Y0 2.760116 1_555
Cl3 Y3 3.070052 1_565
Cl4 Y1 2.721818 1_555
Cl6 Y0 2.686697 1_555
Cl7 Y3 2.770290 1_555
Cl8 Y3 2.662664 1_565
Cl9 Y3 2.727136 1_565
Cl10 Y1 2.770290 1_555
Cl11 Y2 2.686697 1_555
Cl13 Y1 2.760116 1_454
Cl13 Y2 3.070052 1_565
Cl14 Y2 2.760116 1_656
Cl14 Y1 3.070052 1_545
Cl16 Y1 2.686697 1_555
Cl17 Y2 2.770290 1_555
Cl18 Y0 2.727136 1_545
Cl19 Y0 2.662664 1_545
Cl20 Y0 2.770290 1_555
Cl21 Y3 2.686697 1_555
Cl23 Y2 2.721818 1_555
Cl24 Y3 2.760116 1_555
Cl24 Y0 3.070052 1_545
Cl25 Y1 2.727136 1_545
Cl26 Y1 2.662664 1_445
Cl27 Y3 2.721818 1_555
