# generated using pymatgen
data_LiFePO4
_symmetry_space_group_name_H-M   'P 1'
_cell_length_a   4.73602706
_cell_length_b   8.08830424
_cell_length_c   8.53583039
_cell_angle_alpha   89.97536304
_cell_angle_beta   90.01066048
_cell_angle_gamma   89.98164706
_symmetry_Int_Tables_number   1
_chemical_formula_structural   LiFePO4
_chemical_formula_sum   'Li4 Fe4 P4 O16'
_cell_volume   326.97711750
_cell_formula_units_Z   4
loop_
 _symmetry_equiv_pos_site_id
 _symmetry_equiv_pos_as_xyz
  1  'x, y, z'
loop_
 _atom_site_type_symbol
 _atom_site_label
 _atom_site_symmetry_multiplicity
 _atom_site_fract_x
 _atom_site_fract_y
 _atom_site_fract_z
 _atom_site_occupancy
  Li  Li0  1  0.06158300  0.11076400  0.00418600  1
  Li  Li1  1  0.56169300  0.38938600  0.50411800  1
  Li  Li2  1  0.06116800  0.61032400  0.49606800  1
  Li  Li3  1  0.56103300  0.88967900  0.99600500  1
  Fe  Fe0  1  0.95965700  0.56474900  0.84390500  1
  Fe  Fe1  1  0.45884700  0.93490600  0.34383000  1
  Fe  Fe2  1  0.96031000  0.06448200  0.65589500  1
  Fe  Fe3  1  0.46096200  0.43540400  0.15570700  1
  P  P0  1  0.55032400  0.24170200  0.83202300  1
  P  P1  1  0.05072700  0.25860700  0.33206000  1
  P  P2  1  0.55038900  0.74163000  0.66797500  1
  P  P3  1  0.04994200  0.75813800  0.16790000  1
  O  O0  1  0.69135100  0.09683600  0.91882700  1
  O  O1  1  0.19173800  0.40342500  0.41868800  1
  O  O2  1  0.69169900  0.59617500  0.58227200  1
  O  O3  1  0.19115800  0.90360000  0.08209300  1
  O  O4  1  0.11251200  0.09190400  0.42408400  1
  O  O5  1  0.61259500  0.40839200  0.92380800  1
  O  O6  1  0.11287400  0.59185100  0.07559900  1
  O  O7  1  0.61276200  0.90786900  0.57537100  1
  O  O8  1  0.22766600  0.21117000  0.81290300  1
  O  O9  1  0.72809100  0.28948300  0.31274500  1
  O  O10  1  0.22758900  0.71114300  0.68697400  1
  O  O11  1  0.72712700  0.78846300  0.18683900  1
  O  O12  1  0.68854900  0.25858600  0.66888700  1
  O  O13  1  0.18920400  0.24125200  0.16903200  1
  O  O14  1  0.68863400  0.75945100  0.83107100  1
  O  O15  1  0.18781800  0.74062600  0.33113500  1
loop_
_geom_bond_atom_site_label_1
_geom_bond_atom_site_label_2
_geom_bond_distance
_geom_bond_site_symmetry_2
Li0 O13 1.860252 1_555
Li0 O0 1.902051 1_454
Li0 O3 1.903865 1_545
Li0 O8 1.985920 1_554
Li1 O12 1.859108 1_555
Li1 O1 1.901023 1_555
Li1 O2 1.903444 1_555
Li1 O9 1.985851 1_555
Li2 O15 1.857953 1_555
Li2 O2 1.901820 1_455
Li2 O1 1.902518 1_555
Li2 O10 1.985615 1_555
Li3 O14 1.859548 1_555
Li3 O3 1.903068 1_556
Li3 O0 1.903218 1_565
Li3 O11 1.985034 1_556
Fe0 O14 2.034229 1_555
Fe0 O6 2.117982 1_656
Fe0 O5 2.183412 1_555
Fe0 O10 2.192447 1_655
Fe0 O2 2.580851 1_555
Fe1 O15 2.032251 1_555
Fe1 O7 2.117619 1_555
Fe1 O4 2.184501 1_565
Fe1 O11 2.194111 1_555
Fe1 O3 2.581166 1_555
Fe2 O12 2.032870 1_555
Fe2 O4 2.117617 1_655
Fe2 O7 2.188154 1_545
Fe2 O8 2.192892 1_655
Fe2 O0 2.594122 1_555
Fe3 O13 2.033881 1_555
Fe3 O5 2.117187 1_554
Fe3 O6 2.187238 1_555
Fe3 O9 2.188015 1_555
Fe3 O1 2.594685 1_555
O0 P0 1.538374 1_555
O1 P1 1.538134 1_555
O2 P2 1.538696 1_555
O3 P3 1.538815 1_555
O4 P1 1.587268 1_555
O5 P0 1.587329 1_555
O6 P3 1.587223 1_555
O7 P2 1.587271 1_555
O8 P0 1.556582 1_555
O9 P1 1.556920 1_655
O10 P2 1.557113 1_555
O11 P3 1.556790 1_655
O12 P0 1.544828 1_555
O13 P1 1.544914 1_555
O14 P2 1.545139 1_555
O15 P3 1.545088 1_555
