# generated using pymatgen
data_Li2Ti6Zn3O16
_symmetry_space_group_name_H-M   'P 1'
_cell_length_a   8.46416500
_cell_length_b   8.46236100
_cell_length_c   8.47282357
_cell_angle_alpha   89.67707815
_cell_angle_beta   90.00000000
_cell_angle_gamma   90.00000000
_symmetry_Int_Tables_number   1
_chemical_formula_structural   Li2Ti6Zn3O16
_chemical_formula_sum   'Li4 Ti12 Zn6 O32'
_cell_volume   606.87176817
_cell_formula_units_Z   2
loop_
 _symmetry_equiv_pos_site_id
 _symmetry_equiv_pos_as_xyz
  1  'x, y, z'
loop_
 _atom_site_type_symbol
 _atom_site_label
 _atom_site_symmetry_multiplicity
 _atom_site_fract_x
 _atom_site_fract_y
 _atom_site_fract_z
 _atom_site_occupancy
  Li  Li0  1  0.62446000  0.12521400  0.87399400  1
  Li  Li1  1  0.12446000  0.87478600  0.12600600  1
  Li  Li2  1  0.50236600  0.99547000  0.25180700  1
  Li  Li3  1  0.00236600  0.00453000  0.74819300  1
  Ti  Ti0  1  0.86770800  0.37470300  0.86506400  1
  Ti  Ti1  1  0.11457800  0.63707000  0.86813000  1
  Ti  Ti2  1  0.37242200  0.88298100  0.88502000  1
  Ti  Ti3  1  0.87242200  0.11701900  0.11498000  1
  Ti  Ti4  1  0.61457800  0.36293000  0.13187000  1
  Ti  Ti5  1  0.36770800  0.62529700  0.13493600  1
  Ti  Ti6  1  0.13763600  0.12716900  0.36922200  1
  Ti  Ti7  1  0.87990300  0.86710000  0.38427700  1
  Ti  Ti8  1  0.62547400  0.61831100  0.38554800  1
  Ti  Ti9  1  0.12547400  0.38168900  0.61445200  1
  Ti  Ti10  1  0.37990300  0.13290000  0.61572300  1
  Ti  Ti11  1  0.63763600  0.87283100  0.63077800  1
  Zn  Zn0  1  0.49582300  0.50107800  0.75565000  1
  Zn  Zn1  1  0.24747300  0.25109800  0.99542100  1
  Zn  Zn2  1  0.74747300  0.74890200  0.00457900  1
  Zn  Zn3  1  0.99582300  0.49892200  0.24435000  1
  Zn  Zn4  1  0.75460600  0.24364200  0.49780900  1
  Zn  Zn5  1  0.25460600  0.75635800  0.50219100  1
  O  O0  1  0.61063600  0.87078000  0.85700000  1
  O  O1  1  0.37246200  0.10580200  0.86069500  1
  O  O2  1  0.10975300  0.38874300  0.86136700  1
  O  O3  1  0.14085600  0.85563700  0.87316300  1
  O  O4  1  0.89494100  0.60824800  0.88970800  1
  O  O5  1  0.36128700  0.63877200  0.88784800  1
  O  O6  1  0.64399700  0.37845700  0.89006400  1
  O  O7  1  0.87639300  0.14306400  0.89620900  1
  O  O8  1  0.37639300  0.85693600  0.10379100  1
  O  O9  1  0.14399700  0.62154300  0.10993600  1
  O  O10  1  0.86128700  0.36122800  0.11215200  1
  O  O11  1  0.39494100  0.39175200  0.11029200  1
  O  O12  1  0.64085600  0.14436300  0.12683700  1
  O  O13  1  0.60975300  0.61125700  0.13863300  1
  O  O14  1  0.87246200  0.89419800  0.13930500  1
  O  O15  1  0.11063600  0.12922000  0.14300000  1
  O  O16  1  0.39252100  0.63910800  0.35480400  1
  O  O17  1  0.63994200  0.39446300  0.35911700  1
  O  O18  1  0.88794300  0.10955000  0.36016200  1
  O  O19  1  0.85795700  0.64607000  0.36004900  1
  O  O20  1  0.10682700  0.88982000  0.37762700  1
  O  O21  1  0.64157700  0.85906800  0.39240400  1
  O  O22  1  0.11030000  0.35955900  0.39349600  1
  O  O23  1  0.35489600  0.11144200  0.39160700  1
  O  O24  1  0.85489600  0.88855800  0.60839300  1
  O  O25  1  0.61030000  0.64044100  0.60650400  1
  O  O26  1  0.14157700  0.14093200  0.60759600  1
  O  O27  1  0.60682700  0.11018000  0.62237300  1
  O  O28  1  0.35795700  0.35393000  0.63995100  1
  O  O29  1  0.38794300  0.89045000  0.63983800  1
  O  O30  1  0.13994200  0.60553700  0.64088300  1
  O  O31  1  0.89252100  0.36089200  0.64519600  1
loop_
_geom_bond_atom_site_label_1
_geom_bond_atom_site_label_2
_geom_bond_distance
_geom_bond_site_symmetry_2
Li0 O27 2.141655 1_555
Li0 O1 2.142283 1_555
Li0 O7 2.146091 1_555
Li0 O12 2.153800 1_556
Li0 O6 2.154476 1_555
Li0 O0 2.161900 1_545
Li1 O20 2.141655 1_555
Li1 O14 2.142283 1_455
Li1 O8 2.146091 1_555
Li1 O3 2.153800 1_554
Li1 O9 2.154476 1_555
Li1 O15 2.161900 1_565
Li2 O23 1.984267 1_565
Li2 O12 2.016865 1_565
Li2 O8 2.024999 1_555
Li2 O21 2.030851 1_555
Li3 O24 1.984267 1_445
Li3 O3 2.016865 1_545
Li3 O7 2.024999 1_455
Li3 O26 2.030851 1_555
O0 Ti11 1.930296 1_555
O0 Zn2 1.988512 1_556
O0 Ti2 2.032903 1_555
O1 Ti2 1.895667 1_545
O1 Zn1 1.987426 1_555
O1 Ti10 2.087899 1_555
O2 Zn1 1.997686 1_555
O2 Ti0 2.052380 1_455
O2 Ti9 2.097480 1_555
O2 Ti1 2.102933 1_555
O3 Ti1 1.863645 1_555
O3 Ti2 1.976246 1_555
O4 Ti1 1.883734 1_655
O4 Zn2 1.983697 1_556
O4 Ti0 2.001827 1_555
O5 Zn0 1.980848 1_555
O5 Ti2 2.068737 1_555
O5 Ti1 2.094914 1_555
O5 Ti5 2.096699 1_556
O6 Ti0 1.905622 1_555
O6 Zn0 1.983275 1_555
O6 Ti4 2.067301 1_556
O7 Ti3 1.865734 1_556
O7 Ti0 1.977788 1_555
O8 Ti2 1.865734 1_554
O8 Ti5 1.977788 1_555
O9 Ti5 1.905622 1_555
O9 Zn3 1.983275 1_455
O9 Ti1 2.067301 1_554
O10 Zn3 1.980848 1_555
O10 Ti3 2.068737 1_555
O10 Ti4 2.094914 1_555
O10 Ti0 2.096699 1_554
O11 Ti4 1.883734 1_555
O11 Zn1 1.983697 1_554
O11 Ti5 2.001827 1_555
O12 Ti4 1.863645 1_555
O12 Ti3 1.976246 1_555
O13 Zn2 1.997686 1_555
O13 Ti5 2.052380 1_555
O13 Ti8 2.097480 1_555
O13 Ti4 2.102933 1_555
O14 Ti3 1.895667 1_565
O14 Zn2 1.987426 1_555
O14 Ti7 2.087899 1_555
O15 Ti6 1.930296 1_555
O15 Zn1 1.988512 1_554
O15 Ti3 2.032903 1_455
O16 Ti5 1.878997 1_555
O16 Zn5 1.980047 1_555
O16 Ti8 1.996527 1_555
O17 Ti8 1.912652 1_555
O17 Ti4 1.957126 1_555
O17 Zn4 1.983650 1_555
O18 Zn4 1.984038 1_555
O18 Ti7 2.061825 1_545
O18 Ti3 2.082138 1_555
O18 Ti6 2.120116 1_655
O19 Ti7 1.891957 1_555
O19 Zn3 1.971552 1_555
O19 Ti8 1.993345 1_555
O20 Ti7 1.931112 1_455
O20 Zn5 1.985087 1_555
O20 Ti6 2.026244 1_565
O21 Ti7 2.019537 1_555
O21 Ti11 2.023986 1_555
O21 Ti8 2.043079 1_555
O22 Ti9 1.886891 1_555
O22 Zn3 1.977326 1_455
O22 Ti6 1.991930 1_555
O23 Ti6 1.853387 1_555
O23 Ti10 1.920277 1_555
O24 Ti11 1.853387 1_555
O24 Ti7 1.920277 1_555
O25 Ti8 1.886891 1_555
O25 Zn0 1.977326 1_555
O25 Ti11 1.991930 1_555
O26 Ti10 2.019537 1_555
O26 Ti6 2.023986 1_555
O26 Ti9 2.043079 1_555
O27 Ti10 1.931112 1_555
O27 Zn4 1.985087 1_555
O27 Ti11 2.026244 1_545
O28 Ti10 1.891957 1_555
O28 Zn0 1.971552 1_555
O28 Ti9 1.993345 1_555
O29 Zn5 1.984038 1_555
O29 Ti10 2.061825 1_565
O29 Ti2 2.082138 1_555
O29 Ti11 2.120116 1_555
O30 Ti9 1.912652 1_555
O30 Ti1 1.957126 1_555
O30 Zn5 1.983650 1_555
O31 Ti0 1.878997 1_555
O31 Zn4 1.980047 1_555
O31 Ti9 1.996527 1_655
