# generated using pymatgen
data_Li2Fe2S3
_symmetry_space_group_name_H-M   'P 1'
_cell_length_a   9.24853161
_cell_length_b   9.24853161
_cell_length_c   6.51577409
_cell_angle_alpha   69.80779124
_cell_angle_beta   69.80779124
_cell_angle_gamma   80.91780762
_symmetry_Int_Tables_number   1
_chemical_formula_structural   Li2Fe2S3
_chemical_formula_sum   'Li8 Fe8 S12'
_cell_volume   490.45300395
_cell_formula_units_Z   4
loop_
 _symmetry_equiv_pos_site_id
 _symmetry_equiv_pos_as_xyz
  1  'x, y, z'
loop_
 _atom_site_type_symbol
 _atom_site_label
 _atom_site_symmetry_multiplicity
 _atom_site_fract_x
 _atom_site_fract_y
 _atom_site_fract_z
 _atom_site_occupancy
  Li  Li0  1  0.82367200  0.99086200  0.04487000  1
  Li  Li1  1  0.99086200  0.82367200  0.54487000  1
  Li  Li2  1  0.27743000  0.72257000  0.25000000  1
  Li  Li3  1  0.57682800  0.42317200  0.25000000  1
  Li  Li4  1  0.42317200  0.57682800  0.75000000  1
  Li  Li5  1  0.72257000  0.27743000  0.75000000  1
  Li  Li6  1  0.00913800  0.17632800  0.45513000  1
  Li  Li7  1  0.17632800  0.00913800  0.95513000  1
  Fe  Fe0  1  0.78655300  0.62868000  0.37526400  1
  Fe  Fe1  1  0.44105000  0.93706800  0.39883100  1
  Fe  Fe2  1  0.62868000  0.78655300  0.87526400  1
  Fe  Fe3  1  0.93706800  0.44105000  0.89883100  1
  Fe  Fe4  1  0.06293200  0.55895000  0.10116900  1
  Fe  Fe5  1  0.37132000  0.21344700  0.12473600  1
  Fe  Fe6  1  0.55895000  0.06293200  0.60116900  1
  Fe  Fe7  1  0.21344700  0.37132000  0.62473600  1
  S  S0  1  0.55817200  0.71861400  0.28203200  1
  S  S1  1  0.85199200  0.39422800  0.29751500  1
  S  S2  1  0.71861400  0.55817200  0.78203200  1
  S  S3  1  0.39422800  0.85199200  0.79751500  1
  S  S4  1  0.99298300  0.78546700  0.18888800  1
  S  S5  1  0.00701700  0.21453300  0.81111200  1
  S  S6  1  0.60577200  0.14800800  0.20248500  1
  S  S7  1  0.28138600  0.44182800  0.21796800  1
  S  S8  1  0.78546700  0.99298300  0.68888800  1
  S  S9  1  0.14800800  0.60577200  0.70248500  1
  S  S10  1  0.44182800  0.28138600  0.71796800  1
  S  S11  1  0.21453300  0.00701700  0.31111200  1
loop_
_geom_bond_atom_site_label_1
_geom_bond_atom_site_label_2
_geom_bond_distance
_geom_bond_site_symmetry_2
Li0 S4 2.405364 1_555
Li0 S6 2.430064 1_565
Li0 S8 2.457131 1_554
Li0 S5 2.573666 1_664
Li1 S8 2.405364 1_555
Li1 S9 2.430064 1_655
Li1 S4 2.457131 1_555
Li1 S11 2.573666 1_665
Li2 S3 2.658081 1_554
Li2 S9 2.658081 1_555
Li2 S0 2.669326 1_555
Li2 S7 2.669326 1_555
Li2 S11 2.738200 1_565
Li2 S4 2.738200 1_455
Li3 S1 2.629727 1_555
Li3 S6 2.629727 1_555
Li3 S2 2.775667 1_554
Li3 S10 2.775667 1_555
Li3 S0 2.785563 1_555
Li3 S7 2.785563 1_555
Li4 S9 2.629727 1_555
Li4 S3 2.629727 1_555
Li4 S0 2.775667 1_555
Li4 S7 2.775667 1_556
Li4 S2 2.785563 1_555
Li4 S10 2.785563 1_555
Li5 S1 2.658081 1_555
Li5 S6 2.658081 1_556
Li5 S2 2.669326 1_555
Li5 S10 2.669326 1_555
Li5 S5 2.738200 1_655
Li5 S8 2.738200 1_545
Li6 S11 2.405364 1_555
Li6 S1 2.430064 1_455
Li6 S5 2.457131 1_555
Li6 S8 2.573666 1_445
Li7 S5 2.405364 1_555
Li7 S3 2.430064 1_545
Li7 S11 2.457131 1_556
Li7 S4 2.573666 1_446
Fe0 S4 2.297855 1_555
Fe0 S1 2.336016 1_555
Fe0 S0 2.346173 1_555
Fe0 S2 2.373029 1_555
Fe1 S11 2.297278 1_565
Fe1 S3 2.339830 1_555
Fe1 S6 2.373468 1_565
Fe1 S0 2.374005 1_555
Fe2 S8 2.297855 1_555
Fe2 S3 2.336016 1_555
Fe2 S2 2.346173 1_555
Fe2 S0 2.373029 1_556
Fe3 S5 2.297278 1_655
Fe3 S1 2.339830 1_556
Fe3 S9 2.373468 1_655
Fe3 S2 2.374005 1_555
Fe4 S4 2.297278 1_455
Fe4 S9 2.339830 1_554
Fe4 S1 2.373468 1_455
Fe4 S7 2.374005 1_555
Fe5 S11 2.297855 1_555
Fe5 S6 2.336016 1_555
Fe5 S7 2.346173 1_555
Fe5 S10 2.373029 1_554
Fe6 S8 2.297278 1_545
Fe6 S6 2.339830 1_555
Fe6 S3 2.373468 1_545
Fe6 S10 2.374005 1_555
Fe7 S5 2.297855 1_555
Fe7 S9 2.336016 1_555
Fe7 S10 2.346173 1_555
Fe7 S7 2.373029 1_555
