# generated using pymatgen
data_Li4V3NiO8
_symmetry_space_group_name_H-M   'P 1'
_cell_length_a   5.92218913
_cell_length_b   5.92218913
_cell_length_c   5.92218875
_cell_angle_alpha   58.70165694
_cell_angle_beta   58.70165694
_cell_angle_gamma   58.70165916
_symmetry_Int_Tables_number   1
_chemical_formula_structural   Li4V3NiO8
_chemical_formula_sum   'Li4 V3 Ni1 O8'
_cell_volume   142.51240546
_cell_formula_units_Z   1
loop_
 _symmetry_equiv_pos_site_id
 _symmetry_equiv_pos_as_xyz
  1  'x, y, z'
loop_
 _atom_site_type_symbol
 _atom_site_label
 _atom_site_symmetry_multiplicity
 _atom_site_fract_x
 _atom_site_fract_y
 _atom_site_fract_z
 _atom_site_occupancy
  Li  Li0  1  0.50000000  0.50000000  0.50000000  1
  Li  Li1  1  0.00000000  0.50000000  0.00000000  1
  Li  Li2  1  0.00000000  0.00000000  0.50000000  1
  Li  Li3  1  0.50000000  0.00000000  0.00000000  1
  V  V0  1  0.50000000  0.00000000  0.50000000  1
  V  V1  1  0.50000000  0.50000000  0.00000000  1
  V  V2  1  0.00000000  0.50000000  0.50000000  1
  Ni  Ni0  1  0.00000000  0.00000000  0.00000000  1
  O  O0  1  0.74542600  0.74542600  0.74542600  1
  O  O1  1  0.24899100  0.73243900  0.24899100  1
  O  O2  1  0.24899100  0.24899100  0.73243900  1
  O  O3  1  0.25457400  0.25457400  0.25457400  1
  O  O4  1  0.73243900  0.24899100  0.24899100  1
  O  O5  1  0.75100900  0.26756100  0.75100900  1
  O  O6  1  0.75100900  0.75100900  0.26756100  1
  O  O7  1  0.26756100  0.75100900  0.75100900  1
loop_
_geom_bond_atom_site_label_1
_geom_bond_atom_site_label_2
_geom_bond_distance
_geom_bond_site_symmetry_2
Li0 O1 2.087627 1_555
Li0 O7 2.087627 1_555
Li0 O5 2.087627 1_555
Li0 O4 2.087627 1_555
Li0 O6 2.087627 1_555
Li0 O2 2.087627 1_555
Li1 O0 2.113436 1_454
Li1 O3 2.113436 1_555
Li1 O2 2.153399 1_554
Li1 O6 2.153399 1_455
Li1 O4 2.153399 1_455
Li1 O7 2.153399 1_554
Li2 O0 2.113436 1_445
Li2 O3 2.113436 1_555
Li2 O5 2.153399 1_455
Li2 O7 2.153399 1_545
Li2 O1 2.153399 1_545
Li2 O4 2.153399 1_455
Li3 O0 2.113436 1_544
Li3 O3 2.113436 1_555
Li3 O6 2.153399 1_545
Li3 O2 2.153399 1_554
Li3 O5 2.153399 1_554
Li3 O1 2.153399 1_545
Ni0 O2 2.064800 1_554
Ni0 O6 2.064800 1_445
Ni0 O1 2.064800 1_545
Ni0 O4 2.064800 1_455
Ni0 O5 2.064800 1_454
Ni0 O7 2.064800 1_544
O0 V1 2.034580 1_556
O0 V2 2.034580 1_655
O0 V0 2.034580 1_565
O1 V2 1.996110 1_555
O1 V1 1.996110 1_555
O2 V2 1.996110 1_555
O2 V0 1.996110 1_555
O3 V1 2.034580 1_555
O3 V2 2.034580 1_555
O3 V0 2.034580 1_555
O4 V0 1.996110 1_555
O4 V1 1.996110 1_555
O5 V2 1.996110 1_655
O5 V1 1.996110 1_556
O6 V2 1.996110 1_655
O6 V0 1.996110 1_565
O7 V0 1.996110 1_565
O7 V1 1.996110 1_556
