# generated using pymatgen
data_TbCO3
_symmetry_space_group_name_H-M   'P 1'
_cell_length_a   4.89193700
_cell_length_b   5.31901100
_cell_length_c   8.06875516
_cell_angle_alpha   89.87514400
_cell_angle_beta   90.00000000
_cell_angle_gamma   90.00000000
_symmetry_Int_Tables_number   1
_chemical_formula_structural   TbCO3
_chemical_formula_sum   'Tb4 C4 O12'
_cell_volume   209.95066277
_cell_formula_units_Z   4
loop_
 _symmetry_equiv_pos_site_id
 _symmetry_equiv_pos_as_xyz
  1  'x, y, z'
loop_
 _atom_site_type_symbol
 _atom_site_label
 _atom_site_symmetry_multiplicity
 _atom_site_fract_x
 _atom_site_fract_y
 _atom_site_fract_z
 _atom_site_occupancy
  Tb  Tb0  1  0.25000000  0.24334100  0.90002000  1
  Tb  Tb1  1  0.75000000  0.25025900  0.43261000  1
  Tb  Tb2  1  0.25000000  0.74974100  0.56739000  1
  Tb  Tb3  1  0.75000000  0.75665900  0.09998000  1
  C  C0  1  0.25000000  0.19311100  0.25199400  1
  C  C1  1  0.75000000  0.50849300  0.75489200  1
  C  C2  1  0.25000000  0.49150700  0.24510800  1
  C  C3  1  0.75000000  0.80688900  0.74800600  1
  O  O0  1  0.48588000  0.11241800  0.17303200  1
  O  O1  1  0.01412000  0.11241800  0.17303200  1
  O  O2  1  0.25000000  0.12401200  0.42186600  1
  O  O3  1  0.75000000  0.42249300  0.91687700  1
  O  O4  1  0.51588700  0.41800400  0.67202300  1
  O  O5  1  0.98411300  0.41800400  0.67202300  1
  O  O6  1  0.01588700  0.58199600  0.32797700  1
  O  O7  1  0.48411300  0.58199600  0.32797700  1
  O  O8  1  0.25000000  0.57750700  0.08312300  1
  O  O9  1  0.75000000  0.87598800  0.57813400  1
  O  O10  1  0.98588000  0.88758200  0.82696800  1
  O  O11  1  0.51412000  0.88758200  0.82696800  1
loop_
_geom_bond_atom_site_label_1
_geom_bond_atom_site_label_2
_geom_bond_distance
_geom_bond_site_symmetry_2
C0 O0 1.386668 1_555
C0 O1 1.386668 1_555
C0 O2 1.418304 1_555
C1 O3 1.383812 1_555
C1 O5 1.411308 1_555
C1 O4 1.411308 1_555
C2 O8 1.383812 1_555
C2 O7 1.411308 1_555
C2 O6 1.411308 1_555
C3 O11 1.386668 1_555
C3 O10 1.386668 1_555
C3 O9 1.418304 1_555
O0 Tb3 2.366952 1_545
O0 Tb1 2.569137 1_555
O0 Tb0 2.581161 1_554
O1 Tb3 2.366952 1_445
O1 Tb1 2.569137 1_455
O1 Tb0 2.581161 1_554
O2 Tb2 2.309035 1_545
O2 Tb1 2.538002 1_555
O2 Tb1 2.538002 1_455
O3 Tb3 2.313755 1_556
O3 Tb0 2.628663 1_655
O3 Tb0 2.628663 1_555
O4 Tb2 2.347682 1_555
O4 Tb1 2.418047 1_555
O4 Tb0 2.435529 1_555
O5 Tb2 2.347682 1_655
O5 Tb1 2.418047 1_555
O5 Tb0 2.435529 1_655
O6 Tb1 2.347682 1_455
O6 Tb2 2.418047 1_555
O6 Tb3 2.435529 1_455
O7 Tb1 2.347682 1_555
O7 Tb2 2.418047 1_555
O7 Tb3 2.435529 1_555
O8 Tb0 2.313755 1_554
O8 Tb3 2.628663 1_555
O8 Tb3 2.628663 1_455
O9 Tb1 2.309035 1_565
O9 Tb2 2.538002 1_555
O9 Tb2 2.538002 1_655
O10 Tb0 2.366952 1_665
O10 Tb2 2.569137 1_655
O10 Tb3 2.581161 1_556
O11 Tb0 2.366952 1_565
O11 Tb2 2.569137 1_555
O11 Tb3 2.581161 1_556
