# generated using pymatgen
data_MnBO3
_symmetry_space_group_name_H-M   'P 1'
_cell_length_a   5.66533687
_cell_length_b   5.66534183
_cell_length_c   5.66533696
_cell_angle_alpha   48.97987158
_cell_angle_beta   48.97983222
_cell_angle_gamma   48.97986325
_symmetry_Int_Tables_number   1
_chemical_formula_structural   MnBO3
_chemical_formula_sum   'Mn2 B2 O6'
_cell_volume   95.03448356
_cell_formula_units_Z   2
loop_
 _symmetry_equiv_pos_site_id
 _symmetry_equiv_pos_as_xyz
  1  'x, y, z'
loop_
 _atom_site_type_symbol
 _atom_site_label
 _atom_site_symmetry_multiplicity
 _atom_site_fract_x
 _atom_site_fract_y
 _atom_site_fract_z
 _atom_site_occupancy
  Mn  Mn0  1  0.00000000  0.00000000  0.00000000  1
  Mn  Mn1  1  0.50000000  0.50000000  0.50000000  1
  B  B0  1  0.24999800  0.24999800  0.24999800  1
  B  B1  1  0.75000200  0.75000200  0.75000200  1
  O  O0  1  0.25000900  0.95472200  0.54526200  1
  O  O1  1  0.04527900  0.45473900  0.74999100  1
  O  O2  1  0.45473900  0.74999100  0.04527800  1
  O  O3  1  0.54526100  0.25000900  0.95472200  1
  O  O4  1  0.95472100  0.54526100  0.25000900  1
  O  O5  1  0.74999100  0.04527800  0.45473800  1
loop_
_geom_bond_atom_site_label_1
_geom_bond_atom_site_label_2
_geom_bond_distance
_geom_bond_site_symmetry_2
Mn0 O0 2.075988 1_544
Mn0 O5 2.075988 1_455
Mn0 O2 2.075993 1_545
Mn0 O3 2.075993 1_454
Mn0 O1 2.075998 1_554
Mn0 O4 2.075998 1_445
Mn1 O4 2.075878 1_555
Mn1 O1 2.075878 1_555
Mn1 O3 2.075884 1_555
Mn1 O2 2.075884 1_555
Mn1 O0 2.075888 1_555
Mn1 O5 2.075888 1_555
B0 O3 1.386863 1_554
B0 O4 1.386867 1_455
B0 O0 1.386867 1_545
B1 O2 1.386863 1_556
B1 O1 1.386867 1_655
B1 O5 1.386867 1_565
