# generated using pymatgen
data_LiMn3(BO3)3
_symmetry_space_group_name_H-M   'P 1'
_cell_length_a   6.18527400
_cell_length_b   7.72057720
_cell_length_c   9.05710046
_cell_angle_alpha   111.13770730
_cell_angle_beta   107.64849124
_cell_angle_gamma   97.56620771
_symmetry_Int_Tables_number   1
_chemical_formula_structural   LiMn3(BO3)3
_chemical_formula_sum   'Li2 Mn6 B6 O18'
_cell_volume   370.02269243
_cell_formula_units_Z   2
loop_
 _symmetry_equiv_pos_site_id
 _symmetry_equiv_pos_as_xyz
  1  'x, y, z'
loop_
 _atom_site_type_symbol
 _atom_site_label
 _atom_site_symmetry_multiplicity
 _atom_site_fract_x
 _atom_site_fract_y
 _atom_site_fract_z
 _atom_site_occupancy
  Li  Li0  1  0.33484200  0.00410400  0.38933200  1
  Li  Li1  1  0.66375700  0.33425400  0.05824300  1
  Mn  Mn0  1  0.34982700  0.60542200  0.59880100  1
  Mn  Mn1  1  0.30046800  0.03446200  0.72735300  1
  Mn  Mn2  1  0.03737900  0.28134300  0.93673400  1
  Mn  Mn3  1  0.96843000  0.70477300  0.04086800  1
  Mn  Mn4  1  0.71583200  0.96167500  0.27029900  1
  Mn  Mn5  1  0.64731400  0.40038100  0.40829800  1
  B  B0  1  0.70790400  0.96133600  0.94012500  1
  B  B1  1  0.59736800  0.36079500  0.72210900  1
  B  B2  1  0.96165000  0.69295400  0.37708800  1
  B  B3  1  0.05126100  0.30135800  0.61745200  1
  B  B4  1  0.37711200  0.64233500  0.27732800  1
  B  B5  1  0.29785900  0.04181500  0.06421400  1
  O  O0  1  0.53316700  0.89382600  0.77649400  1
  O  O1  1  0.38623900  0.52064500  0.36505800  1
  O  O2  1  0.84204700  0.14555800  0.02740700  1
  O  O3  1  0.33371100  0.15558400  0.97653200  1
  O  O4  1  0.74596700  0.42823800  0.89186600  1
  O  O5  1  0.11730000  0.74560300  0.54431900  1
  O  O6  1  0.45659400  0.17662500  0.62781500  1
  O  O7  1  0.79035800  0.52071000  0.28995600  1
  O  O8  1  0.99360100  0.81962000  0.30387700  1
  O  O9  1  0.04929300  0.16595400  0.68776500  1
  O  O10  1  0.21384500  0.47532400  0.70703300  1
  O  O11  1  0.51915100  0.82175100  0.35796600  1
  O  O12  1  0.87385400  0.25225300  0.45983200  1
  O  O13  1  0.20233400  0.56787700  0.11290100  1
  O  O14  1  0.71890100  0.83263200  0.01700100  1
  O  O15  1  0.14128400  0.86495400  0.97296400  1
  O  O16  1  0.61055300  0.48257700  0.63765000  1
  O  O17  1  0.43428900  0.11378000  0.23679700  1
loop_
_geom_bond_atom_site_label_1
_geom_bond_atom_site_label_2
_geom_bond_distance
_geom_bond_site_symmetry_2
Li0 O6 1.918669 1_555
Li0 O11 1.921713 1_545
Li0 O17 2.055671 1_555
Li0 O8 2.122585 1_445
Li1 O7 1.902000 1_555
Li1 O2 1.932066 1_555
Li1 O4 2.052278 1_554
Li1 O3 2.055245 1_554
Mn0 O10 1.914370 1_555
Mn0 O5 1.961661 1_555
Mn0 O16 1.980761 1_555
Mn0 O1 2.071116 1_555
Mn0 O0 2.116115 1_555
Mn1 O0 1.954558 1_545
Mn1 O6 1.977974 1_555
Mn1 O9 1.978108 1_555
Mn1 O3 2.038619 1_555
Mn1 O5 2.129491 1_545
Mn2 O2 2.030306 1_456
Mn2 O13 2.086498 1_556
Mn2 O9 2.133785 1_555
Mn2 O3 2.180045 1_555
Mn2 O4 2.264246 1_455
Mn3 O15 1.910439 1_654
Mn3 O14 1.938067 1_555
Mn3 O13 1.990853 1_655
Mn3 O4 2.072493 1_554
Mn3 O8 2.168011 1_555
Mn4 O11 2.033634 1_555
Mn4 O12 2.136065 1_565
Mn4 O14 2.153832 1_555
Mn4 O8 2.160344 1_555
Mn4 O17 2.231328 1_565
Mn5 O7 1.967591 1_555
Mn5 O1 1.974029 1_555
Mn5 O12 1.974732 1_555
Mn5 O16 2.035460 1_555
Mn5 O17 2.134801 1_555
B0 O2 1.347921 1_566
B0 O0 1.399815 1_555
B0 O14 1.401739 1_556
B1 O6 1.362562 1_555
B1 O4 1.385476 1_555
B1 O16 1.418517 1_555
B2 O7 1.370704 1_555
B2 O8 1.389721 1_555
B2 O5 1.398186 1_655
B3 O10 1.355423 1_555
B3 O12 1.391424 1_455
B3 O9 1.407144 1_555
B4 O11 1.335978 1_555
B4 O13 1.399880 1_555
B4 O1 1.429129 1_555
B5 O15 1.355724 1_544
B5 O17 1.383637 1_555
B5 O3 1.417722 1_554
