# generated using pymatgen
data_BaP4PtO14
_symmetry_space_group_name_H-M   'P 1'
_cell_length_a   21.15497500
_cell_length_b   8.32046900
_cell_length_c   9.55309662
_cell_angle_alpha   89.16452085
_cell_angle_beta   90.00000000
_cell_angle_gamma   90.00000000
_symmetry_Int_Tables_number   1
_chemical_formula_structural   BaP4PtO14
_chemical_formula_sum   'Ba4 P16 Pt4 O56'
_cell_volume   1681.35074187
_cell_formula_units_Z   4
loop_
 _symmetry_equiv_pos_site_id
 _symmetry_equiv_pos_as_xyz
  1  'x, y, z'
loop_
 _atom_site_type_symbol
 _atom_site_label
 _atom_site_symmetry_multiplicity
 _atom_site_fract_x
 _atom_site_fract_y
 _atom_site_fract_z
 _atom_site_occupancy
  Ba  Ba0  1  0.41213500  0.18671000  0.51365400  1
  Ba  Ba1  1  0.91213500  0.31329000  0.48634600  1
  Ba  Ba2  1  0.58786500  0.81329000  0.48634600  1
  Ba  Ba3  1  0.08786500  0.68671000  0.51365400  1
  P  P0  1  0.62827700  0.25509700  0.22204900  1
  P  P1  1  0.12827700  0.24490300  0.77795100  1
  P  P2  1  0.37172300  0.74490300  0.77795100  1
  P  P3  1  0.87172300  0.75509700  0.22204900  1
  P  P4  1  0.56571900  0.15160000  0.73614200  1
  P  P5  1  0.06571900  0.34840000  0.26385800  1
  P  P6  1  0.43428100  0.84840000  0.26385800  1
  P  P7  1  0.93428100  0.65160000  0.73614200  1
  P  P8  1  0.37457200  0.41031600  0.87300100  1
  P  P9  1  0.87457200  0.08968400  0.12699900  1
  P  P10  1  0.62542800  0.58968400  0.12699900  1
  P  P11  1  0.12542800  0.91031600  0.87300100  1
  P  P12  1  0.41429700  0.47852300  0.23854500  1
  P  P13  1  0.91429700  0.02147700  0.76145500  1
  P  P14  1  0.58570300  0.52147700  0.76145500  1
  P  P15  1  0.08570300  0.97852300  0.23854500  1
  Pt  Pt0  1  0.45490500  0.40257700  0.02471600  1
  Pt  Pt1  1  0.95490500  0.09742300  0.97528400  1
  Pt  Pt2  1  0.54509500  0.59742300  0.97528400  1
  Pt  Pt3  1  0.04509500  0.90257700  0.02471600  1
  O  O0  1  0.65241700  0.40063100  0.12458200  1
  O  O1  1  0.15241700  0.09936900  0.87541800  1
  O  O2  1  0.34758300  0.59936900  0.87541800  1
  O  O3  1  0.84758300  0.90063100  0.12458200  1
  O  O4  1  0.55729000  0.34449000  0.73647300  1
  O  O5  1  0.05729000  0.15551000  0.26352700  1
  O  O6  1  0.44271000  0.65551000  0.26352700  1
  O  O7  1  0.94271000  0.84449000  0.73647300  1
  O  O8  1  0.59115200  0.30118500  0.34452800  1
  O  O9  1  0.09115200  0.19881500  0.65547200  1
  O  O10  1  0.40884800  0.69881500  0.65547200  1
  O  O11  1  0.90884800  0.80118500  0.34452800  1
  O  O12  1  0.64888000  0.09773100  0.17252600  1
  O  O13  1  0.14888000  0.40226900  0.82747400  1
  O  O14  1  0.35112000  0.90226900  0.82747400  1
  O  O15  1  0.85112000  0.59773100  0.17252600  1
  O  O16  1  0.59444400  0.08158600  0.86252900  1
  O  O17  1  0.09444400  0.41841400  0.13747100  1
  O  O18  1  0.40555600  0.91841400  0.13747100  1
  O  O19  1  0.90555600  0.58158600  0.86252900  1
  O  O20  1  0.50620700  0.09190300  0.66693600  1
  O  O21  1  0.00620700  0.40809700  0.33306400  1
  O  O22  1  0.49379300  0.90809700  0.33306400  1
  O  O23  1  0.99379300  0.59190300  0.66693600  1
  O  O24  1  0.38460800  0.36183100  0.72451300  1
  O  O25  1  0.88460800  0.13816900  0.27548700  1
  O  O26  1  0.61539200  0.63816900  0.27548700  1
  O  O27  1  0.11539200  0.86183100  0.72451300  1
  O  O28  1  0.34056600  0.30734000  0.97871400  1
  O  O29  1  0.84056600  0.19266000  0.02128600  1
  O  O30  1  0.65943400  0.69266000  0.02128600  1
  O  O31  1  0.15943400  0.80734000  0.97871400  1
  O  O32  1  0.34577400  0.46201200  0.26487800  1
  O  O33  1  0.84577400  0.03798800  0.73512200  1
  O  O34  1  0.65422600  0.53798800  0.73512200  1
  O  O35  1  0.15422600  0.96201200  0.26487800  1
  O  O36  1  0.46080500  0.36343800  0.30901200  1
  O  O37  1  0.96080500  0.13656200  0.69098800  1
  O  O38  1  0.53919500  0.63656200  0.69098800  1
  O  O39  1  0.03919500  0.86343800  0.30901200  1
  O  O40  1  0.28264600  0.58838800  0.53564400  1
  O  O41  1  0.78264600  0.91161200  0.46435600  1
  O  O42  1  0.71735400  0.41161200  0.46435600  1
  O  O43  1  0.21735400  0.08838800  0.53564400  1
  O  O44  1  0.24798000  0.02050700  0.62920700  1
  O  O45  1  0.74798000  0.47949300  0.37079300  1
  O  O46  1  0.75202000  0.97949300  0.37079300  1
  O  O47  1  0.25202000  0.52050700  0.62920700  1
  O  O48  1  0.32275400  0.88880000  0.38978000  1
  O  O49  1  0.82275400  0.61120000  0.61022000  1
  O  O50  1  0.67724600  0.11120000  0.61022000  1
  O  O51  1  0.17724600  0.38880000  0.38978000  1
  O  O52  1  0.38584700  0.88156900  0.40962600  1
  O  O53  1  0.88584700  0.61843100  0.59037400  1
  O  O54  1  0.61415300  0.11843100  0.59037400  1
  O  O55  1  0.11415300  0.38156900  0.40962600  1
loop_
_geom_bond_atom_site_label_1
_geom_bond_atom_site_label_2
_geom_bond_distance
_geom_bond_site_symmetry_2
Ba0 O24 2.570106 1_555
Ba0 O20 2.587135 1_555
Ba0 O36 2.638258 1_555
Ba0 O52 2.795812 1_545
Ba1 O25 2.570106 1_555
Ba1 O21 2.587135 1_655
Ba1 O37 2.638258 1_555
Ba1 O53 2.795812 1_555
Ba2 O26 2.570106 1_555
Ba2 O22 2.587135 1_555
Ba2 O38 2.638258 1_555
Ba2 O54 2.795812 1_565
Ba3 O27 2.570106 1_555
Ba3 O23 2.587135 1_455
Ba3 O39 2.638258 1_555
Ba3 O55 2.795812 1_555
P8 Pt0 2.233862 1_556
P9 Pt1 2.233862 1_554
P10 Pt2 2.233862 1_554
P11 Pt3 2.233862 1_556
P12 Pt0 2.312505 1_555
P13 Pt1 2.312505 1_555
P14 Pt2 2.312505 1_555
P15 Pt3 2.312505 1_555
Pt0 Pt2 2.543489 1_554
Pt1 Pt3 2.543489 1_646
O0 P0 1.600372 1_555
O0 P10 1.673899 1_555
O1 P1 1.600372 1_555
O1 P11 1.673899 1_545
O2 P2 1.600372 1_555
O2 P8 1.673899 1_555
O3 P3 1.600372 1_555
O3 P9 1.673899 1_565
O4 P14 1.611550 1_555
O4 P4 1.614860 1_555
O5 P15 1.611550 1_545
O5 P5 1.614860 1_555
O6 P12 1.611550 1_555
O6 P6 1.614860 1_555
O7 P13 1.611550 1_565
O7 P7 1.614860 1_555
O8 P0 1.464917 1_555
O9 P1 1.464917 1_555
O10 P2 1.464917 1_555
O11 P3 1.464917 1_555
O12 P0 1.465018 1_555
O13 P1 1.465018 1_555
O14 P2 1.465018 1_555
O15 P3 1.465018 1_555
O16 P4 1.464891 1_555
O17 P5 1.464891 1_555
O18 P6 1.464891 1_555
O19 P7 1.464891 1_555
O20 P4 1.509439 1_555
O21 P5 1.509439 1_555
O22 P6 1.509439 1_555
O23 P7 1.509439 1_555
O24 P8 1.495564 1_555
O25 P9 1.495564 1_555
O26 P10 1.495564 1_555
O27 P11 1.495564 1_555
O28 P8 1.498762 1_555
O28 Pt0 2.584954 1_556
O29 P9 1.498762 1_555
O29 Pt1 2.584954 1_554
O30 P10 1.498762 1_555
O30 Pt2 2.584954 1_554
O31 P11 1.498762 1_555
O31 Pt3 2.584954 1_556
O32 P12 1.477327 1_555
O33 P13 1.477327 1_555
O34 P14 1.477327 1_555
O35 P15 1.477327 1_555
O36 P12 1.522926 1_555
O36 Pt0 2.733494 1_555
O37 P13 1.522926 1_555
O37 Pt1 2.733494 1_555
O38 P14 1.522926 1_555
O38 Pt2 2.733494 1_555
O39 P15 1.522926 1_555
O39 Pt3 2.733494 1_555
O40 O47 1.234079 1_555
O41 O46 1.234079 1_555
O42 O45 1.234079 1_555
O43 O44 1.234079 1_555
O48 O52 1.349347 1_555
O49 O53 1.349347 1_555
O50 O54 1.349347 1_555
O51 O55 1.349347 1_555
O52 P6 1.753960 1_555
O53 P7 1.753960 1_555
O54 P4 1.753960 1_555
O55 P5 1.753960 1_555
