# generated using pymatgen
data_Li6V3Ni(PO4)6
_symmetry_space_group_name_H-M   'P 1'
_cell_length_a   8.50818300
_cell_length_b   8.52907853
_cell_length_c   8.56631521
_cell_angle_alpha   62.06990599
_cell_angle_beta   62.05328126
_cell_angle_gamma   62.31360544
_symmetry_Int_Tables_number   1
_chemical_formula_structural   Li6V3Ni(PO4)6
_chemical_formula_sum   'Li6 V3 Ni1 P6 O24'
_cell_volume   460.62712010
_cell_formula_units_Z   1
loop_
 _symmetry_equiv_pos_site_id
 _symmetry_equiv_pos_as_xyz
  1  'x, y, z'
loop_
 _atom_site_type_symbol
 _atom_site_label
 _atom_site_symmetry_multiplicity
 _atom_site_fract_x
 _atom_site_fract_y
 _atom_site_fract_z
 _atom_site_occupancy
  Li  Li0  1  0.98233600  0.01257900  0.00151200  1
  Li  Li1  1  0.23618000  0.65235700  0.85850900  1
  Li  Li2  1  0.51950300  0.50458600  0.48529600  1
  Li  Li3  1  0.79042600  0.33662800  0.14739200  1
  Li  Li4  1  0.33057000  0.14900800  0.79488300  1
  Li  Li5  1  0.15202900  0.79086700  0.33102000  1
  V  V0  1  0.85939900  0.86290000  0.85751000  1
  V  V1  1  0.64192900  0.64563200  0.63636500  1
  V  V2  1  0.35667200  0.35539900  0.35345300  1
  Ni  Ni0  1  0.14542100  0.14675900  0.14932000  1
  P  P0  1  0.94972400  0.54753100  0.25036200  1
  P  P1  1  0.54988600  0.25122200  0.94640100  1
  P  P2  1  0.25050900  0.94917400  0.54536600  1
  P  P3  1  0.74904000  0.04047800  0.45797200  1
  P  P4  1  0.45608700  0.75015100  0.03528800  1
  P  P5  1  0.04313100  0.46224800  0.74944700  1
  O  O0  1  0.87928500  0.52589100  0.67960200  1
  O  O1  1  0.66994200  0.88474200  0.51039800  1
  O  O2  1  0.95666000  0.73039600  0.08285500  1
  O  O3  1  0.48264800  0.68207300  0.88225800  1
  O  O4  1  0.75620300  0.58176600  0.40647000  1
  O  O5  1  0.96510600  0.38944200  0.19971600  1
  O  O6  1  0.73822300  0.09102100  0.93484900  1
  O  O7  1  0.57281300  0.41595900  0.75571000  1
  O  O8  1  0.40569200  0.75088800  0.57729900  1
  O  O9  1  0.80351500  0.00769000  0.61760900  1
  O  O10  1  0.91374700  0.03833700  0.27116300  1
  O  O11  1  0.62763200  0.79255400  0.99585700  1
  O  O12  1  0.38737400  0.20192300  0.96737300  1
  O  O13  1  0.09807300  0.93060900  0.74128300  1
  O  O14  1  0.19329900  0.96825900  0.39130200  1
  O  O15  1  0.60182100  0.24023300  0.41844600  1
  O  O16  1  0.42027100  0.60252600  0.23541900  1
  O  O17  1  0.27222700  0.91936000  0.04093800  1
  O  O18  1  0.03051400  0.61834600  0.80201900  1
  O  O19  1  0.24004500  0.41804700  0.60075900  1
  O  O20  1  0.50887100  0.31398800  0.10663000  1
  O  O21  1  0.03548600  0.27729000  0.91607200  1
  O  O22  1  0.31492400  0.10839900  0.50282600  1
  O  O23  1  0.11278600  0.50174100  0.31405300  1
loop_
_geom_bond_atom_site_label_1
_geom_bond_atom_site_label_2
_geom_bond_distance
_geom_bond_site_symmetry_2
Li0 O6 2.133070 1_554
Li0 O10 2.194836 1_555
Li0 O21 2.219934 1_654
Li0 O2 2.258456 1_545
Li0 O13 2.278275 1_644
Li0 O17 2.352977 1_645
Li1 O13 2.074469 1_555
Li1 O8 2.136041 1_555
Li1 O18 2.185668 1_555
Li1 O2 2.288166 1_456
Li1 O3 2.333468 1_555
Li2 O4 2.118001 1_555
Li2 O8 2.217484 1_555
Li2 O7 2.273528 1_555
Li2 O15 2.295271 1_555
Li2 O16 2.314291 1_555
Li2 O19 2.432917 1_555
Li3 O5 2.012033 1_555
Li3 O15 2.141878 1_555
Li3 O21 2.148572 1_654
Li3 O10 2.175526 1_555
Li4 O12 2.029120 1_555
Li4 O17 2.140306 1_546
Li4 O19 2.146508 1_555
Li4 O21 2.155589 1_555
Li5 O14 2.018575 1_555
Li5 O17 2.128428 1_555
Li5 O16 2.129200 1_555
Li5 O10 2.193662 1_465
Ni0 O14 2.009835 1_545
Ni0 O5 2.022319 1_455
Ni0 O12 2.023392 1_554
Ni0 O17 2.142703 1_545
Ni0 O10 2.165914 1_455
Ni0 O21 2.192447 1_554
O0 P5 1.539580 1_655
O0 V1 1.920578 1_555
O1 P3 1.551613 1_565
O1 V1 1.878667 1_555
O2 P0 1.550701 1_555
O2 V0 2.067090 1_554
O3 P4 1.555676 1_556
O3 V1 1.978978 1_555
O4 P0 1.561987 1_555
O4 V1 1.959202 1_555
O5 P0 1.534345 1_555
O6 P1 1.545281 1_555
O6 V0 1.997679 1_545
O7 P1 1.576877 1_555
O7 V1 1.964473 1_555
O8 P2 1.583793 1_555
O8 V1 1.988158 1_555
O9 P3 1.509457 1_555
O9 V0 1.991785 1_545
O10 P3 1.557768 1_555
O11 P4 1.512985 1_556
O11 V0 1.973788 1_555
O12 P1 1.535431 1_555
O13 P2 1.557406 1_555
O13 V0 2.025965 1_455
O14 P2 1.527232 1_555
O15 P3 1.568530 1_555
O15 V2 2.073052 1_555
O16 P4 1.569095 1_555
O16 V2 2.075667 1_555
O17 P4 1.558458 1_555
O18 P5 1.539625 1_555
O18 V0 2.038248 1_455
O19 P5 1.560162 1_555
O19 V2 2.086996 1_555
O20 P1 1.535614 1_554
O20 V2 1.995097 1_555
O21 P5 1.558569 1_555
O22 P2 1.522588 1_545
O22 V2 1.986375 1_555
O23 P0 1.543159 1_455
O23 V2 1.957700 1_555
