# generated using pymatgen
data_LiFe4(PO4)3
_symmetry_space_group_name_H-M   'P 1'
_cell_length_a   7.65280300
_cell_length_b   7.90435071
_cell_length_c   9.64457662
_cell_angle_alpha   110.47495938
_cell_angle_beta   110.67758233
_cell_angle_gamma   94.95532809
_symmetry_Int_Tables_number   1
_chemical_formula_structural   LiFe4(PO4)3
_chemical_formula_sum   'Li2 Fe8 P6 O24'
_cell_volume   496.46184581
_cell_formula_units_Z   2
loop_
 _symmetry_equiv_pos_site_id
 _symmetry_equiv_pos_as_xyz
  1  'x, y, z'
loop_
 _atom_site_type_symbol
 _atom_site_label
 _atom_site_symmetry_multiplicity
 _atom_site_fract_x
 _atom_site_fract_y
 _atom_site_fract_z
 _atom_site_occupancy
  Li  Li0  1  0.38654500  0.15155700  0.41778300  1
  Li  Li1  1  0.61345500  0.84844300  0.58221700  1
  Fe  Fe0  1  0.00564100  0.78774600  0.44861100  1
  Fe  Fe1  1  0.27509800  0.91235700  0.92273900  1
  Fe  Fe2  1  0.28693900  0.53620400  0.93261200  1
  Fe  Fe3  1  0.28984800  0.58914500  0.28577900  1
  Fe  Fe4  1  0.71015200  0.41085500  0.71422100  1
  Fe  Fe5  1  0.71306100  0.46379600  0.06738800  1
  Fe  Fe6  1  0.72490200  0.08764300  0.07726100  1
  Fe  Fe7  1  0.99435900  0.21225400  0.55138900  1
  P  P0  1  0.01447900  0.23842000  0.92415500  1
  P  P1  1  0.31072900  0.55126800  0.60915400  1
  P  P2  1  0.40570700  0.13256000  0.74274400  1
  P  P3  1  0.59429300  0.86744000  0.25725600  1
  P  P4  1  0.68927100  0.44873200  0.39084600  1
  P  P5  1  0.98552100  0.76158000  0.07584500  1
  O  O0  1  0.14588500  0.75516300  0.01374000  1
  O  O1  1  0.07479400  0.05478100  0.89442900  1
  O  O2  1  0.18891900  0.04745000  0.62360100  1
  O  O3  1  0.25258600  0.63490700  0.75637700  1
  O  O4  1  0.20571300  0.34077900  0.51396900  1
  O  O5  1  0.05431100  0.72543800  0.23537700  1
  O  O6  1  0.43868200  0.33721500  0.86338800  1
  O  O7  1  0.24079600  0.65682000  0.49647500  1
  O  O8  1  0.47054600  0.01572100  0.84535700  1
  O  O9  1  0.18837300  0.40768300  0.04979800  1
  O  O10  1  0.52949300  0.58260300  0.66620100  1
  O  O11  1  0.52752000  0.13585000  0.64422400  1
  O  O12  1  0.47248000  0.86415000  0.35577600  1
  O  O13  1  0.47050700  0.41739700  0.33379900  1
  O  O14  1  0.81162700  0.59231700  0.95020200  1
  O  O15  1  0.52945400  0.98427900  0.15464300  1
  O  O16  1  0.75920400  0.34318000  0.50352500  1
  O  O17  1  0.56131800  0.66278500  0.13661200  1
  O  O18  1  0.94568900  0.27456200  0.76462300  1
  O  O19  1  0.79428700  0.65922100  0.48603100  1
  O  O20  1  0.74741400  0.36509300  0.24362300  1
  O  O21  1  0.81108100  0.95255000  0.37639900  1
  O  O22  1  0.92520600  0.94521900  0.10557100  1
  O  O23  1  0.85411500  0.24483700  0.98626000  1
loop_
_geom_bond_atom_site_label_1
_geom_bond_atom_site_label_2
_geom_bond_distance
_geom_bond_site_symmetry_2
Li0 O11 2.120793 1_555
Li0 O4 2.303529 1_555
Li0 O12 2.352965 1_545
Li0 O13 2.609485 1_555
Li1 O12 2.120793 1_555
Li1 O19 2.303529 1_555
Li1 O11 2.352965 1_565
Li1 O10 2.609485 1_555
Fe0 O19 2.040425 1_455
Fe0 O2 2.106340 1_565
Fe0 O5 2.115359 1_555
Fe0 O7 2.142873 1_555
Fe0 O21 2.153222 1_455
Fe1 O1 1.977179 1_565
Fe1 O0 2.110810 1_556
Fe1 O8 2.113178 1_565
Fe1 O3 2.165965 1_555
Fe1 O15 2.226948 1_556
Fe2 O9 2.037469 1_556
Fe2 O3 2.052902 1_555
Fe2 O6 2.096815 1_555
Fe2 O17 2.150213 1_556
Fe2 O0 2.178237 1_556
Fe3 O9 2.028757 1_555
Fe3 O13 2.069009 1_555
Fe3 O7 2.090291 1_555
Fe3 O5 2.174628 1_555
Fe3 O12 2.217308 1_555
Fe4 O14 2.028757 1_555
Fe4 O10 2.069009 1_555
Fe4 O16 2.090291 1_555
Fe4 O18 2.174628 1_555
Fe4 O11 2.217308 1_555
Fe5 O14 2.037469 1_554
Fe5 O20 2.052902 1_555
Fe5 O17 2.096815 1_555
Fe5 O6 2.150213 1_554
Fe5 O23 2.178237 1_554
Fe6 O22 1.977179 1_545
Fe6 O23 2.110810 1_554
Fe6 O15 2.113178 1_545
Fe6 O20 2.165965 1_555
Fe6 O8 2.226948 1_554
Fe7 O4 2.040425 1_655
Fe7 O21 2.106340 1_545
Fe7 O18 2.115359 1_555
Fe7 O16 2.142873 1_555
Fe7 O2 2.153222 1_655
O0 P5 1.541453 1_455
O1 P0 1.523254 1_555
O2 P2 1.563788 1_555
O3 P1 1.578438 1_555
O4 P1 1.560839 1_555
O5 P5 1.577200 1_455
O6 P2 1.561951 1_555
O7 P1 1.569788 1_555
O8 P2 1.565358 1_555
O9 P0 1.564839 1_554
O10 P1 1.532771 1_555
O11 P2 1.552800 1_555
O12 P3 1.552800 1_555
O13 P4 1.532771 1_555
O14 P5 1.564839 1_556
O15 P3 1.565358 1_555
O16 P4 1.569788 1_555
O17 P3 1.561951 1_555
O18 P0 1.577200 1_655
O19 P4 1.560839 1_555
O20 P4 1.578438 1_555
O21 P3 1.563788 1_555
O22 P5 1.523254 1_555
O23 P0 1.541453 1_655
