# generated using pymatgen
data_Ba2Y7Cl25
_symmetry_space_group_name_H-M   'P 1'
_cell_length_a   9.37255300
_cell_length_b   7.46252100
_cell_length_c   39.97285537
_cell_angle_alpha   80.11999019
_cell_angle_beta   90.00000000
_cell_angle_gamma   90.00000000
_symmetry_Int_Tables_number   1
_chemical_formula_structural   Ba2Y7Cl25
_chemical_formula_sum   'Ba4 Y14 Cl50'
_cell_volume   2754.35232022
_cell_formula_units_Z   2
loop_
 _symmetry_equiv_pos_site_id
 _symmetry_equiv_pos_as_xyz
  1  'x, y, z'
loop_
 _atom_site_type_symbol
 _atom_site_label
 _atom_site_symmetry_multiplicity
 _atom_site_fract_x
 _atom_site_fract_y
 _atom_site_fract_z
 _atom_site_occupancy
  Ba  Ba0  1  0.31699000  0.81075300  0.71534200  1
  Ba  Ba1  1  0.81699000  0.18924700  0.78465800  1
  Ba  Ba2  1  0.18301000  0.81075300  0.21534200  1
  Ba  Ba3  1  0.68301000  0.18924700  0.28465800  1
  Y  Y0  1  0.52223300  0.35686400  0.15998900  1
  Y  Y1  1  0.83075300  0.55136100  0.94574500  1
  Y  Y2  1  0.00000000  0.00000000  0.50000000  1
  Y  Y3  1  0.66683000  0.89666000  0.60733000  1
  Y  Y4  1  0.02223300  0.64313600  0.34001100  1
  Y  Y5  1  0.66924700  0.55136100  0.44574500  1
  Y  Y6  1  0.16683000  0.10334000  0.89267000  1
  Y  Y7  1  0.50000000  0.00000000  0.00000000  1
  Y  Y8  1  0.83317000  0.89666000  0.10733000  1
  Y  Y9  1  0.33075300  0.44863900  0.55425500  1
  Y  Y10  1  0.97776700  0.35686400  0.65998900  1
  Y  Y11  1  0.33317000  0.10334000  0.39267000  1
  Y  Y12  1  0.16924700  0.44863900  0.05425500  1
  Y  Y13  1  0.47776700  0.64313600  0.84001100  1
  Cl  Cl0  1  0.16617600  0.04346200  0.44655400  1
  Cl  Cl1  1  0.00000000  0.50000000  0.00000000  1
  Cl  Cl2  1  0.66912800  0.62022200  0.89070400  1
  Cl  Cl3  1  0.56168700  0.83795500  0.66883700  1
  Cl  Cl4  1  0.71213800  0.32171900  0.21001700  1
  Cl  Cl5  1  0.90300000  0.35917500  0.32079300  1
  Cl  Cl6  1  0.53026200  0.29640500  0.41948800  1
  Cl  Cl7  1  0.34809400  0.70397200  0.02474500  1
  Cl  Cl8  1  0.01110000  0.80926300  0.91544600  1
  Cl  Cl9  1  0.18384900  0.20146000  0.52813200  1
  Cl  Cl10  1  0.69809000  0.57937600  0.12166500  1
  Cl  Cl11  1  0.65294900  0.84362700  0.79560500  1
  Cl  Cl12  1  0.86805200  0.07825500  0.63536600  1
  Cl  Cl13  1  0.19809000  0.42062400  0.37833500  1
  Cl  Cl14  1  0.36805200  0.92174500  0.86463400  1
  Cl  Cl15  1  0.15294900  0.15637300  0.70439500  1
  Cl  Cl16  1  0.84809400  0.29602800  0.47525500  1
  Cl  Cl17  1  0.03026200  0.70359500  0.08051200  1
  Cl  Cl18  1  0.68384900  0.79854000  0.97186800  1
  Cl  Cl19  1  0.51110000  0.19073700  0.58455400  1
  Cl  Cl20  1  0.40300000  0.64082500  0.17920700  1
  Cl  Cl21  1  0.21213800  0.67828100  0.28998300  1
  Cl  Cl22  1  0.06168700  0.16204500  0.83116300  1
  Cl  Cl23  1  0.16912800  0.37977800  0.60929600  1
  Cl  Cl24  1  0.66617600  0.95653800  0.05344600  1
  Cl  Cl25  1  0.33382400  0.04346200  0.94655400  1
  Cl  Cl26  1  0.50000000  0.50000000  0.50000000  1
  Cl  Cl27  1  0.83087200  0.62022200  0.39070400  1
  Cl  Cl28  1  0.93831300  0.83795500  0.16883700  1
  Cl  Cl29  1  0.78786200  0.32171900  0.71001700  1
  Cl  Cl30  1  0.59700000  0.35917500  0.82079300  1
  Cl  Cl31  1  0.48890000  0.80926300  0.41544600  1
  Cl  Cl32  1  0.31615100  0.20146000  0.02813200  1
  Cl  Cl33  1  0.96973800  0.29640500  0.91948800  1
  Cl  Cl34  1  0.15190600  0.70397200  0.52474500  1
  Cl  Cl35  1  0.84705100  0.84362700  0.29560500  1
  Cl  Cl36  1  0.63194800  0.07825500  0.13536600  1
  Cl  Cl37  1  0.80191000  0.57937600  0.62166500  1
  Cl  Cl38  1  0.13194800  0.92174500  0.36463400  1
  Cl  Cl39  1  0.34705100  0.15637300  0.20439500  1
  Cl  Cl40  1  0.30191000  0.42062400  0.87833500  1
  Cl  Cl41  1  0.81615100  0.79854000  0.47186800  1
  Cl  Cl42  1  0.98890000  0.19073700  0.08455400  1
  Cl  Cl43  1  0.65190600  0.29602800  0.97525500  1
  Cl  Cl44  1  0.46973800  0.70359500  0.58051200  1
  Cl  Cl45  1  0.09700000  0.64082500  0.67920700  1
  Cl  Cl46  1  0.28786200  0.67828100  0.78998300  1
  Cl  Cl47  1  0.43831300  0.16204500  0.33116300  1
  Cl  Cl48  1  0.33087200  0.37977800  0.10929600  1
  Cl  Cl49  1  0.83382400  0.95653800  0.55344600  1
loop_
_geom_bond_atom_site_label_1
_geom_bond_atom_site_label_2
_geom_bond_distance
_geom_bond_site_symmetry_2
Ba0 Cl45 2.928186 1_555
Ba0 Cl3 2.937211 1_555
Ba0 Cl15 2.969896 1_565
Ba0 Cl46 2.990246 1_555
Ba1 Cl30 2.928186 1_555
Ba1 Cl22 2.937211 1_655
Ba1 Cl11 2.969896 1_545
Ba1 Cl29 2.990246 1_555
Ba2 Cl20 2.928186 1_555
Ba2 Cl28 2.937211 1_455
Ba2 Cl39 2.969896 1_565
Ba2 Cl21 2.990246 1_555
Ba3 Cl5 2.928186 1_555
Ba3 Cl47 2.937211 1_555
Ba3 Cl35 2.969896 1_545
Ba3 Cl4 2.990246 1_555
Cl0 Y2 2.618655 1_555
Cl0 Y11 2.637875 1_555
Cl1 Y12 2.661071 1_555
Cl1 Y1 2.661071 1_454
Cl2 Y1 2.647916 1_555
Cl2 Y13 2.689459 1_555
Cl3 Y3 2.614993 1_555
Cl4 Y0 2.656289 1_555
Cl5 Y4 2.624509 1_655
Cl6 Y5 2.665277 1_555
Cl6 Y11 2.677182 1_555
Cl7 Y12 2.657181 1_555
Cl7 Y7 2.671284 1_565
Cl8 Y6 2.662648 1_565
Cl8 Y1 2.688526 1_455
Cl9 Y9 2.655108 1_555
Cl9 Y2 2.659719 1_555
Cl10 Y0 2.635860 1_555
Cl10 Y8 2.659286 1_555
Cl11 Y13 2.678383 1_555
Cl12 Y10 2.655408 1_555
Cl12 Y3 2.677761 1_545
Cl13 Y4 2.635860 1_555
Cl13 Y11 2.659286 1_555
Cl14 Y13 2.655408 1_555
Cl14 Y6 2.677761 1_565
Cl15 Y10 2.678383 1_455
Cl16 Y5 2.657181 1_555
Cl16 Y2 2.671284 1_655
Cl17 Y12 2.665277 1_555
Cl17 Y8 2.677182 1_455
Cl18 Y1 2.655108 1_555
Cl18 Y7 2.659719 1_566
Cl19 Y3 2.662648 1_545
Cl19 Y9 2.688526 1_555
Cl20 Y0 2.624509 1_555
Cl21 Y4 2.656289 1_555
Cl22 Y6 2.614993 1_555
Cl23 Y9 2.647916 1_555
Cl23 Y10 2.689459 1_455
Cl24 Y7 2.618655 1_565
Cl24 Y8 2.637875 1_555
Cl25 Y7 2.618655 1_556
Cl25 Y6 2.637875 1_555
Cl26 Y9 2.661071 1_555
Cl26 Y5 2.661071 1_555
Cl27 Y5 2.647916 1_555
Cl27 Y4 2.689459 1_655
Cl28 Y8 2.614993 1_555
Cl29 Y10 2.656289 1_555
Cl30 Y13 2.624509 1_555
Cl31 Y11 2.662648 1_565
Cl31 Y5 2.688526 1_555
Cl32 Y12 2.655108 1_555
Cl32 Y7 2.659719 1_555
Cl33 Y1 2.665277 1_555
Cl33 Y6 2.677182 1_655
Cl34 Y9 2.657181 1_555
Cl34 Y2 2.671284 1_565
Cl35 Y4 2.678383 1_655
Cl36 Y0 2.655408 1_555
Cl36 Y8 2.677761 1_545
Cl37 Y10 2.635860 1_555
Cl37 Y3 2.659286 1_555
Cl38 Y4 2.655408 1_555
Cl38 Y11 2.677761 1_565
Cl39 Y0 2.678383 1_555
Cl40 Y13 2.635860 1_555
Cl40 Y6 2.659286 1_555
Cl41 Y5 2.655108 1_555
Cl41 Y2 2.659719 1_665
Cl42 Y8 2.662648 1_545
Cl42 Y12 2.688526 1_655
Cl43 Y1 2.657181 1_555
Cl43 Y7 2.671284 1_556
Cl44 Y9 2.665277 1_555
Cl44 Y3 2.677182 1_555
Cl45 Y10 2.624509 1_455
Cl46 Y13 2.656289 1_555
Cl47 Y11 2.614993 1_555
Cl48 Y12 2.647916 1_555
Cl48 Y0 2.689459 1_555
Cl49 Y2 2.618655 1_665
Cl49 Y3 2.637875 1_555
