# generated using pymatgen
data_KMn6O12
_symmetry_space_group_name_H-M   'P 1'
_cell_length_a   8.17152456
_cell_length_b   8.17152186
_cell_length_c   8.17151571
_cell_angle_alpha   106.15342298
_cell_angle_beta   106.15335216
_cell_angle_gamma   116.33250397
_symmetry_Int_Tables_number   1
_chemical_formula_structural   KMn6O12
_chemical_formula_sum   'K2 Mn12 O24'
_cell_volume   415.46661777
_cell_formula_units_Z   2
loop_
 _symmetry_equiv_pos_site_id
 _symmetry_equiv_pos_as_xyz
  1  'x, y, z'
loop_
 _atom_site_type_symbol
 _atom_site_label
 _atom_site_symmetry_multiplicity
 _atom_site_fract_x
 _atom_site_fract_y
 _atom_site_fract_z
 _atom_site_occupancy
  K  K0  1  0.29159104  0.29158782  0.00000312  1
  K  K1  1  0.70841095  0.70841488  0.00000363  1
  Mn  Mn0  1  0.66667742  0.84879730  0.51547994  1
  Mn  Mn1  1  0.48496249  -0.00013889  0.81758858  1
  Mn  Mn2  1  0.81772425  0.33262492  0.81758866  1
  Mn  Mn3  1  0.51502401  0.00012966  0.18240401  1
  Mn  Mn4  1  0.66740108  0.48498055  0.48510315  1
  Mn  Mn5  1  0.33331753  0.15120267  0.48451734  1
  Mn  Mn6  1  0.33259473  0.51501611  0.51489873  1
  Mn  Mn7  1  -0.00011360  0.18230472  0.51489894  1
  Mn  Mn8  1  0.15118793  0.66666892  0.81785118  1
  Mn  Mn9  1  0.18227741  0.66738009  0.18241104  1
  Mn  Mn10  1  0.84881279  0.33333358  0.18214827  1
  Mn  Mn11  1  0.00012291  0.81769883  0.48510420  1
  O  O0  1  0.66275465  0.04205269  0.70480536  1
  O  O1  1  0.32160793  0.96281721  0.95141696  1
  O  O2  1  0.65365484  0.29795517  0.95161274  1
  O  O3  1  0.70921906  0.00118735  0.37609299  1
  O  O4  1  0.62509579  0.33312771  0.62390446  1
  O  O5  1  0.29077531  -0.00119307  0.62390172  1
  O  O6  1  0.67837978  0.03716745  0.04857334  1
  O  O7  1  0.33724141  0.95794370  0.29519172  1
  O  O8  1  0.66690225  0.29081303  0.29198395  1
  O  O9  1  0.29793472  0.34636117  0.64428959  1
  O  O10  1  0.96286262  0.01141056  0.64120928  1
  O  O11  1  0.62979237  0.67834547  0.64120929  1
  O  O12  1  0.03714836  0.98858680  0.35879615  1
  O  O13  1  0.70206750  0.65363870  0.35570759  1
  O  O14  1  0.37020707  0.32165056  0.35879419  1
  O  O15  1  -0.00116073  0.37493587  0.70801993  1
  O  O16  1  0.33308479  0.70918304  0.70801982  1
  O  O17  1  0.98860219  0.62981340  0.95142408  1
  O  O18  1  0.37490063  0.66687286  0.37609190  1
  O  O19  1  0.04205632  0.33725380  0.37930663  1
  O  O20  1  0.95796464  0.66274805  0.62070866  1
  O  O21  1  0.01140861  0.37019611  0.04857417  1
  O  O22  1  0.34632970  0.70204543  0.04837799  1
  O  O23  1  0.00117424  0.62508478  0.29198768  1
loop_
_geom_bond_atom_site_label_1
_geom_bond_atom_site_label_2
_geom_bond_distance
_geom_bond_site_symmetry_2
K0 O14 2.734982 1_555
K0 O10 2.735000 1_454
K0 O21 2.735053 1_555
K0 O1 2.735083 1_544
K0 O2 3.072181 1_554
K0 O13 3.072257 1_555
K0 O22 3.072293 1_555
K0 O9 3.072326 1_554
K1 O11 2.734989 1_554
K1 O12 2.735012 1_655
K1 O6 2.735018 1_565
K1 O17 2.735114 1_554
K1 O2 3.072229 1_554
K1 O13 3.072257 1_555
K1 O22 3.072263 1_555
K1 O9 3.072291 1_554
Mn0 O18 1.895868 1_555
Mn0 O3 1.895868 1_565
Mn0 O0 1.897738 1_565
Mn0 O11 1.918993 1_555
Mn0 O10 1.919022 1_565
Mn0 O13 1.947332 1_555
Mn1 O0 1.885841 1_555
Mn1 O16 1.888648 1_545
Mn1 O5 1.898915 1_555
Mn1 O1 1.925449 1_545
Mn1 O2 1.931278 1_555
Mn1 O6 1.935476 1_556
Mn2 O0 1.885822 1_555
Mn2 O15 1.888685 1_655
Mn2 O4 1.898893 1_555
Mn2 O17 1.925487 1_555
Mn2 O2 1.931273 1_555
Mn2 O21 1.935489 1_656
Mn3 O7 1.885805 1_545
Mn3 O8 1.888679 1_555
Mn3 O3 1.898947 1_555
Mn3 O6 1.925472 1_555
Mn3 O22 1.931215 1_545
Mn3 O1 1.935461 1_544
Mn4 O20 1.885762 1_555
Mn4 O4 1.888501 1_555
Mn4 O8 1.898756 1_555
Mn4 O14 1.925528 1_555
Mn4 O13 1.931014 1_555
Mn4 O11 1.935392 1_555
Mn5 O4 1.895877 1_555
Mn5 O5 1.895886 1_555
Mn5 O7 1.897762 1_545
Mn5 O12 1.918917 1_545
Mn5 O14 1.918927 1_555
Mn5 O9 1.947290 1_555
Mn6 O19 1.885602 1_555
Mn6 O18 1.888562 1_555
Mn6 O16 1.898805 1_555
Mn6 O11 1.925552 1_555
Mn6 O9 1.930964 1_555
Mn6 O14 1.935410 1_555
Mn7 O19 1.885618 1_555
Mn7 O3 1.888590 1_455
Mn7 O15 1.898811 1_555
Mn7 O10 1.925594 1_455
Mn7 O9 1.930982 1_555
Mn7 O12 1.935415 1_545
Mn8 O16 1.895556 1_555
Mn8 O15 1.895589 1_555
Mn8 O20 1.897451 1_455
Mn8 O1 1.918782 1_555
Mn8 O17 1.918848 1_455
Mn8 O22 1.947181 1_556
Mn9 O7 1.885766 1_555
Mn9 O23 1.888656 1_555
Mn9 O18 1.898873 1_555
Mn9 O21 1.925458 1_555
Mn9 O22 1.931222 1_555
Mn9 O17 1.935479 1_454
Mn10 O8 1.895674 1_555
Mn10 O23 1.895705 1_655
Mn10 O19 1.897631 1_655
Mn10 O6 1.918898 1_555
Mn10 O21 1.918921 1_655
Mn10 O2 1.947287 1_554
Mn11 O20 1.885706 1_455
Mn11 O5 1.888492 1_565
Mn11 O23 1.898726 1_555
Mn11 O12 1.925538 1_555
Mn11 O13 1.931028 1_455
Mn11 O10 1.935379 1_465
