# generated using pymatgen
data_Ni6O7
_symmetry_space_group_name_H-M   'P 1'
_cell_length_a   5.07198717
_cell_length_b   5.81760717
_cell_length_c   8.93404997
_cell_angle_alpha   89.87397370
_cell_angle_beta   96.23778937
_cell_angle_gamma   106.84163027
_symmetry_Int_Tables_number   1
_chemical_formula_structural   Ni6O7
_chemical_formula_sum   'Ni12 O14'
_cell_volume   250.69622295
_cell_formula_units_Z   2
loop_
 _symmetry_equiv_pos_site_id
 _symmetry_equiv_pos_as_xyz
  1  'x, y, z'
loop_
 _atom_site_type_symbol
 _atom_site_label
 _atom_site_symmetry_multiplicity
 _atom_site_fract_x
 _atom_site_fract_y
 _atom_site_fract_z
 _atom_site_occupancy
  Ni  Ni0  1  0.85655400  0.21404000  0.71314100  1
  Ni  Ni1  1  0.84552300  0.71072700  0.71137400  1
  Ni  Ni2  1  0.71677300  0.43073400  0.42449000  1
  Ni  Ni3  1  0.42608400  0.85498000  0.86122400  1
  Ni  Ni4  1  0.57142900  0.14285700  0.14285700  1
  Ni  Ni5  1  0.57142900  0.64285700  0.14285700  1
  Ni  Ni6  1  0.28630300  0.07167400  0.57257400  1
  Ni  Ni7  1  0.29733500  0.57498800  0.57434000  1
  Ni  Ni8  1  0.13102900  0.27874500  0.28878100  1
  Ni  Ni9  1  0.14804400  0.78962300  0.29024000  1
  Ni  Ni10  1  0.01182800  0.00696900  0.99693300  1
  Ni  Ni11  1  0.99481300  0.49609100  0.99547500  1
  O  O0  1  0.03454900  0.73812700  0.50483300  1
  O  O1  1  0.73642800  0.16619700  0.93124900  1
  O  O2  1  0.73628800  0.70419600  0.94056700  1
  O  O3  1  0.86178800  0.45966300  0.21728900  1
  O  O4  1  0.87368800  0.97343200  0.20332800  1
  O  O5  1  0.58014200  0.41164700  0.62890600  1
  O  O6  1  0.56271500  0.87406700  0.65680800  1
  O  O7  1  0.40642900  0.11951700  0.35446500  1
  O  O8  1  0.40656900  0.58151800  0.34514700  1
  O  O9  1  0.11384400  0.00686400  0.77597700  1
  O  O10  1  0.10830800  0.54758700  0.78088100  1
  O  O11  1  0.26917000  0.31228200  0.08238600  1
  O  O12  1  0.28106900  0.82605100  0.06842500  1
  O  O13  1  0.02901400  0.27885000  0.50973700  1
loop_
_geom_bond_atom_site_label_1
_geom_bond_atom_site_label_2
_geom_bond_distance
_geom_bond_site_symmetry_2
Ni0 O10 2.040475 1_655
Ni0 O9 2.054260 1_655
Ni0 O13 2.088273 1_655
Ni0 O1 2.098339 1_555
Ni0 O6 2.125932 1_545
Ni0 O5 2.134065 1_555
Ni1 O10 1.900892 1_655
Ni1 O9 1.904832 1_665
Ni1 O5 1.953203 1_555
Ni1 O6 1.958046 1_555
Ni1 O0 2.155022 1_655
Ni1 O2 2.176039 1_555
Ni2 O5 2.014285 1_555
Ni2 O3 2.053976 1_555
Ni2 O7 2.070435 1_555
Ni2 O8 2.074133 1_555
Ni2 O0 2.096437 1_655
Ni2 O13 2.101102 1_655
Ni3 O6 2.014285 1_555
Ni3 O12 2.053976 1_556
Ni3 O1 2.070435 1_565
Ni3 O2 2.074133 1_555
Ni3 O10 2.096437 1_555
Ni3 O9 2.101097 1_565
Ni4 O3 2.056129 1_555
Ni4 O12 2.056131 1_545
Ni4 O4 2.075304 1_545
Ni4 O11 2.075304 1_555
Ni4 O1 2.137681 1_554
Ni4 O7 2.137684 1_555
Ni5 O2 2.060433 1_554
Ni5 O8 2.060436 1_555
Ni5 O3 2.107225 1_555
Ni5 O12 2.107229 1_555
Ni5 O4 2.111121 1_555
Ni5 O11 2.111121 1_555
Ni6 O0 2.040478 1_545
Ni6 O13 2.054258 1_555
Ni6 O9 2.088263 1_555
Ni6 O7 2.098348 1_555
Ni6 O5 2.125931 1_555
Ni6 O6 2.134063 1_545
Ni7 O0 1.900892 1_555
Ni7 O13 1.904836 1_555
Ni7 O6 1.953197 1_555
Ni7 O5 1.958046 1_555
Ni7 O10 2.155025 1_555
Ni7 O8 2.176038 1_555
Ni8 O7 1.929458 1_555
Ni8 O8 1.932313 1_555
Ni8 O4 1.971643 1_445
Ni8 O3 2.005220 1_455
Ni8 O11 2.032010 1_555
Ni8 O13 2.094439 1_555
Ni9 O7 2.028308 1_565
Ni9 O8 2.050166 1_555
Ni9 O0 2.057689 1_555
Ni9 O4 2.075213 1_455
Ni9 O3 2.098203 1_455
Ni9 O12 2.152475 1_555
Ni10 O1 1.929458 1_455
Ni10 O2 1.932313 1_445
Ni10 O11 1.971644 1_556
Ni10 O12 2.005220 1_546
Ni10 O4 2.032008 1_446
Ni10 O9 2.094441 1_555
Ni11 O1 2.028310 1_555
Ni11 O2 2.050167 1_555
Ni11 O10 2.057698 1_655
Ni11 O11 2.075215 1_656
Ni11 O12 2.098201 1_656
Ni11 O3 2.152466 1_556
