# generated using pymatgen
data_Li3V2(SiO5)2
_symmetry_space_group_name_H-M   'P 1'
_cell_length_a   4.55447600
_cell_length_b   8.99627800
_cell_length_c   9.28755600
_cell_angle_alpha   90.00000000
_cell_angle_beta   90.00000000
_cell_angle_gamma   90.00000000
_symmetry_Int_Tables_number   1
_chemical_formula_structural   Li3V2(SiO5)2
_chemical_formula_sum   'Li6 V4 Si4 O20'
_cell_volume   380.54211769
_cell_formula_units_Z   2
loop_
 _symmetry_equiv_pos_site_id
 _symmetry_equiv_pos_as_xyz
  1  'x, y, z'
loop_
 _atom_site_type_symbol
 _atom_site_label
 _atom_site_symmetry_multiplicity
 _atom_site_fract_x
 _atom_site_fract_y
 _atom_site_fract_z
 _atom_site_occupancy
  Li  Li0  1  0.61583800  0.00000000  0.00482400  1
  Li  Li1  1  0.38416200  0.00000000  0.50482400  1
  Li  Li2  1  0.00075600  0.25359700  0.00251500  1
  Li  Li3  1  0.99924400  0.25359700  0.50251500  1
  Li  Li4  1  0.00075600  0.74640300  0.00251500  1
  Li  Li5  1  0.99924400  0.74640300  0.50251500  1
  V  V0  1  0.95739700  0.00000000  0.29059900  1
  V  V1  1  0.04260300  0.00000000  0.79059900  1
  V  V2  1  0.57557500  0.50000000  0.49638000  1
  V  V3  1  0.42442500  0.50000000  0.99638000  1
  Si  Si0  1  0.50016200  0.25109900  0.24817200  1
  Si  Si1  1  0.49983800  0.25109900  0.74817200  1
  Si  Si2  1  0.49983800  0.74890100  0.74817200  1
  Si  Si3  1  0.50016200  0.74890100  0.24817200  1
  O  O0  1  0.80344400  0.00000000  0.45516800  1
  O  O1  1  0.19655600  0.00000000  0.95516800  1
  O  O2  1  0.74447500  0.14593700  0.16467300  1
  O  O3  1  0.25552500  0.14593700  0.66467300  1
  O  O4  1  0.25953400  0.15037500  0.33613300  1
  O  O5  1  0.74046600  0.15037500  0.83613300  1
  O  O6  1  0.31655700  0.35160600  0.13198700  1
  O  O7  1  0.68344300  0.35160600  0.63198700  1
  O  O8  1  0.68781200  0.35332900  0.36185900  1
  O  O9  1  0.31218800  0.35332900  0.86185900  1
  O  O10  1  0.21689200  0.50000000  0.49610600  1
  O  O11  1  0.78310800  0.50000000  0.99610600  1
  O  O12  1  0.68781200  0.64667100  0.36185900  1
  O  O13  1  0.31218800  0.64667100  0.86185900  1
  O  O14  1  0.31655700  0.64839400  0.13198700  1
  O  O15  1  0.68344300  0.64839400  0.63198700  1
  O  O16  1  0.25953400  0.84962500  0.33613300  1
  O  O17  1  0.74046600  0.84962500  0.83613300  1
  O  O18  1  0.25552500  0.85406300  0.66467300  1
  O  O19  1  0.74447500  0.85406300  0.16467300  1
loop_
_geom_bond_atom_site_label_1
_geom_bond_atom_site_label_2
_geom_bond_distance
_geom_bond_site_symmetry_2
Li0 O1 1.964510 1_554
Li0 O19 2.066636 1_545
Li0 O2 2.066636 1_555
Li0 O5 2.146376 1_554
Li0 O17 2.146376 1_544
Li1 O0 1.964510 1_555
Li1 O3 2.066636 1_555
Li1 O18 2.066636 1_545
Li1 O4 2.146376 1_555
Li1 O16 2.146376 1_545
Li2 O6 2.071740 1_555
Li2 O9 2.126837 1_554
Li2 O2 2.137446 1_455
Li2 O5 2.157683 1_454
Li2 O11 2.428985 1_454
Li2 O1 2.488681 1_554
Li3 O7 2.071740 1_555
Li3 O8 2.126837 1_555
Li3 O3 2.137446 1_655
Li3 O4 2.157683 1_655
Li3 O10 2.428985 1_655
Li3 O0 2.488681 1_555
Li4 O14 2.071740 1_555
Li4 O13 2.126837 1_554
Li4 O19 2.137446 1_455
Li4 O17 2.157683 1_454
Li4 O11 2.428985 1_454
Li4 O1 2.488681 1_564
Li5 O15 2.071740 1_555
Li5 O12 2.126837 1_555
Li5 O18 2.137446 1_655
Li5 O16 2.157683 1_655
Li5 O10 2.428985 1_655
Li5 O0 2.488681 1_565
O0 V0 1.681603 1_555
O1 V1 1.681603 1_555
O2 Si0 1.653658 1_555
O2 V0 2.007966 1_555
O3 Si1 1.653658 1_555
O3 V1 2.007966 1_555
O4 Si0 1.639988 1_555
O4 V0 1.975484 1_455
O5 Si1 1.639988 1_555
O5 V1 1.975484 1_655
O6 Si0 1.637447 1_555
O6 V3 1.899947 1_554
O7 Si1 1.637447 1_555
O7 V2 1.899947 1_555
O8 Si0 1.640464 1_555
O8 V2 1.887670 1_555
O9 Si1 1.640464 1_555
O9 V3 1.887670 1_555
O10 V2 1.633615 1_555
O11 V3 1.633615 1_555
O12 Si3 1.640464 1_555
O12 V2 1.887670 1_555
O13 Si2 1.640464 1_555
O13 V3 1.887670 1_555
O14 Si3 1.637447 1_555
O14 V3 1.899947 1_554
O15 Si2 1.637447 1_555
O15 V2 1.899947 1_555
O16 Si3 1.639988 1_555
O16 V0 1.975484 1_465
O17 Si2 1.639988 1_555
O17 V1 1.975484 1_665
O18 Si2 1.653658 1_555
O18 V1 2.007966 1_565
O19 Si3 1.653658 1_555
O19 V0 2.007966 1_565
