# generated using pymatgen
data_Na2FePCO7
_symmetry_space_group_name_H-M   'P 1'
_cell_length_a   6.56109700
_cell_length_b   5.20928900
_cell_length_c   17.82061683
_cell_angle_alpha   89.70027684
_cell_angle_beta   90.00000000
_cell_angle_gamma   90.00000000
_symmetry_Int_Tables_number   1
_chemical_formula_structural   Na2FePCO7
_chemical_formula_sum   'Na8 Fe4 P4 C4 O28'
_cell_volume   609.07629930
_cell_formula_units_Z   4
loop_
 _symmetry_equiv_pos_site_id
 _symmetry_equiv_pos_as_xyz
  1  'x, y, z'
loop_
 _atom_site_type_symbol
 _atom_site_label
 _atom_site_symmetry_multiplicity
 _atom_site_fract_x
 _atom_site_fract_y
 _atom_site_fract_z
 _atom_site_occupancy
  Na  Na0  1  0.24410800  0.76502000  0.79038700  1
  Na  Na1  1  0.48970200  0.25148200  0.88098000  1
  Na  Na2  1  0.51029800  0.74851800  0.11902000  1
  Na  Na3  1  0.75589200  0.23498000  0.20961300  1
  Na  Na4  1  0.25589200  0.76502000  0.29038700  1
  Na  Na5  1  0.01029800  0.25148200  0.38098000  1
  Na  Na6  1  0.98970200  0.74851800  0.61902000  1
  Na  Na7  1  0.74410800  0.23498000  0.70961300  1
  Fe  Fe0  1  0.76205200  0.78520700  0.92306900  1
  Fe  Fe1  1  0.23794800  0.21479300  0.07693100  1
  Fe  Fe2  1  0.73794800  0.78520700  0.42306900  1
  Fe  Fe3  1  0.26205200  0.21479300  0.57693100  1
  P  P0  1  0.25224000  0.70722400  0.96142400  1
  P  P1  1  0.74776000  0.29277600  0.03857600  1
  P  P2  1  0.24776000  0.70722400  0.46142400  1
  P  P3  1  0.75224000  0.29277600  0.53857600  1
  C  C0  1  0.74654100  0.73000600  0.78191200  1
  C  C1  1  0.25345900  0.26999400  0.21808800  1
  C  C2  1  0.75345900  0.73000600  0.28191200  1
  C  C3  1  0.24654100  0.26999400  0.71808800  1
  O  O0  1  0.26038200  0.29340400  0.78853600  1
  O  O1  1  0.74051700  0.95626000  0.81467100  1
  O  O2  1  0.74138800  0.53302300  0.82804900  1
  O  O3  1  0.06210800  0.76550700  0.91280200  1
  O  O4  1  0.43783200  0.77130800  0.91008200  1
  O  O5  1  0.74317300  0.13455900  0.96545700  1
  O  O6  1  0.26134800  0.41672500  0.98308700  1
  O  O7  1  0.73865200  0.58327500  0.01691300  1
  O  O8  1  0.25682700  0.86544100  0.03454300  1
  O  O9  1  0.56216800  0.22869200  0.08991800  1
  O  O10  1  0.93789200  0.23449300  0.08719800  1
  O  O11  1  0.25861200  0.46697700  0.17195100  1
  O  O12  1  0.25948300  0.04374000  0.18532900  1
  O  O13  1  0.73961800  0.70659600  0.21146400  1
  O  O14  1  0.23961800  0.29340400  0.28853600  1
  O  O15  1  0.75948300  0.95626000  0.31467100  1
  O  O16  1  0.75861200  0.53302300  0.32804900  1
  O  O17  1  0.06216800  0.77130800  0.41008200  1
  O  O18  1  0.43789200  0.76550700  0.41280200  1
  O  O19  1  0.75682700  0.13455900  0.46545700  1
  O  O20  1  0.23865200  0.41672500  0.48308700  1
  O  O21  1  0.76134800  0.58327500  0.51691300  1
  O  O22  1  0.24317300  0.86544100  0.53454300  1
  O  O23  1  0.56210800  0.23449300  0.58719800  1
  O  O24  1  0.93783200  0.22869200  0.58991800  1
  O  O25  1  0.24138800  0.46697700  0.67195100  1
  O  O26  1  0.24051700  0.04374000  0.68532900  1
  O  O27  1  0.76038200  0.70659600  0.71146400  1
loop_
_geom_bond_atom_site_label_1
_geom_bond_atom_site_label_2
_geom_bond_distance
_geom_bond_site_symmetry_2
Na0 O26 2.363335 1_565
Na0 O0 2.459497 1_555
Na0 O4 2.483386 1_555
Na0 O3 2.486961 1_555
Na0 O25 2.626745 1_555
Na0 O0 2.754600 1_565
Na1 O0 2.240910 1_555
Na1 O5 2.322379 1_555
Na1 O2 2.398579 1_555
Na1 O6 2.512589 1_555
Na1 O1 2.547263 1_545
Na1 O4 2.574498 1_545
Na1 O4 2.780706 1_555
Na2 O13 2.240910 1_555
Na2 O8 2.322379 1_555
Na2 O11 2.398579 1_555
Na2 O7 2.512589 1_555
Na2 O12 2.547263 1_565
Na2 O9 2.574498 1_565
Na2 O9 2.780706 1_555
Na3 O15 2.363335 1_545
Na3 O13 2.459497 1_555
Na3 O9 2.483386 1_555
Na3 O10 2.486961 1_555
Na3 O16 2.626745 1_555
Na3 O13 2.754600 1_545
Na4 O12 2.363335 1_565
Na4 O14 2.459497 1_555
Na4 O17 2.483386 1_555
Na4 O18 2.486961 1_555
Na4 O11 2.626745 1_555
Na4 O14 2.754600 1_565
Na5 O14 2.240910 1_555
Na5 O19 2.322379 1_455
Na5 O16 2.398579 1_455
Na5 O20 2.512589 1_555
Na5 O15 2.547263 1_445
Na5 O17 2.574498 1_545
Na5 O17 2.780706 1_555
Na6 O27 2.240910 1_555
Na6 O22 2.322379 1_655
Na6 O25 2.398579 1_655
Na6 O21 2.512589 1_555
Na6 O26 2.547263 1_665
Na6 O24 2.574498 1_565
Na6 O24 2.780706 1_555
Na7 O1 2.363335 1_545
Na7 O27 2.459497 1_555
Na7 O24 2.483386 1_555
Na7 O23 2.486961 1_555
Na7 O2 2.626745 1_555
Na7 O27 2.754600 1_545
Fe0 O7 1.976990 1_556
Fe0 O5 1.977946 1_565
Fe0 O3 1.979891 1_655
Fe0 O1 2.127790 1_555
Fe0 O4 2.141057 1_555
Fe0 O2 2.152853 1_555
Fe1 O6 1.976990 1_554
Fe1 O8 1.977946 1_545
Fe1 O10 1.979891 1_455
Fe1 O12 2.127790 1_555
Fe1 O9 2.141057 1_555
Fe1 O11 2.152853 1_555
Fe2 O21 1.976990 1_555
Fe2 O19 1.977946 1_565
Fe2 O18 1.979891 1_555
Fe2 O15 2.127790 1_555
Fe2 O17 2.141057 1_655
Fe2 O16 2.152853 1_555
Fe3 O20 1.976990 1_555
Fe3 O22 1.977946 1_545
Fe3 O23 1.979891 1_555
Fe3 O26 2.127790 1_555
Fe3 O24 2.141057 1_455
Fe3 O25 2.152853 1_555
C0 O27 1.265234 1_555
C0 O2 1.311975 1_555
C0 O1 1.318604 1_555
C1 O14 1.265234 1_555
C1 O11 1.311975 1_555
C1 O12 1.318604 1_555
C2 O13 1.265234 1_555
C2 O16 1.311975 1_555
C2 O15 1.318604 1_555
C3 O0 1.265234 1_555
C3 O25 1.311975 1_555
C3 O26 1.318604 1_555
O3 P0 1.548030 1_555
O4 P0 1.558248 1_555
O5 P1 1.545743 1_556
O6 P0 1.560945 1_555
O7 P1 1.560945 1_555
O8 P0 1.545743 1_554
O9 P1 1.558248 1_555
O10 P1 1.548030 1_555
O17 P2 1.558248 1_555
O18 P2 1.548030 1_555
O19 P3 1.545743 1_555
O20 P2 1.560945 1_555
O21 P3 1.560945 1_555
O22 P2 1.545743 1_555
O23 P3 1.548030 1_555
O24 P3 1.558248 1_555
