# generated using pymatgen
data_K4Li7Mn2O8
_symmetry_space_group_name_H-M   'P 1'
_cell_length_a   5.70269900
_cell_length_b   8.97529021
_cell_length_c   10.92788343
_cell_angle_alpha   90.02806655
_cell_angle_beta   97.99172766
_cell_angle_gamma   90.01248018
_symmetry_Int_Tables_number   1
_chemical_formula_structural   K4Li7Mn2O8
_chemical_formula_sum   'K8 Li14 Mn4 O16'
_cell_volume   553.89381575
_cell_formula_units_Z   2
loop_
 _symmetry_equiv_pos_site_id
 _symmetry_equiv_pos_as_xyz
  1  'x, y, z'
loop_
 _atom_site_type_symbol
 _atom_site_label
 _atom_site_symmetry_multiplicity
 _atom_site_fract_x
 _atom_site_fract_y
 _atom_site_fract_z
 _atom_site_occupancy
  K  K0  1  0.08709200  0.00566000  0.83706700  1
  K  K1  1  0.13155900  0.75670000  0.37034000  1
  K  K2  1  0.42183100  0.50195800  0.65976200  1
  K  K3  1  0.62564600  0.74733000  0.85975600  1
  K  K4  1  0.38224000  0.25220300  0.12265600  1
  K  K5  1  0.58721600  0.50044700  0.33720000  1
  K  K6  1  0.89025800  0.25225400  0.63296400  1
  K  K7  1  0.92000700  0.00389700  0.15843000  1
  Li  Li0  1  0.00713100  0.50778400  0.50209600  1
  Li  Li1  1  0.09647200  0.74815200  0.69324700  1
  Li  Li2  1  0.31771500  0.48239100  0.92650400  1
  Li  Li3  1  0.19029100  0.98283200  0.57264000  1
  Li  Li4  1  0.07284000  0.47801500  0.20225700  1
  Li  Li5  1  0.41476700  0.24895100  0.80898600  1
  Li  Li6  1  0.49475100  0.98992900  0.99723800  1
  Li  Li7  1  0.57648400  0.01463500  0.69630800  1
  Li  Li8  1  0.43545300  0.98029800  0.29828600  1
  Li  Li9  1  0.59751300  0.75608200  0.19388400  1
  Li  Li10  1  0.80659900  0.01213300  0.43550100  1
  Li  Li11  1  0.93250200  0.51138500  0.80465200  1
  Li  Li12  1  0.70094400  0.51114900  0.06372400  1
  Li  Li13  1  0.91260900  0.25564100  0.30762800  1
  Mn  Mn0  1  0.34366700  0.20931200  0.44929400  1
  Mn  Mn1  1  0.83943700  0.27924800  0.94875300  1
  Mn  Mn2  1  0.16351300  0.70715200  0.05140700  1
  Mn  Mn3  1  0.66914200  0.78195000  0.55170800  1
  O  O0  1  0.12387800  0.31859200  0.85918500  1
  O  O1  1  0.15032600  0.68807200  0.87693600  1
  O  O2  1  0.13598100  0.05531900  0.38369100  1
  O  O3  1  0.15431000  0.41022800  0.39098600  1
  O  O4  1  0.36394100  0.18809300  0.62430200  1
  O  O5  1  0.38219200  0.81926700  0.63968500  1
  O  O6  1  0.62994800  0.45524600  0.88073100  1
  O  O7  1  0.34797600  0.90599700  0.11414000  1
  O  O8  1  0.36828100  0.55090000  0.11526800  1
  O  O9  1  0.63759600  0.08341300  0.88442600  1
  O  O10  1  0.60303800  0.18291800  0.35738400  1
  O  O11  1  0.64167600  0.81818800  0.36440500  1
  O  O12  1  0.86733700  0.58777600  0.62187000  1
  O  O13  1  0.87628300  0.95938100  0.61867200  1
  O  O14  1  0.86823600  0.31748700  0.13632300  1
  O  O15  1  0.90131400  0.68184500  0.14173000  1
loop_
_geom_bond_atom_site_label_1
_geom_bond_atom_site_label_2
_geom_bond_distance
_geom_bond_site_symmetry_2
K0 O13 2.552377 1_445
K0 O9 2.773961 1_455
K0 O0 2.824173 1_555
K0 O1 2.898770 1_545
K1 O2 2.684011 1_565
K1 O15 2.739049 1_455
K1 O11 2.839649 1_455
K2 O6 2.572849 1_555
K2 O12 2.740674 1_555
K2 O4 2.856178 1_555
K2 O5 2.863058 1_555
K3 O6 2.631475 1_555
K3 O5 2.683557 1_555
K3 O1 2.794008 1_555
K4 O8 2.683013 1_555
K4 O10 2.766877 1_555
K4 O14 2.816185 1_555
K5 O8 2.608648 1_555
K5 O3 2.738405 1_555
K5 O10 2.859021 1_555
K5 O11 2.879377 1_555
K6 O13 2.633711 1_545
K6 O0 2.706143 1_655
K6 O4 2.776539 1_655
K7 O2 2.635364 1_655
K7 O7 2.700320 1_645
K7 O14 2.836984 1_555
K7 O15 2.897181 1_545
Li0 O12 1.775841 1_455
Li0 O3 1.796675 1_555
Li1 O5 1.915714 1_555
Li1 O12 2.025449 1_455
Li1 O1 2.060143 1_555
Li1 O13 2.356496 1_455
Li2 O0 1.922634 1_555
Li2 O6 1.930729 1_555
Li2 O1 2.114349 1_555
Li2 O8 2.132986 1_556
Li3 O5 1.915296 1_555
Li3 O13 1.937611 1_455
Li3 O4 2.129808 1_565
Li3 O2 2.146212 1_565
Li4 O14 1.928965 1_455
Li4 O15 2.136161 1_455
Li4 O3 2.138798 1_555
Li4 O8 2.148404 1_555
Li5 O0 1.922642 1_555
Li5 O9 2.052454 1_555
Li5 O4 2.071645 1_555
Li5 O6 2.297571 1_555
Li6 O9 1.779696 1_565
Li6 O7 1.788309 1_556
Li7 O4 2.061272 1_555
Li7 O13 2.071700 1_545
Li7 O5 2.119594 1_545
Li7 O9 2.127910 1_555
Li8 O11 1.946172 1_555
Li8 O7 2.112449 1_555
Li8 O10 2.112841 1_565
Li8 O2 2.164273 1_565
Li9 O11 1.927422 1_555
Li9 O15 2.011211 1_555
Li9 O7 2.062048 1_555
Li9 O8 2.350200 1_555
Li10 O10 2.037747 1_555
Li10 O13 2.041716 1_545
Li10 O2 2.072357 1_655
Li10 O11 2.076784 1_545
Li11 O6 2.078674 1_555
Li11 O0 2.088392 1_655
Li11 O12 2.095933 1_555
Li11 O1 2.099256 1_655
Li12 O15 2.026471 1_555
Li12 O6 2.046552 1_554
Li12 O8 2.083430 1_555
Li12 O14 2.086245 1_555
Li13 O14 1.935433 1_555
Li13 O10 2.026086 1_555
Li13 O3 2.074485 1_655
Li13 O2 2.292204 1_655
Mn0 O2 1.894516 1_555
Mn0 O4 1.909464 1_555
Mn0 O10 1.914598 1_555
Mn0 O3 2.152798 1_555
Mn1 O0 2.038487 1_655
Mn1 O6 2.056704 1_555
Mn1 O14 2.062011 1_556
Mn1 O9 2.163651 1_555
Mn2 O8 1.895371 1_555
Mn2 O1 1.905231 1_554
Mn2 O15 1.916256 1_455
Mn2 O7 2.135210 1_555
Mn3 O5 2.037552 1_555
Mn3 O13 2.055382 1_555
Mn3 O11 2.057023 1_555
Mn3 O12 2.159575 1_555
