# generated using pymatgen
data_Lu3TaO7
_symmetry_space_group_name_H-M   'P 1'
_cell_length_a   7.34184500
_cell_length_b   7.41175000
_cell_length_c   10.39904400
_cell_angle_alpha   90.00000000
_cell_angle_beta   90.00000000
_cell_angle_gamma   90.00000000
_symmetry_Int_Tables_number   1
_chemical_formula_structural   Lu3TaO7
_chemical_formula_sum   'Lu12 Ta4 O28'
_cell_volume   565.87354304
_cell_formula_units_Z   4
loop_
 _symmetry_equiv_pos_site_id
 _symmetry_equiv_pos_as_xyz
  1  'x, y, z'
loop_
 _atom_site_type_symbol
 _atom_site_label
 _atom_site_symmetry_multiplicity
 _atom_site_fract_x
 _atom_site_fract_y
 _atom_site_fract_z
 _atom_site_occupancy
  Lu  Lu0  1  0.01236800  0.79531400  0.25000000  1
  Lu  Lu1  1  0.25150800  0.96927800  0.51882900  1
  Lu  Lu2  1  0.25150800  0.96927800  0.98117100  1
  Lu  Lu3  1  0.24849200  0.46927800  0.01882900  1
  Lu  Lu4  1  0.24849200  0.46927800  0.48117100  1
  Lu  Lu5  1  0.48763200  0.29531400  0.75000000  1
  Lu  Lu6  1  0.51236800  0.70468600  0.25000000  1
  Lu  Lu7  1  0.75150800  0.53072200  0.51882900  1
  Lu  Lu8  1  0.75150800  0.53072200  0.98117100  1
  Lu  Lu9  1  0.74849200  0.03072200  0.01882900  1
  Lu  Lu10  1  0.74849200  0.03072200  0.48117100  1
  Lu  Lu11  1  0.98763200  0.20468600  0.75000000  1
  Ta  Ta0  1  0.99931200  0.74717500  0.75000000  1
  Ta  Ta1  1  0.50068800  0.24717500  0.25000000  1
  Ta  Ta2  1  0.49931200  0.75282500  0.75000000  1
  Ta  Ta3  1  0.00068800  0.25282500  0.25000000  1
  O  O0  1  0.03706800  0.04400800  0.12314600  1
  O  O1  1  0.03706800  0.04400800  0.37685400  1
  O  O2  1  0.04101800  0.57855200  0.61102800  1
  O  O3  1  0.04101800  0.57855200  0.88897200  1
  O  O4  1  0.24898400  0.34049000  0.25000000  1
  O  O5  1  0.25438600  0.73081900  0.11562900  1
  O  O6  1  0.25438600  0.73081900  0.38437100  1
  O  O7  1  0.24561400  0.23081900  0.61562900  1
  O  O8  1  0.24561400  0.23081900  0.88437100  1
  O  O9  1  0.25101600  0.84049000  0.75000000  1
  O  O10  1  0.45898200  0.07855200  0.11102800  1
  O  O11  1  0.45898200  0.07855200  0.38897200  1
  O  O12  1  0.46293200  0.54400800  0.62314600  1
  O  O13  1  0.46293200  0.54400800  0.87685400  1
  O  O14  1  0.53706800  0.45599200  0.12314600  1
  O  O15  1  0.53706800  0.45599200  0.37685400  1
  O  O16  1  0.54101800  0.92144800  0.61102800  1
  O  O17  1  0.54101800  0.92144800  0.88897200  1
  O  O18  1  0.74898400  0.15951000  0.25000000  1
  O  O19  1  0.75438600  0.76918100  0.11562900  1
  O  O20  1  0.75438600  0.76918100  0.38437100  1
  O  O21  1  0.74561400  0.26918100  0.61562900  1
  O  O22  1  0.74561400  0.26918100  0.88437100  1
  O  O23  1  0.75101600  0.65951000  0.75000000  1
  O  O24  1  0.95898200  0.42144800  0.11102800  1
  O  O25  1  0.95898200  0.42144800  0.38897200  1
  O  O26  1  0.96293200  0.95599200  0.62314600  1
  O  O27  1  0.96293200  0.95599200  0.87685400  1
loop_
_geom_bond_atom_site_label_1
_geom_bond_atom_site_label_2
_geom_bond_distance
_geom_bond_site_symmetry_2
Lu0 O1 2.273910 1_565
Lu0 O0 2.273910 1_565
Lu0 O6 2.310468 1_555
Lu0 O5 2.310468 1_555
Lu0 O20 2.361678 1_455
Lu0 O19 2.361678 1_455
Lu1 O7 2.184688 1_565
Lu1 O11 2.190838 1_565
Lu1 O1 2.228282 1_565
Lu1 O6 2.253709 1_555
Lu1 O16 2.358568 1_555
Lu1 O26 2.382286 1_455
Lu1 O9 2.586538 1_555
Lu2 O8 2.184688 1_565
Lu2 O10 2.190838 1_566
Lu2 O0 2.228282 1_566
Lu2 O5 2.253709 1_556
Lu2 O17 2.358568 1_555
Lu2 O27 2.382286 1_455
Lu2 O9 2.586538 1_555
Lu3 O5 2.184688 1_555
Lu3 O3 2.190838 1_554
Lu3 O13 2.228282 1_554
Lu3 O8 2.253709 1_554
Lu3 O24 2.358568 1_455
Lu3 O14 2.382286 1_555
Lu3 O4 2.586538 1_555
Lu4 O6 2.184688 1_555
Lu4 O2 2.190838 1_555
Lu4 O12 2.228282 1_555
Lu4 O7 2.253709 1_555
Lu4 O25 2.358568 1_455
Lu4 O15 2.382286 1_555
Lu4 O4 2.586538 1_555
Lu5 O13 2.273910 1_555
Lu5 O12 2.273910 1_555
Lu5 O8 2.310468 1_555
Lu5 O7 2.310468 1_555
Lu5 O22 2.361678 1_555
Lu5 O21 2.361678 1_555
Lu6 O15 2.273910 1_555
Lu6 O14 2.273910 1_555
Lu6 O20 2.310468 1_555
Lu6 O19 2.310468 1_555
Lu6 O6 2.361678 1_555
Lu6 O5 2.361678 1_555
Lu7 O21 2.184688 1_555
Lu7 O25 2.190838 1_555
Lu7 O15 2.228282 1_555
Lu7 O20 2.253709 1_555
Lu7 O2 2.358568 1_655
Lu7 O12 2.382286 1_555
Lu7 O23 2.586538 1_555
Lu8 O22 2.184688 1_555
Lu8 O24 2.190838 1_556
Lu8 O14 2.228282 1_556
Lu8 O19 2.253709 1_556
Lu8 O3 2.358568 1_655
Lu8 O13 2.382286 1_555
Lu8 O23 2.586538 1_555
Lu9 O19 2.184688 1_545
Lu9 O17 2.190838 1_544
Lu9 O27 2.228282 1_544
Lu9 O22 2.253709 1_554
Lu9 O10 2.358568 1_555
Lu9 O0 2.382286 1_655
Lu9 O18 2.586538 1_555
Lu10 O20 2.184688 1_545
Lu10 O16 2.190838 1_545
Lu10 O26 2.228282 1_545
Lu10 O21 2.253709 1_555
Lu10 O11 2.358568 1_555
Lu10 O1 2.382286 1_655
Lu10 O18 2.586538 1_555
Lu11 O27 2.273910 1_545
Lu11 O26 2.273910 1_545
Lu11 O22 2.310468 1_555
Lu11 O21 2.310468 1_555
Lu11 O8 2.361678 1_655
Lu11 O7 2.361678 1_655
O0 Ta3 2.051072 1_555
O1 Ta3 2.051072 1_555
O2 Ta0 1.935012 1_455
O3 Ta0 1.935012 1_455
O4 Ta3 1.935284 1_555
O4 Ta1 1.973157 1_555
O9 Ta2 1.935284 1_555
O9 Ta0 1.973157 1_455
O10 Ta1 1.935012 1_555
O11 Ta1 1.935012 1_555
O12 Ta2 2.051072 1_555
O13 Ta2 2.051072 1_555
O14 Ta1 2.051072 1_555
O15 Ta1 2.051072 1_555
O16 Ta2 1.935012 1_555
O17 Ta2 1.935012 1_555
O18 Ta1 1.935284 1_555
O18 Ta3 1.973157 1_655
O23 Ta0 1.935284 1_555
O23 Ta2 1.973157 1_555
O24 Ta3 1.935012 1_655
O25 Ta3 1.935012 1_655
O26 Ta0 2.051072 1_555
O27 Ta0 2.051072 1_555
