# generated using pymatgen
data_Na5P3H48C4N(O9F)3
_symmetry_space_group_name_H-M   'P 1'
_cell_length_a   6.48713400
_cell_length_b   13.57619580
_cell_length_c   19.63456441
_cell_angle_alpha   89.40412871
_cell_angle_beta   88.90643975
_cell_angle_gamma   88.09214670
_symmetry_Int_Tables_number   1
_chemical_formula_structural   Na5P3H48C4N(O9F)3
_chemical_formula_sum   'Na10 P6 H96 C8 N2 O54 F6'
_cell_volume   1727.87204016
_cell_formula_units_Z   2
loop_
 _symmetry_equiv_pos_site_id
 _symmetry_equiv_pos_as_xyz
  1  'x, y, z'
loop_
 _atom_site_type_symbol
 _atom_site_label
 _atom_site_symmetry_multiplicity
 _atom_site_fract_x
 _atom_site_fract_y
 _atom_site_fract_z
 _atom_site_occupancy
  Na  Na0  1  0.99801900  0.44152700  0.42277700  1
  Na  Na1  1  0.00198100  0.55847300  0.57722300  1
  Na  Na2  1  0.24642900  0.25062600  0.36726100  1
  Na  Na3  1  0.75357100  0.74937400  0.63273900  1
  Na  Na4  1  0.98364700  0.93567800  0.57470400  1
  Na  Na5  1  0.01635300  0.06432200  0.42529600  1
  Na  Na6  1  0.91706100  0.80786000  0.95883900  1
  Na  Na7  1  0.08293900  0.19214000  0.04116100  1
  Na  Na8  1  0.64548100  0.31958200  0.05593800  1
  Na  Na9  1  0.35451900  0.68041800  0.94406200  1
  P  P0  1  0.62255700  0.75505400  0.40114800  1
  P  P1  1  0.37744300  0.24494600  0.59885200  1
  P  P2  1  0.64678000  0.46886500  0.19440000  1
  P  P3  1  0.35322000  0.53113500  0.80560000  1
  P  P4  1  0.37991400  0.96521200  0.80749200  1
  P  P5  1  0.62008600  0.03478800  0.19250800  1
  H  H0  1  0.61883600  0.47144200  0.34028100  1
  H  H1  1  0.38116400  0.52855800  0.65972000  1
  H  H2  1  0.61270200  0.55319900  0.39858500  1
  H  H3  1  0.38729800  0.44680100  0.60141500  1
  H  H4  1  0.02314000  0.40967000  0.27222800  1
  H  H5  1  0.97686000  0.59033000  0.72777200  1
  H  H6  1  0.25456200  0.42371700  0.29102500  1
  H  H7  1  0.74543800  0.57628300  0.70897500  1
  H  H8  1  0.28355200  0.90864500  0.95163900  1
  H  H9  1  0.71644800  0.09135500  0.04836100  1
  H  H10  1  0.21424000  0.91736700  0.02848100  1
  H  H11  1  0.78576000  0.08263300  0.97151900  1
  H  H12  1  0.60873800  0.87023100  0.51031600  1
  H  H13  1  0.39126200  0.12976900  0.48968400  1
  H  H14  1  0.53353500  0.91467100  0.58028300  1
  H  H15  1  0.46646500  0.08532900  0.41971700  1
  H  H16  1  0.27721800  0.48492800  0.10690300  1
  H  H17  1  0.72278200  0.51507200  0.89309700  1
  H  H18  1  0.03831200  0.48494800  0.12999400  1
  H  H19  1  0.96168800  0.51505200  0.87000700  1
  H  H20  1  0.99327400  0.34684000  0.55791400  1
  H  H21  1  0.00672600  0.65316000  0.44208600  1
  H  H22  1  0.75803500  0.38103500  0.55220900  1
  H  H23  1  0.24196500  0.61896500  0.44779100  1
  H  H24  1  0.99819900  0.89140800  0.71944500  1
  H  H25  1  0.00180100  0.10859200  0.28055500  1
  H  H26  1  0.76082500  0.90909300  0.72809900  1
  H  H27  1  0.23917500  0.09090700  0.27190100  1
  H  H28  1  0.55260000  0.58302400  0.57686900  1
  H  H29  1  0.44740000  0.41697600  0.42313100  1
  H  H30  1  0.62261000  0.64068000  0.51176500  1
  H  H31  1  0.37739000  0.35932000  0.48823500  1
  H  H32  1  0.78530000  0.25577000  0.38130500  1
  H  H33  1  0.21470000  0.74423000  0.61869500  1
  H  H34  1  0.84896800  0.25116000  0.45865500  1
  H  H35  1  0.15103200  0.74884000  0.54134500  1
  H  H36  1  0.56896400  0.31636500  0.29203900  1
  H  H37  1  0.43103600  0.68363500  0.70796100  1
  H  H38  1  0.63015100  0.20156600  0.28889600  1
  H  H39  1  0.36984900  0.79843400  0.71110400  1
  H  H40  1  0.77054000  0.97134400  0.87812400  1
  H  H41  1  0.22946000  0.02865600  0.12187600  1
  H  H42  1  0.00728200  0.98665800  0.89600500  1
  H  H43  1  0.99271800  0.01334200  0.10399500  1
  H  H44  1  0.53197500  0.84666100  0.02686700  1
  H  H45  1  0.46802500  0.15333900  0.97313300  1
  H  H46  1  0.69538000  0.89058200  0.07484900  1
  H  H47  1  0.30462000  0.10941800  0.92515100  1
  H  H48  1  0.92803000  0.39672700  0.96398600  1
  H  H49  1  0.07197000  0.60327300  0.03601400  1
  H  H50  1  0.04637100  0.40049100  0.03183700  1
  H  H51  1  0.95362900  0.59950900  0.96816300  1
  H  H52  1  0.15350300  0.80708900  0.82728300  1
  H  H53  1  0.84649700  0.19291100  0.17271700  1
  H  H54  1  0.10711000  0.69428000  0.83955200  1
  H  H55  1  0.89289000  0.30572000  0.16044800  1
  H  H56  1  0.45419700  0.43080800  0.93371600  1
  H  H57  1  0.54580300  0.56919200  0.06628400  1
  H  H58  1  0.35784100  0.32722800  0.95028100  1
  H  H59  1  0.64215900  0.67277200  0.04971900  1
  H  H60  1  0.30748200  0.29746800  0.13923000  1
  H  H61  1  0.69251800  0.70253200  0.86077000  1
  H  H62  1  0.38184600  0.18615100  0.14160100  1
  H  H63  1  0.61815400  0.81384900  0.85839900  1
  H  H64  1  0.36648700  0.04223700  0.60598400  1
  H  H65  1  0.63351300  0.95776300  0.39401600  1
  H  H66  1  0.30854700  0.96238400  0.66323700  1
  H  H67  1  0.69145300  0.03761600  0.33676300  1
  H  H68  1  0.01213300  0.85148500  0.43976500  1
  H  H69  1  0.98786700  0.14851500  0.56023500  1
  H  H70  1  0.24823600  0.87836900  0.44754200  1
  H  H71  1  0.75176400  0.12163100  0.55245800  1
  H  H72  1  0.32172700  0.83148300  0.14768600  1
  H  H73  1  0.67827300  0.16851700  0.85231400  1
  H  H74  1  0.46119200  0.75792200  0.20781700  1
  H  H75  1  0.53880800  0.24207800  0.79218300  1
  H  H76  1  0.32727600  0.70034700  0.14119900  1
  H  H77  1  0.67272400  0.29965300  0.85880100  1
  H  H78  1  0.00313100  0.66451200  0.29574800  1
  H  H79  1  0.99686900  0.33548800  0.70425200  1
  H  H80  1  0.13941100  0.60223600  0.22737300  1
  H  H81  1  0.86058900  0.39776400  0.77262700  1
  H  H82  1  0.28046100  0.66117600  0.29272300  1
  H  H83  1  0.71953900  0.33882400  0.70727700  1
  H  H84  1  0.81283200  0.76057400  0.21304200  1
  H  H85  1  0.18716800  0.23942600  0.78695800  1
  H  H86  1  0.94279400  0.83302500  0.15004000  1
  H  H87  1  0.05720600  0.16697500  0.84996000  1
  H  H88  1  0.95008600  0.70059000  0.14439600  1
  H  H89  1  0.04991400  0.29941000  0.85560400  1
  H  H90  1  0.99167200  0.83979700  0.30192000  1
  H  H91  1  0.00832800  0.16020300  0.69808000  1
  H  H92  1  0.26845100  0.84215900  0.29994000  1
  H  H93  1  0.73154900  0.15784100  0.70006000  1
  H  H94  1  0.12294100  0.91332000  0.23889200  1
  H  H95  1  0.87705900  0.08668000  0.76110800  1
  C  C0  1  0.32449500  0.76228700  0.17647700  1
  C  C1  1  0.67550500  0.23771300  0.82352300  1
  C  C2  1  0.14056900  0.66436500  0.26247600  1
  C  C3  1  0.85943100  0.33563500  0.73752400  1
  C  C4  1  0.94683400  0.76354300  0.17883300  1
  C  C5  1  0.05316600  0.23645700  0.82116700  1
  C  C6  1  0.12955000  0.84514400  0.26920600  1
  C  C7  1  0.87045000  0.15485600  0.73079400  1
  N  N0  1  0.13609600  0.75880800  0.22155500  1
  N  N1  1  0.86390400  0.24119200  0.77844500  1
  O  O0  1  0.85407900  0.75261700  0.41151800  1
  O  O1  1  0.14592100  0.24738300  0.58848200  1
  O  O2  1  0.51123800  0.66438800  0.42774000  1
  O  O3  1  0.48876200  0.33561200  0.57226000  1
  O  O4  1  0.51426300  0.85368600  0.42027000  1
  O  O5  1  0.48573700  0.14631400  0.57973000  1
  O  O6  1  0.54252700  0.45900400  0.12563700  1
  O  O7  1  0.45747300  0.54099600  0.87436300  1
  O  O8  1  0.52101400  0.43466600  0.25646800  1
  O  O9  1  0.47898700  0.56533400  0.74353200  1
  O  O10  1  0.87286700  0.43146500  0.19416500  1
  O  O11  1  0.12713300  0.56853500  0.80583500  1
  O  O12  1  0.60536000  0.92938600  0.81270700  1
  O  O13  1  0.39464000  0.07061300  0.18729300  1
  O  O14  1  0.25138700  0.89988000  0.76247400  1
  O  O15  1  0.74861300  0.10012000  0.23752600  1
  O  O16  1  0.27622500  0.99332100  0.87568800  1
  O  O17  1  0.72377500  0.00667900  0.12431200  1
  O  O18  1  0.66139500  0.48421300  0.38731900  1
  O  O19  1  0.33860500  0.51578700  0.61268100  1
  O  O20  1  0.12218400  0.40059900  0.30977100  1
  O  O21  1  0.87781600  0.59940100  0.69022900  1
  O  O22  1  0.26116600  0.86836500  0.99341300  1
  O  O23  1  0.73883400  0.13163500  0.00658700  1
  O  O24  1  0.65380700  0.88072500  0.55716400  1
  O  O25  1  0.34619300  0.11927500  0.44283600  1
  O  O26  1  0.13398600  0.49956200  0.09117600  1
  O  O27  1  0.86601400  0.50043800  0.90882400  1
  O  O28  1  0.89932300  0.39998800  0.53938500  1
  O  O29  1  0.10067700  0.60001200  0.46061500  1
  O  O30  1  0.86860500  0.88963100  0.69410600  1
  O  O31  1  0.13139500  0.11036900  0.30589400  1
  O  O32  1  0.66714700  0.62264900  0.55824400  1
  O  O33  1  0.33285300  0.37735100  0.44175600  1
  O  O34  1  0.90514100  0.25111900  0.41242900  1
  O  O35  1  0.09485900  0.74888100  0.58757100  1
  O  O36  1  0.58497500  0.25493700  0.32018700  1
  O  O37  1  0.41502500  0.74506300  0.67981300  1
  O  O38  1  0.86526200  0.98411600  0.91607000  1
  O  O39  1  0.13473800  0.01588400  0.08393000  1
  O  O40  1  0.67242300  0.83408800  0.04503200  1
  O  O41  1  0.32757700  0.16591200  0.95496800  1
  O  O42  1  0.97152400  0.35454900  0.00313800  1
  O  O43  1  0.02847600  0.64545100  0.99686200  1
  O  O44  1  0.12073100  0.75797300  0.86311800  1
  O  O45  1  0.87926900  0.24202700  0.13688200  1
  O  O46  1  0.46588700  0.37155100  0.96313500  1
  O  O47  1  0.53411300  0.62844900  0.03686500  1
  O  O48  1  0.36170700  0.24428600  0.11059900  1
  O  O49  1  0.63829300  0.75571400  0.88940100  1
  O  O50  1  0.30740300  0.97531900  0.61433500  1
  O  O51  1  0.69259700  0.02468100  0.38566500  1
  O  O52  1  0.10460600  0.89928900  0.46053200  1
  O  O53  1  0.89539400  0.10071100  0.53946800  1
  F  F0  1  0.59872400  0.74912600  0.31867900  1
  F  F1  1  0.40127600  0.25087400  0.68132100  1
  F  F2  1  0.66043900  0.58684200  0.20366900  1
  F  F3  1  0.33956100  0.41315800  0.79633100  1
  F  F4  1  0.39068600  0.06773700  0.76525300  1
  F  F5  1  0.60931400  0.93226300  0.23474700  1
loop_
_geom_bond_atom_site_label_1
_geom_bond_atom_site_label_2
_geom_bond_distance
_geom_bond_site_symmetry_2
Na0 O33 2.348228 1_655
Na0 O18 2.356812 1_555
Na0 O29 2.402597 1_655
Na0 O20 2.410049 1_655
Na0 O28 2.431299 1_555
Na0 O34 2.684383 1_555
Na1 O32 2.348228 1_455
Na1 O19 2.356812 1_555
Na1 O28 2.402597 1_455
Na1 O21 2.410049 1_455
Na1 O29 2.431299 1_555
Na1 O35 2.684383 1_555
Na2 O33 2.358291 1_555
Na2 O36 2.368740 1_555
Na2 O34 2.369063 1_455
Na2 O25 2.388618 1_555
Na2 O31 2.410635 1_555
Na2 O20 2.438648 1_555
Na3 O32 2.358291 1_555
Na3 O37 2.368740 1_555
Na3 O35 2.369063 1_655
Na3 O24 2.388618 1_555
Na3 O30 2.410635 1_555
Na3 O21 2.438648 1_555
Na4 O24 2.322358 1_555
Na4 O50 2.335064 1_655
Na4 O53 2.392449 1_565
Na4 O52 2.411464 1_655
Na4 O30 2.525430 1_555
Na4 O35 2.624382 1_655
Na5 O25 2.322358 1_555
Na5 O51 2.335064 1_455
Na5 O52 2.392449 1_545
Na5 O53 2.411464 1_455
Na5 O31 2.525430 1_555
Na5 O34 2.624382 1_455
Na6 O40 2.319879 1_556
Na6 O44 2.368284 1_655
Na6 O43 2.412792 1_655
Na6 O49 2.414490 1_555
Na6 O22 2.511985 1_655
Na6 O38 2.541542 1_555
Na7 O41 2.319879 1_554
Na7 O45 2.368284 1_455
Na7 O42 2.412792 1_455
Na7 O48 2.414490 1_555
Na7 O23 2.511985 1_455
Na7 O39 2.541542 1_555
Na8 O46 2.274842 1_554
Na8 O48 2.369118 1_555
Na8 O42 2.397211 1_555
Na8 O6 2.415877 1_555
Na8 O45 2.425999 1_555
Na8 O23 2.782536 1_555
Na9 O47 2.274842 1_556
Na9 O49 2.369118 1_555
Na9 O43 2.397211 1_555
Na9 O7 2.415877 1_555
Na9 O44 2.425999 1_555
Na9 O22 2.782536 1_555
H0 O18 0.987683 1_555
H1 O19 0.987702 1_555
H2 O18 1.003898 1_555
H3 O19 1.003898 1_555
H4 O20 0.991103 1_555
H5 O21 0.991103 1_555
H6 O20 0.987379 1_555
H7 O21 0.987379 1_555
H8 O22 0.992117 1_555
H9 O23 0.992117 1_555
H10 O22 0.998688 1_554
H11 O23 0.998688 1_556
H12 O24 0.983690 1_555
H13 O25 0.983690 1_555
H14 O24 0.997035 1_555
H15 O25 0.997035 1_555
H16 O26 0.997776 1_555
H17 O27 0.997776 1_555
H18 O26 0.996232 1_555
H19 O27 0.996217 1_555
H20 O28 0.999083 1_555
H21 O29 0.999083 1_555
H22 O28 0.987536 1_555
H23 O29 0.987536 1_555
H24 O30 0.986123 1_555
H25 O31 0.986123 1_555
H26 O30 0.988786 1_555
H27 O31 0.988786 1_555
H28 O32 0.993706 1_555
H29 O33 0.993706 1_555
H30 O32 0.988400 1_555
H31 O33 0.988400 1_555
H32 O34 0.997943 1_555
H33 O35 0.997943 1_555
H34 O34 0.971570 1_555
H35 O35 0.971570 1_555
H36 O36 0.999280 1_555
H37 O37 0.999280 1_555
H38 O36 0.988237 1_555
H39 O37 0.988237 1_555
H40 O38 0.994990 1_555
H41 O39 0.994990 1_555
H42 O38 0.996584 1_455
H43 O39 0.996584 1_655
H44 O40 0.993599 1_555
H45 O41 0.993599 1_555
H46 O40 0.986633 1_555
H47 O41 0.986633 1_555
H48 O42 0.993385 1_556
H49 O43 0.993385 1_554
H50 O42 0.990059 1_455
H51 O43 0.990059 1_655
H52 O44 0.989374 1_555
H53 O45 0.989374 1_555
H54 O44 0.992269 1_555
H55 O45 0.992269 1_555
H56 O46 0.987191 1_555
H57 O47 0.987191 1_555
H58 O46 0.977268 1_555
H59 O47 0.977268 1_555
H60 O48 0.972132 1_555
H61 O49 0.972132 1_555
H62 O48 0.998345 1_555
H63 O49 0.998345 1_555
H64 O50 1.008385 1_545
H65 O51 1.008385 1_565
H66 O50 0.974421 1_555
H67 O51 0.974421 1_555
H68 O52 0.994023 1_555
H69 O53 0.994023 1_555
H70 O52 0.994326 1_555
H71 O53 0.994326 1_555
C0 H74 1.088623 1_555
C0 H72 1.091151 1_555
C0 H76 1.094473 1_555
C0 N0 1.496994 1_555
C1 H75 1.088623 1_555
C1 H73 1.091151 1_555
C1 H77 1.094473 1_555
C1 N1 1.496994 1_555
C2 H82 1.093412 1_555
C2 H80 1.095107 1_555
C2 H78 1.095157 1_555
C2 N0 1.505776 1_555
C3 H83 1.093412 1_555
C3 H81 1.095107 1_555
C3 H79 1.095157 1_555
C3 N1 1.505776 1_555
C4 H84 1.089919 1_555
C4 H86 1.094504 1_555
C4 H88 1.094693 1_555
C4 N0 1.499371 1_655
C5 H85 1.089919 1_555
C5 H87 1.094504 1_555
C5 H89 1.094693 1_555
C5 N1 1.499371 1_455
C6 H92 1.093405 1_555
C6 H90 1.095119 1_455
C6 H94 1.095289 1_555
C6 N0 1.506318 1_555
C7 H93 1.093405 1_555
C7 H91 1.095119 1_655
C7 H95 1.095289 1_555
C7 N1 1.506318 1_555
O0 P0 1.518724 1_555
O1 P1 1.518724 1_555
O2 P0 1.529915 1_555
O3 P1 1.529915 1_555
O4 P0 1.537952 1_555
O5 P1 1.537952 1_555
O6 P2 1.530622 1_555
O7 P3 1.530622 1_555
O8 P2 1.530318 1_555
O9 P3 1.530322 1_555
O10 P2 1.535942 1_555
O11 P3 1.535942 1_555
O12 P4 1.530774 1_555
O13 P5 1.530770 1_555
O14 P4 1.535202 1_555
O15 P5 1.535202 1_555
O16 P4 1.533021 1_555
O17 P5 1.533021 1_555
F0 P0 1.632612 1_555
F1 P1 1.632612 1_555
F2 P2 1.619406 1_555
F3 P3 1.619406 1_555
F4 P4 1.615653 1_545
F5 P5 1.615653 1_565
