# generated using pymatgen
data_CuPO3
_symmetry_space_group_name_H-M   'P 1'
_cell_length_a   5.57196600
_cell_length_b   7.61075200
_cell_length_c   14.08549922
_cell_angle_alpha   61.95793167
_cell_angle_beta   90.00000000
_cell_angle_gamma   90.00000000
_symmetry_Int_Tables_number   1
_chemical_formula_structural   CuPO3
_chemical_formula_sum   'Cu8 P8 O24'
_cell_volume   527.19769324
_cell_formula_units_Z   8
loop_
 _symmetry_equiv_pos_site_id
 _symmetry_equiv_pos_as_xyz
  1  'x, y, z'
loop_
 _atom_site_type_symbol
 _atom_site_label
 _atom_site_symmetry_multiplicity
 _atom_site_fract_x
 _atom_site_fract_y
 _atom_site_fract_z
 _atom_site_occupancy
  Cu  Cu0  1  0.37585000  0.22791100  0.98604100  1
  Cu  Cu1  1  0.86010200  0.25288000  0.14704000  1
  Cu  Cu2  1  0.36010200  0.74712000  0.35296000  1
  Cu  Cu3  1  0.87585000  0.77208900  0.51395900  1
  Cu  Cu4  1  0.12415000  0.22791100  0.48604100  1
  Cu  Cu5  1  0.63989800  0.25288000  0.64704000  1
  Cu  Cu6  1  0.13989800  0.74712000  0.85296000  1
  Cu  Cu7  1  0.62415000  0.77208900  0.01395900  1
  P  P0  1  0.12417000  0.70616700  0.10582000  1
  P  P1  1  0.35499200  0.29878200  0.20802000  1
  P  P2  1  0.85499200  0.70121800  0.29198000  1
  P  P3  1  0.62417000  0.29383300  0.39418000  1
  P  P4  1  0.37583000  0.70616700  0.60582000  1
  P  P5  1  0.14500800  0.29878200  0.70802000  1
  P  P6  1  0.64500800  0.70121800  0.79198000  1
  P  P7  1  0.87583000  0.29383300  0.89418000  1
  O  O0  1  0.32042400  0.85205900  0.04560300  1
  O  O1  1  0.94318900  0.66099400  0.04017200  1
  O  O2  1  0.54094200  0.35066900  0.12063700  1
  O  O3  1  0.98424500  0.79134700  0.17604000  1
  O  O4  1  0.23877800  0.50184800  0.19926900  1
  O  O5  1  0.16060900  0.15566700  0.21568600  1
  O  O6  1  0.66060900  0.84433300  0.28431400  1
  O  O7  1  0.73877800  0.49815200  0.30073100  1
  O  O8  1  0.48424500  0.20865300  0.32396000  1
  O  O9  1  0.04094200  0.64933100  0.37936300  1
  O  O10  1  0.44318900  0.33900600  0.45982800  1
  O  O11  1  0.82042400  0.14794100  0.45439700  1
  O  O12  1  0.17957600  0.85205900  0.54560300  1
  O  O13  1  0.55681100  0.66099400  0.54017200  1
  O  O14  1  0.95905800  0.35066900  0.62063700  1
  O  O15  1  0.51575500  0.79134700  0.67604000  1
  O  O16  1  0.26122200  0.50184800  0.69926900  1
  O  O17  1  0.33939100  0.15566700  0.71568600  1
  O  O18  1  0.83939100  0.84433300  0.78431400  1
  O  O19  1  0.76122200  0.49815200  0.80073100  1
  O  O20  1  0.01575500  0.20865300  0.82396000  1
  O  O21  1  0.45905800  0.64933100  0.87936300  1
  O  O22  1  0.05681100  0.33900600  0.95982800  1
  O  O23  1  0.67957600  0.14794100  0.95439700  1
loop_
_geom_bond_atom_site_label_1
_geom_bond_atom_site_label_2
_geom_bond_distance
_geom_bond_site_symmetry_2
Cu0 O23 1.920474 1_555
Cu0 O22 1.928166 1_555
Cu1 O2 1.895915 1_555
Cu1 O5 1.900882 1_655
Cu2 O9 1.895915 1_555
Cu2 O6 1.900882 1_555
Cu3 O12 1.920474 1_655
Cu3 O13 1.928166 1_555
Cu4 O11 1.920474 1_455
Cu4 O10 1.928166 1_555
Cu5 O14 1.895915 1_555
Cu5 O17 1.900882 1_555
Cu6 O21 1.895915 1_555
Cu6 O18 1.900882 1_455
Cu7 O0 1.920474 1_555
Cu7 O1 1.928166 1_555
O0 P0 1.504187 1_555
O1 P0 1.512964 1_655
O2 P1 1.512417 1_555
O3 P2 1.613341 1_555
O3 P0 1.615337 1_655
O4 P0 1.622947 1_555
O4 P1 1.626011 1_555
O5 P1 1.503514 1_555
O6 P2 1.503514 1_555
O7 P3 1.622947 1_555
O7 P2 1.626011 1_555
O8 P1 1.613341 1_555
O8 P3 1.615337 1_555
O9 P2 1.512417 1_455
O10 P3 1.512964 1_555
O11 P3 1.504187 1_555
O12 P4 1.504187 1_555
O13 P4 1.512964 1_555
O14 P5 1.512417 1_655
O15 P6 1.613341 1_555
O15 P4 1.615337 1_555
O16 P4 1.622947 1_555
O16 P5 1.626011 1_555
O17 P5 1.503514 1_555
O18 P6 1.503514 1_555
O19 P7 1.622947 1_555
O19 P6 1.626011 1_555
O20 P5 1.613341 1_555
O20 P7 1.615337 1_455
O21 P6 1.512417 1_555
O22 P7 1.512964 1_455
O23 P7 1.504187 1_555
