# generated using pymatgen
data_LiCuS
_symmetry_space_group_name_H-M   'P 1'
_cell_length_a   3.87426619
_cell_length_b   3.87426619
_cell_length_c   6.85300700
_cell_angle_alpha   90.00000000
_cell_angle_beta   90.00000000
_cell_angle_gamma   120.00000330
_symmetry_Int_Tables_number   1
_chemical_formula_structural   LiCuS
_chemical_formula_sum   'Li2 Cu2 S2'
_cell_volume   89.08215335
_cell_formula_units_Z   2
loop_
 _symmetry_equiv_pos_site_id
 _symmetry_equiv_pos_as_xyz
  1  'x, y, z'
loop_
 _atom_site_type_symbol
 _atom_site_label
 _atom_site_symmetry_multiplicity
 _atom_site_fract_x
 _atom_site_fract_y
 _atom_site_fract_z
 _atom_site_occupancy
  Li  Li0  1  0.00000000  0.00000000  0.00000000  1
  Li  Li1  1  0.00000000  0.00000000  0.50000000  1
  Cu  Cu0  1  0.33333300  0.66666700  0.25000000  1
  Cu  Cu1  1  0.66666700  0.33333300  0.75000000  1
  S  S0  1  0.33333300  0.66666700  0.75000000  1
  S  S1  1  0.66666700  0.33333300  0.25000000  1
loop_
_geom_bond_atom_site_label_1
_geom_bond_atom_site_label_2
_geom_bond_distance
_geom_bond_site_symmetry_2
Li0 S0 2.817541 1_544
Li0 S1 2.817541 1_455
Li0 S1 2.817543 1_555
Li0 S0 2.817543 1_444
Li0 S1 2.817543 1_445
Li0 S0 2.817543 1_554
Li1 S1 2.817541 1_455
Li1 S0 2.817541 1_545
Li1 S1 2.817543 1_555
Li1 S0 2.817543 1_445
Li1 S0 2.817543 1_555
Li1 S1 2.817543 1_445
Cu0 S1 2.236806 1_455
Cu0 S1 2.236806 1_565
Cu0 S1 2.236813 1_555
Cu0 Li0 2.817541 1_565
Cu0 Li1 2.817541 1_565
Cu0 Li0 2.817543 1_665
Cu0 Li1 2.817543 1_665
Cu0 Li0 2.817543 1_555
Cu0 Li1 2.817543 1_555
Cu1 S0 2.236806 1_545
Cu1 S0 2.236806 1_655
Cu1 S0 2.236813 1_555
Cu1 Li0 2.817541 1_656
Cu1 Li1 2.817541 1_655
Cu1 Li1 2.817543 1_555
Cu1 Li0 2.817543 1_556
Cu1 Li1 2.817543 1_665
Cu1 Li0 2.817543 1_666
