# generated using pymatgen
data_LiVCrP2(HO5)2
_symmetry_space_group_name_H-M   'P 1'
_cell_length_a   5.20093800
_cell_length_b   7.36253623
_cell_length_c   19.33157622
_cell_angle_alpha   94.06953164
_cell_angle_beta   89.36158661
_cell_angle_gamma   105.51563349
_symmetry_Int_Tables_number   1
_chemical_formula_structural   LiVCrP2(HO5)2
_chemical_formula_sum   'Li4 V4 Cr4 P8 H8 O40'
_cell_volume   711.44803297
_cell_formula_units_Z   4
loop_
 _symmetry_equiv_pos_site_id
 _symmetry_equiv_pos_as_xyz
  1  'x, y, z'
loop_
 _atom_site_type_symbol
 _atom_site_label
 _atom_site_symmetry_multiplicity
 _atom_site_fract_x
 _atom_site_fract_y
 _atom_site_fract_z
 _atom_site_occupancy
  Li  Li0  1  0.78752500  0.01171000  0.13947600  1
  Li  Li1  1  0.71331000  0.48829500  0.35982200  1
  Li  Li2  1  0.46307200  0.23912500  0.60974200  1
  Li  Li3  1  0.21243700  0.98888900  0.85997800  1
  V  V0  1  0.38040000  0.38168400  0.12396900  1
  V  V1  1  0.12053400  0.11900300  0.37498100  1
  V  V2  1  0.87090400  0.86940000  0.62492400  1
  V  V3  1  0.62082300  0.61912000  0.87496500  1
  Cr  Cr0  1  0.00035400  0.99991100  0.99981800  1
  Cr  Cr1  1  0.75035700  0.74988900  0.24977400  1
  Cr  Cr2  1  0.50227600  0.50208500  0.49935800  1
  Cr  Cr3  1  0.25217500  0.25214500  0.74937900  1
  P  P0  1  0.41794200  0.74573100  0.03107200  1
  P  P1  1  0.33042300  0.01106700  0.21845000  1
  P  P2  1  0.17012100  0.48924200  0.28104000  1
  P  P3  1  0.08307700  0.75600600  0.46862000  1
  P  P4  1  0.92061200  0.24033200  0.53115800  1
  P  P5  1  0.83292500  0.50623500  0.71861400  1
  P  P6  1  0.67064700  0.99032000  0.78117600  1
  P  P7  1  0.58270300  0.25491200  0.96834400  1
  H  H0  1  0.92218700  0.27613700  0.07092900  1
  H  H1  1  0.84353000  0.49019200  0.17285200  1
  H  H2  1  0.65718900  0.00948500  0.32708700  1
  H  H3  1  0.57986100  0.22544600  0.42842800  1
  H  H4  1  0.40844800  0.76101500  0.57656100  1
  H  H5  1  0.33042100  0.97568000  0.67840600  1
  H  H6  1  0.15798200  0.51114200  0.82651500  1
  H  H7  1  0.07888200  0.72400000  0.92891500  1
  O  O0  1  0.25309400  0.88660100  0.04400300  1
  O  O1  1  0.70945700  0.83543800  0.05398100  1
  O  O2  1  0.60846600  0.33154100  0.04669500  1
  O  O3  1  0.29966400  0.57438700  0.07633700  1
  O  O4  1  0.04711900  0.20040400  0.08105500  1
  O  O5  1  0.03504300  0.92868200  0.19835700  1
  O  O6  1  0.69134100  0.54672800  0.17195000  1
  O  O7  1  0.49391700  0.86575900  0.20592100  1
  O  O8  1  0.46244000  0.17165800  0.17084800  1
  O  O9  1  0.13958800  0.41364200  0.20299200  1
  O  O10  1  0.80969600  0.95322700  0.32776000  1
  O  O11  1  0.00605100  0.63411600  0.29407200  1
  O  O12  1  0.46510400  0.57165800  0.30154600  1
  O  O13  1  0.36086000  0.08687900  0.29679000  1
  O  O14  1  0.03814200  0.32833700  0.32891900  1
  O  O15  1  0.20279000  0.92658000  0.42339000  1
  O  O16  1  0.79204800  0.66538700  0.44528500  1
  O  O17  1  0.45455200  0.30113000  0.41837600  1
  O  O18  1  0.24480900  0.61265300  0.45688300  1
  O  O19  1  0.88652400  0.16635700  0.45276700  1
  O  O20  1  0.10654700  0.83436800  0.54655900  1
  O  O21  1  0.75525700  0.38402400  0.54480800  1
  O  O22  1  0.56100100  0.70491500  0.57716000  1
  O  O23  1  0.21669200  0.32119000  0.55054000  1
  O  O24  1  0.79014200  0.07894200  0.57885200  1
  O  O25  1  0.95240000  0.67684200  0.67344600  1
  O  O26  1  0.63690400  0.91658200  0.70274500  1
  O  O27  1  0.54180100  0.41564700  0.69534400  1
  O  O28  1  0.99491800  0.36301100  0.70689700  1
  O  O29  1  0.20524700  0.05133800  0.66818100  1
  O  O30  1  0.85627000  0.58436700  0.79659900  1
  O  O31  1  0.54040000  0.82897900  0.82887600  1
  O  O32  1  0.50499900  0.13387100  0.79480800  1
  O  O33  1  0.31035900  0.45487800  0.82728700  1
  O  O34  1  0.96682300  0.07116700  0.80054500  1
  O  O35  1  0.95424300  0.79985700  0.91867700  1
  O  O36  1  0.70072900  0.42593000  0.92336400  1
  O  O37  1  0.39222100  0.66928300  0.95301700  1
  O  O38  1  0.29075900  0.16494100  0.94594000  1
  O  O39  1  0.74718800  0.11362600  0.95606000  1
loop_
_geom_bond_atom_site_label_1
_geom_bond_atom_site_label_2
_geom_bond_distance
_geom_bond_site_symmetry_2
Li0 O5 1.969508 1_645
Li0 O1 2.002337 1_545
Li0 O4 2.052708 1_655
Li0 O7 2.100180 1_545
Li0 O8 2.356742 1_555
Li1 O12 1.966399 1_555
Li1 O16 2.005227 1_555
Li1 O17 2.046122 1_555
Li1 O11 2.088624 1_655
Li1 O14 2.353752 1_655
Li2 O23 1.965177 1_555
Li2 O27 2.005074 1_555
Li2 O29 2.044988 1_555
Li2 O21 2.074452 1_555
Li2 O24 2.364702 1_555
Li3 O34 1.965786 1_465
Li3 O38 2.008590 1_565
Li3 O35 2.053825 1_455
Li3 O32 2.078718 1_565
Li3 O31 2.368159 1_555
Cr0 O39 1.966047 1_465
Cr0 O0 1.966288 1_556
Cr0 O38 2.001281 1_565
Cr0 O1 2.004039 1_456
Cr0 O35 2.044235 1_455
Cr0 O4 2.047393 1_566
Cr1 O7 1.990440 1_555
Cr1 O11 1.990934 1_655
Cr1 O5 2.005804 1_655
Cr1 O12 2.009083 1_555
Cr1 O6 2.010034 1_555
Cr1 O10 2.013002 1_555
Cr2 O18 1.957702 1_555
Cr2 O16 1.995850 1_555
Cr2 O21 2.001182 1_555
Cr2 O22 2.008211 1_555
Cr2 O23 2.013668 1_555
Cr2 O17 2.045702 1_555
Cr3 O28 1.958270 1_455
Cr3 O27 1.995638 1_555
Cr3 O32 2.001359 1_555
Cr3 O33 2.009288 1_555
Cr3 O34 2.013140 1_455
Cr3 O29 2.048265 1_555
H0 O4 0.991752 1_655
H1 O6 0.988780 1_555
H2 O10 0.988751 1_545
H3 O17 0.992717 1_555
H4 O22 0.988159 1_555
H5 O29 0.992824 1_565
H6 O33 0.988262 1_555
H7 O35 0.991740 1_455
O0 P0 1.519021 1_555
O1 P0 1.539083 1_555
O2 P7 1.572643 1_554
O2 V0 1.972639 1_555
O3 P0 1.570054 1_555
O3 V0 1.884120 1_555
O4 V0 2.027645 1_555
O5 P1 1.536292 1_565
O6 V0 1.942760 1_555
O7 P1 1.539995 1_565
O8 P1 1.556353 1_555
O8 V0 1.988709 1_555
O9 P2 1.565354 1_555
O9 V0 2.005412 1_555
O10 V1 1.937951 1_665
O11 P2 1.540571 1_555
O12 P2 1.536370 1_555
O13 P1 1.571057 1_555
O13 V1 1.992073 1_555
O14 P2 1.561320 1_555
O14 V1 1.977004 1_555
O15 P3 1.566762 1_555
O15 V1 1.894000 1_565
O16 P3 1.540098 1_655
O17 V1 2.036232 1_555
O18 P3 1.519774 1_555
O19 P4 1.568997 1_555
O19 V1 1.993948 1_655
O20 P3 1.568726 1_555
O20 V2 1.983884 1_455
O21 P4 1.539657 1_555
O22 V2 1.935767 1_555
O23 P4 1.535191 1_455
O24 P4 1.559690 1_555
O24 V2 1.974802 1_545
O25 P5 1.565991 1_555
O25 V2 1.894339 1_555
O26 P6 1.569238 1_555
O26 V2 1.994052 1_555
O27 P5 1.540152 1_555
O28 P5 1.519950 1_555
O29 V2 2.035830 1_445
O30 P5 1.569093 1_555
O30 V3 1.982748 1_555
O31 P6 1.559256 1_555
O31 V3 1.976249 1_555
O32 P6 1.539890 1_545
O33 V3 1.936333 1_555
O34 P6 1.535576 1_545
O35 V3 2.032336 1_555
O36 P7 1.564701 1_555
O36 V3 1.893422 1_555
O37 P0 1.566916 1_556
O37 V3 1.985580 1_555
O38 P7 1.538729 1_555
O39 P7 1.518815 1_555
