# generated using pymatgen
data_Li4Mn2Cr3Sb3O16
_symmetry_space_group_name_H-M   'P 1'
_cell_length_a   6.11290591
_cell_length_b   6.11290591
_cell_length_c   10.01914797
_cell_angle_alpha   89.90885349
_cell_angle_beta   89.90885349
_cell_angle_gamma   60.37333208
_symmetry_Int_Tables_number   1
_chemical_formula_structural   Li4Mn2Cr3Sb3O16
_chemical_formula_sum   'Li4 Mn2 Cr3 Sb3 O16'
_cell_volume   325.44502558
_cell_formula_units_Z   1
loop_
 _symmetry_equiv_pos_site_id
 _symmetry_equiv_pos_as_xyz
  1  'x, y, z'
loop_
 _atom_site_type_symbol
 _atom_site_label
 _atom_site_symmetry_multiplicity
 _atom_site_fract_x
 _atom_site_fract_y
 _atom_site_fract_z
 _atom_site_occupancy
  Li  Li0  1  0.32843700  0.32843700  0.09920200  1
  Li  Li1  1  0.99202100  0.99202100  0.99418800  1
  Li  Li2  1  0.99071100  0.99071100  0.50934700  1
  Li  Li3  1  0.66309100  0.66309100  0.63101700  1
  Mn  Mn0  1  0.34596400  0.34596400  0.52035100  1
  Mn  Mn1  1  0.67388300  0.67388300  0.98330700  1
  Cr  Cr0  1  0.66385700  0.16883800  0.78508400  1
  Cr  Cr1  1  0.16883800  0.66385700  0.78508400  1
  Cr  Cr2  1  0.83252000  0.83252000  0.28338400  1
  Sb  Sb0  1  0.16933100  0.16933100  0.78437800  1
  Sb  Sb1  1  0.83281300  0.33739700  0.28349800  1
  Sb  Sb2  1  0.33739700  0.83281300  0.28349800  1
  O  O0  1  0.69474100  0.15996500  0.39120100  1
  O  O1  1  0.48398200  0.48398200  0.67289400  1
  O  O2  1  0.33181700  0.33181700  0.89396400  1
  O  O3  1  0.00135500  0.00135500  0.68681200  1
  O  O4  1  0.00067400  0.00067400  0.18013500  1
  O  O5  1  0.15996500  0.69474100  0.39120100  1
  O  O6  1  0.47978700  0.03024200  0.66946600  1
  O  O7  1  0.03024200  0.47978700  0.66946600  1
  O  O8  1  0.84579500  0.84579500  0.89199700  1
  O  O9  1  0.15467200  0.15467200  0.39476800  1
  O  O10  1  0.96843800  0.51071400  0.17390100  1
  O  O11  1  0.51071400  0.96843800  0.17390100  1
  O  O12  1  0.66663100  0.66663100  0.39425400  1
  O  O13  1  0.85266000  0.30783100  0.89665800  1
  O  O14  1  0.51207900  0.51207900  0.17254900  1
  O  O15  1  0.30783100  0.85266000  0.89665800  1
loop_
_geom_bond_atom_site_label_1
_geom_bond_atom_site_label_2
_geom_bond_distance
_geom_bond_site_symmetry_2
Li0 O10 2.053674 1_455
Li0 O11 2.053674 1_545
Li0 O2 2.056554 1_554
Li0 O14 2.076449 1_555
Li1 O8 1.855285 1_555
Li1 O4 1.865441 1_666
Li1 O13 1.943739 1_565
Li1 O15 1.943739 1_655
Li2 O3 1.781809 1_665
Li2 O0 1.974130 1_565
Li2 O5 1.974130 1_655
Li2 O9 2.076745 1_665
Li3 O1 1.937995 1_555
Li3 O7 1.988989 1_655
Li3 O6 1.988989 1_565
Li3 O12 2.372390 1_555
Mn0 O1 2.114582 1_555
Mn0 O7 2.249405 1_555
Mn0 O6 2.249405 1_555
Mn0 O0 2.260955 1_555
Mn0 O5 2.260955 1_555
Mn0 O9 2.383106 1_555
Mn1 O8 2.032585 1_555
Mn1 O13 2.130833 1_555
Mn1 O15 2.130833 1_555
Mn1 O11 2.472396 1_556
Mn1 O10 2.472396 1_556
Mn1 O14 2.550862 1_556
Cr0 O1 2.021499 1_555
Cr0 O8 2.027206 1_545
Cr0 O3 2.045090 1_655
Cr0 O6 2.067737 1_555
Cr0 O13 2.068872 1_555
Cr0 O2 2.073524 1_555
Cr1 O1 2.021499 1_555
Cr1 O8 2.027206 1_455
Cr1 O3 2.045090 1_565
Cr1 O7 2.067737 1_555
Cr1 O15 2.068872 1_555
Cr1 O2 2.073524 1_555
Cr2 O10 2.037483 1_555
Cr2 O11 2.037483 1_555
Cr2 O0 2.054271 1_565
Cr2 O5 2.054271 1_655
Cr2 O4 2.054557 1_665
Cr2 O12 2.073670 1_555
O0 Sb1 1.987888 1_555
O2 Sb0 2.039854 1_555
O3 Sb0 2.028081 1_555
O4 Sb1 2.068188 1_455
O4 Sb2 2.068188 1_545
O5 Sb2 1.987888 1_555
O6 Sb0 2.012680 1_555
O7 Sb0 2.012680 1_555
O9 Sb1 2.047373 1_455
O9 Sb2 2.047373 1_545
O10 Sb1 1.969115 1_555
O11 Sb2 1.969115 1_555
O12 Sb1 2.072671 1_555
O12 Sb2 2.072671 1_555
O13 Sb0 2.026149 1_655
O14 Sb1 2.037937 1_555
O14 Sb2 2.037937 1_555
O15 Sb0 2.026149 1_565
