# generated using pymatgen
data_NaCO3
_symmetry_space_group_name_H-M   'P 1'
_cell_length_a   9.15164117
_cell_length_b   3.46061593
_cell_length_c   8.21321506
_cell_angle_alpha   71.88998346
_cell_angle_beta   90.00000000
_cell_angle_gamma   90.00000000
_symmetry_Int_Tables_number   1
_chemical_formula_structural   NaCO3
_chemical_formula_sum   'Na4 C4 O12'
_cell_volume   247.22937229
_cell_formula_units_Z   4
loop_
 _symmetry_equiv_pos_site_id
 _symmetry_equiv_pos_as_xyz
  1  'x, y, z'
loop_
 _atom_site_type_symbol
 _atom_site_label
 _atom_site_symmetry_multiplicity
 _atom_site_fract_x
 _atom_site_fract_y
 _atom_site_fract_z
 _atom_site_occupancy
  Na  Na0  1  0.50078977  0.57715711  0.20021085  1
  Na  Na1  1  0.00078977  0.42284289  0.29978915  1
  Na  Na2  1  0.49921023  0.42284289  0.79978915  1
  Na  Na3  1  0.99921023  0.57715711  0.70021085  1
  C  C0  1  0.72725719  0.80372039  0.43997054  1
  C  C1  1  0.22725719  0.19627961  0.06002946  1
  C  C2  1  0.27274281  0.19627961  0.56002946  1
  C  C3  1  0.77274281  0.80372039  0.93997054  1
  O  O0  1  0.86497795  0.82419855  0.43637426  1
  O  O1  1  0.36497795  0.17580145  0.06362574  1
  O  O2  1  0.13502205  0.17580145  0.56362574  1
  O  O3  1  0.63502205  0.82419855  0.93637426  1
  O  O4  1  0.64416830  0.99861027  0.31687015  1
  O  O5  1  0.14416830  0.00138973  0.18312985  1
  O  O6  1  0.35583170  0.00138973  0.68312985  1
  O  O7  1  0.85583170  0.99861027  0.81687015  1
  O  O8  1  0.65824230  0.57423345  0.56944684  1
  O  O9  1  0.15824230  0.42576655  0.93055316  1
  O  O10  1  0.34175770  0.42576655  0.43055316  1
  O  O11  1  0.84175770  0.57423345  0.06944684  1
loop_
_geom_bond_atom_site_label_1
_geom_bond_atom_site_label_2
_geom_bond_distance
_geom_bond_site_symmetry_2
Na0 O10 2.314216 1_555
Na0 O4 2.335744 1_545
Na0 O4 2.373971 1_555
Na0 O1 2.377034 1_565
Na0 O1 2.387687 1_555
Na0 O3 2.404976 1_554
Na1 O11 2.314216 1_455
Na1 O5 2.335744 1_565
Na1 O5 2.373971 1_555
Na1 O0 2.377034 1_445
Na1 O0 2.387687 1_455
Na1 O2 2.404976 1_555
Na2 O8 2.314216 1_555
Na2 O6 2.335744 1_565
Na2 O6 2.373971 1_555
Na2 O3 2.377034 1_545
Na2 O3 2.387687 1_555
Na2 O1 2.404976 1_556
Na3 O9 2.314216 1_655
Na3 O7 2.335744 1_545
Na3 O7 2.373971 1_555
Na3 O2 2.377034 1_665
Na3 O2 2.387687 1_655
Na3 O0 2.404976 1_555
C0 O0 1.262192 1_555
C0 O4 1.277253 1_555
C0 O8 1.278844 1_555
C1 O1 1.262192 1_555
C1 O5 1.277253 1_555
C1 O9 1.278844 1_554
C2 O2 1.262192 1_555
C2 O6 1.277253 1_555
C2 O10 1.278844 1_555
C3 O3 1.262192 1_555
C3 O7 1.277253 1_555
C3 O11 1.278844 1_556
