# generated using pymatgen
data_Li2FeNi(PO4)2
_symmetry_space_group_name_H-M   'P 1'
_cell_length_a   4.74089410
_cell_length_b   10.29715725
_cell_length_c   6.00666700
_cell_angle_alpha   89.99954327
_cell_angle_beta   90.00029974
_cell_angle_gamma   89.75349358
_symmetry_Int_Tables_number   1
_chemical_formula_structural   Li2FeNi(PO4)2
_chemical_formula_sum   'Li4 Fe2 Ni2 P4 O16'
_cell_volume   293.22914661
_cell_formula_units_Z   2
loop_
 _symmetry_equiv_pos_site_id
 _symmetry_equiv_pos_as_xyz
  1  'x, y, z'
loop_
 _atom_site_type_symbol
 _atom_site_label
 _atom_site_symmetry_multiplicity
 _atom_site_fract_x
 _atom_site_fract_y
 _atom_site_fract_z
 _atom_site_occupancy
  Li  Li0  1  0.99995600  0.99998500  0.00001900  1
  Li  Li1  1  0.99995600  0.99998600  0.49998000  1
  Li  Li2  1  0.50000500  0.50001600  0.00002400  1
  Li  Li3  1  0.50000500  0.50001500  0.49997400  1
  Fe  Fe0  1  0.02422300  0.72288800  0.74999800  1
  Fe  Fe1  1  0.97561500  0.27704400  0.25000100  1
  Ni  Ni0  1  0.48394400  0.22034900  0.74999500  1
  Ni  Ni1  1  0.51625700  0.77969400  0.25001600  1
  P  P0  1  0.41844600  0.09125900  0.24999800  1
  P  P1  1  0.58149800  0.90876700  0.75000400  1
  P  P2  1  0.91712100  0.40272700  0.75000100  1
  P  P3  1  0.08289800  0.59725700  0.24999700  1
  O  O0  1  0.70527100  0.04878800  0.74999600  1
  O  O1  1  0.29467800  0.95123900  0.25000400  1
  O  O2  1  0.74212500  0.09348500  0.25000000  1
  O  O3  1  0.25782900  0.90647300  0.74999800  1
  O  O4  1  0.24144000  0.39748500  0.75000000  1
  O  O5  1  0.75855700  0.60252100  0.24999900  1
  O  O6  1  0.20310500  0.45689100  0.24999900  1
  O  O7  1  0.79681700  0.54307200  0.75000000  1
  O  O8  1  0.28300700  0.16254000  0.04368900  1
  O  O9  1  0.28300500  0.16254400  0.45630000  1
  O  O10  1  0.71707200  0.83752100  0.54369400  1
  O  O11  1  0.71706800  0.83752500  0.95631800  1
  O  O12  1  0.77822800  0.33167200  0.54590400  1
  O  O13  1  0.77823000  0.33167200  0.95409900  1
  O  O14  1  0.22182100  0.66829200  0.04589200  1
  O  O15  1  0.22182400  0.66829200  0.45410100  1
loop_
_geom_bond_atom_site_label_1
_geom_bond_atom_site_label_2
_geom_bond_distance
_geom_bond_site_symmetry_2
Li0 O1 2.110192 1_655
Li0 O0 2.110376 1_564
Li0 O2 2.160016 1_565
Li0 O3 2.160350 1_654
Li0 O11 2.164576 1_554
Li0 O8 2.165794 1_665
Li1 O1 2.110172 1_655
Li1 O0 2.110360 1_565
Li1 O2 2.159987 1_565
Li1 O3 2.160322 1_655
Li1 O10 2.164612 1_555
Li1 O9 2.165817 1_665
Li2 O7 2.106528 1_554
Li2 O6 2.106749 1_555
Li2 O14 2.190450 1_555
Li2 O13 2.191161 1_554
Li2 O5 2.209592 1_555
Li2 O4 2.209955 1_554
Li3 O7 2.106534 1_555
Li3 O6 2.106742 1_555
Li3 O15 2.190448 1_555
Li3 O12 2.191146 1_555
Li3 O5 2.209595 1_555
Li3 O4 2.209956 1_555
Fe0 O14 2.085183 1_556
Fe0 O15 2.085221 1_555
Fe0 O7 2.146600 1_455
Fe0 O3 2.195040 1_555
Fe0 O10 2.243779 1_455
Fe0 O11 2.243885 1_455
Fe1 O13 2.084860 1_554
Fe1 O12 2.084885 1_555
Fe1 O6 2.147078 1_655
Fe1 O2 2.194529 1_555
Fe1 O9 2.243779 1_655
Fe1 O8 2.243869 1_655
Ni0 O0 2.050828 1_555
Ni0 O9 2.092565 1_555
Ni0 O8 2.092567 1_556
Ni0 O4 2.151906 1_555
Ni0 O12 2.185664 1_555
Ni0 O13 2.185716 1_555
Ni1 O1 2.051294 1_555
Ni1 O10 2.092275 1_555
Ni1 O11 2.092380 1_554
Ni1 O5 2.151715 1_555
Ni1 O15 2.186526 1_555
Ni1 O14 2.186668 1_555
O0 P1 1.558989 1_545
O1 P0 1.558971 1_565
O2 P0 1.534798 1_555
O3 P1 1.534764 1_555
O4 P2 1.538277 1_455
O5 P3 1.538388 1_655
O6 P3 1.551381 1_555
O7 P2 1.551347 1_555
O8 P0 1.575643 1_555
O9 P0 1.575647 1_555
O10 P1 1.575754 1_555
O11 P1 1.575732 1_555
O12 P2 1.573535 1_555
O13 P2 1.573532 1_555
O14 P3 1.573532 1_555
O15 P3 1.573537 1_555
