# generated using pymatgen
data_NiH10(SeO5)2
_symmetry_space_group_name_H-M   'P 1'
_cell_length_a   8.12340248
_cell_length_b   8.12340248
_cell_length_c   12.14188046
_cell_angle_alpha   61.18100326
_cell_angle_beta   61.18100326
_cell_angle_gamma   59.18832608
_symmetry_Int_Tables_number   1
_chemical_formula_structural   NiH10(SeO5)2
_chemical_formula_sum   'Ni2 H20 Se4 O20'
_cell_volume   572.72834297
_cell_formula_units_Z   2
loop_
 _symmetry_equiv_pos_site_id
 _symmetry_equiv_pos_as_xyz
  1  'x, y, z'
loop_
 _atom_site_type_symbol
 _atom_site_label
 _atom_site_symmetry_multiplicity
 _atom_site_fract_x
 _atom_site_fract_y
 _atom_site_fract_z
 _atom_site_occupancy
  Ni  Ni0  1  0.70648800  0.29351200  0.25000000  1
  Ni  Ni1  1  0.29351200  0.70648800  0.75000000  1
  H  H0  1  0.59476800  0.91228700  0.64586700  1
  H  H1  1  0.08771300  0.40523200  0.85413300  1
  H  H2  1  0.40523200  0.08771300  0.35413300  1
  H  H3  1  0.91228700  0.59476800  0.14586700  1
  H  H4  1  0.10342300  0.03983500  0.20070400  1
  H  H5  1  0.96016500  0.89657700  0.29929600  1
  H  H6  1  0.89657700  0.96016500  0.79929600  1
  H  H7  1  0.03983500  0.10342300  0.70070400  1
  H  H8  1  0.39533400  0.64625300  0.17479400  1
  H  H9  1  0.35374700  0.60466600  0.32520600  1
  H  H10  1  0.60466600  0.35374700  0.82520600  1
  H  H11  1  0.64625300  0.39533400  0.67479400  1
  H  H12  1  0.13385600  0.75663300  0.95775800  1
  H  H13  1  0.24336700  0.86614400  0.54224200  1
  H  H14  1  0.86614400  0.24336700  0.04224200  1
  H  H15  1  0.75663300  0.13385600  0.45775800  1
  H  H16  1  0.25144700  0.04939000  0.86745400  1
  H  H17  1  0.95061000  0.74855300  0.63254600  1
  H  H18  1  0.74855300  0.95061000  0.13254600  1
  H  H19  1  0.04939000  0.25144700  0.36745400  1
  Se  Se0  1  0.76235300  0.66251600  0.86295900  1
  Se  Se1  1  0.33748400  0.23764700  0.63704100  1
  Se  Se2  1  0.23764700  0.33748400  0.13704100  1
  Se  Se3  1  0.66251600  0.76235300  0.36295900  1
  O  O0  1  0.55325100  0.02636500  0.34487700  1
  O  O1  1  0.97363500  0.44674900  0.15512300  1
  O  O2  1  0.44674900  0.97363500  0.65512300  1
  O  O3  1  0.02636500  0.55325100  0.84487700  1
  O  O4  1  0.73175900  0.33686900  0.07281500  1
  O  O5  1  0.66313100  0.26824100  0.42718500  1
  O  O6  1  0.26824100  0.66313100  0.92718500  1
  O  O7  1  0.33686900  0.73175900  0.57281500  1
  O  O8  1  0.80993500  0.75778900  0.67739600  1
  O  O9  1  0.24221100  0.19006500  0.82260400  1
  O  O10  1  0.19006500  0.24221100  0.32260400  1
  O  O11  1  0.75778900  0.80993500  0.17739600  1
  O  O12  1  0.96628700  0.03371300  0.25000000  1
  O  O13  1  0.03371300  0.96628700  0.75000000  1
  O  O14  1  0.44486600  0.55513400  0.25000000  1
  O  O15  1  0.55513400  0.44486600  0.75000000  1
  O  O16  1  0.29633300  0.13328600  0.10639100  1
  O  O17  1  0.86671400  0.70366700  0.39360900  1
  O  O18  1  0.70366700  0.86671400  0.89360900  1
  O  O19  1  0.13328600  0.29633300  0.60639100  1
loop_
_geom_bond_atom_site_label_1
_geom_bond_atom_site_label_2
_geom_bond_distance
_geom_bond_site_symmetry_2
Ni0 O4 1.926736 1_555
Ni0 O5 1.926736 1_555
Ni0 O12 2.084507 1_555
Ni0 O14 2.099134 1_555
Ni0 O0 2.561416 1_555
Ni0 O1 2.561416 1_555
Ni1 O7 1.926736 1_555
Ni1 O6 1.926736 1_555
Ni1 O13 2.084507 1_555
Ni1 O15 2.099134 1_555
Ni1 O3 2.561416 1_555
Ni1 O2 2.561416 1_555
H0 O2 1.008285 1_555
H0 O8 1.646638 1_555
H1 O3 1.008285 1_555
H1 O9 1.646638 1_555
H2 O0 1.008285 1_555
H2 O10 1.646638 1_555
H3 O1 1.008285 1_555
H3 O11 1.646638 1_555
H4 O12 0.993462 1_455
H4 O16 1.730293 1_555
H5 O12 0.993462 1_565
H5 O17 1.730293 1_555
H6 O13 0.993462 1_655
H6 O18 1.730293 1_555
H7 O13 0.993462 1_545
H7 O19 1.730293 1_555
H8 O14 0.970105 1_555
H9 O14 0.970105 1_555
H10 O15 0.970105 1_555
H11 O15 0.970105 1_555
H12 O6 0.968585 1_555
H13 O7 0.968585 1_555
H14 O4 0.968585 1_555
H15 O5 0.968585 1_555
H16 O9 0.979631 1_555
H17 O8 0.979631 1_555
H18 O11 0.979631 1_555
H19 O10 0.979631 1_555
O0 Se3 1.794285 1_545
O1 Se2 1.794285 1_655
O2 Se1 1.794285 1_565
O3 Se0 1.794285 1_455
O8 Se0 1.900131 1_555
O9 Se1 1.900131 1_555
O10 Se2 1.900131 1_555
O11 Se3 1.900131 1_555
O16 Se2 1.652668 1_555
O17 Se3 1.652668 1_555
O18 Se0 1.652668 1_555
O19 Se1 1.652668 1_555
