# generated using pymatgen
data_LiVCrP2(HO5)2
_symmetry_space_group_name_H-M   'P 1'
_cell_length_a   5.20352100
_cell_length_b   7.36326010
_cell_length_c   14.51604143
_cell_angle_alpha   91.84160681
_cell_angle_beta   93.85046245
_cell_angle_gamma   105.51099300
_symmetry_Int_Tables_number   1
_chemical_formula_structural   LiVCrP2(HO5)2
_chemical_formula_sum   'Li3 V3 Cr3 P6 H6 O30'
_cell_volume   533.98770273
_cell_formula_units_Z   3
loop_
 _symmetry_equiv_pos_site_id
 _symmetry_equiv_pos_as_xyz
  1  'x, y, z'
loop_
 _atom_site_type_symbol
 _atom_site_label
 _atom_site_symmetry_multiplicity
 _atom_site_fract_x
 _atom_site_fract_y
 _atom_site_fract_z
 _atom_site_occupancy
  Li  Li0  1  0.25869000  0.03528800  0.18603600  1
  Li  Li1  1  0.40707000  0.63115400  0.47988700  1
  Li  Li2  1  0.74133500  0.96390900  0.81340900  1
  V  V0  1  0.66117600  0.65992900  0.16548300  1
  V  V1  1  0.00445700  0.00594900  0.50022000  1
  V  V2  1  0.33776300  0.33930100  0.83349100  1
  Cr  Cr0  1  0.99984000  0.00011400  0.99979600  1
  Cr  Cr1  1  0.33314500  0.33352800  0.33307000  1
  Cr  Cr2  1  0.66420600  0.66412400  0.66592000  1
  P  P0  1  0.59263700  0.26470700  0.04149800  1
  P  P1  1  0.74262500  0.06179700  0.29145900  1
  P  P2  1  0.92351500  0.60461000  0.37476400  1
  P  P3  1  0.07339200  0.40020900  0.62497000  1
  P  P4  1  0.25639000  0.93673400  0.70834300  1
  P  P5  1  0.40693300  0.73479100  0.95796300  1
  H  H0  1  0.10110600  0.74766400  0.09467000  1
  H  H1  1  0.21465600  0.56735000  0.23036800  1
  H  H2  1  0.45141400  0.09964600  0.43636900  1
  H  H3  1  0.56345800  0.91734400  0.57123700  1
  H  H4  1  0.78410100  0.43113100  0.76888100  1
  H  H5  1  0.89789000  0.25230600  0.90517100  1
  O  O0  1  0.76211800  0.12838400  0.05864300  1
  O  O1  1  0.30888700  0.18236500  0.07192800  1
  O  O2  1  0.40733900  0.68433200  0.06232800  1
  O  O3  1  0.72536700  0.45115500  0.10180800  1
  O  O4  1  0.97980200  0.82691500  0.10806900  1
  O  O5  1  0.03110900  0.13750300  0.26463200  1
  O  O6  1  0.36667400  0.51075600  0.22939700  1
  O  O7  1  0.57463100  0.20268700  0.27470000  1
  O  O8  1  0.73834000  0.01213100  0.39579200  1
  O  O9  1  0.59514500  0.88537600  0.22780700  1
  O  O10  1  0.92787300  0.65417000  0.27067100  1
  O  O11  1  0.09227900  0.46433000  0.39203000  1
  O  O12  1  0.29904900  0.15595300  0.43703500  1
  O  O13  1  0.63547000  0.52882500  0.40200200  1
  O  O14  1  0.07083000  0.78134300  0.43862700  1
  O  O15  1  0.93894000  0.21452900  0.56460900  1
  O  O16  1  0.35628900  0.48314700  0.59374000  1
  O  O17  1  0.68503200  0.83812500  0.55782000  1
  O  O18  1  0.90728300  0.53930000  0.60928100  1
  O  O19  1  0.07626600  0.34794800  0.72881300  1
  O  O20  1  0.40218100  0.11384700  0.77197500  1
  O  O21  1  0.26397300  0.98449500  0.60377100  1
  O  O22  1  0.42664700  0.79776800  0.72634600  1
  O  O23  1  0.63172200  0.48730400  0.76963800  1
  O  O24  1  0.96670500  0.86219100  0.73399200  1
  O  O25  1  0.01895100  0.17299700  0.89151300  1
  O  O26  1  0.27450400  0.54863900  0.89788900  1
  O  O27  1  0.59215000  0.31499800  0.93739300  1
  O  O28  1  0.69109600  0.81744800  0.92800500  1
  O  O29  1  0.23785200  0.87155600  0.94139900  1
loop_
_geom_bond_atom_site_label_1
_geom_bond_atom_site_label_2
_geom_bond_distance
_geom_bond_site_symmetry_2
Li0 O5 1.968114 1_555
Li0 O1 2.001699 1_555
Li0 O4 2.053753 1_445
Li0 O7 2.099667 1_555
Li0 O9 2.363327 1_545
Li1 O13 1.965476 1_555
Li1 O16 2.002327 1_555
Li1 O17 2.045683 1_555
Li1 O11 2.088317 1_555
Li1 O14 2.362118 1_555
Li2 O24 1.964963 1_555
Li2 O28 2.005353 1_555
Li2 O25 2.054466 1_665
Li2 O22 2.080004 1_555
Li2 O20 2.374311 1_565
Cr0 O29 1.965960 1_645
Cr0 O0 1.966427 1_556
Cr0 O28 2.001360 1_545
Cr0 O1 2.003153 1_656
Cr0 O25 2.045226 1_655
Cr0 O4 2.046272 1_546
Cr1 O7 1.990752 1_555
Cr1 O11 1.991918 1_555
Cr1 O5 2.006296 1_555
Cr1 O13 2.007516 1_555
Cr1 O6 2.009454 1_555
Cr1 O12 2.014297 1_555
Cr2 O18 1.957927 1_555
Cr2 O16 1.995902 1_555
Cr2 O22 2.001638 1_555
Cr2 O23 2.008213 1_555
Cr2 O24 2.012890 1_555
Cr2 O17 2.047777 1_555
H0 O4 0.991452 1_455
H1 O6 0.988434 1_555
H2 O12 0.988513 1_555
H3 O17 0.992467 1_555
H4 O23 0.988022 1_555
H5 O25 0.991588 1_655
O0 P0 1.518981 1_555
O1 P0 1.539085 1_555
O2 P5 1.571413 1_554
O2 V0 1.974268 1_555
O3 P0 1.569273 1_555
O3 V0 1.885164 1_555
O4 V0 2.028897 1_555
O5 P1 1.536456 1_455
O6 V0 1.942119 1_555
O7 P1 1.540211 1_555
O8 P1 1.569626 1_555
O8 V1 1.993418 1_655
O9 P1 1.557106 1_565
O9 V0 1.985573 1_555
O10 P2 1.566038 1_555
O10 V0 2.002547 1_555
O11 P2 1.540500 1_455
O12 V1 1.938922 1_555
O13 P2 1.536457 1_555
O14 P2 1.560115 1_455
O14 V1 1.976302 1_565
O15 P3 1.567017 1_655
O15 V1 1.891873 1_655
O16 P3 1.540139 1_555
O17 V1 2.035519 1_665
O18 P3 1.519836 1_655
O19 P3 1.567756 1_555
O19 V2 1.984779 1_555
O20 P4 1.558453 1_545
O20 V2 1.976904 1_555
O21 P4 1.569842 1_555
O21 V1 1.991162 1_565
O22 P4 1.539853 1_555
O23 V2 1.936563 1_555
O24 P4 1.535607 1_655
O25 V2 2.031851 1_555
O26 P5 1.565685 1_555
O26 V2 1.891625 1_555
O27 P0 1.567415 1_556
O27 V2 1.983667 1_555
O28 P5 1.538824 1_555
O29 P5 1.518895 1_555
