# generated using pymatgen
data_Li4Cr2Si3O10
_symmetry_space_group_name_H-M   'P 1'
_cell_length_a   5.42090568
_cell_length_b   5.42090568
_cell_length_c   16.71014148
_cell_angle_alpha   81.91731694
_cell_angle_beta   81.91731694
_cell_angle_gamma   61.95968741
_symmetry_Int_Tables_number   1
_chemical_formula_structural   Li4Cr2Si3O10
_chemical_formula_sum   'Li8 Cr4 Si6 O20'
_cell_volume   427.53930149
_cell_formula_units_Z   2
loop_
 _symmetry_equiv_pos_site_id
 _symmetry_equiv_pos_as_xyz
  1  'x, y, z'
loop_
 _atom_site_type_symbol
 _atom_site_label
 _atom_site_symmetry_multiplicity
 _atom_site_fract_x
 _atom_site_fract_y
 _atom_site_fract_z
 _atom_site_occupancy
  Li  Li0  1  0.83461900  0.67022900  0.94765100  1
  Li  Li1  1  0.58404300  0.79844600  0.77046100  1
  Li  Li2  1  0.67023000  0.83461900  0.44765100  1
  Li  Li3  1  0.79844600  0.58404300  0.27046100  1
  Li  Li4  1  0.20155400  0.41595700  0.72953900  1
  Li  Li5  1  0.32977100  0.16538100  0.55234900  1
  Li  Li6  1  0.41595700  0.20155400  0.22953900  1
  Li  Li7  1  0.16538100  0.32977100  0.05234900  1
  Cr  Cr0  1  0.20065200  0.97849400  0.91681600  1
  Cr  Cr1  1  0.97849400  0.20065200  0.41681600  1
  Cr  Cr2  1  0.02150700  0.79934800  0.58318400  1
  Cr  Cr3  1  0.79934800  0.02150700  0.08318400  1
  Si  Si0  1  0.65582300  0.46613500  0.59867400  1
  Si  Si1  1  0.88898200  0.11101800  0.75000000  1
  Si  Si2  1  0.53386500  0.34417700  0.90132600  1
  Si  Si3  1  0.46613500  0.65582300  0.09867400  1
  Si  Si4  1  0.11101800  0.88898200  0.25000000  1
  Si  Si5  1  0.34417700  0.53386500  0.40132600  1
  O  O0  1  0.92745000  0.84036000  0.70845000  1
  O  O1  1  0.84036000  0.92745000  0.20845000  1
  O  O2  1  0.59753300  0.78126400  0.56525100  1
  O  O3  1  0.58023500  0.62714100  0.88401700  1
  O  O4  1  0.80095700  0.40038000  0.68716400  1
  O  O5  1  0.77202700  0.09574900  0.95792800  1
  O  O6  1  0.90425100  0.22797300  0.54207200  1
  O  O7  1  0.78126400  0.59753300  0.06525100  1
  O  O8  1  0.62714100  0.58023500  0.38401700  1
  O  O9  1  0.59962000  0.19904300  0.81283600  1
  O  O10  1  0.40038000  0.80095700  0.18716400  1
  O  O11  1  0.37285900  0.41976500  0.61598300  1
  O  O12  1  0.21873600  0.40246700  0.93474900  1
  O  O13  1  0.09574900  0.77202700  0.45792800  1
  O  O14  1  0.22797300  0.90425100  0.04207200  1
  O  O15  1  0.19904300  0.59962000  0.31283600  1
  O  O16  1  0.41976500  0.37285900  0.11598300  1
  O  O17  1  0.40246700  0.21873600  0.43474900  1
  O  O18  1  0.15964000  0.07255000  0.79155000  1
  O  O19  1  0.07255000  0.15964000  0.29155000  1
loop_
_geom_bond_atom_site_label_1
_geom_bond_atom_site_label_2
_geom_bond_distance
_geom_bond_site_symmetry_2
Li0 O12 1.899816 1_655
Li0 O7 1.957086 1_556
Li0 O3 1.967706 1_555
Li0 O5 2.196508 1_565
Li1 O3 1.993720 1_555
Li1 O18 2.080929 1_565
Li1 O0 2.092811 1_555
Li1 O9 2.417848 1_565
Li1 O4 2.444435 1_555
Li2 O17 1.899817 1_565
Li2 O2 1.957087 1_555
Li2 O8 1.967709 1_555
Li2 O13 2.196503 1_655
Li3 O8 1.993720 1_555
Li3 O19 2.080929 1_655
Li3 O1 2.092811 1_555
Li3 O15 2.417848 1_655
Li3 O10 2.444435 1_555
Li4 O11 1.993720 1_555
Li4 O0 2.080929 1_455
Li4 O18 2.092811 1_555
Li4 O4 2.417848 1_455
Li4 O9 2.444435 1_555
Li5 O2 1.899816 1_545
Li5 O17 1.957086 1_555
Li5 O11 1.967706 1_555
Li5 O6 2.196508 1_455
Li6 O16 1.993720 1_555
Li6 O1 2.080929 1_545
Li6 O19 2.092811 1_555
Li6 O10 2.417848 1_545
Li6 O15 2.444435 1_555
Li7 O7 1.899816 1_455
Li7 O12 1.957086 1_554
Li7 O16 1.967706 1_555
Li7 O14 2.196508 1_545
Cr0 O14 2.087822 1_556
Cr0 O18 2.101214 1_565
Cr0 O3 2.110406 1_555
Cr0 O5 2.135451 1_465
Cr0 O12 2.407371 1_565
Cr1 O6 2.087822 1_555
Cr1 O19 2.101214 1_655
Cr1 O8 2.110406 1_555
Cr1 O13 2.135451 1_645
Cr1 O17 2.407371 1_655
Cr2 O13 2.087822 1_555
Cr2 O0 2.101215 1_455
Cr2 O11 2.110404 1_555
Cr2 O6 2.135450 1_465
Cr2 O2 2.407376 1_455
Cr3 O5 2.087822 1_554
Cr3 O1 2.101215 1_545
Cr3 O16 2.110404 1_555
Cr3 O14 2.135450 1_645
Cr3 O7 2.407376 1_545
O0 Si1 1.623682 1_565
O1 Si4 1.623682 1_655
O2 Si0 1.613641 1_555
O3 Si2 1.648353 1_555
O4 Si1 1.662746 1_555
O4 Si0 1.687543 1_555
O5 Si2 1.650924 1_555
O6 Si0 1.650924 1_555
O7 Si3 1.613641 1_555
O8 Si5 1.648353 1_555
O9 Si1 1.662746 1_555
O9 Si2 1.687543 1_555
O10 Si4 1.662746 1_555
O10 Si3 1.687543 1_555
O11 Si0 1.648353 1_555
O12 Si2 1.613641 1_555
O13 Si5 1.650924 1_555
O14 Si3 1.650924 1_555
O15 Si4 1.662746 1_555
O15 Si5 1.687543 1_555
O16 Si3 1.648353 1_555
O17 Si5 1.613641 1_555
O18 Si1 1.623682 1_455
O19 Si4 1.623682 1_545
