# generated using pymatgen
data_Mo12PO40
_symmetry_space_group_name_H-M   'P 1'
_cell_length_a   16.93259677
_cell_length_b   16.93259677
_cell_length_c   16.93259677
_cell_angle_alpha   60.00000000
_cell_angle_beta   60.00000000
_cell_angle_gamma   60.00000000
_symmetry_Int_Tables_number   1
_chemical_formula_structural   Mo12PO40
_chemical_formula_sum   'Mo24 P2 O80'
_cell_volume   3432.85690826
_cell_formula_units_Z   2
loop_
 _symmetry_equiv_pos_site_id
 _symmetry_equiv_pos_as_xyz
  1  'x, y, z'
loop_
 _atom_site_type_symbol
 _atom_site_label
 _atom_site_symmetry_multiplicity
 _atom_site_fract_x
 _atom_site_fract_y
 _atom_site_fract_z
 _atom_site_occupancy
  Mo  Mo0  1  0.24612600  0.03918400  0.46856300  1
  Mo  Mo1  1  0.24612600  0.24612600  0.46856300  1
  Mo  Mo2  1  0.03918400  0.24612600  0.46856300  1
  Mo  Mo3  1  0.24612600  0.46856300  0.03918400  1
  Mo  Mo4  1  0.03918400  0.46856300  0.24612600  1
  Mo  Mo5  1  0.24612600  0.46856300  0.24612600  1
  Mo  Mo6  1  0.46856300  0.24612600  0.24612600  1
  Mo  Mo7  1  0.46856300  0.03918400  0.24612600  1
  Mo  Mo8  1  0.46856300  0.24612600  0.03918400  1
  Mo  Mo9  1  0.03918400  0.24612600  0.24612600  1
  Mo  Mo10  1  0.24612600  0.24612600  0.03918400  1
  Mo  Mo11  1  0.24612600  0.03918400  0.24612600  1
  Mo  Mo12  1  0.00387400  0.21081600  0.78143700  1
  Mo  Mo13  1  0.00387400  0.00387400  0.78143700  1
  Mo  Mo14  1  0.21081600  0.00387400  0.78143700  1
  Mo  Mo15  1  0.00387400  0.78143700  0.21081600  1
  Mo  Mo16  1  0.21081600  0.78143700  0.00387400  1
  Mo  Mo17  1  0.00387400  0.78143700  0.00387400  1
  Mo  Mo18  1  0.78143700  0.00387400  0.00387400  1
  Mo  Mo19  1  0.78143700  0.21081600  0.00387400  1
  Mo  Mo20  1  0.78143700  0.00387400  0.21081600  1
  Mo  Mo21  1  0.21081600  0.00387400  0.00387400  1
  Mo  Mo22  1  0.00387400  0.00387400  0.21081600  1
  Mo  Mo23  1  0.00387400  0.21081600  0.00387400  1
  P  P0  1  0.25000000  0.25000000  0.25000000  1
  P  P1  1  0.00000000  0.00000000  0.00000000  1
  O  O0  1  0.21279800  0.21279800  0.36160700  1
  O  O1  1  0.21279800  0.36160700  0.21279800  1
  O  O2  1  0.36160700  0.21279800  0.21279800  1
  O  O3  1  0.21279800  0.21279800  0.21279800  1
  O  O4  1  0.03720200  0.03720200  0.88839300  1
  O  O5  1  0.03720200  0.88839300  0.03720200  1
  O  O6  1  0.88839300  0.03720200  0.03720200  1
  O  O7  1  0.03720200  0.03720200  0.03720200  1
  O  O8  1  0.37657300  0.02474800  0.22210700  1
  O  O9  1  0.37657300  0.37657300  0.22210700  1
  O  O10  1  0.02474800  0.37657300  0.22210700  1
  O  O11  1  0.37657300  0.22210700  0.02474800  1
  O  O12  1  0.02474800  0.22210700  0.37657300  1
  O  O13  1  0.37657300  0.22210700  0.37657300  1
  O  O14  1  0.22210700  0.37657300  0.37657300  1
  O  O15  1  0.22210700  0.02474800  0.37657300  1
  O  O16  1  0.22210700  0.37657300  0.02474800  1
  O  O17  1  0.02474800  0.37657300  0.37657300  1
  O  O18  1  0.37657300  0.37657300  0.02474800  1
  O  O19  1  0.37657300  0.02474800  0.37657300  1
  O  O20  1  0.87342700  0.22525200  0.02789300  1
  O  O21  1  0.87342700  0.87342700  0.02789300  1
  O  O22  1  0.22525200  0.87342700  0.02789300  1
  O  O23  1  0.87342700  0.02789300  0.22525200  1
  O  O24  1  0.22525200  0.02789300  0.87342700  1
  O  O25  1  0.87342700  0.02789300  0.87342700  1
  O  O26  1  0.02789300  0.87342700  0.87342700  1
  O  O27  1  0.02789300  0.22525200  0.87342700  1
  O  O28  1  0.02789300  0.87342700  0.22525200  1
  O  O29  1  0.22525200  0.87342700  0.87342700  1
  O  O30  1  0.87342700  0.87342700  0.22525200  1
  O  O31  1  0.87342700  0.22525200  0.87342700  1
  O  O32  1  0.10820200  0.26640000  0.51719600  1
  O  O33  1  0.10820200  0.10820200  0.51719600  1
  O  O34  1  0.26640000  0.10820200  0.51719600  1
  O  O35  1  0.10820200  0.51719600  0.26640000  1
  O  O36  1  0.26640000  0.51719600  0.10820200  1
  O  O37  1  0.10820200  0.51719600  0.10820200  1
  O  O38  1  0.51719600  0.10820200  0.10820200  1
  O  O39  1  0.51719600  0.26640000  0.10820200  1
  O  O40  1  0.51719600  0.10820200  0.26640000  1
  O  O41  1  0.26640000  0.10820200  0.10820200  1
  O  O42  1  0.10820200  0.10820200  0.26640000  1
  O  O43  1  0.10820200  0.26640000  0.10820200  1
  O  O44  1  0.14179800  0.98360000  0.73280400  1
  O  O45  1  0.14179800  0.14179800  0.73280400  1
  O  O46  1  0.98360000  0.14179800  0.73280400  1
  O  O47  1  0.14179800  0.73280400  0.98360000  1
  O  O48  1  0.98360000  0.73280400  0.14179800  1
  O  O49  1  0.14179800  0.73280400  0.14179800  1
  O  O50  1  0.73280400  0.14179800  0.14179800  1
  O  O51  1  0.73280400  0.98360000  0.14179800  1
  O  O52  1  0.73280400  0.14179800  0.98360000  1
  O  O53  1  0.98360000  0.14179800  0.14179800  1
  O  O54  1  0.14179800  0.14179800  0.98360000  1
  O  O55  1  0.14179800  0.98360000  0.14179800  1
  O  O56  1  0.25826800  0.92815900  0.55530500  1
  O  O57  1  0.25826800  0.25826800  0.55530500  1
  O  O58  1  0.92815900  0.25826800  0.55530500  1
  O  O59  1  0.25826800  0.55530500  0.92815900  1
  O  O60  1  0.92815900  0.55530500  0.25826800  1
  O  O61  1  0.25826800  0.55530500  0.25826800  1
  O  O62  1  0.55530500  0.25826800  0.25826800  1
  O  O63  1  0.55530500  0.92815900  0.25826800  1
  O  O64  1  0.55530500  0.25826800  0.92815900  1
  O  O65  1  0.92815900  0.25826800  0.25826800  1
  O  O66  1  0.25826800  0.25826800  0.92815900  1
  O  O67  1  0.25826800  0.92815900  0.25826800  1
  O  O68  1  0.99173200  0.32184100  0.69469500  1
  O  O69  1  0.99173200  0.99173200  0.69469500  1
  O  O70  1  0.32184100  0.99173200  0.69469500  1
  O  O71  1  0.99173200  0.69469500  0.32184100  1
  O  O72  1  0.32184100  0.69469500  0.99173200  1
  O  O73  1  0.99173200  0.69469500  0.99173200  1
  O  O74  1  0.69469500  0.99173200  0.99173200  1
  O  O75  1  0.69469500  0.32184100  0.99173200  1
  O  O76  1  0.69469500  0.99173200  0.32184100  1
  O  O77  1  0.32184100  0.99173200  0.99173200  1
  O  O78  1  0.99173200  0.99173200  0.32184100  1
  O  O79  1  0.99173200  0.32184100  0.99173200  1
loop_
_geom_bond_atom_site_label_1
_geom_bond_atom_site_label_2
_geom_bond_distance
_geom_bond_site_symmetry_2
Mo0 O56 1.699410 1_545
Mo0 O15 1.940367 1_555
Mo0 O19 1.940389 1_555
Mo0 O33 1.951392 1_555
Mo0 O34 1.951403 1_555
Mo1 O57 1.699421 1_555
Mo1 O13 1.940388 1_555
Mo1 O14 1.940388 1_555
Mo1 O32 1.951388 1_555
Mo1 O34 1.951388 1_555
Mo2 O58 1.699410 1_455
Mo2 O12 1.940367 1_555
Mo2 O17 1.940389 1_555
Mo2 O33 1.951392 1_555
Mo2 O32 1.951403 1_555
Mo3 O59 1.699410 1_554
Mo3 O16 1.940367 1_555
Mo3 O18 1.940389 1_555
Mo3 O37 1.951392 1_555
Mo3 O36 1.951403 1_555
Mo4 O60 1.699410 1_455
Mo4 O10 1.940367 1_555
Mo4 O17 1.940389 1_555
Mo4 O37 1.951392 1_555
Mo4 O35 1.951403 1_555
Mo5 O61 1.699421 1_555
Mo5 O9 1.940388 1_555
Mo5 O14 1.940388 1_555
Mo5 O35 1.951388 1_555
Mo5 O36 1.951388 1_555
Mo6 O62 1.699421 1_555
Mo6 O9 1.940388 1_555
Mo6 O13 1.940388 1_555
Mo6 O40 1.951388 1_555
Mo6 O39 1.951388 1_555
Mo7 O63 1.699410 1_545
Mo7 O8 1.940367 1_555
Mo7 O19 1.940389 1_555
Mo7 O38 1.951392 1_555
Mo7 O40 1.951403 1_555
Mo8 O64 1.699410 1_554
Mo8 O11 1.940367 1_555
Mo8 O18 1.940389 1_555
Mo8 O38 1.951392 1_555
Mo8 O39 1.951403 1_555
Mo9 O65 1.699404 1_455
Mo9 O12 1.940399 1_555
Mo9 O10 1.940399 1_555
Mo9 O42 1.951390 1_555
Mo9 O43 1.951390 1_555
Mo10 O66 1.699404 1_554
Mo10 O11 1.940399 1_555
Mo10 O16 1.940399 1_555
Mo10 O43 1.951390 1_555
Mo10 O41 1.951390 1_555
Mo11 O67 1.699404 1_545
Mo11 O8 1.940399 1_555
Mo11 O15 1.940399 1_555
Mo11 O42 1.951390 1_555
Mo11 O41 1.951390 1_555
Mo12 O68 1.699410 1_455
Mo12 O27 1.940367 1_555
Mo12 O31 1.940389 1_455
Mo12 O45 1.951392 1_555
Mo12 O46 1.951403 1_455
Mo13 O69 1.699421 1_445
Mo13 O25 1.940388 1_455
Mo13 O26 1.940388 1_545
Mo13 O46 1.951388 1_455
Mo13 O44 1.951388 1_545
Mo14 O70 1.699410 1_545
Mo14 O24 1.940367 1_555
Mo14 O29 1.940389 1_545
Mo14 O45 1.951392 1_555
Mo14 O44 1.951403 1_545
Mo15 O71 1.699410 1_455
Mo15 O28 1.940367 1_555
Mo15 O30 1.940389 1_455
Mo15 O49 1.951392 1_555
Mo15 O48 1.951403 1_455
Mo16 O72 1.699410 1_554
Mo16 O22 1.940367 1_555
Mo16 O29 1.940389 1_554
Mo16 O49 1.951392 1_555
Mo16 O47 1.951403 1_554
Mo17 O73 1.699421 1_454
Mo17 O26 1.940388 1_554
Mo17 O21 1.940388 1_455
Mo17 O48 1.951388 1_455
Mo17 O47 1.951388 1_554
Mo18 O74 1.699421 1_544
Mo18 O21 1.940388 1_545
Mo18 O25 1.940388 1_554
Mo18 O51 1.951388 1_545
Mo18 O52 1.951388 1_554
Mo19 O75 1.699410 1_554
Mo19 O20 1.940367 1_555
Mo19 O31 1.940389 1_554
Mo19 O50 1.951392 1_555
Mo19 O52 1.951403 1_554
Mo20 O76 1.699410 1_545
Mo20 O23 1.940367 1_555
Mo20 O30 1.940389 1_545
Mo20 O50 1.951392 1_555
Mo20 O51 1.951403 1_545
Mo21 O77 1.699404 1_544
Mo21 O22 1.940399 1_545
Mo21 O24 1.940399 1_554
Mo21 O55 1.951390 1_545
Mo21 O54 1.951390 1_554
Mo22 O78 1.699404 1_445
Mo22 O23 1.940399 1_455
Mo22 O28 1.940399 1_545
Mo22 O53 1.951390 1_455
Mo22 O55 1.951390 1_545
Mo23 O79 1.699404 1_454
Mo23 O20 1.940399 1_455
Mo23 O27 1.940399 1_554
Mo23 O54 1.951390 1_554
Mo23 O53 1.951390 1_455
O0 P0 1.543012 1_555
O1 P0 1.543012 1_555
O2 P0 1.543012 1_555
O3 P0 1.542998 1_555
O4 P1 1.543012 1_556
O5 P1 1.543012 1_565
O6 P1 1.543012 1_655
O7 P1 1.542998 1_555
