# generated using pymatgen
data_K2Mg3P4(H5O6)4
_symmetry_space_group_name_H-M   'P 1'
_cell_length_a   6.64907200
_cell_length_b   7.59829900
_cell_length_c   20.54155365
_cell_angle_alpha   86.77746766
_cell_angle_beta   90.00000000
_cell_angle_gamma   90.00000000
_symmetry_Int_Tables_number   1
_chemical_formula_structural   K2Mg3P4(H5O6)4
_chemical_formula_sum   'K4 Mg6 P8 H40 O48'
_cell_volume   1036.15189343
_cell_formula_units_Z   2
loop_
 _symmetry_equiv_pos_site_id
 _symmetry_equiv_pos_as_xyz
  1  'x, y, z'
loop_
 _atom_site_type_symbol
 _atom_site_label
 _atom_site_symmetry_multiplicity
 _atom_site_fract_x
 _atom_site_fract_y
 _atom_site_fract_z
 _atom_site_occupancy
  K  K0  1  0.51860800  0.76129100  0.94407500  1
  K  K1  1  0.98139200  0.76129100  0.44407500  1
  K  K2  1  0.01860800  0.23870900  0.55592500  1
  K  K3  1  0.48139200  0.23870900  0.05592500  1
  Mg  Mg0  1  0.50000000  0.00000000  0.50000000  1
  Mg  Mg1  1  0.00000000  0.00000000  0.00000000  1
  Mg  Mg2  1  0.44639400  0.76707900  0.76459600  1
  Mg  Mg3  1  0.05360600  0.76707900  0.26459600  1
  Mg  Mg4  1  0.94639400  0.23292100  0.73540400  1
  Mg  Mg5  1  0.55360600  0.23292100  0.23540400  1
  P  P0  1  0.72073900  0.93396300  0.64585500  1
  P  P1  1  0.77926100  0.93396300  0.14585500  1
  P  P2  1  0.67350600  0.53821200  0.65313600  1
  P  P3  1  0.17350600  0.46178800  0.84686400  1
  P  P4  1  0.82649400  0.53821200  0.15313600  1
  P  P5  1  0.32649400  0.46178800  0.34686400  1
  P  P6  1  0.22073900  0.06603700  0.85414500  1
  P  P7  1  0.27926100  0.06603700  0.35414500  1
  H  H0  1  0.32271900  0.93741200  0.61473900  1
  H  H1  1  0.17728100  0.93741200  0.11473900  1
  H  H2  1  0.06930900  0.84613900  0.70915400  1
  H  H3  1  0.84414400  0.84885100  0.80986200  1
  H  H4  1  0.20696400  0.81564400  0.56926200  1
  H  H5  1  0.43069100  0.84613900  0.20915400  1
  H  H6  1  0.65585600  0.84885100  0.30986200  1
  H  H7  1  0.29303600  0.81564400  0.06926200  1
  H  H8  1  0.00633300  0.66379800  0.95388800  1
  H  H9  1  0.56502300  0.65320000  0.52750000  1
  H  H10  1  0.82667100  0.64440400  0.80264600  1
  H  H11  1  0.49366700  0.66379800  0.45388800  1
  H  H12  1  0.09795700  0.64542700  0.73764100  1
  H  H13  1  0.93497700  0.65320000  0.02750000  1
  H  H14  1  0.67332900  0.64440400  0.30264600  1
  H  H15  1  0.40204300  0.64542700  0.23764100  1
  H  H16  1  0.07947100  0.58296700  0.61108100  1
  H  H17  1  0.29813800  0.56172900  0.58236900  1
  H  H18  1  0.42052900  0.58296700  0.11108100  1
  H  H19  1  0.79813800  0.43827100  0.91763100  1
  H  H20  1  0.20186200  0.56172900  0.08236900  1
  H  H21  1  0.57947100  0.41703300  0.88891900  1
  H  H22  1  0.70186200  0.43827100  0.41763100  1
  H  H23  1  0.92052900  0.41703300  0.38891900  1
  H  H24  1  0.59795700  0.35457300  0.76235900  1
  H  H25  1  0.32667100  0.35559600  0.69735400  1
  H  H26  1  0.06502300  0.34680000  0.97250000  1
  H  H27  1  0.90204300  0.35457300  0.26235900  1
  H  H28  1  0.50633300  0.33620200  0.54611200  1
  H  H29  1  0.17332900  0.35559600  0.19735400  1
  H  H30  1  0.43497700  0.34680000  0.47250000  1
  H  H31  1  0.99366700  0.33620200  0.04611200  1
  H  H32  1  0.70696400  0.18435600  0.93073800  1
  H  H33  1  0.34414400  0.15114900  0.69013800  1
  H  H34  1  0.56930900  0.15386100  0.79084600  1
  H  H35  1  0.79303600  0.18435600  0.43073800  1
  H  H36  1  0.15585600  0.15114900  0.19013800  1
  H  H37  1  0.93069100  0.15386100  0.29084600  1
  H  H38  1  0.82271900  0.06258800  0.88526100  1
  H  H39  1  0.67728100  0.06258800  0.38526100  1
  O  O0  1  0.39644300  0.98495500  0.81815900  1
  O  O1  1  0.70388600  0.00353400  0.57488000  1
  O  O2  1  0.51927800  0.93660100  0.68269200  1
  O  O3  1  0.10355700  0.98495500  0.31815900  1
  O  O4  1  0.26418500  0.93749600  0.57031900  1
  O  O5  1  0.79611400  0.00353400  0.07488000  1
  O  O6  1  0.98072200  0.93660100  0.18269200  1
  O  O7  1  0.23581500  0.93749600  0.07031900  1
  O  O8  1  0.94169100  0.73490600  0.98737600  1
  O  O9  1  0.74663200  0.75065600  0.81025200  1
  O  O10  1  0.16948500  0.75187000  0.71953800  1
  O  O11  1  0.78918200  0.72638200  0.64402800  1
  O  O12  1  0.55830900  0.73490600  0.48737600  1
  O  O13  1  0.75336800  0.75065600  0.31025200  1
  O  O14  1  0.33051500  0.75187000  0.21953800  1
  O  O15  1  0.71081800  0.72638200  0.14402800  1
  O  O16  1  0.34568000  0.59380800  0.83966400  1
  O  O17  1  0.15711000  0.59752500  0.57044300  1
  O  O18  1  0.53697700  0.54207000  0.71370500  1
  O  O19  1  0.15432000  0.59380800  0.33966400  1
  O  O20  1  0.04882400  0.48360600  0.90911000  1
  O  O21  1  0.54882400  0.51639400  0.59089000  1
  O  O22  1  0.34289000  0.59752500  0.07044300  1
  O  O23  1  0.96302300  0.54207000  0.21370500  1
  O  O24  1  0.03697700  0.45793000  0.78629500  1
  O  O25  1  0.65711000  0.40247500  0.92955700  1
  O  O26  1  0.45117600  0.48360600  0.40911000  1
  O  O27  1  0.95117600  0.51639400  0.09089000  1
  O  O28  1  0.84568000  0.40619200  0.66033600  1
  O  O29  1  0.46302300  0.45793000  0.28629500  1
  O  O30  1  0.84289000  0.40247500  0.42955700  1
  O  O31  1  0.65432000  0.40619200  0.16033600  1
  O  O32  1  0.28918200  0.27361800  0.85597200  1
  O  O33  1  0.66948500  0.24813000  0.78046200  1
  O  O34  1  0.24663200  0.24934400  0.68974800  1
  O  O35  1  0.44169100  0.26509400  0.51262400  1
  O  O36  1  0.21081800  0.27361800  0.35597200  1
  O  O37  1  0.83051500  0.24813000  0.28046200  1
  O  O38  1  0.25336800  0.24934400  0.18974800  1
  O  O39  1  0.05830900  0.26509400  0.01262400  1
  O  O40  1  0.76418500  0.06250400  0.92968100  1
  O  O41  1  0.01927800  0.06339900  0.81730800  1
  O  O42  1  0.20388600  0.99646600  0.92512000  1
  O  O43  1  0.73581500  0.06250400  0.42968100  1
  O  O44  1  0.89644300  0.01504500  0.68184100  1
  O  O45  1  0.48072200  0.06339900  0.31730800  1
  O  O46  1  0.29611400  0.99646600  0.42512000  1
  O  O47  1  0.60355700  0.01504500  0.18184100  1
loop_
_geom_bond_atom_site_label_1
_geom_bond_atom_site_label_2
_geom_bond_distance
_geom_bond_site_symmetry_2
K0 O42 2.765052 1_555
K0 O16 2.801502 1_555
K0 O40 2.813494 1_565
K0 O25 2.908889 1_555
K0 O8 2.953792 1_555
K0 O22 3.047698 1_556
K0 O0 3.121510 1_555
K0 O9 3.144334 1_555
K1 O46 2.765052 1_655
K1 O19 2.801502 1_655
K1 O43 2.813494 1_565
K1 O30 2.908889 1_555
K1 O12 2.953792 1_555
K1 O17 3.047698 1_655
K1 O3 3.121510 1_655
K1 O13 3.144334 1_555
K2 O1 2.765052 1_455
K2 O28 2.801502 1_455
K2 O4 2.813494 1_545
K2 O17 2.908889 1_555
K2 O35 2.953792 1_555
K2 O30 3.047698 1_455
K2 O44 3.121510 1_455
K2 O34 3.144334 1_555
K3 O5 2.765052 1_555
K3 O31 2.801502 1_555
K3 O7 2.813494 1_545
K3 O22 2.908889 1_555
K3 O39 2.953792 1_555
K3 O25 3.047698 1_554
K3 O47 3.121510 1_555
K3 O38 3.144334 1_555
Mg0 O46 2.051602 1_545
Mg0 O1 2.051602 1_555
Mg0 O12 2.081715 1_545
Mg0 O35 2.081715 1_555
Mg0 O4 2.166418 1_545
Mg0 O43 2.166418 1_555
Mg1 O42 2.051602 1_544
Mg1 O5 2.051602 1_455
Mg1 O39 2.081715 1_555
Mg1 O8 2.081715 1_444
Mg1 O7 2.166418 1_545
Mg1 O40 2.166418 1_454
Mg2 O0 2.065507 1_555
Mg2 O10 2.066886 1_555
Mg2 O16 2.081187 1_555
Mg2 O2 2.116823 1_555
Mg2 O18 2.139986 1_555
Mg2 O9 2.206173 1_555
Mg3 O3 2.065507 1_555
Mg3 O14 2.066886 1_555
Mg3 O19 2.081187 1_555
Mg3 O6 2.116823 1_455
Mg3 O23 2.139986 1_455
Mg3 O13 2.206173 1_455
Mg4 O44 2.065507 1_555
Mg4 O33 2.066886 1_555
Mg4 O28 2.081187 1_555
Mg4 O41 2.116823 1_655
Mg4 O24 2.139986 1_655
Mg4 O34 2.206173 1_655
Mg5 O47 2.065507 1_555
Mg5 O37 2.066886 1_555
Mg5 O31 2.081187 1_555
Mg5 O45 2.116823 1_555
Mg5 O29 2.139986 1_555
Mg5 O38 2.206173 1_555
H0 O4 0.991960 1_555
H1 O7 0.991960 1_555
H2 O10 0.992493 1_555
H3 O9 0.988158 1_555
H4 O4 1.002356 1_555
H4 K1 3.025275 1_455
H5 O14 0.992493 1_555
H6 O13 0.988158 1_555
H7 O7 1.002356 1_555
H7 K0 3.025275 1_554
H8 O8 0.995814 1_455
H8 O20 1.715237 1_555
H9 O12 1.004595 1_555
H9 O21 1.623425 1_555
H10 O9 0.986713 1_555
H11 O12 0.995814 1_555
H11 O26 1.715237 1_555
H12 O10 0.992368 1_555
H12 O24 1.741501 1_555
H13 O8 1.004595 1_554
H13 O27 1.623425 1_555
H14 O13 0.986713 1_555
H15 O14 0.992368 1_555
H15 O29 1.741501 1_555
H16 O17 0.982437 1_555
H16 K2 2.936480 1_555
H17 O17 1.002892 1_555
H17 O21 1.709046 1_555
H18 O22 0.982437 1_555
H18 K3 2.936480 1_555
H19 O25 1.002892 1_555
H19 O20 1.709046 1_655
H20 O22 1.002892 1_555
H20 O27 1.709046 1_455
H21 O25 0.982437 1_555
H21 K0 2.936480 1_555
H22 O30 1.002892 1_555
H22 O26 1.709046 1_555
H23 O30 0.982437 1_555
H23 K1 2.936480 1_555
H24 O33 0.992368 1_555
H24 O18 1.741501 1_555
H25 O34 0.986713 1_555
H26 O39 1.004595 1_556
H26 O20 1.623425 1_555
H27 O37 0.992368 1_555
H27 O23 1.741501 1_555
H28 O35 0.995814 1_555
H28 O21 1.715237 1_555
H29 O38 0.986713 1_555
H30 O35 1.004595 1_555
H30 O26 1.623425 1_555
H31 O39 0.995814 1_655
H31 O27 1.715237 1_555
H32 O40 1.002356 1_555
H32 K3 3.025275 1_556
H33 O34 0.988158 1_555
H34 O33 0.992493 1_555
H35 O43 1.002356 1_555
H35 K2 3.025275 1_655
H36 O38 0.988158 1_555
H37 O37 0.992493 1_555
H38 O40 0.991960 1_555
H39 O43 0.991960 1_555
O0 P6 1.530373 1_565
O1 P0 1.526738 1_545
O2 P0 1.539163 1_555
O3 P7 1.530373 1_565
O5 P1 1.526738 1_545
O6 P1 1.539163 1_555
O11 P2 1.625039 1_555
O11 P0 1.644056 1_555
O15 P4 1.625039 1_555
O15 P1 1.644056 1_555
O16 P3 1.523817 1_555
O18 P2 1.541763 1_555
O19 P5 1.523817 1_555
O20 P3 1.540611 1_555
O21 P2 1.540611 1_555
O23 P4 1.541763 1_555
O24 P3 1.541763 1_555
O26 P5 1.540611 1_555
O27 P4 1.540611 1_555
O28 P2 1.523817 1_555
O29 P5 1.541763 1_555
O31 P4 1.523817 1_555
O32 P3 1.625039 1_555
O32 P6 1.644056 1_555
O36 P5 1.625039 1_555
O36 P7 1.644056 1_555
O41 P6 1.539163 1_555
O42 P6 1.526738 1_565
O44 P0 1.530373 1_545
O45 P7 1.539163 1_555
O46 P7 1.526738 1_565
O47 P1 1.530373 1_545
