# generated using pymatgen
data_Li3Cr(PO4)2
_symmetry_space_group_name_H-M   'P 1'
_cell_length_a   8.78851813
_cell_length_b   8.78851813
_cell_length_c   6.75112300
_cell_angle_alpha   90.00000000
_cell_angle_beta   90.00000000
_cell_angle_gamma   120.00000098
_symmetry_Int_Tables_number   1
_chemical_formula_structural   Li3Cr(PO4)2
_chemical_formula_sum   'Li9 Cr3 P6 O24'
_cell_volume   451.58338426
_cell_formula_units_Z   3
loop_
 _symmetry_equiv_pos_site_id
 _symmetry_equiv_pos_as_xyz
  1  'x, y, z'
loop_
 _atom_site_type_symbol
 _atom_site_label
 _atom_site_symmetry_multiplicity
 _atom_site_fract_x
 _atom_site_fract_y
 _atom_site_fract_z
 _atom_site_occupancy
  Li  Li0  1  0.37277800  0.06981300  0.23293300  1
  Li  Li1  1  0.93018700  0.30296500  0.23293300  1
  Li  Li2  1  0.00000000  0.00000000  0.00000000  1
  Li  Li3  1  0.33333300  0.66666700  0.97702100  1
  Li  Li4  1  0.30296500  0.37277800  0.76706700  1
  Li  Li5  1  0.69703500  0.62722200  0.23293300  1
  Li  Li6  1  0.66666700  0.33333300  0.02297900  1
  Li  Li7  1  0.06981300  0.69703500  0.76706700  1
  Li  Li8  1  0.62722200  0.93018700  0.76706700  1
  Cr  Cr0  1  0.00000000  0.00000000  0.50000000  1
  Cr  Cr1  1  0.33333300  0.66666700  0.54877200  1
  Cr  Cr2  1  0.66666700  0.33333300  0.45122800  1
  P  P0  1  0.02541800  0.68130500  0.25417600  1
  P  P1  1  0.31869500  0.34411200  0.25417600  1
  P  P2  1  0.65588800  0.97458200  0.25417600  1
  P  P3  1  0.34411200  0.02541800  0.74582400  1
  P  P4  1  0.68130500  0.65588800  0.74582400  1
  P  P5  1  0.97458200  0.31869500  0.74582400  1
  O  O0  1  0.14395400  0.95049500  0.70314400  1
  O  O1  1  0.11508900  0.71669900  0.05366400  1
  O  O2  1  0.15601300  0.70673500  0.42087100  1
  O  O3  1  0.37232100  0.86201600  0.74114500  1
  O  O4  1  0.13798400  0.51030500  0.74114500  1
  O  O5  1  0.04950500  0.19345800  0.70314400  1
  O  O6  1  0.55072200  0.84398700  0.42087100  1
  O  O7  1  0.29326500  0.44927800  0.42087100  1
  O  O8  1  0.19345800  0.14395400  0.29685600  1
  O  O9  1  0.28330100  0.39839000  0.05366400  1
  O  O10  1  0.60161000  0.88491100  0.05366400  1
  O  O11  1  0.48969500  0.62767900  0.74114500  1
  O  O12  1  0.51030500  0.37232100  0.25885500  1
  O  O13  1  0.39839000  0.11508900  0.94633600  1
  O  O14  1  0.71669900  0.60161000  0.94633600  1
  O  O15  1  0.80654200  0.85604600  0.70314400  1
  O  O16  1  0.70673500  0.55072200  0.57912900  1
  O  O17  1  0.44927800  0.15601300  0.57912900  1
  O  O18  1  0.95049500  0.80654200  0.29685600  1
  O  O19  1  0.86201600  0.48969500  0.25885500  1
  O  O20  1  0.62767900  0.13798400  0.25885500  1
  O  O21  1  0.84398700  0.29326500  0.57912900  1
  O  O22  1  0.88491100  0.28330100  0.94633600  1
  O  O23  1  0.85604600  0.04950500  0.29685600  1
loop_
_geom_bond_atom_site_label_1
_geom_bond_atom_site_label_2
_geom_bond_distance
_geom_bond_site_symmetry_2
Li0 O13 1.965473 1_554
Li0 O20 2.016414 1_555
Li0 O8 2.030104 1_555
Li0 O12 2.312203 1_555
Li0 O17 2.445231 1_555
Li1 O22 1.965473 1_554
Li1 O19 2.016414 1_555
Li1 O23 2.030096 1_555
Li1 O20 2.312203 1_555
Li1 O21 2.445232 1_555
Li2 O5 2.521259 1_554
Li2 O18 2.521259 1_445
Li2 O15 2.521260 1_444
Li2 O8 2.521260 1_555
Li2 O23 2.521264 1_455
Li2 O0 2.521264 1_544
Li3 O1 2.232338 1_556
Li3 O10 2.232343 1_556
Li3 O9 2.232346 1_556
Li3 O3 2.238854 1_555
Li3 O4 2.238856 1_555
Li3 O11 2.238860 1_555
Li4 O9 1.965473 1_556
Li4 O11 2.016414 1_555
Li4 O5 2.030098 1_555
Li4 O4 2.312203 1_555
Li4 O7 2.445232 1_555
Li5 O14 1.965473 1_554
Li5 O12 2.016414 1_555
Li5 O18 2.030098 1_555
Li5 O19 2.312203 1_555
Li5 O16 2.445232 1_555
Li6 O22 2.232338 1_554
Li6 O13 2.232343 1_554
Li6 O14 2.232346 1_554
Li6 O20 2.238854 1_555
Li6 O19 2.238856 1_555
Li6 O12 2.238860 1_555
Li7 O1 1.965473 1_556
Li7 O4 2.016414 1_555
Li7 O0 2.030096 1_555
Li7 O3 2.312203 1_555
Li7 O2 2.445232 1_555
Li8 O10 1.965473 1_556
Li8 O3 2.016414 1_555
Li8 O15 2.030104 1_555
Li8 O11 2.312203 1_555
Li8 O6 2.445231 1_555
Cr0 O5 2.054546 1_555
Cr0 O18 2.054546 1_445
Cr0 O8 2.054547 1_555
Cr0 O15 2.054547 1_445
Cr0 O0 2.054552 1_545
Cr0 O23 2.054552 1_455
Cr1 O2 1.961353 1_555
Cr1 O6 1.961358 1_555
Cr1 O7 1.961361 1_555
Cr1 O3 2.040429 1_555
Cr1 O4 2.040431 1_555
Cr1 O11 2.040435 1_555
Cr2 O21 1.961353 1_555
Cr2 O17 1.961358 1_555
Cr2 O16 1.961361 1_555
Cr2 O20 2.040429 1_555
Cr2 O19 2.040431 1_555
Cr2 O12 2.040435 1_555
O0 P3 1.566112 1_565
O1 P0 1.518267 1_555
O2 P0 1.541822 1_555
O3 P3 1.575041 1_565
O4 P5 1.575036 1_455
O5 P5 1.566128 1_455
O6 P2 1.541824 1_555
O7 P1 1.541828 1_555
O8 P1 1.566114 1_555
O9 P1 1.518271 1_555
O10 P2 1.518268 1_555
O11 P4 1.575032 1_555
O12 P1 1.575032 1_555
O13 P3 1.518268 1_555
O14 P4 1.518271 1_555
O15 P4 1.566114 1_555
O16 P4 1.541828 1_555
O17 P3 1.541824 1_555
O18 P0 1.566128 1_655
O19 P0 1.575036 1_655
O20 P2 1.575041 1_545
O21 P5 1.541822 1_555
O22 P5 1.518267 1_555
O23 P2 1.566112 1_545
