# generated using pymatgen
data_Li3V3P8O29
_symmetry_space_group_name_H-M   'P 1'
_cell_length_a   9.76923200
_cell_length_b   9.78610100
_cell_length_c   14.33745623
_cell_angle_alpha   89.90412235
_cell_angle_beta   90.84683607
_cell_angle_gamma   119.89768776
_symmetry_Int_Tables_number   1
_chemical_formula_structural   Li3V3P8O29
_chemical_formula_sum   'Li6 V6 P16 O58'
_cell_volume   1188.12700704
_cell_formula_units_Z   2
loop_
 _symmetry_equiv_pos_site_id
 _symmetry_equiv_pos_as_xyz
  1  'x, y, z'
loop_
 _atom_site_type_symbol
 _atom_site_label
 _atom_site_symmetry_multiplicity
 _atom_site_fract_x
 _atom_site_fract_y
 _atom_site_fract_z
 _atom_site_occupancy
  Li  Li0  1  0.30938400  0.21890500  0.55442800  1
  Li  Li1  1  0.30737700  0.08060100  0.06273700  1
  Li  Li2  1  0.69352600  0.91580000  0.94046500  1
  Li  Li3  1  0.69446200  0.77754500  0.44163300  1
  Li  Li4  1  0.08261100  0.31039800  0.43926500  1
  Li  Li5  1  0.22388200  0.31237800  0.94772300  1
  V  V0  1  0.43580500  0.43723000  0.75160300  1
  V  V1  1  0.00232500  0.56908000  0.75108500  1
  V  V2  1  0.42866100  0.99147700  0.25698000  1
  V  V3  1  0.56770600  0.00501100  0.74628800  1
  V  V4  1  0.99571700  0.43619200  0.24606000  1
  V  V5  1  0.57362800  0.56903700  0.24626800  1
  P  P0  1  0.77636400  0.68656600  0.83778400  1
  P  P1  1  0.91938200  0.68870600  0.34288100  1
  P  P2  1  0.32341200  0.23424600  0.33941100  1
  P  P3  1  0.66420900  0.33542200  0.63207100  1
  P  P4  1  0.65765200  0.32571400  0.13078200  1
  P  P5  1  0.32128100  0.08991400  0.84391100  1
  P  P6  1  0.22434200  0.91248000  0.66390200  1
  P  P7  1  0.91640600  0.22992100  0.83635500  1
  P  P8  1  0.08272500  0.77199800  0.15887900  1
  P  P9  1  0.77381000  0.08834600  0.33684300  1
  P  P10  1  0.67889400  0.91411900  0.15705600  1
  P  P11  1  0.33744900  0.66846500  0.86874900  1
  P  P12  1  0.33582100  0.65958100  0.36980600  1
  P  P13  1  0.67986200  0.76968000  0.65870600  1
  P  P14  1  0.08658500  0.31885300  0.65614000  1
  P  P15  1  0.22921100  0.32109000  0.16141900  1
  O  O0  1  0.74018800  0.75964000  0.56682700  1
  O  O1  1  0.74690300  0.66170600  0.33509200  1
  O  O2  1  0.00083800  0.79179000  0.25077000  1
  O  O3  1  0.00125400  0.76531000  0.07087000  1
  O  O4  1  0.62116100  0.52357200  0.82081000  1
  O  O5  1  0.91785800  0.65784800  0.83446500  1
  O  O6  1  0.66049900  0.47724800  0.17618600  1
  O  O7  1  0.48199100  0.38514200  0.32255500  1
  O  O8  1  0.23845600  0.24308800  0.07384400  1
  O  O9  1  0.34066200  0.25801300  0.83525700  1
  O  O10  1  0.81358500  0.47917400  0.67620500  1
  O  O11  1  0.51297200  0.33333000  0.67331500  1
  O  O12  1  0.90982800  0.52646600  0.32028600  1
  O  O13  1  0.65322900  0.32638400  0.52893700  1
  O  O14  1  0.65544500  0.33180700  0.02764600  1
  O  O15  1  0.90978500  0.38394100  0.82228500  1
  O  O16  1  0.50977300  0.17813700  0.17091800  1
  O  O17  1  0.81061100  0.33165700  0.17546800  1
  O  O18  1  0.34541100  0.08841800  0.33374300  1
  O  O19  1  0.20484200  0.99124200  0.75881200  1
  O  O20  1  0.25648500  0.01988900  0.93581500  1
  O  O21  1  0.23253700  0.00611200  0.58108400  1
  O  O22  1  0.47998400  0.09761100  0.82113100  1
  O  O23  1  0.66241900  0.18405400  0.67625500  1
  O  O24  1  0.91633000  0.25829800  0.33784000  1
  O  O25  1  0.25480900  0.91595200  0.16714500  1
  O  O26  1  0.61770200  0.09459300  0.32287000  1
  O  O27  1  0.00104600  0.76381500  0.43069700  1
  O  O28  1  0.01491900  0.25106200  0.56363700  1
  O  O29  1  0.38082000  0.90576500  0.67917300  1
  O  O30  1  0.74588200  0.08631000  0.83699400  1
  O  O31  1  0.98830700  0.20489400  0.74043300  1
  O  O32  1  0.08450200  0.74236800  0.66772400  1
  O  O33  1  0.33589900  0.81132600  0.32518900  1
  O  O34  1  0.51943400  0.90493600  0.18009400  1
  O  O35  1  0.74276500  0.98335300  0.06543400  1
  O  O36  1  0.76728800  0.99256400  0.41852300  1
  O  O37  1  0.79698800  0.01661700  0.24056000  1
  O  O38  1  0.65704500  0.91445600  0.67242800  1
  O  O39  1  0.18744600  0.66505500  0.82394400  1
  O  O40  1  0.09299600  0.61783100  0.17908200  1
  O  O41  1  0.48629800  0.81833500  0.83096300  1
  O  O42  1  0.34256200  0.66567000  0.47326500  1
  O  O43  1  0.33527800  0.65407500  0.97192600  1
  O  O44  1  0.09434500  0.47785900  0.67802400  1
  O  O45  1  0.48636600  0.66426600  0.32851700  1
  O  O46  1  0.18409700  0.51145900  0.32924400  1
  O  O47  1  0.65673400  0.74626300  0.17165200  1
  O  O48  1  0.79710100  0.78476500  0.74232800  1
  O  O49  1  0.76480400  0.77082500  0.91965200  1
  O  O50  1  0.51913000  0.61904400  0.68159700  1
  O  O51  1  0.33444500  0.51542900  0.82547100  1
  O  O52  1  0.08502800  0.34441100  0.16680700  1
  O  O53  1  0.38278400  0.48081300  0.17831900  1
  O  O54  1  0.01155800  0.23393200  0.91893900  1
  O  O55  1  0.25510700  0.33807700  0.66565700  1
  O  O56  1  0.24478300  0.24166100  0.42670200  1
  O  O57  1  0.21097600  0.21199600  0.25011500  1
loop_
_geom_bond_atom_site_label_1
_geom_bond_atom_site_label_2
_geom_bond_distance
_geom_bond_site_symmetry_2
Li0 O21 1.869071 1_555
Li0 O56 1.976360 1_555
Li0 O55 2.198213 1_555
Li0 O11 2.408529 1_555
Li1 O20 1.895792 1_554
Li1 O8 2.019529 1_555
Li1 O25 2.071357 1_545
Li1 O16 2.293291 1_555
Li2 O35 1.881545 1_556
Li2 O49 1.891867 1_555
Li2 O30 2.100013 1_565
Li2 O41 2.336474 1_555
Li3 O0 1.872277 1_555
Li3 O36 1.885690 1_555
Li3 O1 2.118670 1_555
Li3 O45 2.377786 1_555
Li4 O28 1.898104 1_555
Li4 O56 2.016473 1_555
Li4 O24 2.029870 1_455
Li4 O46 2.331049 1_555
Li5 O54 1.857541 1_555
Li5 O8 1.958156 1_556
Li5 O9 2.201589 1_555
Li5 O51 2.468207 1_555
O0 P13 1.474242 1_555
O1 P1 1.572313 1_555
O1 V5 1.928592 1_555
O2 P8 1.612360 1_555
O2 P1 1.619046 1_455
O3 P8 1.465816 1_555
O4 P0 1.575372 1_555
O4 V0 1.844412 1_555
O5 P0 1.543122 1_555
O5 V1 1.900501 1_655
O6 P4 1.607855 1_555
O6 V5 1.823430 1_555
O7 P2 1.538924 1_555
O7 V5 1.911187 1_555
O8 P15 1.497553 1_555
O9 P5 1.564253 1_555
O9 V0 1.944016 1_555
O10 P3 1.561435 1_555
O10 V1 1.911506 1_655
O11 P3 1.590170 1_555
O11 V0 1.911807 1_555
O12 P1 1.577193 1_555
O12 V4 1.839984 1_555
O13 P3 1.480578 1_555
O14 P4 1.480082 1_555
O15 P7 1.553217 1_555
O15 V1 1.878878 1_655
O16 P4 1.563898 1_555
O16 V2 2.016321 1_545
O17 P4 1.591212 1_555
O17 V4 1.856382 1_555
O18 P2 1.547910 1_555
O18 V2 1.889927 1_545
O19 P5 1.607148 1_565
O19 P6 1.624691 1_555
O20 P5 1.481804 1_555
O21 P6 1.477145 1_545
O22 P5 1.553889 1_555
O22 V3 1.873944 1_555
O23 P3 1.602258 1_555
O23 V3 1.827484 1_555
O24 P9 1.547860 1_555
O24 V4 2.010043 1_555
O25 P8 1.567967 1_555
O25 V2 1.943428 1_555
O26 P9 1.566377 1_555
O26 V2 1.848011 1_545
O27 P1 1.466556 1_455
O28 P14 1.483816 1_555
O29 P6 1.574576 1_555
O29 V3 1.840111 1_565
O30 P7 1.554613 1_555
O30 V3 1.977392 1_555
O31 P14 1.608871 1_655
O31 P7 1.626636 1_555
O32 P6 1.541218 1_555
O32 V1 1.900824 1_555
O33 P12 1.615586 1_555
O33 V2 1.820280 1_555
O34 P10 1.555466 1_555
O34 V2 1.870697 1_555
O35 P10 1.474381 1_555
O36 P9 1.480906 1_565
O37 P10 1.606252 1_545
O37 P9 1.618822 1_555
O38 P13 1.553305 1_555
O38 V3 1.862782 1_565
O39 P11 1.576297 1_555
O39 V1 1.870325 1_555
O40 P8 1.587047 1_555
O40 V4 1.822684 1_455
O41 P11 1.566393 1_555
O41 V3 2.004096 1_565
O42 P12 1.483805 1_555
O43 P11 1.485210 1_555
O44 P14 1.552035 1_555
O44 V1 1.879709 1_555
O45 P12 1.572880 1_555
O45 V5 1.952228 1_555
O46 P12 1.572199 1_555
O46 V4 1.984559 1_455
O47 P10 1.560338 1_555
O47 V5 1.851308 1_555
O48 P13 1.600768 1_555
O48 P0 1.627054 1_555
O49 P0 1.473231 1_555
O50 P13 1.566033 1_555
O50 V0 1.846646 1_555
O51 P11 1.608576 1_555
O51 V0 1.864652 1_555
O52 P15 1.538125 1_555
O52 V4 1.916529 1_455
O53 P15 1.550962 1_555
O53 V5 1.874815 1_555
O54 P7 1.482847 1_455
O55 P14 1.564959 1_555
O55 V0 1.951483 1_555
O56 P2 1.498643 1_555
O57 P15 1.612832 1_555
O57 P2 1.616777 1_555
