# generated using pymatgen
data_Na6SbO5
_symmetry_space_group_name_H-M   'P 1'
_cell_length_a   6.10872533
_cell_length_b   6.10872533
_cell_length_c   10.96503600
_cell_angle_alpha   90.00000000
_cell_angle_beta   90.00000000
_cell_angle_gamma   124.02000868
_symmetry_Int_Tables_number   1
_chemical_formula_structural   Na6SbO5
_chemical_formula_sum   'Na12 Sb2 O10'
_cell_volume   339.14321685
_cell_formula_units_Z   2
loop_
 _symmetry_equiv_pos_site_id
 _symmetry_equiv_pos_as_xyz
  1  'x, y, z'
loop_
 _atom_site_type_symbol
 _atom_site_label
 _atom_site_symmetry_multiplicity
 _atom_site_fract_x
 _atom_site_fract_y
 _atom_site_fract_z
 _atom_site_occupancy
  Na  Na0  1  0.16449400  0.57002200  0.25000000  1
  Na  Na1  1  0.42997800  0.83550600  0.75000000  1
  Na  Na2  1  0.77914600  0.22085400  0.00000000  1
  Na  Na3  1  0.77914600  0.22085400  0.50000000  1
  Na  Na4  1  0.22085400  0.77914600  0.50000000  1
  Na  Na5  1  0.22085400  0.77914600  0.00000000  1
  Na  Na6  1  0.83550600  0.42997800  0.75000000  1
  Na  Na7  1  0.57002200  0.16449400  0.25000000  1
  Na  Na8  1  0.68523900  0.68523900  0.93894900  1
  Na  Na9  1  0.68523900  0.68523900  0.56105100  1
  Na  Na10  1  0.31476100  0.31476100  0.06105100  1
  Na  Na11  1  0.31476100  0.31476100  0.43894900  1
  Sb  Sb0  1  0.21938400  0.21938400  0.75000000  1
  Sb  Sb1  1  0.78061600  0.78061600  0.25000000  1
  O  O0  1  0.16234000  0.43319600  0.61723100  1
  O  O1  1  0.56680400  0.83766000  0.11723100  1
  O  O2  1  0.56680400  0.83766000  0.38276900  1
  O  O3  1  0.16234000  0.43319600  0.88276900  1
  O  O4  1  0.43319600  0.16234000  0.61723100  1
  O  O5  1  0.83766000  0.56680400  0.11723100  1
  O  O6  1  0.43319600  0.16234000  0.88276900  1
  O  O7  1  0.83766000  0.56680400  0.38276900  1
  O  O8  1  0.86736500  0.86736500  0.75000000  1
  O  O9  1  0.13263500  0.13263500  0.25000000  1
loop_
_geom_bond_atom_site_label_1
_geom_bond_atom_site_label_2
_geom_bond_distance
_geom_bond_site_symmetry_2
Na0 O7 2.462121 1_455
Na0 O5 2.462121 1_455
Na0 O2 2.517180 1_555
Na0 O1 2.517180 1_555
Na0 O9 2.568063 1_555
Na1 O6 2.462121 1_565
Na1 O4 2.462121 1_565
Na1 O3 2.517180 1_555
Na1 O0 2.517180 1_555
Na1 O8 2.568063 1_555
Na2 O5 2.323997 1_555
Na2 O6 2.323997 1_554
Na2 O1 2.327402 1_545
Na2 O3 2.327402 1_654
Na3 O4 2.323997 1_555
Na3 O7 2.323997 1_555
Na3 O0 2.327402 1_655
Na3 O2 2.327402 1_545
Na4 O0 2.323997 1_555
Na4 O2 2.323997 1_555
Na4 O4 2.327402 1_565
Na4 O7 2.327402 1_455
Na5 O1 2.323997 1_555
Na5 O3 2.323997 1_554
Na5 O5 2.327402 1_455
Na5 O6 2.327402 1_564
Na6 O3 2.462121 1_655
Na6 O0 2.462121 1_655
Na6 O6 2.517180 1_555
Na6 O4 2.517180 1_555
Na6 O8 2.568063 1_555
Na7 O2 2.462121 1_545
Na7 O1 2.462121 1_545
Na7 O7 2.517180 1_555
Na7 O5 2.517180 1_555
Na7 O9 2.568063 1_555
Na8 O8 2.320134 1_555
Na8 O1 2.442471 1_556
Na8 O5 2.442471 1_556
Na8 O6 2.729489 1_555
Na8 O3 2.729489 1_555
Na9 O8 2.320134 1_555
Na9 O2 2.442471 1_555
Na9 O7 2.442471 1_555
Na9 O4 2.729489 1_555
Na9 O0 2.729489 1_555
Na10 O9 2.320134 1_555
Na10 O3 2.442471 1_554
Na10 O6 2.442471 1_554
Na10 O1 2.729489 1_555
Na10 O5 2.729489 1_555
Na11 O9 2.320134 1_555
Na11 O0 2.442471 1_555
Na11 O4 2.442471 1_555
Na11 O7 2.729489 1_555
Na11 O2 2.729489 1_555
O0 Sb0 2.110938 1_555
O1 Sb1 2.110938 1_555
O2 Sb1 2.110938 1_555
O3 Sb0 2.110938 1_555
O4 Sb0 2.110938 1_555
O5 Sb1 2.110938 1_555
O6 Sb0 2.110938 1_555
O7 Sb1 2.110938 1_555
O8 Sb0 2.018428 1_665
O9 Sb1 2.018428 1_445
