# generated using pymatgen
data_Li3FeCo3O8
_symmetry_space_group_name_H-M   'P 1'
_cell_length_a   5.97286824
_cell_length_b   5.97286824
_cell_length_c   5.97286819
_cell_angle_alpha   59.16098232
_cell_angle_beta   59.16098232
_cell_angle_gamma   59.16097785
_symmetry_Int_Tables_number   1
_chemical_formula_structural   Li3FeCo3O8
_chemical_formula_sum   'Li3 Fe1 Co3 O8'
_cell_volume   147.79152629
_cell_formula_units_Z   1
loop_
 _symmetry_equiv_pos_site_id
 _symmetry_equiv_pos_as_xyz
  1  'x, y, z'
loop_
 _atom_site_type_symbol
 _atom_site_label
 _atom_site_symmetry_multiplicity
 _atom_site_fract_x
 _atom_site_fract_y
 _atom_site_fract_z
 _atom_site_occupancy
  Li  Li0  1  0.50000000  0.00000000  0.00000000  1
  Li  Li1  1  0.00000000  0.50000000  0.00000000  1
  Li  Li2  1  0.00000000  0.00000000  0.50000000  1
  Fe  Fe0  1  0.00000000  0.00000000  0.00000000  1
  Co  Co0  1  0.50000000  0.50000000  0.00000000  1
  Co  Co1  1  0.00000000  0.50000000  0.50000000  1
  Co  Co2  1  0.50000000  0.00000000  0.50000000  1
  O  O0  1  0.76538800  0.25292800  0.76538800  1
  O  O1  1  0.25292800  0.76538800  0.76538800  1
  O  O2  1  0.76538800  0.76538800  0.25292800  1
  O  O3  1  0.25553500  0.25553500  0.25553500  1
  O  O4  1  0.74446500  0.74446500  0.74446500  1
  O  O5  1  0.23461200  0.23461200  0.74707200  1
  O  O6  1  0.74707200  0.23461200  0.23461200  1
  O  O7  1  0.23461200  0.74707200  0.23461200  1
loop_
_geom_bond_atom_site_label_1
_geom_bond_atom_site_label_2
_geom_bond_distance
_geom_bond_site_symmetry_2
Li0 O3 2.147016 1_555
Li0 O4 2.147016 1_544
Li0 O2 2.183091 1_545
Li0 O5 2.183091 1_554
Li0 O0 2.183091 1_554
Li0 O7 2.183091 1_545
Li1 O3 2.147016 1_555
Li1 O4 2.147016 1_454
Li1 O5 2.183091 1_554
Li1 O2 2.183091 1_455
Li1 O1 2.183091 1_554
Li1 O6 2.183091 1_455
Li2 O3 2.147016 1_555
Li2 O4 2.147016 1_445
Li2 O1 2.183091 1_545
Li2 O0 2.183091 1_455
Li2 O6 2.183091 1_455
Li2 O7 2.183091 1_545
Fe0 O6 1.970267 1_455
Fe0 O7 1.970267 1_545
Fe0 O0 1.970267 1_454
Fe0 O1 1.970267 1_544
Fe0 O5 1.970267 1_554
Fe0 O2 1.970267 1_445
Co0 O7 2.024499 1_555
Co0 O6 2.024499 1_555
Co0 O0 2.024499 1_554
Co0 O1 2.024499 1_554
Co0 O4 2.051772 1_554
Co0 O3 2.051772 1_555
Co1 O5 2.024499 1_555
Co1 O2 2.024499 1_455
Co1 O7 2.024499 1_555
Co1 O0 2.024499 1_455
Co1 O4 2.051772 1_455
Co1 O3 2.051772 1_555
Co2 O5 2.024499 1_555
Co2 O2 2.024499 1_545
Co2 O6 2.024499 1_555
Co2 O1 2.024499 1_545
Co2 O4 2.051772 1_545
Co2 O3 2.051772 1_555
