# generated using pymatgen
data_Li4V2CrTeO12
_symmetry_space_group_name_H-M   'P 1'
_cell_length_a   5.06248000
_cell_length_b   5.32188995
_cell_length_c   7.32971655
_cell_angle_alpha   86.10822234
_cell_angle_beta   89.72000477
_cell_angle_gamma   89.92189222
_symmetry_Int_Tables_number   1
_chemical_formula_structural   Li4V2CrTeO12
_chemical_formula_sum   'Li4 V2 Cr1 Te1 O12'
_cell_volume   197.01910639
_cell_formula_units_Z   1
loop_
 _symmetry_equiv_pos_site_id
 _symmetry_equiv_pos_as_xyz
  1  'x, y, z'
loop_
 _atom_site_type_symbol
 _atom_site_label
 _atom_site_symmetry_multiplicity
 _atom_site_fract_x
 _atom_site_fract_y
 _atom_site_fract_z
 _atom_site_occupancy
  Li  Li0  1  0.99846300  0.59544100  0.27797000  1
  Li  Li1  1  0.50352200  0.07929200  0.80434800  1
  Li  Li2  1  0.00318400  0.56854900  0.79730800  1
  Li  Li3  1  0.49167200  0.05169300  0.26459600  1
  V  V0  1  0.00450400  0.01167300  0.50308200  1
  V  V1  1  0.49782200  0.52143400  0.00153000  1
  Cr  Cr0  1  0.99560600  0.02243200  0.00535800  1
  Te  Te0  1  0.50078600  0.50176500  0.50026700  1
  O  O0  1  0.69492700  0.79657500  0.42116100  1
  O  O1  1  0.88922400  0.99077800  0.73160500  1
  O  O2  1  0.68934400  0.17537200  0.04745000  1
  O  O3  1  0.80984400  0.29906800  0.42548700  1
  O  O4  1  0.20689600  0.29238400  0.94008200  1
  O  O5  1  0.62883600  0.47600700  0.74644700  1
  O  O6  1  0.37534700  0.47375100  0.24872900  1
  O  O7  1  0.79837100  0.67314300  0.04486600  1
  O  O8  1  0.17942600  0.67206200  0.55767700  1
  O  O9  1  0.30164500  0.78460600  0.94064200  1
  O  O10  1  0.10965700  0.98225000  0.25633700  1
  O  O11  1  0.32092800  0.17412400  0.55625600  1
loop_
_geom_bond_atom_site_label_1
_geom_bond_atom_site_label_2
_geom_bond_distance
_geom_bond_site_symmetry_2
Li0 O7 2.009035 1_555
Li0 O6 2.029080 1_655
Li0 O3 2.081151 1_555
Li0 O10 2.130175 1_655
Li0 O0 2.177354 1_555
Li0 O8 2.311195 1_655
Li1 O9 2.069714 1_545
Li1 O11 2.075211 1_555
Li1 O1 2.083333 1_545
Li1 O2 2.112543 1_556
Li1 O4 2.159812 1_555
Li1 O5 2.217982 1_555
Li2 O5 2.001854 1_455
Li2 O8 2.009788 1_555
Li2 O4 2.028894 1_555
Li2 O7 2.189656 1_456
Li2 O9 2.212030 1_555
Li2 O1 2.338014 1_455
Li3 O2 1.952416 1_555
Li3 O10 1.971424 1_545
Li3 O0 2.003829 1_545
Li3 O6 2.316699 1_555
Li3 O11 2.431319 1_555
Li3 O3 2.439973 1_555
Cr0 O2 1.785363 1_555
Cr0 O4 1.828368 1_654
Cr0 O10 1.928701 1_645
Cr0 O9 2.072755 1_644
Cr0 O1 2.097924 1_544
Cr0 O7 2.113160 1_545
O0 Te0 1.907590 1_555
O0 V0 2.057802 1_665
O1 V0 1.767470 1_665
O2 V1 2.087921 1_555
O3 V0 1.875425 1_655
O3 Te0 1.994829 1_555
O4 V1 1.985908 1_556
O5 Te0 1.916403 1_555
O5 V1 2.010692 1_556
O6 V1 1.912810 1_555
O6 Te0 1.968183 1_555
O7 V1 1.763710 1_555
O8 Te0 1.919960 1_555
O8 V0 2.027765 1_565
O9 V1 1.750086 1_556
O10 V0 1.899377 1_565
O11 V0 1.876437 1_555
O11 Te0 1.985296 1_555
