# generated using pymatgen
data_Li8Te2O9
_symmetry_space_group_name_H-M   'P 1'
_cell_length_a   6.02130100
_cell_length_b   9.14449333
_cell_length_c   15.71093045
_cell_angle_alpha   86.97267273
_cell_angle_beta   100.69367108
_cell_angle_gamma   109.06995343
_symmetry_Int_Tables_number   1
_chemical_formula_structural   Li8Te2O9
_chemical_formula_sum   'Li32 Te8 O36'
_cell_volume   803.36910166
_cell_formula_units_Z   4
loop_
 _symmetry_equiv_pos_site_id
 _symmetry_equiv_pos_as_xyz
  1  'x, y, z'
loop_
 _atom_site_type_symbol
 _atom_site_label
 _atom_site_symmetry_multiplicity
 _atom_site_fract_x
 _atom_site_fract_y
 _atom_site_fract_z
 _atom_site_occupancy
  Li  Li0  1  0.91296900  0.12885800  0.97417100  1
  Li  Li1  1  0.67701400  0.61850000  0.96312700  1
  Li  Li2  1  0.44124800  0.13202600  0.95735900  1
  Li  Li3  1  0.15881900  0.61641000  0.95211300  1
  Li  Li4  1  0.26289100  0.40991700  0.85398200  1
  Li  Li5  1  0.97473400  0.83753100  0.85200700  1
  Li  Li6  1  0.59447600  0.62152600  0.76374800  1
  Li  Li7  1  0.33154900  0.12198400  0.73877700  1
  Li  Li8  1  0.05380400  0.62439200  0.76194300  1
  Li  Li9  1  0.79192000  0.12181900  0.73816600  1
  Li  Li10  1  0.12608400  0.32682000  0.65302000  1
  Li  Li11  1  0.40186500  0.91156300  0.63936100  1
  Li  Li12  1  0.48882400  0.63551000  0.54676600  1
  Li  Li13  1  0.20328800  0.11700900  0.54575100  1
  Li  Li14  1  0.71128700  0.11906500  0.54038400  1
  Li  Li15  1  0.94029400  0.63120200  0.52595400  1
  Li  Li16  1  0.05970600  0.36879800  0.47404600  1
  Li  Li17  1  0.28871300  0.88093500  0.45961600  1
  Li  Li18  1  0.79671200  0.88299100  0.45424900  1
  Li  Li19  1  0.51117600  0.36449000  0.45323400  1
  Li  Li20  1  0.59813500  0.08843700  0.36063900  1
  Li  Li21  1  0.87391600  0.67318000  0.34698000  1
  Li  Li22  1  0.20808000  0.87818100  0.26183400  1
  Li  Li23  1  0.94619600  0.37560800  0.23805700  1
  Li  Li24  1  0.66845100  0.87801600  0.26122300  1
  Li  Li25  1  0.40552400  0.37847400  0.23625200  1
  Li  Li26  1  0.02526600  0.16246900  0.14799300  1
  Li  Li27  1  0.73710900  0.59008300  0.14601800  1
  Li  Li28  1  0.84118100  0.38359000  0.04788700  1
  Li  Li29  1  0.55875200  0.86797400  0.04264100  1
  Li  Li30  1  0.32298600  0.38150000  0.03687300  1
  Li  Li31  1  0.08703100  0.87114200  0.02582900  1
  Te  Te0  1  0.74488000  0.37184400  0.85738600  1
  Te  Te1  1  0.49511800  0.86684000  0.85785800  1
  Te  Te2  1  0.63748800  0.36912400  0.63590100  1
  Te  Te3  1  0.89467400  0.87828000  0.64752800  1
  Te  Te4  1  0.10532600  0.12172000  0.35247200  1
  Te  Te5  1  0.36251200  0.63087600  0.36409900  1
  Te  Te6  1  0.50488200  0.13316000  0.14214200  1
  Te  Te7  1  0.25512000  0.62815600  0.14261400  1
  O  O0  1  0.55628700  0.37505800  0.94588700  1
  O  O1  1  0.77569200  0.87497400  0.94738800  1
  O  O2  1  0.29128000  0.88094400  0.93854400  1
  O  O3  1  0.01700700  0.36675200  0.94550400  1
  O  O4  1  0.61871900  0.14726700  0.85203300  1
  O  O5  1  0.37364300  0.64300500  0.84694700  1
  O  O6  1  0.85926300  0.59867900  0.85426500  1
  O  O7  1  0.72181500  0.87990600  0.74227600  1
  O  O8  1  0.45812500  0.37142000  0.76781500  1
  O  O9  1  0.17143900  0.87390600  0.73603800  1
  O  O10  1  0.94669900  0.36585100  0.77002000  1
  O  O11  1  0.52281500  0.14364000  0.64222600  1
  O  O12  1  0.01191700  0.10555500  0.65255000  1
  O  O13  1  0.77216900  0.65158700  0.64807100  1
  O  O14  1  0.34565500  0.38069400  0.56060400  1
  O  O15  1  0.07734800  0.87379700  0.55696200  1
  O  O16  1  0.82386800  0.37086000  0.54511400  1
  O  O17  1  0.61427200  0.87841300  0.56030900  1
  O  O18  1  0.38572800  0.12158700  0.43969100  1
  O  O19  1  0.17613200  0.62914000  0.45488600  1
  O  O20  1  0.92265200  0.12620300  0.44303800  1
  O  O21  1  0.65434500  0.61930600  0.43939600  1
  O  O22  1  0.22783100  0.34841300  0.35192900  1
  O  O23  1  0.98808300  0.89444500  0.34745000  1
  O  O24  1  0.47718500  0.85636000  0.35777400  1
  O  O25  1  0.05330100  0.63414900  0.22998000  1
  O  O26  1  0.82856100  0.12609400  0.26396200  1
  O  O27  1  0.54187500  0.62858000  0.23218500  1
  O  O28  1  0.27818500  0.12009400  0.25772400  1
  O  O29  1  0.62635700  0.35699500  0.15305300  1
  O  O30  1  0.38128100  0.85273300  0.14796700  1
  O  O31  1  0.14073700  0.40132100  0.14573500  1
  O  O32  1  0.98299300  0.63324800  0.05449600  1
  O  O33  1  0.70872000  0.11905600  0.06145600  1
  O  O34  1  0.22430800  0.12502600  0.05261200  1
  O  O35  1  0.44371300  0.62494200  0.05411300  1
loop_
_geom_bond_atom_site_label_1
_geom_bond_atom_site_label_2
_geom_bond_distance
_geom_bond_site_symmetry_2
Li0 O33 1.985440 1_556
Li0 O34 2.053129 1_656
Li0 O3 2.106763 1_655
Li0 O1 2.229449 1_545
Li0 O4 2.397649 1_555
Li1 O32 2.085621 1_556
Li1 O0 2.119133 1_555
Li1 O35 2.197377 1_556
Li1 O1 2.235489 1_555
Li1 O6 2.240880 1_555
Li1 O5 2.388638 1_555
Li2 O33 2.099864 1_556
Li2 O4 2.105747 1_555
Li2 O0 2.109377 1_555
Li2 O34 2.147250 1_556
Li2 O2 2.189138 1_545
Li3 O35 2.102950 1_556
Li3 O6 2.109291 1_455
Li3 O32 2.120521 1_456
Li3 O3 2.161081 1_555
Li3 O5 2.237732 1_555
Li3 O2 2.298082 1_555
Li4 O5 2.018355 1_555
Li4 O10 2.037162 1_455
Li4 O8 2.061533 1_555
Li4 O0 2.163370 1_555
Li4 O3 2.182564 1_555
Li5 O2 2.059083 1_655
Li5 O6 2.064934 1_555
Li5 O7 2.186820 1_555
Li5 O1 2.188161 1_555
Li5 O9 2.304890 1_655
Li6 O6 1.988179 1_555
Li6 O5 2.087606 1_555
Li6 O8 2.164712 1_555
Li6 O13 2.236055 1_555
Li6 O7 2.261042 1_555
Li7 O11 2.033258 1_555
Li7 O12 2.104007 1_555
Li7 O9 2.154854 1_545
Li7 O8 2.199252 1_555
Li7 O4 2.202242 1_555
Li8 O6 1.986412 1_455
Li8 O5 2.092061 1_555
Li8 O9 2.196872 1_555
Li8 O10 2.241416 1_455
Li8 O13 2.289306 1_455
Li9 O11 2.051942 1_555
Li9 O12 2.096976 1_655
Li9 O7 2.112084 1_545
Li9 O10 2.164419 1_555
Li9 O4 2.288470 1_555
Li10 O12 1.912431 1_555
Li10 O14 2.076061 1_555
Li10 O16 2.368447 1_455
Li10 O8 2.371294 1_555
Li10 O10 2.393957 1_455
Li11 O11 2.006051 1_565
Li11 O17 2.037836 1_555
Li11 O15 2.069016 1_555
Li11 O9 2.182955 1_555
Li11 O7 2.359782 1_555
Li12 O13 2.078139 1_555
Li12 O17 2.107982 1_555
Li12 O19 2.135578 1_555
Li12 O21 2.146551 1_555
Li12 O14 2.218901 1_555
Li13 O15 2.111541 1_545
Li13 O20 2.129103 1_455
Li13 O18 2.151040 1_555
Li13 O11 2.170006 1_555
Li13 O12 2.185010 1_555
Li13 O14 2.288672 1_555
Li14 O17 2.106451 1_545
Li14 O20 2.149556 1_555
Li14 O16 2.178572 1_555
Li14 O11 2.185630 1_555
Li14 O18 2.284892 1_555
Li14 O12 2.310147 1_655
Li15 O21 1.962142 1_555
Li15 O19 1.967668 1_655
Li15 O15 2.146710 1_655
Li15 O16 2.271966 1_555
Li15 O13 2.371152 1_555
Li16 O14 1.962142 1_555
Li16 O16 1.967668 1_455
Li16 O20 2.146710 1_455
Li16 O19 2.271966 1_555
Li16 O22 2.371152 1_555
Li17 O18 2.106451 1_565
Li17 O15 2.149556 1_555
Li17 O19 2.178572 1_555
Li17 O24 2.185630 1_555
Li17 O17 2.284892 1_555
Li17 O23 2.310147 1_455
Li18 O20 2.111541 1_565
Li18 O15 2.129103 1_655
Li18 O17 2.151040 1_555
Li18 O24 2.170006 1_555
Li18 O23 2.185010 1_555
Li18 O21 2.288672 1_555
Li19 O22 2.078139 1_555
Li19 O18 2.107982 1_555
Li19 O16 2.135578 1_555
Li19 O14 2.146551 1_555
Li19 O21 2.218901 1_555
Li20 O24 2.006051 1_545
Li20 O18 2.037836 1_555
Li20 O20 2.069016 1_555
Li20 O26 2.182955 1_555
Li20 O28 2.359782 1_555
Li21 O23 1.912431 1_555
Li21 O21 2.076061 1_555
Li21 O19 2.368447 1_655
Li21 O27 2.371294 1_555
Li21 O25 2.393957 1_655
Li22 O24 2.051942 1_555
Li22 O23 2.096976 1_455
Li22 O28 2.112084 1_565
Li22 O25 2.164419 1_555
Li22 O30 2.288470 1_555
Li23 O31 1.986412 1_655
Li23 O29 2.092061 1_555
Li23 O26 2.196872 1_555
Li23 O25 2.241416 1_655
Li23 O22 2.289306 1_655
Li24 O24 2.033258 1_555
Li24 O23 2.104007 1_555
Li24 O26 2.154854 1_565
Li24 O27 2.199252 1_555
Li24 O30 2.202242 1_555
Li25 O31 1.988179 1_555
Li25 O29 2.087606 1_555
Li25 O27 2.164712 1_555
Li25 O22 2.236055 1_555
Li25 O28 2.261042 1_555
Li26 O33 2.059083 1_455
Li26 O31 2.064934 1_555
Li26 O28 2.186820 1_555
Li26 O34 2.188161 1_555
Li26 O26 2.304890 1_455
Li27 O29 2.018355 1_555
Li27 O25 2.037162 1_655
Li27 O27 2.061533 1_555
Li27 O35 2.163370 1_555
Li27 O32 2.182564 1_555
Li28 O0 2.102950 1_554
Li28 O31 2.109291 1_655
Li28 O3 2.120521 1_654
Li28 O32 2.161081 1_555
Li28 O29 2.237732 1_555
Li28 O33 2.298082 1_555
Li29 O2 2.099864 1_554
Li29 O30 2.105747 1_555
Li29 O35 2.109377 1_555
Li29 O1 2.147250 1_554
Li29 O33 2.189138 1_565
Li30 O3 2.085621 1_554
Li30 O35 2.119133 1_555
Li30 O0 2.197377 1_554
Li30 O34 2.235489 1_555
Li30 O31 2.240880 1_555
Li30 O29 2.388638 1_555
Li31 O2 1.985440 1_554
Li31 O1 2.053129 1_454
Li31 O32 2.106763 1_455
Li31 O34 2.229449 1_565
Li31 O30 2.397649 1_555
O0 Te0 1.958518 1_555
O1 Te1 1.971101 1_555
O2 Te1 1.956562 1_555
O3 Te0 1.950600 1_455
O4 Te0 1.943378 1_555
O4 Te1 2.427265 1_545
O5 Te1 1.940680 1_555
O6 Te0 1.961555 1_555
O7 Te3 1.971516 1_555
O7 Te1 2.442423 1_555
O8 Te0 2.013974 1_555
O8 Te2 2.512397 1_555
O9 Te3 1.972343 1_455
O9 Te1 2.480040 1_555
O10 Te0 2.008548 1_555
O10 Te2 2.545821 1_555
O11 Te2 1.952362 1_555
O12 Te3 1.965174 1_445
O13 Te3 1.960295 1_555
O13 Te2 2.447828 1_555
O14 Te2 1.958381 1_555
O15 Te3 1.962795 1_455
O16 Te2 1.968295 1_555
O17 Te3 1.967461 1_555
O18 Te4 1.967461 1_555
O19 Te5 1.968295 1_555
O20 Te4 1.962795 1_655
O21 Te5 1.958381 1_555
O22 Te4 1.960295 1_555
O22 Te5 2.447828 1_555
O23 Te4 1.965174 1_665
O24 Te5 1.952362 1_555
O25 Te7 2.008548 1_555
O25 Te5 2.545821 1_555
O26 Te4 1.972343 1_655
O26 Te6 2.480040 1_555
O27 Te7 2.013974 1_555
O27 Te5 2.512397 1_555
O28 Te4 1.971516 1_555
O28 Te6 2.442423 1_555
O29 Te6 1.940680 1_555
O30 Te7 1.943378 1_555
O30 Te6 2.427265 1_565
O31 Te7 1.961555 1_555
O32 Te7 1.950600 1_655
O33 Te6 1.956562 1_555
O34 Te6 1.971101 1_555
O35 Te7 1.958518 1_555
