# generated using pymatgen
data_Ba2Hf7O16
_symmetry_space_group_name_H-M   'P 1'
_cell_length_a   9.77802727
_cell_length_b   9.77802727
_cell_length_c   9.77802699
_cell_angle_alpha   38.62390965
_cell_angle_beta   38.62390965
_cell_angle_gamma   38.62390701
_symmetry_Int_Tables_number   1
_chemical_formula_structural   Ba2Hf7O16
_chemical_formula_sum   'Ba2 Hf7 O16'
_cell_volume   327.35232994
_cell_formula_units_Z   1
loop_
 _symmetry_equiv_pos_site_id
 _symmetry_equiv_pos_as_xyz
  1  'x, y, z'
loop_
 _atom_site_type_symbol
 _atom_site_label
 _atom_site_symmetry_multiplicity
 _atom_site_fract_x
 _atom_site_fract_y
 _atom_site_fract_z
 _atom_site_occupancy
  Ba  Ba0  1  0.33391700  0.33391700  0.33391700  1
  Ba  Ba1  1  0.66608300  0.66608300  0.66608300  1
  Hf  Hf0  1  0.00000000  0.00000000  0.00000000  1
  Hf  Hf1  1  0.88595800  0.24821600  0.51591100  1
  Hf  Hf2  1  0.48408900  0.11404200  0.75178400  1
  Hf  Hf3  1  0.75178400  0.48408900  0.11404200  1
  Hf  Hf4  1  0.24821600  0.51591100  0.88595800  1
  Hf  Hf5  1  0.51591100  0.88595800  0.24821600  1
  Hf  Hf6  1  0.11404200  0.75178400  0.48408900  1
  O  O0  1  0.23320400  0.23320400  0.23320400  1
  O  O1  1  0.96109100  0.21553900  0.68738200  1
  O  O2  1  0.85105400  0.15028200  0.41081500  1
  O  O3  1  0.58918500  0.14894600  0.84971800  1
  O  O4  1  0.31261800  0.03890900  0.78446100  1
  O  O5  1  0.78446100  0.31261800  0.03890900  1
  O  O6  1  0.84971800  0.58918500  0.14894600  1
  O  O7  1  0.43301600  0.43301600  0.43301600  1
  O  O8  1  0.56698400  0.56698400  0.56698400  1
  O  O9  1  0.15028200  0.41081500  0.85105400  1
  O  O10  1  0.21553900  0.68738200  0.96109100  1
  O  O11  1  0.68738200  0.96109100  0.21553900  1
  O  O12  1  0.41081500  0.85105400  0.15028200  1
  O  O13  1  0.14894600  0.84971800  0.58918500  1
  O  O14  1  0.03890900  0.78446100  0.31261800  1
  O  O15  1  0.76679600  0.76679600  0.76679600  1
loop_
_geom_bond_atom_site_label_1
_geom_bond_atom_site_label_2
_geom_bond_distance
_geom_bond_site_symmetry_2
Ba0 O7 2.686673 1_555
Ba0 O11 2.688884 1_545
Ba0 O10 2.688884 1_554
Ba0 O1 2.688884 1_455
Ba0 O14 2.724125 1_555
Ba0 O4 2.724125 1_555
Ba0 O5 2.724125 1_555
Ba0 O0 2.730430 1_555
Ba1 O8 2.686673 1_555
Ba1 O4 2.688884 1_565
Ba1 O5 2.688884 1_556
Ba1 O14 2.688884 1_655
Ba1 O1 2.724125 1_555
Ba1 O11 2.724125 1_555
Ba1 O10 2.724125 1_555
Ba1 O15 2.730430 1_555
Hf0 O5 2.104395 1_455
Hf0 O10 2.104395 1_544
Hf0 O14 2.104395 1_545
Hf0 O1 2.104395 1_454
Hf0 O4 2.104396 1_554
Hf0 O11 2.104396 1_445
Hf1 O1 2.042976 1_555
Hf1 O0 2.093130 1_655
Hf1 O8 2.121504 1_555
Hf1 O3 2.160492 1_555
Hf1 O2 2.164671 1_555
Hf1 O13 2.273579 1_645
Hf1 O6 2.358923 1_555
Hf2 O4 2.042976 1_555
Hf2 O15 2.093130 1_545
Hf2 O7 2.121504 1_555
Hf2 O9 2.160492 1_555
Hf2 O3 2.164671 1_555
Hf2 O12 2.273579 1_546
Hf2 O2 2.358923 1_555
Hf3 O5 2.042976 1_555
Hf3 O15 2.093130 1_554
Hf3 O7 2.121504 1_555
Hf3 O2 2.160492 1_555
Hf3 O6 2.164671 1_555
Hf3 O9 2.273579 1_654
Hf3 O12 2.358923 1_555
Hf4 O10 2.042976 1_555
Hf4 O0 2.093130 1_556
Hf4 O8 2.121504 1_555
Hf4 O13 2.160492 1_555
Hf4 O9 2.164671 1_555
Hf4 O6 2.273579 1_456
Hf4 O3 2.358923 1_555
Hf5 O11 2.042976 1_555
Hf5 O0 2.093130 1_565
Hf5 O8 2.121504 1_555
Hf5 O6 2.160492 1_555
Hf5 O12 2.164671 1_555
Hf5 O3 2.273579 1_564
Hf5 O13 2.358923 1_555
Hf6 O14 2.042976 1_555
Hf6 O15 2.093130 1_455
Hf6 O7 2.121504 1_555
Hf6 O12 2.160492 1_555
Hf6 O13 2.164671 1_555
Hf6 O2 2.273579 1_465
Hf6 O9 2.358923 1_555
