# generated using pymatgen
data_LiAgF2
_symmetry_space_group_name_H-M   'P 1'
_cell_length_a   2.96382200
_cell_length_b   6.11646900
_cell_length_c   11.28077200
_cell_angle_alpha   90.00000000
_cell_angle_beta   90.00000000
_cell_angle_gamma   90.00000000
_symmetry_Int_Tables_number   1
_chemical_formula_structural   LiAgF2
_chemical_formula_sum   'Li4 Ag4 F8'
_cell_volume   204.49924925
_cell_formula_units_Z   4
loop_
 _symmetry_equiv_pos_site_id
 _symmetry_equiv_pos_as_xyz
  1  'x, y, z'
loop_
 _atom_site_type_symbol
 _atom_site_label
 _atom_site_symmetry_multiplicity
 _atom_site_fract_x
 _atom_site_fract_y
 _atom_site_fract_z
 _atom_site_occupancy
  Li  Li0  1  0.28755100  0.23962000  0.10655400  1
  Li  Li1  1  0.78755100  0.26038000  0.89344600  1
  Li  Li2  1  0.71244900  0.73962000  0.39344600  1
  Li  Li3  1  0.21244900  0.76038000  0.60655400  1
  Ag  Ag0  1  0.66438900  0.23977600  0.61762700  1
  Ag  Ag1  1  0.16438900  0.26022400  0.38237300  1
  Ag  Ag2  1  0.33561100  0.73977600  0.88237300  1
  Ag  Ag3  1  0.83561100  0.76022400  0.11762700  1
  F  F0  1  0.28605400  0.07046800  0.95676400  1
  F  F1  1  0.78441200  0.09194000  0.19705600  1
  F  F2  1  0.28441200  0.40806000  0.80294400  1
  F  F3  1  0.78605400  0.42953200  0.04323600  1
  F  F4  1  0.71394600  0.57046800  0.54323600  1
  F  F5  1  0.21558800  0.59194000  0.30294400  1
  F  F6  1  0.71558800  0.90806000  0.69705600  1
  F  F7  1  0.21394600  0.92953200  0.45676400  1
loop_
_geom_bond_atom_site_label_1
_geom_bond_atom_site_label_2
_geom_bond_distance
_geom_bond_site_symmetry_2
Ag0 F4 2.194765 1_555
Ag0 F6 2.223160 1_545
Ag0 F2 2.588055 1_555
Ag1 F7 2.194765 1_545
Ag1 F5 2.223160 1_555
Ag1 F1 2.588055 1_455
Ag2 F0 2.194765 1_565
Ag2 F2 2.223160 1_555
Ag2 F6 2.588055 1_555
Ag3 F3 2.194765 1_555
Ag3 F1 2.223160 1_565
Ag3 F5 2.588055 1_655
F0 Li0 1.981335 1_556
F0 Li1 2.010575 1_455
F0 Li1 2.017105 1_555
F1 Li0 2.006687 1_555
F1 Li0 2.020381 1_655
F2 Li1 2.006687 1_455
F2 Li1 2.020381 1_555
F3 Li1 1.981335 1_554
F3 Li0 2.010575 1_555
F3 Li0 2.017105 1_655
F4 Li2 1.981335 1_555
F4 Li3 2.010575 1_655
F4 Li3 2.017105 1_555
F5 Li2 2.006687 1_555
F5 Li2 2.020381 1_455
F6 Li3 2.006687 1_655
F6 Li3 2.020381 1_555
F7 Li3 1.981335 1_555
F7 Li2 2.010575 1_555
F7 Li2 2.017105 1_455
