# generated using pymatgen
data_Na5Mn2P2(CO7)2
_symmetry_space_group_name_H-M   'P 1'
_cell_length_a   6.71565000
_cell_length_b   10.33286400
_cell_length_c   10.46921419
_cell_angle_alpha   60.52770564
_cell_angle_beta   90.00000000
_cell_angle_gamma   90.00000000
_symmetry_Int_Tables_number   1
_chemical_formula_structural   Na5Mn2P2(CO7)2
_chemical_formula_sum   'Na10 Mn4 P4 C4 O28'
_cell_volume   632.46773678
_cell_formula_units_Z   2
loop_
 _symmetry_equiv_pos_site_id
 _symmetry_equiv_pos_as_xyz
  1  'x, y, z'
loop_
 _atom_site_type_symbol
 _atom_site_label
 _atom_site_symmetry_multiplicity
 _atom_site_fract_x
 _atom_site_fract_y
 _atom_site_fract_z
 _atom_site_occupancy
  Na  Na0  1  0.75000000  0.91907800  0.92214200  1
  Na  Na1  1  0.99277400  0.74499100  0.25683500  1
  Na  Na2  1  0.50722600  0.74499100  0.25683500  1
  Na  Na3  1  0.99918400  0.75787200  0.73765700  1
  Na  Na4  1  0.50081600  0.75787200  0.73765700  1
  Na  Na5  1  0.49918400  0.24212800  0.26234300  1
  Na  Na6  1  0.00081600  0.24212800  0.26234300  1
  Na  Na7  1  0.49277400  0.25500900  0.74316500  1
  Na  Na8  1  0.00722600  0.25500900  0.74316500  1
  Na  Na9  1  0.25000000  0.08092200  0.07785800  1
  Mn  Mn0  1  0.25000000  0.64398900  0.06808600  1
  Mn  Mn1  1  0.25000000  0.64331000  0.56736000  1
  Mn  Mn2  1  0.75000000  0.35669000  0.43264000  1
  Mn  Mn3  1  0.75000000  0.35601100  0.93191400  1
  P  P0  1  0.75000000  0.58398100  0.05950100  1
  P  P1  1  0.75000000  0.58000300  0.56063200  1
  P  P2  1  0.25000000  0.41999700  0.43936800  1
  P  P3  1  0.25000000  0.41601900  0.94049900  1
  C  C0  1  0.25000000  0.93678000  0.90001400  1
  C  C1  1  0.25000000  0.93080200  0.39547600  1
  C  C2  1  0.75000000  0.06919800  0.60452400  1
  C  C3  1  0.75000000  0.06322000  0.09998600  1
  O  O0  1  0.75000000  0.92752900  0.67955600  1
  O  O1  1  0.75000000  0.92059800  0.17148800  1
  O  O2  1  0.25000000  0.86885100  0.04517600  1
  O  O3  1  0.25000000  0.85810100  0.53941700  1
  O  O4  1  0.25000000  0.85318300  0.84006500  1
  O  O5  1  0.25000000  0.84921200  0.33249500  1
  O  O6  1  0.93401600  0.67886100  0.05327200  1
  O  O7  1  0.56598400  0.67886100  0.05327200  1
  O  O8  1  0.93841800  0.67016900  0.55313800  1
  O  O9  1  0.56158200  0.67016900  0.55313800  1
  O  O10  1  0.75000000  0.55702500  0.42158300  1
  O  O11  1  0.25000000  0.57514800  0.30081800  1
  O  O12  1  0.75000000  0.56391400  0.92054700  1
  O  O13  1  0.25000000  0.57108200  0.80058800  1
  O  O14  1  0.75000000  0.42891800  0.19941200  1
  O  O15  1  0.25000000  0.43608600  0.07945300  1
  O  O16  1  0.75000000  0.42485200  0.69918200  1
  O  O17  1  0.25000000  0.44297500  0.57841700  1
  O  O18  1  0.43841800  0.32983100  0.44686200  1
  O  O19  1  0.06158200  0.32983100  0.44686200  1
  O  O20  1  0.43401600  0.32113900  0.94672800  1
  O  O21  1  0.06598400  0.32113900  0.94672800  1
  O  O22  1  0.75000000  0.15078800  0.66750500  1
  O  O23  1  0.75000000  0.14681700  0.15993500  1
  O  O24  1  0.75000000  0.14189900  0.46058300  1
  O  O25  1  0.75000000  0.13114900  0.95482400  1
  O  O26  1  0.25000000  0.07940200  0.82851200  1
  O  O27  1  0.25000000  0.07247100  0.32044400  1
loop_
_geom_bond_atom_site_label_1
_geom_bond_atom_site_label_2
_geom_bond_distance
_geom_bond_site_symmetry_2
Na0 O25 2.378369 1_565
Na0 O7 2.493945 1_556
Na0 O6 2.493945 1_556
Na0 O0 2.497879 1_555
Na0 O22 2.560960 1_565
Na0 O1 2.618220 1_556
Na1 O1 2.270165 1_555
Na1 O11 2.341111 1_655
Na1 O5 2.368662 1_655
Na1 O10 2.471627 1_555
Na1 O6 2.568530 1_555
Na1 O2 2.596463 1_655
Na1 O8 2.827336 1_555
Na2 O1 2.270165 1_555
Na2 O11 2.341111 1_555
Na2 O5 2.368662 1_555
Na2 O10 2.471627 1_555
Na2 O7 2.568530 1_555
Na2 O2 2.596463 1_555
Na2 O9 2.827336 1_555
Na3 O0 2.279092 1_555
Na3 O13 2.396908 1_655
Na3 O4 2.448577 1_655
Na3 O3 2.470239 1_655
Na3 O8 2.538133 1_555
Na3 O12 2.589809 1_555
Na4 O0 2.279092 1_555
Na4 O13 2.396908 1_555
Na4 O4 2.448577 1_555
Na4 O3 2.470239 1_555
Na4 O9 2.538133 1_555
Na4 O12 2.589809 1_555
Na5 O27 2.279092 1_555
Na5 O14 2.396908 1_555
Na5 O23 2.448577 1_555
Na5 O24 2.470239 1_555
Na5 O18 2.538133 1_555
Na5 O15 2.589809 1_555
Na6 O27 2.279092 1_555
Na6 O14 2.396908 1_455
Na6 O23 2.448577 1_455
Na6 O24 2.470239 1_455
Na6 O19 2.538133 1_555
Na6 O15 2.589809 1_555
Na7 O26 2.270165 1_555
Na7 O16 2.341111 1_555
Na7 O22 2.368662 1_555
Na7 O17 2.471627 1_555
Na7 O20 2.568530 1_555
Na7 O25 2.596463 1_555
Na7 O18 2.827336 1_555
Na8 O26 2.270165 1_555
Na8 O16 2.341111 1_455
Na8 O22 2.368662 1_455
Na8 O17 2.471627 1_555
Na8 O21 2.568530 1_555
Na8 O25 2.596463 1_455
Na8 O19 2.827336 1_555
Na9 O2 2.378369 1_545
Na9 O21 2.493945 1_554
Na9 O20 2.493945 1_554
Na9 O27 2.497879 1_555
Na9 O5 2.560960 1_545
Na9 O26 2.618220 1_554
Mn0 O15 2.092250 1_555
Mn0 O6 2.145214 1_455
Mn0 O7 2.145214 1_555
Mn0 O11 2.176507 1_555
Mn0 O2 2.215325 1_555
Mn0 O4 2.300772 1_554
Mn1 O17 2.015602 1_555
Mn1 O3 2.091043 1_555
Mn1 O9 2.106415 1_555
Mn1 O8 2.106415 1_455
Mn1 O13 2.173892 1_555
Mn1 O5 2.329115 1_555
Mn2 O10 2.015602 1_555
Mn2 O24 2.091043 1_555
Mn2 O18 2.106415 1_555
Mn2 O19 2.106415 1_655
Mn2 O14 2.173892 1_555
Mn2 O22 2.329115 1_555
Mn3 O12 2.092250 1_555
Mn3 O20 2.145214 1_555
Mn3 O21 2.145214 1_655
Mn3 O16 2.176507 1_555
Mn3 O25 2.215325 1_555
Mn3 O23 2.300772 1_556
C0 O26 1.283204 1_565
C0 O4 1.293643 1_555
C0 O2 1.323862 1_556
C1 O27 1.276088 1_565
C1 O5 1.300959 1_555
C1 O3 1.311977 1_555
C2 O0 1.276088 1_545
C2 O22 1.300959 1_555
C2 O24 1.311977 1_555
C3 O1 1.283204 1_545
C3 O23 1.293643 1_555
C3 O25 1.323862 1_554
O6 P0 1.558737 1_555
O7 P0 1.558737 1_555
O8 P1 1.550275 1_555
O9 P1 1.550275 1_555
O10 P1 1.586076 1_555
O11 P2 1.544631 1_555
O12 P0 1.567187 1_556
O13 P3 1.550272 1_555
O14 P0 1.550272 1_555
O15 P3 1.567187 1_554
O16 P1 1.544631 1_555
O17 P2 1.586076 1_555
O18 P2 1.550275 1_555
O19 P2 1.550275 1_555
O20 P3 1.558737 1_555
O21 P3 1.558737 1_555
