# generated using pymatgen
data_Sr3La4O9
_symmetry_space_group_name_H-M   'P 1'
_cell_length_a   7.45127400
_cell_length_b   9.46458647
_cell_length_c   10.69064850
_cell_angle_alpha   79.59370902
_cell_angle_beta   70.74797223
_cell_angle_gamma   73.24871981
_symmetry_Int_Tables_number   1
_chemical_formula_structural   Sr3La4O9
_chemical_formula_sum   'Sr6 La8 O18'
_cell_volume   678.51048224
_cell_formula_units_Z   2
loop_
 _symmetry_equiv_pos_site_id
 _symmetry_equiv_pos_as_xyz
  1  'x, y, z'
loop_
 _atom_site_type_symbol
 _atom_site_label
 _atom_site_symmetry_multiplicity
 _atom_site_fract_x
 _atom_site_fract_y
 _atom_site_fract_z
 _atom_site_occupancy
  Sr  Sr0  1  0.06213400  0.42258400  0.05820300  1
  Sr  Sr1  1  0.38137300  0.18336400  0.22475700  1
  Sr  Sr2  1  0.06992700  0.86408700  0.77220300  1
  Sr  Sr3  1  0.69840300  0.43729600  0.44801700  1
  Sr  Sr4  1  0.86729000  0.17464500  0.94360200  1
  Sr  Sr5  1  0.80677000  0.75826400  0.48976800  1
  La  La0  1  0.42810800  0.12524800  0.87406300  1
  La  La1  1  0.18939700  0.85608800  0.07655400  1
  La  La2  1  0.40163700  0.14652700  0.55496200  1
  La  La3  1  0.30289100  0.81184800  0.39889000  1
  La  La4  1  0.54887700  0.51872500  0.84121000  1
  La  La5  1  0.87815000  0.11153900  0.30389000  1
  La  La6  1  0.72125100  0.81729900  0.10089800  1
  La  La7  1  0.07271300  0.47715700  0.69494700  1
  O  O0  1  0.99566400  0.31895700  0.28568400  1
  O  O1  1  0.26530100  0.04193500  0.44500600  1
  O  O2  1  0.19475300  0.07969100  0.77100100  1
  O  O3  1  0.10943900  0.70336600  0.60674600  1
  O  O4  1  0.06572500  0.80935700  0.30376300  1
  O  O5  1  0.03958300  0.69261500  0.99010200  1
  O  O6  1  0.44735000  0.31587700  0.98626000  1
  O  O7  1  0.55972800  0.27368800  0.35623400  1
  O  O8  1  0.39444600  0.34482700  0.70262600  1
  O  O9  1  0.39572600  0.92042700  0.16911500  1
  O  O10  1  0.43504100  0.74661800  0.90208700  1
  O  O11  1  0.73904800  0.98422000  0.89356500  1
  O  O12  1  0.79102900  0.51464500  0.62777900  1
  O  O13  1  0.63233200  0.69070000  0.34794800  1
  O  O14  1  0.13258400  0.13928300  0.04543400  1
  O  O15  1  0.85379100  0.44323400  0.89583300  1
  O  O16  1  0.78343500  0.01716600  0.15356500  1
  O  O17  1  0.70610200  0.01432300  0.52088700  1
loop_
_geom_bond_atom_site_label_1
_geom_bond_atom_site_label_2
_geom_bond_distance
_geom_bond_site_symmetry_2
La0 O14 2.341360 1_556
La0 O11 2.372440 1_545
La0 O6 2.399749 1_555
La0 O2 2.508075 1_555
La0 O8 2.523425 1_555
La1 O10 2.292638 1_554
La1 O4 2.305570 1_555
La1 O9 2.339703 1_555
La1 O14 2.567237 1_565
La1 O5 2.585869 1_554
La1 O16 2.881853 1_465
La2 O17 2.197384 1_555
La2 O1 2.276247 1_555
La2 O7 2.364931 1_555
La2 O2 2.407740 1_555
La2 O8 2.640830 1_555
La3 O1 2.238075 1_565
La3 O13 2.314879 1_555
La3 O4 2.318526 1_555
La3 O9 2.438437 1_555
La3 O3 2.446721 1_555
La4 O10 2.209926 1_555
La4 O6 2.377170 1_555
La4 O12 2.395848 1_555
La4 O15 2.408719 1_555
La4 O8 3.053669 1_555
La5 O0 2.323559 1_555
La5 O16 2.347005 1_555
La5 O7 2.373515 1_555
La5 O17 2.412337 1_555
La5 O4 2.798065 1_645
La5 O14 2.805025 1_655
La6 O9 2.256964 1_555
La6 O16 2.274234 1_565
La6 O5 2.336782 1_654
La6 O11 2.467461 1_554
La6 O13 2.647763 1_555
La7 O3 2.232945 1_555
La7 O15 2.262483 1_455
La7 O12 2.349360 1_455
La7 O8 2.384197 1_555
O0 Sr0 2.396984 1_655
O0 Sr3 2.430966 1_555
O0 Sr1 2.696779 1_655
O1 Sr1 2.503947 1_555
O2 Sr2 2.471042 1_545
O2 Sr4 2.555803 1_455
O3 Sr2 2.428960 1_555
O3 Sr5 2.805320 1_455
O4 Sr5 2.360381 1_455
O5 Sr0 2.500198 1_556
O5 Sr2 2.570972 1_555
O6 Sr1 2.586344 1_556
O6 Sr0 2.646544 1_556
O6 Sr4 2.941784 1_555
O7 Sr3 2.562839 1_555
O7 Sr1 2.606421 1_555
O8 Sr3 3.085633 1_555
O9 Sr1 2.626361 1_565
O11 Sr2 2.421211 1_655
O11 Sr4 2.475001 1_565
O12 Sr5 2.513948 1_555
O12 Sr3 2.525800 1_555
O13 Sr3 2.424623 1_555
O13 Sr5 2.554598 1_555
O14 Sr4 2.472039 1_454
O14 Sr0 2.599486 1_555
O15 Sr4 2.480042 1_555
O15 Sr0 2.634568 1_656
O16 Sr4 2.460421 1_554
O16 Sr1 2.870757 1_555
O17 Sr5 2.371806 1_545
