# generated using pymatgen
data_Ca6Si6O19
_symmetry_space_group_name_H-M   'P 1'
_cell_length_a   7.42366300
_cell_length_b   7.06721800
_cell_length_c   17.41876133
_cell_angle_alpha   89.59819053
_cell_angle_beta   90.00000000
_cell_angle_gamma   90.00000000
_symmetry_Int_Tables_number   1
_chemical_formula_structural   Ca6Si6O19
_chemical_formula_sum   'Ca12 Si12 O38'
_cell_volume   913.84665350
_cell_formula_units_Z   2
loop_
 _symmetry_equiv_pos_site_id
 _symmetry_equiv_pos_as_xyz
  1  'x, y, z'
loop_
 _atom_site_type_symbol
 _atom_site_label
 _atom_site_symmetry_multiplicity
 _atom_site_fract_x
 _atom_site_fract_y
 _atom_site_fract_z
 _atom_site_occupancy
  Ca  Ca0  1  0.62533400  0.00000000  0.25000000  1
  Ca  Ca1  1  0.37466600  0.00000000  0.75000000  1
  Ca  Ca2  1  0.12436900  0.00000000  0.25000000  1
  Ca  Ca3  1  0.87563100  0.00000000  0.75000000  1
  Ca  Ca4  1  0.87437400  0.15976900  0.43462100  1
  Ca  Ca5  1  0.87437400  0.84023100  0.06537900  1
  Ca  Ca6  1  0.12562600  0.84023100  0.56537900  1
  Ca  Ca7  1  0.12562600  0.15976900  0.93462100  1
  Ca  Ca8  1  0.37543200  0.16068400  0.43302100  1
  Ca  Ca9  1  0.37543200  0.83931600  0.06697900  1
  Ca  Ca10  1  0.62456800  0.83931600  0.56697900  1
  Ca  Ca11  1  0.62456800  0.16068400  0.93302100  1
  Si  Si0  1  0.83465000  0.26906000  0.10540400  1
  Si  Si1  1  0.83465000  0.73094000  0.39459600  1
  Si  Si2  1  0.16535000  0.73094000  0.89459600  1
  Si  Si3  1  0.16535000  0.26906000  0.60540400  1
  Si  Si4  1  0.41453700  0.26771100  0.10539300  1
  Si  Si5  1  0.41453700  0.73228900  0.39460700  1
  Si  Si6  1  0.58546300  0.73228900  0.89460700  1
  Si  Si7  1  0.58546300  0.26771100  0.60539300  1
  Si  Si8  1  0.12474800  0.44533900  0.34078100  1
  Si  Si9  1  0.12474800  0.55466100  0.15921900  1
  Si  Si10  1  0.87525200  0.55466100  0.65921900  1
  Si  Si11  1  0.87525200  0.44533900  0.84078100  1
  O  O0  1  0.12532400  0.50000000  0.25000000  1
  O  O1  1  0.87467600  0.50000000  0.75000000  1
  O  O2  1  0.62436900  0.34227600  0.10571200  1
  O  O3  1  0.62436900  0.65772400  0.39428800  1
  O  O4  1  0.37563100  0.65772400  0.89428800  1
  O  O5  1  0.37563100  0.34227600  0.60571200  1
  O  O6  1  0.37471800  0.11553500  0.17367900  1
  O  O7  1  0.37471800  0.88446500  0.32632100  1
  O  O8  1  0.62528200  0.88446500  0.82632100  1
  O  O9  1  0.62528200  0.11553500  0.67367900  1
  O  O10  1  0.87478200  0.11637500  0.17350700  1
  O  O11  1  0.87478200  0.88362500  0.32649300  1
  O  O12  1  0.12521800  0.88362500  0.82649300  1
  O  O13  1  0.12521800  0.11637500  0.67350700  1
  O  O14  1  0.94554100  0.47269200  0.11525900  1
  O  O15  1  0.94554100  0.52730800  0.38474100  1
  O  O16  1  0.05445900  0.52730800  0.88474100  1
  O  O17  1  0.05445900  0.47269200  0.61525900  1
  O  O18  1  0.30268600  0.47115400  0.11472000  1
  O  O19  1  0.30268600  0.52884600  0.38528000  1
  O  O20  1  0.69731400  0.52884600  0.88528000  1
  O  O21  1  0.69731400  0.47115400  0.61472000  1
  O  O22  1  0.37278700  0.16729000  0.02318600  1
  O  O23  1  0.37278700  0.83271000  0.47681400  1
  O  O24  1  0.62721300  0.83271000  0.97681400  1
  O  O25  1  0.62721300  0.16729000  0.52318600  1
  O  O26  1  0.87717700  0.17036300  0.02291300  1
  O  O27  1  0.87717700  0.82963700  0.47708700  1
  O  O28  1  0.12282300  0.82963700  0.97708700  1
  O  O29  1  0.12282300  0.17036300  0.52291300  1
  O  O30  1  0.12520600  0.21947800  0.35260600  1
  O  O31  1  0.12520600  0.78052200  0.14739400  1
  O  O32  1  0.87479400  0.78052200  0.64739400  1
  O  O33  1  0.87479400  0.21947800  0.85260600  1
  O  O34  1  0.62454300  0.19963800  0.35375100  1
  O  O35  1  0.62454300  0.80036200  0.14624900  1
  O  O36  1  0.37545700  0.80036200  0.64624900  1
  O  O37  1  0.37545700  0.19963800  0.85375100  1
loop_
_geom_bond_atom_site_label_1
_geom_bond_atom_site_label_2
_geom_bond_distance
_geom_bond_site_symmetry_2
Ca0 O35 2.300525 1_545
Ca0 O34 2.300525 1_555
Ca0 O11 2.421901 1_545
Ca0 O10 2.421901 1_555
Ca0 O6 2.424919 1_555
Ca0 O7 2.424919 1_545
Ca1 O36 2.300525 1_545
Ca1 O37 2.300525 1_555
Ca1 O13 2.421901 1_555
Ca1 O12 2.421901 1_545
Ca1 O8 2.424919 1_545
Ca1 O9 2.424919 1_555
Ca2 O30 2.374692 1_555
Ca2 O31 2.374692 1_545
Ca2 O11 2.422690 1_445
Ca2 O10 2.422690 1_455
Ca2 O6 2.423399 1_555
Ca2 O7 2.423399 1_545
Ca3 O32 2.374692 1_545
Ca3 O33 2.374692 1_555
Ca3 O13 2.422690 1_655
Ca3 O12 2.422690 1_645
Ca3 O9 2.423399 1_555
Ca3 O8 2.423399 1_545
Ca4 O34 2.344760 1_555
Ca4 O30 2.382833 1_655
Ca4 O25 2.398023 1_555
Ca4 O29 2.402975 1_655
Ca4 O27 2.442707 1_545
Ca4 O11 2.721690 1_545
Ca4 O15 2.783749 1_555
Ca5 O35 2.344760 1_555
Ca5 O31 2.382833 1_655
Ca5 O24 2.398023 1_554
Ca5 O28 2.402975 1_654
Ca5 O26 2.442707 1_565
Ca5 O10 2.721690 1_565
Ca5 O14 2.783749 1_555
Ca6 O36 2.344760 1_555
Ca6 O32 2.382833 1_455
Ca6 O23 2.398023 1_555
Ca6 O27 2.402975 1_455
Ca6 O29 2.442707 1_565
Ca6 O13 2.721690 1_565
Ca6 O17 2.783749 1_555
Ca7 O37 2.344760 1_555
Ca7 O33 2.382833 1_455
Ca7 O22 2.398023 1_556
Ca7 O26 2.402975 1_456
Ca7 O28 2.442707 1_545
Ca7 O12 2.721690 1_545
Ca7 O16 2.783749 1_555
Ca8 O34 2.323143 1_555
Ca8 O30 2.361606 1_555
Ca8 O23 2.435154 1_545
Ca8 O25 2.442038 1_555
Ca8 O29 2.444304 1_555
Ca8 O7 2.704799 1_545
Ca8 O19 2.778961 1_555
Ca9 O35 2.323143 1_555
Ca9 O31 2.361606 1_555
Ca9 O22 2.435154 1_565
Ca9 O24 2.442038 1_554
Ca9 O28 2.444304 1_554
Ca9 O6 2.704799 1_565
Ca9 O18 2.778961 1_555
Ca10 O36 2.323143 1_555
Ca10 O32 2.361606 1_555
Ca10 O25 2.435154 1_565
Ca10 O23 2.442038 1_555
Ca10 O27 2.444304 1_555
Ca10 O9 2.704799 1_565
Ca10 O21 2.778961 1_555
Ca11 O37 2.323143 1_555
Ca11 O33 2.361606 1_555
Ca11 O24 2.435154 1_545
Ca11 O22 2.442038 1_556
Ca11 O26 2.444304 1_556
Ca11 O8 2.704799 1_545
Ca11 O20 2.778961 1_555
O0 Si8 1.625166 1_555
O0 Si9 1.625166 1_555
O1 Si10 1.625166 1_555
O1 Si11 1.625166 1_555
O2 Si4 1.644465 1_555
O2 Si0 1.644597 1_555
O3 Si5 1.644465 1_555
O3 Si1 1.644597 1_555
O4 Si6 1.644465 1_555
O4 Si2 1.644597 1_555
O5 Si7 1.644465 1_555
O5 Si3 1.644597 1_555
O6 Si4 1.625074 1_555
O7 Si5 1.625074 1_555
O8 Si6 1.625074 1_555
O9 Si7 1.625074 1_555
O10 Si0 1.625549 1_555
O11 Si1 1.625549 1_555
O12 Si2 1.625549 1_555
O13 Si3 1.625549 1_555
O14 Si9 1.642569 1_655
O14 Si0 1.667832 1_555
O15 Si8 1.642569 1_655
O15 Si1 1.667832 1_555
O16 Si11 1.642569 1_455
O16 Si2 1.667832 1_555
O17 Si10 1.642569 1_455
O17 Si3 1.667832 1_555
O18 Si9 1.643298 1_555
O18 Si4 1.669234 1_555
O19 Si8 1.643298 1_555
O19 Si5 1.669234 1_555
O20 Si11 1.643298 1_555
O20 Si6 1.669234 1_555
O21 Si10 1.643298 1_555
O21 Si7 1.669234 1_555
O22 Si4 1.632314 1_555
O23 Si5 1.632314 1_555
O24 Si6 1.632314 1_555
O25 Si7 1.632314 1_555
O26 Si0 1.632455 1_555
O27 Si1 1.632455 1_555
O28 Si2 1.632455 1_555
O29 Si3 1.632455 1_555
O30 Si8 1.608014 1_555
O31 Si9 1.608014 1_555
O32 Si10 1.608014 1_555
O33 Si11 1.608014 1_555
