# generated using pymatgen
data_MnP(HO)7
_symmetry_space_group_name_H-M   'P 1'
_cell_length_a   10.00700600
_cell_length_b   10.87815200
_cell_length_c   13.52462700
_cell_angle_alpha   90.00000000
_cell_angle_beta   90.00000000
_cell_angle_gamma   90.00000000
_symmetry_Int_Tables_number   1
_chemical_formula_structural   MnP(HO)7
_chemical_formula_sum   'Mn8 P8 H56 O56'
_cell_volume   1472.26022587
_cell_formula_units_Z   8
loop_
 _symmetry_equiv_pos_site_id
 _symmetry_equiv_pos_as_xyz
  1  'x, y, z'
loop_
 _atom_site_type_symbol
 _atom_site_label
 _atom_site_symmetry_multiplicity
 _atom_site_fract_x
 _atom_site_fract_y
 _atom_site_fract_z
 _atom_site_occupancy
  Mn  Mn0  1  0.62599300  0.77595800  0.80893400  1
  Mn  Mn1  1  0.37400700  0.72404200  0.30893400  1
  Mn  Mn2  1  0.87400700  0.27595800  0.19106600  1
  Mn  Mn3  1  0.12599300  0.22404200  0.69106600  1
  Mn  Mn4  1  0.37400700  0.22404200  0.19106600  1
  Mn  Mn5  1  0.62599300  0.27595800  0.69106600  1
  Mn  Mn6  1  0.12599300  0.72404200  0.80893400  1
  Mn  Mn7  1  0.87400700  0.77595800  0.30893400  1
  P  P0  1  0.63465000  0.89508000  0.41816000  1
  P  P1  1  0.36535000  0.60492000  0.91816000  1
  P  P2  1  0.86535000  0.39508000  0.58184000  1
  P  P3  1  0.13465000  0.10492000  0.08184000  1
  P  P4  1  0.36535000  0.10492000  0.58184000  1
  P  P5  1  0.63465000  0.39508000  0.08184000  1
  P  P6  1  0.13465000  0.60492000  0.41816000  1
  P  P7  1  0.86535000  0.89508000  0.91816000  1
  H  H0  1  0.30606900  0.62731700  0.73138900  1
  H  H1  1  0.69393100  0.87268300  0.23138900  1
  H  H2  1  0.19393100  0.12731700  0.26861100  1
  H  H3  1  0.80606900  0.37268300  0.76861100  1
  H  H4  1  0.69393100  0.37268300  0.26861100  1
  H  H5  1  0.30606900  0.12731700  0.76861100  1
  H  H6  1  0.80606900  0.87268300  0.73138900  1
  H  H7  1  0.19393100  0.62731700  0.23138900  1
  H  H8  1  0.46722500  0.80413000  0.12574600  1
  H  H9  1  0.53277500  0.69587000  0.62574600  1
  H  H10  1  0.03277500  0.30413000  0.87425400  1
  H  H11  1  0.96722500  0.19587000  0.37425400  1
  H  H12  1  0.53277500  0.19587000  0.87425400  1
  H  H13  1  0.46722500  0.30413000  0.37425400  1
  H  H14  1  0.96722500  0.69587000  0.12574600  1
  H  H15  1  0.03277500  0.80413000  0.62574600  1
  H  H16  1  0.67244700  0.52152500  0.80511700  1
  H  H17  1  0.32755300  0.97847500  0.30511700  1
  H  H18  1  0.82755300  0.02152500  0.19488300  1
  H  H19  1  0.17244700  0.47847500  0.69488300  1
  H  H20  1  0.32755300  0.47847500  0.19488300  1
  H  H21  1  0.67244700  0.02152500  0.69488300  1
  H  H22  1  0.17244700  0.97847500  0.80511700  1
  H  H23  1  0.82755300  0.52152500  0.30511700  1
  H  H24  1  0.74733600  0.56961400  0.57061200  1
  H  H25  1  0.25266400  0.93038600  0.07061200  1
  H  H26  1  0.75266400  0.06961400  0.42938800  1
  H  H27  1  0.24733600  0.43038600  0.92938800  1
  H  H28  1  0.25266400  0.43038600  0.42938800  1
  H  H29  1  0.74733600  0.06961400  0.92938800  1
  H  H30  1  0.24733600  0.93038600  0.57061200  1
  H  H31  1  0.75266400  0.56961400  0.07061200  1
  H  H32  1  0.30572200  0.90084400  0.82427900  1
  H  H33  1  0.69427800  0.59915600  0.32427900  1
  H  H34  1  0.19427800  0.40084400  0.17572100  1
  H  H35  1  0.80572200  0.09915600  0.67572100  1
  H  H36  1  0.69427800  0.09915600  0.17572100  1
  H  H37  1  0.30572200  0.40084400  0.67572100  1
  H  H38  1  0.80572200  0.59915600  0.82427900  1
  H  H39  1  0.19427800  0.90084400  0.32427900  1
  H  H40  1  0.51881700  0.14273600  0.83994800  1
  H  H41  1  0.48118300  0.35726400  0.33994800  1
  H  H42  1  0.98118300  0.64273700  0.16005200  1
  H  H43  1  0.01881700  0.85726300  0.66005200  1
  H  H44  1  0.48118300  0.85726300  0.16005200  1
  H  H45  1  0.51881700  0.64273700  0.66005200  1
  H  H46  1  0.01881700  0.35726400  0.83994800  1
  H  H47  1  0.98118300  0.14273600  0.33994800  1
  H  H48  1  0.55241900  0.10777000  0.49482800  1
  H  H49  1  0.44758100  0.39223000  0.99482800  1
  H  H50  1  0.94758100  0.60777000  0.50517200  1
  H  H51  1  0.05241900  0.89223000  0.00517200  1
  H  H52  1  0.44758100  0.89223000  0.50517200  1
  H  H53  1  0.55241900  0.60777000  0.00517200  1
  H  H54  1  0.05241900  0.39223000  0.49482800  1
  H  H55  1  0.94758100  0.10777000  0.99482800  1
  O  O0  1  0.74979300  0.80299700  0.41878900  1
  O  O1  1  0.25020700  0.69700300  0.91878900  1
  O  O2  1  0.75020700  0.30299700  0.58121100  1
  O  O3  1  0.24979300  0.19700300  0.08121100  1
  O  O4  1  0.25020700  0.19700300  0.58121100  1
  O  O5  1  0.74979300  0.30299700  0.08121100  1
  O  O6  1  0.24979300  0.69700300  0.41878900  1
  O  O7  1  0.75020700  0.80299700  0.91878900  1
  O  O8  1  0.53502900  0.84876500  0.50059700  1
  O  O9  1  0.46497100  0.65123500  0.00059700  1
  O  O10  1  0.96497100  0.34876500  0.49940300  1
  O  O11  1  0.03502900  0.15123500  0.99940300  1
  O  O12  1  0.46497100  0.15123500  0.49940300  1
  O  O13  1  0.53502900  0.34876500  0.99940300  1
  O  O14  1  0.03502900  0.65123500  0.50059700  1
  O  O15  1  0.96497100  0.84876500  0.00059700  1
  O  O16  1  0.71745000  0.84559300  0.70569300  1
  O  O17  1  0.28255000  0.65440700  0.20569300  1
  O  O18  1  0.78255000  0.34559300  0.29430700  1
  O  O19  1  0.21745000  0.15440700  0.79430700  1
  O  O20  1  0.28255000  0.15440700  0.29430700  1
  O  O21  1  0.71745000  0.34559300  0.79430700  1
  O  O22  1  0.21745000  0.65440700  0.70569300  1
  O  O23  1  0.78255000  0.84559300  0.20569300  1
  O  O24  1  0.68800400  0.02318200  0.46900900  1
  O  O25  1  0.31199600  0.47681800  0.96900900  1
  O  O26  1  0.81199600  0.52318200  0.53099100  1
  O  O27  1  0.18800400  0.97681800  0.03099100  1
  O  O28  1  0.31199600  0.97681800  0.53099100  1
  O  O29  1  0.68800400  0.52318200  0.03099100  1
  O  O30  1  0.18800400  0.47681800  0.46900900  1
  O  O31  1  0.81199600  0.02318200  0.96900900  1
  O  O32  1  0.43200400  0.57979900  0.82020400  1
  O  O33  1  0.56799600  0.92020100  0.32020400  1
  O  O34  1  0.06799600  0.07979900  0.17979600  1
  O  O35  1  0.93200400  0.42020100  0.67979600  1
  O  O36  1  0.56799600  0.42020100  0.17979600  1
  O  O37  1  0.43200400  0.07979900  0.67979600  1
  O  O38  1  0.93200400  0.92020100  0.82020400  1
  O  O39  1  0.06799600  0.57979900  0.32020400  1
  O  O40  1  0.71506700  0.60334600  0.79715200  1
  O  O41  1  0.28493300  0.89665400  0.29715200  1
  O  O42  1  0.78493300  0.10334600  0.20284800  1
  O  O43  1  0.21506700  0.39665400  0.70284800  1
  O  O44  1  0.28493300  0.39665400  0.20284800  1
  O  O45  1  0.71506700  0.10334600  0.70284800  1
  O  O46  1  0.21506700  0.89665400  0.79715200  1
  O  O47  1  0.78493300  0.60334600  0.29715200  1
  O  O48  1  0.49889400  0.86254600  0.84454200  1
  O  O49  1  0.50110600  0.63745400  0.34454200  1
  O  O50  1  0.00110600  0.36254600  0.15545800  1
  O  O51  1  0.99889400  0.13745400  0.65545800  1
  O  O52  1  0.50110600  0.13745400  0.15545800  1
  O  O53  1  0.49889400  0.36254600  0.65545800  1
  O  O54  1  0.99889400  0.63745400  0.84454200  1
  O  O55  1  0.00110600  0.86254600  0.34454200  1
loop_
_geom_bond_atom_site_label_1
_geom_bond_atom_site_label_2
_geom_bond_distance
_geom_bond_site_symmetry_2
Mn0 O48 1.654331 1_555
Mn0 O16 1.833319 1_555
Mn0 O7 1.959346 1_555
Mn0 O40 2.084629 1_555
Mn1 O49 1.654331 1_555
Mn1 O17 1.833319 1_555
Mn1 O6 1.959346 1_555
Mn1 O41 2.084629 1_555
Mn2 O50 1.654331 1_655
Mn2 O18 1.833319 1_555
Mn2 O5 1.959346 1_555
Mn2 O42 2.084629 1_555
Mn3 O51 1.654331 1_455
Mn3 O19 1.833319 1_555
Mn3 O4 1.959346 1_555
Mn3 O43 2.084629 1_555
Mn4 O52 1.654331 1_555
Mn4 O20 1.833319 1_555
Mn4 O3 1.959346 1_555
Mn4 O44 2.084629 1_555
Mn5 O53 1.654331 1_555
Mn5 O21 1.833319 1_555
Mn5 O2 1.959346 1_555
Mn5 O45 2.084629 1_555
Mn6 O54 1.654331 1_455
Mn6 O22 1.833319 1_555
Mn6 O1 1.959346 1_555
Mn6 O46 2.084629 1_555
Mn7 O55 1.654331 1_655
Mn7 O23 1.833319 1_555
Mn7 O0 1.959346 1_555
Mn7 O47 2.084629 1_555
H0 O22 0.997021 1_555
H1 O23 0.997021 1_555
H2 O20 0.997021 1_555
H3 O21 0.997021 1_555
H4 O18 0.997021 1_555
H5 O19 0.997021 1_555
H6 O16 0.997021 1_555
H7 O17 0.997021 1_555
H10 H46 0.754233 1_555
H11 H47 0.754233 1_555
H12 H40 0.754233 1_555
H13 H41 0.754233 1_555
H14 H42 0.754224 1_555
H15 H43 0.754224 1_555
H16 O40 0.992832 1_555
H17 O41 0.992832 1_555
H18 O42 0.992832 1_555
H19 O43 0.992832 1_555
H20 O44 0.992832 1_555
H21 O45 0.992832 1_555
H22 O46 0.992832 1_555
H23 O47 0.992832 1_555
H24 O26 0.980277 1_555
H25 O27 0.980277 1_555
H26 O24 0.980277 1_555
H27 O25 0.980277 1_555
H28 O30 0.980277 1_555
H29 O31 0.980277 1_555
H30 O28 0.980277 1_555
H31 O29 0.980277 1_555
H32 O46 0.979625 1_555
H33 O47 0.979625 1_555
H34 O44 0.979625 1_555
H35 O45 0.979625 1_555
H36 O42 0.979625 1_555
H37 O43 0.979625 1_555
H38 O40 0.979625 1_555
H39 O41 0.979625 1_555
H44 H8 0.754224 1_555
H45 H9 0.754224 1_555
H48 O12 0.996581 1_555
H48 O24 1.676168 1_555
H49 O13 0.996581 1_555
H49 O25 1.676168 1_555
H50 O14 0.996581 1_655
H50 O26 1.676168 1_555
H51 O15 0.996581 1_455
H51 O27 1.676168 1_555
H52 O8 0.996581 1_555
H52 O28 1.676168 1_555
H53 O9 0.996581 1_555
H53 O29 1.676168 1_555
H54 O10 0.996581 1_455
H54 O30 1.676168 1_555
H55 O11 0.996581 1_655
H55 O31 1.676168 1_555
O0 P0 1.526797 1_555
O1 P1 1.526797 1_555
O2 P2 1.526797 1_555
O3 P3 1.526797 1_555
O4 P4 1.526797 1_555
O5 P5 1.526797 1_555
O6 P6 1.526797 1_555
O7 P7 1.526797 1_555
O8 P0 1.578205 1_555
O9 P1 1.578205 1_554
O10 P2 1.578205 1_555
O11 P3 1.578205 1_556
O12 P4 1.578205 1_555
O13 P5 1.578205 1_556
O14 P6 1.578205 1_555
O15 P7 1.578205 1_554
O24 P0 1.643135 1_545
O25 P1 1.643135 1_555
O26 P2 1.643135 1_555
O27 P3 1.643135 1_565
O28 P4 1.643135 1_565
O29 P5 1.643135 1_555
O30 P6 1.643135 1_555
O31 P7 1.643135 1_545
O32 P1 1.508217 1_555
O33 P0 1.508217 1_555
O34 P3 1.508217 1_555
O35 P2 1.508217 1_555
O36 P5 1.508217 1_555
O37 P4 1.508217 1_555
O38 P7 1.508217 1_555
O39 P6 1.508217 1_555
