# generated using pymatgen
data_LiCu2PO4
_symmetry_space_group_name_H-M   'P 1'
_cell_length_a   5.26309100
_cell_length_b   6.23702500
_cell_length_c   10.89669500
_cell_angle_alpha   90.00000000
_cell_angle_beta   90.00000000
_cell_angle_gamma   90.00000000
_symmetry_Int_Tables_number   1
_chemical_formula_structural   LiCu2PO4
_chemical_formula_sum   'Li4 Cu8 P4 O16'
_cell_volume   357.69523854
_cell_formula_units_Z   4
loop_
 _symmetry_equiv_pos_site_id
 _symmetry_equiv_pos_as_xyz
  1  'x, y, z'
loop_
 _atom_site_type_symbol
 _atom_site_label
 _atom_site_symmetry_multiplicity
 _atom_site_fract_x
 _atom_site_fract_y
 _atom_site_fract_z
 _atom_site_occupancy
  Li  Li0  1  0.29812000  0.75000000  0.08298500  1
  Li  Li1  1  0.20188000  0.75000000  0.58298500  1
  Li  Li2  1  0.79812000  0.25000000  0.41701500  1
  Li  Li3  1  0.70188000  0.25000000  0.91701500  1
  Cu  Cu0  1  0.69711700  0.47053200  0.17488700  1
  Cu  Cu1  1  0.80288300  0.47053200  0.67488700  1
  Cu  Cu2  1  0.69711700  0.02946800  0.17488700  1
  Cu  Cu3  1  0.80288300  0.02946800  0.67488700  1
  Cu  Cu4  1  0.30288300  0.97053200  0.82511300  1
  Cu  Cu5  1  0.19711700  0.97053200  0.32511300  1
  Cu  Cu6  1  0.30288300  0.52946800  0.82511300  1
  Cu  Cu7  1  0.19711700  0.52946800  0.32511300  1
  P  P0  1  0.69467000  0.75000000  0.42134900  1
  P  P1  1  0.80533000  0.75000000  0.92134900  1
  P  P2  1  0.19467000  0.25000000  0.07865100  1
  P  P3  1  0.30533000  0.25000000  0.57865100  1
  O  O0  1  0.78155000  0.54465300  0.35050100  1
  O  O1  1  0.71845000  0.54465300  0.85050100  1
  O  O2  1  0.39745800  0.75000000  0.43153000  1
  O  O3  1  0.68453600  0.75000000  0.05078000  1
  O  O4  1  0.81546400  0.75000000  0.55078000  1
  O  O5  1  0.10254200  0.75000000  0.93153000  1
  O  O6  1  0.78155000  0.95534700  0.35050100  1
  O  O7  1  0.71845000  0.95534700  0.85050100  1
  O  O8  1  0.21845000  0.04465300  0.64949900  1
  O  O9  1  0.28155000  0.04465300  0.14949900  1
  O  O10  1  0.18453600  0.25000000  0.44922000  1
  O  O11  1  0.89745800  0.25000000  0.06847000  1
  O  O12  1  0.31546400  0.25000000  0.94922000  1
  O  O13  1  0.60254200  0.25000000  0.56847000  1
  O  O14  1  0.28155000  0.45534700  0.14949900  1
  O  O15  1  0.21845000  0.45534700  0.64949900  1
loop_
_geom_bond_atom_site_label_1
_geom_bond_atom_site_label_2
_geom_bond_distance
_geom_bond_site_symmetry_2
Li0 O5 1.945054 1_554
Li0 O14 1.977440 1_555
Li0 O9 1.977440 1_565
Li0 O3 2.063797 1_555
Li1 O2 1.945054 1_555
Li1 O15 1.977440 1_555
Li1 O8 1.977440 1_565
Li1 O4 2.063797 1_455
Li2 O13 1.945054 1_555
Li2 O0 1.977440 1_555
Li2 O6 1.977440 1_545
Li2 O10 2.063797 1_655
Li3 O11 1.945054 1_556
Li3 O1 1.977440 1_555
Li3 O7 1.977440 1_545
Li3 O12 2.063797 1_555
Cu0 O0 2.018192 1_555
Cu0 O11 2.085268 1_555
Cu0 O14 2.206627 1_555
Cu0 O3 2.207141 1_555
Cu1 O1 2.018192 1_555
Cu1 O13 2.085268 1_555
Cu1 O15 2.206627 1_655
Cu1 O4 2.207141 1_555
Cu2 O6 2.018192 1_545
Cu2 O11 2.085268 1_555
Cu2 O9 2.206627 1_555
Cu2 O3 2.207141 1_545
Cu3 O7 2.018192 1_545
Cu3 O13 2.085268 1_555
Cu3 O8 2.206627 1_655
Cu3 O4 2.207141 1_545
Cu4 O8 2.018192 1_565
Cu4 O5 2.085268 1_555
Cu4 O7 2.206627 1_555
Cu4 O12 2.207141 1_565
Cu5 O9 2.018192 1_565
Cu5 O2 2.085268 1_555
Cu5 O6 2.206627 1_455
Cu5 O10 2.207141 1_565
Cu6 O15 2.018192 1_555
Cu6 O5 2.085268 1_555
Cu6 O1 2.206627 1_555
Cu6 O12 2.207141 1_555
Cu7 O14 2.018192 1_555
Cu7 O2 2.085268 1_555
Cu7 O0 2.206627 1_455
Cu7 O10 2.207141 1_555
O0 P0 1.563782 1_555
O1 P1 1.563782 1_555
O2 P0 1.568183 1_555
O3 P1 1.547036 1_554
O4 P0 1.547036 1_555
O5 P1 1.568183 1_455
O6 P0 1.563782 1_555
O7 P1 1.563782 1_555
O8 P3 1.563782 1_555
O9 P2 1.563782 1_555
O10 P3 1.547036 1_555
O11 P2 1.568183 1_655
O12 P2 1.547036 1_556
O13 P3 1.568183 1_555
O14 P2 1.563782 1_555
O15 P3 1.563782 1_555
