# generated using pymatgen
data_K2LiVPO6
_symmetry_space_group_name_H-M   'P 1'
_cell_length_a   13.59082500
_cell_length_b   6.09997200
_cell_length_c   8.93269860
_cell_angle_alpha   66.36639238
_cell_angle_beta   90.00000000
_cell_angle_gamma   90.00000000
_symmetry_Int_Tables_number   1
_chemical_formula_structural   K2LiVPO6
_chemical_formula_sum   'K8 Li4 V4 P4 O24'
_cell_volume   678.44145546
_cell_formula_units_Z   4
loop_
 _symmetry_equiv_pos_site_id
 _symmetry_equiv_pos_as_xyz
  1  'x, y, z'
loop_
 _atom_site_type_symbol
 _atom_site_label
 _atom_site_symmetry_multiplicity
 _atom_site_fract_x
 _atom_site_fract_y
 _atom_site_fract_z
 _atom_site_occupancy
  K  K0  1  0.89681800  0.69587700  0.38881800  1
  K  K1  1  0.39681800  0.30412300  0.11118200  1
  K  K2  1  0.63993200  0.61647100  0.52855000  1
  K  K3  1  0.13993200  0.38352900  0.97145000  1
  K  K4  1  0.86006800  0.61647100  0.02855000  1
  K  K5  1  0.36006800  0.38352900  0.47145000  1
  K  K6  1  0.60318200  0.69587700  0.88881800  1
  K  K7  1  0.10318200  0.30412300  0.61118200  1
  Li  Li0  1  0.47917900  0.16435400  0.82018900  1
  Li  Li1  1  0.02082100  0.16435400  0.32018900  1
  Li  Li2  1  0.97917900  0.83564600  0.67981100  1
  Li  Li3  1  0.52082100  0.83564600  0.17981100  1
  V  V0  1  0.20593300  0.91418800  0.43563600  1
  V  V1  1  0.70593300  0.08581200  0.06436400  1
  V  V2  1  0.29406700  0.91418800  0.93563600  1
  V  V3  1  0.79406700  0.08581200  0.56436400  1
  P  P0  1  0.89015000  0.26876700  0.79545000  1
  P  P1  1  0.60985000  0.26876700  0.29545000  1
  P  P2  1  0.39015000  0.73123300  0.70455000  1
  P  P3  1  0.10985000  0.73123300  0.20455000  1
  O  O0  1  0.73980100  0.80925900  0.20431500  1
  O  O1  1  0.05614800  0.95991500  0.19305000  1
  O  O2  1  0.60225700  0.09486400  0.94567600  1
  O  O3  1  0.81216800  0.33483600  0.65005000  1
  O  O4  1  0.82977200  0.23213000  0.95355700  1
  O  O5  1  0.55614800  0.04008500  0.30695000  1
  O  O6  1  0.96165200  0.48029100  0.76131500  1
  O  O7  1  0.23980100  0.19074100  0.29568500  1
  O  O8  1  0.89774300  0.09486400  0.44567600  1
  O  O9  1  0.46165200  0.51970900  0.73868500  1
  O  O10  1  0.68783200  0.33483600  0.15005000  1
  O  O11  1  0.32977200  0.76787000  0.54644300  1
  O  O12  1  0.67022800  0.23213000  0.45355700  1
  O  O13  1  0.31216800  0.66516400  0.84995000  1
  O  O14  1  0.53834800  0.48029100  0.26131500  1
  O  O15  1  0.10225700  0.90513600  0.55432400  1
  O  O16  1  0.76019900  0.80925900  0.70431500  1
  O  O17  1  0.03834800  0.51970900  0.23868500  1
  O  O18  1  0.44385200  0.95991500  0.69305000  1
  O  O19  1  0.17022800  0.76787000  0.04644300  1
  O  O20  1  0.18783200  0.66516400  0.34995000  1
  O  O21  1  0.39774300  0.90513600  0.05432400  1
  O  O22  1  0.94385200  0.04008500  0.80695000  1
  O  O23  1  0.26019900  0.19074100  0.79568500  1
loop_
_geom_bond_atom_site_label_1
_geom_bond_atom_site_label_2
_geom_bond_distance
_geom_bond_site_symmetry_2
K0 O0 2.614308 1_555
K0 O8 2.678177 1_565
K0 O3 2.738370 1_555
K0 O17 2.794408 1_655
K0 O1 2.843065 1_655
K1 O7 2.614308 1_555
K1 O21 2.678177 1_545
K1 O13 2.738370 1_554
K1 O14 2.794408 1_555
K1 O5 2.843065 1_555
K2 O12 2.715518 1_555
K2 O5 2.791255 1_565
K2 O16 2.828448 1_555
K2 O3 2.848486 1_555
K2 O9 2.975613 1_555
K2 O0 2.980418 1_555
K2 O14 3.143950 1_555
K3 O19 2.715518 1_556
K3 O1 2.791255 1_546
K3 O23 2.828448 1_555
K3 O13 2.848486 1_555
K3 O6 2.975613 1_455
K3 O7 2.980418 1_556
K3 O17 3.143950 1_556
K4 O4 2.715518 1_554
K4 O22 2.791255 1_564
K4 O0 2.828448 1_555
K4 O10 2.848486 1_555
K4 O17 2.975613 1_655
K4 O16 2.980418 1_554
K4 O6 3.143950 1_554
K5 O11 2.715518 1_555
K5 O18 2.791255 1_545
K5 O7 2.828448 1_555
K5 O20 2.848486 1_555
K5 O14 2.975613 1_555
K5 O23 2.980418 1_555
K5 O9 3.143950 1_555
K6 O16 2.614308 1_555
K6 O2 2.678177 1_565
K6 O10 2.738370 1_556
K6 O9 2.794408 1_555
K6 O18 2.843065 1_555
K7 O23 2.614308 1_555
K7 O15 2.678177 1_545
K7 O20 2.738370 1_555
K7 O6 2.794408 1_455
K7 O22 2.843065 1_455
Li0 O2 1.962969 1_555
Li0 O9 2.005044 1_555
Li0 O18 2.052085 1_545
Li0 O21 2.334077 1_546
Li1 O8 1.962969 1_455
Li1 O17 2.005044 1_555
Li1 O1 2.052085 1_545
Li1 O15 2.334077 1_545
Li2 O15 1.962969 1_655
Li2 O6 2.005044 1_555
Li2 O22 2.052085 1_565
Li2 O8 2.334077 1_565
Li3 O21 1.962969 1_555
Li3 O14 2.005044 1_555
Li3 O5 2.052085 1_565
Li3 O2 2.334077 1_564
O0 V1 1.711631 1_565
O1 P3 1.540858 1_555
O2 V1 1.750870 1_556
O3 P0 1.597785 1_555
O3 V3 1.971308 1_555
O4 P0 1.569999 1_555
O4 V1 1.975034 1_556
O5 P1 1.540858 1_555
O6 P0 1.544901 1_555
O7 V0 1.711631 1_545
O8 V3 1.750870 1_555
O9 P2 1.544901 1_555
O10 P1 1.597785 1_555
O10 V1 1.971308 1_555
O11 P2 1.569999 1_555
O11 V0 1.975034 1_555
O12 P1 1.569999 1_555
O12 V3 1.975034 1_555
O13 P2 1.597785 1_555
O13 V2 1.971308 1_555
O14 P1 1.544901 1_555
O15 V0 1.750870 1_555
O16 V3 1.711631 1_565
O17 P3 1.544901 1_555
O18 P2 1.540858 1_555
O19 P3 1.569999 1_555
O19 V2 1.975034 1_554
O20 P3 1.597785 1_555
O20 V0 1.971308 1_555
O21 V2 1.750870 1_554
O22 P0 1.540858 1_555
O23 V2 1.711631 1_545
