# generated using pymatgen
data_Sr3LaBr9
_symmetry_space_group_name_H-M   'P 1'
_cell_length_a   7.26976600
_cell_length_b   7.81068800
_cell_length_c   30.66120705
_cell_angle_alpha   88.08562528
_cell_angle_beta   90.00000000
_cell_angle_gamma   90.00000000
_symmetry_Int_Tables_number   1
_chemical_formula_structural   Sr3LaBr9
_chemical_formula_sum   'Sr12 La4 Br36'
_cell_volume   1740.02908616
_cell_formula_units_Z   4
loop_
 _symmetry_equiv_pos_site_id
 _symmetry_equiv_pos_as_xyz
  1  'x, y, z'
loop_
 _atom_site_type_symbol
 _atom_site_label
 _atom_site_symmetry_multiplicity
 _atom_site_fract_x
 _atom_site_fract_y
 _atom_site_fract_z
 _atom_site_occupancy
  Sr  Sr0  1  0.96983000  0.67214900  0.93298800  1
  Sr  Sr1  1  0.00347800  0.70362400  0.69217300  1
  Sr  Sr2  1  0.03017000  0.67214900  0.43298800  1
  Sr  Sr3  1  0.99652200  0.70362400  0.19217300  1
  Sr  Sr4  1  0.98790900  0.31693200  0.56876000  1
  Sr  Sr5  1  0.98485400  0.28306200  0.80923200  1
  Sr  Sr6  1  0.01209100  0.31693200  0.06876000  1
  Sr  Sr7  1  0.01514600  0.28306200  0.30923200  1
  Sr  Sr8  1  0.52073800  0.21451100  0.69209600  1
  Sr  Sr9  1  0.51497000  0.17736200  0.93171500  1
  Sr  Sr10  1  0.47926200  0.21451100  0.19209600  1
  Sr  Sr11  1  0.48503000  0.17736200  0.43171500  1
  La  La0  1  0.52073500  0.79568300  0.80700100  1
  La  La1  1  0.54476700  0.82013700  0.56743700  1
  La  La2  1  0.47926500  0.79568300  0.30700100  1
  La  La3  1  0.45523300  0.82013700  0.06743700  1
  Br  Br0  1  0.80038600  0.98419400  0.86964600  1
  Br  Br1  1  0.82111700  0.99009300  0.75135100  1
  Br  Br2  1  0.81781100  0.99805300  0.62884000  1
  Br  Br3  1  0.19961400  0.98419400  0.36964600  1
  Br  Br4  1  0.17888300  0.99009300  0.25135100  1
  Br  Br5  1  0.70970200  0.89167100  0.99148500  1
  Br  Br6  1  0.18218900  0.99805300  0.12884000  1
  Br  Br7  1  0.32619000  0.84954200  0.89454600  1
  Br  Br8  1  0.29029800  0.89167100  0.49148500  1
  Br  Br9  1  0.39336200  0.84375200  0.70618200  1
  Br  Br10  1  0.67381000  0.84954200  0.39454600  1
  Br  Br11  1  0.60663800  0.84375200  0.20618200  1
  Br  Br12  1  0.15174300  0.64286900  0.79554500  1
  Br  Br13  1  0.20019500  0.64600400  0.59992400  1
  Br  Br14  1  0.84825700  0.64286900  0.29554500  1
  Br  Br15  1  0.79980500  0.64600400  0.09992400  1
  Br  Br16  1  0.75345200  0.58409200  0.51027000  1
  Br  Br17  1  0.68308600  0.50234000  0.86803900  1
  Br  Br18  1  0.69499600  0.50610500  0.75083100  1
  Br  Br19  1  0.70195900  0.51733900  0.62877200  1
  Br  Br20  1  0.24654800  0.58409200  0.01027000  1
  Br  Br21  1  0.31691400  0.50234000  0.36803900  1
  Br  Br22  1  0.30500400  0.50610500  0.25083100  1
  Br  Br23  1  0.29804100  0.51733900  0.12877200  1
  Br  Br24  1  0.76203300  0.39507400  0.98946000  1
  Br  Br25  1  0.23796700  0.39507400  0.48946000  1
  Br  Br26  1  0.15676600  0.34485500  0.90019000  1
  Br  Br27  1  0.11942500  0.32902800  0.69917000  1
  Br  Br28  1  0.84323400  0.34485500  0.40019000  1
  Br  Br29  1  0.88057500  0.32902800  0.19917000  1
  Br  Br30  1  0.38700100  0.15400400  0.79704800  1
  Br  Br31  1  0.35027200  0.13258700  0.59930700  1
  Br  Br32  1  0.61299900  0.15400400  0.29704800  1
  Br  Br33  1  0.64972800  0.13258700  0.09930700  1
  Br  Br34  1  0.75829000  0.07420300  0.50980500  1
  Br  Br35  1  0.24171000  0.07420300  0.00980500  1
loop_
_geom_bond_atom_site_label_1
_geom_bond_atom_site_label_2
_geom_bond_distance
_geom_bond_site_symmetry_2
Br0 La0 3.190511 1_555
Br0 Sr5 3.223353 1_565
Br0 Sr9 3.224176 1_565
Br0 Sr0 3.303543 1_555
Br1 La0 3.132520 1_555
Br1 Sr5 3.173963 1_565
Br1 Sr1 3.213655 1_655
Br1 Sr8 3.305918 1_565
Br2 La1 3.096858 1_555
Br2 Sr1 3.253139 1_655
Br2 Sr4 3.289287 1_565
Br2 Sr8 3.391648 1_565
Br3 La2 3.190511 1_555
Br3 Sr7 3.223353 1_565
Br3 Sr11 3.224176 1_565
Br3 Sr2 3.303543 1_555
Br4 La2 3.132520 1_555
Br4 Sr7 3.173963 1_565
Br4 Sr3 3.213655 1_455
Br4 Sr10 3.305918 1_565
Br5 La3 3.011761 1_556
Br5 Sr0 3.152537 1_555
Br5 Sr9 3.173121 1_565
Br6 La3 3.096858 1_555
Br6 Sr3 3.253139 1_455
Br6 Sr6 3.289287 1_565
Br6 Sr10 3.391648 1_565
Br7 La0 3.075348 1_555
Br7 Sr0 3.148243 1_455
Br7 Sr9 3.151723 1_565
Br8 La1 3.011761 1_555
Br8 Sr2 3.152537 1_555
Br8 Sr11 3.173121 1_565
Br9 Sr8 3.057216 1_565
Br9 Sr1 3.073672 1_555
Br9 La0 3.236752 1_555
Br10 La2 3.075348 1_555
Br10 Sr2 3.148243 1_655
Br10 Sr11 3.151723 1_565
Br11 Sr10 3.057216 1_565
Br11 Sr3 3.073672 1_555
Br11 La2 3.236752 1_555
Br12 La0 2.961715 1_555
Br12 Sr5 3.076896 1_455
Br12 Sr1 3.366342 1_555
Br13 La1 3.004391 1_555
Br13 Sr4 3.172559 1_455
Br13 Sr1 3.214492 1_555
Br14 La2 2.961715 1_555
Br14 Sr7 3.076896 1_655
Br14 Sr3 3.366342 1_555
Br15 La3 3.004391 1_555
Br15 Sr6 3.172559 1_655
Br15 Sr3 3.214492 1_555
Br16 La1 2.998158 1_555
Br16 Sr2 3.166356 1_655
Br16 Sr4 3.197755 1_555
Br17 La0 3.139851 1_555
Br17 Sr0 3.201052 1_555
Br17 Sr5 3.347169 1_555
Br17 Sr9 3.378958 1_555
Br18 La0 3.153886 1_555
Br18 Sr8 3.210807 1_555
Br18 Sr1 3.233981 1_655
Br18 Sr5 3.236242 1_555
Br19 La1 3.184164 1_555
Br19 Sr4 3.217105 1_555
Br19 Sr8 3.285300 1_555
Br19 Sr1 3.299959 1_655
Br20 La3 2.998158 1_555
Br20 Sr0 3.166356 1_454
Br20 Sr6 3.197755 1_555
Br21 La2 3.139851 1_555
Br21 Sr2 3.201052 1_555
Br21 Sr7 3.347169 1_555
Br21 Sr11 3.378958 1_555
Br22 La2 3.153886 1_555
Br22 Sr10 3.210807 1_555
Br22 Sr3 3.233981 1_455
Br22 Sr7 3.236242 1_555
Br23 La3 3.184164 1_555
Br23 Sr6 3.217105 1_555
Br23 Sr10 3.285300 1_555
Br23 Sr3 3.299959 1_455
Br24 Sr9 3.074656 1_555
Br24 Sr6 3.080563 1_656
Br24 Sr0 3.116614 1_555
Br25 Sr11 3.074656 1_555
Br25 Sr4 3.080563 1_455
Br25 Sr2 3.116614 1_555
Br26 Sr9 3.056538 1_555
Br26 Sr0 3.092735 1_455
Br26 Sr5 3.108479 1_455
Br27 Sr1 3.045520 1_555
Br27 Sr8 3.061304 1_555
Br27 Sr5 3.520394 1_455
Br28 Sr11 3.056538 1_555
Br28 Sr2 3.092735 1_655
Br28 Sr7 3.108479 1_655
Br29 Sr3 3.045520 1_555
Br29 Sr10 3.061304 1_555
Br29 Sr7 3.520394 1_655
Br30 La0 2.968868 1_545
Br30 Sr5 3.118940 1_455
Br30 Sr8 3.379678 1_555
Br31 La1 3.011511 1_545
Br31 Sr4 3.130470 1_455
Br31 Sr8 3.187628 1_555
Br32 La2 2.968868 1_545
Br32 Sr7 3.118940 1_655
Br32 Sr10 3.379678 1_555
Br33 La3 3.011511 1_545
Br33 Sr6 3.130470 1_655
Br33 Sr10 3.187628 1_555
Br34 La1 3.039033 1_545
Br34 Sr4 3.142824 1_555
Br34 Sr11 3.193664 1_555
Br35 La3 3.039033 1_545
Br35 Sr6 3.142824 1_555
Br35 Sr9 3.193664 1_554
