# generated using pymatgen
data_Li2Fe(NiO3)2
_symmetry_space_group_name_H-M   'P 1'
_cell_length_a   6.56825500
_cell_length_b   6.63868830
_cell_length_c   8.32147125
_cell_angle_alpha   70.60628698
_cell_angle_beta   70.36165789
_cell_angle_gamma   82.33236638
_symmetry_Int_Tables_number   1
_chemical_formula_structural   Li2Fe(NiO3)2
_chemical_formula_sum   'Li6 Fe3 Ni6 O18'
_cell_volume   322.25975172
_cell_formula_units_Z   3
loop_
 _symmetry_equiv_pos_site_id
 _symmetry_equiv_pos_as_xyz
  1  'x, y, z'
loop_
 _atom_site_type_symbol
 _atom_site_label
 _atom_site_symmetry_multiplicity
 _atom_site_fract_x
 _atom_site_fract_y
 _atom_site_fract_z
 _atom_site_occupancy
  Li  Li0  1  0.83490900  0.49035600  0.67249500  1
  Li  Li1  1  0.16509100  0.50964400  0.32750500  1
  Li  Li2  1  0.50460600  0.15113400  0.33545800  1
  Li  Li3  1  0.82756200  0.16248700  0.00151800  1
  Li  Li4  1  0.49539400  0.84886600  0.66454200  1
  Li  Li5  1  0.17243800  0.83751300  0.99848200  1
  Fe  Fe0  1  0.50000000  0.50000000  0.50000000  1
  Fe  Fe1  1  0.83187100  0.50593900  0.15963400  1
  Fe  Fe2  1  0.16812900  0.49406100  0.84036600  1
  Ni  Ni0  1  0.83137900  0.83783000  0.82732600  1
  Ni  Ni1  1  0.83645700  0.16615600  0.49806100  1
  Ni  Ni2  1  0.16862100  0.16217000  0.17267400  1
  Ni  Ni3  1  0.50261200  0.16645800  0.83254000  1
  Ni  Ni4  1  0.16354300  0.83384400  0.50193900  1
  Ni  Ni5  1  0.49738800  0.83354200  0.16746000  1
  O  O0  1  0.14876500  0.81892000  0.73939100  1
  O  O1  1  0.46387500  0.82213900  0.43344900  1
  O  O2  1  0.81394600  0.83127700  0.06114900  1
  O  O3  1  0.49047300  0.47613300  0.74291900  1
  O  O4  1  0.82998700  0.46606200  0.41922100  1
  O  O5  1  0.81085600  0.16566000  0.73243200  1
  O  O6  1  0.17001300  0.53393800  0.58077900  1
  O  O7  1  0.50952700  0.52386700  0.25708100  1
  O  O8  1  0.53612500  0.17786100  0.56655100  1
  O  O9  1  0.14799600  0.50514200  0.08226300  1
  O  O10  1  0.14729400  0.14138200  0.41189400  1
  O  O11  1  0.48292300  0.13250100  0.09848500  1
  O  O12  1  0.85200400  0.49485800  0.91773700  1
  O  O13  1  0.85123500  0.18108000  0.26060900  1
  O  O14  1  0.18605400  0.16872300  0.93885100  1
  O  O15  1  0.85270600  0.85861800  0.58810600  1
  O  O16  1  0.18914400  0.83434000  0.26756800  1
  O  O17  1  0.51707700  0.86749900  0.90151500  1
loop_
_geom_bond_atom_site_label_1
_geom_bond_atom_site_label_2
_geom_bond_distance
_geom_bond_site_symmetry_2
Li0 O5 2.060111 1_555
Li0 O12 2.091336 1_555
Li0 O6 2.098800 1_655
Li0 O3 2.144678 1_555
Li0 O4 2.177618 1_555
Li0 O15 2.316173 1_555
Li1 O16 2.060111 1_555
Li1 O9 2.091336 1_555
Li1 O4 2.098800 1_455
Li1 O7 2.144678 1_555
Li1 O6 2.177618 1_555
Li1 O10 2.316173 1_555
Li2 O8 2.067947 1_555
Li2 O11 2.068743 1_555
Li2 O1 2.081655 1_545
Li2 O13 2.167122 1_555
Li2 O10 2.219591 1_555
Li2 O7 2.341953 1_555
Li3 O12 2.092409 1_554
Li3 O2 2.094515 1_545
Li3 O11 2.144942 1_555
Li3 O14 2.237058 1_654
Li3 O13 2.257216 1_555
Li3 O5 2.271492 1_554
Li4 O1 2.067947 1_555
Li4 O17 2.068743 1_555
Li4 O8 2.081655 1_565
Li4 O0 2.167122 1_555
Li4 O15 2.219591 1_555
Li4 O3 2.341953 1_555
Li5 O9 2.092409 1_556
Li5 O14 2.094515 1_565
Li5 O17 2.144942 1_555
Li5 O2 2.237058 1_456
Li5 O0 2.257216 1_555
Li5 O16 2.271492 1_556
Fe0 O3 1.954525 1_555
Fe0 O7 1.954525 1_555
Fe0 O1 2.025560 1_555
Fe0 O8 2.025560 1_555
Fe0 O6 2.047282 1_555
Fe0 O4 2.047282 1_555
Fe1 O9 1.956193 1_655
Fe1 O12 1.997910 1_554
Fe1 O7 1.999313 1_555
Fe1 O13 2.041683 1_555
Fe1 O2 2.042498 1_555
Fe1 O4 2.083169 1_555
Fe2 O12 1.956193 1_455
Fe2 O9 1.997910 1_556
Fe2 O3 1.999313 1_555
Fe2 O0 2.041683 1_555
Fe2 O14 2.042498 1_555
Fe2 O6 2.083169 1_555
Ni0 O2 1.896394 1_556
Ni0 O15 1.907008 1_555
Ni0 O17 1.948672 1_555
Ni0 O0 1.965423 1_655
Ni0 O5 2.056746 1_565
Ni0 O12 2.148754 1_555
Ni1 O8 1.858774 1_555
Ni1 O4 1.877478 1_555
Ni1 O5 1.899328 1_555
Ni1 O13 1.915007 1_555
Ni1 O10 1.927241 1_655
Ni1 O15 1.928940 1_545
Ni2 O14 1.896394 1_554
Ni2 O10 1.907008 1_555
Ni2 O11 1.948672 1_555
Ni2 O13 1.965423 1_455
Ni2 O16 2.056746 1_545
Ni2 O9 2.148754 1_555
Ni3 O17 1.872776 1_545
Ni3 O5 1.912980 1_555
Ni3 O3 1.940879 1_555
Ni3 O14 1.967274 1_555
Ni3 O11 2.109322 1_556
Ni3 O8 2.125814 1_555
Ni4 O1 1.858774 1_555
Ni4 O6 1.877478 1_555
Ni4 O16 1.899328 1_555
Ni4 O0 1.915007 1_555
Ni4 O15 1.927241 1_455
Ni4 O10 1.928940 1_565
Ni5 O11 1.872776 1_565
Ni5 O16 1.912980 1_555
Ni5 O7 1.940879 1_555
Ni5 O2 1.967274 1_555
Ni5 O17 2.109322 1_554
Ni5 O1 2.125814 1_555
