# generated using pymatgen
data_Ca2Ti6N2O11
_symmetry_space_group_name_H-M   'P 1'
_cell_length_a   7.69709540
_cell_length_b   7.69709540
_cell_length_c   9.31610780
_cell_angle_alpha   81.65624104
_cell_angle_beta   81.65624104
_cell_angle_gamma   28.46936686
_symmetry_Int_Tables_number   1
_chemical_formula_structural   Ca2Ti6N2O11
_chemical_formula_sum   'Ca2 Ti6 N2 O11'
_cell_volume   260.13633413
_cell_formula_units_Z   1
loop_
 _symmetry_equiv_pos_site_id
 _symmetry_equiv_pos_as_xyz
  1  'x, y, z'
loop_
 _atom_site_type_symbol
 _atom_site_label
 _atom_site_symmetry_multiplicity
 _atom_site_fract_x
 _atom_site_fract_y
 _atom_site_fract_z
 _atom_site_occupancy
  Ca  Ca0  1  0.53851900  0.53851900  0.24380400  1
  Ca  Ca1  1  0.44890400  0.44890400  0.75358100  1
  Ti  Ti0  1  0.11924300  0.11924300  0.90554100  1
  Ti  Ti1  1  0.15951800  0.15951800  0.57645800  1
  Ti  Ti2  1  0.22438700  0.22438700  0.24099400  1
  Ti  Ti3  1  0.76653800  0.76653800  0.75717200  1
  Ti  Ti4  1  0.83400000  0.83400000  0.44095500  1
  Ti  Ti5  1  0.87838000  0.87838000  0.08921200  1
  N  N0  1  0.22826200  0.22826200  0.75213900  1
  N  N1  1  0.87425200  0.87425200  0.61630200  1
  O  O0  1  0.05414900  0.05414900  0.70559200  1
  O  O1  1  0.11863700  0.11863700  0.38362000  1
  O  O2  1  0.15029200  0.15029200  0.09988700  1
  O  O3  1  0.62662900  0.62662900  0.89225100  1
  O  O4  1  0.69348300  0.69348300  0.56564000  1
  O  O5  1  0.75149600  0.75149600  0.23923300  1
  O  O6  1  0.29370100  0.29370100  0.42541200  1
  O  O7  1  0.35608600  0.35608600  0.12319000  1
  O  O8  1  0.83303700  0.83303700  0.91122600  1
  O  O9  1  0.93502700  0.93502700  0.29157700  1
  O  O10  1  0.99291200  0.99291200  0.99648600  1
loop_
_geom_bond_atom_site_label_1
_geom_bond_atom_site_label_2
_geom_bond_distance
_geom_bond_site_symmetry_2
Ca0 O9 2.441154 1_455
Ca0 O9 2.441154 1_545
Ca0 O1 2.678477 1_565
Ca0 O1 2.678477 1_655
Ca0 O2 2.737135 1_565
Ca0 O2 2.737135 1_655
Ca1 O0 2.457248 1_655
Ca1 O0 2.457248 1_565
Ca1 N1 2.623962 1_545
Ca1 N1 2.623962 1_455
Ca1 O8 2.822761 1_455
Ca1 O8 2.822761 1_545
N0 Ti3 1.979550 1_545
N0 Ti3 1.979550 1_455
N0 Ti0 1.998132 1_555
N0 Ti1 2.057555 1_555
N1 Ti4 1.822912 1_555
N1 Ti3 1.916770 1_555
O0 Ti1 1.831108 1_555
O0 Ti0 2.225980 1_555
O1 Ti2 1.904640 1_555
O1 Ti1 1.981829 1_555
O2 Ti2 1.840010 1_555
O2 Ti0 1.934913 1_554
O3 Ti0 1.898840 1_565
O3 Ti0 1.898840 1_655
O3 Ti3 2.270529 1_555
O4 Ti1 1.958041 1_655
O4 Ti1 1.958041 1_565
O4 Ti3 2.225879 1_555
O4 Ti4 2.239711 1_555
O5 Ti2 1.934971 1_655
O5 Ti2 1.934971 1_565
O5 Ti5 2.178447 1_555
O5 Ti4 2.395813 1_555
O6 Ti4 1.997706 1_545
O6 Ti4 1.997706 1_455
O6 Ti2 2.133890 1_555
O6 Ti1 2.268344 1_555
O7 Ti5 1.939468 1_545
O7 Ti5 1.939468 1_455
O7 Ti2 2.102503 1_555
O8 Ti3 1.862993 1_555
O8 Ti5 1.882311 1_556
O9 Ti4 1.892346 1_555
O9 Ti5 2.178481 1_555
O10 Ti5 1.795789 1_556
O10 Ti0 1.947578 1_665
