# generated using pymatgen
data_Li8(CoO2)5
_symmetry_space_group_name_H-M   'P 1'
_cell_length_a   6.65377434
_cell_length_b   10.10200960
_cell_length_c   8.65217328
_cell_angle_alpha   105.89442144
_cell_angle_beta   104.52788184
_cell_angle_gamma   103.36791182
_symmetry_Int_Tables_number   1
_chemical_formula_structural   Li8(CoO2)5
_chemical_formula_sum   'Li16 Co10 O20'
_cell_volume   512.58923784
_cell_formula_units_Z   2
loop_
 _symmetry_equiv_pos_site_id
 _symmetry_equiv_pos_as_xyz
  1  'x, y, z'
loop_
 _atom_site_type_symbol
 _atom_site_label
 _atom_site_symmetry_multiplicity
 _atom_site_fract_x
 _atom_site_fract_y
 _atom_site_fract_z
 _atom_site_occupancy
  Li  Li0  1  0.42705800  0.08413800  0.06594400  1
  Li  Li1  1  0.92087800  0.57981100  0.06431800  1
  Li  Li2  1  0.37944400  0.32032800  0.13592300  1
  Li  Li3  1  0.87260500  0.81576800  0.13409500  1
  Li  Li4  1  0.52617500  0.36758000  0.44194600  1
  Li  Li5  1  0.02687900  0.86336400  0.44139900  1
  Li  Li6  1  0.77410600  0.53254500  0.75830400  1
  Li  Li7  1  0.27308000  0.03649500  0.75853800  1
  Li  Li8  1  0.21230600  0.50255200  0.26971700  1
  Li  Li9  1  0.70798900  0.99983800  0.26653500  1
  Li  Li10  1  0.59185600  0.90028600  0.93325700  1
  Li  Li11  1  0.08784000  0.39759500  0.93024000  1
  Li  Li12  1  0.49509200  0.61562700  0.54879900  1
  Li  Li13  1  0.99497200  0.11859700  0.54993500  1
  Li  Li14  1  0.30487900  0.78121500  0.64988000  1
  Li  Li15  1  0.80492200  0.28429100  0.65124100  1
  Co  Co0  1  0.15006200  0.44997400  0.60003000  1
  Co  Co1  1  0.64993300  0.94993500  0.59992300  1
  Co  Co2  1  0.04744700  0.14942600  0.19848500  1
  Co  Co3  1  0.54699000  0.64717900  0.19679000  1
  Co  Co4  1  0.75308100  0.25290800  0.00321700  1
  Co  Co5  1  0.25260300  0.75062500  0.00150500  1
  Co  Co6  1  0.85560900  0.55864900  0.40419200  1
  Co  Co7  1  0.35675800  0.05833500  0.40734000  1
  Co  Co8  1  0.94304000  0.84158200  0.79261600  1
  Co  Co9  1  0.44438900  0.34132500  0.79590400  1
  O  O0  1  0.34745700  0.17801200  0.26113700  1
  O  O1  1  0.86397100  0.68125700  0.26312900  1
  O  O2  1  0.95263500  0.72213300  0.93910400  1
  O  O3  1  0.43600400  0.21868300  0.93690800  1
  O  O4  1  0.74612600  0.09687900  0.10458700  1
  O  O5  1  0.22785600  0.60141200  0.08954700  1
  O  O6  1  0.07228200  0.29868900  0.11050400  1
  O  O7  1  0.55386900  0.80321000  0.09524600  1
  O  O8  1  0.85825600  0.44288100  0.55965400  1
  O  O9  1  0.35697200  0.94255200  0.56123400  1
  O  O10  1  0.44192600  0.45719300  0.64054800  1
  O  O11  1  0.94290200  0.95731600  0.63866300  1
  O  O12  1  0.52913900  0.51356400  0.32881700  1
  O  O13  1  0.02818300  0.01918700  0.32022300  1
  O  O14  1  0.27159700  0.88070900  0.87955700  1
  O  O15  1  0.77098000  0.38658300  0.87135400  1
  O  O16  1  0.17627100  0.58338600  0.49042800  1
  O  O17  1  0.67410100  0.08155300  0.48741600  1
  O  O18  1  0.62574600  0.81832600  0.71245600  1
  O  O19  1  0.12373600  0.31650900  0.70941700  1
loop_
_geom_bond_atom_site_label_1
_geom_bond_atom_site_label_2
_geom_bond_distance
_geom_bond_site_symmetry_2
Li0 O0 1.958525 1_555
Li0 O3 1.981015 1_554
Li0 O4 2.032109 1_555
Li0 O14 2.063675 1_544
Li1 O1 1.921761 1_555
Li1 O5 1.952292 1_655
Li1 O15 2.017858 1_554
Li1 O2 2.028043 1_554
Li2 O3 1.922584 1_554
Li2 O6 1.953148 1_555
Li2 O12 2.017559 1_555
Li2 O0 2.028107 1_555
Li3 O2 1.958093 1_554
Li3 O1 1.980690 1_555
Li3 O7 2.030135 1_555
Li3 O13 2.062809 1_665
Li4 O0 1.975209 1_555
Li4 O12 1.979943 1_555
Li4 O10 1.988050 1_555
Li4 O8 2.041472 1_555
Li5 O1 1.903482 1_455
Li5 O11 1.990596 1_455
Li5 O9 2.032170 1_555
Li5 O13 2.116452 1_565
Li6 O2 1.975079 1_555
Li6 O15 1.979227 1_555
Li6 O8 1.988135 1_555
Li6 O10 2.042090 1_555
Li7 O3 1.904348 1_555
Li7 O9 1.990502 1_545
Li7 O11 2.032703 1_445
Li7 O14 2.115121 1_545
Li8 O16 1.958856 1_555
Li8 O6 1.980371 1_555
Li8 O12 2.009392 1_555
Li8 O5 2.079418 1_555
Li9 O4 1.950511 1_565
Li9 O17 1.955184 1_565
Li9 O7 1.968947 1_555
Li9 O13 2.013505 1_665
Li10 O7 1.950870 1_556
Li10 O18 1.955024 1_555
Li10 O4 1.968927 1_566
Li10 O14 2.013437 1_555
Li11 O19 1.959746 1_555
Li11 O5 1.980262 1_556
Li11 O15 2.009612 1_455
Li11 O6 2.080465 1_556
Li12 O10 1.972789 1_555
Li12 O16 1.978442 1_555
Li12 O18 1.981127 1_555
Li12 O12 1.996613 1_555
Li13 O19 1.933662 1_655
Li13 O11 1.980249 1_545
Li13 O17 1.982714 1_555
Li13 O13 2.058457 1_655
Li14 O16 1.932936 1_555
Li14 O9 1.980298 1_555
Li14 O18 1.982573 1_555
Li14 O14 2.058626 1_555
Li15 O8 1.973342 1_555
Li15 O19 1.978532 1_655
Li15 O17 1.981908 1_555
Li15 O15 1.997888 1_555
Co0 O19 1.848550 1_555
Co0 O16 1.849423 1_555
Co0 O10 1.865079 1_555
Co0 O8 1.865124 1_455
Co1 O17 1.851989 1_565
Co1 O18 1.852086 1_555
Co1 O9 1.873260 1_555
Co1 O11 1.873276 1_555
Co2 O4 1.848239 1_455
Co2 O6 1.859299 1_555
Co2 O0 1.861951 1_555
Co2 O13 1.898860 1_555
Co3 O1 1.960873 1_555
Co3 O5 1.976435 1_555
Co3 O12 1.994839 1_555
Co3 O7 2.000953 1_555
Co4 O3 1.961267 1_554
Co4 O6 1.976869 1_655
Co4 O15 1.994255 1_554
Co4 O4 1.999916 1_555
Co5 O7 1.847755 1_555
Co5 O5 1.859186 1_555
Co5 O2 1.861891 1_454
Co5 O14 1.898863 1_554
Co6 O1 1.963931 1_555
Co6 O12 2.005127 1_555
Co6 O16 2.006017 1_655
Co6 O8 2.009110 1_555
Co7 O0 1.974487 1_555
Co7 O17 1.985348 1_555
Co7 O9 1.998463 1_545
Co7 O13 2.028414 1_555
Co8 O2 1.974655 1_555
Co8 O18 1.984990 1_555
Co8 O11 1.998521 1_555
Co8 O14 2.028262 1_655
Co9 O3 1.963801 1_555
Co9 O15 2.005690 1_555
Co9 O19 2.005938 1_555
Co9 O10 2.009157 1_555
