# generated using pymatgen
data_Zn(PO2)2
_symmetry_space_group_name_H-M   'P 1'
_cell_length_a   5.51798100
_cell_length_b   6.68994600
_cell_length_c   7.65365400
_cell_angle_alpha   90.00000000
_cell_angle_beta   90.00000000
_cell_angle_gamma   90.00000000
_symmetry_Int_Tables_number   1
_chemical_formula_structural   Zn(PO2)2
_chemical_formula_sum   'Zn2 P4 O8'
_cell_volume   282.53459852
_cell_formula_units_Z   2
loop_
 _symmetry_equiv_pos_site_id
 _symmetry_equiv_pos_as_xyz
  1  'x, y, z'
loop_
 _atom_site_type_symbol
 _atom_site_label
 _atom_site_symmetry_multiplicity
 _atom_site_fract_x
 _atom_site_fract_y
 _atom_site_fract_z
 _atom_site_occupancy
  Zn  Zn0  1  0.00000000  0.00000000  0.00000000  1
  Zn  Zn1  1  0.00000000  0.50000000  0.00000000  1
  P  P0  1  0.50000000  0.75000000  0.14981300  1
  P  P1  1  0.50000000  0.25000000  0.85018700  1
  P  P2  1  0.00000000  0.75000000  0.63696700  1
  P  P3  1  0.00000000  0.25000000  0.36303300  1
  O  O0  1  0.72911600  0.75000000  0.03501300  1
  O  O1  1  0.72911600  0.25000000  0.96498700  1
  O  O2  1  0.27088400  0.25000000  0.96498700  1
  O  O3  1  0.27088400  0.75000000  0.03501300  1
  O  O4  1  0.00000000  0.94170900  0.74679000  1
  O  O5  1  0.00000000  0.05829100  0.25321000  1
  O  O6  1  0.00000000  0.55829100  0.74679000  1
  O  O7  1  0.00000000  0.44170900  0.25321000  1
loop_
_geom_bond_atom_site_label_1
_geom_bond_atom_site_label_2
_geom_bond_distance
_geom_bond_site_symmetry_2
O0 P0 1.539596 1_555
O0 Zn0 2.259037 1_665
O0 Zn1 2.259037 1_655
O1 P1 1.539596 1_555
O1 Zn0 2.259037 1_656
O1 Zn1 2.259037 1_656
O2 P1 1.539596 1_555
O2 Zn1 2.259037 1_556
O2 Zn0 2.259037 1_556
O3 P0 1.539596 1_555
O3 Zn1 2.259037 1_555
O3 Zn0 2.259037 1_565
O4 P2 1.533422 1_555
O4 Zn0 1.976827 1_566
O5 P3 1.533422 1_555
O5 Zn0 1.976827 1_555
O6 P2 1.533422 1_555
O6 Zn1 1.976827 1_556
O7 P3 1.533422 1_555
O7 Zn1 1.976827 1_555
