# generated using pymatgen
data_Mn6O7F5
_symmetry_space_group_name_H-M   'P 1'
_cell_length_a   9.13498600
_cell_length_b   4.74611800
_cell_length_c   4.76459776
_cell_angle_alpha   84.44426150
_cell_angle_beta   90.00000000
_cell_angle_gamma   90.00000000
_symmetry_Int_Tables_number   1
_chemical_formula_structural   Mn6O7F5
_chemical_formula_sum   'Mn6 O7 F5'
_cell_volume   205.60219611
_cell_formula_units_Z   1
loop_
 _symmetry_equiv_pos_site_id
 _symmetry_equiv_pos_as_xyz
  1  'x, y, z'
loop_
 _atom_site_type_symbol
 _atom_site_label
 _atom_site_symmetry_multiplicity
 _atom_site_fract_x
 _atom_site_fract_y
 _atom_site_fract_z
 _atom_site_occupancy
  Mn  Mn0  1  0.17521300  0.98140000  0.98963500  1
  Mn  Mn1  1  0.82478700  0.98140000  0.98963500  1
  Mn  Mn2  1  0.50000000  0.01434400  0.96847600  1
  Mn  Mn3  1  0.32514100  0.50937700  0.52311400  1
  Mn  Mn4  1  0.00000000  0.48817800  0.49503000  1
  Mn  Mn5  1  0.67485900  0.50937700  0.52311400  1
  O  O0  1  0.65664200  0.82515100  0.81755200  1
  O  O1  1  0.34335800  0.82515100  0.81755200  1
  O  O2  1  0.16607900  0.30006100  0.69944200  1
  O  O3  1  0.83392100  0.30006100  0.69944200  1
  O  O4  1  0.50000000  0.32101800  0.69662000  1
  O  O5  1  0.16808800  0.68981900  0.30929600  1
  O  O6  1  0.83191200  0.68981900  0.30929600  1
  F  F0  1  0.00000000  0.79366800  0.80149400  1
  F  F1  1  0.50000000  0.70992500  0.30511500  1
  F  F2  1  0.00000000  0.16305800  0.17142300  1
  F  F3  1  0.65028500  0.19909800  0.19188100  1
  F  F4  1  0.34971500  0.19909800  0.19188100  1
loop_
_geom_bond_atom_site_label_1
_geom_bond_atom_site_label_2
_geom_bond_distance
_geom_bond_site_symmetry_2
Mn0 O1 1.923334 1_555
Mn0 O2 1.949654 1_565
Mn0 O5 1.957279 1_556
Mn1 O0 1.923334 1_555
Mn1 O3 1.949654 1_565
Mn1 O6 1.957279 1_556
Mn2 O4 1.852357 1_555
Mn2 O0 1.869743 1_545
Mn2 O1 1.869743 1_545
Mn3 O2 1.908515 1_555
Mn3 O5 1.913282 1_555
Mn3 O4 1.972557 1_555
Mn3 O1 2.156146 1_555
Mn4 O2 1.969520 1_555
Mn4 O3 1.969520 1_455
Mn4 O5 1.972999 1_555
Mn4 O6 1.972999 1_455
Mn5 O3 1.908515 1_555
Mn5 O6 1.913282 1_555
Mn5 O4 1.972557 1_555
Mn5 O0 2.156146 1_555
F0 Mn0 2.076996 1_555
F0 Mn1 2.076996 1_455
F0 Mn4 2.155049 1_555
F1 Mn2 2.052172 1_564
F1 Mn5 2.084435 1_555
F1 Mn3 2.084435 1_555
F2 Mn0 2.049381 1_544
F2 Mn1 2.049381 1_444
F2 Mn4 2.284519 1_555
F3 Mn2 1.991823 1_554
F3 Mn1 2.174848 1_544
F3 Mn5 2.271498 1_555
F4 Mn2 1.991823 1_554
F4 Mn0 2.174848 1_544
F4 Mn3 2.271498 1_555
