# generated using pymatgen
data_Sm2B4O9
_symmetry_space_group_name_H-M   'P 1'
_cell_length_a   6.22489153
_cell_length_b   6.51498008
_cell_length_c   7.56581897
_cell_angle_alpha   102.21667194
_cell_angle_beta   96.98354956
_cell_angle_gamma   102.56729412
_symmetry_Int_Tables_number   1
_chemical_formula_structural   Sm2B4O9
_chemical_formula_sum   'Sm4 B8 O18'
_cell_volume   288.14441138
_cell_formula_units_Z   2
loop_
 _symmetry_equiv_pos_site_id
 _symmetry_equiv_pos_as_xyz
  1  'x, y, z'
loop_
 _atom_site_type_symbol
 _atom_site_label
 _atom_site_symmetry_multiplicity
 _atom_site_fract_x
 _atom_site_fract_y
 _atom_site_fract_z
 _atom_site_occupancy
  Sm  Sm0  1  0.11299993  0.32288834  0.64257796  1
  Sm  Sm1  1  0.45370092  0.90770993  0.71631318  1
  Sm  Sm2  1  0.54629908  0.09229007  0.28368682  1
  Sm  Sm3  1  0.88700007  0.67711166  0.35742204  1
  B  B0  1  0.00511236  0.85044847  0.81278858  1
  B  B1  1  0.27063795  0.66544593  0.01927133  1
  B  B2  1  0.37404989  0.64293634  0.34709845  1
  B  B3  1  0.33814400  0.32217203  0.07429975  1
  B  B4  1  0.66185600  0.67782797  0.92570025  1
  B  B5  1  0.62595011  0.35706366  0.65290155  1
  B  B6  1  0.72936205  0.33455407  0.98072867  1
  B  B7  1  0.99488764  0.14955153  0.18721142  1
  O  O0  1  0.06529846  0.95022960  0.67827347  1
  O  O1  1  0.13995813  0.71849546  0.86111011  1
  O  O2  1  0.22762694  0.43193051  0.96246580  1
  O  O3  1  0.22238872  0.59337831  0.47377398  1
  O  O4  1  0.23900563  0.73536000  0.20870093  1
  O  O5  1  0.18584564  0.13700453  0.11843726  1
  O  O6  1  0.42379843  0.18509599  0.55909426  1
  O  O7  1  0.49487207  0.21593697  0.98289065  1
  O  O8  1  0.54194104  0.53627526  0.74895304  1
  O  O9  1  0.45805896  0.46372474  0.25104696  1
  O  O10  1  0.50512793  0.78406303  0.01710935  1
  O  O11  1  0.57620157  0.81490401  0.44090574  1
  O  O12  1  0.81415436  0.86299547  0.88156274  1
  O  O13  1  0.76099437  0.26464000  0.79129907  1
  O  O14  1  0.77761128  0.40662169  0.52622602  1
  O  O15  1  0.77237306  0.56806949  0.03753420  1
  O  O16  1  0.86004187  0.28150454  0.13888989  1
  O  O17  1  0.93470154  0.04977040  0.32172653  1
loop_
_geom_bond_atom_site_label_1
_geom_bond_atom_site_label_2
_geom_bond_distance
_geom_bond_site_symmetry_2
B0 O12 1.365689 1_455
B0 O0 1.365809 1_555
B0 O1 1.396316 1_555
B1 O2 1.445316 1_554
B1 O4 1.460018 1_555
B1 O10 1.499464 1_555
B1 O1 1.507897 1_554
B2 O3 1.460272 1_555
B2 O9 1.470986 1_555
B2 O11 1.474861 1_555
B2 O4 1.561636 1_555
B3 O2 1.424472 1_554
B3 O9 1.460021 1_555
B3 O7 1.471218 1_554
B3 O5 1.488417 1_555
B4 O15 1.424472 1_556
B4 O8 1.460021 1_555
B4 O10 1.471218 1_556
B4 O12 1.488417 1_555
B5 O14 1.460272 1_555
B5 O8 1.470986 1_555
B5 O6 1.474861 1_555
B5 O13 1.561636 1_555
B6 O15 1.445316 1_556
B6 O13 1.460018 1_555
B6 O7 1.499464 1_555
B6 O16 1.507897 1_556
B7 O5 1.365689 1_655
B7 O17 1.365809 1_555
B7 O16 1.396316 1_555
O0 Sm0 2.457418 1_565
O0 Sm1 2.482165 1_555
O0 Sm3 2.635928 1_455
O1 Sm1 2.564789 1_555
O1 Sm0 2.710255 1_555
O2 Sm0 2.345863 1_555
O3 Sm3 2.383948 1_455
O3 Sm0 2.417027 1_555
O3 Sm1 2.473501 1_555
O4 Sm3 2.574842 1_455
O4 Sm2 2.574962 1_565
O5 Sm2 2.537515 1_555
O6 Sm2 2.311411 1_555
O6 Sm1 2.391166 1_545
O6 Sm0 2.400174 1_555
O7 Sm1 2.470262 1_545
O7 Sm2 2.577104 1_556
O8 Sm1 2.648947 1_555
O8 Sm0 2.664294 1_555
O9 Sm2 2.648947 1_555
O9 Sm3 2.664294 1_555
O10 Sm2 2.470262 1_565
O10 Sm1 2.577104 1_554
O11 Sm1 2.311411 1_555
O11 Sm2 2.391166 1_565
O11 Sm3 2.400174 1_555
O12 Sm1 2.537515 1_555
O13 Sm0 2.574842 1_655
O13 Sm1 2.574962 1_545
O14 Sm0 2.383948 1_655
O14 Sm3 2.417027 1_555
O14 Sm2 2.473501 1_555
O15 Sm3 2.345863 1_555
O16 Sm2 2.564789 1_555
O16 Sm3 2.710255 1_555
O17 Sm3 2.457418 1_545
O17 Sm2 2.482165 1_555
O17 Sm0 2.635928 1_655
