# generated using pymatgen
data_Li3Fe3OF7
_symmetry_space_group_name_H-M   'P 1'
_cell_length_a   3.11863900
_cell_length_b   5.18893400
_cell_length_c   10.25965315
_cell_angle_alpha   89.77071917
_cell_angle_beta   90.00000000
_cell_angle_gamma   90.00000000
_symmetry_Int_Tables_number   1
_chemical_formula_structural   Li3Fe3OF7
_chemical_formula_sum   'Li3 Fe3 O1 F7'
_cell_volume   166.02460426
_cell_formula_units_Z   1
loop_
 _symmetry_equiv_pos_site_id
 _symmetry_equiv_pos_as_xyz
  1  'x, y, z'
loop_
 _atom_site_type_symbol
 _atom_site_label
 _atom_site_symmetry_multiplicity
 _atom_site_fract_x
 _atom_site_fract_y
 _atom_site_fract_z
 _atom_site_occupancy
  Li  Li0  1  0.00000000  0.61170300  0.04335700  1
  Li  Li1  1  0.00000000  0.52483700  0.35702800  1
  Li  Li2  1  0.50000000  0.05372000  0.44749900  1
  Fe  Fe0  1  0.00000000  0.97720100  0.87152800  1
  Fe  Fe1  1  0.50000000  0.47876600  0.63511700  1
  Fe  Fe2  1  0.50000000  0.03446500  0.13611600  1
  O  O0  1  0.50000000  0.81785800  0.97596100  1
  F  F0  1  0.00000000  0.78915000  0.21918600  1
  F  F1  1  0.50000000  0.69634100  0.46341100  1
  F  F2  1  0.00000000  0.67930100  0.71745900  1
  F  F3  1  0.50000000  0.26855000  0.29530800  1
  F  F4  1  0.00000000  0.25719800  0.52793500  1
  F  F5  1  0.00000000  0.25981400  0.04161300  1
  F  F6  1  0.50000000  0.17693500  0.76848100  1
loop_
_geom_bond_atom_site_label_1
_geom_bond_atom_site_label_2
_geom_bond_distance
_geom_bond_site_symmetry_2
Li0 O0 2.011960 1_554
Li0 O0 2.011960 1_454
Fe0 O0 2.063011 1_455
Fe0 O0 2.063011 1_555
Fe2 O0 1.994482 1_544
F0 Li1 1.966085 1_555
F0 Li0 2.028623 1_555
F0 Fe2 2.183917 1_565
F0 Fe2 2.183917 1_465
F1 Li2 1.860937 1_565
F1 Fe1 2.088558 1_555
F1 Li1 2.102970 1_655
F1 Li1 2.102970 1_555
F2 Fe1 2.057905 1_455
F2 Fe1 2.057905 1_555
F2 Fe0 2.215310 1_555
F3 Li2 1.914880 1_555
F3 Fe2 2.039308 1_555
F3 Li1 2.146558 1_655
F3 Li1 2.146558 1_555
F4 Li2 2.057733 1_455
F4 Li2 2.057733 1_555
F4 Fe1 2.229942 1_455
F4 Fe1 2.229942 1_555
F4 Li1 2.232430 1_555
F5 Li0 1.826088 1_555
F5 Fe2 2.174805 1_455
F5 Fe2 2.174805 1_555
F5 Fe0 2.283869 1_544
F6 Fe1 2.075556 1_555
F6 Fe0 2.148156 1_645
F6 Fe0 2.148156 1_545
