# generated using pymatgen
data_K2UH6C2SO13
_symmetry_space_group_name_H-M   'P 1'
_cell_length_a   5.83684100
_cell_length_b   9.63432423
_cell_length_c   11.94603467
_cell_angle_alpha   89.54877292
_cell_angle_beta   94.06511998
_cell_angle_gamma   97.51725970
_symmetry_Int_Tables_number   1
_chemical_formula_structural   K2UH6C2SO13
_chemical_formula_sum   'K4 U2 H12 C4 S2 O26'
_cell_volume   664.32373856
_cell_formula_units_Z   2
loop_
 _symmetry_equiv_pos_site_id
 _symmetry_equiv_pos_as_xyz
  1  'x, y, z'
loop_
 _atom_site_type_symbol
 _atom_site_label
 _atom_site_symmetry_multiplicity
 _atom_site_fract_x
 _atom_site_fract_y
 _atom_site_fract_z
 _atom_site_occupancy
  K  K0  1  0.25322400  0.51812500  0.64367400  1
  K  K1  1  0.20814400  0.14744400  0.43385500  1
  K  K2  1  0.79185600  0.85255600  0.56614500  1
  K  K3  1  0.74677600  0.48187500  0.35632600  1
  U  U0  1  0.22965300  0.73547100  0.10075900  1
  U  U1  1  0.77034700  0.26452900  0.89924100  1
  H  H0  1  0.99236700  0.27773500  0.18985600  1
  H  H1  1  0.15749300  0.04222600  0.72976500  1
  H  H2  1  0.34518600  0.84920600  0.70579800  1
  H  H3  1  0.18218000  0.40239400  0.22194200  1
  H  H4  1  0.50370000  0.77944600  0.79521700  1
  H  H5  1  0.37046900  0.05012000  0.65509600  1
  H  H6  1  0.62953100  0.94988000  0.34490400  1
  H  H7  1  0.49630000  0.22055400  0.20478300  1
  H  H8  1  0.81782000  0.59760600  0.77805800  1
  H  H9  1  0.65481400  0.15079400  0.29420200  1
  H  H10  1  0.84250700  0.95777400  0.27023500  1
  H  H11  1  0.00763300  0.72226500  0.81014400  1
  C  C0  1  0.02875400  0.98089500  0.94043200  1
  C  C1  1  0.50022600  0.53861800  0.94358000  1
  C  C2  1  0.49977400  0.46138200  0.05642000  1
  C  C3  1  0.97124600  0.01910500  0.05956800  1
  S  S0  1  0.26651100  0.73131000  0.40331800  1
  S  S1  1  0.73348900  0.26869000  0.59668200  1
  O  O0  1  0.13088900  0.87388600  0.93142500  1
  O  O1  1  0.04469500  0.36786800  0.93826300  1
  O  O2  1  0.03298700  0.94036700  0.13876800  1
  O  O3  1  0.07068000  0.69084900  0.47349000  1
  O  O4  1  0.06271000  0.33533600  0.25351000  1
  O  O5  1  0.17149000  0.68776000  0.28182700  1
  O  O6  1  0.34126900  0.88397300  0.40333500  1
  O  O7  1  0.21333100  0.00054000  0.66371500  1
  O  O8  1  0.41439800  0.65245600  0.93900000  1
  O  O9  1  0.46504600  0.78513000  0.71456300  1
  O  O10  1  0.46203200  0.65289300  0.43437700  1
  O  O11  1  0.41239600  0.51830400  0.13629900  1
  O  O12  1  0.50254500  0.84256000  0.13722200  1
  O  O13  1  0.49745500  0.15744000  0.86277800  1
  O  O14  1  0.58760400  0.48169600  0.86370100  1
  O  O15  1  0.53796800  0.34710700  0.56562300  1
  O  O16  1  0.53495400  0.21487000  0.28543700  1
  O  O17  1  0.58560200  0.34754400  0.06100000  1
  O  O18  1  0.78666900  0.99946000  0.33628500  1
  O  O19  1  0.65873100  0.11602700  0.59666500  1
  O  O20  1  0.82851000  0.31224000  0.71817300  1
  O  O21  1  0.93729000  0.66466400  0.74649000  1
  O  O22  1  0.92932000  0.30915100  0.52651000  1
  O  O23  1  0.96701300  0.05963300  0.86123200  1
  O  O24  1  0.95530500  0.63213200  0.06173700  1
  O  O25  1  0.86911100  0.12611400  0.06857500  1
loop_
_geom_bond_atom_site_label_1
_geom_bond_atom_site_label_2
_geom_bond_distance
_geom_bond_site_symmetry_2
K0 O15 2.703103 1_555
K0 O9 2.813674 1_555
K0 O21 2.816371 1_455
K0 O3 2.853262 1_555
K0 O22 2.874029 1_455
K0 O10 3.064224 1_555
K0 O20 3.141711 1_455
K0 O14 3.206012 1_555
K1 O22 2.692001 1_455
K1 O16 2.709500 1_555
K1 O6 2.784029 1_545
K1 O18 2.853977 1_445
K1 O15 2.921188 1_555
K1 O4 2.953011 1_555
K1 O7 3.079337 1_555
K1 O19 3.203918 1_555
K2 O3 2.692001 1_655
K2 O9 2.709500 1_555
K2 O19 2.784029 1_565
K2 O7 2.853977 1_665
K2 O10 2.921188 1_555
K2 O21 2.953011 1_555
K2 O18 3.079337 1_555
K2 O6 3.203918 1_555
K3 O10 2.703103 1_555
K3 O16 2.813674 1_555
K3 O4 2.816371 1_655
K3 O22 2.853262 1_555
K3 O3 2.874029 1_655
K3 O15 3.064224 1_555
K3 O5 3.141711 1_655
K3 O11 3.206012 1_555
H0 O4 0.978537 1_655
H1 O7 0.982749 1_555
H2 O9 0.991515 1_555
H3 O4 0.980531 1_555
H4 O9 0.976630 1_555
H5 O7 0.988933 1_555
H5 K1 2.932654 1_555
H6 O18 0.988933 1_555
H6 K2 2.932654 1_555
H7 O16 0.976630 1_555
H8 O21 0.980531 1_555
H9 O16 0.991515 1_555
H10 O18 0.982749 1_555
H11 O21 0.978537 1_455
C0 O0 1.265502 1_555
C0 O23 1.269787 1_465
C1 O8 1.263231 1_555
C1 O14 1.273520 1_555
C2 O17 1.263231 1_555
C2 O11 1.273520 1_555
C3 O25 1.265502 1_555
C3 O2 1.269787 1_645
O0 U0 2.489167 1_556
O1 U1 1.804744 1_455
O2 U0 2.470140 1_555
O3 S0 1.474894 1_555
O5 S0 1.557114 1_555
O5 U0 2.247872 1_555
O6 S0 1.478424 1_555
O8 U0 2.466167 1_556
O10 S0 1.473762 1_555
O11 U0 2.490229 1_555
O12 U0 1.808321 1_555
O13 U1 1.808321 1_555
O14 U1 2.490229 1_555
O15 S1 1.473762 1_555
O17 U1 2.466167 1_554
O19 S1 1.478424 1_555
O20 S1 1.557114 1_555
O20 U1 2.247872 1_555
O22 S1 1.474894 1_555
O23 U1 2.470140 1_555
O24 U0 1.804744 1_655
O25 U1 2.489167 1_554
