# generated using pymatgen
data_Li4Ti9O20
_symmetry_space_group_name_H-M   'P 1'
_cell_length_a   5.97384200
_cell_length_b   5.97630308
_cell_length_c   24.67335461
_cell_angle_alpha   89.99961366
_cell_angle_beta   96.93028120
_cell_angle_gamma   119.91516534
_symmetry_Int_Tables_number   1
_chemical_formula_structural   Li4Ti9O20
_chemical_formula_sum   'Li8 Ti18 O40'
_cell_volume   756.07799576
_cell_formula_units_Z   2
loop_
 _symmetry_equiv_pos_site_id
 _symmetry_equiv_pos_as_xyz
  1  'x, y, z'
loop_
 _atom_site_type_symbol
 _atom_site_label
 _atom_site_symmetry_multiplicity
 _atom_site_fract_x
 _atom_site_fract_y
 _atom_site_fract_z
 _atom_site_occupancy
  Li  Li0  1  0.99833500  0.99999400  0.99915000  1
  Li  Li1  1  0.49968900  0.74814600  0.25118100  1
  Li  Li2  1  0.59705900  0.80141700  0.39866800  1
  Li  Li3  1  0.30295200  0.15157600  0.45386300  1
  Li  Li4  1  0.95505500  0.47382700  0.42548000  1
  Li  Li5  1  0.19881500  0.60294800  0.80222900  1
  Li  Li6  1  0.44379400  0.46864400  0.92441100  1
  Li  Li7  1  0.90258600  0.94489500  0.85028900  1
  Ti  Ti0  1  0.74327200  0.88522600  0.12655500  1
  Ti  Ti1  1  0.35822700  0.65919200  0.01918900  1
  Ti  Ti2  1  0.04767600  0.28509600  0.32463000  1
  Ti  Ti3  1  0.23541000  0.85899500  0.12118100  1
  Ti  Ti4  1  0.25723800  0.37461900  0.12505700  1
  Ti  Ti5  1  0.55807400  0.27812800  0.32742800  1
  Ti  Ti6  1  0.15422500  0.06620900  0.22358100  1
  Ti  Ti7  1  0.04576900  0.77264400  0.32799900  1
  Ti  Ti8  1  0.85400500  0.18483400  0.52308100  1
  Ti  Ti9  1  0.74723800  0.87872700  0.62042800  1
  Ti  Ti10  1  0.33764500  0.67022300  0.52448400  1
  Ti  Ti11  1  0.65973400  0.08895600  0.72642800  1
  Ti  Ti12  1  0.63825100  0.57633800  0.72202000  1
  Ti  Ti13  1  0.84899600  0.67383600  0.52188600  1
  Ti  Ti14  1  0.53987200  0.28576700  0.82870900  1
  Ti  Ti15  1  0.14559600  0.06033000  0.72199900  1
  Ti  Ti16  1  0.93680600  0.46924900  0.92647100  1
  Ti  Ti17  1  0.44814900  0.96560800  0.92290700  1
  O  O0  1  0.52957600  0.54605100  0.08050000  1
  O  O1  1  0.53233700  0.98659200  0.08214500  1
  O  O2  1  0.44377500  0.72061200  0.16888400  1
  O  O3  1  0.08918700  0.54355300  0.08166800  1
  O  O4  1  0.89232800  0.94455600  0.27754400  1
  O  O5  1  0.05233100  0.02631500  0.08291400  1
  O  O6  1  0.96958400  0.76706100  0.17247300  1
  O  O7  1  0.96604600  0.19919100  0.17225400  1
  O  O8  1  0.75484800  0.14397000  0.36635000  1
  O  O9  1  0.33335700  0.94539400  0.27726100  1
  O  O10  1  0.33147400  0.38550000  0.27755000  1
  O  O11  1  0.14476700  0.33932800  0.48300400  1
  O  O12  1  0.67755100  0.34031600  0.48245100  1
  O  O13  1  0.04414100  0.52392700  0.56504500  1
  O  O14  1  0.24725100  0.12177300  0.36809900  1
  O  O15  1  0.85645300  0.42938000  0.28442400  1
  O  O16  1  0.22280100  0.61178000  0.36662800  1
  O  O17  1  0.40343900  0.20445300  0.17223400  1
  O  O18  1  0.65669100  0.82974300  0.48090900  1
  O  O19  1  0.36614900  0.40636900  0.77214300  1
  O  O20  1  0.57148300  0.00376000  0.57228600  1
  O  O21  1  0.57239000  0.57259600  0.57204800  1
  O  O22  1  0.75508700  0.61187100  0.36706400  1
  O  O23  1  0.93260600  0.18084800  0.67963600  1
  O  O24  1  0.14590400  0.80617100  0.48248500  1
  O  O25  1  0.49568800  0.74428000  0.67949100  1
  O  O26  1  0.84619200  0.91935600  0.76798100  1
  O  O27  1  0.81532200  0.40354400  0.77042000  1
  O  O28  1  0.00259600  0.00199600  0.57218500  1
  O  O29  1  0.45515100  0.22678900  0.68465000  1
  O  O30  1  0.61564300  0.82030400  0.97608900  1
  O  O31  1  0.24844500  0.64104200  0.88360100  1
  O  O32  1  0.36505100  0.95470700  0.76996100  1
  O  O33  1  0.15390200  0.35900300  0.97613100  1
  O  O34  1  0.16648800  0.80415500  0.97434000  1
  O  O35  1  0.73303900  0.13710600  0.87502300  1
  O  O36  1  0.74614800  0.58615100  0.87327800  1
  O  O37  1  0.93249200  0.74398400  0.67956200  1
  O  O38  1  0.65370400  0.30871900  0.96265600  1
  O  O39  1  0.28395100  0.12337000  0.87308000  1
loop_
_geom_bond_atom_site_label_1
_geom_bond_atom_site_label_2
_geom_bond_distance
_geom_bond_site_symmetry_2
Li0 O33 1.981956 1_665
Li0 O30 1.985136 1_555
Li0 O34 2.018581 1_655
Li0 O5 2.046635 1_666
Li1 O2 2.010786 1_555
Li1 O9 2.028205 1_555
Li1 O10 2.028713 1_555
Li1 O4 2.046519 1_555
Li2 O16 1.988500 1_555
Li2 O8 1.992983 1_565
Li2 O22 2.006678 1_555
Li2 O18 2.009594 1_555
Li3 O24 1.966777 1_545
Li3 O12 1.969513 1_555
Li3 O11 1.972445 1_555
Li3 O14 2.095527 1_555
Li4 O11 2.113143 1_655
Li4 O24 2.139497 1_655
Li4 O16 2.142831 1_655
Li4 O12 2.145628 1_555
Li4 O8 2.161558 1_555
Li4 O22 2.180023 1_555
Li5 O31 1.989901 1_555
Li5 O27 2.031620 1_455
Li5 O32 2.036631 1_555
Li5 O19 2.069043 1_555
Li6 O38 2.070317 1_555
Li6 O31 2.086370 1_555
Li6 O33 2.111466 1_555
Li6 O39 2.125229 1_555
Li6 O30 2.151441 1_555
Li6 O36 2.152209 1_555
Li7 O39 1.977687 1_665
Li7 O36 1.980178 1_555
Li7 O35 2.006859 1_565
Li7 O26 2.011122 1_555
O0 Ti4 1.916812 1_555
O0 Ti0 2.024511 1_555
O0 Ti1 2.027325 1_555
O1 Ti0 1.893055 1_555
O1 Ti3 1.928373 1_555
O1 Ti1 2.214357 1_555
O2 Ti0 1.988705 1_555
O2 Ti4 2.024272 1_555
O2 Ti3 2.071682 1_555
O3 Ti3 1.849160 1_555
O3 Ti4 1.981107 1_555
O3 Ti1 2.219718 1_555
O4 Ti7 2.027180 1_655
O4 Ti6 2.029095 1_665
O4 Ti2 2.051551 1_665
O5 Ti3 1.982207 1_545
O5 Ti4 2.015914 1_555
O5 Ti0 2.050876 1_445
O6 Ti6 1.923660 1_665
O6 Ti3 2.009963 1_655
O6 Ti0 2.047608 1_555
O7 Ti0 1.926230 1_545
O7 Ti6 2.011634 1_655
O7 Ti4 2.037398 1_655
O8 Ti5 1.901183 1_555
O8 Ti2 1.947810 1_655
O9 Ti6 1.961958 1_565
O9 Ti5 2.055453 1_565
O9 Ti7 2.081940 1_555
O10 Ti2 2.011029 1_555
O10 Ti6 2.044492 1_555
O10 Ti5 2.055014 1_555
O11 Ti8 1.913682 1_455
O11 Ti10 1.930914 1_555
O12 Ti13 1.921442 1_555
O12 Ti8 1.923924 1_555
O13 Ti10 1.932511 1_555
O13 Ti8 1.972128 1_455
O13 Ti13 2.009416 1_455
O14 Ti7 1.997207 1_545
O14 Ti5 2.011696 1_555
O14 Ti2 2.092020 1_555
O15 Ti2 1.934315 1_655
O15 Ti5 1.992342 1_555
O15 Ti7 2.008952 1_655
O16 Ti2 1.918624 1_555
O16 Ti7 1.929230 1_555
O17 Ti6 1.931931 1_555
O17 Ti4 1.947436 1_555
O17 Ti3 2.117678 1_545
O18 Ti13 1.999359 1_555
O18 Ti8 2.045625 1_565
O18 Ti10 2.092728 1_555
O19 Ti14 1.985177 1_555
O19 Ti12 2.010391 1_555
O19 Ti15 2.105308 1_555
O20 Ti9 1.884995 1_545
O20 Ti10 2.034905 1_545
O20 Ti8 2.041126 1_555
O21 Ti9 1.912114 1_555
O21 Ti10 2.025616 1_555
O21 Ti13 2.030920 1_555
O22 Ti7 1.899297 1_655
O22 Ti5 1.923702 1_555
O23 Ti15 1.955333 1_655
O23 Ti11 1.962893 1_555
O23 Ti9 2.058105 1_545
O24 Ti10 1.920345 1_555
O24 Ti13 1.932215 1_455
O25 Ti12 1.862974 1_555
O25 Ti11 2.063337 1_565
O25 Ti9 2.086041 1_555
O26 Ti12 2.037547 1_555
O26 Ti11 2.041983 1_565
O26 Ti15 2.045162 1_665
O27 Ti11 1.894816 1_555
O27 Ti12 2.096692 1_555
O27 Ti14 2.165018 1_555
O28 Ti9 1.898390 1_445
O28 Ti8 2.039045 1_455
O28 Ti13 2.039285 1_445
O29 Ti15 1.958272 1_555
O29 Ti12 1.971820 1_555
O29 Ti11 1.983643 1_555
O30 Ti1 1.827688 1_556
O30 Ti17 2.006704 1_555
O31 Ti17 1.881203 1_555
O31 Ti16 2.051221 1_455
O32 Ti11 1.985929 1_565
O32 Ti15 1.992126 1_565
O32 Ti14 2.163338 1_565
O33 Ti1 1.827557 1_556
O33 Ti16 2.021423 1_455
O34 Ti1 1.992720 1_556
O34 Ti16 2.037980 1_455
O34 Ti17 2.066032 1_555
O35 Ti17 2.021910 1_545
O35 Ti14 2.032510 1_555
O35 Ti16 2.061640 1_555
O36 Ti14 1.848507 1_555
O36 Ti16 1.985143 1_555
O37 Ti15 1.889183 1_665
O37 Ti12 1.969441 1_555
O37 Ti9 2.121598 1_555
O38 Ti16 1.823104 1_555
O38 Ti17 1.967820 1_545
O39 Ti14 1.844378 1_555
O39 Ti17 1.998481 1_545
