# generated using pymatgen
data_Li4Ti3Mn2Sn3O16
_symmetry_space_group_name_H-M   'P 1'
_cell_length_a   6.16257442
_cell_length_b   6.13727180
_cell_length_c   10.04155058
_cell_angle_alpha   90.00029114
_cell_angle_beta   89.89490117
_cell_angle_gamma   119.86407918
_symmetry_Int_Tables_number   1
_chemical_formula_structural   Li4Ti3Mn2Sn3O16
_chemical_formula_sum   'Li4 Ti3 Mn2 Sn3 O16'
_cell_volume   329.35265672
_cell_formula_units_Z   1
loop_
 _symmetry_equiv_pos_site_id
 _symmetry_equiv_pos_as_xyz
  1  'x, y, z'
loop_
 _atom_site_type_symbol
 _atom_site_label
 _atom_site_symmetry_multiplicity
 _atom_site_fract_x
 _atom_site_fract_y
 _atom_site_fract_z
 _atom_site_occupancy
  Li  Li0  1  0.34045500  0.67024800  0.88595300  1
  Li  Li1  1  0.97671500  0.98835300  0.99651800  1
  Li  Li2  1  0.98467900  0.99235200  0.50148400  1
  Li  Li3  1  0.67258100  0.33629500  0.39141700  1
  Ti  Ti0  1  0.66128400  0.83065200  0.21891400  1
  Ti  Ti1  1  0.83200300  0.16984900  0.71605600  1
  Ti  Ti2  1  0.83192000  0.66225400  0.71602800  1
  Mn  Mn0  1  0.33886300  0.66944600  0.50120000  1
  Mn  Mn1  1  0.67159600  0.33581600  0.99666800  1
  Sn  Sn0  1  0.16847700  0.83143100  0.21447800  1
  Sn  Sn1  1  0.16848300  0.33706600  0.21448000  1
  Sn  Sn2  1  0.33839800  0.16919500  0.71454300  1
  O  O0  1  0.14541600  0.83786800  0.60529200  1
  O  O1  1  0.03338400  0.51670800  0.33488300  1
  O  O2  1  0.34645500  0.67323100  0.09991300  1
  O  O3  1  0.98920900  0.99461400  0.31991900  1
  O  O4  1  0.98801500  0.99402300  0.81542600  1
  O  O5  1  0.14541000  0.30754700  0.60529500  1
  O  O6  1  0.49784200  0.97139100  0.32805100  1
  O  O7  1  0.49783800  0.52647500  0.32805500  1
  O  O8  1  0.30518600  0.15259600  0.09780900  1
  O  O9  1  0.68976300  0.84485400  0.61241500  1
  O  O10  1  0.52928900  0.49497300  0.82787600  1
  O  O11  1  0.52929400  0.03432800  0.82787400  1
  O  O12  1  0.68429300  0.34215600  0.60433100  1
  O  O13  1  0.83306400  0.68732200  0.10638900  1
  O  O14  1  0.96702200  0.48351000  0.82019100  1
  O  O15  1  0.83306300  0.14574500  0.10638400  1
loop_
_geom_bond_atom_site_label_1
_geom_bond_atom_site_label_2
_geom_bond_distance
_geom_bond_site_symmetry_2
Li0 O11 2.023637 1_565
Li0 O10 2.023765 1_555
Li0 O14 2.103453 1_455
Li0 O2 2.148797 1_556
Li1 O4 1.819319 1_555
Li1 O13 1.944692 1_556
Li1 O15 1.944709 1_566
Li1 O8 2.030665 1_666
Li2 O3 1.823304 1_555
Li2 O9 1.928081 1_555
Li2 O5 1.976201 1_665
Li2 O0 1.976306 1_655
Li3 O1 2.008898 1_655
Li3 O6 2.044675 1_545
Li3 O7 2.044759 1_555
Li3 O12 2.139035 1_555
Mn0 O9 2.184663 1_555
Mn0 O0 2.191974 1_555
Mn0 O5 2.192140 1_555
Mn0 O1 2.337930 1_555
Mn0 O7 2.366948 1_555
Mn0 O6 2.366988 1_555
Mn1 O13 2.173505 1_556
Mn1 O15 2.173634 1_556
Mn1 O8 2.203985 1_556
Mn1 O10 2.335504 1_555
Mn1 O11 2.335601 1_555
Mn1 O14 2.370912 1_555
O0 Ti2 2.012202 1_455
O0 Sn2 2.085466 1_565
O1 Sn0 2.068972 1_555
O1 Sn1 2.069026 1_555
O2 Ti0 2.065742 1_555
O2 Sn1 2.127166 1_555
O2 Sn0 2.127201 1_555
O3 Ti0 2.026696 1_555
O3 Sn0 2.107622 1_655
O3 Sn1 2.107631 1_665
O4 Ti2 2.029872 1_555
O4 Ti1 2.030074 1_565
O4 Sn2 2.127104 1_665
O5 Ti1 2.011993 1_455
O5 Sn2 2.085511 1_555
O6 Ti0 1.955488 1_555
O6 Sn0 2.104864 1_555
O7 Ti0 1.955506 1_555
O7 Sn1 2.104834 1_555
O8 Sn0 2.076067 1_545
O8 Sn1 2.076105 1_555
O9 Ti2 2.021620 1_555
O9 Ti1 2.022857 1_565
O10 Ti2 1.969546 1_555
O10 Sn2 2.083045 1_555
O11 Ti1 1.969675 1_555
O11 Sn2 2.082977 1_555
O12 Ti1 2.041555 1_555
O12 Ti2 2.041780 1_555
O12 Sn2 2.152502 1_555
O13 Ti0 2.023402 1_555
O13 Sn0 2.102475 1_655
O14 Ti1 1.974715 1_555
O14 Ti2 1.975705 1_555
O15 Ti0 2.023369 1_545
O15 Sn1 2.102549 1_655
