# generated using pymatgen
data_LiMnSiO4
_symmetry_space_group_name_H-M   'P 1'
_cell_length_a   5.68071303
_cell_length_b   9.66722124
_cell_length_c   5.68073941
_cell_angle_alpha   104.82728376
_cell_angle_beta   63.17653158
_cell_angle_gamma   104.82691142
_symmetry_Int_Tables_number   1
_chemical_formula_structural   LiMnSiO4
_chemical_formula_sum   'Li4 Mn4 Si4 O16'
_cell_volume   265.54053126
_cell_formula_units_Z   4
loop_
 _symmetry_equiv_pos_site_id
 _symmetry_equiv_pos_as_xyz
  1  'x, y, z'
loop_
 _atom_site_type_symbol
 _atom_site_label
 _atom_site_symmetry_multiplicity
 _atom_site_fract_x
 _atom_site_fract_y
 _atom_site_fract_z
 _atom_site_occupancy
  Li  Li0  1  0.50017600  0.99997200  0.99993500  1
  Li  Li1  1  0.00016400  0.49998300  0.49987200  1
  Li  Li2  1  0.75000500  0.24995400  0.24992900  1
  Li  Li3  1  0.25001200  0.74995500  0.74992000  1
  Mn  Mn0  1  0.49993100  0.50008700  0.50022200  1
  Mn  Mn1  1  0.50016000  0.00019700  0.50008100  1
  Mn  Mn2  1  0.00037100  0.00009900  0.00002900  1
  Mn  Mn3  1  0.99928300  0.49974800  0.00014100  1
  Si  Si0  1  0.06723200  0.18296600  0.56722200  1
  Si  Si1  1  0.56709500  0.68301600  0.06718000  1
  Si  Si2  1  0.43269500  0.31709700  0.93277100  1
  Si  Si3  1  0.93282100  0.81705300  0.43281800  1
  O  O0  1  0.88630700  0.12869800  0.38620100  1
  O  O1  1  0.38593400  0.62858800  0.88621200  1
  O  O2  1  0.37806600  0.13553100  0.87793200  1
  O  O3  1  0.87795700  0.63544500  0.37792800  1
  O  O4  1  0.12206200  0.36451900  0.62205100  1
  O  O5  1  0.62217300  0.86460900  0.12204700  1
  O  O6  1  0.61356400  0.37124800  0.11384800  1
  O  O7  1  0.11393700  0.87135800  0.61382900  1
  O  O8  1  0.35970100  0.12295800  0.39444700  1
  O  O9  1  0.85953800  0.62286800  0.89449000  1
  O  O10  1  0.89464700  0.12289200  0.85965200  1
  O  O11  1  0.39450200  0.62291000  0.35967900  1
  O  O12  1  0.60555400  0.37705900  0.64028200  1
  O  O13  1  0.10569400  0.87705100  0.14024200  1
  O  O14  1  0.14013200  0.37702400  0.10555100  1
  O  O15  1  0.64028400  0.87711300  0.60549100  1
loop_
_geom_bond_atom_site_label_1
_geom_bond_atom_site_label_2
_geom_bond_distance
_geom_bond_site_symmetry_2
Li0 O5 2.009102 1_556
Li0 O2 2.010686 1_565
Li0 O15 2.139438 1_555
Li0 O10 2.139821 1_565
Li0 O13 2.139877 1_556
Li0 O8 2.140280 1_566
Li1 O4 2.009789 1_555
Li1 O3 2.010054 1_455
Li1 O14 2.139260 1_555
Li1 O11 2.139269 1_555
Li1 O9 2.140387 1_455
Li1 O12 2.140448 1_455
Li2 O0 2.010668 1_555
Li2 O6 2.010746 1_555
Li2 O14 2.138956 1_655
Li2 O8 2.139435 1_555
Li2 O10 2.139626 1_554
Li2 O12 2.140036 1_555
Li3 O1 2.010058 1_555
Li3 O7 2.010137 1_555
Li3 O11 2.139358 1_555
Li3 O13 2.139827 1_556
Li3 O15 2.139911 1_555
Li3 O9 2.140504 1_455
Mn0 O11 1.920054 1_555
Mn0 O12 1.920415 1_555
Mn0 O3 2.118295 1_555
Mn0 O4 2.118488 1_555
Mn0 O1 2.122880 1_555
Mn0 O6 2.125835 1_555
Mn1 O8 1.919996 1_555
Mn1 O15 1.920313 1_545
Mn1 O2 2.117452 1_555
Mn1 O5 2.119262 1_545
Mn1 O0 2.123556 1_555
Mn1 O7 2.125191 1_545
Mn2 O13 1.920070 1_545
Mn2 O10 1.920250 1_454
Mn2 O2 2.117249 1_554
Mn2 O5 2.119507 1_445
Mn2 O0 2.124025 1_455
Mn2 O7 2.124725 1_544
Mn3 O9 1.919957 1_554
Mn3 O14 1.920455 1_655
Mn3 O4 2.118077 1_654
Mn3 O3 2.118629 1_555
Mn3 O6 2.121751 1_555
Mn3 O1 2.126995 1_654
O0 Si0 1.670568 1_655
O1 Si1 1.671413 1_556
O2 Si2 1.674164 1_555
O3 Si3 1.674554 1_555
O4 Si0 1.674046 1_555
O5 Si1 1.674418 1_555
O6 Si2 1.670570 1_554
O7 Si3 1.671404 1_455
O8 Si0 1.670452 1_555
O9 Si1 1.670919 1_556
O10 Si0 1.670518 1_655
O11 Si1 1.670981 1_555
O12 Si2 1.670380 1_555
O13 Si3 1.670946 1_455
O14 Si2 1.670537 1_554
O15 Si3 1.670967 1_555
