# generated using pymatgen
data_Li2CrNiO4
_symmetry_space_group_name_H-M   'P 1'
_cell_length_a   5.16367385
_cell_length_b   5.16366781
_cell_length_c   5.16368442
_cell_angle_alpha   133.76175663
_cell_angle_beta   133.76172629
_cell_angle_gamma   67.46073997
_symmetry_Int_Tables_number   1
_chemical_formula_structural   Li2CrNiO4
_chemical_formula_sum   'Li2 Cr1 Ni1 O4'
_cell_volume   70.61238953
_cell_formula_units_Z   1
loop_
 _symmetry_equiv_pos_site_id
 _symmetry_equiv_pos_as_xyz
  1  'x, y, z'
loop_
 _atom_site_type_symbol
 _atom_site_label
 _atom_site_symmetry_multiplicity
 _atom_site_fract_x
 _atom_site_fract_y
 _atom_site_fract_z
 _atom_site_occupancy
  Li  Li0  1  0.25000000  0.75000100  0.50000000  1
  Li  Li1  1  0.49999900  0.50000100  0.00000000  1
  Cr  Cr0  1  0.75000300  0.24999800  0.50000000  1
  Ni  Ni0  1  0.99999900  0.00000000  0.00000000  1
  O  O0  1  0.51776200  0.01776300  0.50000000  1
  O  O1  1  0.23107200  0.23107000  0.00000100  1
  O  O2  1  0.98223600  0.48223700  0.50000100  1
  O  O3  1  0.76892800  0.76892900  0.99999800  1
loop_
_geom_bond_atom_site_label_1
_geom_bond_atom_site_label_2
_geom_bond_distance
_geom_bond_site_symmetry_2
Li0 O3 2.033992 1_555
Li0 O1 2.033993 1_566
Li0 O1 2.033998 1_555
Li0 O3 2.034002 1_454
Li0 O0 2.299764 1_565
Li0 O2 2.299785 1_455
Li1 O0 2.033215 1_565
Li1 O2 2.033217 1_454
Li1 O0 2.033222 1_554
Li1 O2 2.033227 1_555
Li1 O1 2.309791 1_555
Li1 O3 2.309791 1_554
Cr0 O2 1.994633 1_555
Cr0 O0 1.994654 1_555
Cr0 O3 2.033988 1_544
Cr0 O1 2.033995 1_656
Cr0 O1 2.034001 1_555
Cr0 O3 2.034001 1_555
Ni0 O3 1.984622 1_544
Ni0 O1 1.984631 1_655
Ni0 O2 2.033216 1_544
Ni0 O0 2.033220 1_655
Ni0 O0 2.033222 1_554
Ni0 O2 2.033222 1_555
