# generated using pymatgen
data_LiCu2PO4
_symmetry_space_group_name_H-M   'P 1'
_cell_length_a   5.37187900
_cell_length_b   5.19135500
_cell_length_c   8.12740978
_cell_angle_alpha   50.66573701
_cell_angle_beta   90.00000000
_cell_angle_gamma   90.00000000
_symmetry_Int_Tables_number   1
_chemical_formula_structural   LiCu2PO4
_chemical_formula_sum   'Li2 Cu4 P2 O8'
_cell_volume   175.30637137
_cell_formula_units_Z   2
loop_
 _symmetry_equiv_pos_site_id
 _symmetry_equiv_pos_as_xyz
  1  'x, y, z'
loop_
 _atom_site_type_symbol
 _atom_site_label
 _atom_site_symmetry_multiplicity
 _atom_site_fract_x
 _atom_site_fract_y
 _atom_site_fract_z
 _atom_site_occupancy
  Li  Li0  1  0.18180300  0.98949700  0.00398400  1
  Li  Li1  1  0.81819700  0.98949700  0.50398400  1
  Cu  Cu0  1  0.81407200  0.47901800  0.00446000  1
  Cu  Cu1  1  0.29335500  0.24853700  0.25283400  1
  Cu  Cu2  1  0.18592800  0.47901800  0.50446000  1
  Cu  Cu3  1  0.70664500  0.24853700  0.75283400  1
  P  P0  1  0.67805900  0.73586300  0.25516600  1
  P  P1  1  0.32194100  0.73586300  0.75516600  1
  O  O0  1  0.82626900  0.03015800  0.05369900  1
  O  O1  1  0.40401800  0.84880400  0.24023900  1
  O  O2  1  0.68814000  0.42810500  0.26668400  1
  O  O3  1  0.80493600  0.65735600  0.45616500  1
  O  O4  1  0.17373100  0.03015800  0.55369900  1
  O  O5  1  0.59598200  0.84880400  0.74023900  1
  O  O6  1  0.31186000  0.42810500  0.76668400  1
  O  O7  1  0.19506400  0.65735600  0.95616500  1
loop_
_geom_bond_atom_site_label_1
_geom_bond_atom_site_label_2
_geom_bond_distance
_geom_bond_site_symmetry_2
Li0 O6 1.955853 1_564
Li0 O1 1.966594 1_555
Li0 O0 1.990879 1_465
Li0 O7 1.994670 1_554
Li1 O2 1.955853 1_565
Li1 O5 1.966594 1_555
Li1 O4 1.990879 1_665
Li1 O3 1.994670 1_555
Cu0 O2 2.086970 1_555
Cu0 O0 2.100501 1_555
Cu0 O5 2.107912 1_554
Cu0 O7 2.176988 1_654
Cu1 O7 2.027224 1_554
Cu1 O4 2.040400 1_555
Cu1 O1 2.222483 1_545
Cu1 O2 2.347811 1_555
Cu2 O6 2.086970 1_555
Cu2 O4 2.100501 1_555
Cu2 O1 2.107912 1_555
Cu2 O3 2.176988 1_455
Cu3 O3 2.027224 1_555
Cu3 O0 2.040400 1_556
Cu3 O5 2.222483 1_545
Cu3 O6 2.347811 1_555
O0 P0 1.574121 1_545
O1 P0 1.560589 1_555
O2 P0 1.541001 1_555
O3 P0 1.566934 1_555
O4 P1 1.574121 1_545
O5 P1 1.560589 1_555
O6 P1 1.541001 1_555
O7 P1 1.566934 1_555
