# generated using pymatgen
data_FeOF
_symmetry_space_group_name_H-M   'P 1'
_cell_length_a   4.76889815
_cell_length_b   4.76889815
_cell_length_c   6.15238500
_cell_angle_alpha   90.00000000
_cell_angle_beta   90.00000000
_cell_angle_gamma   90.04156005
_symmetry_Int_Tables_number   1
_chemical_formula_structural   FeOF
_chemical_formula_sum   'Fe4 O4 F4'
_cell_volume   139.91989971
_cell_formula_units_Z   4
loop_
 _symmetry_equiv_pos_site_id
 _symmetry_equiv_pos_as_xyz
  1  'x, y, z'
loop_
 _atom_site_type_symbol
 _atom_site_label
 _atom_site_symmetry_multiplicity
 _atom_site_fract_x
 _atom_site_fract_y
 _atom_site_fract_z
 _atom_site_occupancy
  Fe  Fe0  1  0.05611600  0.98578100  0.75000000  1
  Fe  Fe1  1  0.98578100  0.05611600  0.25000000  1
  Fe  Fe2  1  0.48159500  0.48159500  0.50000000  1
  Fe  Fe3  1  0.48159500  0.48159500  0.00000000  1
  O  O0  1  0.19269800  0.19269800  0.50000000  1
  O  O1  1  0.19269800  0.19269800  0.00000000  1
  O  O2  1  0.68139800  0.32251000  0.25000000  1
  O  O3  1  0.32251000  0.68139800  0.75000000  1
  F  F0  1  0.70497600  0.29048900  0.75000000  1
  F  F1  1  0.29048900  0.70497600  0.25000000  1
  F  F2  1  0.80507000  0.80507000  0.50000000  1
  F  F3  1  0.80507000  0.80507000  0.00000000  1
loop_
_geom_bond_atom_site_label_1
_geom_bond_atom_site_label_2
_geom_bond_distance
_geom_bond_site_symmetry_2
Fe0 O3 1.929680 1_555
Fe0 O0 1.939785 1_565
Fe0 O1 1.939785 1_566
Fe1 O2 1.929680 1_555
Fe1 O0 1.939785 1_655
Fe1 O1 1.939785 1_655
Fe2 O0 1.947684 1_555
Fe2 O3 1.962208 1_555
Fe2 O2 1.962208 1_555
Fe3 O1 1.947684 1_555
Fe3 O2 1.962208 1_555
Fe3 O3 1.962208 1_554
F0 Fe2 2.081480 1_555
F0 Fe3 2.081480 1_556
F0 Fe0 2.217930 1_645
F1 Fe3 2.081480 1_555
F1 Fe2 2.081480 1_555
F1 Fe1 2.217930 1_465
F2 Fe0 2.130786 1_655
F2 Fe1 2.130786 1_565
F2 Fe2 2.180802 1_555
F3 Fe0 2.130786 1_654
F3 Fe1 2.130786 1_565
F3 Fe3 2.180802 1_555
