# generated using pymatgen
data_Na5(WO3)13
_symmetry_space_group_name_H-M   'P 1'
_cell_length_a   8.71946700
_cell_length_b   9.54910401
_cell_length_c   9.55014260
_cell_angle_alpha   99.58243250
_cell_angle_beta   100.51602787
_cell_angle_gamma   89.99789396
_symmetry_Int_Tables_number   1
_chemical_formula_structural   Na5(WO3)13
_chemical_formula_sum   'Na5 W13 O39'
_cell_volume   770.53227176
_cell_formula_units_Z   1
loop_
 _symmetry_equiv_pos_site_id
 _symmetry_equiv_pos_as_xyz
  1  'x, y, z'
loop_
 _atom_site_type_symbol
 _atom_site_label
 _atom_site_symmetry_multiplicity
 _atom_site_fract_x
 _atom_site_fract_y
 _atom_site_fract_z
 _atom_site_occupancy
  Na  Na0  1  0.65355300  0.96191000  0.26935100  1
  Na  Na1  1  0.34644700  0.03809000  0.73064900  1
  Na  Na2  1  0.80709400  0.42279200  0.03869400  1
  Na  Na3  1  0.50000000  0.50000000  0.50000000  1
  Na  Na4  1  0.19290600  0.57720800  0.96130600  1
  W  W0  1  0.61819200  0.84735800  0.57887900  1
  W  W1  1  0.84728800  0.53977800  0.72947200  1
  W  W2  1  0.69404500  0.07567200  0.96150000  1
  W  W3  1  0.00000000  0.00000000  0.50000000  1
  W  W4  1  0.77131700  0.30698200  0.34846800  1
  W  W5  1  0.92468000  0.77160400  0.11663900  1
  W  W6  1  0.22868300  0.69301800  0.65153200  1
  W  W7  1  0.46136100  0.38426800  0.80690400  1
  W  W8  1  0.07532000  0.22839600  0.88336100  1
  W  W9  1  0.38180800  0.15264200  0.42112100  1
  W  W10  1  0.15271200  0.46022200  0.27052800  1
  W  W11  1  0.30595500  0.92432800  0.03850000  1
  W  W12  1  0.53863900  0.61573200  0.19309600  1
  O  O0  1  0.65109400  0.96244000  0.76926700  1
  O  O1  1  0.65372300  0.46154900  0.76908000  1
  O  O2  1  0.80610400  0.92342900  0.53592600  1
  O  O3  1  0.80643000  0.92341700  0.04082200  1
  O  O4  1  0.80505700  0.42410600  0.53836700  1
  O  O5  1  0.65386200  0.46163000  0.26937300  1
  O  O6  1  0.72866000  0.69041200  0.65233700  1
  O  O7  1  0.11763500  0.84795900  0.57837400  1
  O  O8  1  0.26897300  0.80767800  0.84604400  1
  O  O9  1  0.04127700  0.11461900  0.69290300  1
  O  O10  1  0.96218600  0.38700400  0.81135000  1
  O  O11  1  0.88236500  0.15204100  0.42162600  1
  O  O12  1  0.73102700  0.19232200  0.15395600  1
  O  O13  1  0.95872300  0.88538100  0.30709700  1
  O  O14  1  0.26942500  0.30762300  0.84594700  1
  O  O15  1  0.42328500  0.76938100  0.61533700  1
  O  O16  1  0.04013700  0.61518400  0.69474700  1
  O  O17  1  0.19389600  0.07657100  0.46407400  1
  O  O18  1  0.73057500  0.69237700  0.15405300  1
  O  O19  1  0.95986300  0.38481600  0.30525300  1
  O  O20  1  0.88361300  0.15621000  0.92405200  1
  O  O21  1  0.11638700  0.84379000  0.07594800  1
  O  O22  1  0.03781400  0.61299600  0.18865000  1
  O  O23  1  0.19494300  0.57589400  0.46163300  1
  O  O24  1  0.27134000  0.30958800  0.34766300  1
  O  O25  1  0.42310300  0.76907500  0.11551800  1
  O  O26  1  0.50000000  0.00000000  0.50000000  1
  O  O27  1  0.42297600  0.26929100  0.61537300  1
  O  O28  1  0.34613800  0.53837000  0.73062700  1
  O  O29  1  0.19357000  0.07658300  0.95917800  1
  O  O30  1  0.57702400  0.73070900  0.38462700  1
  O  O31  1  0.34890600  0.03756000  0.23073300  1
  O  O32  1  0.11282000  0.34892600  0.07528600  1
  O  O33  1  0.88718000  0.65107400  0.92471400  1
  O  O34  1  0.57671500  0.23061900  0.38466300  1
  O  O35  1  0.50000000  0.00000000  0.00000000  1
  O  O36  1  0.34627700  0.53845100  0.23092000  1
  O  O37  1  0.57689700  0.23092500  0.88448200  1
  O  O38  1  0.50000000  0.50000000  0.00000000  1
loop_
_geom_bond_atom_site_label_1
_geom_bond_atom_site_label_2
_geom_bond_distance
_geom_bond_site_symmetry_2
Na0 O31 2.728565 1_565
Na0 O11 2.730168 1_565
Na0 O2 2.731470 1_555
Na0 O3 2.733144 1_555
Na0 O13 2.735309 1_555
Na0 O34 2.752098 1_565
Na0 O26 2.754402 1_565
Na0 O12 2.755171 1_565
Na0 O35 2.756117 1_565
Na0 O25 2.758410 1_555
Na0 O30 2.758431 1_555
Na0 O18 2.759381 1_555
Na1 O0 2.728565 1_545
Na1 O7 2.730168 1_545
Na1 O17 2.731470 1_555
Na1 O29 2.733144 1_555
Na1 O9 2.735309 1_555
Na1 O15 2.752098 1_545
Na1 O26 2.754402 1_555
Na1 O8 2.755171 1_545
Na1 O35 2.756117 1_556
Na1 O37 2.758410 1_555
Na1 O27 2.758431 1_555
Na1 O14 2.759381 1_555
Na2 O19 2.730548 1_555
Na2 O20 2.731784 1_554
Na2 O32 2.732736 1_655
Na2 O22 2.734882 1_655
Na2 O10 2.735727 1_554
Na2 O33 2.737154 1_554
Na2 O12 2.751038 1_555
Na2 O37 2.752726 1_554
Na2 O5 2.752883 1_555
Na2 O38 2.753098 1_555
Na2 O18 2.758595 1_555
Na2 O1 2.759631 1_554
Na3 O6 2.731048 1_555
Na3 O24 2.731048 1_555
Na3 O4 2.732624 1_555
Na3 O23 2.732624 1_555
Na3 O1 2.755335 1_555
Na3 O36 2.755335 1_555
Na3 O28 2.755922 1_555
Na3 O5 2.755922 1_555
Na3 O30 2.756258 1_555
Na3 O27 2.756258 1_555
Na3 O34 2.757385 1_555
Na3 O15 2.757385 1_555
Na4 O16 2.730548 1_555
Na4 O21 2.731784 1_556
Na4 O33 2.732736 1_455
Na4 O10 2.734882 1_455
Na4 O22 2.735727 1_556
Na4 O32 2.737154 1_556
Na4 O8 2.751038 1_555
Na4 O25 2.752726 1_556
Na4 O28 2.752883 1_555
Na4 O38 2.753098 1_556
Na4 O14 2.758595 1_555
Na4 O36 2.759631 1_556
O0 W0 1.933986 1_555
O0 W2 1.941113 1_565
O1 W7 1.948946 1_555
O1 W1 1.968994 1_555
O2 W0 1.930086 1_555
O2 W3 1.950913 1_665
O3 W2 1.934831 1_564
O3 W5 1.940566 1_555
O4 W4 1.938147 1_555
O4 W1 1.941681 1_555
O5 W12 1.948098 1_555
O5 W4 1.972089 1_555
O6 W1 1.938083 1_555
O6 W0 1.941470 1_555
O7 W6 1.926623 1_555
O7 W3 1.949782 1_565
O8 W11 1.955761 1_556
O8 W6 1.964085 1_555
O9 W8 1.929232 1_555
O9 W3 1.951426 1_555
O10 W1 1.958859 1_555
O10 W8 1.959340 1_655
O11 W4 1.926623 1_555
O11 W3 1.949782 1_655
O12 W2 1.955761 1_554
O12 W4 1.964085 1_555
O13 W5 1.929232 1_555
O13 W3 1.951426 1_665
O14 W7 1.947894 1_555
O14 W8 1.968603 1_555
O15 W6 1.956666 1_555
O15 W0 1.966297 1_555
O16 W1 1.933697 1_455
O16 W6 1.943046 1_555
O17 W9 1.930086 1_555
O17 W3 1.950913 1_555
O18 W12 1.947894 1_555
O18 W5 1.968603 1_555
O19 W10 1.933697 1_655
O19 W4 1.943046 1_555
O20 W8 1.935648 1_655
O20 W2 1.938812 1_555
O21 W5 1.935648 1_455
O21 W11 1.938812 1_555
O22 W10 1.958859 1_555
O22 W5 1.959340 1_455
O23 W6 1.938147 1_555
O23 W10 1.941681 1_555
O24 W10 1.938083 1_555
O24 W9 1.941470 1_555
O25 W12 1.948477 1_555
O25 W11 1.967480 1_555
O26 W0 1.958623 1_545
O26 W9 1.958623 1_555
O27 W7 1.941955 1_555
O27 W9 1.969799 1_555
O28 W7 1.948098 1_555
O28 W6 1.972089 1_555
O29 W11 1.934831 1_546
O29 W8 1.940566 1_555
O30 W12 1.941955 1_555
O30 W0 1.969799 1_555
O31 W9 1.933986 1_555
O31 W11 1.941113 1_545
O32 W10 1.957219 1_555
O32 W8 1.967252 1_554
O33 W1 1.957219 1_555
O33 W5 1.967252 1_556
O34 W4 1.956666 1_555
O34 W9 1.966297 1_555
O35 W2 1.958501 1_554
O35 W11 1.958501 1_545
O36 W12 1.948946 1_555
O36 W10 1.968994 1_555
O37 W7 1.948477 1_555
O37 W2 1.967480 1_555
O38 W12 1.957103 1_555
O38 W7 1.957103 1_554
