# generated using pymatgen
data_Li2VF6
_symmetry_space_group_name_H-M   'P 1'
_cell_length_a   6.39442900
_cell_length_b   6.39442900
_cell_length_c   6.05561200
_cell_angle_alpha   90.00000000
_cell_angle_beta   90.00000000
_cell_angle_gamma   90.00000000
_symmetry_Int_Tables_number   1
_chemical_formula_structural   Li2VF6
_chemical_formula_sum   'Li4 V2 F12'
_cell_volume   247.60623704
_cell_formula_units_Z   2
loop_
 _symmetry_equiv_pos_site_id
 _symmetry_equiv_pos_as_xyz
  1  'x, y, z'
loop_
 _atom_site_type_symbol
 _atom_site_label
 _atom_site_symmetry_multiplicity
 _atom_site_fract_x
 _atom_site_fract_y
 _atom_site_fract_z
 _atom_site_occupancy
  Li  Li0  1  0.00000000  0.50000000  0.75000000  1
  Li  Li1  1  0.00000000  0.50000000  0.25000000  1
  Li  Li2  1  0.50000000  0.00000000  0.75000000  1
  Li  Li3  1  0.50000000  0.00000000  0.25000000  1
  V  V0  1  0.50000000  0.50000000  0.50000000  1
  V  V1  1  0.00000000  0.00000000  0.00000000  1
  F  F0  1  0.96961400  0.69829200  0.00000000  1
  F  F1  1  0.80170800  0.53038600  0.50000000  1
  F  F2  1  0.50000000  0.50000000  0.79570200  1
  F  F3  1  0.50000000  0.50000000  0.20429800  1
  F  F4  1  0.30170800  0.96961400  0.00000000  1
  F  F5  1  0.46961400  0.80170800  0.50000000  1
  F  F6  1  0.69829200  0.03038600  0.00000000  1
  F  F7  1  0.53038600  0.19829200  0.50000000  1
  F  F8  1  0.00000000  0.00000000  0.29570200  1
  F  F9  1  0.00000000  0.00000000  0.70429800  1
  F  F10  1  0.03038600  0.30170800  0.00000000  1
  F  F11  1  0.19829200  0.46961400  0.50000000  1
loop_
_geom_bond_atom_site_label_1
_geom_bond_atom_site_label_2
_geom_bond_distance
_geom_bond_site_symmetry_2
F0 V1 1.939010 1_665
F0 Li0 1.984285 1_654
F0 Li1 1.984285 1_655
F1 V0 1.939010 1_555
F1 Li1 1.984285 1_655
F1 Li0 1.984285 1_655
F2 V0 1.790657 1_555
F3 V0 1.790657 1_555
F4 V1 1.939010 1_565
F4 Li2 1.984285 1_564
F4 Li3 1.984285 1_565
F5 V0 1.939010 1_555
F5 Li2 1.984285 1_565
F5 Li3 1.984285 1_565
F6 V1 1.939010 1_655
F6 Li3 1.984285 1_555
F6 Li2 1.984285 1_554
F7 V0 1.939010 1_555
F7 Li3 1.984285 1_555
F7 Li2 1.984285 1_555
F8 V1 1.790657 1_555
F9 V1 1.790657 1_556
F10 V1 1.939010 1_555
F10 Li1 1.984285 1_555
F10 Li0 1.984285 1_554
F11 V0 1.939010 1_555
F11 Li1 1.984285 1_555
F11 Li0 1.984285 1_555
