# generated using pymatgen
data_Li3Mn4(BO3)4
_symmetry_space_group_name_H-M   'P 1'
_cell_length_a   5.89372400
_cell_length_b   9.07375279
_cell_length_c   9.84392883
_cell_angle_alpha   81.82086945
_cell_angle_beta   80.15443445
_cell_angle_gamma   77.22772794
_symmetry_Int_Tables_number   1
_chemical_formula_structural   Li3Mn4(BO3)4
_chemical_formula_sum   'Li6 Mn8 B8 O24'
_cell_volume   502.84996068
_cell_formula_units_Z   2
loop_
 _symmetry_equiv_pos_site_id
 _symmetry_equiv_pos_as_xyz
  1  'x, y, z'
loop_
 _atom_site_type_symbol
 _atom_site_label
 _atom_site_symmetry_multiplicity
 _atom_site_fract_x
 _atom_site_fract_y
 _atom_site_fract_z
 _atom_site_occupancy
  Li  Li0  1  0.57539200  0.21821800  0.58510300  1
  Li  Li1  1  0.64442300  0.28060600  0.17016400  1
  Li  Li2  1  0.35557700  0.71939400  0.82983600  1
  Li  Li3  1  0.42460800  0.78178200  0.41489700  1
  Li  Li4  1  0.10227600  0.21633300  0.08662300  1
  Li  Li5  1  0.89772400  0.78366700  0.91337700  1
  Mn  Mn0  1  0.66358300  0.55636000  0.59532500  1
  Mn  Mn1  1  0.85843900  0.44893200  0.88851500  1
  Mn  Mn2  1  0.60430700  0.93866700  0.14426100  1
  Mn  Mn3  1  0.33641700  0.44364000  0.40467500  1
  Mn  Mn4  1  0.39569300  0.06133300  0.85573900  1
  Mn  Mn5  1  0.14156100  0.55106800  0.11148500  1
  Mn  Mn6  1  0.90005000  0.03448200  0.35462200  1
  Mn  Mn7  1  0.09995000  0.96551800  0.64537800  1
  B  B0  1  0.85845100  0.11440000  0.91110700  1
  B  B1  1  0.59920200  0.61499000  0.15178300  1
  B  B2  1  0.64193900  0.88953300  0.60504500  1
  B  B3  1  0.35806100  0.11046700  0.39495500  1
  B  B4  1  0.40079800  0.38501000  0.84821700  1
  B  B5  1  0.11291500  0.62487000  0.64878400  1
  B  B6  1  0.14154900  0.88560000  0.08889300  1
  B  B7  1  0.88708500  0.37513000  0.35121600  1
  O  O0  1  0.78360900  0.61023000  0.04016200  1
  O  O1  1  0.69540300  0.39192500  0.45943400  1
  O  O2  1  0.76294100  0.00993700  0.56817900  1
  O  O3  1  0.81094700  0.23296400  0.98986700  1
  O  O4  1  0.52974200  0.73655900  0.22780000  1
  O  O5  1  0.68532400  0.77484000  0.52194600  1
  O  O6  1  0.71897500  0.00230500  0.93306200  1
  O  O7  1  0.48380900  0.49242200  0.18816700  1
  O  O8  1  0.53038700  0.10541700  0.27925500  1
  O  O9  1  0.30459700  0.60807500  0.54056600  1
  O  O10  1  0.51619100  0.50757800  0.81183300  1
  O  O11  1  0.31467600  0.22516000  0.47805400  1
  O  O12  1  0.47025800  0.26344100  0.77220000  1
  O  O13  1  0.23705900  0.99006300  0.43182100  1
  O  O14  1  0.46961300  0.89458300  0.72074500  1
  O  O15  1  0.21639100  0.38977000  0.95983800  1
  O  O16  1  0.28102500  0.99769500  0.06693800  1
  O  O17  1  0.02730900  0.48377700  0.32377800  1
  O  O18  1  0.07255100  0.74112700  0.73121000  1
  O  O19  1  0.18905300  0.76703600  0.01013300  1
  O  O20  1  0.92744900  0.25887300  0.26879000  1
  O  O21  1  0.97269100  0.51622300  0.67622200  1
  O  O22  1  0.05809400  0.08930300  0.81305500  1
  O  O23  1  0.94190600  0.91069700  0.18694500  1
loop_
_geom_bond_atom_site_label_1
_geom_bond_atom_site_label_2
_geom_bond_distance
_geom_bond_site_symmetry_2
Li0 O12 1.912270 1_555
Li0 O2 1.980962 1_555
Li0 O11 1.991884 1_555
Li0 O1 2.038104 1_555
Li1 O3 1.932653 1_554
Li1 O7 1.963810 1_555
Li1 O8 1.967656 1_555
Li1 O20 2.029254 1_555
Li2 O19 1.932653 1_556
Li2 O10 1.963810 1_555
Li2 O14 1.967656 1_555
Li2 O18 2.029254 1_555
Li3 O4 1.912270 1_555
Li3 O13 1.980962 1_555
Li3 O5 1.991884 1_555
Li3 O9 2.038104 1_555
Li4 O20 1.953353 1_455
Li4 O15 2.026986 1_554
Li4 O16 2.049050 1_545
Li4 O3 2.069275 1_454
Li5 O18 1.953353 1_655
Li5 O0 2.026986 1_556
Li5 O6 2.049050 1_565
Li5 O19 2.069275 1_656
Mn0 O5 2.035053 1_555
Mn0 O21 2.050855 1_555
Mn0 O1 2.099810 1_555
Mn0 O10 2.182055 1_555
Mn0 O9 2.205970 1_555
Mn1 O3 2.122418 1_555
Mn1 O21 2.128607 1_555
Mn1 O0 2.162438 1_556
Mn1 O10 2.203077 1_555
Mn1 O15 2.265036 1_655
Mn2 O4 2.009016 1_555
Mn2 O23 2.057236 1_555
Mn2 O8 2.080306 1_565
Mn2 O16 2.103638 1_555
Mn2 O6 2.112575 1_564
Mn3 O11 2.035053 1_555
Mn3 O17 2.050855 1_555
Mn3 O9 2.099810 1_555
Mn3 O7 2.182055 1_555
Mn3 O1 2.205970 1_555
Mn4 O12 2.009016 1_555
Mn4 O22 2.057236 1_555
Mn4 O14 2.080306 1_545
Mn4 O6 2.103638 1_555
Mn4 O16 2.112575 1_546
Mn5 O19 2.122418 1_555
Mn5 O17 2.128607 1_555
Mn5 O15 2.162438 1_554
Mn5 O7 2.203077 1_555
Mn5 O0 2.265036 1_455
Mn6 O23 2.076694 1_545
Mn6 O2 2.118350 1_555
Mn6 O20 2.120087 1_555
Mn6 O13 2.181785 1_645
Mn6 O8 2.346972 1_555
Mn7 O22 2.076694 1_565
Mn7 O13 2.118350 1_555
Mn7 O18 2.120087 1_555
Mn7 O2 2.181785 1_465
Mn7 O14 2.346972 1_555
B0 O3 1.366307 1_555
B0 O22 1.386959 1_655
B0 O6 1.415404 1_555
B1 O4 1.369230 1_555
B1 O7 1.401955 1_555
B1 O0 1.405267 1_555
B2 O5 1.367708 1_555
B2 O14 1.389063 1_555
B2 O2 1.406077 1_565
B3 O11 1.367708 1_555
B3 O8 1.389063 1_555
B3 O13 1.406077 1_545
B4 O12 1.369230 1_555
B4 O10 1.401955 1_555
B4 O15 1.405267 1_555
B5 O18 1.376342 1_555
B5 O21 1.391390 1_455
B5 O9 1.411677 1_555
B6 O19 1.366307 1_555
B6 O23 1.386959 1_455
B6 O16 1.415404 1_555
B7 O20 1.376342 1_555
B7 O17 1.391390 1_655
B7 O1 1.411677 1_555
