# generated using pymatgen
data_Na9Ni7O16
_symmetry_space_group_name_H-M   'P 1'
_cell_length_a   6.89999800
_cell_length_b   6.97632201
_cell_length_c   7.92425639
_cell_angle_alpha   65.65764209
_cell_angle_beta   77.03982202
_cell_angle_gamma   69.49245447
_symmetry_Int_Tables_number   1
_chemical_formula_structural   Na9Ni7O16
_chemical_formula_sum   'Na9 Ni7 O16'
_cell_volume   324.08210077
_cell_formula_units_Z   1
loop_
 _symmetry_equiv_pos_site_id
 _symmetry_equiv_pos_as_xyz
  1  'x, y, z'
loop_
 _atom_site_type_symbol
 _atom_site_label
 _atom_site_symmetry_multiplicity
 _atom_site_fract_x
 _atom_site_fract_y
 _atom_site_fract_z
 _atom_site_occupancy
  Na  Na0  1  0.42268300  0.56117600  0.81246800  1
  Na  Na1  1  0.31393100  0.68543500  0.43154700  1
  Na  Na2  1  0.68606900  0.31456500  0.56845300  1
  Na  Na3  1  0.05394300  0.92926000  0.69144200  1
  Na  Na4  1  0.18647000  0.79676400  0.06746500  1
  Na  Na5  1  0.57731700  0.43882400  0.18753200  1
  Na  Na6  1  0.00000000  0.50000000  0.00000000  1
  Na  Na7  1  0.94605700  0.07074000  0.30855800  1
  Na  Na8  1  0.81353000  0.20323600  0.93253500  1
  Ni  Ni0  1  0.62112600  0.88248500  0.86974200  1
  Ni  Ni1  1  0.87294300  0.63338400  0.61752400  1
  Ni  Ni2  1  0.25182500  0.24374500  0.74934800  1
  Ni  Ni3  1  0.74817500  0.75625500  0.25065200  1
  Ni  Ni4  1  0.12705700  0.36661600  0.38247600  1
  Ni  Ni5  1  0.50000000  0.00000000  0.50000000  1
  Ni  Ni6  1  0.37887400  0.11751500  0.13025800  1
  O  O0  1  0.14247700  0.55332800  0.70857300  1
  O  O1  1  0.00715800  0.29602100  0.64112700  1
  O  O2  1  0.50277600  0.19058400  0.84809200  1
  O  O3  1  0.99284200  0.70397900  0.35887300  1
  O  O4  1  0.62448100  0.69167400  0.50614300  1
  O  O5  1  0.49722400  0.80941600  0.15190800  1
  O  O6  1  0.36538100  0.93962100  0.77139400  1
  O  O7  1  0.37551900  0.30832600  0.49385700  1
  O  O8  1  0.85635200  0.84457900  0.99168200  1
  O  O9  1  0.85752300  0.44667200  0.29142700  1
  O  O10  1  0.74794200  0.96260800  0.59033800  1
  O  O11  1  0.25205800  0.03739200  0.40966200  1
  O  O12  1  0.63461900  0.06037900  0.22860600  1
  O  O13  1  0.71911500  0.58650300  0.86282400  1
  O  O14  1  0.28088500  0.41349700  0.13717600  1
  O  O15  1  0.14364800  0.15542100  0.00831800  1
loop_
_geom_bond_atom_site_label_1
_geom_bond_atom_site_label_2
_geom_bond_distance
_geom_bond_site_symmetry_2
Na0 O13 2.247545 1_555
Na0 O0 2.290029 1_555
Na0 O2 2.352969 1_555
Na0 O6 2.418801 1_555
Na0 O14 2.455827 1_556
Na0 O4 2.492032 1_555
Na1 O0 2.235881 1_555
Na1 O5 2.277572 1_555
Na1 O11 2.277908 1_565
Na1 O3 2.359436 1_455
Na1 O7 2.363386 1_555
Na1 O4 2.365923 1_555
Na2 O9 2.235881 1_555
Na2 O2 2.277572 1_555
Na2 O10 2.277908 1_545
Na2 O1 2.359436 1_655
Na2 O4 2.363386 1_555
Na2 O7 2.365923 1_555
Na3 O11 2.321287 1_565
Na3 O10 2.327010 1_455
Na3 O1 2.334063 1_565
Na3 O6 2.404528 1_555
Na3 O8 2.412256 1_455
Na3 O0 2.427121 1_555
Na4 O15 2.268230 1_565
Na4 O3 2.350792 1_455
Na4 O8 2.361436 1_454
Na4 O14 2.366868 1_555
Na4 O6 2.378431 1_554
Na4 O5 2.424462 1_555
Na5 O14 2.247545 1_555
Na5 O9 2.290029 1_555
Na5 O5 2.352969 1_555
Na5 O12 2.418801 1_555
Na5 O13 2.455827 1_554
Na5 O7 2.492032 1_555
Na6 O13 2.210600 1_454
Na6 O14 2.210600 1_555
Na6 O9 2.228812 1_455
Na6 O0 2.228812 1_554
Na6 O8 2.234884 1_454
Na6 O15 2.234884 1_555
Na7 O10 2.321287 1_545
Na7 O11 2.327010 1_655
Na7 O3 2.334063 1_545
Na7 O12 2.404528 1_555
Na7 O15 2.412256 1_655
Na7 O9 2.427121 1_555
Na8 O8 2.268230 1_545
Na8 O1 2.350792 1_655
Na8 O15 2.361436 1_656
Na8 O13 2.366868 1_555
Na8 O12 2.378431 1_556
Na8 O2 2.424462 1_555
Ni0 O6 1.936012 1_555
Ni0 O13 1.955074 1_555
Ni0 O8 1.957051 1_555
Ni0 O2 1.960927 1_565
Ni0 O10 2.105630 1_555
Ni0 O5 2.120978 1_556
Ni1 O4 1.943671 1_555
Ni1 O13 1.950820 1_555
Ni1 O3 1.954651 1_555
Ni1 O0 1.957854 1_655
Ni1 O10 2.086371 1_555
Ni1 O1 2.149297 1_655
Ni2 O2 1.914855 1_555
Ni2 O1 1.917977 1_555
Ni2 O0 1.931453 1_555
Ni2 O6 1.933127 1_545
Ni2 O15 1.934138 1_556
Ni2 O7 1.942354 1_555
Ni3 O5 1.914855 1_555
Ni3 O3 1.917977 1_555
Ni3 O9 1.931453 1_555
Ni3 O12 1.933127 1_565
Ni3 O8 1.934138 1_554
Ni3 O4 1.942354 1_555
Ni4 O7 1.943671 1_555
Ni4 O14 1.950820 1_555
Ni4 O1 1.954651 1_555
Ni4 O9 1.957854 1_455
Ni4 O11 2.086371 1_555
Ni4 O3 2.149297 1_455
Ni5 O11 1.894740 1_555
Ni5 O10 1.894740 1_545
Ni5 O4 2.001196 1_545
Ni5 O7 2.001196 1_555
Ni5 O12 2.072828 1_555
Ni5 O6 2.072828 1_545
Ni6 O12 1.936012 1_555
Ni6 O14 1.955074 1_555
Ni6 O15 1.957051 1_555
Ni6 O5 1.960927 1_545
Ni6 O11 2.105630 1_555
Ni6 O2 2.120978 1_554
