# generated using pymatgen
data_Li5Mn2Fe5O12
_symmetry_space_group_name_H-M   'P 1'
_cell_length_a   5.21215971
_cell_length_b   5.21215971
_cell_length_c   10.05027728
_cell_angle_alpha   84.45141140
_cell_angle_beta   84.45141140
_cell_angle_gamma   120.64020692
_symmetry_Int_Tables_number   1
_chemical_formula_structural   Li5Mn2Fe5O12
_chemical_formula_sum   'Li5 Mn2 Fe5 O12'
_cell_volume   230.39020034
_cell_formula_units_Z   1
loop_
 _symmetry_equiv_pos_site_id
 _symmetry_equiv_pos_as_xyz
  1  'x, y, z'
loop_
 _atom_site_type_symbol
 _atom_site_label
 _atom_site_symmetry_multiplicity
 _atom_site_fract_x
 _atom_site_fract_y
 _atom_site_fract_z
 _atom_site_occupancy
  Li  Li0  1  0.84343000  0.66576200  0.25242300  1
  Li  Li1  1  0.66771900  0.83760000  0.74742000  1
  Li  Li2  1  0.33423800  0.15657000  0.74757700  1
  Li  Li3  1  0.16240000  0.33228100  0.25258000  1
  Li  Li4  1  0.08235600  0.91764400  0.50000000  1
  Mn  Mn0  1  0.74928400  0.25071600  0.50000000  1
  Mn  Mn1  1  0.24645200  0.75354800  0.00000000  1
  Fe  Fe0  1  0.91810500  0.08189500  0.00000000  1
  Fe  Fe1  1  0.99894500  0.50332400  0.74621800  1
  Fe  Fe2  1  0.49667600  0.00105500  0.25378200  1
  Fe  Fe3  1  0.57762300  0.42237700  0.00000000  1
  Fe  Fe4  1  0.42090000  0.57910000  0.50000000  1
  O  O0  1  0.02538200  0.22817900  0.61618400  1
  O  O1  1  0.77182100  0.97461800  0.38381600  1
  O  O2  1  0.88343400  0.40357600  0.11395200  1
  O  O3  1  0.59642400  0.11656600  0.88604800  1
  O  O4  1  0.69527800  0.51053200  0.61104100  1
  O  O5  1  0.48946800  0.30472200  0.38895900  1
  O  O6  1  0.54108100  0.70363400  0.11834600  1
  O  O7  1  0.29636600  0.45891900  0.88165400  1
  O  O8  1  0.40075800  0.87877400  0.61469700  1
  O  O9  1  0.12122600  0.59924200  0.38530300  1
  O  O10  1  0.23048800  0.04985600  0.12666300  1
  O  O11  1  0.95014400  0.76951200  0.87333700  1
loop_
_geom_bond_atom_site_label_1
_geom_bond_atom_site_label_2
_geom_bond_distance
_geom_bond_site_symmetry_2
Li0 O5 2.073695 1_555
Li0 O2 2.109452 1_555
Li0 O10 2.139205 1_665
Li0 O9 2.190039 1_655
Li0 O6 2.239301 1_555
Li0 O1 2.324394 1_555
Li1 O8 2.090312 1_555
Li1 O0 2.120427 1_665
Li1 O7 2.132653 1_555
Li1 O11 2.168001 1_555
Li1 O3 2.244050 1_565
Li1 O4 2.338543 1_555
Li2 O4 2.073695 1_555
Li2 O3 2.109452 1_555
Li2 O11 2.139205 1_445
Li2 O8 2.190039 1_545
Li2 O7 2.239301 1_555
Li2 O0 2.324394 1_555
Li3 O9 2.090312 1_555
Li3 O1 2.120427 1_445
Li3 O6 2.132653 1_555
Li3 O10 2.168001 1_555
Li3 O2 2.244050 1_455
Li3 O5 2.338543 1_555
Li4 O5 2.135755 1_565
Li4 O4 2.135755 1_455
Li4 O8 2.188945 1_555
Li4 O9 2.188945 1_555
Li4 O0 2.204480 1_565
Li4 O1 2.204480 1_455
Mn0 O4 1.943859 1_555
Mn0 O5 1.943859 1_555
Mn0 O0 1.979626 1_655
Mn0 O1 1.979626 1_545
Mn0 O8 1.990055 1_545
Mn0 O9 1.990055 1_655
Mn1 O2 1.969271 1_455
Mn1 O3 1.969271 1_564
Mn1 O10 2.122104 1_565
Mn1 O11 2.122104 1_454
Mn1 O7 2.131011 1_554
Mn1 O6 2.131011 1_555
Fe0 O7 2.075780 1_654
Fe0 O6 2.075780 1_545
Fe0 O2 2.189875 1_555
Fe0 O3 2.189875 1_554
Fe0 O11 2.221770 1_544
Fe0 O10 2.221770 1_655
Fe1 O11 2.064333 1_555
Fe1 O0 2.076677 1_655
Fe1 O8 2.179418 1_655
Fe1 O4 2.195178 1_555
Fe1 O3 2.238611 1_555
Fe1 O7 2.241054 1_655
Fe2 O10 2.064333 1_555
Fe2 O1 2.076677 1_545
Fe2 O9 2.179418 1_545
Fe2 O5 2.195178 1_555
Fe2 O2 2.238611 1_555
Fe2 O6 2.241054 1_545
Fe3 O10 2.039591 1_555
Fe3 O11 2.039591 1_554
Fe3 O7 2.044008 1_554
Fe3 O6 2.044008 1_555
Fe3 O3 2.086227 1_554
Fe3 O2 2.086227 1_555
Fe4 O4 2.042259 1_555
Fe4 O5 2.042259 1_555
Fe4 O0 2.058365 1_555
Fe4 O1 2.058365 1_555
Fe4 O9 2.066744 1_555
Fe4 O8 2.066744 1_555
