# generated using pymatgen
data_Co2O3F
_symmetry_space_group_name_H-M   'P 1'
_cell_length_a   5.27656289
_cell_length_b   5.27656289
_cell_length_c   9.63096386
_cell_angle_alpha   69.98416897
_cell_angle_beta   69.98416897
_cell_angle_gamma   67.39038058
_symmetry_Int_Tables_number   1
_chemical_formula_structural   Co2O3F
_chemical_formula_sum   'Co8 O12 F4'
_cell_volume   225.62062329
_cell_formula_units_Z   4
loop_
 _symmetry_equiv_pos_site_id
 _symmetry_equiv_pos_as_xyz
  1  'x, y, z'
loop_
 _atom_site_type_symbol
 _atom_site_label
 _atom_site_symmetry_multiplicity
 _atom_site_fract_x
 _atom_site_fract_y
 _atom_site_fract_z
 _atom_site_occupancy
  Co  Co0  1  0.00000000  0.00000000  0.00000000  1
  Co  Co1  1  0.72713800  0.72713800  0.51476700  1
  Co  Co2  1  0.12128300  0.62856500  0.74963000  1
  Co  Co3  1  0.87871700  0.37143500  0.25037000  1
  Co  Co4  1  0.37143400  0.87871700  0.25037000  1
  Co  Co5  1  0.50000000  0.50000000  0.00000000  1
  Co  Co6  1  0.27286200  0.27286200  0.48523300  1
  Co  Co7  1  0.62856500  0.12128300  0.74963000  1
  O  O0  1  0.70100300  0.20108000  0.90280400  1
  O  O1  1  0.29899700  0.79892000  0.09719600  1
  O  O2  1  0.04602400  0.54984100  0.59709600  1
  O  O3  1  0.79892000  0.29899700  0.09719600  1
  O  O4  1  0.73203800  0.73203800  0.84433600  1
  O  O5  1  0.51448900  0.51448900  0.65481800  1
  O  O6  1  0.26796200  0.26796200  0.15566400  1
  O  O7  1  0.45015900  0.95397600  0.40290400  1
  O  O8  1  0.95397600  0.45015900  0.40290400  1
  O  O9  1  0.20108000  0.70100300  0.90280400  1
  O  O10  1  0.54984100  0.04602400  0.59709600  1
  O  O11  1  0.48551100  0.48551100  0.34518200  1
  F  F0  1  0.78461800  0.78461800  0.14320300  1
  F  F1  1  0.95659700  0.95659700  0.36082800  1
  F  F2  1  0.21538200  0.21538200  0.85679700  1
  F  F3  1  0.04340300  0.04340300  0.63917200  1
loop_
_geom_bond_atom_site_label_1
_geom_bond_atom_site_label_2
_geom_bond_distance
_geom_bond_site_symmetry_2
Co0 F2 1.825495 1_554
Co0 F0 1.825495 1_445
Co0 O3 1.880178 1_455
Co0 O1 1.880178 1_545
Co0 O0 1.880178 1_454
Co0 O9 1.880178 1_544
Co1 O5 1.798138 1_555
Co1 O2 1.878907 1_655
Co1 O10 1.878907 1_565
Co1 O7 1.891922 1_555
Co1 O8 1.891922 1_555
Co1 F1 1.949212 1_555
Co2 O2 1.852641 1_555
Co2 O9 1.853264 1_555
Co2 O4 1.882737 1_455
Co2 O5 1.902604 1_555
Co2 F2 2.010743 1_555
Co2 F3 2.026204 1_565
Co3 O8 1.852641 1_555
Co3 O3 1.853264 1_555
Co3 O6 1.882737 1_655
Co3 O11 1.902604 1_555
Co3 F0 2.010743 1_555
Co3 F1 2.026204 1_545
Co4 O7 1.852644 1_555
Co4 O1 1.853261 1_555
Co4 O6 1.882737 1_565
Co4 O11 1.902604 1_555
Co4 F0 2.010747 1_555
Co4 F1 2.026199 1_455
Co5 O3 1.879828 1_555
Co5 O1 1.879828 1_555
Co5 O9 1.879828 1_554
Co5 O0 1.879828 1_554
Co5 O4 1.971103 1_554
Co5 O6 1.971103 1_555
Co6 O11 1.798138 1_555
Co6 O8 1.878907 1_455
Co6 O7 1.878907 1_545
Co6 O2 1.891922 1_555
Co6 O10 1.891922 1_555
Co6 F3 1.949212 1_555
Co7 O10 1.852641 1_555
Co7 O0 1.853264 1_555
Co7 O4 1.882737 1_545
Co7 O5 1.902604 1_555
Co7 F2 2.010743 1_555
Co7 F3 2.026204 1_655
