# generated using pymatgen
data_K6YO4
_symmetry_space_group_name_H-M   'P 1'
_cell_length_a   9.39526684
_cell_length_b   9.39526684
_cell_length_c   6.71466100
_cell_angle_alpha   90.00000000
_cell_angle_beta   90.00000000
_cell_angle_gamma   120.00000591
_symmetry_Int_Tables_number   1
_chemical_formula_structural   K6YO4
_chemical_formula_sum   'K12 Y2 O8'
_cell_volume   513.30197558
_cell_formula_units_Z   2
loop_
 _symmetry_equiv_pos_site_id
 _symmetry_equiv_pos_as_xyz
  1  'x, y, z'
loop_
 _atom_site_type_symbol
 _atom_site_label
 _atom_site_symmetry_multiplicity
 _atom_site_fract_x
 _atom_site_fract_y
 _atom_site_fract_z
 _atom_site_occupancy
  K  K0  1  0.13220700  0.86779300  0.99510300  1
  K  K1  1  0.08384700  0.54192300  0.31374600  1
  K  K2  1  0.45807700  0.91615300  0.31374600  1
  K  K3  1  0.13220700  0.26441300  0.99510300  1
  K  K4  1  0.45807700  0.54192300  0.31374600  1
  K  K5  1  0.26441300  0.13220700  0.49510300  1
  K  K6  1  0.73558700  0.86779300  0.99510300  1
  K  K7  1  0.54192300  0.45807700  0.81374600  1
  K  K8  1  0.54192300  0.08384700  0.81374600  1
  K  K9  1  0.86779300  0.73558700  0.49510300  1
  K  K10  1  0.91615300  0.45807700  0.81374600  1
  K  K11  1  0.86779300  0.13220700  0.49510300  1
  Y  Y0  1  0.33333300  0.66666700  0.73082200  1
  Y  Y1  1  0.66666700  0.33333300  0.23082200  1
  O  O0  1  0.20944800  0.79055200  0.61169700  1
  O  O1  1  0.33333300  0.66666700  0.05365200  1
  O  O2  1  0.20944800  0.41889600  0.61169700  1
  O  O3  1  0.58110400  0.79055200  0.61169700  1
  O  O4  1  0.41889600  0.20944800  0.11169700  1
  O  O5  1  0.79055200  0.58110400  0.11169700  1
  O  O6  1  0.66666700  0.33333300  0.55365200  1
  O  O7  1  0.79055200  0.20944800  0.11169700  1
loop_
_geom_bond_atom_site_label_1
_geom_bond_atom_site_label_2
_geom_bond_distance
_geom_bond_site_symmetry_2
K0 O0 2.864903 1_555
K0 O5 3.086364 1_456
K0 O4 3.086364 1_566
K0 O1 3.296466 1_556
K1 O1 2.677830 1_555
K1 O2 2.845193 1_555
K1 O0 2.845198 1_555
K1 O7 3.253261 1_455
K1 O5 3.253266 1_455
K2 O1 2.677830 1_555
K2 O3 2.845193 1_555
K2 O0 2.845198 1_555
K2 O7 3.253261 1_565
K2 O4 3.253266 1_565
K3 O2 2.864906 1_555
K3 O4 3.086358 1_556
K3 O7 3.086367 1_456
K3 O1 3.296482 1_556
K4 O1 2.677842 1_555
K4 O2 2.845198 1_555
K4 O3 2.845198 1_555
K4 O5 3.253258 1_555
K4 O4 3.253258 1_555
K5 O4 2.864906 1_555
K5 O2 3.086358 1_555
K5 O0 3.086367 1_545
K5 O6 3.296482 1_555
K6 O3 2.864906 1_555
K6 O5 3.086358 1_556
K6 O7 3.086367 1_566
K6 O1 3.296482 1_556
K7 O6 2.677842 1_555
K7 O5 2.845198 1_556
K7 O4 2.845198 1_556
K7 O2 3.253258 1_555
K7 O3 3.253258 1_555
K8 O6 2.677830 1_555
K8 O4 2.845193 1_556
K8 O7 2.845198 1_556
K8 O0 3.253261 1_545
K8 O3 3.253266 1_545
K9 O5 2.864906 1_555
K9 O3 3.086358 1_555
K9 O0 3.086367 1_655
K9 O6 3.296482 1_555
K10 O6 2.677830 1_555
K10 O5 2.845193 1_556
K10 O7 2.845198 1_556
K10 O0 3.253261 1_655
K10 O2 3.253266 1_655
K11 O7 2.864903 1_555
K11 O2 3.086364 1_655
K11 O3 3.086364 1_545
K11 O6 3.296466 1_555
O0 Y0 2.168878 1_555
O1 Y0 2.167694 1_554
O2 Y0 2.168885 1_555
O3 Y0 2.168885 1_555
O4 Y1 2.168885 1_555
O5 Y1 2.168885 1_555
O6 Y1 2.167694 1_555
O7 Y1 2.168878 1_555
