# generated using pymatgen
data_K2RuN3Cl3O5
_symmetry_space_group_name_H-M   'P 1'
_cell_length_a   7.19459800
_cell_length_b   7.68874830
_cell_length_c   10.46708354
_cell_angle_alpha   90.40703383
_cell_angle_beta   102.11787025
_cell_angle_gamma   90.53827352
_symmetry_Int_Tables_number   1
_chemical_formula_structural   K2RuN3Cl3O5
_chemical_formula_sum   'K4 Ru2 N6 Cl6 O10'
_cell_volume   566.06136305
_cell_formula_units_Z   2
loop_
 _symmetry_equiv_pos_site_id
 _symmetry_equiv_pos_as_xyz
  1  'x, y, z'
loop_
 _atom_site_type_symbol
 _atom_site_label
 _atom_site_symmetry_multiplicity
 _atom_site_fract_x
 _atom_site_fract_y
 _atom_site_fract_z
 _atom_site_occupancy
  K  K0  1  0.76730000  0.74508000  0.01782300  1
  K  K1  1  0.62154400  0.24854100  0.63664100  1
  K  K2  1  0.37497900  0.74822600  0.36279800  1
  K  K3  1  0.22735500  0.25229400  0.98181100  1
  Ru  Ru0  1  0.13256400  0.75707900  0.74299300  1
  Ru  Ru1  1  0.86586800  0.24923800  0.26252300  1
  N  N0  1  0.31004400  0.94635200  0.69664700  1
  N  N1  1  0.67736700  0.42890300  0.29804500  1
  N  N2  1  0.99043900  0.25657200  0.43045800  1
  N  N3  1  0.32679700  0.57226800  0.70664900  1
  N  N4  1  0.69114800  0.04984300  0.30705300  1
  N  N5  1  0.01502500  0.73909200  0.57566800  1
  Cl  Cl0  1  0.09478200  0.02981500  0.20761700  1
  Cl  Cl1  1  0.28831100  0.77295100  0.95967900  1
  Cl  Cl2  1  0.91794600  0.97547000  0.79452300  1
  Cl  Cl3  1  0.07701000  0.47994500  0.20053600  1
  Cl  Cl4  1  0.70489800  0.23623300  0.04023200  1
  Cl  Cl5  1  0.93466200  0.52148700  0.79817800  1
  O  O0  1  0.60009400  0.53117900  0.20243700  1
  O  O1  1  0.64270000  0.44279100  0.41113000  1
  O  O2  1  0.35083900  0.96141100  0.58633200  1
  O  O3  1  0.36246500  0.55123400  0.59632300  1
  O  O4  1  0.64875700  0.03881000  0.41316700  1
  O  O5  1  0.04848900  0.25772800  0.53824400  1
  O  O6  1  0.37467800  0.07332800  0.77835700  1
  O  O7  1  0.40240400  0.46212300  0.79627600  1
  O  O8  1  0.94959600  0.73862300  0.45958500  1
  O  O9  1  0.62934500  0.93665400  0.21732400  1
loop_
_geom_bond_atom_site_label_1
_geom_bond_atom_site_label_2
_geom_bond_distance
_geom_bond_site_symmetry_2
K0 O9 2.892963 1_555
K0 O0 2.978252 1_555
K1 O1 2.832345 1_555
K1 O4 2.873119 1_555
K1 O6 2.873899 1_555
K1 O2 2.901104 1_545
K1 O3 2.972229 1_555
K1 O7 3.014987 1_555
K2 O2 2.883191 1_555
K2 O3 2.901611 1_555
K2 O4 2.934981 1_565
K2 O9 2.986324 1_555
K2 O1 3.028823 1_555
K2 O0 3.062329 1_555
K3 O6 2.912972 1_555
K3 O7 2.998919 1_555
N0 O2 1.255538 1_555
N0 O6 1.309000 1_565
N0 Ru0 2.053971 1_555
N1 O1 1.263859 1_555
N1 O0 1.309484 1_555
N1 Ru1 2.031099 1_555
N2 O5 1.117727 1_655
N2 Ru1 1.797905 1_555
N3 O3 1.244224 1_555
N3 O7 1.303412 1_555
N3 Ru0 2.090331 1_555
N4 O4 1.215299 1_555
N4 O9 1.281789 1_545
N4 Ru1 2.089909 1_555
N5 O8 1.207361 1_455
N5 Ru0 1.781629 1_555
Cl0 Ru1 2.514915 1_455
Cl0 K2 3.185425 1_545
Cl0 K3 3.224190 1_554
Cl0 K0 3.488086 1_445
Cl1 Ru0 2.311085 1_555
Cl1 K0 3.380433 1_556
Cl2 Ru0 2.424912 1_655
Cl2 K1 3.215673 1_565
Cl2 K0 3.295740 1_556
Cl2 K3 3.368701 1_665
Cl3 Ru1 2.500930 1_455
Cl3 K2 3.173914 1_555
Cl3 K3 3.239367 1_554
Cl3 K0 3.336150 1_455
Cl4 Ru1 2.372367 1_555
Cl4 K3 3.364579 1_554
Cl5 Ru0 2.440048 1_655
Cl5 K1 3.255691 1_555
Cl5 K0 3.291797 1_556
Cl5 K3 3.294215 1_655
