# generated using pymatgen
data_Li3V2(O2F)2
_symmetry_space_group_name_H-M   'P 1'
_cell_length_a   5.95273500
_cell_length_b   5.97683390
_cell_length_c   15.16973261
_cell_angle_alpha   79.61718843
_cell_angle_beta   84.83302882
_cell_angle_gamma   60.73772651
_symmetry_Int_Tables_number   1
_chemical_formula_structural   Li3V2(O2F)2
_chemical_formula_sum   'Li12 V8 O16 F8'
_cell_volume   463.13294379
_cell_formula_units_Z   4
loop_
 _symmetry_equiv_pos_site_id
 _symmetry_equiv_pos_as_xyz
  1  'x, y, z'
loop_
 _atom_site_type_symbol
 _atom_site_label
 _atom_site_symmetry_multiplicity
 _atom_site_fract_x
 _atom_site_fract_y
 _atom_site_fract_z
 _atom_site_occupancy
  Li  Li0  1  0.14096700  0.79521000  0.83572000  1
  Li  Li1  1  0.71067700  0.21598800  0.83634400  1
  Li  Li2  1  0.32984400  0.46647100  0.71263200  1
  Li  Li3  1  0.16599800  0.50093000  0.33626000  1
  Li  Li4  1  0.47551300  0.02287000  0.95632600  1
  Li  Li5  1  0.67307800  0.76083300  0.82422400  1
  Li  Li6  1  0.66508300  0.01098700  0.33346800  1
  Li  Li7  1  0.00078100  0.49711200  0.95453400  1
  Li  Li8  1  0.33033700  0.99876000  0.70050800  1
  Li  Li9  1  0.15083200  0.01347800  0.33339700  1
  Li  Li10  1  0.50281100  0.51474700  0.97390200  1
  Li  Li11  1  0.85575700  0.46683400  0.70453300  1
  V  V0  1  0.50271500  0.25432300  0.50304700  1
  V  V1  1  0.99905300  0.75322700  0.50749600  1
  V  V2  1  0.33109300  0.25211700  0.16490900  1
  V  V3  1  0.50165000  0.75141400  0.49134600  1
  V  V4  1  0.83320800  0.74770100  0.16798400  1
  V  V5  1  0.00117900  0.25174000  0.49785500  1
  V  V6  1  0.33590500  0.74969400  0.16993900  1
  V  V7  1  0.83036000  0.24991300  0.16668900  1
  O  O0  1  0.31789000  0.61664800  0.42767000  1
  O  O1  1  0.17902700  0.59291600  0.10350500  1
  O  O2  1  0.17050800  0.38459200  0.57015500  1
  O  O3  1  0.50398600  0.37252600  0.24059600  1
  O  O4  1  0.83364100  0.10377600  0.42853100  1
  O  O5  1  0.65693800  0.89212600  0.56362200  1
  O  O6  1  0.67197800  0.12471400  0.10071200  1
  O  O7  1  0.99804200  0.88343900  0.24369600  1
  O  O8  1  0.33518400  0.13169800  0.42254200  1
  O  O9  1  0.16092000  0.11957300  0.10078100  1
  O  O10  1  0.16895400  0.87810600  0.56396400  1
  O  O11  1  0.48891700  0.91005400  0.23961300  1
  O  O12  1  0.84905100  0.62432400  0.42844000  1
  O  O13  1  0.65776100  0.38187500  0.56349500  1
  O  O14  1  0.66827300  0.60786300  0.10218600  1
  O  O15  1  0.00458800  0.36789700  0.24004500  1
  F  F0  1  0.34054300  0.37417300  0.92401400  1
  F  F1  1  0.50837000  0.12026800  0.75425300  1
  F  F2  1  0.82226400  0.86396800  0.91081000  1
  F  F3  1  0.99867300  0.63161700  0.75110000  1
  F  F4  1  0.35151100  0.84546300  0.91202700  1
  F  F5  1  0.50487700  0.63097800  0.74474400  1
  F  F6  1  0.80156700  0.39700000  0.90878800  1
  F  F7  1  0.00302800  0.12005700  0.75026600  1
loop_
_geom_bond_atom_site_label_1
_geom_bond_atom_site_label_2
_geom_bond_distance
_geom_bond_site_symmetry_2
Li3 O0 2.097996 1_555
Li3 O12 2.143630 1_455
Li3 O8 2.149665 1_555
Li3 O7 2.249256 1_455
Li3 O15 2.259088 1_555
Li3 O3 2.260297 1_555
Li6 O4 2.118214 1_555
Li6 O11 2.165105 1_545
Li6 O8 2.165915 1_555
Li6 O3 2.166561 1_555
Li6 O7 2.185176 1_545
Li6 O12 2.285956 1_545
Li9 O7 2.139652 1_445
Li9 O15 2.142066 1_555
Li9 O4 2.175505 1_455
Li9 O8 2.214052 1_555
Li9 O11 2.245325 1_545
Li9 O0 2.321036 1_545
Li10 O14 2.517623 1_556
Li10 O1 2.562558 1_556
Li10 O6 2.566412 1_556
O0 V3 2.027445 1_555
O0 V1 2.040260 1_455
O0 V0 2.052410 1_555
O1 V2 1.871217 1_555
O1 V6 2.032514 1_555
O1 V4 2.037642 1_455
O2 V0 1.992756 1_555
O2 V1 2.005256 1_455
O2 V5 2.035897 1_555
O3 V7 2.020022 1_555
O3 V2 2.032278 1_555
O3 V6 2.085403 1_555
O4 V1 2.021181 1_545
O4 V0 2.049553 1_555
O4 V5 2.066154 1_655
O5 V1 1.962436 1_555
O5 V0 1.966101 1_565
O5 V3 2.009687 1_555
O6 V7 1.892128 1_555
O6 V2 2.011626 1_555
O6 V4 2.067221 1_545
O7 V4 2.063286 1_555
O7 V6 2.069103 1_655
O7 V7 2.075803 1_565
O8 V5 2.065157 1_555
O8 V0 2.068733 1_555
O8 V3 2.089668 1_545
O9 V2 1.959561 1_555
O9 V7 1.976427 1_455
O9 V6 2.045116 1_545
O10 V1 1.854241 1_455
O10 V3 2.037333 1_555
O10 V5 2.045217 1_565
O11 V2 1.955907 1_565
O11 V6 2.063334 1_555
O11 V4 2.087427 1_555
O12 V1 2.006874 1_555
O12 V3 2.033306 1_555
O12 V5 2.059836 1_655
O13 V0 1.834708 1_555
O13 V5 2.033129 1_655
O13 V3 2.060344 1_555
O14 V7 1.965435 1_555
O14 V4 1.984493 1_555
O14 V6 1.999390 1_555
O15 V7 2.004226 1_455
O15 V2 2.031252 1_555
O15 V4 2.105037 1_455
F0 Li4 1.828986 1_555
F0 Li7 1.829189 1_555
F0 Li10 1.834649 1_555
F0 Li1 2.325103 1_555
F0 Li0 2.384741 1_555
F1 Li2 1.819281 1_555
F1 Li8 1.853843 1_545
F1 Li5 2.002361 1_545
F1 Li1 2.128104 1_555
F2 Li7 1.923984 1_655
F2 Li4 1.924187 1_565
F2 Li5 1.982672 1_555
F2 Li1 2.013991 1_565
F2 Li0 2.020622 1_655
F3 Li2 1.816379 1_655
F3 Li11 1.836003 1_555
F3 Li5 2.010391 1_555
F3 Li0 2.186141 1_655
F4 Li4 1.797806 1_565
F4 Li10 1.828220 1_555
F4 Li0 1.937933 1_555
F4 Li5 2.128652 1_555
F5 Li2 1.885531 1_555
F5 Li11 1.918377 1_555
F5 Li8 1.929482 1_555
F5 Li5 2.091172 1_555
F5 Li0 2.330633 1_555
F5 Li1 2.382733 1_555
F6 Li7 1.799295 1_655
F6 Li10 1.828746 1_555
F6 Li1 1.943909 1_555
F6 Li5 2.122403 1_555
F7 Li11 1.833182 1_455
F7 Li8 1.855526 1_545
F7 Li0 1.962210 1_545
F7 Li1 1.986828 1_455
