# generated using pymatgen
data_NaCu3O4
_symmetry_space_group_name_H-M   'P 1'
_cell_length_a   5.48126400
_cell_length_b   5.48126400
_cell_length_c   5.48126400
_cell_angle_alpha   90.00000000
_cell_angle_beta   90.00000000
_cell_angle_gamma   90.00000000
_symmetry_Int_Tables_number   1
_chemical_formula_structural   NaCu3O4
_chemical_formula_sum   'Na2 Cu6 O8'
_cell_volume   164.68049354
_cell_formula_units_Z   2
loop_
 _symmetry_equiv_pos_site_id
 _symmetry_equiv_pos_as_xyz
  1  'x, y, z'
loop_
 _atom_site_type_symbol
 _atom_site_label
 _atom_site_symmetry_multiplicity
 _atom_site_fract_x
 _atom_site_fract_y
 _atom_site_fract_z
 _atom_site_occupancy
  Na  Na0  1  0.00000000  0.00000000  0.00000000  1
  Na  Na1  1  0.50000000  0.50000000  0.50000000  1
  Cu  Cu0  1  0.00000000  0.50000000  0.25000000  1
  Cu  Cu1  1  0.00000000  0.50000000  0.75000000  1
  Cu  Cu2  1  0.25000000  0.00000000  0.50000000  1
  Cu  Cu3  1  0.50000000  0.25000000  0.00000000  1
  Cu  Cu4  1  0.50000000  0.75000000  0.00000000  1
  Cu  Cu5  1  0.75000000  0.00000000  0.50000000  1
  O  O0  1  0.25000000  0.25000000  0.25000000  1
  O  O1  1  0.25000000  0.75000000  0.25000000  1
  O  O2  1  0.25000000  0.25000000  0.75000000  1
  O  O3  1  0.25000000  0.75000000  0.75000000  1
  O  O4  1  0.75000000  0.25000000  0.25000000  1
  O  O5  1  0.75000000  0.25000000  0.75000000  1
  O  O6  1  0.75000000  0.75000000  0.25000000  1
  O  O7  1  0.75000000  0.75000000  0.75000000  1
loop_
_geom_bond_atom_site_label_1
_geom_bond_atom_site_label_2
_geom_bond_distance
_geom_bond_site_symmetry_2
Na0 O1 2.373457 1_545
Na0 O0 2.373457 1_555
Na0 O4 2.373457 1_455
Na0 O6 2.373457 1_445
Na0 O5 2.373457 1_454
Na0 O3 2.373457 1_544
Na0 O2 2.373457 1_554
Na0 O7 2.373457 1_444
Na1 O0 2.373457 1_555
Na1 O3 2.373457 1_555
Na1 O6 2.373457 1_555
Na1 O7 2.373457 1_555
Na1 O4 2.373457 1_555
Na1 O1 2.373457 1_555
Na1 O5 2.373457 1_555
Na1 O2 2.373457 1_555
Cu0 O4 1.937919 1_455
Cu0 O1 1.937919 1_555
Cu0 O0 1.937919 1_555
Cu0 O6 1.937919 1_455
Cu1 O2 1.937919 1_555
Cu1 O5 1.937919 1_455
Cu1 O3 1.937919 1_555
Cu1 O7 1.937919 1_455
Cu2 O1 1.937919 1_545
Cu2 O0 1.937919 1_555
Cu2 O2 1.937919 1_555
Cu2 O3 1.937919 1_545
Cu3 O4 1.937919 1_555
Cu3 O0 1.937919 1_555
Cu3 O2 1.937919 1_554
Cu3 O5 1.937919 1_554
Cu4 O6 1.937919 1_555
Cu4 O1 1.937919 1_555
Cu4 O3 1.937919 1_554
Cu4 O7 1.937919 1_554
Cu5 O5 1.937919 1_555
Cu5 O7 1.937919 1_545
Cu5 O6 1.937919 1_545
Cu5 O4 1.937919 1_555
