# generated using pymatgen
data_LiFe2F5
_symmetry_space_group_name_H-M   'P 1'
_cell_length_a   6.60532100
_cell_length_b   8.17437364
_cell_length_c   8.47596056
_cell_angle_alpha   90.31159647
_cell_angle_beta   90.39097622
_cell_angle_gamma   90.33966758
_symmetry_Int_Tables_number   1
_chemical_formula_structural   LiFe2F5
_chemical_formula_sum   'Li4 Fe8 F20'
_cell_volume   457.62851565
_cell_formula_units_Z   4
loop_
 _symmetry_equiv_pos_site_id
 _symmetry_equiv_pos_as_xyz
  1  'x, y, z'
loop_
 _atom_site_type_symbol
 _atom_site_label
 _atom_site_symmetry_multiplicity
 _atom_site_fract_x
 _atom_site_fract_y
 _atom_site_fract_z
 _atom_site_occupancy
  Li  Li0  1  0.24676500  0.17204200  0.68376000  1
  Li  Li1  1  0.24868400  0.32713600  0.18318300  1
  Li  Li2  1  0.75034800  0.67294800  0.81603000  1
  Li  Li3  1  0.75294100  0.82793700  0.31817500  1
  Fe  Fe0  1  0.99909900  0.99957400  0.99894400  1
  Fe  Fe1  1  0.50068500  0.99966200  0.99855100  1
  Fe  Fe2  1  0.74498400  0.11760900  0.65555700  1
  Fe  Fe3  1  0.74671300  0.39385000  0.16207700  1
  Fe  Fe4  1  0.00109100  0.50242800  0.49865000  1
  Fe  Fe5  1  0.49844700  0.50257800  0.49981800  1
  Fe  Fe6  1  0.24919000  0.60751800  0.83804700  1
  Fe  Fe7  1  0.25472200  0.89182600  0.33642000  1
  F  F0  1  0.24273800  0.04131800  0.50759800  1
  F  F1  1  0.00440400  0.12892500  0.79225300  1
  F  F2  1  0.49461400  0.13697100  0.79305200  1
  F  F3  1  0.25355000  0.10874300  0.11194700  1
  F  F4  1  0.75003600  0.15404500  0.08062000  1
  F  F5  1  0.74853100  0.35641200  0.58595700  1
  F  F6  1  0.24881300  0.39148000  0.61401200  1
  F  F7  1  0.49457800  0.36002300  0.29834700  1
  F  F8  1  0.00507600  0.36215000  0.29669600  1
  F  F9  1  0.25491500  0.46209100  0.01148400  1
  F  F10  1  0.75454000  0.53705500  0.98765600  1
  F  F11  1  0.99435600  0.63908000  0.70236300  1
  F  F12  1  0.50437800  0.63750700  0.70467500  1
  F  F13  1  0.74953500  0.60770200  0.38410000  1
  F  F14  1  0.25115400  0.65285600  0.41814400  1
  F  F15  1  0.24949800  0.84659700  0.91975500  1
  F  F16  1  0.74658300  0.88650100  0.89412900  1
  F  F17  1  0.99368900  0.86639900  0.20396400  1
  F  F18  1  0.50653900  0.86017000  0.20308300  1
  F  F19  1  0.75880200  0.94886700  0.50095200  1
loop_
_geom_bond_atom_site_label_1
_geom_bond_atom_site_label_2
_geom_bond_distance
_geom_bond_site_symmetry_2
F0 Li0 1.831345 1_555
F0 Fe7 1.894226 1_545
F1 Li0 1.884031 1_555
F1 Fe0 2.051576 1_445
F1 Fe2 2.063274 1_455
F2 Li0 1.899538 1_555
F2 Fe2 2.036070 1_555
F2 Fe1 2.077532 1_545
F3 Li1 1.881981 1_555
F3 Fe1 2.100705 1_544
F3 Fe0 2.118858 1_444
F4 Fe3 2.075035 1_555
F4 Fe1 2.177018 1_544
F4 Fe0 2.193360 1_544
F5 Fe2 2.042374 1_555
F5 Fe5 2.169286 1_555
F5 Fe4 2.181317 1_655
F6 Li0 1.891729 1_555
F6 Fe4 2.112215 1_555
F6 Fe5 2.119926 1_555
F6 Fe6 2.586107 1_555
F7 Li1 1.906168 1_555
F7 Fe3 2.051453 1_555
F7 Fe5 2.062058 1_555
F8 Li1 1.902746 1_555
F8 Fe4 2.055555 1_555
F8 Fe3 2.064789 1_455
F9 Li1 1.831492 1_555
F9 Fe6 1.895898 1_554
F10 Li2 1.835282 1_555
F10 Fe3 1.891501 1_556
F11 Li2 1.904253 1_555
F11 Fe6 2.050489 1_655
F11 Fe4 2.052265 1_655
F12 Li2 1.893401 1_555
F12 Fe6 2.050216 1_555
F12 Fe5 2.052006 1_555
F13 Li3 1.887959 1_555
F13 Fe4 2.109075 1_655
F13 Fe5 2.113195 1_555
F13 Fe3 2.561438 1_555
F14 Fe7 2.076212 1_555
F14 Fe5 2.161952 1_555
F14 Fe4 2.169416 1_555
F15 Fe6 2.069835 1_555
F15 Fe1 2.171544 1_555
F15 Fe0 2.186410 1_455
F16 Li2 1.863953 1_555
F16 Fe1 2.075016 1_555
F16 Fe0 2.092420 1_555
F17 Li3 1.892921 1_555
F17 Fe0 2.055987 1_554
F17 Fe7 2.059933 1_655
F18 Li3 1.912127 1_555
F18 Fe7 2.034323 1_555
F18 Fe1 2.080429 1_554
F19 Li3 1.833251 1_555
F19 Fe2 1.900433 1_565
