# generated using pymatgen
data_Fe4OF7
_symmetry_space_group_name_H-M   'P 1'
_cell_length_a   5.81029835
_cell_length_b   5.81029835
_cell_length_c   9.37469476
_cell_angle_alpha   86.00083012
_cell_angle_beta   86.00083012
_cell_angle_gamma   72.13953559
_symmetry_Int_Tables_number   1
_chemical_formula_structural   Fe4OF7
_chemical_formula_sum   'Fe8 O2 F14'
_cell_volume   300.10962999
_cell_formula_units_Z   2
loop_
 _symmetry_equiv_pos_site_id
 _symmetry_equiv_pos_as_xyz
  1  'x, y, z'
loop_
 _atom_site_type_symbol
 _atom_site_label
 _atom_site_symmetry_multiplicity
 _atom_site_fract_x
 _atom_site_fract_y
 _atom_site_fract_z
 _atom_site_occupancy
  Fe  Fe0  1  0.64348500  0.12710900  0.36487300  1
  Fe  Fe1  1  0.35651500  0.87289100  0.63512700  1
  Fe  Fe2  1  0.22954100  0.77045900  0.25000000  1
  Fe  Fe3  1  0.50000000  0.00000000  0.00000000  1
  Fe  Fe4  1  0.00000000  0.50000000  0.50000000  1
  Fe  Fe5  1  0.12710900  0.64348500  0.86487300  1
  Fe  Fe6  1  0.87289100  0.35651500  0.13512700  1
  Fe  Fe7  1  0.77045900  0.22954100  0.75000000  1
  O  O0  1  0.94548600  0.05451400  0.25000000  1
  O  O1  1  0.05451400  0.94548600  0.75000000  1
  F  F0  1  0.69108500  0.80828300  0.50188200  1
  F  F1  1  0.53414000  0.46586000  0.25000000  1
  F  F2  1  0.30891500  0.19171700  0.49811800  1
  F  F3  1  0.71561700  0.23649200  0.98090800  1
  F  F4  1  0.47983600  0.98172100  0.22620000  1
  F  F5  1  0.23649200  0.71561700  0.48090800  1
  F  F6  1  0.98172100  0.47983600  0.72620000  1
  F  F7  1  0.28438300  0.76350800  0.01909200  1
  F  F8  1  0.52016400  0.01827900  0.77380000  1
  F  F9  1  0.01827900  0.52016400  0.27380000  1
  F  F10  1  0.76350800  0.28438300  0.51909200  1
  F  F11  1  0.19171700  0.30891500  0.99811800  1
  F  F12  1  0.46586000  0.53414000  0.75000000  1
  F  F13  1  0.80828300  0.69108500  0.00188200  1
loop_
_geom_bond_atom_site_label_1
_geom_bond_atom_site_label_2
_geom_bond_distance
_geom_bond_site_symmetry_2
Fe0 O0 1.939700 1_555
Fe1 O1 1.939700 1_555
Fe2 O0 1.943464 1_465
Fe5 O1 1.939700 1_555
Fe6 O0 1.939700 1_555
Fe7 O1 1.943464 1_645
F0 Fe4 2.111464 1_655
F0 Fe0 2.135715 1_565
F0 Fe1 2.181576 1_555
F1 Fe2 2.084023 1_555
F1 Fe6 2.114256 1_555
F1 Fe0 2.114256 1_555
F2 Fe4 2.111464 1_555
F2 Fe1 2.135715 1_545
F2 Fe0 2.181576 1_555
F3 Fe6 2.031597 1_556
F3 Fe3 2.116606 1_556
F3 Fe7 2.167290 1_555
F4 Fe0 2.031270 1_565
F4 Fe3 2.112659 1_565
F4 Fe2 2.164029 1_555
F5 Fe1 2.031597 1_555
F5 Fe4 2.116606 1_555
F5 Fe2 2.167290 1_555
F6 Fe5 2.031270 1_655
F6 Fe4 2.112659 1_655
F6 Fe7 2.164029 1_555
F7 Fe5 2.031597 1_554
F7 Fe3 2.116606 1_565
F7 Fe2 2.167290 1_555
F8 Fe1 2.031270 1_545
F8 Fe3 2.112659 1_556
F8 Fe7 2.164029 1_555
F9 Fe6 2.031270 1_455
F9 Fe4 2.112659 1_555
F9 Fe2 2.164029 1_555
F10 Fe0 2.031597 1_555
F10 Fe4 2.116606 1_655
F10 Fe7 2.167290 1_555
F11 Fe3 2.111464 1_556
F11 Fe6 2.135715 1_456
F11 Fe5 2.181576 1_555
F12 Fe7 2.084023 1_555
F12 Fe1 2.114256 1_555
F12 Fe5 2.114256 1_555
F13 Fe3 2.111464 1_565
F13 Fe5 2.135715 1_654
F13 Fe6 2.181576 1_555
