# generated using pymatgen
data_Fe5P3O13
_symmetry_space_group_name_H-M   'P 1'
_cell_length_a   6.23575300
_cell_length_b   8.53432577
_cell_length_c   9.63921886
_cell_angle_alpha   94.88989743
_cell_angle_beta   90.61407138
_cell_angle_gamma   90.02436354
_symmetry_Int_Tables_number   1
_chemical_formula_structural   Fe5P3O13
_chemical_formula_sum   'Fe10 P6 O26'
_cell_volume   511.08255749
_cell_formula_units_Z   2
loop_
 _symmetry_equiv_pos_site_id
 _symmetry_equiv_pos_as_xyz
  1  'x, y, z'
loop_
 _atom_site_type_symbol
 _atom_site_label
 _atom_site_symmetry_multiplicity
 _atom_site_fract_x
 _atom_site_fract_y
 _atom_site_fract_z
 _atom_site_occupancy
  Fe  Fe0  1  0.99489000  0.12576500  0.77274500  1
  Fe  Fe1  1  0.25289900  0.83457200  0.89825000  1
  Fe  Fe2  1  0.24989400  0.76135800  0.55961800  1
  Fe  Fe3  1  0.24648500  0.58270000  0.12025700  1
  Fe  Fe4  1  0.51672500  0.12491800  0.76917100  1
  Fe  Fe5  1  0.48327500  0.87508200  0.23082900  1
  Fe  Fe6  1  0.75351500  0.41730000  0.87974300  1
  Fe  Fe7  1  0.75010600  0.23864200  0.44038200  1
  Fe  Fe8  1  0.74710100  0.16542800  0.10175000  1
  Fe  Fe9  1  0.00511000  0.87423500  0.22725500  1
  P  P0  1  0.25548100  0.47201900  0.76337600  1
  P  P1  1  0.24785900  0.10834900  0.48021700  1
  P  P2  1  0.24801400  0.17659700  0.08695100  1
  P  P3  1  0.75198600  0.82340300  0.91304900  1
  P  P4  1  0.75214100  0.89165100  0.51978300  1
  P  P5  1  0.74451900  0.52798100  0.23662400  1
  O  O0  1  0.04896700  0.36751900  0.77065000  1
  O  O1  1  0.05171000  0.20896900  0.45507400  1
  O  O2  1  0.04466000  0.10717400  0.15331100  1
  O  O3  1  0.25232600  0.11705200  0.92805500  1
  O  O4  1  0.24749800  0.05479400  0.63429600  1
  O  O5  1  0.25765200  0.59342500  0.89457200  1
  O  O6  1  0.25705200  0.55622200  0.63029800  1
  O  O7  1  0.24299600  0.81355300  0.09613200  1
  O  O8  1  0.24225000  0.94923000  0.38176200  1
  O  O9  1  0.24446500  0.35429200  0.10958500  1
  O  O10  1  0.45230300  0.19952600  0.45989100  1
  O  O11  1  0.46043800  0.36562700  0.77253900  1
  O  O12  1  0.45216400  0.10858900  0.15688300  1
  O  O13  1  0.54783600  0.89141100  0.84311700  1
  O  O14  1  0.53956200  0.63437300  0.22746100  1
  O  O15  1  0.54769700  0.80047400  0.54010900  1
  O  O16  1  0.75553500  0.64570800  0.89041500  1
  O  O17  1  0.75775000  0.05077000  0.61823800  1
  O  O18  1  0.75700400  0.18644700  0.90386800  1
  O  O19  1  0.74294800  0.44377800  0.36970200  1
  O  O20  1  0.74234800  0.40657500  0.10542800  1
  O  O21  1  0.75250200  0.94520600  0.36570400  1
  O  O22  1  0.74767400  0.88294800  0.07194500  1
  O  O23  1  0.95534000  0.89282600  0.84668900  1
  O  O24  1  0.94829000  0.79103100  0.54492600  1
  O  O25  1  0.95103300  0.63248100  0.22935000  1
loop_
_geom_bond_atom_site_label_1
_geom_bond_atom_site_label_2
_geom_bond_distance
_geom_bond_site_symmetry_2
Fe0 O18 1.998855 1_555
Fe0 O0 2.092272 1_655
Fe0 O4 2.130066 1_655
Fe0 O17 2.145672 1_555
Fe0 O23 2.183077 1_545
Fe0 O3 2.188908 1_655
Fe1 O7 1.932646 1_556
Fe1 O23 1.990031 1_455
Fe1 O13 1.991070 1_555
Fe1 O5 2.055540 1_555
Fe1 O3 2.403403 1_565
Fe2 O15 1.900792 1_555
Fe2 O24 1.903191 1_455
Fe2 O6 1.932320 1_555
Fe2 O8 2.445223 1_555
Fe2 O4 2.546122 1_565
Fe3 O9 1.943273 1_555
Fe3 O7 2.003541 1_555
Fe3 O14 2.117409 1_555
Fe3 O25 2.155606 1_455
Fe3 O5 2.186984 1_554
Fe4 O18 2.011934 1_555
Fe4 O11 2.081788 1_555
Fe4 O17 2.160267 1_555
Fe4 O4 2.164852 1_555
Fe4 O13 2.180956 1_545
Fe4 O3 2.267137 1_555
Fe5 O7 2.011934 1_555
Fe5 O14 2.081788 1_555
Fe5 O8 2.160267 1_555
Fe5 O21 2.164852 1_555
Fe5 O12 2.180956 1_565
Fe5 O22 2.267137 1_555
Fe6 O16 1.943273 1_555
Fe6 O18 2.003541 1_555
Fe6 O11 2.117409 1_555
Fe6 O0 2.155606 1_655
Fe6 O20 2.186984 1_556
Fe7 O10 1.900792 1_555
Fe7 O1 1.903191 1_655
Fe7 O19 1.932320 1_555
Fe7 O17 2.445223 1_555
Fe7 O21 2.546122 1_545
Fe8 O18 1.932646 1_554
Fe8 O2 1.990031 1_655
Fe8 O12 1.991070 1_555
Fe8 O20 2.055540 1_555
Fe8 O22 2.403403 1_545
Fe9 O7 1.998855 1_555
Fe9 O25 2.092272 1_455
Fe9 O21 2.130066 1_455
Fe9 O8 2.145672 1_555
Fe9 O2 2.183077 1_565
Fe9 O22 2.188908 1_455
O0 P0 1.571706 1_555
O1 P1 1.523886 1_555
O2 P2 1.565101 1_555
O3 P2 1.572599 1_556
O4 P1 1.590763 1_555
O5 P0 1.565006 1_555
O6 P0 1.522963 1_555
O8 P1 1.589185 1_565
O9 P2 1.513806 1_555
O10 P1 1.516462 1_555
O11 P0 1.574140 1_555
O12 P2 1.568694 1_555
O13 P3 1.568694 1_555
O14 P5 1.574140 1_555
O15 P4 1.516462 1_555
O16 P3 1.513806 1_555
O17 P4 1.589185 1_545
O19 P5 1.522963 1_555
O20 P5 1.565006 1_555
O21 P4 1.590763 1_555
O22 P3 1.572599 1_554
O23 P3 1.565101 1_555
O24 P4 1.523886 1_555
O25 P5 1.571706 1_555
