# generated using pymatgen
data_LiSn(PO3)4
_symmetry_space_group_name_H-M   'P 1'
_cell_length_a   13.09495700
_cell_length_b   7.18278600
_cell_length_c   11.93405089
_cell_angle_alpha   54.01444369
_cell_angle_beta   90.00000000
_cell_angle_gamma   90.00000000
_symmetry_Int_Tables_number   1
_chemical_formula_structural   LiSn(PO3)4
_chemical_formula_sum   'Li4 Sn4 P16 O48'
_cell_volume   908.28481992
_cell_formula_units_Z   4
loop_
 _symmetry_equiv_pos_site_id
 _symmetry_equiv_pos_as_xyz
  1  'x, y, z'
loop_
 _atom_site_type_symbol
 _atom_site_label
 _atom_site_symmetry_multiplicity
 _atom_site_fract_x
 _atom_site_fract_y
 _atom_site_fract_z
 _atom_site_occupancy
  Li  Li0  1  0.21845300  0.56995500  0.94239500  1
  Li  Li1  1  0.71845300  0.43004500  0.55760500  1
  Li  Li2  1  0.28154700  0.56995500  0.44239500  1
  Li  Li3  1  0.78154700  0.43004500  0.05760500  1
  Sn  Sn0  1  0.78241400  0.03135900  0.97906400  1
  Sn  Sn1  1  0.28241400  0.96864100  0.52093600  1
  Sn  Sn2  1  0.71758600  0.03135900  0.47906400  1
  Sn  Sn3  1  0.21758600  0.96864100  0.02093600  1
  P  P0  1  0.62933300  0.83634600  0.80760700  1
  P  P1  1  0.40770600  0.92321200  0.80011000  1
  P  P2  1  0.88384800  0.61491000  0.76693000  1
  P  P3  1  0.10303200  0.49581800  0.76081300  1
  P  P4  1  0.60303200  0.50418200  0.73918700  1
  P  P5  1  0.38384800  0.38509000  0.73307000  1
  P  P6  1  0.90770600  0.07678800  0.69989000  1
  P  P7  1  0.12933300  0.16365400  0.69239300  1
  P  P8  1  0.87066700  0.83634600  0.30760700  1
  P  P9  1  0.09229400  0.92321200  0.30011000  1
  P  P10  1  0.61615200  0.61491000  0.26693000  1
  P  P11  1  0.39696800  0.49581800  0.26081300  1
  P  P12  1  0.89696800  0.50418200  0.23918700  1
  P  P13  1  0.11615200  0.38509000  0.23307000  1
  P  P14  1  0.59229400  0.07678800  0.19989000  1
  P  P15  1  0.37066700  0.16365400  0.19239300  1
  O  O0  1  0.33352900  0.82757000  0.91774000  1
  O  O1  1  0.10961800  0.30659300  0.91444000  1
  O  O2  1  0.85083500  0.40631800  0.90728100  1
  O  O3  1  0.71331900  0.80794800  0.90224600  1
  O  O4  1  0.52091800  0.84491200  0.86875600  1
  O  O5  1  0.30861200  0.28554200  0.84898900  1
  O  O6  1  0.13358500  0.97264500  0.84572500  1
  O  O7  1  0.62627600  0.59044800  0.83311600  1
  O  O8  1  0.66778300  0.29488600  0.78794000  1
  O  O9  1  0.48683700  0.42438000  0.78806000  1
  O  O10  1  0.91782500  0.80155600  0.79288400  1
  O  O11  1  0.89069100  0.14335900  0.79724300  1
  O  O12  1  0.39069100  0.85664100  0.70275700  1
  O  O13  1  0.98683700  0.57562000  0.71194000  1
  O  O14  1  0.41782500  0.19844400  0.70711600  1
  O  O15  1  0.16778300  0.70511400  0.71206000  1
  O  O16  1  0.12627600  0.40955200  0.66688400  1
  O  O17  1  0.63358500  0.02735500  0.65427500  1
  O  O18  1  0.80861200  0.71445800  0.65101100  1
  O  O19  1  0.02091800  0.15508800  0.63124400  1
  O  O20  1  0.35083500  0.59368200  0.59271900  1
  O  O21  1  0.21331900  0.19205200  0.59775400  1
  O  O22  1  0.60961800  0.69340700  0.58556000  1
  O  O23  1  0.83352900  0.17243000  0.58226000  1
  O  O24  1  0.16647100  0.82757000  0.41774000  1
  O  O25  1  0.39038200  0.30659300  0.41444000  1
  O  O26  1  0.78668100  0.80794800  0.40224600  1
  O  O27  1  0.64916500  0.40631800  0.40728100  1
  O  O28  1  0.97908200  0.84491200  0.36875600  1
  O  O29  1  0.19138800  0.28554200  0.34898900  1
  O  O30  1  0.36641500  0.97264500  0.34572500  1
  O  O31  1  0.87372400  0.59044800  0.33311600  1
  O  O32  1  0.83221700  0.29488600  0.28794000  1
  O  O33  1  0.58217500  0.80155600  0.29288400  1
  O  O34  1  0.01316300  0.42438000  0.28806000  1
  O  O35  1  0.60930900  0.14335900  0.29724300  1
  O  O36  1  0.10930900  0.85664100  0.20275700  1
  O  O37  1  0.08217500  0.19844400  0.20711600  1
  O  O38  1  0.51316300  0.57562000  0.21194000  1
  O  O39  1  0.33221700  0.70511400  0.21206000  1
  O  O40  1  0.37372400  0.40955200  0.16688400  1
  O  O41  1  0.86641500  0.02735500  0.15427500  1
  O  O42  1  0.69138800  0.71445800  0.15101100  1
  O  O43  1  0.47908200  0.15508800  0.13124400  1
  O  O44  1  0.28668100  0.19205200  0.09775400  1
  O  O45  1  0.14916500  0.59368200  0.09271900  1
  O  O46  1  0.89038200  0.69340700  0.08556000  1
  O  O47  1  0.66647100  0.17243000  0.08226000  1
loop_
_geom_bond_atom_site_label_1
_geom_bond_atom_site_label_2
_geom_bond_distance
_geom_bond_site_symmetry_2
Li0 O45 2.104737 1_556
Li0 O0 2.267489 1_555
Li0 O44 2.385276 1_556
Li0 O15 2.408891 1_555
Li0 O1 2.542150 1_555
Li0 O6 2.647793 1_555
Li1 O27 2.104737 1_555
Li1 O23 2.267489 1_555
Li1 O26 2.385276 1_555
Li1 O8 2.408891 1_555
Li1 O22 2.542150 1_555
Li1 O17 2.647793 1_555
Li2 O20 2.104737 1_555
Li2 O24 2.267489 1_555
Li2 O21 2.385276 1_555
Li2 O39 2.408891 1_555
Li2 O25 2.542150 1_555
Li2 O30 2.647793 1_555
Li3 O2 2.104737 1_554
Li3 O47 2.267489 1_555
Li3 O3 2.385276 1_554
Li3 O32 2.408891 1_555
Li3 O46 2.542150 1_555
Li3 O41 2.647793 1_555
O0 P1 1.500935 1_555
O0 Sn3 2.512982 1_556
O1 P3 1.512523 1_555
O1 Sn3 2.425108 1_546
O2 P2 1.512635 1_555
O2 Sn0 2.465540 1_555
O3 P0 1.502007 1_555
O3 Sn0 2.441925 1_565
O4 P0 1.613881 1_555
O4 P1 1.625981 1_555
O5 P5 1.494401 1_555
O5 Sn3 2.307338 1_546
O6 P7 1.511144 1_565
O6 Sn3 2.347833 1_556
O7 P4 1.596673 1_555
O7 P0 1.606856 1_555
O8 P4 1.513139 1_555
O8 Sn0 2.442329 1_555
O9 P5 1.595862 1_555
O9 P4 1.609668 1_555
O10 P6 1.605980 1_565
O10 P2 1.605985 1_555
O11 P6 1.510282 1_555
O11 Sn0 2.305322 1_555
O12 P1 1.510282 1_555
O12 Sn1 2.305322 1_555
O13 P2 1.595862 1_555
O13 P3 1.609668 1_655
O14 P1 1.605980 1_545
O14 P5 1.605985 1_555
O15 P3 1.513139 1_555
O15 Sn1 2.442329 1_555
O16 P3 1.596673 1_555
O16 P7 1.606856 1_555
O17 P0 1.511144 1_545
O17 Sn2 2.347833 1_555
O18 P2 1.494401 1_555
O18 Sn2 2.307338 1_565
O19 P7 1.613881 1_555
O19 P6 1.625981 1_455
O20 P5 1.512635 1_555
O20 Sn1 2.465540 1_555
O21 P7 1.502007 1_555
O21 Sn1 2.441925 1_545
O22 P4 1.512523 1_555
O22 Sn2 2.425108 1_565
O23 P6 1.500935 1_555
O23 Sn2 2.512982 1_555
O24 P9 1.500935 1_555
O24 Sn1 2.512982 1_555
O25 P11 1.512523 1_555
O25 Sn1 2.425108 1_545
O26 P8 1.502007 1_555
O26 Sn2 2.441925 1_565
O27 P10 1.512635 1_555
O27 Sn2 2.465540 1_555
O28 P8 1.613881 1_555
O28 P9 1.625981 1_655
O29 P13 1.494401 1_555
O29 Sn1 2.307338 1_545
O30 P15 1.511144 1_565
O30 Sn1 2.347833 1_555
O31 P12 1.596673 1_555
O31 P8 1.606856 1_555
O32 P12 1.513139 1_555
O32 Sn2 2.442329 1_555
O33 P14 1.605980 1_565
O33 P10 1.605985 1_555
O34 P13 1.595862 1_555
O34 P12 1.609668 1_455
O35 P14 1.510282 1_555
O35 Sn2 2.305322 1_555
O36 P9 1.510282 1_555
O36 Sn3 2.305322 1_555
O37 P9 1.605980 1_545
O37 P13 1.605985 1_555
O38 P10 1.595862 1_555
O38 P11 1.609668 1_555
O39 P11 1.513139 1_555
O39 Sn3 2.442329 1_555
O40 P11 1.596673 1_555
O40 P15 1.606856 1_555
O41 P8 1.511144 1_545
O41 Sn0 2.347833 1_554
O42 P10 1.494401 1_555
O42 Sn0 2.307338 1_564
O43 P15 1.613881 1_555
O43 P14 1.625981 1_555
O44 P15 1.502007 1_555
O44 Sn3 2.441925 1_545
O45 P13 1.512635 1_555
O45 Sn3 2.465540 1_555
O46 P12 1.512523 1_555
O46 Sn0 2.425108 1_564
O47 P14 1.500935 1_555
O47 Sn0 2.512982 1_554
