# generated using pymatgen
data_Li3MnV(PO4)3
_symmetry_space_group_name_H-M   'P 1'
_cell_length_a   9.23194434
_cell_length_b   8.41751747
_cell_length_c   8.44307926
_cell_angle_alpha   60.06107272
_cell_angle_beta   63.05114553
_cell_angle_gamma   90.14924214
_symmetry_Int_Tables_number   1
_chemical_formula_structural   Li3MnV(PO4)3
_chemical_formula_sum   'Li6 Mn2 V2 P6 O24'
_cell_volume   484.08085215
_cell_formula_units_Z   2
loop_
 _symmetry_equiv_pos_site_id
 _symmetry_equiv_pos_as_xyz
  1  'x, y, z'
loop_
 _atom_site_type_symbol
 _atom_site_label
 _atom_site_symmetry_multiplicity
 _atom_site_fract_x
 _atom_site_fract_y
 _atom_site_fract_z
 _atom_site_occupancy
  Li  Li0  1  0.13519200  0.74017900  0.19438000  1
  Li  Li1  1  0.14803400  0.33758100  0.92620400  1
  Li  Li2  1  0.38393100  0.18604100  0.36180700  1
  Li  Li3  1  0.85668600  0.66870400  0.07232500  1
  Li  Li4  1  0.87642900  0.93456000  0.38785700  1
  Li  Li5  1  0.87317200  0.25374600  0.80304000  1
  Mn  Mn0  1  0.56303100  0.85209900  0.29549400  1
  Mn  Mn1  1  0.43982000  0.14470200  0.70908400  1
  V  V0  1  0.03442900  0.34269700  0.31701200  1
  V  V1  1  0.96709400  0.65271900  0.69170000  1
  P  P0  1  0.24669000  0.05458100  0.21151700  1
  P  P1  1  0.24895600  0.45596800  0.49201800  1
  P  P2  1  0.24177200  0.73901400  0.80837900  1
  P  P3  1  0.76072100  0.25697300  0.19104300  1
  P  P4  1  0.75711700  0.54502200  0.50489800  1
  P  P5  1  0.75245600  0.94938800  0.78274400  1
  O  O0  1  0.10714600  0.85042200  0.36581100  1
  O  O1  1  0.25644400  0.14239100  0.99747100  1
  O  O2  1  0.18224600  0.18135100  0.30300200  1
  O  O3  1  0.17032400  0.49003300  0.34916600  1
  O  O4  1  0.10133100  0.45390500  0.69215300  1
  O  O5  1  0.09991900  0.76596000  0.74260900  1
  O  O6  1  0.41117200  0.04030200  0.20969600  1
  O  O7  1  0.27249800  0.25604500  0.57993200  1
  O  O8  1  0.40757200  0.61761500  0.36599800  1
  O  O9  1  0.17223100  0.51983800  0.00120400  1
  O  O10  1  0.23636200  0.86298500  0.89309900  1
  O  O11  1  0.40769200  0.78221900  0.61814100  1
  O  O12  1  0.58840900  0.21391900  0.37806900  1
  O  O13  1  0.75781900  0.13654100  0.10356200  1
  O  O14  1  0.82417100  0.47709600  0.00953500  1
  O  O15  1  0.59408700  0.38907700  0.63424900  1
  O  O16  1  0.74840400  0.75112000  0.39468100  1
  O  O17  1  0.58383300  0.96415700  0.80205800  1
  O  O18  1  0.89985700  0.21208100  0.25735100  1
  O  O19  1  0.90145300  0.53642200  0.31354800  1
  O  O20  1  0.83256600  0.51749400  0.65128000  1
  O  O21  1  0.83176900  0.83668200  0.67790700  1
  O  O22  1  0.75482500  0.86858400  0.98828700  1
  O  O23  1  0.88441500  0.16573400  0.61738200  1
loop_
_geom_bond_atom_site_label_1
_geom_bond_atom_site_label_2
_geom_bond_distance
_geom_bond_site_symmetry_2
Li0 O10 1.904838 1_554
Li0 O3 1.971741 1_555
Li0 O0 2.006340 1_555
Li0 O19 2.213759 1_455
Li1 O1 1.905476 1_555
Li1 O4 1.973011 1_555
Li1 O9 1.974996 1_556
Li1 O18 2.327123 1_456
Li2 O12 1.975403 1_555
Li2 O7 2.041160 1_555
Li2 O6 2.121093 1_555
Li2 O2 2.138222 1_555
Li3 O22 1.907868 1_554
Li3 O14 1.991901 1_555
Li3 O19 2.015039 1_555
Li3 O5 2.347740 1_654
Li4 O16 1.903811 1_555
Li4 O21 1.978667 1_555
Li4 O18 1.982441 1_565
Li4 O0 2.202973 1_655
Li5 O13 1.895310 1_556
Li5 O23 2.007195 1_555
Li5 O20 2.076407 1_555
Li5 O4 2.184385 1_655
Mn0 O8 2.085192 1_555
Mn0 O11 2.163042 1_555
Mn0 O6 2.187813 1_565
Mn0 O16 2.224546 1_555
Mn0 O13 2.248538 1_565
Mn0 O22 2.314911 1_554
Mn1 O17 2.111670 1_545
Mn1 O15 2.128546 1_555
Mn1 O12 2.219826 1_555
Mn1 O7 2.228846 1_555
Mn1 O1 2.238601 1_555
Mn1 O10 2.284622 1_545
O0 P0 1.594585 1_565
O0 V1 2.050782 1_455
O1 P0 1.529468 1_556
O2 P0 1.580745 1_555
O2 V0 1.935059 1_555
O3 P1 1.585358 1_555
O3 V0 1.955104 1_555
O4 P1 1.611283 1_555
O4 V1 2.084510 1_455
O5 P2 1.615477 1_555
O5 V1 1.864834 1_455
O6 P0 1.517276 1_555
O7 P1 1.526926 1_555
O8 P1 1.503372 1_555
O9 P2 1.585816 1_554
O9 V0 1.974455 1_555
O10 P2 1.521854 1_555
O11 P2 1.497485 1_555
O12 P3 1.518011 1_555
O13 P3 1.529410 1_555
O14 P3 1.572021 1_555
O14 V1 1.987049 1_554
O15 P4 1.500002 1_555
O16 P4 1.529460 1_555
O17 P5 1.502189 1_555
O18 P3 1.596657 1_555
O18 V0 2.029513 1_655
O19 P4 1.599032 1_555
O19 V0 2.040201 1_655
O20 P4 1.600504 1_555
O20 V1 1.928493 1_555
O21 P5 1.572904 1_555
O21 V1 1.983477 1_555
O22 P5 1.526781 1_555
O23 P5 1.630557 1_545
O23 V0 1.898298 1_655
