# generated using pymatgen
data_LiFe4(PO4)3
_symmetry_space_group_name_H-M   'P 1'
_cell_length_a   6.09371100
_cell_length_b   9.54416725
_cell_length_c   9.55986433
_cell_angle_alpha   60.11089001
_cell_angle_beta   89.60253466
_cell_angle_gamma   89.39774542
_symmetry_Int_Tables_number   1
_chemical_formula_structural   LiFe4(PO4)3
_chemical_formula_sum   'Li2 Fe8 P6 O24'
_cell_volume   482.01619103
_cell_formula_units_Z   2
loop_
 _symmetry_equiv_pos_site_id
 _symmetry_equiv_pos_as_xyz
  1  'x, y, z'
loop_
 _atom_site_type_symbol
 _atom_site_label
 _atom_site_symmetry_multiplicity
 _atom_site_fract_x
 _atom_site_fract_y
 _atom_site_fract_z
 _atom_site_occupancy
  Li  Li0  1  0.52840300  0.66778100  0.66311400  1
  Li  Li1  1  0.02743800  0.33035700  0.33334000  1
  Fe  Fe0  1  0.74635800  0.03778400  0.69577000  1
  Fe  Fe1  1  0.99544400  0.67060900  0.66733000  1
  Fe  Fe2  1  0.74880700  0.69657500  0.26846400  1
  Fe  Fe3  1  0.75130000  0.26752600  0.03333100  1
  Fe  Fe4  1  0.24928100  0.73343100  0.96285100  1
  Fe  Fe5  1  0.24777300  0.30275300  0.73285100  1
  Fe  Fe6  1  0.49427200  0.33655400  0.33050100  1
  Fe  Fe7  1  0.24987700  0.96675800  0.30201600  1
  P  P0  1  0.25052300  0.98257700  0.62997000  1
  P  P1  1  0.24880100  0.38499600  0.98409900  1
  P  P2  1  0.24923700  0.63089500  0.38745800  1
  P  P3  1  0.74871300  0.36963700  0.61418200  1
  P  P4  1  0.75269800  0.61259000  0.01770500  1
  P  P5  1  0.74746900  0.01819500  0.36856300  1
  O  O0  1  0.44829700  0.92799500  0.74995100  1
  O  O1  1  0.05013700  0.93450800  0.74845200  1
  O  O2  1  0.24369900  0.86883900  0.55409600  1
  O  O3  1  0.75854600  0.65966500  0.83970900  1
  O  O4  1  0.75198400  0.84092900  0.50084300  1
  O  O5  1  0.23010000  0.57386000  0.87156000  1
  O  O6  1  0.05085900  0.75073200  0.31357800  1
  O  O7  1  0.44822600  0.74910000  0.32345200  1
  O  O8  1  0.75403600  0.50100900  0.65999700  1
  O  O9  1  0.23438700  0.55624800  0.57635800  1
  O  O10  1  0.05754300  0.30702100  0.93762700  1
  O  O11  1  0.45311100  0.32479300  0.92892000  1
  O  O12  1  0.55166200  0.68344800  0.06545200  1
  O  O13  1  0.94947200  0.67860500  0.07118800  1
  O  O14  1  0.73226700  0.44540800  0.42551600  1
  O  O15  1  0.25822100  0.49854300  0.34259700  1
  O  O16  1  0.95126900  0.25244100  0.67463800  1
  O  O17  1  0.55462700  0.24714300  0.69125600  1
  O  O18  1  0.74496700  0.42351900  0.12979300  1
  O  O19  1  0.25565600  0.15921100  0.49962400  1
  O  O20  1  0.25126200  0.33915300  0.16099800  1
  O  O21  1  0.73126200  0.13266600  0.44335200  1
  O  O22  1  0.94925100  0.07083400  0.25235500  1
  O  O23  1  0.55276400  0.06521200  0.24714300  1
loop_
_geom_bond_atom_site_label_1
_geom_bond_atom_site_label_2
_geom_bond_distance
_geom_bond_site_symmetry_2
Li0 O8 2.103701 1_555
Li0 O4 2.111087 1_555
Li0 O3 2.173276 1_555
Li0 O2 2.395885 1_555
Li0 O9 2.443689 1_555
Li0 O5 2.506484 1_555
Li1 O20 2.101232 1_555
Li1 O19 2.127014 1_555
Li1 O15 2.180136 1_555
Li1 O18 2.414503 1_455
Li1 O21 2.447648 1_455
Li1 O14 2.473533 1_455
Fe0 O1 2.032674 1_645
Fe0 O0 2.037458 1_545
Fe0 O21 2.115402 1_555
Fe0 O17 2.285876 1_555
Fe0 O16 2.331316 1_555
Fe1 O3 2.146884 1_555
Fe1 O4 2.186349 1_555
Fe1 O5 2.218881 1_655
Fe1 O8 2.225692 1_555
Fe1 O9 2.227741 1_655
Fe1 O2 2.244122 1_655
Fe2 O6 2.023422 1_655
Fe2 O7 2.027950 1_555
Fe2 O14 2.103985 1_555
Fe2 O13 2.316753 1_555
Fe2 O12 2.345922 1_555
Fe3 O11 2.014293 1_554
Fe3 O10 2.027087 1_654
Fe3 O18 2.105968 1_555
Fe3 O22 2.330937 1_555
Fe3 O23 2.334806 1_555
Fe4 O12 2.031048 1_556
Fe4 O13 2.034188 1_456
Fe4 O5 2.103475 1_555
Fe4 O0 2.303861 1_555
Fe4 O1 2.328494 1_555
Fe5 O16 2.025676 1_455
Fe5 O17 2.028652 1_555
Fe5 O9 2.118597 1_555
Fe5 O10 2.285768 1_555
Fe5 O11 2.356759 1_555
Fe6 O15 2.145189 1_555
Fe6 O20 2.193563 1_555
Fe6 O19 2.210180 1_555
Fe6 O21 2.215032 1_555
Fe6 O14 2.235661 1_555
Fe6 O18 2.258981 1_555
Fe7 O22 2.017882 1_465
Fe7 O23 2.023989 1_565
Fe7 O2 2.106439 1_555
Fe7 O7 2.311866 1_555
Fe7 O6 2.357445 1_555
O0 P0 1.565219 1_555
O1 P0 1.568177 1_555
O2 P0 1.578719 1_555
O3 P4 1.528454 1_556
O4 P5 1.526266 1_565
O5 P1 1.576148 1_555
O6 P2 1.563972 1_555
O7 P2 1.564606 1_555
O8 P3 1.520974 1_555
O9 P2 1.579152 1_555
O10 P1 1.569864 1_555
O11 P1 1.560891 1_555
O12 P4 1.564912 1_555
O13 P4 1.562576 1_555
O14 P3 1.577055 1_555
O15 P2 1.523388 1_555
O16 P3 1.563738 1_555
O17 P3 1.570650 1_555
O18 P4 1.575018 1_555
O19 P0 1.517448 1_545
O20 P1 1.521300 1_554
O21 P5 1.577918 1_555
O22 P5 1.560856 1_555
O23 P5 1.563725 1_555
