# generated using pymatgen
data_Ba2In2O5
_symmetry_space_group_name_H-M   'P 1'
_cell_length_a   6.10107457
_cell_length_b   6.10107457
_cell_length_c   10.59019782
_cell_angle_alpha   69.56365266
_cell_angle_beta   69.56365266
_cell_angle_gamma   59.21758068
_symmetry_Int_Tables_number   1
_chemical_formula_structural   Ba2In2O5
_chemical_formula_sum   'Ba4 In4 O10'
_cell_volume   310.15229475
_cell_formula_units_Z   2
loop_
 _symmetry_equiv_pos_site_id
 _symmetry_equiv_pos_as_xyz
  1  'x, y, z'
loop_
 _atom_site_type_symbol
 _atom_site_label
 _atom_site_symmetry_multiplicity
 _atom_site_fract_x
 _atom_site_fract_y
 _atom_site_fract_z
 _atom_site_occupancy
  Ba  Ba0  1  0.76635400  0.23364600  0.25000000  1
  Ba  Ba1  1  0.23364600  0.76635400  0.75000000  1
  Ba  Ba2  1  0.50000000  0.00000000  0.00000000  1
  Ba  Ba3  1  0.00000000  0.50000000  0.50000000  1
  In  In0  1  0.90866800  0.36949400  0.86102600  1
  In  In1  1  0.63050600  0.09133200  0.63897400  1
  In  In2  1  0.36949400  0.90866800  0.36102600  1
  In  In3  1  0.09133200  0.63050600  0.13897400  1
  O  O0  1  0.73831900  0.26168100  0.75000000  1
  O  O1  1  0.64060500  0.75865300  0.79737400  1
  O  O2  1  0.24134700  0.35939500  0.70262600  1
  O  O3  1  0.50000000  0.00000000  0.50000000  1
  O  O4  1  0.35939500  0.24134700  0.20262600  1
  O  O5  1  0.75865300  0.64060500  0.29737400  1
  O  O6  1  0.00000000  0.00000000  0.50000000  1
  O  O7  1  0.26168100  0.73831900  0.25000000  1
  O  O8  1  0.00000000  0.00000000  0.00000000  1
  O  O9  1  0.00000000  0.50000000  0.00000000  1
loop_
_geom_bond_atom_site_label_1
_geom_bond_atom_site_label_2
_geom_bond_distance
_geom_bond_site_symmetry_2
Ba0 O5 2.674446 1_555
Ba0 O4 2.674446 1_555
Ba0 O3 2.900574 1_555
Ba0 O9 2.900574 1_655
Ba0 O7 2.986218 1_645
Ba0 O6 2.998945 1_655
Ba0 O8 2.998945 1_655
Ba0 O7 3.042562 1_555
Ba1 O2 2.674446 1_555
Ba1 O1 2.674446 1_555
Ba1 O9 2.900574 1_556
Ba1 O3 2.900574 1_565
Ba1 O0 2.986218 1_465
Ba1 O8 2.998945 1_566
Ba1 O6 2.998945 1_565
Ba1 O0 3.042562 1_555
Ba2 O1 2.671494 1_544
Ba2 O4 2.671494 1_555
Ba2 O7 2.899753 1_545
Ba2 O0 2.899753 1_554
Ba2 O9 3.014390 1_555
Ba2 O9 3.014390 1_645
Ba2 O8 3.050537 1_655
Ba2 O8 3.050537 1_555
Ba3 O5 2.671494 1_455
Ba3 O2 2.671494 1_555
Ba3 O7 2.899753 1_555
Ba3 O0 2.899753 1_455
Ba3 O3 3.014390 1_465
Ba3 O3 3.014390 1_555
Ba3 O6 3.050537 1_555
Ba3 O6 3.050537 1_565
In0 O1 2.108093 1_555
In0 O2 2.122247 1_655
In0 O8 2.128031 1_656
In0 O9 2.226148 1_656
In0 O0 2.233499 1_555
In1 O2 2.108093 1_555
In1 O1 2.122247 1_545
In1 O6 2.128031 1_655
In1 O3 2.226148 1_555
In1 O0 2.233499 1_555
In2 O5 2.108093 1_555
In2 O4 2.122247 1_565
In2 O6 2.128031 1_565
In2 O3 2.226148 1_565
In2 O7 2.233499 1_555
In3 O4 2.108093 1_555
In3 O5 2.122247 1_455
In3 O8 2.128031 1_565
In3 O9 2.226148 1_555
In3 O7 2.233499 1_555
