# generated using pymatgen
data_Li2Fe3F8
_symmetry_space_group_name_H-M   'P 1'
_cell_length_a   9.24911306
_cell_length_b   9.24911306
_cell_length_c   9.24911306
_cell_angle_alpha   107.27835011
_cell_angle_beta   107.27835011
_cell_angle_gamma   113.95204134
_symmetry_Int_Tables_number   1
_chemical_formula_structural   Li2Fe3F8
_chemical_formula_sum   'Li8 Fe12 F32'
_cell_volume   606.26906184
_cell_formula_units_Z   4
loop_
 _symmetry_equiv_pos_site_id
 _symmetry_equiv_pos_as_xyz
  1  'x, y, z'
loop_
 _atom_site_type_symbol
 _atom_site_label
 _atom_site_symmetry_multiplicity
 _atom_site_fract_x
 _atom_site_fract_y
 _atom_site_fract_z
 _atom_site_occupancy
  Li  Li0  1  0.33673600  0.43878300  0.28567500  1
  Li  Li1  1  0.09689200  0.69893900  0.78567500  1
  Li  Li2  1  0.94893900  0.66326400  0.10204700  1
  Li  Li3  1  0.68878300  0.90310800  0.60204700  1
  Li  Li4  1  0.30106100  0.08673600  0.39795300  1
  Li  Li5  1  0.56121700  0.84689200  0.89795300  1
  Li  Li6  1  0.91326400  0.31121700  0.21432500  1
  Li  Li7  1  0.15310800  0.05106100  0.71432500  1
  Fe  Fe0  1  0.78423800  0.61338300  0.44038100  1
  Fe  Fe1  1  0.75000000  0.25000000  0.50000000  1
  Fe  Fe2  1  0.25000000  0.75000000  0.50000000  1
  Fe  Fe3  1  0.65614300  0.21576200  0.82914500  1
  Fe  Fe4  1  0.86338300  0.92300200  0.32914500  1
  Fe  Fe5  1  0.17300200  0.34385700  0.55961900  1
  Fe  Fe6  1  0.07699800  0.40614300  0.94038100  1
  Fe  Fe7  1  0.38661700  0.82699800  0.17085500  1
  Fe  Fe8  1  0.59385700  0.53423800  0.67085500  1
  Fe  Fe9  1  0.50000000  0.50000000  0.00000000  1
  Fe  Fe10  1  0.00000000  0.00000000  0.00000000  1
  Fe  Fe11  1  0.46576200  0.13661700  0.05961900  1
  F  F0  1  0.81447900  0.66102000  0.24524400  1
  F  F1  1  0.24547500  0.83511300  0.32803300  1
  F  F2  1  0.74291900  0.83255800  0.82803300  1
  F  F3  1  0.76486500  0.36621700  0.33645100  1
  F  F4  1  0.81923500  0.56447900  0.65345900  1
  F  F5  1  0.08255800  0.75452500  0.58963900  1
  F  F6  1  0.16488700  0.49291900  0.41036100  1
  F  F7  1  0.67841400  0.51486500  0.89864800  1
  F  F8  1  0.63378300  0.97023300  0.39864800  1
  F  F9  1  0.91102000  0.16577600  0.34654100  1
  F  F10  1  0.02976700  0.42841400  0.66354900  1
  F  F11  1  0.57271100  0.62997100  0.48370100  1
  F  F12  1  0.10373000  0.66099000  0.98370100  1
  F  F13  1  0.83422400  0.18076500  0.74524400  1
  F  F14  1  0.33901000  0.32271100  0.44274000  1
  F  F15  1  0.37002900  0.85373000  0.94274000  1
  F  F16  1  0.87997100  0.89627000  0.55726000  1
  F  F17  1  0.91099000  0.42728900  0.05726000  1
  F  F18  1  0.41577600  0.56923500  0.75475600  1
  F  F19  1  0.14627000  0.08901000  0.51629900  1
  F  F20  1  0.67728900  0.12002900  0.01629900  1
  F  F21  1  0.22023300  0.32158600  0.83645100  1
  F  F22  1  0.33898000  0.58422400  0.15345900  1
  F  F23  1  0.57158600  0.23513500  0.60135200  1
  F  F24  1  0.61621700  0.77976700  0.10135200  1
  F  F25  1  0.08511300  0.25708100  0.08963900  1
  F  F26  1  0.16744200  0.99547500  0.91036100  1
  F  F27  1  0.43076500  0.18552100  0.84654100  1
  F  F28  1  0.48513500  0.38378300  0.16354900  1
  F  F29  1  0.50708100  0.91744200  0.67196700  1
  F  F30  1  0.00452500  0.91488700  0.17196700  1
  F  F31  1  0.43552100  0.08898000  0.25475600  1
loop_
_geom_bond_atom_site_label_1
_geom_bond_atom_site_label_2
_geom_bond_distance
_geom_bond_site_symmetry_2
F0 Fe0 2.049883 1_555
F0 Li2 2.067614 1_555
F0 Fe4 2.112537 1_555
F0 Fe9 2.525919 1_555
F1 Fe2 1.970352 1_555
F1 Li4 2.008923 1_565
F1 Fe7 2.228294 1_555
F1 Li2 2.345014 1_455
F2 Fe10 1.970358 1_666
F2 Li5 2.008914 1_555
F2 Fe8 2.228294 1_555
F2 Li3 2.345014 1_555
F3 Fe1 2.105223 1_555
F3 Fe0 2.107591 1_555
F3 Li6 2.136621 1_555
F3 Fe11 2.551685 1_555
F4 Fe8 2.049883 1_555
F4 Li1 2.067614 1_655
F4 Fe0 2.112537 1_555
F4 Fe1 2.525919 1_555
F5 Fe2 1.970358 1_555
F5 Li1 2.008914 1_555
F5 Fe0 2.228294 1_455
F5 Li7 2.345014 1_565
F6 Fe2 1.970360 1_555
F6 Li6 2.008919 1_455
F6 Fe5 2.228293 1_555
F6 Li0 2.345005 1_555
F7 Fe9 2.105223 1_556
F7 Fe8 2.107591 1_555
F7 Li2 2.136621 1_556
F7 Fe3 2.551685 1_555
F8 Fe1 2.105232 1_565
F8 Fe7 2.107592 1_555
F8 Li3 2.136615 1_555
F8 Fe4 2.551681 1_555
F9 Fe4 2.049883 1_545
F9 Li6 2.067614 1_555
F9 Fe5 2.112537 1_655
F9 Fe1 2.525919 1_555
F10 Fe1 2.105230 1_455
F10 Fe5 2.107582 1_555
F10 Li1 2.136625 1_555
F10 Fe6 2.551686 1_555
F11 Li0 1.952671 1_555
F11 Li3 2.046941 1_555
F11 Fe8 2.160701 1_555
F11 Fe0 2.164388 1_555
F12 Li1 1.952671 1_555
F12 Li2 2.046941 1_456
F12 Fe7 2.160701 1_556
F12 Fe6 2.164388 1_555
F13 Fe6 2.049883 1_655
F13 Li3 2.067614 1_545
F13 Fe3 2.112537 1_555
F13 Fe1 2.525919 1_555
F14 Li4 1.952671 1_555
F14 Li0 2.046941 1_555
F14 Fe5 2.160701 1_555
F14 Fe8 2.164388 1_555
F15 Li5 1.952671 1_555
F15 Li1 2.046941 1_555
F15 Fe11 2.160701 1_566
F15 Fe7 2.164388 1_556
F16 Li3 1.952671 1_555
F16 Li7 2.046941 1_665
F16 Fe0 2.160701 1_555
F16 Fe4 2.164388 1_555
F17 Li2 1.952671 1_555
F17 Li6 2.046941 1_555
F17 Fe6 2.160701 1_654
F17 Fe3 2.164388 1_554
F18 Fe5 2.049883 1_555
F18 Li5 2.067614 1_555
F18 Fe8 2.112537 1_555
F18 Fe9 2.525919 1_556
F19 Li7 1.952671 1_555
F19 Li4 2.046941 1_555
F19 Fe4 2.160701 1_445
F19 Fe5 2.164388 1_555
F20 Li6 1.952671 1_555
F20 Li5 2.046941 1_544
F20 Fe3 2.160701 1_554
F20 Fe11 2.164388 1_555
F21 Fe9 2.105230 1_556
F21 Fe6 2.107582 1_555
F21 Li7 2.136625 1_555
F21 Fe5 2.551686 1_555
F22 Fe7 2.049883 1_555
F22 Li0 2.067614 1_555
F22 Fe6 2.112537 1_554
F22 Fe9 2.525919 1_555
F23 Fe1 2.105223 1_555
F23 Fe3 2.107591 1_555
F23 Li4 2.136621 1_555
F23 Fe8 2.551685 1_555
F24 Fe9 2.105232 1_555
F24 Fe4 2.107592 1_555
F24 Li5 2.136615 1_554
F24 Fe7 2.551681 1_555
F25 Fe10 1.970360 1_555
F25 Li0 2.008919 1_555
F25 Fe6 2.228293 1_554
F25 Li6 2.345005 1_455
F26 Fe10 1.970358 1_566
F26 Li7 2.008914 1_565
F26 Fe11 2.228294 1_566
F26 Li1 2.345014 1_555
F27 Fe3 2.049883 1_555
F27 Li7 2.067614 1_555
F27 Fe11 2.112537 1_556
F27 Fe9 2.525919 1_556
F28 Fe9 2.105223 1_555
F28 Fe11 2.107591 1_555
F28 Li0 2.136621 1_555
F28 Fe0 2.551685 1_555
F29 Fe2 1.970358 1_555
F29 Li3 2.008914 1_555
F29 Fe3 2.228294 1_565
F29 Li5 2.345014 1_555
F30 Fe10 1.970352 1_565
F30 Li2 2.008923 1_455
F30 Fe4 2.228294 1_455
F30 Li4 2.345014 1_565
F31 Fe11 2.049883 1_555
F31 Li4 2.067614 1_555
F31 Fe7 2.112537 1_545
F31 Fe1 2.525919 1_555
