# generated using pymatgen
data_Na5Ti7Al(PO4)12
_symmetry_space_group_name_H-M   'P 1'
_cell_length_a   8.60919900
_cell_length_b   8.85330277
_cell_length_c   14.89897497
_cell_angle_alpha   106.17903815
_cell_angle_beta   90.19286200
_cell_angle_gamma   119.02423336
_symmetry_Int_Tables_number   1
_chemical_formula_structural   Na5Ti7Al(PO4)12
_chemical_formula_sum   'Na5 Ti7 Al1 P12 O48'
_cell_volume   940.58694607
_cell_formula_units_Z   1
loop_
 _symmetry_equiv_pos_site_id
 _symmetry_equiv_pos_as_xyz
  1  'x, y, z'
loop_
 _atom_site_type_symbol
 _atom_site_label
 _atom_site_symmetry_multiplicity
 _atom_site_fract_x
 _atom_site_fract_y
 _atom_site_fract_z
 _atom_site_occupancy
  Na  Na0  1  0.00434300  0.00049700  0.00032600  1
  Na  Na1  1  0.75004500  0.99952300  0.75014600  1
  Na  Na2  1  0.50058400  0.00017900  0.49978300  1
  Na  Na3  1  0.24350300  0.99742500  0.25238100  1
  Na  Na4  1  0.69981900  0.14888500  0.05119200  1
  Ti  Ti0  1  0.92720800  0.71203700  0.92769400  1
  Ti  Ti1  1  0.82054700  0.28784400  0.82310400  1
  Ti  Ti2  1  0.42903300  0.71171100  0.42690100  1
  Ti  Ti3  1  0.32290500  0.29135500  0.32140000  1
  Ti  Ti4  1  0.67983700  0.71147200  0.67654300  1
  Ti  Ti5  1  0.57262000  0.28978500  0.57239900  1
  Ti  Ti6  1  0.16604100  0.69886300  0.18010500  1
  Al  Al0  1  0.07920100  0.29426000  0.07300800  1
  P  P0  1  0.48160400  0.21314100  0.76846300  1
  P  P1  1  0.33771500  0.50000100  0.62504700  1
  P  P2  1  0.54910300  0.78047400  0.98243800  1
  P  P3  1  0.94513300  0.21374700  0.51826500  1
  P  P4  1  0.16894300  0.50322000  0.87467500  1
  P  P5  1  0.98162800  0.21025600  0.26636100  1
  P  P6  1  0.01880500  0.78721600  0.73136100  1
  P  P7  1  0.83816800  0.49477000  0.12424100  1
  P  P8  1  0.05651800  0.78738200  0.48112200  1
  P  P9  1  0.43433700  0.21389200  0.01907300  1
  P  P10  1  0.66084500  0.49939300  0.37520400  1
  P  P11  1  0.52586300  0.79321800  0.22941700  1
  O  O0  1  0.96960800  0.58281800  0.74791200  1
  O  O1  1  0.55954800  0.21276800  0.93395600  1
  O  O2  1  0.21725700  0.01534700  0.85961800  1
  O  O3  1  0.00479900  0.35886200  0.86169100  1
  O  O4  1  0.64275200  0.20425500  0.78078100  1
  O  O5  1  0.53474700  0.21272000  0.68297000  1
  O  O6  1  0.40034800  0.65807200  0.53817500  1
  O  O7  1  0.06918700  0.34256400  0.71208800  1
  O  O8  1  0.67098500  0.98494000  0.89081100  1
  O  O9  1  0.13194900  0.41678300  0.50239900  1
  O  O10  1  0.75022900  0.20450700  0.53076800  1
  O  O11  1  0.11340300  0.63833900  0.89142900  1
  O  O12  1  0.38626100  0.36093000  0.60896300  1
  O  O13  1  0.47247800  0.58675700  0.24689800  1
  O  O14  1  0.74839900  0.79428200  0.96913900  1
  O  O15  1  0.36406300  0.58057800  0.99871800  1
  O  O16  1  0.82898600  0.01493100  0.60954600  1
  O  O17  1  0.06274800  0.21309300  0.43281900  1
  O  O18  1  0.43448700  0.66013900  0.78746300  1
  O  O19  1  0.71773300  0.01550000  0.35905800  1
  O  O20  1  0.09840000  0.34217300  0.96378900  1
  O  O21  1  0.50739300  0.36129400  0.35861500  1
  O  O22  1  0.14231800  0.20498000  0.28060700  1
  O  O23  1  0.03552600  0.21361800  0.18142800  1
  O  O24  1  0.96520800  0.78705600  0.81714100  1
  O  O25  1  0.85762200  0.79568500  0.71909200  1
  O  O26  1  0.49281200  0.63855000  0.64132200  1
  O  O27  1  0.90035600  0.65692500  0.03817300  1
  O  O28  1  0.28309100  0.98503800  0.64044000  1
  O  O29  1  0.57073100  0.34287900  0.21132100  1
  O  O30  1  0.93796800  0.78700800  0.56689000  1
  O  O31  1  0.17116200  0.98529000  0.39018200  1
  O  O32  1  0.63156300  0.41320600  0.00289500  1
  O  O33  1  0.24406300  0.20692400  0.03142800  1
  O  O34  1  0.53006900  0.41666100  0.75239700  1
  O  O35  1  0.61408400  0.63924100  0.39109700  1
  O  O36  1  0.88456600  0.35644100  0.10757400  1
  O  O37  1  0.24983500  0.79549900  0.46945300  1
  O  O38  1  0.86819800  0.58352800  0.49772900  1
  O  O39  1  0.32964700  0.01704100  0.10892100  1
  O  O40  1  0.93100000  0.65791900  0.28832500  1
  O  O41  1  0.60012300  0.34240100  0.46171600  1
  O  O42  1  0.46616700  0.78736700  0.31674700  1
  O  O43  1  0.36465700  0.80325200  0.21610000  1
  O  O44  1  0.99259500  0.63646800  0.14094900  1
  O  O45  1  0.78751600  0.99450500  0.13748200  1
  O  O46  1  0.44297400  0.79276400  0.06616800  1
  O  O47  1  0.03004000  0.41555700  0.25216300  1
loop_
_geom_bond_atom_site_label_1
_geom_bond_atom_site_label_2
_geom_bond_distance
_geom_bond_site_symmetry_2
Na0 O33 1.917203 1_555
Na0 O14 2.005262 1_444
Na0 O45 2.766448 1_445
Na0 O2 2.778089 1_554
Na1 O8 2.224251 1_555
Na1 O16 2.224304 1_565
Na1 Ti1 2.238657 1_565
Na1 Ti4 2.238917 1_555
Na1 O25 2.342639 1_555
Na1 O4 2.348054 1_565
Na2 O10 1.964690 1_555
Na2 O37 1.972124 1_545
Na2 O19 2.801453 1_555
Na2 O28 2.802702 1_545
Na3 O31 2.163612 1_555
Na3 Ti3 2.252625 1_565
Na3 O39 2.289375 1_565
Na3 Ti6 2.299909 1_555
Na3 O22 2.331821 1_565
Na3 O43 2.358218 1_555
Na4 O36 1.704926 1_555
Na4 O8 2.364677 1_544
Na4 O45 2.462716 1_545
Al0 O20 1.781473 1_554
Al0 O23 1.909644 1_555
Al0 O33 1.949366 1_555
Al0 O36 2.029537 1_455
O0 P6 1.737956 1_655
O1 O32 1.581374 1_556
O1 P9 1.668206 1_556
O2 P6 2.264638 1_545
O3 P4 1.332538 1_555
O3 Ti1 1.437601 1_455
O4 Ti1 1.386543 1_555
O4 P0 1.441134 1_555
O5 P0 1.354522 1_555
O5 Ti5 1.923499 1_555
O6 Ti2 1.833774 1_555
O7 P4 2.347154 1_555
O7 Ti1 2.648911 1_455
O9 P3 1.818729 1_455
O9 P1 2.231943 1_555
O10 P3 1.653592 1_555
O10 Ti5 2.039222 1_555
O11 P4 1.453062 1_555
O11 Ti0 2.027684 1_455
O12 P1 1.443479 1_555
O12 Ti5 2.015659 1_555
O13 P11 1.752446 1_555
O14 P2 1.676412 1_555
O14 Ti0 2.030948 1_555
O15 O46 1.644793 1_556
O15 P2 1.798532 1_555
O15 P4 2.205394 1_555
O16 P3 2.362832 1_555
O17 O9 1.610321 1_555
O17 P3 1.629806 1_455
O18 P1 2.342671 1_555
O18 Ti4 2.628654 1_555
O19 P11 2.244548 1_545
O21 P10 1.250311 1_555
O21 Ti3 1.435948 1_555
O22 Ti3 1.397234 1_555
O22 P5 1.423838 1_455
O23 P5 1.352411 1_455
O23 O45 2.003580 1_445
O24 P6 1.360380 1_655
O24 Ti0 1.914053 1_555
O25 Ti4 1.386790 1_555
O25 P6 1.439277 1_655
O26 P1 1.260583 1_555
O26 Ti4 1.442750 1_555
O27 Ti0 1.828000 1_554
O28 P0 2.262668 1_565
O29 P10 2.354233 1_555
O29 Ti3 2.635553 1_555
O30 O38 1.605999 1_555
O30 P8 1.637819 1_655
O31 P8 2.352409 1_555
O32 P9 1.840469 1_555
O32 P7 2.226725 1_555
O33 P9 1.622154 1_555
O34 P0 1.729008 1_555
O35 P10 1.439441 1_555
O35 Ti2 2.010263 1_555
O36 P7 1.423700 1_555
O37 P8 1.642606 1_555
O37 Ti2 2.046284 1_555
O38 P8 1.832823 1_655
O38 P10 2.236965 1_555
O39 P9 2.329296 1_555
O40 P7 2.366513 1_555
O40 Ti6 2.541978 1_655
O41 Ti5 1.821032 1_555
O42 P11 1.405693 1_555
O42 Ti2 1.911196 1_555
O43 P11 1.449483 1_555
O43 Ti6 1.499914 1_555
O44 P7 1.268311 1_555
O44 Ti6 1.374538 1_655
O45 P5 2.228290 1_565
O46 P2 1.559293 1_554
O47 P5 1.732588 1_455
