# generated using pymatgen
data_K4Li5(FeO4)2
_symmetry_space_group_name_H-M   'P 1'
_cell_length_a   5.60363600
_cell_length_b   8.91281040
_cell_length_c   10.88302416
_cell_angle_alpha   91.32738120
_cell_angle_beta   98.65964108
_cell_angle_gamma   90.39181861
_symmetry_Int_Tables_number   1
_chemical_formula_structural   K4Li5(FeO4)2
_chemical_formula_sum   'K8 Li10 Fe4 O16'
_cell_volume   537.17353014
_cell_formula_units_Z   2
loop_
 _symmetry_equiv_pos_site_id
 _symmetry_equiv_pos_as_xyz
  1  'x, y, z'
loop_
 _atom_site_type_symbol
 _atom_site_label
 _atom_site_symmetry_multiplicity
 _atom_site_fract_x
 _atom_site_fract_y
 _atom_site_fract_z
 _atom_site_occupancy
  K  K0  1  0.17339500  0.99453000  0.87526400  1
  K  K1  1  0.09519300  0.74175200  0.36274700  1
  K  K2  1  0.42161500  0.50849600  0.65051100  1
  K  K3  1  0.32634200  0.25951100  0.13565700  1
  K  K4  1  0.67828700  0.72819100  0.86884900  1
  K  K5  1  0.56168800  0.53666000  0.31645900  1
  K  K6  1  0.88413100  0.25242100  0.65726100  1
  K  K7  1  0.78698900  0.96413200  0.14560300  1
  Li  Li0  1  0.09978900  0.75402700  0.69562900  1
  Li  Li1  1  0.27493000  0.48407000  0.92514400  1
  Li  Li2  1  0.19698700  0.98858500  0.57089100  1
  Li  Li3  1  0.40390900  0.24403900  0.80436400  1
  Li  Li4  1  0.37845100  0.97140100  0.29489600  1
  Li  Li5  1  0.59250400  0.01563700  0.69895600  1
  Li  Li6  1  0.72064600  0.50841700  0.06713000  1
  Li  Li7  1  0.80141300  0.02869900  0.43207000  1
  Li  Li8  1  0.91430200  0.25389200  0.30399500  1
  Li  Li9  1  0.95368100  0.47237500  0.49270300  1
  Fe  Fe0  1  0.33674100  0.21784900  0.45029200  1
  Fe  Fe1  1  0.67336700  0.79738500  0.55156600  1
  Fe  Fe2  1  0.20451200  0.71840900  0.05871900  1
  Fe  Fe3  1  0.81279800  0.27031300  0.94421600  1
  O  O0  1  0.11338400  0.28350500  0.89456300  1
  O  O1  1  0.18089800  0.70248200  0.88225300  1
  O  O2  1  0.12236600  0.05844400  0.38098800  1
  O  O3  1  0.16727000  0.39835600  0.40511000  1
  O  O4  1  0.37553300  0.18885700  0.62664900  1
  O  O5  1  0.27755200  0.91387100  0.11340700  1
  O  O6  1  0.40244600  0.82061100  0.63758100  1
  O  O7  1  0.38759100  0.55430700  0.09426600  1
  O  O8  1  0.59403400  0.41694300  0.88178100  1
  O  O9  1  0.62062100  0.20813300  0.37504300  1
  O  O10  1  0.66898900  0.09908300  0.86705900  1
  O  O11  1  0.61444100  0.83694900  0.38128100  1
  O  O12  1  0.84665500  0.61327100  0.58786500  1
  O  O13  1  0.88742200  0.95235800  0.62525500  1
  O  O14  1  0.83594700  0.29802300  0.11317500  1
  O  O15  1  0.92681400  0.68240500  0.11793800  1
loop_
_geom_bond_atom_site_label_1
_geom_bond_atom_site_label_2
_geom_bond_distance
_geom_bond_site_symmetry_2
K0 O1 2.606282 1_555
K0 O0 2.607462 1_565
K0 O5 2.685333 1_556
K0 O10 2.938012 1_565
K0 O13 2.956977 1_455
K0 O10 2.971424 1_465
K1 O15 2.727496 1_455
K1 O2 2.826449 1_565
K1 O11 2.864432 1_455
K1 O11 3.001397 1_555
K1 O3 3.125590 1_555
K2 O8 2.703306 1_555
K2 O12 2.738205 1_555
K2 O6 2.790617 1_555
K2 O4 2.861069 1_555
K2 O3 2.973355 1_555
K3 O7 2.704315 1_555
K3 O0 2.727801 1_554
K3 O14 2.746541 1_455
K3 O9 2.913452 1_555
K3 O14 2.921173 1_555
K3 O5 3.091539 1_545
K4 O1 2.809417 1_655
K4 O1 2.820894 1_555
K4 O8 2.821080 1_555
K4 O6 2.888678 1_555
K4 O15 2.894281 1_556
K5 O7 2.476526 1_555
K5 O11 2.754484 1_555
K5 O3 2.827568 1_555
K6 O13 2.689528 1_545
K6 O0 2.712867 1_655
K6 O4 2.870139 1_555
K6 O4 2.881547 1_655
K7 O15 2.659418 1_555
K7 O5 2.854258 1_555
K7 O5 2.860020 1_655
K7 O14 3.020345 1_565
K7 O2 3.038040 1_665
K7 O11 3.108859 1_555
K7 O10 3.263362 1_564
Li0 O6 1.988432 1_555
Li0 O1 2.076256 1_555
Li0 O12 2.089954 1_455
Li0 O13 2.223622 1_455
Li1 O7 1.941497 1_556
Li1 O0 1.996327 1_555
Li1 O8 2.008426 1_555
Li1 O1 2.065696 1_555
Li2 O13 1.942599 1_455
Li2 O6 1.978878 1_555
Li2 O4 2.073158 1_565
Li2 O2 2.153323 1_565
Li3 O8 1.966437 1_555
Li3 O4 1.967252 1_555
Li3 O10 2.025602 1_555
Li3 O0 2.052020 1_555
Li4 O11 1.941165 1_555
Li4 O2 1.981260 1_565
Li4 O5 2.024015 1_555
Li5 O10 1.944295 1_555
Li5 O13 2.020771 1_545
Li5 O4 2.067579 1_555
Li5 O6 2.075699 1_545
Li6 O15 1.946430 1_555
Li6 O7 1.976984 1_555
Li6 O14 2.036554 1_555
Li6 O8 2.173001 1_554
Li7 O9 1.961627 1_555
Li7 O2 1.978722 1_655
Li7 O11 2.020244 1_545
Li7 O13 2.209326 1_545
Li8 O9 1.964962 1_555
Li8 O3 2.077956 1_655
Li8 O14 2.103759 1_555
Li8 O2 2.212965 1_655
Li9 O3 1.761167 1_655
Li9 O12 1.773786 1_555
Fe0 O9 1.897251 1_555
Fe0 O3 1.910203 1_555
Fe0 O2 1.919542 1_555
Fe0 O4 1.922456 1_555
Fe1 O11 1.874936 1_555
Fe1 O13 1.904231 1_555
Fe1 O6 1.909755 1_555
Fe1 O12 1.930826 1_555
Fe2 O15 1.801274 1_455
Fe2 O7 1.807927 1_555
Fe2 O5 1.850829 1_555
Fe2 O1 1.906963 1_554
Fe3 O14 1.834570 1_556
Fe3 O10 1.844897 1_555
Fe3 O0 1.848585 1_655
Fe3 O8 1.866718 1_555
