# generated using pymatgen
data_Li2TiTeO6
_symmetry_space_group_name_H-M   'P 1'
_cell_length_a   4.99111900
_cell_length_b   5.13887700
_cell_length_c   8.49621200
_cell_angle_alpha   90.00000000
_cell_angle_beta   90.00000000
_cell_angle_gamma   90.00000000
_symmetry_Int_Tables_number   1
_chemical_formula_structural   Li2TiTeO6
_chemical_formula_sum   'Li4 Ti2 Te2 O12'
_cell_volume   217.91718893
_cell_formula_units_Z   2
loop_
 _symmetry_equiv_pos_site_id
 _symmetry_equiv_pos_as_xyz
  1  'x, y, z'
loop_
 _atom_site_type_symbol
 _atom_site_label
 _atom_site_symmetry_multiplicity
 _atom_site_fract_x
 _atom_site_fract_y
 _atom_site_fract_z
 _atom_site_occupancy
  Li  Li0  1  0.00000000  0.00000000  0.30241800  1
  Li  Li1  1  0.50000000  0.00000000  0.17834500  1
  Li  Li2  1  0.00000000  0.50000000  0.67834500  1
  Li  Li3  1  0.50000000  0.50000000  0.80241800  1
  Ti  Ti0  1  0.00000000  0.00000000  0.89128200  1
  Ti  Ti1  1  0.50000000  0.50000000  0.39128200  1
  Te  Te0  1  0.50000000  0.00000000  0.58639100  1
  Te  Te1  1  0.00000000  0.50000000  0.08639100  1
  O  O0  1  0.25708200  0.14656700  0.74383500  1
  O  O1  1  0.29744500  0.17474800  0.41663300  1
  O  O2  1  0.19894400  0.17930200  0.07504500  1
  O  O3  1  0.69894400  0.32069800  0.57504500  1
  O  O4  1  0.79744500  0.32525200  0.91663300  1
  O  O5  1  0.75708200  0.35343300  0.24383500  1
  O  O6  1  0.24291800  0.64656700  0.24383500  1
  O  O7  1  0.20255500  0.67474800  0.91663300  1
  O  O8  1  0.30105600  0.67930200  0.57504500  1
  O  O9  1  0.80105600  0.82069800  0.07504500  1
  O  O10  1  0.70255500  0.82525200  0.41663300  1
  O  O11  1  0.74291800  0.85343300  0.74383500  1
loop_
_geom_bond_atom_site_label_1
_geom_bond_atom_site_label_2
_geom_bond_distance
_geom_bond_site_symmetry_2
Li0 O10 1.987982 1_445
Li0 O1 1.987982 1_555
Li0 O5 2.239752 1_455
Li0 O6 2.239752 1_545
Li0 O2 2.359415 1_555
Li0 O9 2.359415 1_445
Li1 O9 1.969037 1_545
Li1 O2 1.969037 1_555
Li1 O6 2.292329 1_545
Li1 O5 2.292329 1_555
Li1 O10 2.434600 1_545
Li1 O1 2.434600 1_555
Li2 O3 1.969037 1_455
Li2 O8 1.969037 1_555
Li2 O0 2.292329 1_555
Li2 O11 2.292329 1_455
Li2 O4 2.434600 1_455
Li2 O7 2.434600 1_555
Li3 O7 1.987982 1_555
Li3 O4 1.987982 1_555
Li3 O11 2.239752 1_555
Li3 O0 2.239752 1_555
Li3 O3 2.359415 1_555
Li3 O8 2.359415 1_555
O0 Ti0 1.945011 1_555
O0 Te0 1.956187 1_555
O1 Ti1 1.965234 1_555
O1 Te0 1.977049 1_555
O2 Te1 1.926459 1_555
O2 Ti0 2.067022 1_554
O3 Te0 1.926459 1_555
O3 Ti1 2.067022 1_555
O4 Ti0 1.965234 1_655
O4 Te1 1.977049 1_656
O5 Ti1 1.945011 1_555
O5 Te1 1.956187 1_655
O6 Ti1 1.945011 1_555
O6 Te1 1.956187 1_555
O7 Ti0 1.965234 1_565
O7 Te1 1.977049 1_556
O8 Te0 1.926459 1_565
O8 Ti1 2.067022 1_555
O9 Te1 1.926459 1_655
O9 Ti0 2.067022 1_664
O10 Ti1 1.965234 1_555
O10 Te0 1.977049 1_565
O11 Ti0 1.945011 1_665
O11 Te0 1.956187 1_565
