# generated using pymatgen
data_CaHfO3
_symmetry_space_group_name_H-M   'P 1'
_cell_length_a   5.54646636
_cell_length_b   5.72177289
_cell_length_c   7.94978423
_cell_angle_alpha   90.00000000
_cell_angle_beta   90.00000000
_cell_angle_gamma   90.00000000
_symmetry_Int_Tables_number   1
_chemical_formula_structural   CaHfO3
_chemical_formula_sum   'Ca4 Hf4 O12'
_cell_volume   252.29133819
_cell_formula_units_Z   4
loop_
 _symmetry_equiv_pos_site_id
 _symmetry_equiv_pos_as_xyz
  1  'x, y, z'
loop_
 _atom_site_type_symbol
 _atom_site_label
 _atom_site_symmetry_multiplicity
 _atom_site_fract_x
 _atom_site_fract_y
 _atom_site_fract_z
 _atom_site_occupancy
  Ca  Ca0  1  0.01273086  0.94973653  0.75000000  1
  Ca  Ca1  1  0.48726914  0.44973653  0.75000000  1
  Ca  Ca2  1  0.51273086  0.55026347  0.25000000  1
  Ca  Ca3  1  0.98726914  0.05026347  0.25000000  1
  Hf  Hf0  1  -0.00000000  0.50000000  -0.00000000  1
  Hf  Hf1  1  -0.00000000  0.50000000  0.50000000  1
  Hf  Hf2  1  0.50000000  0.00000000  -0.00000000  1
  Hf  Hf3  1  0.50000000  0.00000000  0.50000000  1
  O  O0  1  0.10088503  0.46355889  0.25000000  1
  O  O1  1  0.19967153  0.20205897  0.55327561  1
  O  O2  1  0.19967153  0.20205897  0.94672439  1
  O  O3  1  0.30032847  0.70205897  0.55327561  1
  O  O4  1  0.30032847  0.70205897  0.94672439  1
  O  O5  1  0.39911497  0.96355889  0.25000000  1
  O  O6  1  0.60088503  0.03644111  0.75000000  1
  O  O7  1  0.69967153  0.29794103  0.05327561  1
  O  O8  1  0.69967153  0.29794103  0.44672439  1
  O  O9  1  0.80032847  0.79794103  0.05327561  1
  O  O10  1  0.80032847  0.79794103  0.44672439  1
  O  O11  1  0.89911497  0.53644111  0.75000000  1
loop_
_geom_bond_atom_site_label_1
_geom_bond_atom_site_label_2
_geom_bond_distance
_geom_bond_site_symmetry_2
Ca0 O6 2.337540 1_465
Ca0 O2 2.367546 1_565
Ca0 O1 2.367546 1_565
Ca0 O11 2.447306 1_455
Ca0 O3 2.645499 1_555
Ca0 O4 2.645499 1_555
Ca0 O10 2.820469 1_455
Ca0 O9 2.820469 1_456
Ca1 O11 2.337540 1_555
Ca1 O3 2.367546 1_555
Ca1 O4 2.367546 1_555
Ca1 O6 2.447306 1_555
Ca1 O2 2.645499 1_555
Ca1 O1 2.645499 1_555
Ca1 O7 2.820469 1_556
Ca1 O8 2.820469 1_555
Ca2 O0 2.337540 1_555
Ca2 O7 2.367546 1_555
Ca2 O8 2.367546 1_555
Ca2 O5 2.447306 1_555
Ca2 O9 2.645499 1_555
Ca2 O10 2.645499 1_555
Ca2 O4 2.820469 1_554
Ca2 O3 2.820469 1_555
Ca3 O5 2.337540 1_645
Ca3 O9 2.367546 1_545
Ca3 O10 2.367546 1_545
Ca3 O0 2.447306 1_655
Ca3 O8 2.645499 1_555
Ca3 O7 2.645499 1_555
Ca3 O2 2.820469 1_654
Ca3 O1 2.820469 1_655
Hf0 O7 2.071422 1_455
Hf0 O4 2.071422 1_554
Hf0 O11 2.075216 1_454
Hf0 O0 2.075216 1_555
Hf0 O2 2.076547 1_554
Hf0 O9 2.076547 1_455
Hf1 O8 2.071422 1_455
Hf1 O3 2.071422 1_555
Hf1 O11 2.075216 1_455
Hf1 O0 2.075216 1_555
Hf1 O1 2.076547 1_555
Hf1 O10 2.076547 1_455
Hf2 O9 2.071422 1_545
Hf2 O2 2.071422 1_554
Hf2 O6 2.075216 1_554
Hf2 O5 2.075216 1_545
Hf2 O7 2.076547 1_555
Hf2 O4 2.076547 1_544
Hf3 O10 2.071422 1_545
Hf3 O1 2.071422 1_555
Hf3 O5 2.075216 1_545
Hf3 O6 2.075216 1_555
Hf3 O8 2.076547 1_555
Hf3 O3 2.076547 1_545
