# generated using pymatgen
data_Li2Ti(CoO3)2
_symmetry_space_group_name_H-M   'P 1'
_cell_length_a   5.12164857
_cell_length_b   5.12164857
_cell_length_c   10.04562400
_cell_angle_alpha   90.00000000
_cell_angle_beta   90.00000000
_cell_angle_gamma   119.66101765
_symmetry_Int_Tables_number   1
_chemical_formula_structural   Li2Ti(CoO3)2
_chemical_formula_sum   'Li4 Ti2 Co4 O12'
_cell_volume   228.98153266
_cell_formula_units_Z   2
loop_
 _symmetry_equiv_pos_site_id
 _symmetry_equiv_pos_as_xyz
  1  'x, y, z'
loop_
 _atom_site_type_symbol
 _atom_site_label
 _atom_site_symmetry_multiplicity
 _atom_site_fract_x
 _atom_site_fract_y
 _atom_site_fract_z
 _atom_site_occupancy
  Li  Li0  1  0.15834400  0.65834400  0.75000000  1
  Li  Li1  1  0.34165600  0.84165600  0.25000000  1
  Li  Li2  1  0.65834400  0.15834400  0.75000000  1
  Li  Li3  1  0.84165600  0.34165600  0.25000000  1
  Ti  Ti0  1  0.00000000  0.00000000  0.00000000  1
  Ti  Ti1  1  0.50000000  0.50000000  0.50000000  1
  Co  Co0  1  0.33683700  0.66316300  0.00000000  1
  Co  Co1  1  0.83683700  0.16316300  0.50000000  1
  Co  Co2  1  0.16316300  0.83683700  0.50000000  1
  Co  Co3  1  0.66316300  0.33683700  0.00000000  1
  O  O0  1  0.17771700  0.17771700  0.59890400  1
  O  O1  1  0.32228300  0.32228300  0.09890400  1
  O  O2  1  0.67771700  0.67771700  0.90109600  1
  O  O3  1  0.98990600  0.32740600  0.89219100  1
  O  O4  1  0.82228300  0.82228300  0.40109600  1
  O  O5  1  0.17259400  0.51009400  0.39219100  1
  O  O6  1  0.48990600  0.82740600  0.60780900  1
  O  O7  1  0.67259400  0.01009400  0.10780900  1
  O  O8  1  0.01009400  0.67259400  0.10780900  1
  O  O9  1  0.32740600  0.98990600  0.89219100  1
  O  O10  1  0.51009400  0.17259400  0.39219100  1
  O  O11  1  0.82740600  0.48990600  0.60780900  1
loop_
_geom_bond_atom_site_label_1
_geom_bond_atom_site_label_2
_geom_bond_distance
_geom_bond_site_symmetry_2
Li0 O11 2.051876 1_455
Li0 O3 2.051876 1_455
Li0 O9 2.053890 1_555
Li0 O6 2.053890 1_555
Li1 O10 2.051876 1_565
Li1 O7 2.051876 1_565
Li1 O5 2.053890 1_555
Li1 O8 2.053890 1_555
Li2 O6 2.051876 1_545
Li2 O9 2.051876 1_545
Li2 O3 2.053890 1_555
Li2 O11 2.053890 1_555
Li3 O8 2.051876 1_655
Li3 O5 2.051876 1_655
Li3 O10 2.053890 1_555
Li3 O7 2.053890 1_555
Co0 O1 1.977866 1_555
Co0 O2 1.977866 1_554
Co0 O8 2.013882 1_555
Co0 O9 2.013882 1_554
Co0 O7 2.064724 1_565
Co0 O3 2.064724 1_454
Co1 O0 1.977866 1_655
Co1 O4 1.977866 1_545
Co1 O10 2.013882 1_555
Co1 O11 2.013882 1_555
Co1 O5 2.064724 1_655
Co1 O6 2.064724 1_545
Co2 O0 1.977866 1_565
Co2 O4 1.977866 1_455
Co2 O5 2.013882 1_555
Co2 O6 2.013882 1_555
Co2 O10 2.064724 1_565
Co2 O11 2.064724 1_455
Co3 O2 1.977866 1_554
Co3 O1 1.977866 1_555
Co3 O3 2.013882 1_554
Co3 O7 2.013882 1_555
Co3 O8 2.064724 1_655
Co3 O9 2.064724 1_544
O0 Ti1 1.933820 1_555
O1 Ti0 1.933820 1_555
O2 Ti0 1.933820 1_666
O3 Ti0 2.018226 1_656
O4 Ti1 1.933820 1_555
O5 Ti1 2.018226 1_555
O6 Ti1 2.018226 1_555
O7 Ti0 2.018226 1_655
O8 Ti0 2.018226 1_565
O9 Ti0 2.018226 1_566
O10 Ti1 2.018226 1_555
O11 Ti1 2.018226 1_555
