# generated using pymatgen
data_Ca5Mn8O13
_symmetry_space_group_name_H-M   'P 1'
_cell_length_a   3.29077540
_cell_length_b   3.29077540
_cell_length_c   34.55198299
_cell_angle_alpha   92.72949424
_cell_angle_beta   90.00000000
_cell_angle_gamma   120.00000000
_symmetry_Int_Tables_number   1
_chemical_formula_structural   Ca5Mn8O13
_chemical_formula_sum   'Ca5 Mn8 O13'
_cell_volume   323.55083462
_cell_formula_units_Z   1
loop_
 _symmetry_equiv_pos_site_id
 _symmetry_equiv_pos_as_xyz
  1  'x, y, z'
loop_
 _atom_site_type_symbol
 _atom_site_label
 _atom_site_symmetry_multiplicity
 _atom_site_fract_x
 _atom_site_fract_y
 _atom_site_fract_z
 _atom_site_occupancy
  Ca  Ca0  1  0.46102539  0.92205178  0.38307718  1
  Ca  Ca1  1  0.53729659  0.07459219  0.61188878  1
  Ca  Ca2  1  0.92178993  0.84357986  0.76536979  1
  Ca  Ca3  1  0.31001569  0.62003139  0.93004808  1
  Ca  Ca4  1  0.61587165  0.23174430  0.84761595  1
  Mn  Mn0  1  0.00242493  0.00484987  0.00727480  1
  Mn  Mn1  1  0.69364836  0.38729573  0.08094409  1
  Mn  Mn2  1  0.38501211  0.77002422  0.15503632  1
  Mn  Mn3  1  0.07652179  0.15304357  0.22956436  1
  Mn  Mn4  1  0.76814087  0.53628275  0.30442362  1
  Mn  Mn5  1  0.15374954  0.30749908  0.46124862  1
  Mn  Mn6  1  0.84495818  0.68991537  0.53487355  1
  Mn  Mn7  1  0.22955561  0.45911122  0.68866682  1
  O  O0  1  0.34797993  0.69596086  0.04394080  1
  O  O1  1  0.03926194  0.07852387  0.11778581  1
  O  O2  1  0.73070913  0.46141926  0.19212839  1
  O  O3  1  0.42229312  0.84458623  0.26687935  1
  O  O4  1  0.11393237  0.22786474  0.34179811  1
  O  O5  1  0.80804935  0.61609871  0.42414806  1
  O  O6  1  0.19055693  0.38111387  0.57167080  1
  O  O7  1  0.49941902  0.99883805  0.49825607  1
  O  O8  1  0.88415235  0.76830369  0.65245604  1
  O  O9  1  0.57505586  0.15011173  0.72516759  1
  O  O10  1  0.26884736  0.53769372  0.80654108  1
  O  O11  1  0.96290970  0.92582040  0.88873010  1
  O  O12  1  0.65682227  0.31364354  0.97046581  1
loop_
_geom_bond_atom_site_label_1
_geom_bond_atom_site_label_2
_geom_bond_distance
_geom_bond_site_symmetry_2
Ca0 O5 2.370112 1_455
Ca0 O5 2.370112 1_565
Ca0 O5 2.370114 1_555
Ca0 O4 2.374411 1_565
Ca0 O4 2.374414 1_665
Ca0 O4 2.374416 1_555
Ca1 O6 2.352639 1_545
Ca1 O6 2.352639 1_655
Ca1 O6 2.352641 1_555
Ca1 O8 2.359767 1_555
Ca1 O8 2.359767 1_445
Ca1 O8 2.359767 1_545
Ca2 O9 2.352319 1_665
Ca2 O9 2.352319 1_555
Ca2 O9 2.352319 1_565
Ca2 O10 2.372185 1_555
Ca2 O10 2.372185 1_665
Ca2 O10 2.372187 1_655
Ca3 O12 2.356709 1_455
Ca3 O12 2.356711 1_565
Ca3 O12 2.356711 1_555
Ca3 O11 2.375217 1_445
Ca3 O11 2.375219 1_555
Ca3 O11 2.375221 1_455
Ca4 O10 2.370192 1_555
Ca4 O10 2.370197 1_655
Ca4 O10 2.370197 1_545
Ca4 O11 2.371005 1_555
Ca4 O11 2.371005 1_445
Ca4 O11 2.371005 1_545
Mn0 O0 2.282513 1_545
Mn0 O0 2.282516 1_555
Mn0 O0 2.282516 1_445
Mn0 O12 2.285251 1_454
Mn0 O12 2.285253 1_554
Mn0 O12 2.285253 1_444
Mn1 O1 2.285879 1_655
Mn1 O1 2.285881 1_555
Mn1 O1 2.285881 1_665
Mn1 O0 2.288983 1_655
Mn1 O0 2.288983 1_545
Mn1 O0 2.288987 1_555
Mn2 O2 2.290692 1_555
Mn2 O2 2.290695 1_565
Mn2 O2 2.290695 1_455
Mn2 O1 2.293752 1_565
Mn2 O1 2.293752 1_665
Mn2 O1 2.293752 1_555
Mn3 O3 2.294997 1_555
Mn3 O3 2.295000 1_445
Mn3 O3 2.295000 1_545
Mn3 O2 2.297341 1_555
Mn3 O2 2.297344 1_445
Mn3 O2 2.297344 1_455
Mn4 O4 2.296149 1_665
Mn4 O4 2.296151 1_555
Mn4 O4 2.296153 1_655
Mn4 O3 2.299444 1_555
Mn4 O3 2.299446 1_655
Mn4 O3 2.299446 1_545
Mn5 O7 2.289063 1_545
Mn5 O7 2.289063 1_445
Mn5 O7 2.289066 1_555
Mn5 O5 2.290857 1_445
Mn5 O5 2.290857 1_555
Mn5 O5 2.290857 1_455
Mn6 O7 2.281585 1_545
Mn6 O7 2.281588 1_655
Mn6 O7 2.281590 1_555
Mn6 O6 2.285026 1_655
Mn6 O6 2.285028 1_555
Mn6 O6 2.285028 1_665
Mn7 O8 2.273847 1_455
Mn7 O8 2.273850 1_555
Mn7 O8 2.273850 1_445
Mn7 O9 2.279361 1_555
Mn7 O9 2.279361 1_565
Mn7 O9 2.279361 1_455
