# generated using pymatgen
data_Fe23O32
_symmetry_space_group_name_H-M   'P 1'
_cell_length_a   8.41857200
_cell_length_b   8.45028182
_cell_length_c   8.46130407
_cell_angle_alpha   90.40275259
_cell_angle_beta   90.06718014
_cell_angle_gamma   90.17142080
_symmetry_Int_Tables_number   1
_chemical_formula_structural   Fe23O32
_chemical_formula_sum   'Fe23 O32'
_cell_volume   601.91330487
_cell_formula_units_Z   1
loop_
 _symmetry_equiv_pos_site_id
 _symmetry_equiv_pos_as_xyz
  1  'x, y, z'
loop_
 _atom_site_type_symbol
 _atom_site_label
 _atom_site_symmetry_multiplicity
 _atom_site_fract_x
 _atom_site_fract_y
 _atom_site_fract_z
 _atom_site_occupancy
  Fe  Fe0  1  0.50748700  0.00237500  0.50321300  1
  Fe  Fe1  1  0.87095600  0.12522400  0.36934700  1
  Fe  Fe2  1  0.12159600  0.12385100  0.62445700  1
  Fe  Fe3  1  0.38303800  0.12885400  0.88244000  1
  Fe  Fe4  1  0.24048600  0.25185800  0.24862700  1
  Fe  Fe5  1  0.74840500  0.24743500  0.75178000  1
  Fe  Fe6  1  0.87241700  0.37314000  0.12441800  1
  Fe  Fe7  1  0.12422100  0.37572600  0.87602400  1
  Fe  Fe8  1  0.62466000  0.36558700  0.36638600  1
  Fe  Fe9  1  0.37908100  0.37597900  0.62530800  1
  Fe  Fe10  1  0.00196200  0.49460100  0.49570900  1
  Fe  Fe11  1  0.50678000  0.50316000  0.00222600  1
  Fe  Fe12  1  0.12320800  0.62474700  0.12505900  1
  Fe  Fe13  1  0.87601100  0.62409600  0.87472000  1
  Fe  Fe14  1  0.37696200  0.62572900  0.37205400  1
  Fe  Fe15  1  0.62731100  0.62511400  0.62480000  1
  Fe  Fe16  1  0.74871200  0.75109600  0.24445300  1
  Fe  Fe17  1  0.24925500  0.75048300  0.75177300  1
  Fe  Fe18  1  0.12251900  0.87485700  0.37248800  1
  Fe  Fe19  1  0.87295200  0.87322600  0.62343800  1
  Fe  Fe20  1  0.37926600  0.88289100  0.12852900  1
  Fe  Fe21  1  0.62690600  0.87718200  0.87942700  1
  Fe  Fe22  1  0.99826300  0.00206800  0.00854000  1
  O  O0  1  0.11106200  0.11970700  0.38379900  1
  O  O1  1  0.35450200  0.11324900  0.11557300  1
  O  O2  1  0.61442900  0.10575200  0.86437400  1
  O  O3  1  0.13122100  0.12787000  0.86459100  1
  O  O4  1  0.88467300  0.12781500  0.60836700  1
  O  O5  1  0.89133600  0.14478200  0.14284100  1
  O  O6  1  0.64428900  0.12892300  0.38725700  1
  O  O7  1  0.36407500  0.13656700  0.63057100  1
  O  O8  1  0.87125500  0.36307300  0.36100700  1
  O  O9  1  0.13593200  0.36769200  0.63020600  1
  O  O10  1  0.37372500  0.36858600  0.86718900  1
  O  O11  1  0.37670600  0.38054800  0.38273100  1
  O  O12  1  0.64516300  0.38918100  0.12626400  1
  O  O13  1  0.11097100  0.39109700  0.12063600  1
  O  O14  1  0.87645400  0.38266400  0.88906600  1
  O  O15  1  0.61492100  0.37798000  0.62717700  1
  O  O16  1  0.88918500  0.61098100  0.11957200  1
  O  O17  1  0.61233100  0.62381300  0.37707500  1
  O  O18  1  0.36861100  0.61434400  0.61443300  1
  O  O19  1  0.88261500  0.61987600  0.63745900  1
  O  O20  1  0.11738600  0.62334200  0.88973000  1
  O  O21  1  0.13109800  0.62856300  0.35833800  1
  O  O22  1  0.35865400  0.63118100  0.13148900  1
  O  O23  1  0.63573000  0.64082500  0.87244200  1
  O  O24  1  0.13367300  0.85787200  0.12658500  1
  O  O25  1  0.86360500  0.86688800  0.88189900  1
  O  O26  1  0.62763700  0.87193300  0.64426100  1
  O  O27  1  0.61243800  0.86068700  0.10482800  1
  O  O28  1  0.37408900  0.86800400  0.36671400  1
  O  O29  1  0.87674500  0.88953500  0.37028700  1
  O  O30  1  0.12091600  0.88140400  0.62071600  1
  O  O31  1  0.38711500  0.88098600  0.88230800  1
loop_
_geom_bond_atom_site_label_1
_geom_bond_atom_site_label_2
_geom_bond_distance
_geom_bond_site_symmetry_2
Fe0 O6 1.855416 1_555
Fe0 O26 1.919577 1_545
Fe0 O28 1.963491 1_545
Fe0 O7 1.974542 1_555
Fe1 O6 1.914728 1_555
Fe1 O5 1.932593 1_555
Fe1 O29 1.992452 1_545
Fe1 O8 2.011619 1_555
Fe1 O4 2.025541 1_555
Fe1 O0 2.025598 1_655
Fe2 O4 1.999432 1_455
Fe2 O3 2.033408 1_555
Fe2 O0 2.038157 1_555
Fe2 O7 2.044407 1_555
Fe2 O30 2.048758 1_545
Fe2 O9 2.063925 1_555
Fe3 O2 1.964348 1_555
Fe3 O1 1.992703 1_556
Fe3 O10 2.032555 1_555
Fe3 O31 2.094931 1_545
Fe3 O3 2.125123 1_555
Fe3 O7 2.138389 1_555
Fe4 O1 1.884515 1_555
Fe4 O0 1.938020 1_555
Fe4 O11 1.938390 1_555
Fe4 O13 1.941360 1_555
Fe5 O15 1.900598 1_555
Fe5 O2 1.903591 1_555
Fe5 O14 1.946347 1_555
Fe5 O4 1.950189 1_555
Fe6 O12 1.918429 1_555
Fe6 O5 1.944062 1_555
Fe6 O14 1.993901 1_554
Fe6 O8 2.004290 1_555
Fe6 O13 2.013864 1_655
Fe6 O16 2.015062 1_555
Fe7 O13 2.076047 1_556
Fe7 O9 2.083031 1_555
Fe7 O14 2.089867 1_455
Fe7 O20 2.095788 1_555
Fe7 O3 2.097014 1_555
Fe7 O10 2.102916 1_555
Fe8 O6 2.016154 1_555
Fe8 O12 2.050328 1_555
Fe8 O8 2.076699 1_555
Fe8 O11 2.096291 1_555
Fe8 O17 2.186101 1_555
Fe8 O15 2.210009 1_555
Fe9 O15 1.985501 1_555
Fe9 O18 2.019182 1_555
Fe9 O7 2.027467 1_555
Fe9 O9 2.048433 1_555
Fe9 O10 2.048566 1_555
Fe9 O11 2.053227 1_555
Fe10 O19 1.886800 1_455
Fe10 O8 1.927977 1_455
Fe10 O9 1.933537 1_555
Fe10 O21 1.956646 1_555
Fe11 O12 1.845107 1_555
Fe11 O23 1.936717 1_554
Fe11 O10 1.955637 1_554
Fe11 O22 1.978950 1_555
Fe12 O24 1.971629 1_555
Fe12 O16 1.973696 1_455
Fe12 O21 1.974917 1_555
Fe12 O13 1.976875 1_555
Fe12 O22 1.983374 1_555
Fe12 O20 1.991687 1_554
Fe13 O19 2.008441 1_555
Fe13 O23 2.028257 1_555
Fe13 O20 2.035881 1_655
Fe13 O14 2.044642 1_555
Fe13 O25 2.055105 1_555
Fe13 O16 2.078356 1_556
Fe14 O17 1.981993 1_555
Fe14 O22 2.041993 1_555
Fe14 O28 2.048323 1_555
Fe14 O18 2.055049 1_555
Fe14 O21 2.073158 1_555
Fe14 O11 2.074446 1_555
Fe15 O15 2.090883 1_555
Fe15 O26 2.091019 1_555
Fe15 O17 2.099669 1_555
Fe15 O23 2.099745 1_555
Fe15 O19 2.152440 1_555
Fe15 O18 2.181149 1_555
Fe16 O27 1.894214 1_555
Fe16 O29 1.906882 1_555
Fe16 O17 1.935693 1_555
Fe16 O16 1.977530 1_555
Fe17 O30 1.908547 1_555
Fe17 O18 1.916864 1_555
Fe17 O31 1.937839 1_555
Fe17 O20 1.939802 1_555
Fe18 O0 2.073130 1_565
Fe18 O29 2.073221 1_455
Fe18 O21 2.085326 1_555
Fe18 O24 2.086841 1_555
Fe18 O30 2.100733 1_555
Fe18 O28 2.119436 1_555
Fe19 O26 2.072913 1_555
Fe19 O30 2.088599 1_655
Fe19 O19 2.146775 1_555
Fe19 O29 2.147652 1_555
Fe19 O4 2.157989 1_565
Fe19 O25 2.189450 1_555
Fe20 O1 1.962159 1_565
Fe20 O27 1.982749 1_555
Fe20 O28 2.020673 1_555
Fe20 O24 2.077728 1_555
Fe20 O31 2.084426 1_554
Fe20 O22 2.133894 1_555
Fe21 O27 1.917239 1_556
Fe21 O2 1.939720 1_565
Fe21 O26 1.990011 1_555
Fe21 O25 1.994917 1_555
Fe21 O23 1.999347 1_555
Fe21 O31 2.019223 1_555
Fe22 O5 1.882984 1_555
Fe22 O25 1.926238 1_544
Fe22 O24 1.950544 1_645
Fe22 O3 1.969966 1_654
