# generated using pymatgen
data_Na5Ni2P2(CO7)2
_symmetry_space_group_name_H-M   'P 1'
_cell_length_a   5.19341900
_cell_length_b   8.83324459
_cell_length_c   20.04545142
_cell_angle_alpha   90.06318483
_cell_angle_beta   90.01856176
_cell_angle_gamma   91.40735513
_symmetry_Int_Tables_number   1
_chemical_formula_structural   Na5Ni2P2(CO7)2
_chemical_formula_sum   'Na15 Ni6 P6 C6 O42'
_cell_volume   919.30186672
_cell_formula_units_Z   3
loop_
 _symmetry_equiv_pos_site_id
 _symmetry_equiv_pos_as_xyz
  1  'x, y, z'
loop_
 _atom_site_type_symbol
 _atom_site_label
 _atom_site_symmetry_multiplicity
 _atom_site_fract_x
 _atom_site_fract_y
 _atom_site_fract_z
 _atom_site_occupancy
  Na  Na0  1  0.22415200  0.08232900  0.41621300  1
  Na  Na1  1  0.74724200  0.26498600  0.67092200  1
  Na  Na2  1  0.74749100  0.26426700  0.82938500  1
  Na  Na3  1  0.74799300  0.26394100  0.00371100  1
  Na  Na4  1  0.75131000  0.25840200  0.16232800  1
  Na  Na5  1  0.74591100  0.26684600  0.33622100  1
  Na  Na6  1  0.74361200  0.27156000  0.49749900  1
  Na  Na7  1  0.25395400  0.73420900  0.99736200  1
  Na  Na8  1  0.25423600  0.73293800  0.66366800  1
  Na  Na9  1  0.25233900  0.73531700  0.32941500  1
  Na  Na10  1  0.25639700  0.72855900  0.50235400  1
  Na  Na11  1  0.25427800  0.73392100  0.83617600  1
  Na  Na12  1  0.24861900  0.74135200  0.17102700  1
  Na  Na13  1  0.77572800  0.91794700  0.58345200  1
  Na  Na14  1  0.77613500  0.91893200  0.91690800  1
  Ni  Ni0  1  0.21931500  0.34823000  0.24940400  1
  Ni  Ni1  1  0.22086300  0.34704500  0.91666000  1
  Ni  Ni2  1  0.22102600  0.34620600  0.58367500  1
  Ni  Ni3  1  0.78077000  0.65176200  0.08392100  1
  Ni  Ni4  1  0.77908600  0.65348800  0.41620200  1
  Ni  Ni5  1  0.78096800  0.65241900  0.75005500  1
  P  P0  1  0.28294900  0.41721600  0.41645000  1
  P  P1  1  0.28064100  0.41849300  0.75025800  1
  P  P2  1  0.28053400  0.41898800  0.08328900  1
  P  P3  1  0.71704800  0.58260100  0.91682900  1
  P  P4  1  0.71714600  0.58269600  0.58341200  1
  P  P5  1  0.71997400  0.58136600  0.24976700  1
  C  C0  1  0.28605900  0.06782700  0.24959800  1
  C  C1  1  0.28630500  0.06368400  0.91670300  1
  C  C2  1  0.28709500  0.06242300  0.58334000  1
  C  C3  1  0.71311500  0.93748000  0.41662200  1
  C  C4  1  0.71386200  0.93207700  0.08372900  1
  C  C5  1  0.71407200  0.93345700  0.75003300  1
  O  O0  1  0.68301500  0.07304300  0.08254500  1
  O  O1  1  0.68165800  0.07433700  0.74989600  1
  O  O2  1  0.68441400  0.08199500  0.41725100  1
  O  O3  1  0.06040400  0.12870200  0.25018800  1
  O  O4  1  0.05972900  0.12119700  0.58227100  1
  O  O5  1  0.05942100  0.12256000  0.91668400  1
  O  O6  1  0.47771000  0.16650900  0.24920800  1
  O  O7  1  0.48576300  0.15601100  0.58378100  1
  O  O8  1  0.48487400  0.15732300  0.91667300  1
  O  O9  1  0.20831600  0.32507400  0.02058800  1
  O  O10  1  0.20812700  0.32497700  0.14575000  1
  O  O11  1  0.20831700  0.32444300  0.81294400  1
  O  O12  1  0.21098400  0.31777200  0.35441200  1
  O  O13  1  0.20962100  0.31805300  0.47824600  1
  O  O14  1  0.20762100  0.32433600  0.68762500  1
  O  O15  1  0.85752700  0.42671100  0.24939400  1
  O  O16  1  0.85802600  0.43096400  0.58387700  1
  O  O17  1  0.85623200  0.43032400  0.91677500  1
  O  O18  1  0.57987500  0.45370800  0.08301800  1
  O  O19  1  0.58005400  0.45047300  0.41676300  1
  O  O20  1  0.57861400  0.45385400  0.75032200  1
  O  O21  1  0.42056500  0.54635300  0.25000900  1
  O  O22  1  0.41954900  0.55008800  0.91676600  1
  O  O23  1  0.42002200  0.54929500  0.58318500  1
  O  O24  1  0.14295500  0.57347100  0.08366200  1
  O  O25  1  0.14145200  0.57237000  0.75017900  1
  O  O26  1  0.14230300  0.56905900  0.41610400  1
  O  O27  1  0.79203800  0.67524100  0.18720500  1
  O  O28  1  0.79229600  0.67515700  0.31238800  1
  O  O29  1  0.78920600  0.68251400  0.64531100  1
  O  O30  1  0.78955700  0.68206200  0.97877100  1
  O  O31  1  0.79002100  0.68183400  0.52158800  1
  O  O32  1  0.79001700  0.68220400  0.85511900  1
  O  O33  1  0.52220100  0.83349400  0.08410900  1
  O  O34  1  0.51452700  0.84385800  0.41617300  1
  O  O35  1  0.52226100  0.83471600  0.75006900  1
  O  O36  1  0.93958600  0.87131000  0.08303900  1
  O  O37  1  0.94047100  0.87883600  0.41773700  1
  O  O38  1  0.93981400  0.87361400  0.75013400  1
  O  O39  1  0.31550000  0.91793700  0.58266400  1
  O  O40  1  0.31689600  0.92689000  0.25088000  1
  O  O41  1  0.31518700  0.91933300  0.91677500  1
loop_
_geom_bond_atom_site_label_1
_geom_bond_atom_site_label_2
_geom_bond_distance
_geom_bond_site_symmetry_2
Na0 O37 2.296205 1_445
Na0 O2 2.390492 1_555
Na0 O12 2.424303 1_555
Na0 O13 2.426849 1_555
Na0 O34 2.620581 1_545
Na0 O2 2.803099 1_455
Na1 O1 2.331565 1_555
Na1 O16 2.343059 1_555
Na1 O7 2.398432 1_555
Na1 O14 2.457858 1_655
Na1 O20 2.479973 1_555
Na1 O4 2.739158 1_655
Na1 O14 2.883265 1_555
Na2 O1 2.331532 1_555
Na2 O17 2.343545 1_555
Na2 O8 2.399168 1_555
Na2 O11 2.461153 1_655
Na2 O20 2.482456 1_555
Na2 O5 2.712213 1_655
Na2 O11 2.881829 1_555
Na3 O0 2.330840 1_555
Na3 O17 2.340645 1_554
Na3 O8 2.393719 1_554
Na3 O9 2.461082 1_655
Na3 O18 2.483216 1_555
Na3 O5 2.704634 1_654
Na3 O9 2.887235 1_555
Na4 O0 2.308608 1_555
Na4 O15 2.348186 1_555
Na4 O6 2.378855 1_555
Na4 O10 2.452989 1_655
Na4 O18 2.525276 1_555
Na4 O3 2.661610 1_655
Na4 O10 2.914702 1_555
Na5 O15 2.307656 1_555
Na5 O2 2.320994 1_555
Na5 O6 2.387950 1_555
Na5 O19 2.458307 1_555
Na5 O12 2.472810 1_655
Na5 O3 2.688105 1_655
Na5 O12 2.848657 1_555
Na6 O16 2.299259 1_555
Na6 O2 2.335477 1_555
Na6 O7 2.400968 1_555
Na6 O19 2.430845 1_555
Na6 O13 2.475280 1_655
Na6 O4 2.730796 1_655
Na6 O13 2.839729 1_555
Na7 O24 2.303637 1_556
Na7 O41 2.316311 1_555
Na7 O33 2.380901 1_556
Na7 O22 2.461434 1_555
Na7 O30 2.472315 1_455
Na7 O36 2.678823 1_456
Na7 O30 2.855109 1_555
Na8 O25 2.308099 1_555
Na8 O39 2.321400 1_555
Na8 O35 2.383065 1_555
Na8 O23 2.457490 1_555
Na8 O29 2.472388 1_455
Na8 O38 2.703974 1_455
Na8 O29 2.848502 1_555
Na9 O40 2.330807 1_555
Na9 O26 2.338390 1_555
Na9 O34 2.393423 1_555
Na9 O28 2.458425 1_455
Na9 O21 2.479856 1_555
Na9 O37 2.731802 1_455
Na9 O28 2.887209 1_555
Na10 O26 2.297440 1_555
Na10 O39 2.335099 1_555
Na10 O34 2.399399 1_555
Na10 O23 2.434286 1_555
Na10 O31 2.477368 1_455
Na10 O37 2.727872 1_455
Na10 O31 2.838156 1_555
Na11 O25 2.303091 1_555
Na11 O41 2.315406 1_555
Na11 O35 2.377608 1_555
Na11 O22 2.461026 1_555
Na11 O32 2.472481 1_455
Na11 O38 2.695625 1_455
Na11 O32 2.855924 1_555
Na12 O40 2.310680 1_555
Na12 O24 2.349650 1_555
Na12 O33 2.380078 1_555
Na12 O27 2.449849 1_455
Na12 O21 2.520241 1_555
Na12 O36 2.664131 1_455
Na12 O27 2.914070 1_555
Na13 O4 2.295506 1_665
Na13 O39 2.390202 1_555
Na13 O29 2.424902 1_555
Na13 O31 2.428005 1_555
Na13 O7 2.616377 1_565
Na13 O39 2.803314 1_655
Na14 O5 2.295617 1_665
Na14 O41 2.393986 1_555
Na14 O32 2.431800 1_555
Na14 O30 2.435840 1_555
Na14 O8 2.622753 1_565
Na14 O41 2.799440 1_655
Ni0 O21 2.016278 1_555
Ni0 O15 2.018637 1_455
Ni0 O10 2.088343 1_555
Ni0 O3 2.088803 1_555
Ni0 O6 2.117375 1_555
Ni0 O12 2.122672 1_555
Ni1 O22 2.047087 1_555
Ni1 O17 2.048317 1_455
Ni1 O11 2.089221 1_555
Ni1 O9 2.093404 1_556
Ni1 O5 2.133852 1_555
Ni1 O8 2.191198 1_555
Ni2 O16 2.045459 1_455
Ni2 O23 2.048251 1_555
Ni2 O14 2.093895 1_555
Ni2 O13 2.128316 1_555
Ni2 O4 2.137984 1_555
Ni2 O7 2.196890 1_555
Ni3 O18 2.014879 1_555
Ni3 O24 2.019966 1_655
Ni3 O27 2.081169 1_555
Ni3 O36 2.088800 1_555
Ni3 O33 2.118040 1_555
Ni3 O30 2.125361 1_554
Ni4 O26 2.045377 1_655
Ni4 O19 2.047786 1_555
Ni4 O28 2.090986 1_555
Ni4 O31 2.127598 1_555
Ni4 O37 2.140941 1_555
Ni4 O34 2.197499 1_555
Ni5 O25 2.017408 1_655
Ni5 O20 2.022459 1_555
Ni5 O38 2.102136 1_555
Ni5 O29 2.117008 1_555
Ni5 O35 2.122368 1_555
Ni5 O32 2.122500 1_555
C0 O40 1.259374 1_545
C0 O3 1.301397 1_555
C0 O6 1.306891 1_555
C1 O41 1.287536 1_545
C1 O5 1.299604 1_555
C1 O8 1.306039 1_555
C2 O39 1.288429 1_545
C2 O4 1.301698 1_555
C2 O7 1.306181 1_555
C3 O2 1.288889 1_565
C3 O37 1.301183 1_555
C3 O34 1.306045 1_555
C4 O0 1.259595 1_565
C4 O36 1.301328 1_555
C4 O33 1.306361 1_555
C5 O1 1.259858 1_565
C5 O38 1.297818 1_555
C5 O35 1.307818 1_555
O9 P2 1.546183 1_555
O10 P2 1.544642 1_555
O11 P1 1.548387 1_555
O12 P0 1.561713 1_555
O13 P0 1.559822 1_555
O14 P1 1.547174 1_555
O15 P5 1.557095 1_555
O16 P4 1.542710 1_555
O17 P3 1.542579 1_555
O18 P2 1.577171 1_555
O19 P0 1.563612 1_555
O20 P1 1.571169 1_555
O21 P5 1.577958 1_555
O22 P3 1.564552 1_555
O23 P4 1.563913 1_555
O24 P2 1.555810 1_555
O25 P1 1.555095 1_555
O26 P0 1.542958 1_555
O27 P5 1.545236 1_555
O28 P5 1.544429 1_555
O29 P4 1.561449 1_555
O30 P3 1.560906 1_555
O31 P4 1.559604 1_555
O32 P3 1.560191 1_555
