# generated using pymatgen
data_Li2Fe3NiO8
_symmetry_space_group_name_H-M   'P 1'
_cell_length_a   5.64228214
_cell_length_b   5.64228214
_cell_length_c   5.82960965
_cell_angle_alpha   61.65878400
_cell_angle_beta   61.65878400
_cell_angle_gamma   60.48942245
_symmetry_Int_Tables_number   1
_chemical_formula_structural   Li2Fe3NiO8
_chemical_formula_sum   'Li2 Fe3 Ni1 O8'
_cell_volume   134.93866936
_cell_formula_units_Z   1
loop_
 _symmetry_equiv_pos_site_id
 _symmetry_equiv_pos_as_xyz
  1  'x, y, z'
loop_
 _atom_site_type_symbol
 _atom_site_label
 _atom_site_symmetry_multiplicity
 _atom_site_fract_x
 _atom_site_fract_y
 _atom_site_fract_z
 _atom_site_occupancy
  Li  Li0  1  0.00000000  0.00000000  0.50000000  1
  Li  Li1  1  0.50000000  0.50000000  0.50000000  1
  Fe  Fe0  1  0.50000000  0.00000000  0.00000000  1
  Fe  Fe1  1  0.50000000  0.50000000  0.00000000  1
  Fe  Fe2  1  0.00000000  0.50000000  0.00000000  1
  Ni  Ni0  1  0.00000000  0.00000000  0.00000000  1
  O  O0  1  0.76224500  0.27343900  0.20967300  1
  O  O1  1  0.26377800  0.26377800  0.20558500  1
  O  O2  1  0.27343900  0.76224500  0.20967300  1
  O  O3  1  0.76236900  0.76236900  0.20136800  1
  O  O4  1  0.23763100  0.23763100  0.79863200  1
  O  O5  1  0.72656100  0.23775500  0.79032700  1
  O  O6  1  0.73622200  0.73622200  0.79441500  1
  O  O7  1  0.23775500  0.72656100  0.79032700  1
loop_
_geom_bond_atom_site_label_1
_geom_bond_atom_site_label_2
_geom_bond_distance
_geom_bond_site_symmetry_2
Li0 O7 2.163768 1_545
Li0 O2 2.163768 1_545
Li0 O5 2.163768 1_455
Li0 O0 2.163768 1_455
Li0 O6 2.169691 1_445
Li0 O1 2.169691 1_555
Li1 O7 2.121572 1_555
Li1 O0 2.121572 1_555
Li1 O5 2.121572 1_555
Li1 O2 2.121572 1_555
Li1 O3 2.163077 1_555
Li1 O4 2.163077 1_555
Fe0 O3 1.888746 1_545
Fe0 O4 1.888746 1_554
Fe0 O5 1.891246 1_554
Fe0 O2 1.891246 1_545
Fe0 O1 1.910637 1_555
Fe0 O6 1.910637 1_544
Fe1 O0 1.920358 1_555
Fe1 O2 1.920358 1_555
Fe1 O5 1.920358 1_554
Fe1 O7 1.920358 1_554
Fe1 O1 1.925123 1_555
Fe1 O6 1.925123 1_554
Fe2 O3 1.888746 1_455
Fe2 O4 1.888746 1_554
Fe2 O7 1.891246 1_554
Fe2 O0 1.891246 1_455
Fe2 O1 1.910637 1_555
Fe2 O6 1.910637 1_454
Ni0 O4 1.937969 1_554
Ni0 O3 1.937969 1_445
Ni0 O2 1.966876 1_545
Ni0 O5 1.966876 1_454
Ni0 O7 1.966876 1_544
Ni0 O0 1.966876 1_455
