# generated using pymatgen
data_LiVFe(P2O7)2
_symmetry_space_group_name_H-M   'P 1'
_cell_length_a   7.26926336
_cell_length_b   8.17001376
_cell_length_c   9.62628671
_cell_angle_alpha   89.70009740
_cell_angle_beta   69.17721196
_cell_angle_gamma   90.69047721
_symmetry_Int_Tables_number   1
_chemical_formula_structural   LiVFe(P2O7)2
_chemical_formula_sum   'Li2 V2 Fe2 P8 O28'
_cell_volume   534.29720665
_cell_formula_units_Z   2
loop_
 _symmetry_equiv_pos_site_id
 _symmetry_equiv_pos_as_xyz
  1  'x, y, z'
loop_
 _atom_site_type_symbol
 _atom_site_label
 _atom_site_symmetry_multiplicity
 _atom_site_fract_x
 _atom_site_fract_y
 _atom_site_fract_z
 _atom_site_occupancy
  Li  Li0  1  0.58365400  0.37217500  0.73903100  1
  Li  Li1  1  0.08365400  0.37217500  0.23903100  1
  V  V0  1  0.97308400  0.51262300  0.75071900  1
  V  V1  1  0.47308400  0.51262300  0.25071900  1
  Fe  Fe0  1  0.03266000  0.00274600  0.23468300  1
  Fe  Fe1  1  0.53266000  0.00274600  0.73468300  1
  P  P0  1  0.45607300  0.18751200  0.05432500  1
  P  P1  1  0.95607300  0.18751200  0.55432500  1
  P  P2  1  0.16078300  0.78202900  0.92870300  1
  P  P3  1  0.66078300  0.78202900  0.42870300  1
  P  P4  1  0.83297900  0.28728200  0.06585900  1
  P  P5  1  0.33297900  0.28728200  0.56585900  1
  P  P6  1  0.54723600  0.69136100  0.93006900  1
  P  P7  1  0.04723600  0.69136100  0.43006900  1
  O  O0  1  0.42096100  0.34659100  0.40318400  1
  O  O1  1  0.92096100  0.34659100  0.90318400  1
  O  O2  1  0.52315300  0.67925000  0.37299500  1
  O  O3  1  0.02315300  0.67925000  0.87299500  1
  O  O4  1  0.31941700  0.05169000  0.13805600  1
  O  O5  1  0.81941700  0.05169000  0.63805600  1
  O  O6  1  0.38475800  0.35667200  0.12579000  1
  O  O7  1  0.88475800  0.35667200  0.62579000  1
  O  O8  1  0.52693900  0.66673600  0.09434700  1
  O  O9  1  0.02693900  0.66673600  0.59434700  1
  O  O10  1  0.74397600  0.43230800  0.16959000  1
  O  O11  1  0.24397600  0.43230800  0.66959000  1
  O  O12  1  0.66351600  0.15549200  0.07777300  1
  O  O13  1  0.16351600  0.15549200  0.57777300  1
  O  O14  1  0.33411500  0.65077300  0.92189500  1
  O  O15  1  0.83411500  0.65077300  0.42189500  1
  O  O16  1  0.25412400  0.92872100  0.82993700  1
  O  O17  1  0.75412400  0.92872100  0.32993700  1
  O  O18  1  0.49807900  0.19525100  0.88715600  1
  O  O19  1  0.99807900  0.19525100  0.38715600  1
  O  O20  1  0.60819500  0.86470200  0.87864200  1
  O  O21  1  0.10819500  0.86470200  0.37864200  1
  O  O22  1  0.67933100  0.55953500  0.83027000  1
  O  O23  1  0.17933100  0.55953500  0.33027000  1
  O  O24  1  0.48449500  0.20228400  0.61498900  1
  O  O25  1  0.98449500  0.20228400  0.11498900  1
  O  O26  1  0.55575700  0.82417000  0.59077800  1
  O  O27  1  0.05575700  0.82417000  0.09077800  1
loop_
_geom_bond_atom_site_label_1
_geom_bond_atom_site_label_2
_geom_bond_distance
_geom_bond_site_symmetry_2
Li0 O18 1.958484 1_555
Li0 O22 2.005236 1_555
Li0 O7 2.075329 1_555
Li0 O24 2.115914 1_555
Li1 O19 1.958484 1_455
Li1 O23 2.005236 1_555
Li1 O6 2.075329 1_555
Li1 O25 2.115914 1_455
Fe0 O27 1.984303 1_545
Fe0 O17 1.987687 1_445
Fe0 O4 1.991935 1_555
Fe0 O21 2.008341 1_545
Fe0 O25 2.094927 1_455
Fe0 O19 2.112453 1_455
Fe1 O26 1.984303 1_545
Fe1 O16 1.987687 1_545
Fe1 O5 1.991935 1_555
Fe1 O20 2.008341 1_545
Fe1 O24 2.094927 1_555
Fe1 O18 2.112453 1_555
O0 P5 1.539025 1_555
O0 V1 1.925898 1_555
O1 P4 1.539025 1_556
O1 V0 1.925898 1_555
O2 P3 1.536074 1_555
O2 V1 1.918495 1_555
O3 P2 1.536074 1_555
O3 V0 1.918495 1_455
O4 P0 1.504215 1_555
O5 P1 1.504215 1_555
O6 P0 1.557470 1_555
O6 V1 2.006782 1_555
O7 P1 1.557470 1_555
O7 V0 2.006782 1_555
O8 P6 1.546965 1_554
O8 V1 1.885151 1_555
O9 P7 1.546965 1_555
O9 V0 1.885151 1_455
O10 P4 1.546330 1_555
O10 V1 1.965023 1_555
O11 P5 1.546330 1_555
O11 V0 1.965023 1_455
O12 P4 1.598841 1_555
O12 P0 1.626100 1_555
O13 P5 1.598841 1_555
O13 P1 1.626100 1_455
O14 P6 1.609607 1_555
O14 P2 1.648163 1_555
O15 P7 1.609607 1_655
O15 P3 1.648163 1_555
O16 P2 1.520030 1_555
O17 P3 1.520030 1_555
O18 P0 1.528377 1_556
O19 P1 1.528377 1_555
O20 P6 1.506196 1_555
O21 P7 1.506196 1_555
O22 P6 1.544299 1_555
O22 V0 2.037974 1_555
O23 P7 1.544299 1_555
O23 V1 2.037974 1_555
O24 P5 1.518008 1_555
O25 P4 1.518008 1_555
O26 P3 1.516801 1_555
O27 P2 1.516801 1_554
