# generated using pymatgen
data_Li4V3NiO8
_symmetry_space_group_name_H-M   'P 1'
_cell_length_a   5.95973510
_cell_length_b   5.95973510
_cell_length_c   5.96472049
_cell_angle_alpha   60.08561379
_cell_angle_beta   60.08561379
_cell_angle_gamma   59.76485079
_symmetry_Int_Tables_number   1
_chemical_formula_structural   Li4V3NiO8
_chemical_formula_sum   'Li4 V3 Ni1 O8'
_cell_volume   149.73042927
_cell_formula_units_Z   1
loop_
 _symmetry_equiv_pos_site_id
 _symmetry_equiv_pos_as_xyz
  1  'x, y, z'
loop_
 _atom_site_type_symbol
 _atom_site_label
 _atom_site_symmetry_multiplicity
 _atom_site_fract_x
 _atom_site_fract_y
 _atom_site_fract_z
 _atom_site_occupancy
  Li  Li0  1  0.50000000  0.50000000  0.50000000  1
  Li  Li1  1  0.50000000  0.00000000  0.50000000  1
  Li  Li2  1  0.00000000  0.50000000  0.50000000  1
  Li  Li3  1  0.00000000  0.00000000  0.50000000  1
  V  V0  1  0.00000000  0.50000000  0.00000000  1
  V  V1  1  0.50000000  0.00000000  0.00000000  1
  V  V2  1  0.50000000  0.50000000  0.00000000  1
  Ni  Ni0  1  0.00000000  0.00000000  0.00000000  1
  O  O0  1  0.74021300  0.74021300  0.76505900  1
  O  O1  1  0.72832400  0.26346600  0.77264900  1
  O  O2  1  0.26346600  0.72832400  0.77264900  1
  O  O3  1  0.25978700  0.25978700  0.23494100  1
  O  O4  1  0.24637400  0.24637400  0.77393800  1
  O  O5  1  0.27167600  0.73653400  0.22735100  1
  O  O6  1  0.73653400  0.27167600  0.22735100  1
  O  O7  1  0.75362600  0.75362600  0.22606200  1
loop_
_geom_bond_atom_site_label_1
_geom_bond_atom_site_label_2
_geom_bond_distance
_geom_bond_site_symmetry_2
Li0 O2 2.114805 1_555
Li0 O1 2.114805 1_555
Li0 O6 2.114805 1_555
Li0 O5 2.114805 1_555
Li0 O7 2.147912 1_555
Li0 O4 2.147912 1_555
Li1 O0 2.128376 1_545
Li1 O3 2.128376 1_555
Li1 O6 2.153891 1_555
Li1 O2 2.153891 1_545
Li1 O4 2.192019 1_555
Li1 O7 2.192019 1_545
Li2 O0 2.128376 1_455
Li2 O3 2.128376 1_555
Li2 O1 2.153891 1_455
Li2 O5 2.153891 1_555
Li2 O4 2.192019 1_555
Li2 O7 2.192019 1_455
Li3 O0 2.196587 1_445
Li3 O3 2.196587 1_555
Li3 O2 2.256560 1_545
Li3 O1 2.256560 1_455
Li3 O5 2.256560 1_545
Li3 O6 2.256560 1_455
Ni0 O4 2.086119 1_554
Ni0 O7 2.086119 1_445
Ni0 O6 2.105186 1_455
Ni0 O5 2.105186 1_545
Ni0 O1 2.105186 1_454
Ni0 O2 2.105186 1_544
O0 V2 2.030972 1_556
O0 V1 2.083561 1_566
O0 V0 2.083561 1_656
O1 V2 1.952471 1_556
O1 V1 2.084128 1_556
O2 V2 1.952471 1_556
O2 V0 2.084128 1_556
O3 V2 2.030972 1_555
O3 V1 2.083561 1_555
O3 V0 2.083561 1_555
O4 V0 2.020358 1_556
O4 V1 2.020358 1_556
O5 V2 1.952471 1_555
O5 V1 2.084128 1_565
O6 V2 1.952471 1_555
O6 V0 2.084128 1_655
O7 V1 2.020358 1_565
O7 V0 2.020358 1_655
