# generated using pymatgen
data_Tm4(B2O5)3
_symmetry_space_group_name_H-M   'P 1'
_cell_length_a   8.08349637
_cell_length_b   8.08349637
_cell_length_c   8.08349580
_cell_angle_alpha   112.27806376
_cell_angle_beta   112.27806376
_cell_angle_gamma   112.27806105
_symmetry_Int_Tables_number   1
_chemical_formula_structural   Tm4(B2O5)3
_chemical_formula_sum   'Tm4 B6 O15'
_cell_volume   358.19442101
_cell_formula_units_Z   1
loop_
 _symmetry_equiv_pos_site_id
 _symmetry_equiv_pos_as_xyz
  1  'x, y, z'
loop_
 _atom_site_type_symbol
 _atom_site_label
 _atom_site_symmetry_multiplicity
 _atom_site_fract_x
 _atom_site_fract_y
 _atom_site_fract_z
 _atom_site_occupancy
  Tm  Tm0  1  0.10090500  0.80037200  0.27615600  1
  Tm  Tm1  1  0.80037200  0.27615600  0.10090500  1
  Tm  Tm2  1  0.99406200  0.99406200  0.99406200  1
  Tm  Tm3  1  0.27615600  0.10090500  0.80037200  1
  B  B0  1  0.26847200  0.49902600  0.19071900  1
  B  B1  1  0.50981200  0.85050200  0.59847200  1
  B  B2  1  0.85050200  0.59847200  0.50981200  1
  B  B3  1  0.49902600  0.19071900  0.26847200  1
  B  B4  1  0.19071900  0.26847200  0.49902600  1
  B  B5  1  0.59847200  0.50981200  0.85050200  1
  O  O0  1  0.80525700  0.71805600  0.98624400  1
  O  O1  1  0.08384600  0.50111100  0.11669700  1
  O  O2  1  0.35906900  0.89344100  0.59278100  1
  O  O3  1  0.47004400  0.68474100  0.40816300  1
  O  O4  1  0.24704300  0.31192300  0.05106700  1
  O  O5  1  0.89344100  0.59278100  0.35906900  1
  O  O6  1  0.98624400  0.80525700  0.71805600  1
  O  O7  1  0.50111100  0.11669700  0.08384600  1
  O  O8  1  0.05106700  0.24704300  0.31192300  1
  O  O9  1  0.68474100  0.40816300  0.47004400  1
  O  O10  1  0.40816300  0.47004400  0.68474100  1
  O  O11  1  0.31192300  0.05106700  0.24704300  1
  O  O12  1  0.11669700  0.08384600  0.50111100  1
  O  O13  1  0.59278100  0.35906900  0.89344100  1
  O  O14  1  0.71805600  0.98624400  0.80525700  1
loop_
_geom_bond_atom_site_label_1
_geom_bond_atom_site_label_2
_geom_bond_distance
_geom_bond_site_symmetry_2
B0 O1 1.391145 1_555
B0 O4 1.396577 1_555
B0 O3 1.404043 1_555
B1 O2 1.377569 1_555
B1 O14 1.381003 1_555
B1 O3 1.414525 1_555
B2 O5 1.377568 1_555
B2 O6 1.381003 1_555
B2 O9 1.414525 1_555
B3 O7 1.391145 1_555
B3 O11 1.396577 1_555
B3 O9 1.404043 1_555
B4 O12 1.391145 1_555
B4 O8 1.396577 1_555
B4 O10 1.404043 1_555
B5 O13 1.377569 1_555
B5 O0 1.381003 1_555
B5 O10 1.414525 1_555
O0 Tm2 2.132903 1_555
O0 Tm0 2.238696 1_656
O1 Tm0 2.186444 1_555
O1 Tm1 2.239787 1_455
O2 Tm0 2.184418 1_555
O2 Tm3 2.376716 1_565
O4 Tm3 2.262021 1_554
O4 Tm2 2.323815 1_444
O5 Tm1 2.184418 1_555
O5 Tm0 2.376716 1_655
O6 Tm2 2.132903 1_555
O6 Tm3 2.238697 1_665
O7 Tm1 2.186444 1_555
O7 Tm3 2.239787 1_554
O8 Tm1 2.262021 1_455
O8 Tm2 2.323814 1_444
O11 Tm0 2.262021 1_545
O11 Tm2 2.323815 1_444
O12 Tm3 2.186444 1_555
O12 Tm0 2.239787 1_545
O13 Tm3 2.184419 1_555
O13 Tm1 2.376716 1_556
O14 Tm2 2.132903 1_555
O14 Tm1 2.238696 1_566
