# generated using pymatgen
data_Fe10O11F9
_symmetry_space_group_name_H-M   'P 1'
_cell_length_a   4.72590300
_cell_length_b   4.72703559
_cell_length_c   15.42406904
_cell_angle_alpha   89.69269659
_cell_angle_beta   89.63115009
_cell_angle_gamma   87.59647828
_symmetry_Int_Tables_number   1
_chemical_formula_structural   Fe10O11F9
_chemical_formula_sum   'Fe10 O11 F9'
_cell_volume   344.25143253
_cell_formula_units_Z   1
loop_
 _symmetry_equiv_pos_site_id
 _symmetry_equiv_pos_as_xyz
  1  'x, y, z'
loop_
 _atom_site_type_symbol
 _atom_site_label
 _atom_site_symmetry_multiplicity
 _atom_site_fract_x
 _atom_site_fract_y
 _atom_site_fract_z
 _atom_site_occupancy
  Fe  Fe0  1  0.00869300  0.98962000  0.99850500  1
  Fe  Fe1  1  0.96719300  0.02020400  0.19433200  1
  Fe  Fe2  1  0.01941600  0.00042100  0.40581400  1
  Fe  Fe3  1  0.00183100  0.04120800  0.60149400  1
  Fe  Fe4  1  0.00005100  0.03837700  0.80066200  1
  Fe  Fe5  1  0.54165000  0.52101700  0.09555100  1
  Fe  Fe6  1  0.48973400  0.46657400  0.49402900  1
  Fe  Fe7  1  0.51148900  0.49172600  0.30467100  1
  Fe  Fe8  1  0.49979900  0.45996200  0.69991800  1
  Fe  Fe9  1  0.48442900  0.46059600  0.90601500  1
  O  O0  1  0.19281500  0.18781200  0.49970400  1
  O  O1  1  0.18620000  0.19933500  0.70083600  1
  O  O2  1  0.18797100  0.17961100  0.90350600  1
  O  O3  1  0.70980100  0.29547400  0.00133600  1
  O  O4  1  0.69200200  0.32606000  0.20087300  1
  O  O5  1  0.70606100  0.29063200  0.39687300  1
  O  O6  1  0.68312800  0.30755800  0.59761700  1
  O  O7  1  0.67885800  0.30402900  0.80299200  1
  O  O8  1  0.31035700  0.69218300  0.00112700  1
  O  O9  1  0.30595600  0.69176100  0.39699400  1
  O  O10  1  0.82211000  0.81813200  0.09809100  1
  F  F0  1  0.20726500  0.20372200  0.10363500  1
  F  F1  1  0.19291400  0.19260900  0.29613000  1
  F  F2  1  0.30195800  0.71598700  0.20270500  1
  F  F3  1  0.29282100  0.69805000  0.60013500  1
  F  F4  1  0.29091200  0.69528800  0.79940400  1
  F  F5  1  0.80362000  0.79880600  0.50148800  1
  F  F6  1  0.81078400  0.81209500  0.29843400  1
  F  F7  1  0.80259300  0.79633300  0.89726800  1
  F  F8  1  0.79759000  0.80481900  0.69986200  1
loop_
_geom_bond_atom_site_label_1
_geom_bond_atom_site_label_2
_geom_bond_distance
_geom_bond_site_symmetry_2
Fe0 O2 1.924876 1_565
Fe0 O10 1.955291 1_456
Fe0 O8 1.960333 1_556
Fe0 O3 1.978899 1_466
Fe1 O4 1.906313 1_555
Fe1 O10 1.915541 1_545
Fe2 O0 1.908738 1_555
Fe2 O9 1.953232 1_545
Fe2 O5 1.980956 1_455
Fe3 O6 1.923171 1_455
Fe3 O1 1.936443 1_555
Fe3 O0 1.944835 1_555
Fe4 O7 1.929300 1_455
Fe4 O1 1.936412 1_555
Fe4 O2 1.957016 1_555
Fe5 O3 1.952072 1_555
Fe5 O10 1.971859 1_555
Fe5 O8 1.975915 1_555
Fe5 O4 1.984195 1_555
Fe6 O0 1.966039 1_555
Fe6 O6 1.975205 1_555
Fe6 O5 1.976065 1_555
Fe6 O9 2.012350 1_555
Fe7 O5 1.923697 1_555
Fe7 O9 1.945496 1_555
Fe7 O4 1.960615 1_555
Fe8 O6 1.923966 1_555
Fe8 O7 1.933743 1_555
Fe8 O1 1.966502 1_555
Fe9 O3 1.960452 1_556
Fe9 O7 1.963120 1_555
Fe9 O2 1.971269 1_555
Fe9 O8 1.988327 1_556
F0 Fe1 2.011426 1_455
F0 Fe0 2.156655 1_544
F0 Fe5 2.226354 1_555
F1 Fe1 2.091802 1_455
F1 Fe2 2.094721 1_555
F1 Fe7 2.113378 1_555
F2 Fe1 2.096999 1_465
F2 Fe7 2.119419 1_555
F2 Fe5 2.183760 1_555
F3 Fe3 2.082248 1_565
F3 Fe8 2.121463 1_555
F3 Fe6 2.157748 1_555
F4 Fe4 2.081605 1_565
F4 Fe8 2.115011 1_555
F4 Fe9 2.164675 1_555
F5 Fe2 2.042802 1_665
F5 Fe3 2.167327 1_665
F5 Fe6 2.208984 1_555
F6 Fe1 2.030045 1_565
F6 Fe7 2.116514 1_555
F6 Fe2 2.149005 1_665
F7 Fe0 2.081168 1_655
F7 Fe4 2.110335 1_665
F7 Fe9 2.234500 1_555
F8 Fe3 2.129719 1_665
F8 Fe4 2.162819 1_665
F8 Fe8 2.197809 1_555
