# generated using pymatgen
data_LiV9O22
_symmetry_space_group_name_H-M   'P 1'
_cell_length_a   21.67578221
_cell_length_b   3.65617700
_cell_length_c   10.28327699
_cell_angle_alpha   90.00000000
_cell_angle_beta   78.41796580
_cell_angle_gamma   90.00000000
_symmetry_Int_Tables_number   1
_chemical_formula_structural   LiV9O22
_chemical_formula_sum   'Li2 V18 O44'
_cell_volume   798.36090161
_cell_formula_units_Z   2
loop_
 _symmetry_equiv_pos_site_id
 _symmetry_equiv_pos_as_xyz
  1  'x, y, z'
loop_
 _atom_site_type_symbol
 _atom_site_label
 _atom_site_symmetry_multiplicity
 _atom_site_fract_x
 _atom_site_fract_y
 _atom_site_fract_z
 _atom_site_occupancy
  Li  Li0  1  0.15843400  0.75000000  0.43977000  1
  Li  Li1  1  0.84156600  0.25000000  0.56022900  1
  V  V0  1  0.02759400  0.25000000  0.38104400  1
  V  V1  1  0.09118400  0.75000000  0.77494400  1
  V  V2  1  0.06188500  0.25000000  0.03287800  1
  V  V3  1  0.25478700  0.75000000  0.80397600  1
  V  V4  1  0.28378200  0.25000000  0.54605300  1
  V  V5  1  0.36733000  0.75000000  0.95854100  1
  V  V6  1  0.31300800  0.25000000  0.19632400  1
  V  V7  1  0.40632800  0.75000000  0.60598600  1
  V  V8  1  0.42939400  0.25000000  0.34827400  1
  V  V9  1  0.57060600  0.75000000  0.65172600  1
  V  V10  1  0.59367200  0.25000000  0.39401400  1
  V  V11  1  0.68699200  0.75000000  0.80367600  1
  V  V12  1  0.63267000  0.25000000  0.04145900  1
  V  V13  1  0.71621800  0.75000000  0.45394700  1
  V  V14  1  0.74521300  0.25000000  0.19602300  1
  V  V15  1  0.93811500  0.75000000  0.96712200  1
  V  V16  1  0.90881600  0.25000000  0.22505600  1
  V  V17  1  0.97240600  0.75000000  0.61895600  1
  O  O0  1  0.00562300  0.75000000  0.42033600  1
  O  O1  1  0.07887000  0.25000000  0.83041700  1
  O  O2  1  0.01247400  0.25000000  0.21058900  1
  O  O3  1  0.09512700  0.75000000  0.61151800  1
  O  O4  1  0.04599000  0.75000000  0.99865800  1
  O  O5  1  0.10425700  0.25000000  0.36301400  1
  O  O6  1  0.17127200  0.75000000  0.78686800  1
  O  O7  1  0.24777500  0.75000000  0.96392800  1
  O  O8  1  0.13104000  0.25000000  0.06490300  1
  O  O9  1  0.21336100  0.25000000  0.50751400  1
  O  O10  1  0.26404400  0.25000000  0.74600500  1
  O  O11  1  0.23723500  0.25000000  0.23227500  1
  O  O12  1  0.30146700  0.75000000  0.57173300  1
  O  O13  1  0.35364200  0.75000000  0.78765100  1
  O  O14  1  0.33394600  0.25000000  0.36443100  1
  O  O15  1  0.44199400  0.75000000  0.93930400  1
  O  O16  1  0.38915500  0.25000000  0.57854100  1
  O  O17  1  0.33484000  0.75000000  0.15939500  1
  O  O18  1  0.34320800  0.25000000  0.99998900  1
  O  O19  1  0.42586500  0.75000000  0.40493300  1
  O  O20  1  0.47993200  0.75000000  0.63747000  1
  O  O21  1  0.43734400  0.25000000  0.18852500  1
  O  O22  1  0.56265600  0.75000000  0.81147500  1
  O  O23  1  0.52006800  0.25000000  0.36253000  1
  O  O24  1  0.57413500  0.25000000  0.59506700  1
  O  O25  1  0.66516000  0.25000000  0.84060500  1
  O  O26  1  0.61084500  0.75000000  0.42145900  1
  O  O27  1  0.55800600  0.25000000  0.06069600  1
  O  O28  1  0.66605400  0.75000000  0.63556900  1
  O  O29  1  0.64635800  0.25000000  0.21234900  1
  O  O30  1  0.69853300  0.25000000  0.42826700  1
  O  O31  1  0.76276500  0.75000000  0.76772500  1
  O  O32  1  0.65679200  0.75000000  0.00001100  1
  O  O33  1  0.73595600  0.75000000  0.25399500  1
  O  O34  1  0.78663900  0.75000000  0.49248600  1
  O  O35  1  0.86896000  0.75000000  0.93509700  1
  O  O36  1  0.75222500  0.25000000  0.03607200  1
  O  O37  1  0.82872800  0.25000000  0.21313200  1
  O  O38  1  0.89574300  0.75000000  0.63698600  1
  O  O39  1  0.95401000  0.25000000  0.00134200  1
  O  O40  1  0.90487300  0.25000000  0.38848200  1
  O  O41  1  0.98752600  0.75000000  0.78941100  1
  O  O42  1  0.92113000  0.75000000  0.16958300  1
  O  O43  1  0.99437700  0.25000000  0.57966400  1
loop_
_geom_bond_atom_site_label_1
_geom_bond_atom_site_label_2
_geom_bond_distance
_geom_bond_site_symmetry_2
Li0 O3 2.007258 1_555
Li0 O9 2.361723 1_565
Li0 O9 2.361723 1_555
Li0 O5 2.390846 1_555
Li0 O5 2.390846 1_565
Li1 O40 2.007250 1_555
Li1 O34 2.361718 1_555
Li1 O34 2.361718 1_545
Li1 O38 2.390850 1_555
Li1 O38 2.390850 1_545
O0 V0 1.911727 1_555
O0 V0 1.911727 1_565
O0 V17 2.024739 1_455
O1 V1 1.917660 1_555
O1 V1 1.917660 1_545
O1 V2 2.040179 1_556
O2 V0 1.846759 1_555
O2 V2 1.923734 1_555
O2 V16 2.221785 1_455
O3 V1 1.665501 1_555
O4 V2 1.906076 1_566
O4 V2 1.906076 1_556
O4 V1 2.312377 1_555
O4 V15 2.424290 1_455
O5 V0 1.634628 1_555
O6 V1 1.764681 1_555
O6 V3 1.853603 1_555
O7 V3 1.621168 1_555
O8 V2 1.598012 1_555
O9 V4 1.652258 1_555
O10 V3 1.920810 1_555
O10 V3 1.920810 1_545
O10 V4 2.014351 1_555
O11 V6 1.609492 1_555
O12 V4 1.897166 1_565
O12 V4 1.897166 1_555
O12 V7 2.368928 1_555
O12 V3 2.399390 1_555
O13 V5 1.839980 1_555
O13 V7 1.984283 1_555
O13 V3 2.115457 1_555
O14 V6 1.873335 1_555
O14 V4 1.963430 1_555
O14 V8 2.042050 1_555
O15 V5 1.590534 1_555
O16 V7 1.897973 1_545
O16 V7 1.897973 1_555
O16 V8 2.353379 1_555
O16 V4 2.373786 1_555
O17 V6 1.907328 1_565
O17 V6 1.907328 1_555
O17 V5 2.043996 1_554
O18 V5 1.925480 1_555
O18 V5 1.925480 1_545
O18 V6 1.993502 1_556
O19 V8 1.915550 1_565
O19 V8 1.915550 1_555
O19 V7 2.025403 1_555
O20 V7 1.690446 1_555
O20 V9 2.000025 1_555
O21 V8 1.616982 1_555
O22 V9 1.616982 1_555
O23 V10 1.690446 1_555
O23 V8 2.000025 1_555
O24 V9 1.915550 1_545
O24 V9 1.915550 1_555
O24 V10 2.025403 1_555
O25 V11 1.907328 1_555
O25 V11 1.907328 1_545
O25 V12 2.043996 1_556
O26 V10 1.897973 1_555
O26 V10 1.897973 1_565
O26 V9 2.353379 1_555
O26 V13 2.373786 1_555
O27 V12 1.590534 1_555
O28 V11 1.873335 1_555
O28 V13 1.963430 1_555
O28 V9 2.042050 1_555
O29 V12 1.839980 1_555
O29 V10 1.984283 1_555
O29 V14 2.115456 1_555
O30 V13 1.897166 1_545
O30 V13 1.897166 1_555
O30 V10 2.368928 1_555
O30 V14 2.399399 1_555
O31 V11 1.609492 1_555
O32 V12 1.925480 1_565
O32 V12 1.925480 1_555
O32 V11 1.993502 1_554
O33 V14 1.920813 1_565
O33 V14 1.920813 1_555
O33 V13 2.014351 1_555
O34 V13 1.652258 1_555
O35 V15 1.598012 1_555
O36 V14 1.621157 1_555
O37 V16 1.764681 1_555
O37 V14 1.853606 1_555
O38 V17 1.634628 1_555
O39 V15 1.906076 1_544
O39 V15 1.906076 1_554
O39 V16 2.312377 1_555
O39 V2 2.424290 1_655
O40 V16 1.665501 1_555
O41 V17 1.846759 1_555
O41 V15 1.923734 1_555
O41 V1 2.221785 1_655
O42 V16 1.917660 1_555
O42 V16 1.917660 1_565
O42 V15 2.040179 1_554
O43 V17 1.911727 1_555
O43 V17 1.911727 1_545
O43 V0 2.024739 1_655
