# generated using pymatgen
data_Sr2CaI6
_symmetry_space_group_name_H-M   'P 1'
_cell_length_a   8.15302300
_cell_length_b   9.19257300
_cell_length_c   22.28518100
_cell_angle_alpha   90.00000000
_cell_angle_beta   90.00000000
_cell_angle_gamma   90.00000000
_symmetry_Int_Tables_number   1
_chemical_formula_structural   Sr2CaI6
_chemical_formula_sum   'Sr8 Ca4 I24'
_cell_volume   1670.21323446
_cell_formula_units_Z   4
loop_
 _symmetry_equiv_pos_site_id
 _symmetry_equiv_pos_as_xyz
  1  'x, y, z'
loop_
 _atom_site_type_symbol
 _atom_site_label
 _atom_site_symmetry_multiplicity
 _atom_site_fract_x
 _atom_site_fract_y
 _atom_site_fract_z
 _atom_site_occupancy
  Sr  Sr0  1  0.26512200  0.35361400  0.16200700  1
  Sr  Sr1  1  0.76512200  0.64638600  0.16200700  1
  Sr  Sr2  1  0.76512200  0.14638600  0.33799300  1
  Sr  Sr3  1  0.26512200  0.85361400  0.33799300  1
  Sr  Sr4  1  0.73487800  0.14638600  0.66200700  1
  Sr  Sr5  1  0.23487800  0.85361400  0.66200700  1
  Sr  Sr6  1  0.23487800  0.35361400  0.83799300  1
  Sr  Sr7  1  0.73487800  0.64638600  0.83799300  1
  Ca  Ca0  1  0.75000000  0.13881000  0.00000000  1
  Ca  Ca1  1  0.25000000  0.86119000  0.00000000  1
  Ca  Ca2  1  0.25000000  0.36119000  0.50000000  1
  Ca  Ca3  1  0.75000000  0.63881000  0.50000000  1
  I  I0  1  0.93772200  0.90469300  0.08069900  1
  I  I1  1  0.43772200  0.09530700  0.08069900  1
  I  I2  1  0.92710800  0.38000100  0.07995900  1
  I  I3  1  0.42710800  0.61999900  0.07995900  1
  I  I4  1  0.60198200  0.38237900  0.24281000  1
  I  I5  1  0.10198200  0.61762100  0.24281000  1
  I  I6  1  0.10198200  0.11762100  0.25719000  1
  I  I7  1  0.60198200  0.88237900  0.25719000  1
  I  I8  1  0.42710800  0.11999900  0.42004100  1
  I  I9  1  0.92710800  0.88000100  0.42004100  1
  I  I10  1  0.93772200  0.40469300  0.41930100  1
  I  I11  1  0.43772200  0.59530700  0.41930100  1
  I  I12  1  0.56227800  0.40469300  0.58069900  1
  I  I13  1  0.06227800  0.59530700  0.58069900  1
  I  I14  1  0.07289200  0.11999900  0.57995900  1
  I  I15  1  0.57289200  0.88000100  0.57995900  1
  I  I16  1  0.39801800  0.11762100  0.74281000  1
  I  I17  1  0.89801800  0.88237900  0.74281000  1
  I  I18  1  0.89801800  0.38237900  0.75719000  1
  I  I19  1  0.39801800  0.61762100  0.75719000  1
  I  I20  1  0.57289200  0.38000100  0.92004100  1
  I  I21  1  0.07289200  0.61999900  0.92004100  1
  I  I22  1  0.06227800  0.09530700  0.91930100  1
  I  I23  1  0.56227800  0.90469300  0.91930100  1
loop_
_geom_bond_atom_site_label_1
_geom_bond_atom_site_label_2
_geom_bond_distance
_geom_bond_site_symmetry_2
Ca0 I1 3.142658 1_555
Ca0 I22 3.142658 1_654
Ca0 I2 3.189989 1_555
Ca0 I20 3.189989 1_554
Ca0 I23 3.195050 1_544
Ca0 I0 3.195050 1_545
Ca1 I23 3.142658 1_554
Ca1 I0 3.142658 1_455
Ca1 I21 3.189989 1_554
Ca1 I3 3.189989 1_555
Ca1 I22 3.195050 1_564
Ca1 I1 3.195050 1_565
Ca2 I12 3.142658 1_555
Ca2 I10 3.142658 1_455
Ca2 I8 3.189989 1_555
Ca2 I14 3.189989 1_555
Ca2 I13 3.195050 1_555
Ca2 I11 3.195050 1_555
Ca3 I13 3.142658 1_655
Ca3 I11 3.142658 1_555
Ca3 I9 3.189989 1_555
Ca3 I15 3.189989 1_555
Ca3 I12 3.195050 1_555
Ca3 I10 3.195050 1_555
I0 Sr1 3.301778 1_555
I1 Sr0 3.301778 1_555
I2 Sr0 3.316130 1_655
I2 Sr1 3.329245 1_555
I3 Sr1 3.316130 1_555
I3 Sr0 3.329245 1_555
I4 Sr0 3.294744 1_555
I4 Sr1 3.301748 1_555
I4 Sr2 3.312810 1_555
I5 Sr1 3.294744 1_455
I5 Sr0 3.301748 1_555
I5 Sr3 3.312810 1_555
I6 Sr2 3.294744 1_455
I6 Sr3 3.301748 1_545
I6 Sr0 3.312810 1_555
I7 Sr3 3.294744 1_555
I7 Sr2 3.301748 1_565
I7 Sr1 3.312810 1_555
I8 Sr2 3.316130 1_555
I8 Sr3 3.329245 1_545
I9 Sr3 3.316130 1_655
I9 Sr2 3.329245 1_565
I10 Sr2 3.301778 1_555
I11 Sr3 3.301778 1_555
I12 Sr4 3.301778 1_555
I13 Sr5 3.301778 1_555
I14 Sr4 3.316130 1_455
I14 Sr5 3.329245 1_545
I15 Sr5 3.316130 1_555
I15 Sr4 3.329245 1_565
I16 Sr4 3.294744 1_555
I16 Sr5 3.301748 1_545
I16 Sr6 3.312810 1_555
I17 Sr5 3.294744 1_655
I17 Sr4 3.301748 1_565
I17 Sr7 3.312810 1_555
I18 Sr6 3.294744 1_655
I18 Sr7 3.301748 1_555
I18 Sr4 3.312810 1_555
I19 Sr7 3.294744 1_555
I19 Sr6 3.301748 1_555
I19 Sr5 3.312810 1_555
I20 Sr6 3.316130 1_555
I20 Sr7 3.329245 1_555
I21 Sr7 3.316130 1_455
I21 Sr6 3.329245 1_555
I22 Sr6 3.301778 1_555
I23 Sr7 3.301778 1_555
