# generated using pymatgen
data_LiNb13O33
_symmetry_space_group_name_H-M   'P 1'
_cell_length_a   11.59430819
_cell_length_b   11.59430819
_cell_length_c   15.70028679
_cell_angle_alpha   88.24650879
_cell_angle_beta   88.24650879
_cell_angle_gamma   19.17360536
_symmetry_Int_Tables_number   1
_chemical_formula_structural   LiNb13O33
_chemical_formula_sum   'Li1 Nb13 O33'
_cell_volume   692.83996632
_cell_formula_units_Z   1
loop_
 _symmetry_equiv_pos_site_id
 _symmetry_equiv_pos_as_xyz
  1  'x, y, z'
loop_
 _atom_site_type_symbol
 _atom_site_label
 _atom_site_symmetry_multiplicity
 _atom_site_fract_x
 _atom_site_fract_y
 _atom_site_fract_z
 _atom_site_occupancy
  Li  Li0  1  0.50000000  0.50000000  0.50000000  1
  Nb  Nb0  1  0.92943800  0.92943800  0.23011900  1
  Nb  Nb1  1  0.91344600  0.91344600  0.67469700  1
  Nb  Nb2  1  0.86388800  0.86388800  0.46962400  1
  Nb  Nb3  1  0.84511200  0.84511200  0.90389100  1
  Nb  Nb4  1  0.77582500  0.77582500  0.13679300  1
  Nb  Nb5  1  0.70846600  0.70846600  0.37395800  1
  Nb  Nb6  1  0.00000000  0.00000000  0.00000000  1
  Nb  Nb7  1  0.29153400  0.29153400  0.62604200  1
  Nb  Nb8  1  0.22417500  0.22417500  0.86320700  1
  Nb  Nb9  1  0.15488800  0.15488800  0.09610900  1
  Nb  Nb10  1  0.13611200  0.13611200  0.53037600  1
  Nb  Nb11  1  0.08655400  0.08655400  0.32530300  1
  Nb  Nb12  1  0.07056200  0.07056200  0.76988100  1
  O  O0  1  0.98809200  0.98809200  0.70930000  1
  O  O1  1  0.96421000  0.96421000  0.12065000  1
  O  O2  1  0.93348500  0.93348500  0.54354100  1
  O  O3  1  0.91833200  0.91833200  0.95146000  1
  O  O4  1  0.89977900  0.89977900  0.36647400  1
  O  O5  1  0.87291300  0.87291300  0.78733000  1
  O  O6  1  0.84700400  0.84700400  0.19467400  1
  O  O7  1  0.81871100  0.81871100  0.61127500  1
  O  O8  1  0.80622300  0.80622300  0.02698800  1
  O  O9  1  0.77817400  0.77817400  0.42979700  1
  O  O10  1  0.74977700  0.74977700  0.86305800  1
  O  O11  1  0.73319800  0.73319800  0.26388400  1
  O  O12  1  0.67967500  0.67967500  0.09919200  1
  O  O13  1  0.65259500  0.65259500  0.50284700  1
  O  O14  1  0.60939500  0.60939500  0.33727300  1
  O  O15  1  0.56994000  0.56994000  0.75030800  1
  O  O16  1  0.50000000  0.50000000  0.00000000  1
  O  O17  1  0.43006000  0.43006000  0.24969200  1
  O  O18  1  0.39060500  0.39060500  0.66272700  1
  O  O19  1  0.34740500  0.34740500  0.49715300  1
  O  O20  1  0.32032500  0.32032500  0.90080800  1
  O  O21  1  0.26680200  0.26680200  0.73611600  1
  O  O22  1  0.25022300  0.25022300  0.13694200  1
  O  O23  1  0.22182600  0.22182600  0.57020300  1
  O  O24  1  0.19377700  0.19377700  0.97301200  1
  O  O25  1  0.18128900  0.18128900  0.38872500  1
  O  O26  1  0.15299600  0.15299600  0.80532600  1
  O  O27  1  0.12708700  0.12708700  0.21267000  1
  O  O28  1  0.10022100  0.10022100  0.63352600  1
  O  O29  1  0.08166800  0.08166800  0.04854000  1
  O  O30  1  0.06651500  0.06651500  0.45645900  1
  O  O31  1  0.03579000  0.03579000  0.87935000  1
  O  O32  1  0.01190800  0.01190800  0.29070000  1
loop_
_geom_bond_atom_site_label_1
_geom_bond_atom_site_label_2
_geom_bond_distance
_geom_bond_site_symmetry_2
Li0 O2 2.538560 1_455
Li0 O2 2.538560 1_545
Li0 O30 2.538560 1_565
Li0 O30 2.538560 1_655
Nb0 O1 1.871153 1_555
Nb0 O17 1.955356 1_565
Nb0 O17 1.955356 1_655
Nb0 O6 1.981765 1_555
Nb0 O32 2.138150 1_665
Nb0 O4 2.225501 1_555
Nb1 O0 1.807137 1_555
Nb1 O5 1.970871 1_555
Nb1 O18 2.010639 1_655
Nb1 O18 2.010639 1_565
Nb1 O2 2.095621 1_555
Nb1 O7 2.411916 1_555
Nb2 O4 1.792678 1_555
Nb2 O2 1.998430 1_555
Nb2 O19 2.011777 1_565
Nb2 O19 2.011777 1_655
Nb2 O9 2.075570 1_555
Nb2 O7 2.422898 1_555
Nb3 O3 1.854236 1_555
Nb3 O5 1.918572 1_555
Nb3 O20 2.013395 1_655
Nb3 O20 2.013395 1_565
Nb3 O8 2.102181 1_556
Nb3 O10 2.291139 1_555
Nb4 O8 1.838692 1_555
Nb4 O6 1.888477 1_555
Nb4 O22 2.017698 1_655
Nb4 O22 2.017698 1_565
Nb4 O11 2.193338 1_555
Nb4 O12 2.293956 1_555
Nb5 O11 1.801604 1_555
Nb5 O9 1.842740 1_555
Nb5 O25 2.039474 1_655
Nb5 O25 2.039474 1_565
Nb5 O14 2.354571 1_555
Nb5 O13 2.359330 1_555
Nb6 O16 1.930935 1_545
Nb6 O16 1.930935 1_455
Nb6 O3 2.038625 1_444
Nb6 O29 2.038625 1_555
Nb6 O1 2.040000 1_445
Nb6 O31 2.040000 1_554
Nb7 O21 1.801604 1_555
Nb7 O23 1.842740 1_555
Nb7 O7 2.039474 1_455
Nb7 O7 2.039474 1_545
Nb7 O18 2.354571 1_555
Nb7 O19 2.359330 1_555
Nb8 O24 1.838692 1_555
Nb8 O26 1.888477 1_555
Nb8 O10 2.017698 1_545
Nb8 O10 2.017698 1_455
Nb8 O21 2.193338 1_555
Nb8 O20 2.293956 1_555
Nb9 O29 1.854236 1_555
Nb9 O27 1.918572 1_555
Nb9 O12 2.013395 1_545
Nb9 O12 2.013395 1_455
Nb9 O24 2.102181 1_554
Nb9 O22 2.291139 1_555
Nb10 O28 1.792678 1_555
Nb10 O30 1.998430 1_555
Nb10 O13 2.011777 1_455
Nb10 O13 2.011777 1_545
Nb10 O23 2.075570 1_555
Nb10 O25 2.422898 1_555
Nb11 O32 1.807137 1_555
Nb11 O27 1.970871 1_555
Nb11 O14 2.010639 1_545
Nb11 O14 2.010639 1_455
Nb11 O30 2.095621 1_555
Nb11 O25 2.411916 1_555
Nb12 O31 1.871153 1_555
Nb12 O15 1.955356 1_455
Nb12 O15 1.955356 1_545
Nb12 O26 1.981765 1_555
Nb12 O0 2.138150 1_445
Nb12 O28 2.225501 1_555
