# generated using pymatgen
data_BaYBr5
_symmetry_space_group_name_H-M   'P 1'
_cell_length_a   10.63141163
_cell_length_b   10.63141163
_cell_length_c   7.25277657
_cell_angle_alpha   89.04764845
_cell_angle_beta   89.04764845
_cell_angle_gamma   147.52149297
_symmetry_Int_Tables_number   1
_chemical_formula_structural   BaYBr5
_chemical_formula_sum   'Ba2 Y2 Br10'
_cell_volume   439.41859244
_cell_formula_units_Z   2
loop_
 _symmetry_equiv_pos_site_id
 _symmetry_equiv_pos_as_xyz
  1  'x, y, z'
loop_
 _atom_site_type_symbol
 _atom_site_label
 _atom_site_symmetry_multiplicity
 _atom_site_fract_x
 _atom_site_fract_y
 _atom_site_fract_z
 _atom_site_occupancy
  Ba  Ba0  1  0.32798500  0.67201500  0.75000000  1
  Ba  Ba1  1  0.67201500  0.32798500  0.25000000  1
  Y  Y0  1  0.07669100  0.92330900  0.75000000  1
  Y  Y1  1  0.92330900  0.07669100  0.25000000  1
  Br  Br0  1  0.72525400  0.78868900  0.59643400  1
  Br  Br1  1  0.78868900  0.72525400  0.09643400  1
  Br  Br2  1  0.80492900  0.18147000  0.99818100  1
  Br  Br3  1  0.62861500  0.37138400  0.75000000  1
  Br  Br4  1  0.81853000  0.19507100  0.50181900  1
  Br  Br5  1  0.18147000  0.80492900  0.49818100  1
  Br  Br6  1  0.37138500  0.62861500  0.25000000  1
  Br  Br7  1  0.19507100  0.81853000  0.00181900  1
  Br  Br8  1  0.21131100  0.27474600  0.90356600  1
  Br  Br9  1  0.27474600  0.21131100  0.40356600  1
loop_
_geom_bond_atom_site_label_1
_geom_bond_atom_site_label_2
_geom_bond_distance
_geom_bond_site_symmetry_2
Ba0 Br7 3.388384 1_556
Ba0 Br5 3.388384 1_555
Ba0 Br0 3.402355 1_555
Ba0 Br8 3.402355 1_555
Ba0 Br4 3.433150 1_565
Ba0 Br2 3.433150 1_455
Ba0 Br2 3.546534 1_565
Ba0 Br4 3.546534 1_455
Ba0 Br6 3.733051 1_556
Ba0 Br6 3.733051 1_555
Ba1 Br4 3.388384 1_555
Ba1 Br2 3.388384 1_554
Ba1 Br9 3.402355 1_555
Ba1 Br1 3.402355 1_555
Ba1 Br5 3.433150 1_545
Ba1 Br7 3.433150 1_655
Ba1 Br7 3.546534 1_545
Ba1 Br5 3.546534 1_655
Ba1 Br3 3.733048 1_555
Ba1 Br3 3.733049 1_554
Br0 Y0 2.901363 1_655
Br0 Y1 2.968632 1_565
Br1 Y1 2.901363 1_565
Br1 Y0 2.968632 1_654
Br2 Y1 2.921412 1_556
Br3 Y0 3.156376 1_545
Br3 Y0 3.156382 1_655
Br4 Y1 2.921412 1_555
Br5 Y0 2.921412 1_555
Br6 Y1 3.156376 1_455
Br6 Y1 3.156376 1_565
Br7 Y0 2.921412 1_554
Br8 Y0 2.901363 1_545
Br8 Y1 2.968632 1_456
Br9 Y1 2.901363 1_455
Br9 Y0 2.968632 1_545
