# generated using pymatgen
data_Li2VSiO4
_symmetry_space_group_name_H-M   'P 1'
_cell_length_a   4.86432024
_cell_length_b   8.84814683
_cell_length_c   12.74088389
_cell_angle_alpha   108.32371906
_cell_angle_beta   99.53369768
_cell_angle_gamma   91.62035118
_symmetry_Int_Tables_number   1
_chemical_formula_structural   Li2VSiO4
_chemical_formula_sum   'Li12 V6 Si6 O24'
_cell_volume   511.48145853
_cell_formula_units_Z   6
loop_
 _symmetry_equiv_pos_site_id
 _symmetry_equiv_pos_as_xyz
  1  'x, y, z'
loop_
 _atom_site_type_symbol
 _atom_site_label
 _atom_site_symmetry_multiplicity
 _atom_site_fract_x
 _atom_site_fract_y
 _atom_site_fract_z
 _atom_site_occupancy
  Li  Li0  1  0.19306000  0.49546700  0.58746200  1
  Li  Li1  1  0.69305000  0.99548800  0.58741200  1
  Li  Li2  1  0.68998800  0.80762700  0.93726700  1
  Li  Li3  1  0.18990100  0.30754800  0.93721900  1
  Li  Li4  1  0.99994100  0.56076200  0.23372500  1
  Li  Li5  1  0.49997300  0.06081000  0.23370900  1
  Li  Li6  1  0.25015300  0.70845000  0.06192900  1
  Li  Li7  1  0.75008200  0.20847900  0.06196800  1
  Li  Li8  1  0.27188300  0.93358300  0.75298400  1
  Li  Li9  1  0.77206600  0.43358000  0.75303500  1
  Li  Li10  1  0.10488300  0.98635500  0.42550300  1
  Li  Li11  1  0.60505700  0.48636500  0.42552300  1
  V  V0  1  0.92025200  0.85532900  0.19677900  1
  V  V1  1  0.17926200  0.68361600  0.47302300  1
  V  V2  1  0.25213000  0.65003100  0.80500900  1
  V  V3  1  0.42003200  0.35543300  0.19678700  1
  V  V4  1  0.67896900  0.18395500  0.47313200  1
  V  V5  1  0.75153600  0.14991600  0.80498100  1
  Si  Si0  1  0.23009900  0.22668200  0.67183600  1
  Si  Si1  1  0.73020000  0.72664000  0.67185200  1
  Si  Si2  1  0.05197400  0.28069900  0.33188900  1
  Si  Si3  1  0.55190700  0.78070200  0.33188600  1
  Si  Si4  1  0.68796300  0.50655800  0.99998200  1
  Si  Si5  1  0.18799400  0.00661000  0.99997300  1
  O  O0  1  0.47192400  0.62169500  0.95540900  1
  O  O1  1  0.97188000  0.12168400  0.95540000  1
  O  O2  1  0.51661900  0.60588400  0.56071000  1
  O  O3  1  0.01653600  0.10596400  0.56067800  1
  O  O4  1  0.96524000  0.33331800  0.21852300  1
  O  O5  1  0.46505800  0.83328600  0.21845800  1
  O  O6  1  0.39745400  0.60633200  0.32417500  1
  O  O7  1  0.89754000  0.10630900  0.32418900  1
  O  O8  1  0.63600100  0.90900900  0.69785200  1
  O  O9  1  0.13601300  0.40904400  0.69786900  1
  O  O10  1  0.05469400  0.72062200  0.64506700  1
  O  O11  1  0.55465100  0.22062600  0.64506900  1
  O  O12  1  0.33030400  0.89558800  0.89675100  1
  O  O13  1  0.82987600  0.39538400  0.89667400  1
  O  O14  1  0.93576000  0.61678400  0.10335300  1
  O  O15  1  0.43554400  0.11689700  0.10338900  1
  O  O16  1  0.47405800  0.92267200  0.44009000  1
  O  O17  1  0.97429100  0.42262000  0.44020400  1
  O  O18  1  0.89586800  0.76775000  0.34860100  1
  O  O19  1  0.39593900  0.26782400  0.34864300  1
  O  O20  1  0.01457700  0.89259200  0.05195900  1
  O  O21  1  0.51455000  0.39268400  0.05204100  1
  O  O22  1  0.22659400  0.16244200  0.77999300  1
  O  O23  1  0.72663500  0.66227300  0.77997200  1
loop_
_geom_bond_atom_site_label_1
_geom_bond_atom_site_label_2
_geom_bond_distance
_geom_bond_site_symmetry_2
Li0 O9 1.853147 1_555
Li0 O17 1.899332 1_455
Li0 O2 1.961617 1_555
Li0 O10 2.068974 1_555
Li1 O8 1.853854 1_555
Li1 O16 1.900391 1_555
Li1 O3 1.961498 1_665
Li1 O11 2.068981 1_565
Li2 O20 1.916063 1_656
Li2 O12 1.990934 1_555
Li2 O0 2.026510 1_555
Li2 O23 2.052525 1_555
Li3 O21 1.917293 1_556
Li3 O13 1.991877 1_455
Li3 O1 2.026127 1_455
Li3 O22 2.051181 1_555
Li4 O14 1.859290 1_555
Li4 O4 1.959813 1_555
Li4 O6 2.038419 1_655
Li4 O18 2.089291 1_555
Li5 O15 1.859013 1_555
Li5 O5 1.960410 1_545
Li5 O7 2.038779 1_555
Li5 O19 2.089714 1_555
Li6 O0 1.863229 1_554
Li6 O14 1.934309 1_455
Li6 O5 2.036951 1_555
Li6 O20 2.042409 1_555
Li7 O1 1.863817 1_554
Li7 O15 1.934511 1_555
Li7 O4 2.037610 1_555
Li7 O21 2.042630 1_555
Li8 O12 1.941427 1_555
Li8 O22 1.969690 1_565
Li8 O8 2.003911 1_555
Li8 O10 2.081937 1_555
Li9 O13 1.940700 1_555
Li9 O23 1.968493 1_555
Li9 O9 2.003318 1_655
Li9 O11 2.082486 1_555
Li10 O3 1.842743 1_565
Li10 O16 1.894573 1_555
Li10 O18 2.025389 1_455
Li10 O7 2.073815 1_465
Li11 O2 1.842815 1_555
Li11 O17 1.895080 1_555
Li11 O19 2.025112 1_555
Li11 O6 2.074706 1_555
O0 Si4 1.640531 1_555
O0 V2 2.125198 1_555
O1 Si5 1.640333 1_655
O1 V5 2.125979 1_555
O2 Si1 1.650678 1_555
O2 V1 2.086575 1_555
O3 Si0 1.650629 1_555
O3 V4 2.087577 1_455
O4 Si2 1.647146 1_655
O4 V3 2.285079 1_655
O4 V3 2.639805 1_555
O5 Si3 1.647766 1_555
O5 V0 2.286722 1_555
O5 V0 2.637812 1_455
O6 Si3 1.664090 1_555
O6 V1 2.254555 1_555
O6 V3 2.319906 1_555
O7 Si2 1.664253 1_655
O7 V4 2.256861 1_555
O7 V0 2.320673 1_545
O8 Si1 1.636913 1_555
O8 V5 2.138052 1_565
O9 Si0 1.636643 1_555
O9 V2 2.139016 1_555
O10 Si1 1.668095 1_455
O10 V1 2.297632 1_555
O10 V2 2.377194 1_555
O11 Si0 1.668290 1_555
O11 V4 2.296262 1_555
O11 V5 2.376712 1_555
O12 Si5 1.643622 1_565
O12 V2 2.107317 1_555
O13 Si4 1.643750 1_555
O13 V5 2.106569 1_555
O14 Si4 1.654896 1_554
O14 V0 2.082444 1_555
O15 Si5 1.654653 1_554
O15 V3 2.082288 1_555
O16 Si3 1.653146 1_555
O16 V4 2.373649 1_565
O16 V1 2.700422 1_555
O17 Si2 1.653509 1_655
O17 V1 2.372019 1_655
O17 V4 2.698935 1_555
O18 Si3 1.663139 1_555
O18 V1 2.245809 1_655
O18 V0 2.317229 1_555
O19 Si2 1.663056 1_555
O19 V4 2.244181 1_555
O19 V3 2.317544 1_555
O20 Si5 1.650808 1_564
O20 V0 2.092404 1_455
O21 Si4 1.650508 1_554
O21 V3 2.091785 1_555
O22 Si0 1.649859 1_555
O22 V5 2.388515 1_455
O22 V5 2.530381 1_555
O23 Si1 1.650136 1_555
O23 V2 2.385897 1_555
O23 V2 2.532746 1_655
