# generated using pymatgen
data_Mn4O3F5
_symmetry_space_group_name_H-M   'P 1'
_cell_length_a   5.76209456
_cell_length_b   5.76209456
_cell_length_c   5.76209456
_cell_angle_alpha   114.27768555
_cell_angle_beta   112.08054267
_cell_angle_gamma   102.29417368
_symmetry_Int_Tables_number   1
_chemical_formula_structural   Mn4O3F5
_chemical_formula_sum   'Mn4 O3 F5'
_cell_volume   145.50743072
_cell_formula_units_Z   1
loop_
 _symmetry_equiv_pos_site_id
 _symmetry_equiv_pos_as_xyz
  1  'x, y, z'
loop_
 _atom_site_type_symbol
 _atom_site_label
 _atom_site_symmetry_multiplicity
 _atom_site_fract_x
 _atom_site_fract_y
 _atom_site_fract_z
 _atom_site_occupancy
  Mn  Mn0  1  0.50780700  0.75886700  0.26667400  1
  Mn  Mn1  1  0.50780700  0.24113300  0.74894000  1
  Mn  Mn2  1  0.97757000  0.50000000  0.47757000  1
  Mn  Mn3  1  0.00855000  0.00000000  0.00855000  1
  O  O0  1  0.68085900  0.50000000  0.18085900  1
  O  O1  1  0.70763200  0.00000000  0.70763200  1
  O  O2  1  0.31175600  0.00000000  0.31175600  1
  F  F0  1  0.80938400  0.05750000  0.24905200  1
  F  F1  1  0.80938400  0.56033200  0.75188400  1
  F  F2  1  0.29614900  0.50000000  0.79614900  1
  F  F3  1  0.19155200  0.43966800  0.24905200  1
  F  F4  1  0.19155200  0.94250000  0.75188400  1
loop_
_geom_bond_atom_site_label_1
_geom_bond_atom_site_label_2
_geom_bond_distance
_geom_bond_site_symmetry_2
Mn0 O0 1.965019 1_555
Mn0 O2 1.966314 1_565
Mn0 O1 1.981996 1_565
Mn1 O0 1.965019 1_556
Mn1 O2 1.966314 1_555
Mn1 O1 1.981996 1_555
Mn2 O0 1.910085 1_555
Mn3 O1 1.937168 1_454
Mn3 O2 1.951897 1_555
F0 Mn3 2.080202 1_655
F0 Mn2 2.098006 1_555
F0 Mn0 2.234700 1_545
F1 Mn3 2.080202 1_666
F1 Mn2 2.098006 1_555
F1 Mn1 2.234700 1_555
F2 Mn2 2.050861 1_455
F2 Mn1 2.115845 1_555
F2 Mn0 2.115845 1_556
F3 Mn3 2.080202 1_555
F3 Mn2 2.098006 1_455
F3 Mn0 2.234700 1_555
F4 Mn3 2.080202 1_566
F4 Mn2 2.098006 1_455
F4 Mn1 2.234700 1_565
