# generated using pymatgen
data_Li2FePCO7
_symmetry_space_group_name_H-M   'P 1'
_cell_length_a   6.50418300
_cell_length_b   9.37477884
_cell_length_c   10.11777024
_cell_angle_alpha   62.76196040
_cell_angle_beta   89.63649125
_cell_angle_gamma   89.35455479
_symmetry_Int_Tables_number   1
_chemical_formula_structural   Li2FePCO7
_chemical_formula_sum   'Li8 Fe4 P4 C4 O28'
_cell_volume   548.48842313
_cell_formula_units_Z   4
loop_
 _symmetry_equiv_pos_site_id
 _symmetry_equiv_pos_as_xyz
  1  'x, y, z'
loop_
 _atom_site_type_symbol
 _atom_site_label
 _atom_site_symmetry_multiplicity
 _atom_site_fract_x
 _atom_site_fract_y
 _atom_site_fract_z
 _atom_site_occupancy
  Li  Li0  1  0.25305000  0.33226600  0.57021800  1
  Li  Li1  1  0.25646400  0.83363300  0.06861600  1
  Li  Li2  1  0.03301600  0.98839600  0.73490000  1
  Li  Li3  1  0.46415300  0.48841200  0.23481100  1
  Li  Li4  1  0.96807100  0.51344300  0.76265800  1
  Li  Li5  1  0.96999900  0.01217000  0.26216400  1
  Li  Li6  1  0.73446600  0.16720500  0.92773300  1
  Li  Li7  1  0.74750100  0.66690000  0.43049200  1
  Fe  Fe0  1  0.74567600  0.73449800  0.93637500  1
  Fe  Fe1  1  0.75419700  0.23450200  0.43574900  1
  Fe  Fe2  1  0.25941500  0.76482400  0.56445800  1
  Fe  Fe3  1  0.26144800  0.26490600  0.06450900  1
  P  P0  1  0.24663400  0.65132700  0.92843700  1
  P  P1  1  0.24436300  0.15139400  0.42893400  1
  P  P2  1  0.75984300  0.84792900  0.57175800  1
  P  P3  1  0.75228300  0.34800000  0.07142500  1
  C  C0  1  0.75978800  0.33058300  0.62956500  1
  C  C1  1  0.75548100  0.83072500  0.13004000  1
  C  C2  1  0.22892900  0.16980800  0.87107500  1
  C  C3  1  0.25240000  0.66978100  0.37020100  1
  O  O0  1  0.76000400  0.93535500  0.98815700  1
  O  O1  1  0.74051500  0.43498700  0.48858700  1
  O  O2  1  0.21677400  0.13263800  0.76592300  1
  O  O3  1  0.75627200  0.17975300  0.65566200  1
  O  O4  1  0.27596500  0.63402100  0.26462700  1
  O  O5  1  0.72600900  0.68184900  0.15552800  1
  O  O6  1  0.06553100  0.75340000  0.94388600  1
  O  O7  1  0.43948800  0.74191300  0.93744000  1
  O  O8  1  0.06149500  0.24854800  0.44789600  1
  O  O9  1  0.43521100  0.24642200  0.43589200  1
  O  O10  1  0.77269100  0.86208700  0.71763900  1
  O  O11  1  0.23651100  0.97830100  0.56118100  1
  O  O12  1  0.72112300  0.36226700  0.21645000  1
  O  O13  1  0.25661300  0.47856100  0.06099800  1
  O  O14  1  0.78122300  0.52019900  0.94072200  1
  O  O15  1  0.22620100  0.63831100  0.78262400  1
  O  O16  1  0.78227500  0.02003700  0.43941900  1
  O  O17  1  0.23278900  0.13802900  0.28291300  1
  O  O18  1  0.56321700  0.76705700  0.55401400  1
  O  O19  1  0.93566800  0.73732800  0.56448000  1
  O  O20  1  0.93752500  0.24071300  0.07505900  1
  O  O21  1  0.56552900  0.26405900  0.04213400  1
  O  O22  1  0.22619900  0.32028900  0.84588600  1
  O  O23  1  0.78121900  0.36773100  0.73425200  1
  O  O24  1  0.22694400  0.81929300  0.34520400  1
  O  O25  1  0.77986400  0.86631500  0.23535200  1
  O  O26  1  0.25786800  0.56472900  0.51183500  1
  O  O27  1  0.24812600  0.06510700  0.01212200  1
loop_
_geom_bond_atom_site_label_1
_geom_bond_atom_site_label_2
_geom_bond_distance
_geom_bond_site_symmetry_2
Li0 O26 1.980439 1_555
Li0 O2 2.022565 1_555
Li0 O8 2.151909 1_555
Li0 O9 2.204041 1_555
Li1 O27 1.975089 1_565
Li1 O4 2.012881 1_555
Li1 O6 2.147190 1_554
Li1 O7 2.217986 1_554
Li2 O2 1.945574 1_565
Li2 O10 2.130209 1_455
Li2 O11 2.229360 1_555
Li2 O6 2.258362 1_555
Li2 O3 2.393732 1_465
Li3 O4 1.946071 1_555
Li3 O12 2.092642 1_555
Li3 O9 2.258547 1_555
Li3 O13 2.259418 1_555
Li3 O5 2.356570 1_555
Li4 O23 1.956226 1_555
Li4 O15 2.120135 1_655
Li4 O19 2.147843 1_555
Li4 O14 2.191275 1_555
Li4 O22 2.315257 1_655
Li5 O25 1.963293 1_545
Li5 O20 2.121547 1_555
Li5 O17 2.152777 1_655
Li5 O16 2.191779 1_555
Li5 O24 2.308133 1_645
Li6 O0 1.975456 1_545
Li6 O23 2.023688 1_555
Li6 O21 2.072434 1_556
Li6 O20 2.329574 1_556
Li7 O1 1.976490 1_555
Li7 O25 2.015516 1_555
Li7 O19 2.151787 1_555
Li7 O18 2.215859 1_555
Fe0 O10 1.983969 1_555
Fe0 O7 1.992066 1_555
Fe0 O14 2.000069 1_555
Fe0 O5 2.042692 1_556
Fe0 O6 2.094722 1_655
Fe0 O0 2.176338 1_555
Fe1 O12 1.992886 1_555
Fe1 O16 2.000141 1_555
Fe1 O8 2.012758 1_655
Fe1 O3 2.041867 1_555
Fe1 O9 2.076520 1_555
Fe1 O1 2.177530 1_555
Fe2 O18 1.977972 1_555
Fe2 O15 1.982176 1_555
Fe2 O11 1.990251 1_555
Fe2 O24 2.047702 1_555
Fe2 O19 2.124295 1_455
Fe2 O26 2.171890 1_555
Fe3 O17 1.981508 1_555
Fe3 O13 1.986856 1_555
Fe3 O21 1.989626 1_555
Fe3 O22 2.041434 1_554
Fe3 O20 2.118353 1_455
Fe3 O27 2.170224 1_555
C0 O23 1.266190 1_555
C0 O3 1.314733 1_555
C0 O1 1.315225 1_555
C1 O25 1.265137 1_555
C1 O5 1.314195 1_555
C1 O0 1.317174 1_554
C2 O2 1.265152 1_555
C2 O22 1.313697 1_555
C2 O27 1.316387 1_556
C3 O4 1.265477 1_555
C3 O24 1.314072 1_555
C3 O26 1.316325 1_555
O6 P0 1.561029 1_555
O7 P0 1.548919 1_555
O8 P1 1.553608 1_555
O9 P1 1.556561 1_555
O10 P2 1.544115 1_555
O11 P1 1.561934 1_565
O12 P3 1.545084 1_555
O13 P0 1.560960 1_554
O14 P3 1.561988 1_556
O15 P0 1.541658 1_555
O16 P2 1.562909 1_545
O17 P1 1.541157 1_555
O18 P2 1.546592 1_555
O19 P2 1.558982 1_555
O20 P3 1.550495 1_555
O21 P3 1.556316 1_555
