# generated using pymatgen
data_Li7Fe3O8
_symmetry_space_group_name_H-M   'P 1'
_cell_length_a   10.53956168
_cell_length_b   7.75152200
_cell_length_c   5.55052117
_cell_angle_alpha   109.13974377
_cell_angle_beta   99.93920845
_cell_angle_gamma   67.81386385
_symmetry_Int_Tables_number   1
_chemical_formula_structural   Li7Fe3O8
_chemical_formula_sum   'Li14 Fe6 O16'
_cell_volume   396.06249996
_cell_formula_units_Z   2
loop_
 _symmetry_equiv_pos_site_id
 _symmetry_equiv_pos_as_xyz
  1  'x, y, z'
loop_
 _atom_site_type_symbol
 _atom_site_label
 _atom_site_symmetry_multiplicity
 _atom_site_fract_x
 _atom_site_fract_y
 _atom_site_fract_z
 _atom_site_occupancy
  Li  Li0  1  0.06662700  0.88356500  0.71520100  1
  Li  Li1  1  0.05365200  0.43224800  0.68287900  1
  Li  Li2  1  0.33439500  0.79737800  0.85637300  1
  Li  Li3  1  0.27764500  0.45216100  0.53244900  1
  Li  Li4  1  0.43896100  0.63966200  0.41922000  1
  Li  Li5  1  0.22037300  0.03247800  0.53995000  1
  Li  Li6  1  0.51615600  0.93685800  0.71598400  1
  Li  Li7  1  0.48384400  0.06314200  0.28401600  1
  Li  Li8  1  0.77962700  0.96752200  0.46005000  1
  Li  Li9  1  0.56103900  0.36033800  0.58078000  1
  Li  Li10  1  0.72235500  0.54783900  0.46755100  1
  Li  Li11  1  0.66560500  0.20262200  0.14362700  1
  Li  Li12  1  0.94634800  0.56775200  0.31712100  1
  Li  Li13  1  0.93337300  0.11643500  0.28479900  1
  Fe  Fe0  1  0.14579500  0.72609600  0.19181500  1
  Fe  Fe1  1  0.16193600  0.17111900  0.05238800  1
  Fe  Fe2  1  0.37820000  0.30987800  0.94011300  1
  Fe  Fe3  1  0.62180000  0.69012200  0.05988700  1
  Fe  Fe4  1  0.83806400  0.82888100  0.94761200  1
  Fe  Fe5  1  0.85420500  0.27390400  0.80818500  1
  O  O0  1  0.15459000  0.93651200  0.09033300  1
  O  O1  1  0.23699200  0.74849900  0.51377900  1
  O  O2  1  0.04666000  0.18620400  0.73375100  1
  O  O3  1  0.12415500  0.36399100  0.35067300  1
  O  O4  1  0.20313600  0.51003900  0.89994700  1
  O  O5  1  0.34103700  0.07127600  0.92352600  1
  O  O6  1  0.53984700  0.78569600  0.36760800  1
  O  O7  1  0.51814000  0.63175100  0.76435200  1
  O  O8  1  0.48186000  0.36824900  0.23564800  1
  O  O9  1  0.46015300  0.21430400  0.63239200  1
  O  O10  1  0.65896300  0.92872400  0.07647400  1
  O  O11  1  0.79686400  0.48996100  0.10005300  1
  O  O12  1  0.87584500  0.63600900  0.64932700  1
  O  O13  1  0.95334000  0.81379600  0.26624900  1
  O  O14  1  0.76300800  0.25150100  0.48622100  1
  O  O15  1  0.84541000  0.06348800  0.90966700  1
loop_
_geom_bond_atom_site_label_1
_geom_bond_atom_site_label_2
_geom_bond_distance
_geom_bond_site_symmetry_2
Li0 O1 2.018861 1_555
Li0 O0 2.103335 1_556
Li0 O2 2.243756 1_565
Li0 O15 2.443770 1_465
Li0 O13 2.550412 1_455
Li1 O3 1.941246 1_555
Li1 O12 1.969328 1_455
Li1 O4 1.970592 1_555
Li1 O2 2.046730 1_555
Li2 O7 1.921789 1_555
Li2 O1 1.990185 1_555
Li2 O5 2.058107 1_565
Li2 O0 2.197353 1_556
Li3 O3 1.980273 1_555
Li3 O4 2.159989 1_555
Li3 O1 2.206425 1_555
Li3 O9 2.243006 1_555
Li4 O8 1.924525 1_555
Li4 O6 1.928958 1_555
Li4 O7 1.963786 1_555
Li4 O1 2.063361 1_555
Li5 O2 2.029964 1_555
Li5 O1 2.098875 1_545
Li5 O5 2.274845 1_555
Li5 O0 2.415985 1_545
Li6 O6 1.906394 1_555
Li6 O5 2.076944 1_565
Li6 O9 2.188601 1_565
Li6 O10 2.290072 1_556
Li6 O7 2.458254 1_555
Li7 O9 1.906394 1_555
Li7 O10 2.076944 1_545
Li7 O6 2.188601 1_545
Li7 O5 2.290072 1_554
Li7 O8 2.458254 1_555
Li8 O13 2.029964 1_555
Li8 O14 2.098875 1_565
Li8 O10 2.274845 1_555
Li8 O15 2.415985 1_565
Li9 O7 1.924525 1_555
Li9 O9 1.928958 1_555
Li9 O8 1.963786 1_555
Li9 O14 2.063361 1_555
Li10 O12 1.980273 1_555
Li10 O11 2.159989 1_555
Li10 O14 2.206425 1_555
Li10 O6 2.243006 1_555
Li11 O8 1.921789 1_555
Li11 O14 1.990185 1_555
Li11 O10 2.058107 1_545
Li11 O15 2.197353 1_554
Li12 O12 1.941246 1_555
Li12 O3 1.969328 1_655
Li12 O11 1.970592 1_555
Li12 O13 2.046730 1_555
Li13 O14 2.018861 1_555
Li13 O15 2.103335 1_554
Li13 O13 2.243756 1_545
Li13 O0 2.443770 1_645
Li13 O2 2.550412 1_655
Fe0 O1 1.864733 1_555
Fe0 O4 1.894461 1_554
Fe0 O0 1.928949 1_555
Fe0 O13 1.952156 1_455
Fe1 O3 1.813754 1_555
Fe1 O5 1.916643 1_554
Fe1 O0 1.928897 1_545
Fe1 O2 1.975929 1_554
Fe2 O8 1.832250 1_556
Fe2 O9 1.846201 1_555
Fe2 O4 1.945295 1_555
Fe2 O5 2.001412 1_555
Fe3 O7 1.832250 1_554
Fe3 O6 1.846201 1_555
Fe3 O11 1.945295 1_555
Fe3 O10 2.001412 1_555
Fe4 O12 1.813754 1_555
Fe4 O10 1.916643 1_556
Fe4 O15 1.928897 1_565
Fe4 O13 1.975929 1_556
Fe5 O14 1.864733 1_555
Fe5 O11 1.894461 1_556
Fe5 O15 1.928949 1_555
Fe5 O2 1.952156 1_655
