# generated using pymatgen
data_Ba(BO2)5
_symmetry_space_group_name_H-M   'P 1'
_cell_length_a   6.84025900
_cell_length_b   6.89504605
_cell_length_c   10.15895157
_cell_angle_alpha   93.78808820
_cell_angle_beta   92.21808438
_cell_angle_gamma   119.46431662
_symmetry_Int_Tables_number   1
_chemical_formula_structural   Ba(BO2)5
_chemical_formula_sum   'Ba2 B10 O20'
_cell_volume   414.85370694
_cell_formula_units_Z   2
loop_
 _symmetry_equiv_pos_site_id
 _symmetry_equiv_pos_as_xyz
  1  'x, y, z'
loop_
 _atom_site_type_symbol
 _atom_site_label
 _atom_site_symmetry_multiplicity
 _atom_site_fract_x
 _atom_site_fract_y
 _atom_site_fract_z
 _atom_site_occupancy
  Ba  Ba0  1  0.64738300  0.31248000  0.87518500  1
  Ba  Ba1  1  0.35261700  0.68752000  0.12481500  1
  B  B0  1  0.79358100  0.58887600  0.40458500  1
  B  B1  1  0.20641900  0.41112400  0.59541500  1
  B  B2  1  0.06451400  0.81850000  0.83309200  1
  B  B3  1  0.93548600  0.18150000  0.16690800  1
  B  B4  1  0.74910400  0.89084100  0.84338400  1
  B  B5  1  0.25089600  0.10915900  0.15661600  1
  B  B6  1  0.12580700  0.20006100  0.78812000  1
  B  B7  1  0.87419300  0.79993900  0.21188000  1
  B  B8  1  0.68644000  0.37598800  0.19222800  1
  B  B9  1  0.31356000  0.62401200  0.80777200  1
  O  O0  1  0.11328700  0.21094500  0.64400600  1
  O  O1  1  0.88671300  0.78905500  0.35599400  1
  O  O2  1  0.52936700  0.82404700  0.86763900  1
  O  O3  1  0.47063300  0.17595300  0.13236100  1
  O  O4  1  0.71333400  0.58144500  0.14092900  1
  O  O5  1  0.28666600  0.41855500  0.85907100  1
  O  O6  1  0.20574500  0.03729100  0.81628000  1
  O  O7  1  0.79425500  0.96270900  0.18372000  1
  O  O8  1  0.87484600  0.33941900  0.14415900  1
  O  O9  1  0.12515400  0.66058100  0.85584100  1
  O  O10  1  0.83233400  0.74304200  0.83984300  1
  O  O11  1  0.16766600  0.25695800  0.16015700  1
  O  O12  1  0.69240300  0.38548400  0.33563700  1
  O  O13  1  0.30759700  0.61451600  0.66436300  1
  O  O14  1  0.89376700  0.11258400  0.83331200  1
  O  O15  1  0.10623300  0.88741600  0.16668800  1
  O  O16  1  0.80633400  0.60353600  0.55017900  1
  O  O17  1  0.19366600  0.39646400  0.44982100  1
  O  O18  1  0.70660100  0.40136600  0.59712300  1
  O  O19  1  0.29339900  0.59863400  0.40287700  1
loop_
_geom_bond_atom_site_label_1
_geom_bond_atom_site_label_2
_geom_bond_distance
_geom_bond_site_symmetry_2
Ba0 O10 2.650292 1_555
Ba0 O6 2.674962 1_555
Ba0 O14 2.680329 1_555
Ba0 O5 2.899943 1_555
Ba0 O18 2.931279 1_555
Ba0 O3 2.936596 1_556
Ba0 O9 2.979132 1_655
Ba0 O8 3.039967 1_556
Ba0 O2 3.047291 1_545
Ba0 O4 3.058138 1_556
Ba1 O11 2.650292 1_555
Ba1 O7 2.674962 1_555
Ba1 O15 2.680329 1_555
Ba1 O4 2.899943 1_555
Ba1 O19 2.931279 1_555
Ba1 O2 2.936596 1_554
Ba1 O8 2.979132 1_455
Ba1 O9 3.039967 1_554
Ba1 O3 3.047291 1_565
Ba1 O5 3.058138 1_554
B0 O1 1.343109 1_555
B0 O12 1.346915 1_555
B0 O16 1.472106 1_555
B1 O0 1.343109 1_555
B1 O13 1.346915 1_555
B1 O17 1.472106 1_555
B2 O6 1.360641 1_565
B2 O9 1.371577 1_555
B2 O10 1.413488 1_455
B3 O7 1.360641 1_545
B3 O8 1.371577 1_555
B3 O11 1.413488 1_655
B4 O14 1.366534 1_565
B4 O2 1.376472 1_555
B4 O10 1.389762 1_555
B5 O15 1.366534 1_545
B5 O3 1.376472 1_555
B5 O11 1.389762 1_555
B6 O5 1.471136 1_555
B6 O0 1.472255 1_555
B6 O14 1.498340 1_455
B6 O6 1.508119 1_555
B7 O4 1.471136 1_555
B7 O1 1.472255 1_555
B7 O15 1.498340 1_655
B7 O7 1.508119 1_555
B8 O12 1.452114 1_555
B8 O4 1.469995 1_555
B8 O3 1.505997 1_555
B8 O8 1.521522 1_555
B9 O13 1.452114 1_555
B9 O5 1.469995 1_555
B9 O2 1.505997 1_555
B9 O9 1.521522 1_555
O16 O18 1.346657 1_555
O17 O19 1.346657 1_555
