# generated using pymatgen
data_Mn3CrSn2(PO4)6
_symmetry_space_group_name_H-M   'P 1'
_cell_length_a   8.59513898
_cell_length_b   8.59513930
_cell_length_c   8.59513981
_cell_angle_alpha   61.53150848
_cell_angle_beta   61.53151532
_cell_angle_gamma   61.53151565
_symmetry_Int_Tables_number   1
_chemical_formula_structural   Mn3CrSn2(PO4)6
_chemical_formula_sum   'Mn3 Cr1 Sn2 P6 O24'
_cell_volume   464.42980506
_cell_formula_units_Z   1
loop_
 _symmetry_equiv_pos_site_id
 _symmetry_equiv_pos_as_xyz
  1  'x, y, z'
loop_
 _atom_site_type_symbol
 _atom_site_label
 _atom_site_symmetry_multiplicity
 _atom_site_fract_x
 _atom_site_fract_y
 _atom_site_fract_z
 _atom_site_occupancy
  Mn  Mn0  1  0.15192000  0.15192000  0.15192000  1
  Mn  Mn1  1  0.34681000  0.34681000  0.34681000  1
  Mn  Mn2  1  0.65043500  0.65043500  0.65043500  1
  Cr  Cr0  1  0.85450400  0.85450400  0.85450400  1
  Sn  Sn0  1  0.00229500  0.00229500  0.00229500  1
  Sn  Sn1  1  0.49921000  0.49921000  0.49921000  1
  P  P0  1  0.75051400  0.45475800  0.04736000  1
  P  P1  1  0.24868800  0.55392900  0.94441700  1
  P  P2  1  0.55392900  0.94441700  0.24868800  1
  P  P3  1  0.94441700  0.24868800  0.55392900  1
  P  P4  1  0.04736000  0.75051400  0.45475800  1
  P  P5  1  0.45475800  0.04736000  0.75051400  1
  O  O0  1  0.09065800  0.31729900  0.52473400  1
  O  O1  1  0.31729900  0.52473400  0.09065800  1
  O  O2  1  0.06626800  0.90510100  0.25165700  1
  O  O3  1  0.52473400  0.09065800  0.31729900  1
  O  O4  1  0.99979200  0.82403900  0.60652400  1
  O  O5  1  0.25080900  0.60161500  0.43704200  1
  O  O6  1  0.25165700  0.06626800  0.90510100  1
  O  O7  1  0.43704200  0.25080900  0.60161500  1
  O  O8  1  0.17839300  0.40432000  0.98239800  1
  O  O9  1  0.60161500  0.43704200  0.25080900  1
  O  O10  1  0.09073000  0.75718700  0.92500500  1
  O  O11  1  0.40432000  0.98239800  0.17839300  1
  O  O12  1  0.60652400  0.99979200  0.82403900  1
  O  O13  1  0.90510100  0.25165700  0.06626800  1
  O  O14  1  0.39860500  0.57620800  0.74107500  1
  O  O15  1  0.82403900  0.60652400  0.99979200  1
  O  O16  1  0.57620800  0.74107500  0.39860500  1
  O  O17  1  0.75718700  0.92500500  0.09073000  1
  O  O18  1  0.74107500  0.39860500  0.57620800  1
  O  O19  1  0.98239800  0.17839300  0.40432000  1
  O  O20  1  0.48555400  0.90397000  0.67618200  1
  O  O21  1  0.92500500  0.09073000  0.75718700  1
  O  O22  1  0.67618200  0.48555400  0.90397000  1
  O  O23  1  0.90397000  0.67618200  0.48555400  1
loop_
_geom_bond_atom_site_label_1
_geom_bond_atom_site_label_2
_geom_bond_distance
_geom_bond_site_symmetry_2
Mn0 O8 2.005536 1_554
Mn0 O11 2.005536 1_545
Mn0 O19 2.005536 1_455
Mn0 O2 2.220557 1_545
Mn0 O13 2.220557 1_455
Mn0 O6 2.220558 1_554
Mn1 O1 2.050136 1_555
Mn1 O0 2.050136 1_555
Mn1 O3 2.050136 1_555
Mn1 O9 2.316289 1_555
Mn1 O7 2.316289 1_555
Mn1 O5 2.316289 1_555
Mn2 O23 2.005667 1_555
Mn2 O22 2.005667 1_555
Mn2 O20 2.005667 1_555
Mn2 O14 2.221291 1_555
Mn2 O16 2.221292 1_555
Mn2 O18 2.221292 1_555
Cr0 O15 1.963111 1_555
Cr0 O12 1.963111 1_555
Cr0 O4 1.963111 1_555
Cr0 O21 2.063974 1_565
Cr0 O10 2.063974 1_655
Cr0 O17 2.063974 1_556
O0 P3 1.501862 1_455
O1 P1 1.501862 1_554
O2 P4 1.601051 1_555
O2 Sn0 2.138364 1_565
O3 P2 1.501862 1_545
O4 P4 1.516327 1_655
O5 P4 1.586607 1_555
O5 Sn1 2.113368 1_555
O6 P5 1.601051 1_555
O6 Sn0 2.138364 1_556
O7 P5 1.586607 1_555
O7 Sn1 2.113368 1_555
O8 P1 1.509185 1_555
O9 P0 1.586607 1_555
O9 Sn1 2.113369 1_555
O10 P1 1.612466 1_555
O10 Sn0 2.187152 1_566
O11 P2 1.509185 1_555
O12 P5 1.516327 1_565
O13 P0 1.601051 1_555
O13 Sn0 2.138364 1_655
O14 P1 1.587715 1_555
O14 Sn1 2.135341 1_555
O15 P0 1.516327 1_556
O16 P2 1.587714 1_555
O16 Sn1 2.135340 1_555
O17 P2 1.612466 1_555
O17 Sn0 2.187152 1_665
O18 P3 1.587715 1_555
O18 Sn1 2.135341 1_555
O19 P3 1.509185 1_555
O20 P5 1.508524 1_565
O21 P3 1.612466 1_555
O21 Sn0 2.187152 1_656
O22 P0 1.508524 1_556
O23 P4 1.508524 1_655
