# generated using pymatgen
data_Cr3(NiO6)2
_symmetry_space_group_name_H-M   'P 1'
_cell_length_a   8.68092400
_cell_length_b   12.31392650
_cell_length_c   9.03662100
_cell_angle_alpha   90.00000000
_cell_angle_beta   90.00000000
_cell_angle_gamma   90.89589575
_symmetry_Int_Tables_number   1
_chemical_formula_structural   Cr3(NiO6)2
_chemical_formula_sum   'Cr12 Ni8 O48'
_cell_volume   965.86290241
_cell_formula_units_Z   4
loop_
 _symmetry_equiv_pos_site_id
 _symmetry_equiv_pos_as_xyz
  1  'x, y, z'
loop_
 _atom_site_type_symbol
 _atom_site_label
 _atom_site_symmetry_multiplicity
 _atom_site_fract_x
 _atom_site_fract_y
 _atom_site_fract_z
 _atom_site_occupancy
  Cr  Cr0  1  0.03491500  0.48937600  0.25393300  1
  Cr  Cr1  1  0.10867000  0.84838200  0.37845700  1
  Cr  Cr2  1  0.10848400  0.14110200  0.11156900  1
  Cr  Cr3  1  0.39133000  0.65161800  0.87845700  1
  Cr  Cr4  1  0.39151600  0.35889800  0.61156900  1
  Cr  Cr5  1  0.46508500  0.01062400  0.75393300  1
  Cr  Cr6  1  0.53491400  0.98937600  0.24606700  1
  Cr  Cr7  1  0.60848400  0.64110200  0.38843100  1
  Cr  Cr8  1  0.60867000  0.34838200  0.12154300  1
  Cr  Cr9  1  0.89151600  0.85889800  0.88843100  1
  Cr  Cr10  1  0.89133000  0.15161800  0.62154300  1
  Cr  Cr11  1  0.96508600  0.51062400  0.74606700  1
  Ni  Ni0  1  0.25316100  0.88588100  0.02837800  1
  Ni  Ni1  1  0.24683900  0.61411900  0.52837800  1
  Ni  Ni2  1  0.25257800  0.38126200  0.97066000  1
  Ni  Ni3  1  0.24742200  0.11873800  0.47066000  1
  Ni  Ni4  1  0.75257800  0.88126200  0.52934000  1
  Ni  Ni5  1  0.74742200  0.61873800  0.02934000  1
  Ni  Ni6  1  0.75316100  0.38588100  0.47162200  1
  Ni  Ni7  1  0.74683900  0.11411900  0.97162200  1
  O  O0  1  0.07025200  0.44935400  0.87082100  1
  O  O1  1  0.07672400  0.90111100  0.88562800  1
  O  O2  1  0.06781800  0.61253900  0.66371700  1
  O  O3  1  0.06849200  0.18962900  0.57663800  1
  O  O4  1  0.09346400  0.58579900  0.37257300  1
  O  O5  1  0.12011000  0.83958500  0.19164100  1
  O  O6  1  0.13902800  0.97528600  0.43019700  1
  O  O7  1  0.12822000  0.24325100  0.99474400  1
  O  O8  1  0.15845500  0.17914200  0.28001500  1
  O  O9  1  0.18454800  0.43214700  0.17471900  1
  O  O10  1  0.23631000  0.77105500  0.46712900  1
  O  O11  1  0.26369000  0.72894500  0.96712900  1
  O  O12  1  0.22930900  0.04240800  0.05898200  1
  O  O13  1  0.27069100  0.45759200  0.55898200  1
  O  O14  1  0.31545200  0.06785300  0.67471900  1
  O  O15  1  0.34154500  0.32085800  0.78001500  1
  O  O16  1  0.36097200  0.52471400  0.93019700  1
  O  O17  1  0.37178000  0.25674900  0.49474400  1
  O  O18  1  0.37989000  0.66041500  0.69164100  1
  O  O19  1  0.40653600  0.91420100  0.87257300  1
  O  O20  1  0.43218200  0.88746100  0.16371700  1
  O  O21  1  0.42327600  0.59888900  0.38562800  1
  O  O22  1  0.43150800  0.31037100  0.07663800  1
  O  O23  1  0.42974800  0.05064600  0.37082100  1
  O  O24  1  0.57025200  0.94935400  0.62917900  1
  O  O25  1  0.56849200  0.68962900  0.92336200  1
  O  O26  1  0.57672300  0.40111100  0.61437200  1
  O  O27  1  0.56781800  0.11253900  0.83628300  1
  O  O28  1  0.59346400  0.08579900  0.12742700  1
  O  O29  1  0.62011000  0.33958500  0.30835900  1
  O  O30  1  0.62822000  0.74325100  0.50525600  1
  O  O31  1  0.63902800  0.47528600  0.06980300  1
  O  O32  1  0.65845500  0.67914200  0.21998500  1
  O  O33  1  0.68454800  0.93214700  0.32528100  1
  O  O34  1  0.72930900  0.54240800  0.44101800  1
  O  O35  1  0.77069100  0.95759200  0.94101800  1
  O  O36  1  0.73631000  0.27105500  0.03287100  1
  O  O37  1  0.76369000  0.22894500  0.53287100  1
  O  O38  1  0.81545200  0.56785300  0.82528100  1
  O  O39  1  0.84154500  0.82085800  0.71998500  1
  O  O40  1  0.87178000  0.75674900  0.00525600  1
  O  O41  1  0.86097200  0.02471400  0.56980300  1
  O  O42  1  0.87989000  0.16041500  0.80835900  1
  O  O43  1  0.90653600  0.41420100  0.62742700  1
  O  O44  1  0.93150800  0.81037100  0.42336200  1
  O  O45  1  0.93218200  0.38746100  0.33628300  1
  O  O46  1  0.92327700  0.09888900  0.11437200  1
  O  O47  1  0.92974800  0.55064600  0.12917900  1
loop_
_geom_bond_atom_site_label_1
_geom_bond_atom_site_label_2
_geom_bond_distance
_geom_bond_site_symmetry_2
Cr0 O47 1.641698 1_455
Cr0 O9 1.650737 1_555
Cr0 O4 1.672918 1_555
Cr0 O45 1.699730 1_455
Cr1 O6 1.648384 1_555
Cr1 O44 1.651202 1_455
Cr1 O10 1.676153 1_555
Cr1 O5 1.694669 1_555
Cr2 O8 1.648721 1_555
Cr2 O7 1.649037 1_554
Cr2 O46 1.682149 1_455
Cr2 O12 1.686060 1_555
Cr3 O16 1.648384 1_555
Cr3 O25 1.651202 1_555
Cr3 O11 1.676153 1_555
Cr3 O18 1.694669 1_555
Cr4 O15 1.648721 1_555
Cr4 O17 1.649037 1_555
Cr4 O26 1.682149 1_555
Cr4 O13 1.686060 1_555
Cr5 O24 1.641698 1_545
Cr5 O14 1.650737 1_555
Cr5 O19 1.672918 1_545
Cr5 O27 1.699730 1_555
Cr6 O23 1.641693 1_565
Cr6 O33 1.650744 1_555
Cr6 O28 1.672920 1_565
Cr6 O20 1.699725 1_555
Cr7 O32 1.648721 1_555
Cr7 O30 1.649037 1_555
Cr7 O21 1.682157 1_555
Cr7 O34 1.686060 1_555
Cr8 O31 1.648384 1_555
Cr8 O22 1.651202 1_555
Cr8 O36 1.676153 1_555
Cr8 O29 1.694669 1_555
Cr9 O39 1.648721 1_555
Cr9 O40 1.649037 1_556
Cr9 O1 1.682157 1_655
Cr9 O35 1.686060 1_555
Cr10 O41 1.648384 1_555
Cr10 O3 1.651202 1_655
Cr10 O37 1.676153 1_555
Cr10 O42 1.694669 1_555
Cr11 O0 1.641693 1_655
Cr11 O38 1.650744 1_555
Cr11 O43 1.672920 1_555
Cr11 O2 1.699725 1_655
Ni0 O5 1.953226 1_555
Ni0 O12 1.961363 1_565
Ni0 O19 1.965233 1_554
Ni0 O20 1.977449 1_555
Ni0 O1 2.013481 1_554
Ni0 O11 2.013647 1_554
Ni1 O18 1.953226 1_555
Ni1 O13 1.961363 1_555
Ni1 O4 1.965233 1_555
Ni1 O2 1.977449 1_555
Ni1 O21 2.013481 1_555
Ni1 O10 2.013647 1_555
Ni2 O7 2.010861 1_555
Ni2 O0 2.015850 1_555
Ni2 O16 2.021756 1_555
Ni2 O22 2.033289 1_556
Ni2 O15 2.033638 1_555
Ni2 O9 2.037966 1_556
Ni3 O17 2.010861 1_555
Ni3 O23 2.015850 1_555
Ni3 O6 2.021756 1_545
Ni3 O3 2.033289 1_555
Ni3 O8 2.033638 1_555
Ni3 O14 2.037966 1_555
Ni4 O30 2.010861 1_555
Ni4 O24 2.015850 1_555
Ni4 O41 2.021756 1_565
Ni4 O44 2.033289 1_555
Ni4 O39 2.033638 1_555
Ni4 O33 2.037966 1_555
Ni5 O40 2.010861 1_555
Ni5 O47 2.015850 1_555
Ni5 O31 2.021756 1_555
Ni5 O25 2.033289 1_554
Ni5 O32 2.033638 1_555
Ni5 O38 2.037966 1_554
Ni6 O29 1.953226 1_555
Ni6 O34 1.961363 1_555
Ni6 O43 1.965233 1_555
Ni6 O45 1.977449 1_555
Ni6 O26 2.013488 1_555
Ni6 O37 2.013647 1_555
Ni7 O42 1.953226 1_555
Ni7 O35 1.961363 1_545
Ni7 O28 1.965233 1_556
Ni7 O27 1.977449 1_555
Ni7 O46 2.013488 1_556
Ni7 O36 2.013647 1_556
