# generated using pymatgen
data_TiSnO3
_symmetry_space_group_name_H-M   'P 1'
_cell_length_a   7.59523688
_cell_length_b   7.59523688
_cell_length_c   7.59523750
_cell_angle_alpha   39.10563751
_cell_angle_beta   39.10563897
_cell_angle_gamma   39.10563893
_symmetry_Int_Tables_number   1
_chemical_formula_structural   TiSnO3
_chemical_formula_sum   'Ti2 Sn2 O6'
_cell_volume   156.79783305
_cell_formula_units_Z   2
loop_
 _symmetry_equiv_pos_site_id
 _symmetry_equiv_pos_as_xyz
  1  'x, y, z'
loop_
 _atom_site_type_symbol
 _atom_site_label
 _atom_site_symmetry_multiplicity
 _atom_site_fract_x
 _atom_site_fract_y
 _atom_site_fract_z
 _atom_site_occupancy
  Ti  Ti0  1  0.33138516  0.33138516  0.33138516  1
  Ti  Ti1  1  0.66861484  0.66861484  0.66861484  1
  Sn  Sn0  1  0.10477862  0.10477862  0.10477862  1
  Sn  Sn1  1  0.89522138  0.89522138  0.89522138  1
  O  O0  1  0.05157535  0.69540636  0.40543736  1
  O  O1  1  0.40543736  0.05157535  0.69540636  1
  O  O2  1  0.30459364  0.59456264  0.94842465  1
  O  O3  1  0.69540636  0.40543736  0.05157535  1
  O  O4  1  0.59456264  0.94842465  0.30459364  1
  O  O5  1  0.94842465  0.30459364  0.59456264  1
loop_
_geom_bond_atom_site_label_1
_geom_bond_atom_site_label_2
_geom_bond_distance
_geom_bond_site_symmetry_2
O0 Ti1 1.939417 1_455
O0 Ti0 1.978970 1_555
O0 Sn0 2.131678 1_565
O1 Ti1 1.939417 1_545
O1 Ti0 1.978970 1_555
O1 Sn0 2.131679 1_556
O2 Ti0 1.939417 1_556
O2 Ti1 1.978970 1_555
O2 Sn1 2.131678 1_455
O3 Ti1 1.939417 1_554
O3 Ti0 1.978970 1_555
O3 Sn0 2.131678 1_655
O4 Ti0 1.939417 1_565
O4 Ti1 1.978970 1_555
O4 Sn1 2.131679 1_554
O5 Ti0 1.939417 1_655
O5 Ti1 1.978970 1_555
O5 Sn1 2.131678 1_545
