# generated using pymatgen
data_Li4Nb2Cr3Cu3O16
_symmetry_space_group_name_H-M   'P 1'
_cell_length_a   5.99678991
_cell_length_b   5.84637056
_cell_length_c   9.77252530
_cell_angle_alpha   89.98180259
_cell_angle_beta   86.59969462
_cell_angle_gamma   119.16020196
_symmetry_Int_Tables_number   1
_chemical_formula_structural   Li4Nb2Cr3Cu3O16
_chemical_formula_sum   'Li4 Nb2 Cr3 Cu3 O16'
_cell_volume   298.50155033
_cell_formula_units_Z   1
loop_
 _symmetry_equiv_pos_site_id
 _symmetry_equiv_pos_as_xyz
  1  'x, y, z'
loop_
 _atom_site_type_symbol
 _atom_site_label
 _atom_site_symmetry_multiplicity
 _atom_site_fract_x
 _atom_site_fract_y
 _atom_site_fract_z
 _atom_site_occupancy
  Li  Li0  1  0.32291800  0.66169100  0.89884300  1
  Li  Li1  1  0.99843300  0.99909400  0.99318100  1
  Li  Li2  1  0.00871300  0.00494000  0.48842600  1
  Li  Li3  1  0.68014000  0.34009200  0.40371400  1
  Nb  Nb0  1  0.36922200  0.68526000  0.49603600  1
  Nb  Nb1  1  0.66825900  0.33306800  0.98920000  1
  Cr  Cr0  1  0.65979100  0.82905100  0.21802600  1
  Cr  Cr1  1  0.82720900  0.66022500  0.71561600  1
  Cr  Cr2  1  0.82787600  0.16782300  0.71516100  1
  Cu  Cu0  1  0.17517500  0.83639400  0.21296600  1
  Cu  Cu1  1  0.17545100  0.33901200  0.21360800  1
  Cu  Cu2  1  0.33602700  0.16855900  0.71408400  1
  O  O0  1  0.15799900  0.82610500  0.58849300  1
  O  O1  1  0.05663800  0.52961300  0.33210200  1
  O  O2  1  0.33658700  0.66860300  0.11993300  1
  O  O3  1  0.99988200  0.99912300  0.29863800  1
  O  O4  1  0.99238600  0.99636200  0.80674200  1
  O  O5  1  0.15801900  0.33207100  0.58812700  1
  O  O6  1  0.51834400  0.97779600  0.35588700  1
  O  O7  1  0.51414800  0.53751300  0.35549500  1
  O  O8  1  0.30763100  0.15333200  0.09533900  1
  O  O9  1  0.67237500  0.83644400  0.60381200  1
  O  O10  1  0.51132200  0.47817600  0.84132800  1
  O  O11  1  0.51190600  0.03352500  0.84112200  1
  O  O12  1  0.67312200  0.33706200  0.61170200  1
  O  O13  1  0.79005900  0.64955000  0.08518100  1
  O  O14  1  0.95801700  0.47887400  0.83925100  1
  O  O15  1  0.79234800  0.14094200  0.08583100  1
loop_
_geom_bond_atom_site_label_1
_geom_bond_atom_site_label_2
_geom_bond_distance
_geom_bond_site_symmetry_2
Li0 O10 1.962103 1_555
Li0 O11 1.962357 1_565
Li0 O14 2.035253 1_455
Li0 O2 2.166660 1_556
Li1 O4 1.824410 1_555
Li1 O8 1.959246 1_666
Li1 O15 1.975182 1_566
Li1 O13 1.980656 1_556
Li2 O3 1.858451 1_445
Li2 O5 1.960785 1_555
Li2 O0 1.966275 1_545
Li2 O9 2.025654 1_445
Li3 O6 1.923010 1_545
Li3 O7 1.928729 1_555
Li3 O12 2.030399 1_555
Li3 O1 2.046760 1_655
Nb0 O9 1.964009 1_555
Nb0 O6 1.990817 1_555
Nb0 O7 1.994620 1_555
Nb0 O0 1.994988 1_555
Nb0 O5 1.998197 1_555
Nb0 O1 2.367121 1_555
Nb1 O13 1.897939 1_556
Nb1 O15 1.898521 1_556
Nb1 O14 2.036422 1_555
Nb1 O8 2.091799 1_556
Nb1 O11 2.145339 1_555
Nb1 O10 2.152271 1_555
Cr0 O6 1.968457 1_555
Cr0 O7 1.970119 1_555
Cr0 O3 1.995885 1_555
Cr0 O2 2.001163 1_555
Cr0 O13 2.019017 1_555
Cr0 O15 2.022351 1_565
Cr1 O4 1.960851 1_555
Cr1 O12 1.966185 1_555
Cr1 O10 1.997200 1_555
Cr1 O14 2.030112 1_555
Cr1 O9 2.041847 1_555
Cr1 O0 2.061798 1_655
Cr2 O4 1.961368 1_545
Cr2 O12 1.966705 1_555
Cr2 O11 1.998732 1_555
Cr2 O14 2.029108 1_555
Cr2 O9 2.041618 1_545
Cr2 O5 2.058620 1_655
Cu0 O2 1.883433 1_555
Cu0 O3 1.892557 1_455
Cu0 O1 1.932798 1_555
Cu0 O8 1.960034 1_565
Cu0 O6 2.356479 1_555
Cu0 O13 2.443531 1_455
Cu1 O2 1.887908 1_555
Cu1 O3 1.898417 1_445
Cu1 O1 1.940866 1_555
Cu1 O8 1.968052 1_555
Cu1 O7 2.330850 1_555
Cu1 O15 2.434519 1_455
Cu2 O4 1.958685 1_445
Cu2 O12 1.968946 1_555
Cu2 O10 2.056716 1_555
Cu2 O11 2.059869 1_555
Cu2 O5 2.172112 1_555
Cu2 O0 2.174539 1_545
