# generated using pymatgen
data_Cr3Co(PO4)4
_symmetry_space_group_name_H-M   'P 1'
_cell_length_a   5.77906700
_cell_length_b   4.76110700
_cell_length_c   9.92565437
_cell_angle_alpha   89.54253654
_cell_angle_beta   90.00000000
_cell_angle_gamma   90.00000000
_symmetry_Int_Tables_number   1
_chemical_formula_structural   Cr3Co(PO4)4
_chemical_formula_sum   'Cr3 Co1 P4 O16'
_cell_volume   273.09325673
_cell_formula_units_Z   1
loop_
 _symmetry_equiv_pos_site_id
 _symmetry_equiv_pos_as_xyz
  1  'x, y, z'
loop_
 _atom_site_type_symbol
 _atom_site_label
 _atom_site_symmetry_multiplicity
 _atom_site_fract_x
 _atom_site_fract_y
 _atom_site_fract_z
 _atom_site_occupancy
  Cr  Cr0  1  0.00000000  0.47364400  0.77055200  1
  Cr  Cr1  1  0.50000000  0.52784300  0.22739000  1
  Cr  Cr2  1  0.50000000  0.97445500  0.72956700  1
  Co  Co0  1  0.00000000  0.05301200  0.27700700  1
  P  P0  1  0.50000000  0.07774500  0.40685600  1
  P  P1  1  0.50000000  0.41475700  0.90785700  1
  P  P2  1  0.00000000  0.58851100  0.09639000  1
  P  P3  1  0.00000000  0.91781400  0.59110000  1
  O  O0  1  0.50000000  0.16929300  0.55326800  1
  O  O1  1  0.29471200  0.22949800  0.32674400  1
  O  O2  1  0.70528800  0.22949800  0.32674400  1
  O  O3  1  0.00000000  0.23464800  0.60944400  1
  O  O4  1  0.00000000  0.26427100  0.11082600  1
  O  O5  1  0.29417800  0.26613100  0.82825000  1
  O  O6  1  0.70582200  0.26613100  0.82825000  1
  O  O7  1  0.50000000  0.32594700  0.05451600  1
  O  O8  1  0.00000000  0.66349300  0.94633000  1
  O  O9  1  0.79195400  0.73105500  0.17112000  1
  O  O10  1  0.20804600  0.73105500  0.17112000  1
  O  O11  1  0.50000000  0.73211100  0.89047100  1
  O  O12  1  0.50000000  0.76181900  0.39147100  1
  O  O13  1  0.79440900  0.76683600  0.67072800  1
  O  O14  1  0.20559100  0.76683600  0.67072800  1
  O  O15  1  0.00000000  0.83359900  0.44327200  1
loop_
_geom_bond_atom_site_label_1
_geom_bond_atom_site_label_2
_geom_bond_distance
_geom_bond_site_symmetry_2
Cr0 O3 1.970017 1_555
Cr0 O8 1.971350 1_555
Cr0 O5 2.045805 1_555
Cr0 O6 2.045805 1_455
Cr0 O14 2.078428 1_555
Cr0 O13 2.078428 1_455
Cr1 O7 1.973476 1_555
Cr1 O12 1.980482 1_555
Cr1 O9 2.021414 1_555
Cr1 O10 2.021414 1_555
Cr1 O2 2.091721 1_555
Cr1 O1 2.091721 1_555
Cr2 O11 1.962790 1_555
Cr2 O0 1.974005 1_565
Cr2 O13 2.054802 1_555
Cr2 O14 2.054802 1_555
Cr2 O6 2.079526 1_565
Cr2 O5 2.079526 1_565
Co0 O4 1.925071 1_555
Co0 O15 1.946077 1_545
Co0 O1 1.963961 1_555
Co0 O2 1.963961 1_455
Co0 O10 2.219363 1_545
Co0 O9 2.219363 1_445
O0 P0 1.520523 1_555
O1 P0 1.597691 1_555
O2 P0 1.597691 1_555
O3 P3 1.520872 1_545
O4 P2 1.549237 1_555
O5 P1 1.596500 1_555
O6 P1 1.596500 1_555
O7 P1 1.512608 1_554
O8 P2 1.528855 1_556
O9 P2 1.569830 1_655
O10 P2 1.569830 1_555
O11 P1 1.519409 1_555
O12 P0 1.513102 1_565
O13 P3 1.594974 1_655
O14 P3 1.594974 1_555
O15 P3 1.524172 1_555
