# generated using pymatgen
data_Mn6O5F7
_symmetry_space_group_name_H-M   'P 1'
_cell_length_a   5.71588000
_cell_length_b   5.79115966
_cell_length_c   7.15261252
_cell_angle_alpha   74.27945157
_cell_angle_beta   73.87602217
_cell_angle_gamma   76.21632363
_symmetry_Int_Tables_number   1
_chemical_formula_structural   Mn6O5F7
_chemical_formula_sum   'Mn6 O5 F7'
_cell_volume   215.51279704
_cell_formula_units_Z   1
loop_
 _symmetry_equiv_pos_site_id
 _symmetry_equiv_pos_as_xyz
  1  'x, y, z'
loop_
 _atom_site_type_symbol
 _atom_site_label
 _atom_site_symmetry_multiplicity
 _atom_site_fract_x
 _atom_site_fract_y
 _atom_site_fract_z
 _atom_site_occupancy
  Mn  Mn0  1  0.31320600  0.33887300  0.16837300  1
  Mn  Mn1  1  0.66973400  0.62771500  0.33119100  1
  Mn  Mn2  1  0.34690200  0.35264600  0.67050100  1
  Mn  Mn3  1  0.66854500  0.66789200  0.83687700  1
  Mn  Mn4  1  0.00508300  0.01417900  0.48983700  1
  Mn  Mn5  1  0.99259800  0.00665300  0.00254800  1
  O  O0  1  0.42752600  0.42493500  0.37577700  1
  O  O1  1  0.76560700  0.75239800  0.04149300  1
  O  O2  1  0.23001300  0.25125800  0.95635600  1
  O  O3  1  0.58163900  0.56216400  0.62868000  1
  O  O4  1  0.97860300  0.32831900  0.32946700  1
  F  F0  1  0.35815400  0.95316700  0.33685700  1
  F  F1  1  0.02841000  0.67577200  0.66117600  1
  F  F2  1  0.11398000  0.12848500  0.69148100  1
  F  F3  1  0.88572300  0.86832100  0.31043000  1
  F  F4  1  0.65298500  0.02913600  0.66818200  1
  F  F5  1  0.30780200  0.71007600  0.99221700  1
  F  F6  1  0.67349400  0.30801400  0.00855500  1
loop_
_geom_bond_atom_site_label_1
_geom_bond_atom_site_label_2
_geom_bond_distance
_geom_bond_site_symmetry_2
Mn0 O2 1.927622 1_554
Mn0 O4 1.944934 1_455
Mn0 O0 1.992576 1_555
Mn1 O0 1.929754 1_555
Mn1 O1 1.965285 1_555
Mn1 O3 1.995883 1_555
Mn1 O4 2.159652 1_555
Mn2 O3 1.928236 1_555
Mn2 O2 1.936287 1_555
Mn2 O0 1.976262 1_555
Mn3 O1 1.912521 1_556
Mn3 O3 1.972085 1_555
Mn4 O4 1.866198 1_455
Mn5 O2 2.090614 1_654
Mn5 O1 2.101515 1_545
F0 Mn4 2.009503 1_565
F0 Mn0 2.224289 1_565
F0 Mn1 2.264402 1_555
F1 Mn4 2.006275 1_565
F1 Mn3 2.095306 1_455
F1 Mn2 2.279632 1_555
F2 Mn2 2.021695 1_555
F2 Mn4 2.029321 1_555
F2 Mn5 2.110620 1_456
F3 Mn1 2.023240 1_555
F3 Mn4 2.043008 1_665
F3 Mn5 2.096298 1_565
F4 Mn4 2.058144 1_655
F4 Mn3 2.107948 1_545
F4 Mn2 2.238296 1_555
F5 Mn3 2.044611 1_555
F5 Mn5 2.172938 1_466
F5 Mn0 2.175296 1_556
F6 Mn0 2.051199 1_555
F6 Mn3 2.111060 1_554
F6 Mn5 2.203351 1_555
