# generated using pymatgen
data_V4CuNiO12
_symmetry_space_group_name_H-M   'P 1'
_cell_length_a   6.65601421
_cell_length_b   11.90002463
_cell_length_c   6.65587490
_cell_angle_alpha   104.04581451
_cell_angle_beta   95.97057450
_cell_angle_gamma   75.96166518
_symmetry_Int_Tables_number   1
_chemical_formula_structural   V4CuNiO12
_chemical_formula_sum   'V8 Cu2 Ni2 O24'
_cell_volume   495.58247576
_cell_formula_units_Z   2
loop_
 _symmetry_equiv_pos_site_id
 _symmetry_equiv_pos_as_xyz
  1  'x, y, z'
loop_
 _atom_site_type_symbol
 _atom_site_label
 _atom_site_symmetry_multiplicity
 _atom_site_fract_x
 _atom_site_fract_y
 _atom_site_fract_z
 _atom_site_occupancy
  V  V0  1  0.61272000  0.37919200  0.20359500  1
  V  V1  1  0.61262800  0.87927500  0.20349200  1
  V  V2  1  0.20352100  0.37068400  0.61266200  1
  V  V3  1  0.20357700  0.87080000  0.61276200  1
  V  V4  1  0.78855300  0.13319100  0.39095800  1
  V  V5  1  0.78817300  0.63320700  0.39053100  1
  V  V6  1  0.39104600  0.11678100  0.78857300  1
  V  V7  1  0.39054300  0.61679400  0.78817600  1
  Cu  Cu0  1  0.08429600  0.37451600  0.08392300  1
  Cu  Cu1  1  0.08378000  0.87559600  0.08435600  1
  Ni  Ni0  1  0.91955000  0.62504900  0.91953300  1
  Ni  Ni1  1  0.92010600  0.12504900  0.92004600  1
  O  O0  1  0.81324100  0.32165100  0.03320700  1
  O  O1  1  0.81346100  0.82172600  0.03331400  1
  O  O2  1  0.03337000  0.42828900  0.81354700  1
  O  O3  1  0.03326700  0.92837000  0.81329200  1
  O  O4  1  0.37565400  0.38343200  0.08149900  1
  O  O5  1  0.37557300  0.88383200  0.08141700  1
  O  O6  1  0.08136400  0.36610900  0.37561900  1
  O  O7  1  0.08146900  0.86654500  0.37569000  1
  O  O8  1  0.96535400  0.08630400  0.20620900  1
  O  O9  1  0.96472800  0.58643600  0.20560300  1
  O  O10  1  0.20629600  0.16367100  0.96538900  1
  O  O11  1  0.20567100  0.66352000  0.96476300  1
  O  O12  1  0.64320900  0.28039900  0.37354900  1
  O  O13  1  0.64285100  0.78046800  0.37326800  1
  O  O14  1  0.37329400  0.46951300  0.64283400  1
  O  O15  1  0.37360700  0.96956100  0.64320400  1
  O  O16  1  0.62780100  0.02532800  0.34535400  1
  O  O17  1  0.62769600  0.52530900  0.34519200  1
  O  O18  1  0.34537900  0.22463300  0.62781000  1
  O  O19  1  0.34513600  0.72468600  0.62772000  1
  O  O20  1  0.91158100  0.13940300  0.62519400  1
  O  O21  1  0.91135800  0.63924200  0.62486200  1
  O  O22  1  0.62526000  0.11065100  0.91152500  1
  O  O23  1  0.62488300  0.61078500  0.91132800  1
loop_
_geom_bond_atom_site_label_1
_geom_bond_atom_site_label_2
_geom_bond_distance
_geom_bond_site_symmetry_2
Cu0 O4 1.969644 1_555
Cu0 O6 1.970505 1_555
Cu0 O0 2.021263 1_455
Cu0 O2 2.022305 1_554
Cu0 O10 2.400251 1_554
Cu0 O9 2.412065 1_455
Cu1 O7 1.969839 1_555
Cu1 O5 1.970590 1_555
Cu1 O3 2.020843 1_554
Cu1 O1 2.022462 1_455
Cu1 O8 2.398612 1_465
Cu1 O11 2.413890 1_554
Ni0 O21 2.003059 1_555
Ni0 O23 2.003310 1_555
Ni0 O11 2.040553 1_655
Ni0 O9 2.040951 1_556
Ni0 O1 2.235850 1_556
Ni0 O2 2.236699 1_655
Ni1 O20 2.004655 1_555
Ni1 O22 2.004802 1_555
Ni1 O10 2.041743 1_655
Ni1 O8 2.042204 1_556
Ni1 O0 2.235083 1_556
Ni1 O3 2.235830 1_645
O0 V0 1.740958 1_555
O1 V1 1.741610 1_555
O2 V2 1.741770 1_555
O3 V3 1.740674 1_555
O4 V0 1.693306 1_555
O5 V1 1.692890 1_555
O6 V2 1.692985 1_555
O7 V3 1.693326 1_555
O8 V4 1.690472 1_555
O9 V5 1.690220 1_555
O10 V6 1.690549 1_555
O11 V7 1.690111 1_555
O12 V0 1.784635 1_555
O12 V4 1.808613 1_555
O13 V1 1.784038 1_555
O13 V5 1.808873 1_555
O14 V2 1.784175 1_555
O14 V7 1.808954 1_555
O15 V3 1.784674 1_555
O15 V6 1.808694 1_565
O16 V1 1.786407 1_545
O16 V4 1.814973 1_555
O17 V0 1.786246 1_555
O17 V5 1.814067 1_555
O18 V2 1.786474 1_555
O18 V6 1.815000 1_555
O19 V3 1.786248 1_555
O19 V7 1.813981 1_555
O20 V4 1.677641 1_555
O21 V5 1.678744 1_555
O22 V6 1.677407 1_555
O23 V7 1.678762 1_555
