# generated using pymatgen
data_Li7Mn4(PO4)6
_symmetry_space_group_name_H-M   'P 1'
_cell_length_a   8.41271500
_cell_length_b   8.46204407
_cell_length_c   8.98024247
_cell_angle_alpha   64.18738774
_cell_angle_beta   63.18022432
_cell_angle_gamma   60.80038735
_symmetry_Int_Tables_number   1
_chemical_formula_structural   Li7Mn4(PO4)6
_chemical_formula_sum   'Li7 Mn4 P6 O24'
_cell_volume   478.62404931
_cell_formula_units_Z   1
loop_
 _symmetry_equiv_pos_site_id
 _symmetry_equiv_pos_as_xyz
  1  'x, y, z'
loop_
 _atom_site_type_symbol
 _atom_site_label
 _atom_site_symmetry_multiplicity
 _atom_site_fract_x
 _atom_site_fract_y
 _atom_site_fract_z
 _atom_site_occupancy
  Li  Li0  1  0.73044700  0.33584100  0.85434400  1
  Li  Li1  1  0.33340300  0.07006900  0.86050200  1
  Li  Li2  1  0.54064900  0.55150100  0.36918000  1
  Li  Li3  1  0.92445600  0.26809900  0.13726700  1
  Li  Li4  1  0.07808700  0.72921900  0.86045900  1
  Li  Li5  1  0.66982200  0.93030600  0.13684900  1
  Li  Li6  1  0.26909400  0.67096600  0.13749300  1
  Mn  Mn0  1  0.34780500  0.34635300  0.95692300  1
  Mn  Mn1  1  0.66274900  0.65985100  0.02124700  1
  Mn  Mn2  1  0.84766300  0.85127700  0.44207400  1
  Mn  Mn3  1  0.15157100  0.14489300  0.56125600  1
  P  P0  1  0.45432000  0.74846700  0.74972100  1
  P  P1  1  0.75322800  0.04229100  0.74612800  1
  P  P2  1  0.95549600  0.54295100  0.25755300  1
  P  P3  1  0.04906000  0.44811200  0.74838000  1
  P  P4  1  0.24591500  0.95929400  0.25604100  1
  P  P5  1  0.53822700  0.25563300  0.25083000  1
  O  O0  1  0.86990200  0.15087000  0.72391600  1
  O  O1  1  0.86279000  0.43974500  0.90265000  1
  O  O2  1  0.49647800  0.53451400  0.79914100  1
  O  O3  1  0.44752300  0.79313000  0.90549000  1
  O  O4  1  0.79924300  0.85799200  0.89762800  1
  O  O5  1  0.99815800  0.39759600  0.42058200  1
  O  O6  1  0.25119800  0.86564500  0.73141000  1
  O  O7  1  0.60687700  0.80227400  0.58346800  1
  O  O8  1  0.53614300  0.16070300  0.79946700  1
  O  O9  1  0.81818200  0.50938100  0.21254300  1
  O  O10  1  0.80922200  0.99947100  0.57593300  1
  O  O11  1  0.15150600  0.24524700  0.72330000  1
  O  O12  1  0.85598700  0.74995900  0.27492300  1
  O  O13  1  0.18108200  0.00702300  0.42483100  1
  O  O14  1  0.17919500  0.47941800  0.80765900  1
  O  O15  1  0.46010700  0.82761900  0.21746900  1
  O  O16  1  0.39650500  0.18744300  0.41586300  1
  O  O17  1  0.74604800  0.13432700  0.25447200  1
  O  O18  1  0.01262100  0.60411300  0.58817800  1
  O  O19  1  0.21261900  0.14190400  0.09922800  1
  O  O20  1  0.53485500  0.22457100  0.08757700  1
  O  O21  1  0.49677100  0.46669500  0.21545900  1
  O  O22  1  0.14132000  0.54831100  0.09753900  1
  O  O23  1  0.12414400  0.85715100  0.27391400  1
loop_
_geom_bond_atom_site_label_1
_geom_bond_atom_site_label_2
_geom_bond_distance
_geom_bond_site_symmetry_2
Li0 O0 1.939869 1_555
Li0 O2 1.967838 1_555
Li0 O1 1.980894 1_555
Li0 O20 2.159931 1_556
Li1 O8 1.965793 1_555
Li1 O3 1.976630 1_545
Li1 O11 1.988634 1_555
Li1 O19 2.136460 1_556
Li2 O21 2.034186 1_555
Li2 O9 2.053788 1_555
Li2 O15 2.071398 1_555
Li3 O17 1.958704 1_555
Li3 O19 2.044131 1_655
Li3 O9 2.073769 1_555
Li3 O1 2.098566 1_554
Li4 O6 1.936240 1_555
Li4 O4 1.979351 1_455
Li4 O14 2.042347 1_555
Li4 O22 2.132691 1_556
Li5 O12 2.022787 1_555
Li5 O15 2.046269 1_555
Li5 O20 2.102548 1_565
Li5 O4 2.135189 1_554
Li6 O23 1.982007 1_555
Li6 O21 2.018059 1_555
Li6 O22 2.030363 1_555
Li6 O3 2.116353 1_554
Mn0 O14 1.979797 1_555
Mn0 O20 1.986374 1_556
Mn0 O8 2.112337 1_555
Mn0 O2 2.118113 1_555
Mn0 O22 2.129812 1_556
Mn0 O19 2.145349 1_556
Mn1 O3 2.077494 1_554
Mn1 O4 2.114115 1_554
Mn1 O1 2.118329 1_554
Mn1 O9 2.186289 1_555
Mn1 O15 2.265648 1_555
Mn1 O21 2.282511 1_555
Mn2 O10 1.920536 1_555
Mn2 O7 1.981816 1_555
Mn2 O12 1.990087 1_555
Mn2 O18 2.107843 1_655
Mn2 O23 2.137963 1_655
Mn2 O17 2.256908 1_565
Mn3 O13 1.900351 1_555
Mn3 O11 1.978314 1_555
Mn3 O16 1.991750 1_555
Mn3 O5 2.064025 1_455
Mn3 O0 2.138990 1_455
Mn3 O6 2.167936 1_545
O0 P1 1.546309 1_555
O1 P3 1.563245 1_655
O2 P0 1.554469 1_555
O3 P0 1.571627 1_555
O4 P1 1.572085 1_565
O5 P2 1.503440 1_555
O6 P0 1.545508 1_555
O7 P0 1.527288 1_555
O8 P1 1.553013 1_555
O9 P2 1.555648 1_555
O10 P1 1.534680 1_565
O11 P3 1.567927 1_555
O12 P2 1.575736 1_555
O13 P4 1.526552 1_545
O14 P3 1.576013 1_555
O15 P4 1.556393 1_555
O16 P5 1.510940 1_555
O17 P5 1.543615 1_555
O18 P3 1.501851 1_555
O19 P4 1.577319 1_545
O20 P5 1.612324 1_555
O21 P5 1.552592 1_555
O22 P2 1.579916 1_455
O23 P4 1.554684 1_555
