# generated using pymatgen
data_LiTiO2
_symmetry_space_group_name_H-M   'P 1'
_cell_length_a   7.76340880
_cell_length_b   8.74184285
_cell_length_c   10.49871194
_cell_angle_alpha   114.68237442
_cell_angle_beta   80.63749331
_cell_angle_gamma   101.25832630
_symmetry_Int_Tables_number   1
_chemical_formula_structural   LiTiO2
_chemical_formula_sum   'Li16 Ti16 O32'
_cell_volume   632.31692441
_cell_formula_units_Z   16
loop_
 _symmetry_equiv_pos_site_id
 _symmetry_equiv_pos_as_xyz
  1  'x, y, z'
loop_
 _atom_site_type_symbol
 _atom_site_label
 _atom_site_symmetry_multiplicity
 _atom_site_fract_x
 _atom_site_fract_y
 _atom_site_fract_z
 _atom_site_occupancy
  Li  Li0  1  0.09313900  0.99122900  0.25746600  1
  Li  Li1  1  0.23371200  0.59985200  0.75589200  1
  Li  Li2  1  0.64657800  0.77735400  0.99215000  1
  Li  Li3  1  0.49126600  0.85258000  0.51115500  1
  Li  Li4  1  0.24833300  0.91910200  0.74396700  1
  Li  Li5  1  0.15256500  0.28124200  0.49913700  1
  Li  Li6  1  0.58670800  0.48918600  0.76122700  1
  Li  Li7  1  0.50119400  0.16557000  0.49951700  1
  Li  Li8  1  0.40308600  0.52299400  0.23750400  1
  Li  Li9  1  0.83676700  0.74046500  0.51900800  1
  Li  Li10  1  0.74862300  0.41468000  0.24856300  1
  Li  Li11  1  0.75669500  0.76498600  0.24566100  1
  Li  Li12  1  0.33861900  0.24206600  0.01410800  1
  Li  Li13  1  0.90572100  0.02630800  0.74172600  1
  Li  Li14  1  0.73717400  0.10432200  0.25706300  1
  Li  Li15  1  0.99108900  0.35837300  0.01249700  1
  Ti  Ti0  1  0.31133300  0.89305100  0.99429500  1
  Ti  Ti1  1  0.17047500  0.95526000  0.50475200  1
  Ti  Ti2  1  0.30999900  0.55279900  0.98694200  1
  Ti  Ti3  1  0.17290100  0.62290600  0.49881900  1
  Ti  Ti4  1  0.56215300  0.80302600  0.74298000  1
  Ti  Ti5  1  0.07794800  0.65426100  0.25917100  1
  Ti  Ti6  1  0.41599300  0.87033900  0.26104200  1
  Ti  Ti7  1  0.91854100  0.71400400  0.77148000  1
  Ti  Ti8  1  0.06645300  0.30498000  0.24499400  1
  Ti  Ti9  1  0.56644900  0.14635300  0.74986400  1
  Ti  Ti10  1  0.91779400  0.37190900  0.76168200  1
  Ti  Ti11  1  0.41823100  0.21422000  0.26529400  1
  Ti  Ti12  1  0.81794600  0.39707000  0.49939000  1
  Ti  Ti13  1  0.68292900  0.46511800  0.00971700  1
  Ti  Ti14  1  0.82692500  0.06279500  0.49758200  1
  Ti  Ti15  1  0.67449700  0.12305400  0.00308300  1
  O  O0  1  0.12229000  0.81028200  0.87610500  1
  O  O1  1  0.04137000  0.83167400  0.63265300  1
  O  O2  1  0.44332300  0.67824800  0.86811400  1
  O  O3  1  0.03850100  0.49531100  0.62747100  1
  O  O4  1  0.12613400  0.45670600  0.87233800  1
  O  O5  1  0.77205700  0.90684700  0.87266600  1
  O  O6  1  0.69824600  0.93516800  0.62219200  1
  O  O7  1  0.30938100  0.73659400  0.37629200  1
  O  O8  1  0.37182800  0.71447200  0.62537900  1
  O  O9  1  0.02547600  0.16008000  0.62318400  1
  O  O10  1  0.47071500  0.36326500  0.88889200  1
  O  O11  1  0.20785200  0.77719900  0.13066500  1
  O  O12  1  0.53722000  0.99354900  0.12616200  1
  O  O13  1  0.62811800  0.95872100  0.36965200  1
  O  O14  1  0.78957100  0.58689500  0.88327900  1
  O  O15  1  0.27511300  0.40657200  0.37272000  1
  O  O16  1  0.71628300  0.61252000  0.63679600  1
  O  O17  1  0.19685800  0.43532500  0.12179600  1
  O  O18  1  0.37194000  0.05328200  0.62879200  1
  O  O19  1  0.44370500  0.02797200  0.88006600  1
  O  O20  1  0.79784200  0.24013200  0.87822900  1
  O  O21  1  0.53250100  0.66118300  0.12229300  1
  O  O22  1  0.95408500  0.85883700  0.37662400  1
  O  O23  1  0.61833400  0.30302700  0.38158300  1
  O  O24  1  0.69499300  0.27839600  0.62965200  1
  O  O25  1  0.29235000  0.08802700  0.38548600  1
  O  O26  1  0.21520200  0.11087200  0.13483300  1
  O  O27  1  0.85899000  0.55706900  0.14019100  1
  O  O28  1  0.94233400  0.52842200  0.38064100  1
  O  O29  1  0.54254300  0.33158900  0.13541700  1
  O  O30  1  0.94927900  0.18180000  0.37060500  1
  O  O31  1  0.87074300  0.21373800  0.12584000  1
loop_
_geom_bond_atom_site_label_1
_geom_bond_atom_site_label_2
_geom_bond_distance
_geom_bond_site_symmetry_2
Li0 O26 1.997550 1_565
Li0 O30 2.018864 1_465
Li0 O25 2.032187 1_565
Li0 O11 2.061714 1_555
Li0 O22 2.086104 1_455
Li1 O2 2.004962 1_555
Li1 O3 2.011138 1_555
Li1 O0 2.012998 1_555
Li1 O8 2.068893 1_555
Li1 O4 2.072534 1_555
Li2 O14 2.007581 1_555
Li2 O21 2.023987 1_556
Li2 O2 2.031949 1_555
Li2 O5 2.040045 1_555
Li2 O12 2.071059 1_556
Li3 O18 1.978495 1_565
Li3 O6 1.978840 1_555
Li3 O7 1.979682 1_555
Li3 O8 2.041023 1_555
Li3 O13 2.109384 1_555
Li4 O1 1.979133 1_555
Li4 O0 2.020901 1_555
Li4 O8 2.022489 1_555
Li4 O18 2.031356 1_565
Li4 O19 2.062453 1_565
Li5 O25 2.016314 1_555
Li5 O9 2.029120 1_555
Li5 O30 2.060296 1_455
Li5 O3 2.062657 1_555
Li5 O15 2.064854 1_555
Li6 O2 1.998234 1_555
Li6 O14 2.017204 1_555
Li6 O24 2.027697 1_555
Li6 O16 2.050909 1_555
Li6 O10 2.066771 1_555
Li7 O25 2.011495 1_555
Li7 O24 2.016687 1_555
Li7 O18 2.024218 1_555
Li7 O23 2.062399 1_555
Li7 O13 2.073443 1_545
Li8 O29 1.988123 1_555
Li8 O17 2.000626 1_555
Li8 O7 2.013005 1_555
Li8 O21 2.069504 1_555
Li8 O15 2.095484 1_555
Li9 O1 1.977355 1_655
Li9 O6 2.005683 1_555
Li9 O16 2.006352 1_555
Li9 O28 2.043247 1_555
Li9 O22 2.148444 1_555
Li10 O29 1.985514 1_555
Li10 O31 2.001790 1_555
Li10 O27 2.006792 1_555
Li10 O28 2.028830 1_555
Li10 O23 2.054127 1_555
Li11 O27 1.938302 1_555
Li11 O13 1.988791 1_555
Li11 O22 2.040683 1_555
Li11 O21 2.159986 1_555
Li12 O17 2.017317 1_555
Li12 O29 2.020063 1_555
Li12 O19 2.042482 1_554
Li12 O10 2.050069 1_554
Li12 O26 2.056609 1_555
Li13 O1 1.998832 1_645
Li13 O6 2.031161 1_545
Li13 O9 2.048238 1_655
Li13 O20 2.057349 1_555
Li13 O5 2.090193 1_545
Li14 O23 1.978472 1_555
Li14 O30 2.029793 1_555
Li14 O31 2.033862 1_555
Li14 O12 2.057136 1_545
Li14 O13 2.060159 1_545
Li15 O17 1.962985 1_655
Li15 O27 2.041930 1_555
Li15 O20 2.042533 1_554
Li15 O4 2.050843 1_654
Li15 O31 2.078733 1_555
O0 Ti0 1.909231 1_555
O0 Ti7 1.921023 1_455
O1 Ti1 2.079852 1_555
O1 Ti3 2.113494 1_555
O1 Ti7 2.123368 1_455
O2 Ti2 2.027219 1_555
O2 Ti4 2.043620 1_555
O2 Ti0 2.136133 1_555
O3 Ti10 2.114812 1_455
O3 Ti3 2.121900 1_555
O3 Ti7 2.152010 1_455
O3 Ti12 2.165184 1_455
O4 Ti2 1.854002 1_555
O4 Ti10 1.984741 1_455
O5 Ti15 2.020121 1_566
O5 Ti7 2.030650 1_555
O5 Ti4 2.108400 1_555
O6 Ti14 2.076742 1_565
O6 Ti4 2.090400 1_555
O6 Ti9 2.115772 1_565
O7 Ti3 1.994551 1_555
O7 Ti6 1.998468 1_555
O7 Ti5 2.175521 1_555
O7 Ti1 2.194174 1_555
O8 Ti4 1.911950 1_555
O8 Ti3 2.021860 1_555
O9 Ti14 2.012710 1_455
O9 Ti10 2.049973 1_455
O9 Ti1 2.119280 1_545
O10 Ti9 2.040650 1_555
O10 Ti13 2.068828 1_556
O10 Ti2 2.080029 1_555
O11 Ti0 2.059112 1_554
O11 Ti5 2.082622 1_555
O11 Ti6 2.103028 1_555
O11 Ti2 2.121275 1_554
O12 Ti15 2.095179 1_565
O12 Ti6 2.120258 1_555
O12 Ti11 2.147495 1_565
O12 Ti0 2.221784 1_554
O13 Ti6 1.996874 1_555
O13 Ti14 2.029636 1_565
O14 Ti7 1.971635 1_555
O14 Ti13 2.014770 1_556
O14 Ti10 2.113278 1_555
O15 Ti11 2.017897 1_555
O15 Ti3 2.027796 1_555
O15 Ti8 2.088400 1_555
O16 Ti12 2.047458 1_555
O16 Ti4 2.059507 1_555
O16 Ti7 2.093518 1_555
O17 Ti2 2.070763 1_554
O17 Ti8 2.085816 1_555
O17 Ti5 2.132290 1_555
O18 Ti9 1.959331 1_555
O18 Ti1 2.020849 1_545
O19 Ti0 2.047558 1_545
O19 Ti9 2.054299 1_555
O19 Ti4 2.166944 1_545
O19 Ti15 2.200918 1_556
O20 Ti15 2.003012 1_556
O20 Ti10 2.019662 1_555
O20 Ti13 2.141650 1_556
O20 Ti9 2.237243 1_555
O21 Ti6 2.067795 1_555
O21 Ti13 2.083040 1_555
O21 Ti2 2.221695 1_554
O22 Ti5 2.021734 1_655
O22 Ti14 2.038277 1_565
O22 Ti1 2.139512 1_655
O23 Ti11 1.964979 1_555
O23 Ti12 1.970790 1_555
O24 Ti12 2.056991 1_555
O24 Ti9 2.068390 1_555
O24 Ti14 2.152448 1_555
O24 Ti10 2.205247 1_555
O25 Ti11 2.026010 1_555
O25 Ti1 2.051736 1_545
O25 Ti6 2.116241 1_545
O26 Ti0 2.051818 1_544
O26 Ti8 2.059625 1_555
O26 Ti11 2.071119 1_555
O27 Ti13 1.910842 1_555
O27 Ti5 2.100545 1_655
O28 Ti12 2.043584 1_555
O28 Ti5 2.056090 1_655
O28 Ti3 2.171419 1_655
O28 Ti8 2.176509 1_655
O29 Ti11 2.048656 1_555
O29 Ti15 2.110397 1_555
O29 Ti13 2.147977 1_555
O30 Ti14 2.030296 1_555
O30 Ti8 2.034541 1_655
O30 Ti12 2.141190 1_555
O31 Ti8 1.954863 1_655
O31 Ti15 1.981052 1_555
