# generated using pymatgen
data_LiNi5O3F5
_symmetry_space_group_name_H-M   'P 1'
_cell_length_a   6.04847327
_cell_length_b   6.04748445
_cell_length_c   10.58730964
_cell_angle_alpha   106.51590022
_cell_angle_beta   73.48626348
_cell_angle_gamma   119.97103549
_symmetry_Int_Tables_number   1
_chemical_formula_structural   LiNi5O3F5
_chemical_formula_sum   'Li2 Ni10 O6 F10'
_cell_volume   316.88472484
_cell_formula_units_Z   2
loop_
 _symmetry_equiv_pos_site_id
 _symmetry_equiv_pos_as_xyz
  1  'x, y, z'
loop_
 _atom_site_type_symbol
 _atom_site_label
 _atom_site_symmetry_multiplicity
 _atom_site_fract_x
 _atom_site_fract_y
 _atom_site_fract_z
 _atom_site_occupancy
  Li  Li0  1  0.62274400  0.37715300  0.13189100  1
  Li  Li1  1  0.12273100  0.87728100  0.63110500  1
  Ni  Ni0  1  0.50774800  0.49226500  0.47586200  1
  Ni  Ni1  1  0.00853600  0.99156900  0.97498400  1
  Ni  Ni2  1  0.81601900  0.18445200  0.55159100  1
  Ni  Ni3  1  0.05640600  0.94426400  0.32167100  1
  Ni  Ni4  1  0.55589000  0.44388500  0.82196400  1
  Ni  Ni5  1  0.31679700  0.68335200  0.05121800  1
  Ni  Ni6  1  0.05558900  0.43376400  0.32194400  1
  Ni  Ni7  1  0.55576700  0.93403500  0.82216700  1
  Ni  Ni8  1  0.56639600  0.94405400  0.32198500  1
  Ni  Ni9  1  0.06599700  0.44403900  0.82208900  1
  O  O0  1  0.70174100  0.29802700  0.42852400  1
  O  O1  1  0.20205200  0.79770500  0.92914300  1
  O  O2  1  0.70271300  0.83335400  0.42883200  1
  O  O3  1  0.20199200  0.33311100  0.92927900  1
  O  O4  1  0.16669400  0.29760600  0.42878300  1
  O  O5  1  0.66673400  0.79797400  0.92925100  1
  F  F0  1  0.18934000  0.81059600  0.43183200  1
  F  F1  1  0.68916100  0.31068200  0.93179100  1
  F  F2  1  0.93413900  0.06583200  0.19771200  1
  F  F3  1  0.43418000  0.56573000  0.69796500  1
  F  F4  1  0.42148200  0.57839000  0.19473100  1
  F  F5  1  0.92099200  0.07898100  0.69482200  1
  F  F6  1  0.96292000  0.57888000  0.19462800  1
  F  F7  1  0.46254200  0.07857300  0.69481800  1
  F  F8  1  0.42118600  0.03697700  0.19461300  1
  F  F9  1  0.92150600  0.53747800  0.69481100  1
loop_
_geom_bond_atom_site_label_1
_geom_bond_atom_site_label_2
_geom_bond_distance
_geom_bond_site_symmetry_2
Ni0 O2 1.926973 1_555
Ni0 O4 1.927243 1_555
Ni0 O0 1.927646 1_555
Ni1 O3 1.923835 1_565
Ni1 O1 1.924749 1_555
Ni1 O5 1.925527 1_455
Ni2 O0 2.035273 1_555
Ni2 O4 2.036068 1_655
Ni2 O2 2.037304 1_545
Ni3 O4 1.981204 1_565
Ni3 O2 1.983157 1_455
Ni4 O3 1.984704 1_555
Ni4 O5 1.985120 1_555
Ni5 O5 2.029077 1_554
Ni5 O3 2.029917 1_554
Ni5 O1 2.031743 1_554
Ni6 O4 1.980818 1_555
Ni6 O0 1.981445 1_455
Ni7 O5 1.981826 1_555
Ni7 O1 1.982609 1_555
Ni8 O2 1.979886 1_555
Ni8 O0 1.981428 1_565
Ni9 O3 1.982263 1_555
Ni9 O1 1.982347 1_555
F0 Li1 1.992845 1_555
F0 Ni3 2.092544 1_555
F0 Ni6 2.094511 1_555
F0 Ni8 2.095693 1_555
F1 Li0 2.001108 1_556
F1 Ni4 2.089229 1_555
F1 Ni7 2.092692 1_545
F1 Ni9 2.094166 1_655
F2 Ni3 2.110285 1_645
F2 Ni8 2.114587 1_545
F2 Ni6 2.114886 1_655
F2 Ni1 2.227405 1_644
F3 Ni4 2.109445 1_555
F3 Ni9 2.115790 1_555
F3 Ni7 2.116334 1_555
F3 Ni0 2.221151 1_555
F4 Li0 1.991220 1_555
F4 Ni8 2.124694 1_555
F4 Ni6 2.125576 1_555
F4 Ni5 2.146931 1_555
F5 Li1 1.995781 1_645
F5 Ni9 2.122401 1_655
F5 Ni7 2.123708 1_545
F5 Ni2 2.147426 1_555
F6 Li0 1.992804 1_555
F6 Ni6 2.120092 1_655
F6 Ni3 2.122651 1_655
F6 Ni5 2.152356 1_655
F7 Li1 1.995691 1_545
F7 Ni7 2.120037 1_545
F7 Ni4 2.122846 1_555
F7 Ni2 2.149806 1_555
F8 Li0 1.992494 1_555
F8 Ni3 2.120738 1_545
F8 Ni8 2.122036 1_545
F8 Ni5 2.150993 1_545
F9 Li1 1.995382 1_655
F9 Ni9 2.120089 1_655
F9 Ni4 2.124439 1_555
F9 Ni2 2.147709 1_555
