# generated using pymatgen
data_Na2Li(NiO2)3
_symmetry_space_group_name_H-M   'P 1'
_cell_length_a   3.02119764
_cell_length_b   10.40309827
_cell_length_c   7.69704434
_cell_angle_alpha   85.29505509
_cell_angle_beta   78.71918288
_cell_angle_gamma   81.61194567
_symmetry_Int_Tables_number   1
_chemical_formula_structural   Na2Li(NiO2)3
_chemical_formula_sum   'Na4 Li2 Ni6 O12'
_cell_volume   234.34809644
_cell_formula_units_Z   2
loop_
 _symmetry_equiv_pos_site_id
 _symmetry_equiv_pos_as_xyz
  1  'x, y, z'
loop_
 _atom_site_type_symbol
 _atom_site_label
 _atom_site_symmetry_multiplicity
 _atom_site_fract_x
 _atom_site_fract_y
 _atom_site_fract_z
 _atom_site_occupancy
  Na  Na0  1  0.99822800  0.00098100  0.00261800  1
  Na  Na1  1  0.99822100  0.50099700  0.50261900  1
  Na  Na2  1  0.66844400  0.49902600  0.16403400  1
  Na  Na3  1  0.66844600  0.99899500  0.66406500  1
  Li  Li0  1  0.33332400  0.00002200  0.33332900  1
  Li  Li1  1  0.33333800  0.49998300  0.83334100  1
  Ni  Ni0  1  0.33333800  0.75000000  0.58332400  1
  Ni  Ni1  1  0.99989500  0.75193600  0.24819100  1
  Ni  Ni2  1  0.66677300  0.74806300  0.91846700  1
  Ni  Ni3  1  0.33332800  0.25000100  0.08334300  1
  Ni  Ni4  1  0.99987300  0.25195100  0.74822900  1
  Ni  Ni5  1  0.66679400  0.24805100  0.41843700  1
  O  O0  1  0.51325000  0.85185400  0.12227400  1
  O  O1  1  0.51321300  0.35188400  0.62227700  1
  O  O2  1  0.15340800  0.64814400  0.04440600  1
  O  O3  1  0.15345500  0.14811800  0.54438400  1
  O  O4  1  0.18131800  0.34812700  0.28982600  1
  O  O5  1  0.18130200  0.84814600  0.78988500  1
  O  O6  1  0.48536600  0.65186300  0.37677200  1
  O  O7  1  0.48534900  0.15186700  0.87684800  1
  O  O8  1  0.81800600  0.14305100  0.22086400  1
  O  O9  1  0.81800100  0.64303500  0.72088000  1
  O  O10  1  0.84867300  0.85695800  0.44577700  1
  O  O11  1  0.84865400  0.35695500  0.94581000  1
loop_
_geom_bond_atom_site_label_1
_geom_bond_atom_site_label_2
_geom_bond_distance
_geom_bond_site_symmetry_2
Na0 O8 2.262170 1_555
Na0 O0 2.301761 1_645
Na0 O0 2.302762 1_545
Na0 O5 2.308941 1_644
Na0 O7 2.330232 1_554
Na0 O7 2.331140 1_654
Na1 O9 2.262031 1_555
Na1 O1 2.301630 1_655
Na1 O1 2.302718 1_555
Na1 O4 2.309532 1_655
Na1 O6 2.330362 1_555
Na1 O6 2.331175 1_655
Na2 O11 2.262050 1_554
Na2 O2 2.301635 1_555
Na2 O2 2.302618 1_655
Na2 O6 2.308983 1_555
Na2 O4 2.330378 1_655
Na2 O4 2.331289 1_555
Na3 O10 2.262179 1_555
Na3 O3 2.301769 1_565
Na3 O3 2.302835 1_665
Na3 O7 2.309492 1_565
Na3 O5 2.330167 1_655
Na3 O5 2.330995 1_555
Li0 O8 2.242165 1_455
Li0 O10 2.242360 1_545
Li0 O8 2.244107 1_555
Li0 O10 2.244281 1_445
Li0 O3 2.264701 1_555
Li0 O0 2.265229 1_545
Li1 O11 2.242170 1_555
Li1 O9 2.242316 1_455
Li1 O11 2.244109 1_455
Li1 O9 2.244235 1_555
Li1 O1 2.264773 1_555
Li1 O2 2.265233 1_556
Ni0 O6 1.903844 1_555
Ni0 O5 1.903955 1_555
Ni0 O10 2.107352 1_455
Ni0 O9 2.107417 1_555
Ni0 O10 2.109565 1_555
Ni0 O9 2.109635 1_455
Ni1 O10 1.889560 1_555
Ni1 O2 1.920528 1_655
Ni1 O0 2.031694 1_555
Ni1 O0 2.035245 1_655
Ni1 O6 2.041552 1_655
Ni1 O6 2.044748 1_555
Ni2 O9 1.889604 1_555
Ni2 O0 1.920660 1_556
Ni2 O2 2.031773 1_656
Ni2 O2 2.035322 1_556
Ni2 O5 2.041595 1_555
Ni2 O5 2.044810 1_655
Ni3 O4 1.903337 1_555
Ni3 O7 1.903461 1_554
Ni3 O8 2.107229 1_555
Ni3 O11 2.107291 1_454
Ni3 O8 2.109425 1_455
Ni3 O11 2.109487 1_554
Ni4 O11 1.889415 1_555
Ni4 O3 1.921158 1_655
Ni4 O1 2.031941 1_555
Ni4 O1 2.035380 1_655
Ni4 O7 2.041776 1_655
Ni4 O7 2.044889 1_555
Ni5 O8 1.889340 1_555
Ni5 O1 1.921126 1_555
Ni5 O3 2.031921 1_655
Ni5 O3 2.035366 1_555
Ni5 O4 2.041709 1_555
Ni5 O4 2.044822 1_655
