# generated using pymatgen
data_Li2(NiO2)3
_symmetry_space_group_name_H-M   'P 1'
_cell_length_a   4.95434907
_cell_length_b   4.95434907
_cell_length_c   10.11504300
_cell_angle_alpha   90.00000000
_cell_angle_beta   90.00000000
_cell_angle_gamma   119.65050374
_symmetry_Int_Tables_number   1
_chemical_formula_structural   Li2(NiO2)3
_chemical_formula_sum   'Li4 Ni6 O12'
_cell_volume   215.76962241
_cell_formula_units_Z   2
loop_
 _symmetry_equiv_pos_site_id
 _symmetry_equiv_pos_as_xyz
  1  'x, y, z'
loop_
 _atom_site_type_symbol
 _atom_site_label
 _atom_site_symmetry_multiplicity
 _atom_site_fract_x
 _atom_site_fract_y
 _atom_site_fract_z
 _atom_site_occupancy
  Li  Li0  1  0.15804600  0.65559300  0.75102100  1
  Li  Li1  1  0.34440700  0.84195400  0.24897900  1
  Li  Li2  1  0.65804600  0.15559200  0.74897900  1
  Li  Li3  1  0.84440800  0.34195400  0.25102100  1
  Ni  Ni0  1  0.00188000  0.99812000  0.50000000  1
  Ni  Ni1  1  0.50188000  0.49812000  0.00000000  1
  Ni  Ni2  1  0.33377500  0.66622500  0.50000000  1
  Ni  Ni3  1  0.83377500  0.16622500  0.00000000  1
  Ni  Ni4  1  0.16388200  0.83611800  0.00000000  1
  Ni  Ni5  1  0.66388200  0.33611800  0.50000000  1
  O  O0  1  0.16693700  0.16970300  0.90670400  1
  O  O1  1  0.33029700  0.33306300  0.40670400  1
  O  O2  1  0.66693700  0.66970300  0.59329600  1
  O  O3  1  0.00220300  0.35004000  0.60005100  1
  O  O4  1  0.83029700  0.83306300  0.09329600  1
  O  O5  1  0.14996000  0.49779700  0.10005100  1
  O  O6  1  0.50220300  0.85004000  0.89994900  1
  O  O7  1  0.64996000  0.99779700  0.39994900  1
  O  O8  1  0.03171600  0.67330400  0.39225000  1
  O  O9  1  0.32669600  0.96828400  0.60775000  1
  O  O10  1  0.53171600  0.17330400  0.10775000  1
  O  O11  1  0.82669600  0.46828400  0.89225000  1
loop_
_geom_bond_atom_site_label_1
_geom_bond_atom_site_label_2
_geom_bond_distance
_geom_bond_site_symmetry_2
Li0 O9 1.979279 1_555
Li0 O3 2.015755 1_555
Li0 O11 2.022258 1_455
Li0 O6 2.116460 1_555
Li1 O8 1.979279 1_555
Li1 O7 2.015755 1_555
Li1 O10 2.022258 1_565
Li1 O5 2.116460 1_555
Li2 O11 1.979282 1_555
Li2 O6 2.015752 1_545
Li2 O9 2.022258 1_545
Li2 O3 2.116461 1_655
Li3 O10 1.979282 1_555
Li3 O5 2.015752 1_655
Li3 O8 2.022258 1_655
Li3 O7 2.116461 1_545
Ni0 O2 1.902686 1_455
Ni0 O1 1.902686 1_565
Ni0 O8 2.008675 1_555
Ni0 O9 2.008675 1_555
Ni0 O7 2.015277 1_455
Ni0 O3 2.015277 1_565
Ni1 O4 1.902686 1_555
Ni1 O0 1.902686 1_554
Ni1 O11 2.008675 1_554
Ni1 O10 2.008675 1_555
Ni1 O5 2.015277 1_555
Ni1 O6 2.015277 1_554
Ni2 O9 1.865626 1_555
Ni2 O8 1.865626 1_555
Ni2 O2 1.893989 1_555
Ni2 O1 1.893989 1_555
Ni2 O7 1.905398 1_555
Ni2 O3 1.905398 1_555
Ni3 O10 1.865626 1_555
Ni3 O11 1.865626 1_554
Ni3 O4 1.893989 1_545
Ni3 O0 1.893989 1_654
Ni3 O6 1.905398 1_544
Ni3 O5 1.905398 1_655
Ni4 O4 1.896692 1_455
Ni4 O0 1.896692 1_564
Ni4 O5 1.929784 1_555
Ni4 O6 1.929784 1_554
Ni4 O11 2.070628 1_454
Ni4 O10 2.070628 1_565
Ni5 O2 1.896692 1_555
Ni5 O1 1.896692 1_555
Ni5 O3 1.929784 1_655
Ni5 O7 1.929784 1_545
Ni5 O8 2.070628 1_655
Ni5 O9 2.070628 1_545
