# generated using pymatgen
data_Li5V2Fe5O12
_symmetry_space_group_name_H-M   'P 1'
_cell_length_a   5.21045765
_cell_length_b   5.21045765
_cell_length_c   10.00733499
_cell_angle_alpha   84.87768927
_cell_angle_beta   84.87768927
_cell_angle_gamma   120.65512161
_symmetry_Int_Tables_number   1
_chemical_formula_structural   Li5V2Fe5O12
_chemical_formula_sum   'Li5 V2 Fe5 O12'
_cell_volume   229.88741295
_cell_formula_units_Z   1
loop_
 _symmetry_equiv_pos_site_id
 _symmetry_equiv_pos_as_xyz
  1  'x, y, z'
loop_
 _atom_site_type_symbol
 _atom_site_label
 _atom_site_symmetry_multiplicity
 _atom_site_fract_x
 _atom_site_fract_y
 _atom_site_fract_z
 _atom_site_occupancy
  Li  Li0  1  0.83430800  0.66932500  0.25315400  1
  Li  Li1  1  0.67787500  0.83866600  0.74579800  1
  Li  Li2  1  0.33067500  0.16569200  0.74684600  1
  Li  Li3  1  0.16133400  0.32212500  0.25420200  1
  Li  Li4  1  0.07583000  0.92417000  0.50000000  1
  V  V0  1  0.75004600  0.24995400  0.50000000  1
  V  V1  1  0.24738100  0.75261900  0.00000000  1
  Fe  Fe0  1  0.92046300  0.07953700  0.00000000  1
  Fe  Fe1  1  0.00352800  0.51160500  0.74610300  1
  Fe  Fe2  1  0.48839500  0.99647200  0.25389700  1
  Fe  Fe3  1  0.58218600  0.41781400  0.00000000  1
  Fe  Fe4  1  0.42135300  0.57864700  0.50000000  1
  O  O0  1  0.04112200  0.22734800  0.61374500  1
  O  O1  1  0.77265200  0.95887800  0.38625500  1
  O  O2  1  0.88956100  0.37461000  0.11450500  1
  O  O3  1  0.62539000  0.11043900  0.88549500  1
  O  O4  1  0.70022800  0.52004000  0.61755800  1
  O  O5  1  0.47996000  0.29977200  0.38244200  1
  O  O6  1  0.53846000  0.72248000  0.12062100  1
  O  O7  1  0.27752000  0.46154000  0.87937900  1
  O  O8  1  0.41223200  0.89550300  0.61056500  1
  O  O9  1  0.10449700  0.58776800  0.38943500  1
  O  O10  1  0.19021200  0.02520500  0.12105500  1
  O  O11  1  0.97479500  0.80978800  0.87894500  1
loop_
_geom_bond_atom_site_label_1
_geom_bond_atom_site_label_2
_geom_bond_distance
_geom_bond_site_symmetry_2
Li0 O10 2.059828 1_665
Li0 O5 2.072156 1_555
Li0 O9 2.207236 1_655
Li0 O1 2.220418 1_555
Li0 O6 2.224155 1_555
Li0 O2 2.264083 1_555
Li1 O8 2.125061 1_555
Li1 O0 2.144022 1_665
Li1 O3 2.171297 1_565
Li1 O11 2.182021 1_555
Li1 O7 2.202909 1_555
Li1 O4 2.228830 1_555
Li2 O11 2.059828 1_445
Li2 O4 2.072156 1_555
Li2 O8 2.207236 1_545
Li2 O0 2.220418 1_555
Li2 O7 2.224155 1_555
Li2 O3 2.264083 1_555
Li3 O9 2.125061 1_555
Li3 O1 2.144022 1_445
Li3 O2 2.171297 1_455
Li3 O10 2.182021 1_555
Li3 O6 2.202909 1_555
Li3 O5 2.228830 1_555
Li4 O1 2.097494 1_455
Li4 O0 2.097494 1_565
Li4 O5 2.142962 1_565
Li4 O4 2.142962 1_455
Li4 O8 2.214201 1_555
Li4 O9 2.214201 1_555
Fe0 O10 2.042486 1_655
Fe0 O11 2.042486 1_544
Fe0 O3 2.058366 1_554
Fe0 O2 2.058366 1_555
Fe0 O7 2.067335 1_654
Fe0 O6 2.067335 1_545
Fe1 O7 2.131350 1_555
Fe1 O4 2.139609 1_455
Fe1 O0 2.141569 1_555
Fe1 O11 2.184963 1_455
Fe1 O3 2.232918 1_455
Fe1 O8 2.243170 1_555
Fe2 O6 2.131350 1_555
Fe2 O5 2.139609 1_565
Fe2 O1 2.141569 1_555
Fe2 O10 2.184963 1_565
Fe2 O2 2.232918 1_565
Fe2 O9 2.243170 1_555
Fe3 O3 2.139635 1_554
Fe3 O2 2.139635 1_555
Fe3 O10 2.163056 1_555
Fe3 O11 2.163056 1_554
Fe3 O7 2.165837 1_554
Fe3 O6 2.165837 1_555
Fe4 O0 2.024477 1_555
Fe4 O1 2.024477 1_555
Fe4 O5 2.069359 1_555
Fe4 O4 2.069359 1_555
Fe4 O9 2.085428 1_555
Fe4 O8 2.085428 1_555
O0 V0 2.018973 1_455
O1 V0 2.018973 1_565
O2 V1 2.034523 1_655
O3 V1 2.034523 1_546
O4 V0 2.011320 1_555
O5 V0 2.011320 1_555
O6 V1 2.077958 1_555
O7 V1 2.077958 1_556
O8 V0 1.925024 1_565
O9 V0 1.925024 1_455
O10 V1 2.061015 1_545
O11 V1 2.061015 1_656
