# generated using pymatgen
data_Li2AgF5
_symmetry_space_group_name_H-M   'P 1'
_cell_length_a   5.22068100
_cell_length_b   8.23162700
_cell_length_c   10.17110770
_cell_angle_alpha   68.50655957
_cell_angle_beta   90.00000000
_cell_angle_gamma   90.00000000
_symmetry_Int_Tables_number   1
_chemical_formula_structural   Li2AgF5
_chemical_formula_sum   'Li8 Ag4 F20'
_cell_volume   406.70412525
_cell_formula_units_Z   4
loop_
 _symmetry_equiv_pos_site_id
 _symmetry_equiv_pos_as_xyz
  1  'x, y, z'
loop_
 _atom_site_type_symbol
 _atom_site_label
 _atom_site_symmetry_multiplicity
 _atom_site_fract_x
 _atom_site_fract_y
 _atom_site_fract_z
 _atom_site_occupancy
  Li  Li0  1  0.46931400  0.86333100  0.87215100  1
  Li  Li1  1  0.03068600  0.86333100  0.37215100  1
  Li  Li2  1  0.00790500  0.64782000  0.66922900  1
  Li  Li3  1  0.50790500  0.35218000  0.83077100  1
  Li  Li4  1  0.49209500  0.64782000  0.16922900  1
  Li  Li5  1  0.99209500  0.35218000  0.33077100  1
  Li  Li6  1  0.96931400  0.13666900  0.62784900  1
  Li  Li7  1  0.53068600  0.13666900  0.12784900  1
  Ag  Ag0  1  0.50000000  0.00000000  0.50000000  1
  Ag  Ag1  1  0.00000000  0.00000000  0.00000000  1
  Ag  Ag2  1  0.50000000  0.50000000  0.50000000  1
  Ag  Ag3  1  0.00000000  0.50000000  0.00000000  1
  F  F0  1  0.65450100  0.95891600  0.69020200  1
  F  F1  1  0.17963300  0.87633500  0.57706900  1
  F  F2  1  0.22595400  0.67092400  0.86440300  1
  F  F3  1  0.84549900  0.95891600  0.19020200  1
  F  F4  1  0.79018100  0.73231900  0.51079200  1
  F  F5  1  0.32036700  0.87633500  0.07706900  1
  F  F6  1  0.79342700  0.51001100  0.83031900  1
  F  F7  1  0.27404600  0.67092400  0.36440300  1
  F  F8  1  0.29342700  0.48998900  0.66968100  1
  F  F9  1  0.70981900  0.73231900  0.01079200  1
  F  F10  1  0.29018100  0.26768100  0.98920800  1
  F  F11  1  0.70657300  0.51001100  0.33031900  1
  F  F12  1  0.72595400  0.32907600  0.63559700  1
  F  F13  1  0.20657300  0.48998900  0.16968100  1
  F  F14  1  0.67963300  0.12366500  0.92293100  1
  F  F15  1  0.20981900  0.26768100  0.48920800  1
  F  F16  1  0.15450100  0.04108400  0.80979800  1
  F  F17  1  0.77404600  0.32907600  0.13559700  1
  F  F18  1  0.82036700  0.12366500  0.42293100  1
  F  F19  1  0.34549900  0.04108400  0.30979800  1
loop_
_geom_bond_atom_site_label_1
_geom_bond_atom_site_label_2
_geom_bond_distance
_geom_bond_site_symmetry_2
Ag0 F1 1.965540 1_545
Ag0 F18 1.965540 1_555
Ag0 F0 2.007011 1_545
Ag0 F19 2.007011 1_555
Ag0 F15 2.642926 1_555
Ag0 F4 2.642926 1_545
Ag1 F5 1.965540 1_545
Ag1 F14 1.965540 1_454
Ag1 F3 2.007011 1_445
Ag1 F16 2.007011 1_554
Ag1 F10 2.642926 1_554
Ag1 F9 2.642926 1_445
Ag2 F12 1.962471 1_555
Ag2 F7 1.962471 1_555
Ag2 F8 2.011012 1_555
Ag2 F11 2.011012 1_555
Ag2 F4 2.473470 1_555
Ag2 F15 2.473470 1_555
Ag3 F17 1.962471 1_455
Ag3 F2 1.962471 1_554
Ag3 F13 2.011012 1_555
Ag3 F6 2.011012 1_454
Ag3 F9 2.473470 1_455
Ag3 F10 2.473470 1_554
F0 Li0 1.977771 1_555
F0 Li6 2.136439 1_565
F1 Li2 1.982097 1_555
F1 Li1 2.263556 1_555
F2 Li0 2.054349 1_555
F2 Li2 2.355730 1_555
F3 Li1 1.977771 1_655
F3 Li7 2.136439 1_565
F4 Li2 1.884493 1_655
F4 Li1 1.900962 1_655
F5 Li4 1.982097 1_555
F5 Li0 2.263556 1_554
F6 Li2 1.965497 1_655
F6 Li3 1.976240 1_555
F7 Li1 2.054349 1_555
F7 Li4 2.355730 1_555
F8 Li3 1.965497 1_555
F8 Li2 1.976240 1_555
F9 Li4 1.884493 1_555
F9 Li0 1.900962 1_554
F10 Li3 1.884493 1_555
F10 Li7 1.900962 1_556
F11 Li4 1.965497 1_555
F11 Li5 1.976240 1_555
F12 Li6 2.054349 1_555
F12 Li3 2.355730 1_555
F13 Li5 1.965497 1_455
F13 Li4 1.976240 1_555
F14 Li3 1.982097 1_555
F14 Li7 2.263556 1_556
F15 Li5 1.884493 1_455
F15 Li6 1.900962 1_455
F16 Li6 1.977771 1_455
F16 Li0 2.136439 1_545
F17 Li7 2.054349 1_555
F17 Li5 2.355730 1_555
F18 Li5 1.982097 1_555
F18 Li6 2.263556 1_555
F19 Li7 1.977771 1_555
F19 Li1 2.136439 1_545
