# generated using pymatgen
data_Li2Mn(BO3)2
_symmetry_space_group_name_H-M   'P 1'
_cell_length_a   14.60742600
_cell_length_b   3.00255200
_cell_length_c   9.15740721
_cell_angle_alpha   87.44419471
_cell_angle_beta   90.00000000
_cell_angle_gamma   90.00000000
_symmetry_Int_Tables_number   1
_chemical_formula_structural   Li2Mn(BO3)2
_chemical_formula_sum   'Li8 Mn4 B8 O24'
_cell_volume   401.24028982
_cell_formula_units_Z   4
loop_
 _symmetry_equiv_pos_site_id
 _symmetry_equiv_pos_as_xyz
  1  'x, y, z'
loop_
 _atom_site_type_symbol
 _atom_site_label
 _atom_site_symmetry_multiplicity
 _atom_site_fract_x
 _atom_site_fract_y
 _atom_site_fract_z
 _atom_site_occupancy
  Li  Li0  1  0.04014500  0.72333400  0.88785100  1
  Li  Li1  1  0.25236700  0.69829800  0.89309800  1
  Li  Li2  1  0.45985500  0.72333400  0.38785100  1
  Li  Li3  1  0.24763300  0.69829800  0.39309800  1
  Li  Li4  1  0.75236700  0.30170200  0.60690200  1
  Li  Li5  1  0.54014500  0.27666600  0.61214900  1
  Li  Li6  1  0.74763300  0.30170200  0.10690200  1
  Li  Li7  1  0.95985500  0.27666600  0.11214900  1
  Mn  Mn0  1  0.63249300  0.82177400  0.87710200  1
  Mn  Mn1  1  0.86750700  0.82177400  0.37710200  1
  Mn  Mn2  1  0.13249300  0.17822600  0.62289800  1
  Mn  Mn3  1  0.36750700  0.17822600  0.12289800  1
  B  B0  1  0.42377400  0.84412700  0.83900700  1
  B  B1  1  0.84259400  0.85511200  0.89521500  1
  B  B2  1  0.07622600  0.84412700  0.33900700  1
  B  B3  1  0.65740600  0.85511200  0.39521500  1
  B  B4  1  0.34259400  0.14488800  0.60478500  1
  B  B5  1  0.92377400  0.15587300  0.66099300  1
  B  B6  1  0.15740600  0.14488800  0.10478500  1
  B  B7  1  0.57622600  0.15587300  0.16099300  1
  O  O0  1  0.34764600  0.98368900  0.75463100  1
  O  O1  1  0.50958600  0.84145500  0.78779700  1
  O  O2  1  0.15235400  0.98368900  0.25463100  1
  O  O3  1  0.75488500  0.81571200  0.95840600  1
  O  O4  1  0.99041400  0.84145500  0.28779700  1
  O  O5  1  0.74511500  0.81571200  0.45840600  1
  O  O6  1  0.91519000  0.74487700  0.97545700  1
  O  O7  1  0.39964700  0.70989400  0.98377200  1
  O  O8  1  0.15858600  0.66666800  0.74343900  1
  O  O9  1  0.58481000  0.74487700  0.47545700  1
  O  O10  1  0.10035300  0.70989400  0.48377200  1
  O  O11  1  0.34141400  0.66666800  0.24343900  1
  O  O12  1  0.65858600  0.33333200  0.75656100  1
  O  O13  1  0.89964700  0.29010600  0.51622800  1
  O  O14  1  0.41519000  0.25512300  0.52454300  1
  O  O15  1  0.84141400  0.33333200  0.25656100  1
  O  O16  1  0.60035300  0.29010600  0.01622800  1
  O  O17  1  0.08481000  0.25512300  0.02454300  1
  O  O18  1  0.25488500  0.18428800  0.54159400  1
  O  O19  1  0.00958600  0.15854500  0.71220300  1
  O  O20  1  0.24511500  0.18428800  0.04159400  1
  O  O21  1  0.84764600  0.01631100  0.74536900  1
  O  O22  1  0.49041400  0.15854500  0.21220300  1
  O  O23  1  0.65235400  0.01631100  0.24536900  1
loop_
_geom_bond_atom_site_label_1
_geom_bond_atom_site_label_2
_geom_bond_distance
_geom_bond_site_symmetry_2
Li0 O17 1.952422 1_556
Li0 O6 1.996001 1_455
Li0 O19 2.075234 1_565
Li0 O17 2.172631 1_566
Li0 O8 2.188874 1_555
Li0 O19 2.430124 1_555
Li1 O8 1.943062 1_555
Li1 O20 2.013731 1_556
Li1 O20 2.041236 1_566
Li1 O0 2.045055 1_555
Li1 O7 2.306880 1_555
Li2 O14 1.952422 1_555
Li2 O9 1.996001 1_555
Li2 O22 2.075234 1_565
Li2 O14 2.172631 1_565
Li2 O11 2.188874 1_555
Li2 O22 2.430124 1_555
Li3 O11 1.943062 1_555
Li3 O18 2.013731 1_555
Li3 O18 2.041236 1_565
Li3 O2 2.045055 1_555
Li3 O10 2.306880 1_555
Li4 O12 1.943062 1_555
Li4 O5 2.013731 1_555
Li4 O5 2.041236 1_545
Li4 O21 2.045055 1_555
Li4 O13 2.306880 1_555
Li5 O9 1.952422 1_555
Li5 O14 1.996001 1_555
Li5 O1 2.075234 1_545
Li5 O9 2.172631 1_545
Li5 O12 2.188874 1_555
Li5 O1 2.430124 1_555
Li6 O15 1.943062 1_555
Li6 O3 2.013731 1_554
Li6 O3 2.041236 1_544
Li6 O23 2.045055 1_555
Li6 O16 2.306880 1_555
Li7 O6 1.952422 1_554
Li7 O17 1.996001 1_655
Li7 O4 2.075234 1_545
Li7 O6 2.172631 1_544
Li7 O15 2.188874 1_555
Li7 O4 2.430124 1_555
Mn0 O12 1.889912 1_565
Mn0 O12 1.912841 1_555
Mn0 O3 1.936439 1_555
Mn0 O1 1.972633 1_555
Mn0 O16 1.995176 1_566
Mn0 O16 2.051964 1_556
Mn1 O15 1.889912 1_565
Mn1 O15 1.912841 1_555
Mn1 O5 1.936439 1_555
Mn1 O4 1.972633 1_555
Mn1 O13 1.995176 1_565
Mn1 O13 2.051964 1_555
Mn2 O8 1.889912 1_545
Mn2 O8 1.912841 1_555
Mn2 O18 1.936439 1_555
Mn2 O19 1.972633 1_555
Mn2 O10 1.995176 1_545
Mn2 O10 2.051964 1_555
Mn3 O11 1.889912 1_545
Mn3 O11 1.912841 1_555
Mn3 O20 1.936439 1_555
Mn3 O22 1.972633 1_555
Mn3 O7 1.995176 1_544
Mn3 O7 2.051964 1_554
B0 O1 1.338491 1_555
B0 O0 1.407250 1_555
B0 O7 1.412943 1_555
B1 O6 1.323760 1_555
B1 O3 1.408625 1_555
B1 O21 1.436458 1_565
B2 O4 1.338491 1_455
B2 O2 1.407250 1_555
B2 O10 1.412943 1_555
B3 O9 1.323760 1_555
B3 O5 1.408625 1_555
B3 O23 1.436458 1_565
B4 O14 1.323760 1_555
B4 O18 1.408625 1_555
B4 O0 1.436458 1_545
B5 O19 1.338491 1_655
B5 O21 1.407250 1_555
B5 O13 1.412943 1_555
B6 O17 1.323760 1_555
B6 O20 1.408625 1_555
B6 O2 1.436458 1_545
B7 O22 1.338491 1_555
B7 O23 1.407250 1_555
B7 O16 1.412943 1_555
