# generated using pymatgen
data_LiB2SbO6
_symmetry_space_group_name_H-M   'P 1'
_cell_length_a   8.97975500
_cell_length_b   5.13288400
_cell_length_c   11.29798894
_cell_angle_alpha   72.78513109
_cell_angle_beta   90.00000000
_cell_angle_gamma   90.00000000
_symmetry_Int_Tables_number   1
_chemical_formula_structural   LiB2SbO6
_chemical_formula_sum   'Li4 B8 Sb4 O24'
_cell_volume   497.41871276
_cell_formula_units_Z   4
loop_
 _symmetry_equiv_pos_site_id
 _symmetry_equiv_pos_as_xyz
  1  'x, y, z'
loop_
 _atom_site_type_symbol
 _atom_site_label
 _atom_site_symmetry_multiplicity
 _atom_site_fract_x
 _atom_site_fract_y
 _atom_site_fract_z
 _atom_site_occupancy
  Li  Li0  1  0.96143300  0.92963500  0.89339100  1
  Li  Li1  1  0.46143300  0.07036500  0.60660900  1
  Li  Li2  1  0.53856700  0.92963500  0.39339100  1
  Li  Li3  1  0.03856700  0.07036500  0.10660900  1
  B  B0  1  0.30226700  0.45153500  0.38476300  1
  B  B1  1  0.63525400  0.98413900  0.86596500  1
  B  B2  1  0.80226700  0.54846500  0.11523700  1
  B  B3  1  0.13525400  0.01586100  0.63403500  1
  B  B4  1  0.86474600  0.98413900  0.36596500  1
  B  B5  1  0.19773300  0.45153500  0.88476300  1
  B  B6  1  0.36474600  0.01586100  0.13403500  1
  B  B7  1  0.69773300  0.54846500  0.61523700  1
  Sb  Sb0  1  0.30093600  0.01405800  0.86914100  1
  Sb  Sb1  1  0.80093600  0.98594200  0.63085900  1
  Sb  Sb2  1  0.19906400  0.01405800  0.36914100  1
  Sb  Sb3  1  0.69906400  0.98594200  0.13085900  1
  O  O0  1  0.35446500  0.88208200  0.04540000  1
  O  O1  1  0.65411700  0.29962600  0.60343000  1
  O  O2  1  0.88949900  0.78551500  0.08529200  1
  O  O3  1  0.00159500  0.07545600  0.68058900  1
  O  O4  1  0.16036200  0.40960000  0.34639900  1
  O  O5  1  0.26543900  0.08081700  0.68591800  1
  O  O6  1  0.66036200  0.59040000  0.15360100  1
  O  O7  1  0.76543900  0.91918300  0.81408200  1
  O  O8  1  0.50159500  0.92454400  0.81941100  1
  O  O9  1  0.38949900  0.21448500  0.41470800  1
  O  O10  1  0.85446500  0.11791800  0.45460000  1
  O  O11  1  0.15411700  0.70037400  0.89657000  1
  O  O12  1  0.84588300  0.29962600  0.10343000  1
  O  O13  1  0.14553500  0.88208200  0.54540000  1
  O  O14  1  0.61050100  0.78551500  0.58529200  1
  O  O15  1  0.49840500  0.07545600  0.18058900  1
  O  O16  1  0.23456100  0.08081700  0.18591800  1
  O  O17  1  0.33963800  0.40960000  0.84639900  1
  O  O18  1  0.73456100  0.91918300  0.31408200  1
  O  O19  1  0.83963800  0.59040000  0.65360100  1
  O  O20  1  0.99840500  0.92454400  0.31941100  1
  O  O21  1  0.11050100  0.21448500  0.91470800  1
  O  O22  1  0.34588300  0.70037400  0.39657000  1
  O  O23  1  0.64553500  0.11791800  0.95460000  1
loop_
_geom_bond_atom_site_label_1
_geom_bond_atom_site_label_2
_geom_bond_distance
_geom_bond_site_symmetry_2
Li0 O7 1.982859 1_555
Li0 O21 2.048417 1_665
Li0 O11 2.086826 1_655
Li0 O2 2.171585 1_556
Li0 O3 2.324967 1_665
Li1 O5 1.982859 1_555
Li1 O14 2.048417 1_545
Li1 O1 2.086826 1_555
Li1 O9 2.171585 1_555
Li1 O8 2.324967 1_545
Li2 O18 1.982859 1_555
Li2 O9 2.048417 1_565
Li2 O22 2.086826 1_555
Li2 O14 2.171585 1_555
Li2 O15 2.324967 1_565
Li3 O16 1.982859 1_555
Li3 O2 2.048417 1_445
Li3 O12 2.086826 1_455
Li3 O21 2.171585 1_554
Li3 O20 2.324967 1_445
B0 O22 1.379652 1_555
B0 O4 1.383181 1_555
B0 O9 1.401740 1_555
B1 O23 1.374720 1_565
B1 O8 1.380574 1_555
B1 O7 1.391788 1_555
B2 O12 1.379652 1_555
B2 O6 1.383181 1_555
B2 O2 1.401740 1_555
B3 O13 1.374720 1_545
B3 O3 1.380574 1_555
B3 O5 1.391788 1_555
B4 O10 1.374720 1_565
B4 O20 1.380574 1_555
B4 O18 1.391788 1_555
B5 O11 1.379652 1_555
B5 O17 1.383181 1_555
B5 O21 1.401740 1_555
B6 O0 1.374720 1_545
B6 O15 1.380574 1_555
B6 O16 1.391788 1_555
B7 O1 1.379652 1_555
B7 O19 1.383181 1_555
B7 O14 1.401740 1_555
O0 Sb0 1.963931 1_564
O1 Sb1 2.032560 1_545
O2 Sb3 2.135696 1_555
O3 Sb1 1.981493 1_445
O4 Sb2 2.000006 1_555
O5 Sb0 2.020958 1_555
O6 Sb3 2.000006 1_555
O7 Sb1 2.020958 1_555
O8 Sb0 1.981493 1_565
O9 Sb2 2.135696 1_555
O10 Sb1 1.963931 1_545
O11 Sb0 2.032560 1_565
O12 Sb3 2.032560 1_545
O13 Sb2 1.963931 1_565
O14 Sb1 2.135696 1_555
O15 Sb3 1.981493 1_545
O16 Sb2 2.020958 1_555
O17 Sb0 2.000006 1_555
O18 Sb3 2.020958 1_555
O19 Sb1 2.000006 1_555
O20 Sb2 1.981493 1_665
O21 Sb0 2.135696 1_555
O22 Sb2 2.032560 1_565
O23 Sb3 1.963931 1_546
