# generated using pymatgen
data_Na3IO
_symmetry_space_group_name_H-M   'P 1'
_cell_length_a   6.69174816
_cell_length_b   6.69174868
_cell_length_c   16.30793171
_cell_angle_alpha   90.00000029
_cell_angle_beta   89.99999627
_cell_angle_gamma   120.00144152
_symmetry_Int_Tables_number   1
_chemical_formula_structural   Na3IO
_chemical_formula_sum   'Na18 I6 O6'
_cell_volume   632.41537222
_cell_formula_units_Z   6
loop_
 _symmetry_equiv_pos_site_id
 _symmetry_equiv_pos_as_xyz
  1  'x, y, z'
loop_
 _atom_site_type_symbol
 _atom_site_label
 _atom_site_symmetry_multiplicity
 _atom_site_fract_x
 _atom_site_fract_y
 _atom_site_fract_z
 _atom_site_occupancy
  Na  Na0  1  0.16569746  0.83430259  0.92091598  1
  Na  Na1  1  0.16569629  0.83430382  0.57908522  1
  Na  Na2  1  0.05574898  0.52786894  0.75000177  1
  Na  Na3  1  0.16570432  0.33140214  0.57908540  1
  Na  Na4  1  0.16570540  0.33140436  0.92091577  1
  Na  Na5  1  0.47213112  0.94425096  0.75000167  1
  Na  Na6  1  0.47212028  0.52787976  0.75000172  1
  Na  Na7  1  0.33143757  0.16572273  0.07911828  1
  Na  Na8  1  0.33143532  0.16572161  0.42088062  1
  Na  Na9  1  0.66859545  0.83429453  0.92091578  1
  Na  Na10  1  0.66859814  0.83429589  0.57908540  1
  Na  Na11  1  0.52788986  0.47211021  0.24999834  1
  Na  Na12  1  0.52787859  0.05576949  0.24999830  1
  Na  Na13  1  0.83427716  0.66856223  0.07911828  1
  Na  Na14  1  0.83427860  0.66856504  0.42088061  1
  Na  Na15  1  0.94423069  0.47212152  0.24999840  1
  Na  Na16  1  0.83428584  0.16571414  0.07911794  1
  Na  Na17  1  0.83428716  0.16571296  0.42088096  1
  I  I0  1  0.33333106  0.66666901  0.09970982  1
  I  I1  1  0.00000028  -0.00000030  0.24999823  1
  I  I2  1  0.33333109  0.66666906  0.40028833  1
  I  I3  1  -0.00000011  0.00000046  0.75000182  1
  I  I4  1  0.66666901  0.33333113  0.59948574  1
  I  I5  1  0.66666885  0.33333090  0.90051615  1
  O  O0  1  0.33333379  0.66666660  0.85032368  1
  O  O1  1  0.00000044  0.00000047  0.00001769  1
  O  O2  1  -0.00000070  -0.00000073  0.49998234  1
  O  O3  1  0.33333315  0.66666596  0.64967830  1
  O  O4  1  0.66666616  0.33333308  0.35032553  1
  O  O5  1  0.66666672  0.33333347  0.14967293  1
loop_
_geom_bond_atom_site_label_1
_geom_bond_atom_site_label_2
_geom_bond_distance
_geom_bond_site_symmetry_2
Na0 O0 2.258432 1_555
Na0 O1 2.313540 1_566
Na1 O3 2.258450 1_555
Na1 O2 2.313538 1_565
Na2 O0 2.294421 1_555
Na2 O3 2.294436 1_555
Na3 O3 2.258358 1_555
Na3 O2 2.313556 1_555
Na4 O0 2.258343 1_555
Na4 O1 2.313550 1_556
Na5 O0 2.294420 1_555
Na5 O3 2.294439 1_555
Na6 O0 2.294400 1_555
Na6 O3 2.294417 1_555
Na7 O5 2.257867 1_555
Na7 O1 2.313698 1_555
Na8 O4 2.257879 1_555
Na8 O2 2.313703 1_555
Na9 O0 2.258341 1_555
Na9 O1 2.313555 1_666
Na10 O3 2.258364 1_555
Na10 O2 2.313547 1_665
Na11 O5 2.294359 1_555
Na11 O4 2.294380 1_555
Na12 O5 2.294377 1_555
Na12 O4 2.294397 1_555
Na13 O5 2.257865 1_555
Na13 O1 2.313703 1_665
Na14 O4 2.257885 1_555
Na14 O2 2.313694 1_665
Na15 O5 2.294378 1_555
Na15 O4 2.294399 1_555
Na16 O5 2.257953 1_555
Na16 O1 2.313687 1_655
Na17 O4 2.257970 1_555
Na17 O2 2.313685 1_655
I0 Na12 3.330378 1_565
I0 Na15 3.330379 1_455
I0 Na11 3.330479 1_555
I0 Na16 3.362629 1_565
I0 Na16 3.362630 1_455
I0 Na13 3.362697 1_555
I0 Na7 3.362698 1_555
I0 Na7 3.362705 1_565
I0 Na13 3.362705 1_455
I0 Na9 3.503789 1_554
I0 Na4 3.503790 1_554
I0 Na0 3.503819 1_554
I1 Na11 3.361380 1_445
I1 Na11 3.361381 1_555
I1 Na15 3.361395 1_445
I1 Na12 3.361395 1_555
I1 Na12 3.361499 1_455
I1 Na15 3.361500 1_455
I1 Na7 3.384505 1_555
I1 Na13 3.384506 1_445
I1 Na16 3.384506 1_455
I1 Na14 3.384529 1_445
I1 Na17 3.384530 1_455
I1 Na8 3.384531 1_555
I2 Na15 3.330395 1_455
I2 Na12 3.330397 1_565
I2 Na11 3.330497 1_555
I2 Na17 3.362631 1_565
I2 Na17 3.362631 1_455
I2 Na14 3.362699 1_555
I2 Na8 3.362700 1_555
I2 Na8 3.362706 1_565
I2 Na14 3.362706 1_455
I2 Na3 3.503838 1_555
I2 Na10 3.503839 1_555
I2 Na1 3.503868 1_555
I3 Na6 3.361368 1_555
I3 Na6 3.361370 1_445
I3 Na2 3.361387 1_555
I3 Na5 3.361388 1_445
I3 Na5 3.361484 1_545
I3 Na2 3.361484 1_545
I3 Na0 3.384851 1_545
I3 Na4 3.384852 1_555
I3 Na9 3.384854 1_445
I3 Na1 3.384875 1_545
I3 Na3 3.384878 1_555
I3 Na10 3.384878 1_445
I4 Na5 3.333029 1_545
I4 Na2 3.333030 1_655
I4 Na6 3.333130 1_555
I4 Na1 3.362320 1_655
I4 Na1 3.362320 1_545
I4 Na3 3.362391 1_655
I4 Na10 3.362391 1_545
I4 Na3 3.362393 1_555
I4 Na10 3.362393 1_555
I4 Na8 3.501127 1_555
I4 Na14 3.501128 1_555
I4 Na17 3.501154 1_555
I5 Na2 3.333010 1_655
I5 Na5 3.333011 1_545
I5 Na6 3.333112 1_555
I5 Na0 3.362318 1_545
I5 Na0 3.362320 1_655
I5 Na9 3.362389 1_545
I5 Na4 3.362390 1_655
I5 Na4 3.362392 1_555
I5 Na9 3.362393 1_555
I5 Na7 3.501079 1_556
I5 Na13 3.501079 1_556
I5 Na16 3.501106 1_556
