# generated using pymatgen
data_NaPH2OF6
_symmetry_space_group_name_H-M   'P 1'
_cell_length_a   6.11851700
_cell_length_b   7.98767100
_cell_length_c   10.71487400
_cell_angle_alpha   90.00000000
_cell_angle_beta   90.00000000
_cell_angle_gamma   90.00000000
_symmetry_Int_Tables_number   1
_chemical_formula_structural   NaPH2OF6
_chemical_formula_sum   'Na4 P4 H8 O4 F24'
_cell_volume   523.66483115
_cell_formula_units_Z   4
loop_
 _symmetry_equiv_pos_site_id
 _symmetry_equiv_pos_as_xyz
  1  'x, y, z'
loop_
 _atom_site_type_symbol
 _atom_site_label
 _atom_site_symmetry_multiplicity
 _atom_site_fract_x
 _atom_site_fract_y
 _atom_site_fract_z
 _atom_site_occupancy
  Na  Na0  1  0.75000000  0.25000000  0.23841000  1
  Na  Na1  1  0.75000000  0.75000000  0.26159000  1
  Na  Na2  1  0.25000000  0.25000000  0.73841000  1
  Na  Na3  1  0.25000000  0.75000000  0.76159000  1
  P  P0  1  0.00000000  0.00000000  0.00000000  1
  P  P1  1  0.50000000  0.50000000  0.00000000  1
  P  P2  1  0.00000000  0.00000000  0.50000000  1
  P  P3  1  0.50000000  0.50000000  0.50000000  1
  H  H0  1  0.06977400  0.50491100  0.17714000  1
  H  H1  1  0.43022600  0.99508900  0.17714000  1
  H  H2  1  0.43022600  0.00491100  0.32286000  1
  H  H3  1  0.06977400  0.49508900  0.32286000  1
  H  H4  1  0.93022600  0.50491100  0.67714000  1
  H  H5  1  0.56977400  0.99508900  0.67714000  1
  H  H6  1  0.56977400  0.00491100  0.82286000  1
  H  H7  1  0.93022600  0.49508900  0.82286000  1
  O  O0  1  0.52531000  0.00000000  0.25000000  1
  O  O1  1  0.97469000  0.50000000  0.25000000  1
  O  O2  1  0.47469000  0.00000000  0.75000000  1
  O  O3  1  0.02531000  0.50000000  0.75000000  1
  F  F0  1  0.23559100  0.52951400  0.00532100  1
  F  F1  1  0.26440900  0.97048600  0.00532100  1
  F  F2  1  0.53271100  0.65077200  0.10199300  1
  F  F3  1  0.96728900  0.84922800  0.10199300  1
  F  F4  1  0.02087400  0.13668600  0.11415000  1
  F  F5  1  0.47912600  0.36331400  0.11415000  1
  F  F6  1  0.47912600  0.63668600  0.38585000  1
  F  F7  1  0.02087400  0.86331400  0.38585000  1
  F  F8  1  0.96728900  0.15077200  0.39800700  1
  F  F9  1  0.53271100  0.34922800  0.39800700  1
  F  F10  1  0.26440900  0.02951400  0.49467900  1
  F  F11  1  0.23559100  0.47048600  0.49467900  1
  F  F12  1  0.76440900  0.52951400  0.50532100  1
  F  F13  1  0.73559100  0.97048600  0.50532100  1
  F  F14  1  0.46728900  0.65077200  0.60199300  1
  F  F15  1  0.03271100  0.84922800  0.60199300  1
  F  F16  1  0.97912600  0.13668600  0.61415000  1
  F  F17  1  0.52087400  0.36331400  0.61415000  1
  F  F18  1  0.52087400  0.63668600  0.88585000  1
  F  F19  1  0.97912600  0.86331400  0.88585000  1
  F  F20  1  0.03271100  0.15077200  0.89800700  1
  F  F21  1  0.46728900  0.34922800  0.89800700  1
  F  F22  1  0.73559100  0.02951400  0.99467900  1
  F  F23  1  0.76440900  0.47048600  0.99467900  1
loop_
_geom_bond_atom_site_label_1
_geom_bond_atom_site_label_2
_geom_bond_distance
_geom_bond_site_symmetry_2
Na0 O1 2.427570 1_555
Na0 O0 2.427570 1_555
Na1 O1 2.427570 1_555
Na1 O0 2.427570 1_565
Na2 O2 2.427570 1_555
Na2 O3 2.427570 1_555
Na3 O3 2.427570 1_555
Na3 O2 2.427570 1_565
H0 O1 0.974407 1_455
H1 O0 0.974407 1_565
H2 O0 0.974407 1_555
H3 O1 0.974407 1_455
H4 O3 0.974407 1_655
H5 O2 0.974407 1_565
H6 O2 0.974407 1_555
H7 O3 0.974407 1_655
F0 P1 1.635871 1_555
F1 P0 1.635871 1_565
F2 P1 1.638518 1_555
F2 Na1 2.306526 1_555
F3 P0 1.638518 1_665
F3 Na1 2.306526 1_555
F4 P0 1.644483 1_555
F4 Na0 2.310571 1_455
F5 P1 1.644483 1_555
F5 Na0 2.310571 1_555
F6 P3 1.644483 1_555
F6 Na1 2.310571 1_555
F7 P2 1.644483 1_565
F7 Na1 2.310571 1_455
F8 P2 1.638518 1_655
F8 Na0 2.306526 1_555
F9 P3 1.638518 1_555
F9 Na0 2.306526 1_555
F10 P2 1.635871 1_555
F11 P3 1.635871 1_555
F12 P3 1.635871 1_555
F13 P2 1.635871 1_665
F14 P3 1.638518 1_555
F14 Na3 2.306526 1_555
F15 P2 1.638518 1_565
F15 Na3 2.306526 1_555
F16 P2 1.644483 1_655
F16 Na2 2.310571 1_655
F17 P3 1.644483 1_555
F17 Na2 2.310571 1_555
F18 P1 1.644483 1_556
F18 Na3 2.310571 1_555
F19 P0 1.644483 1_666
F19 Na3 2.310571 1_655
F20 P0 1.638518 1_556
F20 Na2 2.306526 1_555
F21 P1 1.638518 1_556
F21 Na2 2.306526 1_555
F22 P0 1.635871 1_656
F23 P1 1.635871 1_556
