# generated using pymatgen
data_NaLaO2
_symmetry_space_group_name_H-M   'P 1'
_cell_length_a   6.00360623
_cell_length_b   6.00360623
_cell_length_c   6.00360620
_cell_angle_alpha   35.71339515
_cell_angle_beta   35.71339515
_cell_angle_gamma   35.71339782
_symmetry_Int_Tables_number   1
_chemical_formula_structural   NaLaO2
_chemical_formula_sum   'Na1 La1 O2'
_cell_volume   65.91584988
_cell_formula_units_Z   1
loop_
 _symmetry_equiv_pos_site_id
 _symmetry_equiv_pos_as_xyz
  1  'x, y, z'
loop_
 _atom_site_type_symbol
 _atom_site_label
 _atom_site_symmetry_multiplicity
 _atom_site_fract_x
 _atom_site_fract_y
 _atom_site_fract_z
 _atom_site_occupancy
  Na  Na0  1  0.00000000  0.00000000  0.00000000  1
  La  La0  1  0.50000000  0.50000000  0.50000000  1
  O  O0  1  0.23870600  0.23870600  0.23870600  1
  O  O1  1  0.76129400  0.76129400  0.76129400  1
loop_
_geom_bond_atom_site_label_1
_geom_bond_atom_site_label_2
_geom_bond_distance
_geom_bond_site_symmetry_2
Na0 O1 2.656921 1_445
Na0 O0 2.656921 1_554
Na0 O1 2.656922 1_454
Na0 O1 2.656922 1_544
Na0 O0 2.656922 1_455
Na0 O0 2.656922 1_545
La0 O0 2.447676 1_556
La0 O1 2.447676 1_554
La0 O0 2.447676 1_655
La0 O0 2.447676 1_565
La0 O1 2.447676 1_455
La0 O1 2.447676 1_545
