# generated using pymatgen
data_FeCo5O12
_symmetry_space_group_name_H-M   'P 1'
_cell_length_a   4.97160400
_cell_length_b   4.97160400
_cell_length_c   9.86889165
_cell_angle_alpha   89.98962160
_cell_angle_beta   89.98962160
_cell_angle_gamma   120.12470503
_symmetry_Int_Tables_number   1
_chemical_formula_structural   FeCo5O12
_chemical_formula_sum   'Fe1 Co5 O12'
_cell_volume   210.98176897
_cell_formula_units_Z   1
loop_
 _symmetry_equiv_pos_site_id
 _symmetry_equiv_pos_as_xyz
  1  'x, y, z'
loop_
 _atom_site_type_symbol
 _atom_site_label
 _atom_site_symmetry_multiplicity
 _atom_site_fract_x
 _atom_site_fract_y
 _atom_site_fract_z
 _atom_site_occupancy
  Fe  Fe0  1  0.00000000  0.00000000  0.00000000  1
  Co  Co0  1  0.16668100  0.83331900  0.50000000  1
  Co  Co1  1  0.66664900  0.33335100  0.00000000  1
  Co  Co2  1  0.33335100  0.66664900  0.00000000  1
  Co  Co3  1  0.83331900  0.16668100  0.50000000  1
  Co  Co4  1  0.50000000  0.50000000  0.50000000  1
  O  O0  1  0.34409200  0.00001700  0.09758300  1
  O  O1  1  0.99998300  0.65590800  0.90241700  1
  O  O2  1  0.50002300  0.83329800  0.40539000  1
  O  O3  1  0.83329800  0.50002300  0.40539000  1
  O  O4  1  0.16670200  0.49997700  0.59461000  1
  O  O5  1  0.83335000  0.83335000  0.59465700  1
  O  O6  1  0.49997700  0.16670200  0.59461000  1
  O  O7  1  0.00001700  0.34409200  0.09758300  1
  O  O8  1  0.65588300  0.65588300  0.09758100  1
  O  O9  1  0.65590800  0.99998300  0.90241700  1
  O  O10  1  0.34411700  0.34411700  0.90241900  1
  O  O11  1  0.16665000  0.16665000  0.40534300  1
loop_
_geom_bond_atom_site_label_1
_geom_bond_atom_site_label_2
_geom_bond_distance
_geom_bond_site_symmetry_2
Fe0 O8 1.960118 1_445
Fe0 O10 1.960118 1_554
Fe0 O7 1.963249 1_555
Fe0 O0 1.963249 1_555
Fe0 O9 1.963249 1_444
Fe0 O1 1.963249 1_444
Co0 O3 1.899732 1_455
Co0 O6 1.899732 1_565
Co0 O4 1.902067 1_555
Co0 O2 1.902067 1_555
Co0 O5 1.902269 1_455
Co0 O11 1.902269 1_565
Co1 O0 1.891215 1_555
Co1 O1 1.891215 1_554
Co1 O10 1.894247 1_554
Co1 O8 1.894247 1_555
Co1 O7 1.894449 1_655
Co1 O9 1.894449 1_544
Co2 O7 1.891215 1_555
Co2 O9 1.891215 1_554
Co2 O10 1.894247 1_554
Co2 O8 1.894247 1_555
Co2 O0 1.894449 1_565
Co2 O1 1.894449 1_454
Co3 O2 1.899732 1_545
Co3 O4 1.899732 1_655
Co3 O6 1.902067 1_555
Co3 O3 1.902067 1_555
Co3 O5 1.902269 1_545
Co3 O11 1.902269 1_655
Co4 O5 1.900005 1_555
Co4 O11 1.900005 1_555
Co4 O3 1.901781 1_555
Co4 O2 1.901781 1_555
Co4 O6 1.901781 1_555
Co4 O4 1.901781 1_555
