# generated using pymatgen
data_Li3VOF5
_symmetry_space_group_name_H-M   'P 1'
_cell_length_a   5.50308456
_cell_length_b   5.51489353
_cell_length_c   8.92734377
_cell_angle_alpha   88.37100873
_cell_angle_beta   91.34657510
_cell_angle_gamma   108.67604260
_symmetry_Int_Tables_number   1
_chemical_formula_structural   Li3VOF5
_chemical_formula_sum   'Li6 V2 O2 F10'
_cell_volume   256.53560673
_cell_formula_units_Z   2
loop_
 _symmetry_equiv_pos_site_id
 _symmetry_equiv_pos_as_xyz
  1  'x, y, z'
loop_
 _atom_site_type_symbol
 _atom_site_label
 _atom_site_symmetry_multiplicity
 _atom_site_fract_x
 _atom_site_fract_y
 _atom_site_fract_z
 _atom_site_occupancy
  Li  Li0  1  0.07650100  0.91793000  0.58460300  1
  Li  Li1  1  0.57650500  0.41792400  0.08459700  1
  Li  Li2  1  0.04110700  0.49057700  0.77760200  1
  Li  Li3  1  0.54117500  0.99060200  0.27760800  1
  Li  Li4  1  0.50858200  0.96567200  0.77545900  1
  Li  Li5  1  0.00856000  0.46561100  0.27546200  1
  V  V0  1  0.50058100  0.50173900  0.50140500  1
  V  V1  1  0.00058000  0.00197500  0.00127100  1
  O  O0  1  0.63843300  0.37434400  0.63532000  1
  O  O1  1  0.13835300  0.87438800  0.13524600  1
  F  F0  1  0.83675900  0.16139300  0.83585000  1
  F  F1  1  0.33679900  0.66136200  0.33587100  1
  F  F2  1  0.82055700  0.18324500  0.13121900  1
  F  F3  1  0.32057300  0.68322700  0.63122500  1
  F  F4  1  0.13065700  0.86855600  0.82171600  1
  F  F5  1  0.63064700  0.36856900  0.32172100  1
  F  F6  1  0.77350400  0.82422400  0.47247600  1
  F  F7  1  0.27350400  0.32423000  0.97246400  1
  F  F8  1  0.67889900  0.72742200  0.98022200  1
  F  F9  1  0.17893100  0.22743300  0.48024300  1
loop_
_geom_bond_atom_site_label_1
_geom_bond_atom_site_label_2
_geom_bond_distance
_geom_bond_site_symmetry_2
Li2 O0 2.437013 1_455
Li3 O1 2.438039 1_555
Li4 O0 2.450636 1_565
Li5 O1 2.451441 1_555
O0 V0 1.658097 1_555
O1 V1 1.658803 1_565
F0 Li4 1.859087 1_545
F0 Li2 1.870050 1_655
F0 V1 2.034146 1_656
F1 Li5 1.859445 1_555
F1 Li3 1.870369 1_555
F1 V0 2.035360 1_555
F2 V1 2.020111 1_655
F2 Li3 2.042009 1_545
F2 Li5 2.042817 1_655
F2 Li1 2.169866 1_555
F3 V0 2.020175 1_555
F3 Li2 2.042228 1_555
F3 Li4 2.043043 1_555
F3 Li0 2.170059 1_555
F4 V1 2.020283 1_566
F4 Li4 2.024148 1_555
F4 Li2 2.030471 1_555
F4 Li0 2.152512 1_555
F5 V0 2.020502 1_555
F5 Li5 2.024118 1_655
F5 Li3 2.030445 1_545
F5 Li1 2.152581 1_555
F6 Li0 1.857000 1_655
F6 V0 1.940839 1_555
F6 Li3 2.461493 1_555
F7 Li1 1.857045 1_556
F7 V1 1.939863 1_556
F7 Li2 2.461601 1_555
F8 Li1 1.848615 1_556
F8 V1 1.935352 1_666
F8 Li4 2.553042 1_555
F9 Li0 1.848577 1_545
F9 V0 1.934667 1_555
F9 Li5 2.553064 1_555
