# generated using pymatgen
data_CrOF
_symmetry_space_group_name_H-M   'P 1'
_cell_length_a   3.06260600
_cell_length_b   7.74625100
_cell_length_c   11.84908158
_cell_angle_alpha   83.71241884
_cell_angle_beta   90.00000000
_cell_angle_gamma   90.00000000
_symmetry_Int_Tables_number   1
_chemical_formula_structural   CrOF
_chemical_formula_sum   'Cr8 O8 F8'
_cell_volume   279.41331040
_cell_formula_units_Z   8
loop_
 _symmetry_equiv_pos_site_id
 _symmetry_equiv_pos_as_xyz
  1  'x, y, z'
loop_
 _atom_site_type_symbol
 _atom_site_label
 _atom_site_symmetry_multiplicity
 _atom_site_fract_x
 _atom_site_fract_y
 _atom_site_fract_z
 _atom_site_occupancy
  Cr  Cr0  1  0.75000000  0.85642400  0.86242300  1
  Cr  Cr1  1  0.25000000  0.83192900  0.51546400  1
  Cr  Cr2  1  0.75000000  0.78551500  0.28438000  1
  Cr  Cr3  1  0.75000000  0.38634600  0.92221700  1
  Cr  Cr4  1  0.25000000  0.61365400  0.07778300  1
  Cr  Cr5  1  0.25000000  0.21448500  0.71562000  1
  Cr  Cr6  1  0.75000000  0.16807100  0.48453600  1
  Cr  Cr7  1  0.25000000  0.14357600  0.13757700  1
  O  O0  1  0.75000000  0.93783700  0.42180500  1
  O  O1  1  0.75000000  0.62802600  0.95760300  1
  O  O2  1  0.25000000  0.89791800  0.20408700  1
  O  O3  1  0.25000000  0.39271400  0.81757600  1
  O  O4  1  0.75000000  0.60728600  0.18242400  1
  O  O5  1  0.75000000  0.10208200  0.79591300  1
  O  O6  1  0.25000000  0.37197400  0.04239700  1
  O  O7  1  0.25000000  0.06216300  0.57819500  1
  F  F0  1  0.25000000  0.89596000  0.96311900  1
  F  F1  1  0.25000000  0.80374500  0.76929400  1
  F  F2  1  0.75000000  0.71766900  0.59856400  1
  F  F3  1  0.25000000  0.66572900  0.39071700  1
  F  F4  1  0.75000000  0.33427100  0.60928300  1
  F  F5  1  0.25000000  0.28233100  0.40143600  1
  F  F6  1  0.75000000  0.19625500  0.23070600  1
  F  F7  1  0.75000000  0.10404000  0.03688100  1
loop_
_geom_bond_atom_site_label_1
_geom_bond_atom_site_label_2
_geom_bond_distance
_geom_bond_site_symmetry_2
Cr0 F1 1.956460 1_555
Cr0 F1 1.956460 1_655
Cr0 O5 1.978314 1_565
Cr0 F0 1.985533 1_655
Cr0 F0 1.985533 1_555
Cr0 O1 1.991241 1_555
Cr1 F2 1.976595 1_455
Cr1 F2 1.976595 1_555
Cr1 O7 2.005882 1_565
Cr1 O0 2.012487 1_455
Cr1 O0 2.012487 1_555
Cr1 F3 2.063779 1_555
Cr2 O4 1.931547 1_555
Cr2 O2 1.956201 1_655
Cr2 O2 1.956201 1_555
Cr2 O0 2.112966 1_555
Cr2 F3 2.130112 1_555
Cr2 F3 2.130112 1_655
Cr3 O1 1.962792 1_555
Cr3 O3 1.967556 1_655
Cr3 O3 1.967556 1_555
Cr3 O6 2.085761 1_656
Cr3 O6 2.085761 1_556
Cr3 F7 2.444857 1_556
Cr4 O6 1.962792 1_555
Cr4 O4 1.967556 1_555
Cr4 O4 1.967556 1_455
Cr4 O1 2.085761 1_554
Cr4 O1 2.085761 1_454
Cr4 F0 2.444857 1_554
Cr5 O3 1.931547 1_555
Cr5 O5 1.956201 1_555
Cr5 O5 1.956201 1_455
Cr5 O7 2.112966 1_555
Cr5 F4 2.130112 1_555
Cr5 F4 2.130112 1_455
Cr6 F5 1.976595 1_555
Cr6 F5 1.976595 1_655
Cr6 O0 2.005882 1_545
Cr6 O7 2.012487 1_555
Cr6 O7 2.012487 1_655
Cr6 F4 2.063779 1_555
Cr7 F6 1.956460 1_555
Cr7 F6 1.956460 1_455
Cr7 O2 1.978314 1_545
Cr7 F7 1.985533 1_455
Cr7 F7 1.985533 1_555
Cr7 O6 1.991241 1_555
