# generated using pymatgen
data_Li3VF5
_symmetry_space_group_name_H-M   'P 1'
_cell_length_a   6.80653500
_cell_length_b   7.56735700
_cell_length_c   8.35084000
_cell_angle_alpha   90.00000000
_cell_angle_beta   90.00000000
_cell_angle_gamma   90.00000000
_symmetry_Int_Tables_number   1
_chemical_formula_structural   Li3VF5
_chemical_formula_sum   'Li12 V4 F20'
_cell_volume   430.13072660
_cell_formula_units_Z   4
loop_
 _symmetry_equiv_pos_site_id
 _symmetry_equiv_pos_as_xyz
  1  'x, y, z'
loop_
 _atom_site_type_symbol
 _atom_site_label
 _atom_site_symmetry_multiplicity
 _atom_site_fract_x
 _atom_site_fract_y
 _atom_site_fract_z
 _atom_site_occupancy
  Li  Li0  1  0.35452300  0.25000000  0.12305000  1
  Li  Li1  1  0.76288700  0.55388700  0.12411700  1
  Li  Li2  1  0.76288700  0.94611300  0.12411700  1
  Li  Li3  1  0.26288700  0.05388700  0.37588300  1
  Li  Li4  1  0.26288700  0.44611300  0.37588300  1
  Li  Li5  1  0.85452300  0.75000000  0.37695000  1
  Li  Li6  1  0.14547700  0.25000000  0.62305000  1
  Li  Li7  1  0.73711300  0.55388700  0.62411700  1
  Li  Li8  1  0.73711300  0.94611300  0.62411700  1
  Li  Li9  1  0.23711300  0.05388700  0.87588300  1
  Li  Li10  1  0.23711300  0.44611300  0.87588300  1
  Li  Li11  1  0.64547700  0.75000000  0.87695000  1
  V  V0  1  0.25100000  0.75000000  0.12509900  1
  V  V1  1  0.75100000  0.25000000  0.37490100  1
  V  V2  1  0.24900000  0.75000000  0.62509900  1
  V  V3  1  0.74900000  0.25000000  0.87490100  1
  F  F0  1  0.56135500  0.75000000  0.09121600  1
  F  F1  1  0.23848900  0.02703200  0.12419500  1
  F  F2  1  0.23848900  0.47296800  0.12419500  1
  F  F3  1  0.77948300  0.25000000  0.12489100  1
  F  F4  1  0.94297300  0.75000000  0.16252100  1
  F  F5  1  0.44297300  0.25000000  0.33747900  1
  F  F6  1  0.27948300  0.75000000  0.37510900  1
  F  F7  1  0.73848900  0.52703200  0.37580500  1
  F  F8  1  0.73848900  0.97296800  0.37580500  1
  F  F9  1  0.06135500  0.25000000  0.40878400  1
  F  F10  1  0.93864500  0.75000000  0.59121600  1
  F  F11  1  0.26151100  0.02703200  0.62419500  1
  F  F12  1  0.26151100  0.47296800  0.62419500  1
  F  F13  1  0.72051700  0.25000000  0.62489100  1
  F  F14  1  0.55702700  0.75000000  0.66252100  1
  F  F15  1  0.05702700  0.25000000  0.83747900  1
  F  F16  1  0.22051700  0.75000000  0.87510900  1
  F  F17  1  0.76151100  0.52703200  0.87580500  1
  F  F18  1  0.76151100  0.97296800  0.87580500  1
  F  F19  1  0.43864500  0.25000000  0.90878400  1
loop_
_geom_bond_atom_site_label_1
_geom_bond_atom_site_label_2
_geom_bond_distance
_geom_bond_site_symmetry_2
F0 Li11 1.878682 1_554
F0 Li2 2.039502 1_555
F0 Li1 2.039502 1_555
F0 V0 2.131308 1_555
F1 Li0 1.863000 1_555
F1 Li9 2.083569 1_554
F1 V0 2.098142 1_545
F1 Li3 2.118128 1_555
F2 Li0 1.863000 1_555
F2 Li10 2.083569 1_554
F2 V0 2.098142 1_555
F2 Li4 2.118128 1_555
F3 V1 2.096776 1_555
F3 V3 2.097912 1_554
F3 Li1 2.302403 1_555
F3 Li2 2.302403 1_545
F4 Li5 1.889159 1_555
F4 Li2 1.951351 1_555
F4 Li1 1.951351 1_555
F4 V0 2.119759 1_655
F5 Li0 1.889159 1_555
F5 Li4 1.951351 1_555
F5 Li3 1.951351 1_555
F5 V1 2.119759 1_555
F6 V0 2.096776 1_555
F6 V2 2.097912 1_555
F6 Li3 2.302403 1_565
F6 Li4 2.302403 1_555
F7 Li5 1.863000 1_555
F7 Li7 2.083569 1_555
F7 V1 2.098142 1_555
F7 Li1 2.118128 1_555
F8 Li5 1.863000 1_555
F8 Li8 2.083569 1_555
F8 V1 2.098142 1_565
F8 Li2 2.118128 1_555
F9 Li6 1.878682 1_555
F9 Li4 2.039502 1_555
F9 Li3 2.039502 1_555
F9 V1 2.131308 1_455
F10 Li5 1.878682 1_555
F10 Li7 2.039502 1_555
F10 Li8 2.039502 1_555
F10 V2 2.131308 1_655
F11 Li6 1.863000 1_555
F11 Li3 2.083569 1_555
F11 V2 2.098142 1_545
F11 Li9 2.118128 1_555
F12 Li6 1.863000 1_555
F12 Li4 2.083569 1_555
F12 V2 2.098142 1_555
F12 Li10 2.118128 1_555
F13 V3 2.096776 1_555
F13 V1 2.097912 1_555
F13 Li7 2.302403 1_555
F13 Li8 2.302403 1_545
F14 Li11 1.889159 1_555
F14 Li8 1.951351 1_555
F14 Li7 1.951351 1_555
F14 V2 2.119759 1_555
F15 Li6 1.889159 1_555
F15 Li10 1.951351 1_555
F15 Li9 1.951351 1_555
F15 V3 2.119759 1_455
F16 V2 2.096776 1_555
F16 V0 2.097912 1_556
F16 Li9 2.302403 1_565
F16 Li10 2.302403 1_555
F17 Li11 1.863000 1_555
F17 Li1 2.083569 1_556
F17 V3 2.098142 1_555
F17 Li7 2.118128 1_555
F18 Li11 1.863000 1_555
F18 Li2 2.083569 1_556
F18 V3 2.098142 1_565
F18 Li8 2.118128 1_555
F19 Li0 1.878682 1_556
F19 Li9 2.039502 1_555
F19 Li10 2.039502 1_555
F19 V3 2.131308 1_555
