# generated using pymatgen
data_Li2VO2F
_symmetry_space_group_name_H-M   'P 1'
_cell_length_a   2.94114843
_cell_length_b   5.19675268
_cell_length_c   14.57115595
_cell_angle_alpha   89.02788133
_cell_angle_beta   89.99785023
_cell_angle_gamma   90.00000699
_symmetry_Int_Tables_number   1
_chemical_formula_structural   Li2VO2F
_chemical_formula_sum   'Li8 V4 O8 F4'
_cell_volume   222.67962687
_cell_formula_units_Z   4
loop_
 _symmetry_equiv_pos_site_id
 _symmetry_equiv_pos_as_xyz
  1  'x, y, z'
loop_
 _atom_site_type_symbol
 _atom_site_label
 _atom_site_symmetry_multiplicity
 _atom_site_fract_x
 _atom_site_fract_y
 _atom_site_fract_z
 _atom_site_occupancy
  Li  Li0  1  0.99998400  0.66666700  0.16665500  1
  Li  Li1  1  0.49998700  0.16667300  0.66664700  1
  Li  Li2  1  0.49998600  0.16670000  0.16665600  1
  Li  Li3  1  0.99998900  0.66670200  0.66665900  1
  Li  Li4  1  0.50001400  0.83102400  0.33653700  1
  Li  Li5  1  0.00001300  0.33106900  0.83650900  1
  Li  Li6  1  0.99999300  0.00222500  0.49677300  1
  Li  Li7  1  0.49998700  0.50224400  0.99676000  1
  V  V0  1  0.50004800  0.84708900  0.83196300  1
  V  V1  1  0.50000700  0.48620300  0.50138000  1
  V  V2  1  0.00001900  0.34720900  0.33205100  1
  V  V3  1  0.99998500  0.98615800  0.00131600  1
  O  O0  1  0.50001200  0.17953800  0.41195600  1
  O  O1  1  0.00001500  0.67956200  0.91201700  1
  O  O2  1  0.99999000  0.65376600  0.42132600  1
  O  O3  1  0.49998300  0.15386000  0.92137900  1
  O  O4  1  0.49998500  0.84550900  0.07966200  1
  O  O5  1  0.00000400  0.34551300  0.57966200  1
  O  O6  1  0.50000500  0.48778900  0.25365000  1
  O  O7  1  0.99999500  0.98775800  0.75369700  1
  F  F0  1  0.00003900  0.00801700  0.25174800  1
  F  F1  1  0.50005400  0.50804300  0.75177300  1
  F  F2  1  0.99994600  0.32534700  0.08161200  1
  F  F3  1  0.49996300  0.82533500  0.58161200  1
loop_
_geom_bond_atom_site_label_1
_geom_bond_atom_site_label_2
_geom_bond_distance
_geom_bond_site_symmetry_2
Li0 O4 2.143139 1_655
Li0 O6 2.143190 1_555
Li0 O4 2.143200 1_555
Li0 O6 2.143341 1_655
Li1 O5 2.143095 1_555
Li1 O5 2.143098 1_655
Li1 O7 2.143766 1_445
Li1 O7 2.143864 1_545
Li2 O6 2.112553 1_555
Li2 O4 2.112977 1_545
Li3 O7 2.112809 1_555
Li3 O5 2.112996 1_655
Li4 O2 2.121048 1_555
Li4 O2 2.121081 1_455
Li4 O0 2.134348 1_565
Li4 O6 2.171035 1_555
Li5 O3 2.121606 1_555
Li5 O3 2.121664 1_455
Li5 O1 2.134941 1_555
Li5 O7 2.170740 1_445
Li6 O0 2.121414 1_555
Li6 O0 2.121427 1_655
Li6 O2 2.134319 1_545
Li6 O5 2.171281 1_655
Li7 O1 2.120786 1_555
Li7 O1 2.120836 1_655
Li7 O3 2.133476 1_555
Li7 O4 2.171289 1_556
O0 V2 2.059843 1_655
O0 V2 2.059876 1_555
O0 V1 2.075586 1_555
O1 V0 2.060724 1_455
O1 V0 2.060800 1_555
O1 V3 2.074140 1_456
O2 V1 2.060773 1_555
O2 V1 2.060907 1_655
O2 V2 2.073758 1_655
O3 V3 2.060150 1_446
O3 V3 2.060221 1_546
O3 V0 2.075940 1_545
O4 V3 1.992893 1_555
O4 V3 1.992956 1_455
O5 V1 1.992447 1_555
O5 V1 1.992498 1_455
O6 V2 1.993189 1_555
O6 V2 1.993313 1_655
O7 V0 1.992155 1_555
O7 V0 1.992448 1_655
F0 Li2 2.084382 1_555
F0 Li2 2.084668 1_455
F0 Li4 2.120461 1_545
F0 Li4 2.120499 1_445
F0 V2 2.132191 1_555
F0 Li0 2.181457 1_445
F1 Li3 2.084498 1_555
F1 Li3 2.084833 1_455
F1 Li5 2.119943 1_655
F1 Li5 2.120046 1_555
F1 V0 2.130630 1_555
F1 Li1 2.181822 1_555
F2 Li2 2.083926 1_555
F2 Li2 2.084157 1_655
F2 Li7 2.120746 1_554
F2 Li7 2.120848 1_654
F2 V3 2.132120 1_545
F2 Li0 2.180905 1_555
F3 Li3 2.083952 1_455
F3 Li3 2.084126 1_555
F3 Li6 2.120644 1_465
F3 Li6 2.120702 1_565
F3 V1 2.131348 1_555
F3 Li1 2.180914 1_565
