# generated using pymatgen
data_Nb3Te4
_symmetry_space_group_name_H-M   'P 1'
_cell_length_a   10.83890845
_cell_length_b   10.83857175
_cell_length_c   3.67224396
_cell_angle_alpha   90.00000000
_cell_angle_beta   90.00000000
_cell_angle_gamma   120.00285482
_symmetry_Int_Tables_number   1
_chemical_formula_structural   Nb3Te4
_chemical_formula_sum   'Nb6 Te8'
_cell_volume   373.60034419
_cell_formula_units_Z   2
loop_
 _symmetry_equiv_pos_site_id
 _symmetry_equiv_pos_as_xyz
  1  'x, y, z'
loop_
 _atom_site_type_symbol
 _atom_site_label
 _atom_site_symmetry_multiplicity
 _atom_site_fract_x
 _atom_site_fract_y
 _atom_site_fract_z
 _atom_site_occupancy
  Nb  Nb0  1  0.48828717  0.10075182  0.25000000  1
  Nb  Nb1  1  0.38753575  0.48828448  0.75000000  1
  Nb  Nb2  1  0.10075863  0.61246598  0.75000000  1
  Nb  Nb3  1  0.89924137  0.38753402  0.25000000  1
  Nb  Nb4  1  0.61246425  0.51171552  0.25000000  1
  Nb  Nb5  1  0.51171283  0.89924818  0.75000000  1
  Te  Te0  1  0.66666796  0.33332394  0.75000000  1
  Te  Te1  1  0.33333204  0.66667606  0.25000000  1
  Te  Te2  1  0.33806312  0.27401974  0.25000000  1
  Te  Te3  1  0.06403162  0.33807357  0.75000000  1
  Te  Te4  1  0.27404065  0.93597108  0.75000000  1
  Te  Te5  1  0.72595935  0.06402892  0.25000000  1
  Te  Te6  1  0.93596838  0.66192643  0.25000000  1
  Te  Te7  1  0.66193688  0.72598026  0.75000000  1
loop_
_geom_bond_atom_site_label_1
_geom_bond_atom_site_label_2
_geom_bond_distance
_geom_bond_site_symmetry_2
Nb0 Te4 2.793909 1_544
Nb0 Te4 2.793909 1_545
Nb0 Te5 2.796460 1_555
Nb0 Te0 2.930801 1_554
Nb0 Te0 2.930801 1_555
Nb0 Te2 3.039103 1_555
Nb1 Te2 2.794042 1_555
Nb1 Te2 2.794042 1_556
Nb1 Te7 2.796442 1_555
Nb1 Te1 2.931045 1_555
Nb1 Te1 2.931045 1_556
Nb1 Te3 3.039155 1_555
Nb2 Te6 2.794038 1_456
Nb2 Te6 2.794038 1_455
Nb2 Te3 2.796296 1_555
Nb2 Te1 2.930860 1_555
Nb2 Te1 2.930860 1_556
Nb2 Te4 3.039053 1_555
Nb3 Te3 2.794038 1_654
Nb3 Te3 2.794038 1_655
Nb3 Te6 2.796296 1_555
Nb3 Te0 2.930860 1_555
Nb3 Te0 2.930860 1_554
Nb3 Te5 3.039053 1_555
Nb4 Te7 2.794042 1_554
Nb4 Te7 2.794042 1_555
Nb4 Te2 2.796442 1_555
Nb4 Te0 2.931045 1_554
Nb4 Te0 2.931045 1_555
Nb4 Te6 3.039155 1_555
Nb5 Te5 2.793909 1_565
Nb5 Te5 2.793909 1_566
Nb5 Te4 2.796460 1_555
Nb5 Te1 2.930801 1_555
Nb5 Te1 2.930801 1_556
Nb5 Te7 3.039103 1_555
