# generated using pymatgen
data_Li6CoCu3(PO4)4
_symmetry_space_group_name_H-M   'P 1'
_cell_length_a   5.07791576
_cell_length_b   6.26020451
_cell_length_c   10.45222659
_cell_angle_alpha   89.98179657
_cell_angle_beta   90.92787063
_cell_angle_gamma   89.86443918
_symmetry_Int_Tables_number   1
_chemical_formula_structural   Li6CoCu3(PO4)4
_chemical_formula_sum   'Li6 Co1 Cu3 P4 O16'
_cell_volume   332.21912876
_cell_formula_units_Z   1
loop_
 _symmetry_equiv_pos_site_id
 _symmetry_equiv_pos_as_xyz
  1  'x, y, z'
loop_
 _atom_site_type_symbol
 _atom_site_label
 _atom_site_symmetry_multiplicity
 _atom_site_fract_x
 _atom_site_fract_y
 _atom_site_fract_z
 _atom_site_occupancy
  Li  Li0  1  0.10329600  0.48896800  0.11464000  1
  Li  Li1  1  0.10308200  0.01105300  0.11482600  1
  Li  Li2  1  0.38021000  0.49400500  0.63289800  1
  Li  Li3  1  0.37971900  0.00595000  0.63244100  1
  Li  Li4  1  0.64213600  0.99649900  0.35814100  1
  Li  Li5  1  0.64204000  0.50385900  0.35827200  1
  Co  Co0  1  0.92146200  0.24302700  0.72380800  1
  Cu  Cu0  1  0.14442100  0.75012500  0.34113800  1
  Cu  Cu1  1  0.33828500  0.75108200  0.83577600  1
  Cu  Cu2  1  0.64740800  0.25012700  0.13887800  1
  P  P0  1  0.13058900  0.25002200  0.41140800  1
  P  P1  1  0.38541900  0.25134400  0.88839500  1
  P  P2  1  0.59830300  0.75013600  0.10260600  1
  P  P3  1  0.87177700  0.74954000  0.59862700  1
  O  O0  1  0.20963400  0.25012600  0.55622700  1
  O  O1  1  0.17606000  0.75061500  0.61750400  1
  O  O2  1  0.25510400  0.05169600  0.34352100  1
  O  O3  1  0.25480800  0.44808300  0.34353500  1
  O  O4  1  0.25689200  0.05938400  0.81251900  1
  O  O5  1  0.25696800  0.44524800  0.81543800  1
  O  O6  1  0.29913500  0.75000900  0.13443600  1
  O  O7  1  0.28536800  0.24884600  0.02945600  1
  O  O8  1  0.64238000  0.75051500  0.95959900  1
  O  O9  1  0.68652200  0.25005100  0.88475100  1
  O  O10  1  0.73468300  0.55077300  0.16950700  1
  O  O11  1  0.73441400  0.94895200  0.16955500  1
  O  O12  1  0.75089400  0.95623600  0.65681500  1
  O  O13  1  0.75382400  0.54290500  0.65626600  1
  O  O14  1  0.82957300  0.25004600  0.39500800  1
  O  O15  1  0.80085900  0.75077700  0.45054800  1
loop_
_geom_bond_atom_site_label_1
_geom_bond_atom_site_label_2
_geom_bond_distance
_geom_bond_site_symmetry_2
Li0 O6 1.924449 1_555
Li0 O7 1.981947 1_555
Li0 O10 2.003408 1_455
Li0 O3 2.514035 1_555
Li1 O6 1.920720 1_545
Li1 O7 1.975212 1_555
Li1 O11 2.005239 1_445
Li1 O2 2.513182 1_555
Li2 O1 1.915129 1_555
Li2 O0 1.925599 1_555
Li2 O13 1.934024 1_555
Li2 O5 2.040657 1_555
Li3 O1 1.910932 1_545
Li3 O0 1.920367 1_555
Li3 O12 1.922456 1_545
Li3 O4 2.020167 1_555
Li4 O14 1.889294 1_565
Li4 O15 1.979076 1_555
Li4 O2 1.998060 1_565
Li4 O11 2.055042 1_555
Li5 O14 1.886676 1_555
Li5 O15 1.987876 1_555
Li5 O3 2.001394 1_555
Li5 O10 2.056865 1_555
Co0 O9 2.078421 1_555
Co0 O12 2.110063 1_545
Co0 O13 2.172417 1_555
Co0 O4 2.240874 1_655
Co0 O0 2.301003 1_655
Co0 O5 2.319591 1_655
Cu0 O3 1.970944 1_555
Cu0 O2 1.971106 1_565
Cu0 O15 2.101411 1_455
Cu0 O6 2.310827 1_555
Cu1 O5 1.970401 1_555
Cu1 O4 1.986861 1_565
Cu1 O8 1.998684 1_555
Cu1 O1 2.413019 1_555
Cu2 O10 1.959834 1_555
Cu2 O11 1.960584 1_545
Cu2 O7 2.149383 1_555
O0 P0 1.559700 1_555
O1 P3 1.554528 1_455
O2 P0 1.567199 1_555
O3 P0 1.567211 1_555
O4 P1 1.576887 1_555
O5 P1 1.568441 1_555
O6 P2 1.560409 1_555
O7 P1 1.567324 1_554
O8 P2 1.514988 1_556
O9 P1 1.530069 1_555
O10 P2 1.582994 1_555
O11 P2 1.582857 1_555
O12 P3 1.558799 1_555
O13 P3 1.552386 1_555
O14 P0 1.535354 1_655
O15 P3 1.583419 1_555
