# generated using pymatgen
data_CeAl2Pt3
_symmetry_space_group_name_H-M   'P 1'
_cell_length_a   8.02293600
_cell_length_b   11.18885367
_cell_length_c   11.18885367
_cell_angle_alpha   120.00000988
_cell_angle_beta   90.00000000
_cell_angle_gamma   90.00000000
_symmetry_Int_Tables_number   1
_chemical_formula_structural   CeAl2Pt3
_chemical_formula_sum   'Ce8 Al16 Pt24'
_cell_volume   869.83144668
_cell_formula_units_Z   8
loop_
 _symmetry_equiv_pos_site_id
 _symmetry_equiv_pos_as_xyz
  1  'x, y, z'
loop_
 _atom_site_type_symbol
 _atom_site_label
 _atom_site_symmetry_multiplicity
 _atom_site_fract_x
 _atom_site_fract_y
 _atom_site_fract_z
 _atom_site_occupancy
  Ce  Ce0_0  1  0.00000000  0.00000000  0.00000000  1
  Ce  Ce0_1  1  0.00000000  0.00000000  0.50000000  1
  Ce  Ce0_2  1  0.00000000  0.50000000  0.00000000  1
  Ce  Ce0_3  1  0.00000000  0.50000000  0.50000000  1
  Ce  Ce0_4  1  0.50000000  0.00000000  0.00000000  1
  Ce  Ce0_5  1  0.50000000  0.00000000  0.50000000  1
  Ce  Ce0_6  1  0.50000000  0.50000000  0.00000000  1
  Ce  Ce0_7  1  0.50000000  0.50000000  0.50000000  1
  Al  Al0_0  1  0.00000000  0.16666650  0.33333350  1
  Al  Al0_1  1  0.00000000  0.16666650  0.83333350  1
  Al  Al0_2  1  0.00000000  0.66666650  0.33333350  1
  Al  Al0_3  1  0.00000000  0.66666650  0.83333350  1
  Al  Al0_4  1  0.50000000  0.16666650  0.33333350  1
  Al  Al0_5  1  0.50000000  0.16666650  0.83333350  1
  Al  Al0_6  1  0.50000000  0.66666650  0.33333350  1
  Al  Al0_7  1  0.50000000  0.66666650  0.83333350  1
  Al  Al1_0  1  0.00000000  0.33333350  0.16666650  1
  Al  Al1_1  1  0.00000000  0.33333350  0.66666650  1
  Al  Al1_2  1  0.00000000  0.83333350  0.16666650  1
  Al  Al1_3  1  0.00000000  0.83333350  0.66666650  1
  Al  Al1_4  1  0.50000000  0.33333350  0.16666650  1
  Al  Al1_5  1  0.50000000  0.33333350  0.66666650  1
  Al  Al1_6  1  0.50000000  0.83333350  0.16666650  1
  Al  Al1_7  1  0.50000000  0.83333350  0.66666650  1
  Pt  Pt0_0  1  0.25000000  0.00000000  0.25000000  1
  Pt  Pt0_1  1  0.25000000  0.00000000  0.75000000  1
  Pt  Pt0_2  1  0.25000000  0.50000000  0.25000000  1
  Pt  Pt0_3  1  0.25000000  0.50000000  0.75000000  1
  Pt  Pt0_4  1  0.75000000  0.00000000  0.25000000  1
  Pt  Pt0_5  1  0.75000000  0.00000000  0.75000000  1
  Pt  Pt0_6  1  0.75000000  0.50000000  0.25000000  1
  Pt  Pt0_7  1  0.75000000  0.50000000  0.75000000  1
  Pt  Pt1_0  1  0.25000000  0.25000000  0.25000000  1
  Pt  Pt1_1  1  0.25000000  0.25000000  0.75000000  1
  Pt  Pt1_2  1  0.25000000  0.75000000  0.25000000  1
  Pt  Pt1_3  1  0.25000000  0.75000000  0.75000000  1
  Pt  Pt1_4  1  0.75000000  0.25000000  0.25000000  1
  Pt  Pt1_5  1  0.75000000  0.25000000  0.75000000  1
  Pt  Pt1_6  1  0.75000000  0.75000000  0.25000000  1
  Pt  Pt1_7  1  0.75000000  0.75000000  0.75000000  1
  Pt  Pt2_0  1  0.25000000  0.25000000  0.00000000  1
  Pt  Pt2_1  1  0.25000000  0.25000000  0.50000000  1
  Pt  Pt2_2  1  0.25000000  0.75000000  0.00000000  1
  Pt  Pt2_3  1  0.25000000  0.75000000  0.50000000  1
  Pt  Pt2_4  1  0.75000000  0.25000000  0.00000000  1
  Pt  Pt2_5  1  0.75000000  0.25000000  0.50000000  1
  Pt  Pt2_6  1  0.75000000  0.75000000  0.00000000  1
  Pt  Pt2_7  1  0.75000000  0.75000000  0.50000000  1
loop_
_geom_bond_atom_site_label_1
_geom_bond_atom_site_label_2
_geom_bond_distance
_geom_bond_site_symmetry_2
Ce0_0 Pt1_3 3.442001 1_544
Ce0_0 Pt1_7 3.442001 1_444
Ce0_0 Pt1_0 3.442001 1_555
Ce0_0 Pt1_4 3.442001 1_455
Ce0_0 Pt2_2 3.442001 1_545
Ce0_0 Pt2_0 3.442001 1_555
Ce0_0 Pt0_0 3.442001 1_555
Ce0_0 Pt2_6 3.442001 1_445
Ce0_0 Pt2_4 3.442001 1_455
Ce0_0 Pt0_1 3.442001 1_554
Ce0_0 Pt0_4 3.442001 1_455
Ce0_0 Pt0_5 3.442001 1_454
Ce0_0 Ce0_4 4.011468 1_555
Ce0_0 Ce0_4 4.011468 1_455
Ce0_1 Pt1_1 3.442001 1_555
Ce0_1 Pt1_2 3.442001 1_545
Ce0_1 Pt1_5 3.442001 1_455
Ce0_1 Pt1_6 3.442001 1_445
Ce0_1 Pt2_3 3.442001 1_545
Ce0_1 Pt0_0 3.442001 1_555
Ce0_1 Pt2_7 3.442001 1_445
Ce0_1 Pt2_1 3.442001 1_555
Ce0_1 Pt0_1 3.442001 1_555
Ce0_1 Pt0_4 3.442001 1_455
Ce0_1 Pt2_5 3.442001 1_455
Ce0_1 Pt0_5 3.442001 1_455
Ce0_1 Ce0_5 4.011468 1_555
Ce0_1 Ce0_5 4.011468 1_455
Ce0_2 Pt1_2 3.442001 1_555
Ce0_2 Pt1_1 3.442001 1_554
Ce0_2 Pt1_6 3.442001 1_455
Ce0_2 Pt1_5 3.442001 1_454
Ce0_2 Pt2_2 3.442001 1_555
Ce0_2 Pt2_0 3.442001 1_555
Ce0_2 Pt0_2 3.442001 1_555
Ce0_2 Pt2_4 3.442001 1_455
Ce0_2 Pt2_6 3.442001 1_455
Ce0_2 Pt0_6 3.442001 1_455
Ce0_2 Pt0_3 3.442001 1_554
Ce0_2 Pt0_7 3.442001 1_454
Ce0_2 Ce0_6 4.011468 1_555
Ce0_2 Ce0_6 4.011468 1_455
Ce0_3 Pt1_0 3.442001 1_555
Ce0_3 Pt1_3 3.442001 1_555
Ce0_3 Pt1_4 3.442001 1_455
Ce0_3 Pt1_7 3.442001 1_455
Ce0_3 Pt2_1 3.442001 1_555
Ce0_3 Pt0_3 3.442001 1_555
Ce0_3 Pt0_2 3.442001 1_555
Ce0_3 Pt2_5 3.442001 1_455
Ce0_3 Pt2_3 3.442001 1_555
Ce0_3 Pt0_7 3.442001 1_455
Ce0_3 Pt0_6 3.442001 1_455
Ce0_3 Pt2_7 3.442001 1_455
Ce0_3 Ce0_7 4.011468 1_455
Ce0_3 Ce0_7 4.011468 1_555
Ce0_4 Pt1_7 3.442001 1_544
Ce0_4 Pt1_4 3.442001 1_555
Ce0_4 Pt1_3 3.442001 1_544
Ce0_4 Pt1_0 3.442001 1_555
Ce0_4 Pt0_4 3.442001 1_555
Ce0_4 Pt2_4 3.442001 1_555
Ce0_4 Pt2_6 3.442001 1_545
Ce0_4 Pt2_2 3.442001 1_545
Ce0_4 Pt2_0 3.442001 1_555
Ce0_4 Pt0_0 3.442001 1_555
Ce0_4 Pt0_5 3.442001 1_554
Ce0_4 Pt0_1 3.442001 1_554
Ce0_5 Pt1_5 3.442001 1_555
Ce0_5 Pt1_6 3.442001 1_545
Ce0_5 Pt1_1 3.442001 1_555
Ce0_5 Pt1_2 3.442001 1_545
Ce0_5 Pt0_4 3.442001 1_555
Ce0_5 Pt2_7 3.442001 1_545
Ce0_5 Pt2_5 3.442001 1_555
Ce0_5 Pt0_5 3.442001 1_555
Ce0_5 Pt2_3 3.442001 1_545
Ce0_5 Pt0_0 3.442001 1_555
Ce0_5 Pt2_1 3.442001 1_555
Ce0_5 Pt0_1 3.442001 1_555
Ce0_6 Pt1_6 3.442001 1_555
Ce0_6 Pt1_2 3.442001 1_555
Ce0_6 Pt1_5 3.442001 1_554
Ce0_6 Pt1_1 3.442001 1_554
Ce0_6 Pt2_6 3.442001 1_555
Ce0_6 Pt2_4 3.442001 1_555
Ce0_6 Pt0_6 3.442001 1_555
Ce0_6 Pt2_2 3.442001 1_555
Ce0_6 Pt2_0 3.442001 1_555
Ce0_6 Pt0_2 3.442001 1_555
Ce0_6 Pt0_7 3.442001 1_554
Ce0_6 Pt0_3 3.442001 1_554
Ce0_7 Pt1_4 3.442001 1_555
Ce0_7 Pt1_0 3.442001 1_555
Ce0_7 Pt1_7 3.442001 1_555
Ce0_7 Pt1_3 3.442001 1_555
Ce0_7 Pt2_5 3.442001 1_555
Ce0_7 Pt0_6 3.442001 1_555
Ce0_7 Pt0_7 3.442001 1_555
Ce0_7 Pt2_7 3.442001 1_555
Ce0_7 Pt2_1 3.442001 1_555
Ce0_7 Pt0_3 3.442001 1_555
Ce0_7 Pt0_2 3.442001 1_555
Ce0_7 Pt2_3 3.442001 1_555
Al0_0 Pt2_1 2.575092 1_555
Al0_0 Pt0_0 2.575092 1_555
Al0_0 Pt0_4 2.575092 1_455
Al0_0 Pt2_5 2.575092 1_455
Al0_0 Pt1_0 2.575095 1_555
Al0_0 Pt1_4 2.575095 1_455
Al0_0 Ce0_1 3.229941 1_555
Al0_0 Ce0_3 3.229945 1_555
Al0_0 Ce0_0 3.229945 1_555
Al0_1 Pt0_1 2.575092 1_555
Al0_1 Pt2_0 2.575092 1_556
Al0_1 Pt0_5 2.575092 1_455
Al0_1 Pt2_4 2.575092 1_456
Al0_1 Pt1_1 2.575095 1_555
Al0_1 Pt1_5 2.575095 1_455
Al0_1 Ce0_0 3.229941 1_556
Al0_1 Ce0_2 3.229945 1_556
Al0_1 Ce0_1 3.229945 1_555
Al0_2 Pt2_3 2.575092 1_555
Al0_2 Pt0_2 2.575092 1_555
Al0_2 Pt2_7 2.575092 1_455
Al0_2 Pt0_6 2.575092 1_455
Al0_2 Pt1_2 2.575095 1_555
Al0_2 Pt1_6 2.575095 1_455
Al0_2 Ce0_3 3.229941 1_555
Al0_2 Ce0_2 3.229945 1_555
Al0_2 Ce0_1 3.229945 1_565
Al0_3 Pt2_2 2.575092 1_556
Al0_3 Pt0_3 2.575092 1_555
Al0_3 Pt2_6 2.575092 1_456
Al0_3 Pt0_7 2.575092 1_455
Al0_3 Pt1_3 2.575095 1_555
Al0_3 Pt1_7 2.575095 1_455
Al0_3 Ce0_2 3.229941 1_556
Al0_3 Ce0_0 3.229945 1_566
Al0_3 Ce0_3 3.229945 1_555
Al0_4 Pt0_4 2.575092 1_555
Al0_4 Pt2_5 2.575092 1_555
Al0_4 Pt2_1 2.575092 1_555
Al0_4 Pt0_0 2.575092 1_555
Al0_4 Pt1_4 2.575095 1_555
Al0_4 Pt1_0 2.575095 1_555
Al0_4 Ce0_5 3.229941 1_555
Al0_4 Ce0_7 3.229945 1_555
Al0_4 Ce0_4 3.229945 1_555
Al0_5 Pt0_5 2.575092 1_555
Al0_5 Pt2_4 2.575092 1_556
Al0_5 Pt0_1 2.575092 1_555
Al0_5 Pt2_0 2.575092 1_556
Al0_5 Pt1_5 2.575095 1_555
Al0_5 Pt1_1 2.575095 1_555
Al0_5 Ce0_4 3.229941 1_556
Al0_5 Ce0_6 3.229945 1_556
Al0_5 Ce0_5 3.229945 1_555
Al0_6 Pt0_6 2.575092 1_555
Al0_6 Pt2_7 2.575092 1_555
Al0_6 Pt2_3 2.575092 1_555
Al0_6 Pt0_2 2.575092 1_555
Al0_6 Pt1_6 2.575095 1_555
Al0_6 Pt1_2 2.575095 1_555
Al0_6 Ce0_7 3.229941 1_555
Al0_6 Ce0_6 3.229945 1_555
Al0_6 Ce0_5 3.229945 1_565
Al0_7 Pt2_6 2.575092 1_556
Al0_7 Pt2_2 2.575092 1_556
Al0_7 Pt0_7 2.575092 1_555
Al0_7 Pt0_3 2.575092 1_555
Al0_7 Pt1_7 2.575095 1_555
Al0_7 Pt1_3 2.575095 1_555
Al0_7 Ce0_6 3.229941 1_556
Al0_7 Ce0_4 3.229945 1_566
Al0_7 Ce0_7 3.229945 1_555
Al1_0 Pt0_2 2.575092 1_555
Al1_0 Pt2_0 2.575092 1_555
Al1_0 Pt2_4 2.575092 1_455
Al1_0 Pt0_6 2.575092 1_455
Al1_0 Pt1_0 2.575095 1_555
Al1_0 Pt1_4 2.575095 1_455
Al1_0 Ce0_2 3.229941 1_555
Al1_0 Ce0_3 3.229945 1_555
Al1_0 Ce0_0 3.229945 1_555
Al1_1 Pt2_1 2.575092 1_555
Al1_1 Pt0_3 2.575092 1_555
Al1_1 Pt0_7 2.575092 1_455
Al1_1 Pt2_5 2.575092 1_455
Al1_1 Pt1_1 2.575095 1_555
Al1_1 Pt1_5 2.575095 1_455
Al1_1 Ce0_3 3.229941 1_555
Al1_1 Ce0_1 3.229945 1_555
Al1_1 Ce0_2 3.229945 1_556
Al1_2 Pt2_2 2.575092 1_555
Al1_2 Pt0_0 2.575092 1_565
Al1_2 Pt2_6 2.575092 1_455
Al1_2 Pt0_4 2.575092 1_465
Al1_2 Pt1_2 2.575095 1_555
Al1_2 Pt1_6 2.575095 1_455
Al1_2 Ce0_0 3.229941 1_565
Al1_2 Ce0_2 3.229945 1_555
Al1_2 Ce0_1 3.229945 1_565
Al1_3 Pt0_1 2.575092 1_565
Al1_3 Pt0_5 2.575092 1_465
Al1_3 Pt2_3 2.575092 1_555
Al1_3 Pt2_7 2.575092 1_455
Al1_3 Pt1_3 2.575095 1_555
Al1_3 Pt1_7 2.575095 1_455
Al1_3 Ce0_1 3.229941 1_565
Al1_3 Ce0_0 3.229945 1_566
Al1_3 Ce0_3 3.229945 1_555
Al1_4 Pt2_4 2.575092 1_555
Al1_4 Pt0_6 2.575092 1_555
Al1_4 Pt0_2 2.575092 1_555
Al1_4 Pt2_0 2.575092 1_555
Al1_4 Pt1_4 2.575095 1_555
Al1_4 Pt1_0 2.575095 1_555
Al1_4 Ce0_6 3.229941 1_555
Al1_4 Ce0_7 3.229945 1_555
Al1_4 Ce0_4 3.229945 1_555
Al1_5 Pt2_5 2.575092 1_555
Al1_5 Pt0_7 2.575092 1_555
Al1_5 Pt2_1 2.575092 1_555
Al1_5 Pt0_3 2.575092 1_555
Al1_5 Pt1_5 2.575095 1_555
Al1_5 Pt1_1 2.575095 1_555
Al1_5 Ce0_7 3.229941 1_555
Al1_5 Ce0_5 3.229945 1_555
Al1_5 Ce0_6 3.229945 1_556
Al1_6 Pt2_6 2.575092 1_555
Al1_6 Pt2_2 2.575092 1_555
Al1_6 Pt0_4 2.575092 1_565
Al1_6 Pt0_0 2.575092 1_565
Al1_6 Pt1_6 2.575095 1_555
Al1_6 Pt1_2 2.575095 1_555
Al1_6 Ce0_4 3.229941 1_565
Al1_6 Ce0_6 3.229945 1_555
Al1_6 Ce0_5 3.229945 1_565
Al1_7 Pt0_5 2.575092 1_565
Al1_7 Pt0_1 2.575092 1_565
Al1_7 Pt2_7 2.575092 1_555
Al1_7 Pt2_3 2.575092 1_555
Al1_7 Pt1_7 2.575095 1_555
Al1_7 Pt1_3 2.575095 1_555
Al1_7 Ce0_5 3.229941 1_565
Al1_7 Ce0_4 3.229945 1_566
Al1_7 Ce0_7 3.229945 1_555
Pt0_0 Pt2_2 2.797213 1_545
Pt0_0 Pt2_1 2.797213 1_555
Pt0_0 Pt1_0 2.797213 1_555
Pt0_0 Pt1_2 2.797213 1_545
Pt0_1 Pt2_0 2.797213 1_556
Pt0_1 Pt2_3 2.797213 1_545
Pt0_1 Pt1_1 2.797213 1_555
Pt0_1 Pt1_3 2.797213 1_545
Pt0_2 Pt2_3 2.797213 1_555
Pt0_2 Pt2_0 2.797213 1_555
Pt0_2 Pt1_0 2.797213 1_555
Pt0_2 Pt1_2 2.797213 1_555
Pt0_3 Pt2_1 2.797213 1_555
Pt0_3 Pt2_2 2.797213 1_556
Pt0_3 Pt1_1 2.797213 1_555
Pt0_3 Pt1_3 2.797213 1_555
Pt0_4 Pt2_6 2.797213 1_545
Pt0_4 Pt2_5 2.797213 1_555
Pt0_4 Pt1_4 2.797213 1_555
Pt0_4 Pt1_6 2.797213 1_545
Pt0_5 Pt2_4 2.797213 1_556
Pt0_5 Pt2_7 2.797213 1_545
Pt0_5 Pt1_5 2.797213 1_555
Pt0_5 Pt1_7 2.797213 1_545
Pt0_6 Pt2_7 2.797213 1_555
Pt0_6 Pt2_4 2.797213 1_555
Pt0_6 Pt1_4 2.797213 1_555
Pt0_6 Pt1_6 2.797213 1_555
Pt0_7 Pt2_5 2.797213 1_555
Pt0_7 Pt2_6 2.797213 1_556
Pt0_7 Pt1_5 2.797213 1_555
Pt0_7 Pt1_7 2.797213 1_555
Pt1_0 Pt2_1 2.797213 1_555
Pt1_0 Pt2_0 2.797213 1_555
Pt1_1 Pt2_1 2.797213 1_555
Pt1_1 Pt2_0 2.797213 1_556
Pt1_2 Pt2_3 2.797213 1_555
Pt1_2 Pt2_2 2.797213 1_555
Pt1_3 Pt2_2 2.797213 1_556
Pt1_3 Pt2_3 2.797213 1_555
Pt1_4 Pt2_4 2.797213 1_555
Pt1_4 Pt2_5 2.797213 1_555
Pt1_5 Pt2_5 2.797213 1_555
Pt1_5 Pt2_4 2.797213 1_556
Pt1_6 Pt2_7 2.797213 1_555
Pt1_6 Pt2_6 2.797213 1_555
Pt1_7 Pt2_6 2.797213 1_556
Pt1_7 Pt2_7 2.797213 1_555
