# generated using pymatgen
data_Li3MnV(PO4)3
_symmetry_space_group_name_H-M   'P 1'
_cell_length_a   9.72486600
_cell_length_b   9.82232128
_cell_length_c   9.84587474
_cell_angle_alpha   84.67539544
_cell_angle_beta   86.24314777
_cell_angle_gamma   87.32484590
_symmetry_Int_Tables_number   1
_chemical_formula_structural   Li3MnV(PO4)3
_chemical_formula_sum   'Li12 Mn4 V4 P12 O48'
_cell_volume   933.63465783
_cell_formula_units_Z   4
loop_
 _symmetry_equiv_pos_site_id
 _symmetry_equiv_pos_as_xyz
  1  'x, y, z'
loop_
 _atom_site_type_symbol
 _atom_site_label
 _atom_site_symmetry_multiplicity
 _atom_site_fract_x
 _atom_site_fract_y
 _atom_site_fract_z
 _atom_site_occupancy
  Li  Li0  1  0.23400000  0.50675100  0.98684500  1
  Li  Li1  1  0.39396100  0.25873200  0.99798300  1
  Li  Li2  1  0.47835000  0.55570200  0.78520500  1
  Li  Li3  1  0.17985000  0.72969700  0.76061800  1
  Li  Li4  1  0.60628100  0.00115400  0.74340700  1
  Li  Li5  1  0.79835600  0.74376100  0.62957500  1
  Li  Li6  1  0.76244800  0.01177300  0.49535900  1
  Li  Li7  1  0.52635700  0.21492400  0.44620500  1
  Li  Li8  1  0.96223300  0.93534400  0.28849700  1
  Li  Li9  1  0.81888900  0.24086900  0.26825300  1
  Li  Li10  1  0.20099700  0.37706000  0.25021400  1
  Li  Li11  1  0.03524000  0.70699300  0.06572400  1
  Mn  Mn0  1  0.00071300  0.24286100  0.75657200  1
  Mn  Mn1  1  0.50390500  0.53280100  0.46829800  1
  Mn  Mn2  1  0.49727200  0.75728600  0.24891000  1
  Mn  Mn3  1  0.72063100  0.73853200  0.03267300  1
  V  V0  1  0.78495700  0.25141200  0.97094300  1
  V  V1  1  0.21646700  0.02844100  0.74893000  1
  V  V2  1  0.00204300  0.46461500  0.53280500  1
  V  V3  1  0.27983700  0.96795700  0.25423500  1
  P  P0  1  0.40418300  0.82150900  0.94962000  1
  P  P1  1  0.90058600  0.94407300  0.82719800  1
  P  P2  1  0.92710600  0.55361500  0.83903200  1
  P  P3  1  0.30378000  0.33902400  0.68135200  1
  P  P4  1  0.69805100  0.31725200  0.66430900  1
  P  P5  1  0.42790900  0.83659500  0.55841900  1
  P  P6  1  0.07294500  0.15584800  0.44650600  1
  P  P7  1  0.80309100  0.67945400  0.34668100  1
  P  P8  1  0.19681200  0.65456700  0.31492100  1
  P  P9  1  0.57315900  0.44316200  0.16282300  1
  P  P10  1  0.59433600  0.05302100  0.18331200  1
  P  P11  1  0.09657800  0.17443300  0.05442600  1
  O  O0  1  0.86080000  0.87145100  0.97093000  1
  O  O1  1  0.56277400  0.81863100  0.91768900  1
  O  O2  1  0.78775900  0.62004900  0.88442900  1
  O  O3  1  0.34579800  0.96056500  0.88608400  1
  O  O4  1  0.33670500  0.69736900  0.90292200  1
  O  O5  1  0.92098300  0.39513600  0.88080000  1
  O  O6  1  0.05513900  0.60545900  0.89928200  1
  O  O7  1  0.12244200  0.16398200  0.89298500  1
  O  O8  1  0.87594900  0.10472300  0.83922700  1
  O  O9  1  0.66486100  0.30425400  0.82240400  1
  O  O10  1  0.05662400  0.90683600  0.79996600  1
  O  O11  1  0.35061900  0.40195800  0.80610800  1
  O  O12  1  0.81227700  0.91228900  0.71371000  1
  O  O13  1  0.93902600  0.58653400  0.68037700  1
  O  O14  1  0.33426500  0.18204200  0.68902300  1
  O  O15  1  0.14118300  0.37169500  0.67491700  1
  O  O16  1  0.28871800  0.87603900  0.63372500  1
  O  O17  1  0.55340900  0.90431300  0.59962800  1
  O  O18  1  0.86286100  0.32141300  0.63045900  1
  O  O19  1  0.63696400  0.45801100  0.61435000  1
  O  O20  1  0.44255400  0.67486300  0.59134300  1
  O  O21  1  0.65046900  0.19309500  0.59977000  1
  O  O22  1  0.08052100  0.11702400  0.60421900  1
  O  O23  1  0.37095800  0.39247000  0.54057200  1
  O  O24  1  0.84274100  0.80456000  0.41539100  1
  O  O25  1  0.13926400  0.59330900  0.45462000  1
  O  O26  1  0.86312300  0.54236100  0.40719800  1
  O  O27  1  0.41272500  0.87634400  0.40107500  1
  O  O28  1  0.63887100  0.66935400  0.37369600  1
  O  O29  1  0.94236800  0.09934800  0.39600400  1
  O  O30  1  0.07114000  0.31441900  0.41168200  1
  O  O31  1  0.20930600  0.09933200  0.38007800  1
  O  O32  1  0.35973400  0.63113700  0.32246000  1
  O  O33  1  0.15346000  0.81020700  0.29704800  1
  O  O34  1  0.55758000  0.41020000  0.32373300  1
  O  O35  1  0.65812900  0.10625300  0.30531100  1
  O  O36  1  0.84409800  0.69429100  0.18961400  1
  O  O37  1  0.62606500  0.89282400  0.18351600  1
  O  O38  1  0.15563900  0.58196800  0.19317100  1
  O  O39  1  0.43614100  0.08632400  0.18112000  1
  O  O40  1  0.58815200  0.60358800  0.12305800  1
  O  O41  1  0.37068800  0.83008700  0.11010500  1
  O  O42  1  0.71171400  0.37024200  0.12022600  1
  O  O43  1  0.94012300  0.20385100  0.09361900  1
  O  O44  1  0.44732100  0.40202700  0.09684900  1
  O  O45  1  0.13147800  0.03199600  0.12429300  1
  O  O46  1  0.18745700  0.28822100  0.08569000  1
  O  O47  1  0.65770300  0.11113800  0.04287600  1
loop_
_geom_bond_atom_site_label_1
_geom_bond_atom_site_label_2
_geom_bond_distance
_geom_bond_site_symmetry_2
Li0 O6 2.143071 1_555
Li0 O4 2.228268 1_555
Li0 O38 2.297067 1_556
Li0 O46 2.324783 1_556
Li0 O11 2.340696 1_555
Li0 O44 2.534415 1_556
Li1 O44 1.893808 1_556
Li1 O46 2.151150 1_556
Li1 O11 2.298152 1_555
Li1 O39 2.398481 1_556
Li2 O11 1.987391 1_555
Li2 O20 2.183759 1_555
Li2 O4 2.255714 1_555
Li2 O19 2.439525 1_555
Li3 O16 2.093661 1_555
Li3 O6 2.106167 1_555
Li3 O10 2.117331 1_555
Li3 O4 2.131442 1_555
Li4 O17 1.887889 1_545
Li4 O12 2.160534 1_545
Li4 O21 2.289155 1_555
Li4 O1 2.396322 1_545
Li5 O12 1.932562 1_555
Li5 O13 2.062927 1_555
Li5 O24 2.158969 1_555
Li6 O29 2.125638 1_555
Li6 O35 2.286993 1_555
Li6 O21 2.329535 1_555
Li6 O24 2.332517 1_545
Li6 O12 2.348186 1_545
Li6 O17 2.454857 1_545
Li7 O21 1.985866 1_555
Li7 O35 2.149435 1_555
Li7 O34 2.191425 1_555
Li7 O23 2.461514 1_555
Li8 O29 2.003338 1_565
Li8 O24 2.052491 1_555
Li8 O33 2.182689 1_655
Li8 O45 2.395059 1_665
Li9 O43 2.070989 1_555
Li9 O35 2.086683 1_555
Li9 O42 2.134707 1_555
Li9 O29 2.161935 1_555
Li10 O46 1.924531 1_555
Li10 O30 2.031914 1_555
Li10 O38 2.073801 1_555
Li11 O6 1.990318 1_554
Li11 O38 2.055700 1_555
Li11 O36 2.157548 1_455
Li11 O0 2.455637 1_454
Mn0 O7 1.932665 1_555
Mn0 O8 1.948015 1_455
Mn0 O18 1.969282 1_455
Mn0 O15 1.985558 1_555
Mn0 O5 2.107450 1_455
Mn0 O22 2.117129 1_555
Mn1 O34 1.977546 1_555
Mn1 O20 1.977893 1_555
Mn1 O23 1.985349 1_555
Mn1 O28 2.039990 1_555
Mn1 O19 2.059360 1_555
Mn1 O32 2.200110 1_555
Mn2 O37 1.909591 1_555
Mn2 O32 1.926129 1_555
Mn2 O41 1.962497 1_555
Mn2 O28 2.016297 1_555
Mn2 O27 2.088581 1_555
Mn2 O40 2.162119 1_555
Mn3 O0 1.960209 1_554
Mn3 O40 1.999717 1_555
Mn3 O2 2.007593 1_554
Mn3 O36 2.021887 1_555
Mn3 O1 2.051104 1_554
Mn3 O37 2.336004 1_555
O0 P1 1.558165 1_555
O1 P0 1.553156 1_555
O2 P2 1.534334 1_555
O3 P0 1.547528 1_555
O3 V1 1.956311 1_565
O4 P0 1.532023 1_555
O5 P2 1.575564 1_555
O5 V0 2.078086 1_555
O6 P2 1.540630 1_455
O7 P11 1.604955 1_556
O7 V1 2.164972 1_555
O8 P1 1.599078 1_545
O8 V0 2.149010 1_555
O9 P4 1.563507 1_555
O9 V0 1.949022 1_555
O10 P1 1.556082 1_455
O10 V1 2.013722 1_565
O11 P3 1.529356 1_555
O12 P1 1.516268 1_555
O13 P2 1.563381 1_555
O13 V2 2.014576 1_655
O14 P3 1.552348 1_555
O14 V1 1.960636 1_555
O15 P3 1.602899 1_555
O15 V2 2.125453 1_555
O16 P5 1.550795 1_555
O16 V1 2.033141 1_565
O17 P5 1.512400 1_555
O18 P4 1.617145 1_555
O18 V2 2.119227 1_655
O19 P4 1.530294 1_555
O20 P5 1.593211 1_555
O21 P4 1.529752 1_555
O22 P6 1.569896 1_555
O22 V1 2.108162 1_555
O23 P3 1.549826 1_555
O24 P7 1.532670 1_555
O25 P8 1.531041 1_555
O25 V2 1.952816 1_555
O26 P7 1.527219 1_555
O26 V2 1.971070 1_655
O27 P5 1.576884 1_555
O27 V3 2.113031 1_555
O28 P7 1.607881 1_555
O29 P6 1.538659 1_655
O30 P6 1.562980 1_555
O30 V2 2.044296 1_555
O31 P6 1.542549 1_555
O31 V3 1.942569 1_545
O32 P8 1.595927 1_555
O33 P8 1.563778 1_555
O33 V3 2.019316 1_555
O34 P9 1.586098 1_555
O35 P10 1.531535 1_555
O36 P7 1.566715 1_555
O37 P10 1.589122 1_565
O38 P8 1.534271 1_555
O39 P10 1.558937 1_555
O39 V3 2.011641 1_545
O40 P9 1.599068 1_555
O41 P0 1.601457 1_554
O41 V3 2.170011 1_555
O42 P9 1.547927 1_555
O42 V0 2.033136 1_554
O43 P11 1.565277 1_655
O43 V0 2.005604 1_554
O44 P9 1.510567 1_555
O45 P11 1.534087 1_555
O45 V3 2.030249 1_545
O46 P11 1.522074 1_555
O47 P10 1.546672 1_555
O47 V0 1.947988 1_554
