# generated using pymatgen
data_Li4Fe(WO4)3
_symmetry_space_group_name_H-M   'P 1'
_cell_length_a   5.11933652
_cell_length_b   10.19531827
_cell_length_c   10.09545099
_cell_angle_alpha   60.32184485
_cell_angle_beta   90.65949022
_cell_angle_gamma   90.32099601
_symmetry_Int_Tables_number   1
_chemical_formula_structural   Li4Fe(WO4)3
_chemical_formula_sum   'Li8 Fe2 W6 O24'
_cell_volume   457.76375694
_cell_formula_units_Z   2
loop_
 _symmetry_equiv_pos_site_id
 _symmetry_equiv_pos_as_xyz
  1  'x, y, z'
loop_
 _atom_site_type_symbol
 _atom_site_label
 _atom_site_symmetry_multiplicity
 _atom_site_fract_x
 _atom_site_fract_y
 _atom_site_fract_z
 _atom_site_occupancy
  Li  Li0  1  0.99979200  0.71183200  0.14381100  1
  Li  Li1  1  0.00023200  0.71179000  0.64438500  1
  Li  Li2  1  0.00003300  0.83890500  0.83059100  1
  Li  Li3  1  0.99999300  0.84086700  0.32953500  1
  Li  Li4  1  0.49862400  0.33590100  0.33172600  1
  Li  Li5  1  0.50136900  0.33590600  0.83235800  1
  Li  Li6  1  0.50009900  0.19348600  0.15336300  1
  Li  Li7  1  0.49992900  0.19415600  0.65282700  1
  Fe  Fe0  1  0.99755500  0.10088100  0.44990700  1
  Fe  Fe1  1  0.00230600  0.10080700  0.94936600  1
  W  W0  1  0.50000300  0.61449000  0.94274800  1
  W  W1  1  0.00006600  0.39818200  0.05088300  1
  W  W2  1  0.00000600  0.39837000  0.55085300  1
  W  W3  1  0.49998900  0.61445800  0.44276300  1
  W  W4  1  0.50057300  0.93433600  0.03271800  1
  W  W5  1  0.49936200  0.93426000  0.53296900  1
  O  O0  1  0.15661800  0.26656100  0.23509300  1
  O  O1  1  0.15512900  0.26625100  0.73564700  1
  O  O2  1  0.84365800  0.26653900  0.99828900  1
  O  O3  1  0.84484600  0.26627900  0.49817200  1
  O  O4  1  0.18450500  0.58018900  0.05913200  1
  O  O5  1  0.18435100  0.57993200  0.55935300  1
  O  O6  1  0.81547200  0.58014700  0.86067000  1
  O  O7  1  0.81563200  0.57992800  0.36072200  1
  O  O8  1  0.18768000  0.90012800  0.95453700  1
  O  O9  1  0.18558600  0.90077200  0.45480200  1
  O  O10  1  0.81207100  0.90003600  0.64547300  1
  O  O11  1  0.81450400  0.90077500  0.14433300  1
  O  O12  1  0.31781200  0.43408100  0.93117900  1
  O  O13  1  0.31803000  0.43354900  0.43181000  1
  O  O14  1  0.68225200  0.43401000  0.13471700  1
  O  O15  1  0.68201200  0.43360300  0.63467300  1
  O  O16  1  0.34423900  0.07348100  0.07563600  1
  O  O17  1  0.34489700  0.07568900  0.57296700  1
  O  O18  1  0.65603100  0.07338500  0.35097900  1
  O  O19  1  0.65491600  0.07558000  0.85124800  1
  O  O20  1  0.35483700  0.75074200  0.75256800  1
  O  O21  1  0.35595300  0.75060300  0.25262700  1
  O  O22  1  0.64498600  0.75071900  0.99669700  1
  O  O23  1  0.64405100  0.75056500  0.49678700  1
loop_
_geom_bond_atom_site_label_1
_geom_bond_atom_site_label_2
_geom_bond_distance
_geom_bond_site_symmetry_2
Li0 O4 2.143674 1_655
Li0 O7 2.147035 1_555
Li0 O11 2.154340 1_555
Li0 O8 2.156588 1_654
Li0 O22 2.241660 1_554
Li0 O21 2.250183 1_655
Li1 O6 2.143581 1_455
Li1 O5 2.146668 1_555
Li1 O9 2.155327 1_555
Li1 O10 2.157141 1_455
Li1 O20 2.240929 1_555
Li1 O23 2.250249 1_455
Li2 O8 1.901890 1_555
Li2 O10 1.902330 1_455
Li2 O20 2.340912 1_555
Li2 O22 2.341568 1_455
Li3 O11 1.898765 1_555
Li3 O9 1.898867 1_655
Li3 O21 2.351455 1_655
Li3 O23 2.351939 1_555
Li4 O13 1.973492 1_555
Li4 O14 1.975450 1_555
Li4 O0 2.268630 1_555
Li4 O3 2.287646 1_555
Li5 O15 1.973300 1_555
Li5 O12 1.975124 1_555
Li5 O2 2.269355 1_555
Li5 O1 2.287365 1_555
Li6 O18 1.916227 1_555
Li6 O16 1.916940 1_555
Li6 O0 2.232624 1_555
Li6 O2 2.234516 1_554
Li6 O14 2.537653 1_555
Li6 O12 2.539300 1_554
Li7 O17 1.917680 1_555
Li7 O19 1.918265 1_555
Li7 O3 2.237921 1_555
Li7 O1 2.238789 1_555
Li7 O13 2.527355 1_555
Li7 O15 2.529330 1_555
Fe0 O18 2.089117 1_555
Fe0 O17 2.099889 1_655
Fe0 O3 2.128222 1_555
Fe0 O0 2.148746 1_655
Fe0 O10 2.238435 1_545
Fe0 O9 2.238842 1_645
Fe1 O16 2.090256 1_556
Fe1 O19 2.101586 1_455
Fe1 O1 2.128995 1_555
Fe1 O2 2.147005 1_455
Fe1 O11 2.237004 1_446
Fe1 O8 2.237011 1_545
O0 W1 1.846075 1_555
O1 W2 1.847935 1_555
O2 W1 1.846143 1_656
O3 W2 1.847961 1_655
O4 W0 1.934412 1_554
O4 W1 2.115033 1_555
O5 W3 1.935827 1_555
O5 W2 2.111952 1_555
O6 W0 1.934384 1_555
O6 W1 2.114792 1_656
O7 W3 1.935695 1_555
O7 W2 2.112124 1_655
O8 W4 1.883504 1_556
O9 W5 1.884423 1_555
O10 W5 1.883206 1_555
O11 W4 1.884747 1_555
O12 W1 1.959827 1_556
O12 W0 2.111324 1_555
O13 W2 1.958373 1_555
O13 W3 2.112387 1_555
O14 W1 1.959933 1_655
O14 W0 2.111512 1_554
O15 W2 1.958181 1_655
O15 W3 2.112328 1_555
O16 W4 1.862828 1_545
O17 W5 1.861225 1_545
O18 W5 1.863143 1_545
O19 W4 1.860756 1_546
O20 W0 1.872386 1_555
O20 W5 2.208555 1_555
O21 W3 1.869593 1_555
O21 W4 2.211326 1_555
O22 W0 1.872105 1_555
O22 W4 2.208877 1_556
O23 W3 1.869671 1_555
O23 W5 2.211056 1_555
