# generated using pymatgen
data_HoIO
_symmetry_space_group_name_H-M   'P 1'
_cell_length_a   3.90718040
_cell_length_b   3.90718040
_cell_length_c   9.40566742
_cell_angle_alpha   90.00000000
_cell_angle_beta   90.00000000
_cell_angle_gamma   90.00000000
_symmetry_Int_Tables_number   1
_chemical_formula_structural   HoIO
_chemical_formula_sum   'Ho2 I2 O2'
_cell_volume   143.58747074
_cell_formula_units_Z   2
loop_
 _symmetry_equiv_pos_site_id
 _symmetry_equiv_pos_as_xyz
  1  'x, y, z'
loop_
 _atom_site_type_symbol
 _atom_site_label
 _atom_site_symmetry_multiplicity
 _atom_site_fract_x
 _atom_site_fract_y
 _atom_site_fract_z
 _atom_site_occupancy
  Ho  Ho0  1  0.25000000  0.25000000  0.88564110  1
  Ho  Ho1  1  0.75000000  0.75000000  0.11435890  1
  I  I0  1  0.25000000  0.25000000  0.31751111  1
  I  I1  1  0.75000000  0.75000000  0.68248889  1
  O  O0  1  0.25000000  0.75000000  0.00000000  1
  O  O1  1  0.75000000  0.25000000  0.00000000  1
loop_
_geom_bond_atom_site_label_1
_geom_bond_atom_site_label_2
_geom_bond_distance
_geom_bond_site_symmetry_2
Ho0 O1 2.230129 1_556
Ho0 O0 2.230129 1_546
Ho0 O0 2.230129 1_556
Ho0 O1 2.230129 1_456
Ho0 I1 3.359184 1_445
Ho0 I1 3.359184 1_545
Ho0 I1 3.359184 1_555
Ho0 I1 3.359184 1_455
Ho1 O1 2.230129 1_555
Ho1 O1 2.230129 1_565
Ho1 O0 2.230129 1_555
Ho1 O0 2.230129 1_655
Ho1 I0 3.359184 1_565
Ho1 I0 3.359184 1_555
Ho1 I0 3.359184 1_665
Ho1 I0 3.359184 1_655
