# generated using pymatgen
data_LiTi2(PO4)3
_symmetry_space_group_name_H-M   'P 1'
_cell_length_a   8.61742000
_cell_length_b   8.68141377
_cell_length_c   11.99879626
_cell_angle_alpha   89.93975005
_cell_angle_beta   89.51055305
_cell_angle_gamma   89.90974081
_symmetry_Int_Tables_number   1
_chemical_formula_structural   LiTi2(PO4)3
_chemical_formula_sum   'Li4 Ti8 P12 O48'
_cell_volume   897.61226107
_cell_formula_units_Z   4
loop_
 _symmetry_equiv_pos_site_id
 _symmetry_equiv_pos_as_xyz
  1  'x, y, z'
loop_
 _atom_site_type_symbol
 _atom_site_label
 _atom_site_symmetry_multiplicity
 _atom_site_fract_x
 _atom_site_fract_y
 _atom_site_fract_z
 _atom_site_occupancy
  Li  Li0  1  0.29941200  0.72178500  0.68090300  1
  Li  Li1  1  0.20143600  0.22224300  0.82016900  1
  Li  Li2  1  0.07972200  0.29846800  0.23740700  1
  Li  Li3  1  0.06975500  0.91789600  0.29801400  1
  Ti  Ti0  1  0.75234600  0.53111200  0.62087500  1
  Ti  Ti1  1  0.74788600  0.03297800  0.87758700  1
  Ti  Ti2  1  0.74690600  0.46664700  0.11851100  1
  Ti  Ti3  1  0.73998500  0.96775100  0.38303800  1
  Ti  Ti4  1  0.24686100  0.04077000  0.61104400  1
  Ti  Ti5  1  0.25142300  0.54071000  0.89022700  1
  Ti  Ti6  1  0.26333000  0.96579900  0.11143300  1
  Ti  Ti7  1  0.25840100  0.47547000  0.38614100  1
  P  P0  1  0.96407600  0.24935200  0.49209700  1
  P  P1  1  0.89621900  0.38466100  0.85536300  1
  P  P2  1  0.89268700  0.10535900  0.14326100  1
  P  P3  1  0.60314700  0.88345800  0.64625300  1
  P  P4  1  0.61002200  0.60959200  0.35662300  1
  P  P5  1  0.53727100  0.74781300  0.00317900  1
  P  P6  1  0.47040700  0.25336300  0.99401100  1
  P  P7  1  0.39709900  0.39116800  0.64743800  1
  P  P8  1  0.39209500  0.11626900  0.35111700  1
  P  P9  1  0.10349000  0.89244400  0.85451000  1
  P  P10  1  0.10090600  0.61630100  0.14935400  1
  P  P11  1  0.03224000  0.75127700  0.50672400  1
  O  O0  1  0.95121100  0.86519300  0.42808600  1
  O  O1  1  0.92639000  0.89109300  0.85969300  1
  O  O2  1  0.92315500  0.67967200  0.59310600  1
  O  O3  1  0.92753600  0.58356200  0.16326200  1
  O  O4  1  0.89373500  0.37228400  0.56918500  1
  O  O5  1  0.87014700  0.21144500  0.82996600  1
  O  O6  1  0.84741900  0.42287000  0.97507600  1
  O  O7  1  0.84800700  0.99166500  0.23788400  1
  O  O8  1  0.85004600  0.27282500  0.17642700  1
  O  O9  1  0.83537800  0.15545300  0.43736300  1
  O  O10  1  0.82238200  0.05827400  0.03283400  1
  O  O11  1  0.81004000  0.49004600  0.77294500  1
  O  O12  1  0.69094300  0.99071900  0.72620900  1
  O  O13  1  0.67546300  0.55969800  0.46931300  1
  O  O14  1  0.66441500  0.65850400  0.06307100  1
  O  O15  1  0.66303200  0.77394500  0.32764700  1
  O  O16  1  0.65186200  0.92231700  0.52567900  1
  O  O17  1  0.66132700  0.49587500  0.26501700  1
  O  O18  1  0.63022000  0.71104700  0.67120700  1
  O  O19  1  0.60759600  0.87137400  0.92721800  1
  O  O20  1  0.57485200  0.17812000  0.90575300  1
  O  O21  1  0.57418000  0.38911500  0.64206300  1
  O  O22  1  0.56520100  0.08273400  0.33172700  1
  O  O23  1  0.55871400  0.36376700  0.06940900  1
  O  O24  1  0.43886400  0.63762300  0.93026200  1
  O  O25  1  0.42584700  0.91084100  0.66124300  1
  O  O26  1  0.42835700  0.60802200  0.36089500  1
  O  O27  1  0.42624600  0.82106800  0.09143600  1
  O  O28  1  0.39186200  0.13013200  0.07052500  1
  O  O29  1  0.35862300  0.28704900  0.32504600  1
  O  O30  1  0.33827900  0.51222300  0.73296100  1
  O  O31  1  0.34860600  0.08114100  0.47467100  1
  O  O32  1  0.33226700  0.23111300  0.68202000  1
  O  O33  1  0.33425600  0.33500400  0.93259600  1
  O  O34  1  0.32631000  0.43648500  0.53345500  1
  O  O35  1  0.29258900  0.00810300  0.27751500  1
  O  O36  1  0.18772400  0.50102900  0.22584000  1
  O  O37  1  0.17452900  0.93827500  0.96829600  1
  O  O38  1  0.16616400  0.83394800  0.57036300  1
  O  O39  1  0.16757300  0.73209200  0.81968500  1
  O  O40  1  0.16177500  0.01319700  0.76853200  1
  O  O41  1  0.15347600  0.58507300  0.02697900  1
  O  O42  1  0.13456900  0.78593700  0.17795700  1
  O  O43  1  0.11255400  0.62870000  0.43136900  1
  O  O44  1  0.07438700  0.41105900  0.84010900  1
  O  O45  1  0.07053300  0.31843400  0.40039400  1
  O  O46  1  0.07506800  0.10502400  0.14378700  1
  O  O47  1  0.06417200  0.14014800  0.56674900  1
loop_
_geom_bond_atom_site_label_1
_geom_bond_atom_site_label_2
_geom_bond_distance
_geom_bond_site_symmetry_2
Li0 O30 1.952292 1_555
Li0 O25 1.984177 1_555
Li0 O39 2.009820 1_555
Li0 O38 2.011373 1_555
Li1 O40 1.949918 1_555
Li1 O44 1.983317 1_555
Li1 O32 1.998200 1_555
Li1 O33 2.029971 1_555
Li2 O45 1.964408 1_555
Li2 O36 1.995063 1_555
Li2 O46 2.022053 1_555
Li2 O8 2.128071 1_455
Li3 O0 1.913486 1_455
Li3 O42 1.920207 1_555
Li3 O35 2.087444 1_565
Li3 O7 2.144978 1_455
Li3 O46 2.461335 1_565
O0 P11 1.537212 1_655
O0 Ti3 2.099711 1_555
O1 P9 1.526944 1_655
O1 Ti1 1.979514 1_565
O2 P11 1.525850 1_655
O2 Ti0 1.984353 1_555
O3 P10 1.528938 1_655
O3 Ti2 1.939541 1_555
O4 P0 1.533757 1_555
O4 Ti0 1.937528 1_555
O5 P1 1.551719 1_555
O5 Ti1 1.957033 1_555
O6 P1 1.529836 1_555
O6 Ti2 1.957434 1_556
O7 P2 1.550123 1_565
O7 Ti3 1.978686 1_555
O8 P2 1.550510 1_555
O8 Ti2 2.026715 1_555
O9 P0 1.530431 1_555
O9 Ti3 1.942056 1_545
O10 P2 1.518346 1_555
O10 Ti1 1.987968 1_554
O11 P1 1.541104 1_555
O11 Ti0 1.928011 1_555
O12 P3 1.541557 1_555
O12 Ti1 1.921384 1_565
O13 P4 1.531326 1_555
O13 Ti0 1.956226 1_555
O14 P5 1.525656 1_555
O14 Ti2 1.929777 1_555
O15 P4 1.537419 1_555
O15 Ti3 1.930211 1_555
O16 P3 1.540177 1_555
O16 Ti3 1.907583 1_555
O17 P4 1.539753 1_555
O17 Ti2 1.917458 1_555
O18 P3 1.543876 1_555
O18 Ti0 1.974428 1_555
O19 P5 1.529441 1_556
O19 Ti1 1.943122 1_565
O20 P6 1.530213 1_555
O20 Ti1 1.977796 1_555
O21 P7 1.526870 1_555
O21 Ti0 1.984980 1_555
O22 P8 1.535246 1_555
O22 Ti3 1.911517 1_545
O23 P6 1.527114 1_554
O23 Ti2 1.948544 1_555
O24 P5 1.554571 1_556
O24 Ti5 1.888401 1_555
O25 P3 1.554830 1_555
O25 Ti4 2.005757 1_565
O26 P4 1.565965 1_555
O26 Ti7 1.886255 1_555
O27 P5 1.556738 1_555
O27 Ti6 1.896467 1_555
O28 P6 1.560484 1_554
O28 Ti6 1.870098 1_545
O29 P8 1.542210 1_555
O29 Ti7 1.986518 1_555
O30 P7 1.551164 1_555
O30 Ti5 2.039221 1_555
O31 P8 1.556011 1_555
O31 Ti4 1.882643 1_555
O32 P7 1.553158 1_555
O32 Ti4 2.003749 1_555
O33 P6 1.559803 1_555
O33 Ti5 1.989319 1_555
O34 P7 1.552339 1_555
O34 Ti7 1.896621 1_555
O35 P8 1.553773 1_555
O35 Ti6 2.044518 1_545
O36 P10 1.552694 1_555
O36 Ti7 2.034309 1_555
O37 P9 1.553474 1_555
O37 Ti6 1.901653 1_556
O38 P11 1.564891 1_555
O38 Ti4 1.989288 1_565
O39 P9 1.553163 1_555
O39 Ti5 2.000678 1_555
O40 P9 1.551134 1_545
O40 Ti4 2.035112 1_555
O41 P10 1.556877 1_555
O41 Ti5 1.878779 1_554
O42 P10 1.541050 1_555
O42 Ti6 2.072239 1_555
O43 P11 1.554970 1_555
O43 Ti7 1.904805 1_555
O44 P1 1.561901 1_455
O44 Ti5 1.994604 1_555
O45 P0 1.547607 1_455
O45 Ti7 2.123796 1_555
O46 P2 1.571718 1_455
O46 Ti6 2.056113 1_545
O47 P0 1.566522 1_455
O47 Ti4 1.874646 1_555
