# generated using pymatgen
data_BaCuO2
_symmetry_space_group_name_H-M   'P 1'
_cell_length_a   6.06111736
_cell_length_b   11.91043092
_cell_length_c   3.70276219
_cell_angle_alpha   90.00000000
_cell_angle_beta   90.00892813
_cell_angle_gamma   90.00000000
_symmetry_Int_Tables_number   1
_chemical_formula_structural   BaCuO2
_chemical_formula_sum   'Ba4 Cu4 O8'
_cell_volume   267.30432309
_cell_formula_units_Z   4
loop_
 _symmetry_equiv_pos_site_id
 _symmetry_equiv_pos_as_xyz
  1  'x, y, z'
loop_
 _atom_site_type_symbol
 _atom_site_label
 _atom_site_symmetry_multiplicity
 _atom_site_fract_x
 _atom_site_fract_y
 _atom_site_fract_z
 _atom_site_occupancy
  Ba  Ba0  1  0.98144102  0.89298987  0.50104148  1
  Ba  Ba1  1  0.51948811  0.60755502  0.49715126  1
  Ba  Ba2  1  0.48051189  0.10755502  0.50284874  1
  Ba  Ba3  1  0.01855898  0.39298987  0.49895852  1
  Cu  Cu0  1  0.98386004  0.12397089  0.00568033  1
  Cu  Cu1  1  0.51451296  0.37685490  0.00272861  1
  Cu  Cu2  1  0.48548704  0.87685490  0.99727139  1
  Cu  Cu3  1  0.01613996  0.62397089  0.99431967  1
  O  O0  1  0.98936418  0.66479992  0.49429341  1
  O  O1  1  0.01063582  0.16479992  0.50570659  1
  O  O2  1  0.25884900  0.51073824  0.99728642  1
  O  O3  1  0.24158727  0.98946280  0.00158206  1
  O  O4  1  0.51114725  0.83562937  0.49737496  1
  O  O5  1  0.48885275  0.33562937  0.50262504  1
  O  O6  1  0.75841273  0.48946280  0.99841794  1
  O  O7  1  0.74115100  0.01073824  0.00271358  1
loop_
_geom_bond_atom_site_label_1
_geom_bond_atom_site_label_2
_geom_bond_distance
_geom_bond_site_symmetry_2
Ba0 O3 2.688423 1_655
Ba0 O3 2.690840 1_656
Ba0 O0 2.718380 1_555
Ba0 O7 2.737131 1_565
Ba0 O7 2.745800 1_566
Ba0 O4 2.931263 1_555
Ba1 O2 2.692622 1_554
Ba1 O2 2.693648 1_555
Ba1 O4 2.716934 1_555
Ba1 O6 2.736159 1_554
Ba1 O6 2.742194 1_555
Ba1 O0 2.928471 1_555
Ba2 O7 2.692622 1_556
Ba2 O7 2.693648 1_555
Ba2 O5 2.716934 1_555
Ba2 O3 2.736159 1_546
Ba2 O3 2.742194 1_545
Ba2 O1 2.928471 1_555
Ba3 O6 2.688423 1_455
Ba3 O6 2.690840 1_454
Ba3 O1 2.718380 1_555
Ba3 O2 2.737131 1_555
Ba3 O2 2.745800 1_554
Ba3 O5 2.931263 1_555
Cu0 O1 1.920980 1_654
Cu0 O1 1.921118 1_655
Cu0 O7 1.995763 1_555
Cu0 O3 2.237633 1_645
Cu1 O5 1.921345 1_555
Cu1 O5 1.922037 1_554
Cu1 O6 1.996118 1_554
Cu1 O2 2.223614 1_554
Cu2 O4 1.921345 1_555
Cu2 O4 1.922037 1_556
Cu2 O3 1.996118 1_556
Cu2 O7 2.223614 1_566
Cu3 O0 1.920980 1_456
Cu3 O0 1.921118 1_455
Cu3 O2 1.995763 1_555
Cu3 O6 2.237633 1_455
