# generated using pymatgen
data_SrLaMnSbO6
_symmetry_space_group_name_H-M   'P 1'
_cell_length_a   8.14722751
_cell_length_b   8.19226888
_cell_length_c   8.19045558
_cell_angle_alpha   88.71323130
_cell_angle_beta   90.03084715
_cell_angle_gamma   89.96942574
_symmetry_Int_Tables_number   1
_chemical_formula_structural   SrLaMnSbO6
_chemical_formula_sum   'Sr4 La4 Mn4 Sb4 O24'
_cell_volume   546.52802883
_cell_formula_units_Z   4
loop_
 _symmetry_equiv_pos_site_id
 _symmetry_equiv_pos_as_xyz
  1  'x, y, z'
loop_
 _atom_site_type_symbol
 _atom_site_label
 _atom_site_symmetry_multiplicity
 _atom_site_fract_x
 _atom_site_fract_y
 _atom_site_fract_z
 _atom_site_occupancy
  Sr  Sr0  1  0.24931700  0.02356800  0.01464900  1
  Sr  Sr1  1  0.24931700  0.52356700  0.51464700  1
  Sr  Sr2  1  0.74931700  0.48534600  0.97642400  1
  Sr  Sr3  1  0.74931800  0.98534700  0.47642200  1
  La  La0  1  0.24756400  0.51885500  0.03231600  1
  La  La1  1  0.24756400  0.01885500  0.53231200  1
  La  La2  1  0.74757100  0.96769800  0.98116700  1
  La  La3  1  0.74757400  0.46770200  0.48116200  1
  Mn  Mn0  1  0.49953800  0.24644100  0.24768900  1
  Mn  Mn1  1  0.99953200  0.75231900  0.25355400  1
  Mn  Mn2  1  0.49954000  0.74644000  0.74768800  1
  Mn  Mn3  1  0.99953200  0.25232000  0.75355400  1
  Sb  Sb0  1  0.49986100  0.25115900  0.75163900  1
  Sb  Sb1  1  0.49986200  0.75115900  0.25163900  1
  Sb  Sb2  1  0.99986000  0.74836500  0.74883700  1
  Sb  Sb3  1  0.99986000  0.24836500  0.24883700  1
  O  O0  1  0.76003600  0.30510500  0.22748800  1
  O  O1  1  0.76003700  0.80510600  0.72748800  1
  O  O2  1  0.26004200  0.77250800  0.19489400  1
  O  O3  1  0.26004400  0.27250800  0.69489300  1
  O  O4  1  0.04832200  0.48791800  0.28340000  1
  O  O5  1  0.04832300  0.98791700  0.78340100  1
  O  O6  1  0.54828300  0.71660600  0.01204800  1
  O  O7  1  0.54828300  0.21660700  0.51204800  1
  O  O8  1  0.45960200  0.50983200  0.28619000  1
  O  O9  1  0.45960200  0.00983300  0.78619000  1
  O  O10  1  0.95962400  0.71382800  0.99021100  1
  O  O11  1  0.95962300  0.21382800  0.49021100  1
  O  O12  1  0.04783100  0.29628900  0.01044800  1
  O  O13  1  0.04782900  0.79628900  0.51044800  1
  O  O14  1  0.54785800  0.48953000  0.70368500  1
  O  O15  1  0.54785800  0.98953200  0.20368400  1
  O  O16  1  0.44922000  0.30019800  0.98741300  1
  O  O17  1  0.44922000  0.80019900  0.48741400  1
  O  O18  1  0.94919000  0.51260900  0.69976700  1
  O  O19  1  0.94919100  0.01260700  0.19976800  1
  O  O20  1  0.73870600  0.21392500  0.81210600  1
  O  O21  1  0.73870700  0.71392600  0.31210500  1
  O  O22  1  0.23872200  0.68789600  0.78608200  1
  O  O23  1  0.23872200  0.18789700  0.28608100  1
loop_
_geom_bond_atom_site_label_1
_geom_bond_atom_site_label_2
_geom_bond_distance
_geom_bond_site_symmetry_2
La0 O22 2.421693 1_554
La0 O12 2.453998 1_555
La0 O16 2.463807 1_554
La0 O2 2.495170 1_555
La0 O4 2.628502 1_555
La0 O8 2.702325 1_555
La0 O10 2.853752 1_454
La0 O6 2.940625 1_555
La1 O23 2.421678 1_555
La1 O13 2.454006 1_545
La1 O17 2.463794 1_545
La1 O3 2.495184 1_555
La1 O5 2.628530 1_545
La1 O9 2.702350 1_555
La1 O11 2.853755 1_455
La1 O7 2.940628 1_555
La2 O20 2.421939 1_565
La2 O15 2.453275 1_556
La2 O19 2.463002 1_566
La2 O1 2.495184 1_555
La2 O6 2.629095 1_556
La2 O10 2.702739 1_555
La2 O9 2.853797 1_565
La2 O5 2.940709 1_655
La3 O21 2.421901 1_555
La3 O14 2.453324 1_555
La3 O18 2.463002 1_555
La3 O0 2.495171 1_555
La3 O7 2.629132 1_555
La3 O11 2.702744 1_555
La3 O8 2.853790 1_555
La3 O4 2.940663 1_655
Mn0 O15 2.178955 1_545
Mn0 O0 2.181869 1_555
Mn0 O23 2.199830 1_555
Mn0 O16 2.205264 1_554
Mn0 O7 2.209261 1_555
Mn0 O8 2.211605 1_555
Mn1 O13 2.178310 1_655
Mn1 O2 2.181930 1_655
Mn1 O21 2.199902 1_555
Mn1 O19 2.205874 1_565
Mn1 O4 2.210138 1_655
Mn1 O10 2.210715 1_554
Mn2 O14 2.178957 1_555
Mn2 O1 2.181864 1_555
Mn2 O22 2.199848 1_555
Mn2 O17 2.205254 1_555
Mn2 O6 2.209266 1_556
Mn2 O9 2.211625 1_565
Mn3 O12 2.178311 1_656
Mn3 O3 2.181947 1_655
Mn3 O20 2.199914 1_555
Mn3 O18 2.205884 1_555
Mn3 O5 2.210156 1_645
Mn3 O11 2.210718 1_555
O0 Sb3 2.014791 1_555
O0 Sr2 2.505935 1_554
O1 Sb2 2.014785 1_555
O1 Sr3 2.505948 1_555
O2 Sb1 2.014747 1_555
O2 Sr0 2.506110 1_565
O3 Sb0 2.014725 1_555
O3 Sr1 2.506108 1_555
O4 Sb3 2.028060 1_455
O4 Sr1 2.525111 1_555
O5 Sb2 2.028055 1_455
O5 Sr0 2.525114 1_566
O6 Sb1 2.027874 1_555
O6 Sr2 2.525684 1_554
O7 Sb0 2.027874 1_555
O7 Sr3 2.525691 1_545
O8 Sb1 2.017902 1_555
O8 Sr1 2.542011 1_555
O9 Sb0 2.017892 1_555
O9 Sr0 2.542023 1_556
O10 Sb2 2.017813 1_555
O10 Sr2 2.542606 1_555
O11 Sb3 2.017815 1_555
O11 Sr3 2.542590 1_545
O12 Sb3 2.021326 1_455
O12 Sr0 2.771302 1_555
O12 Sr2 2.892619 1_454
O13 Sb2 2.021323 1_455
O13 Sr1 2.771319 1_555
O13 Sr3 2.892604 1_455
O14 Sb0 2.021667 1_555
O14 Sr2 2.770887 1_555
O14 Sr1 2.892548 1_555
O15 Sb1 2.021682 1_555
O15 Sr3 2.770885 1_555
O15 Sr0 2.892534 1_565
O16 Sb0 2.023927 1_555
O16 Sr0 2.796371 1_556
O16 Sr2 2.878301 1_555
O17 Sb1 2.023938 1_555
O17 Sr1 2.796383 1_555
O17 Sr3 2.878308 1_555
O18 Sb2 2.024277 1_555
O18 Sr2 2.796024 1_555
O18 Sr1 2.878212 1_655
O19 Sb3 2.024290 1_555
O19 Sr3 2.796003 1_545
O19 Sr0 2.878201 1_655
O20 Sb0 2.028912 1_555
O20 Sr2 2.626296 1_555
O21 Sb1 2.028909 1_555
O21 Sr3 2.626292 1_555
O22 Sb2 2.029079 1_455
O22 Sr1 2.626175 1_555
O23 Sb3 2.029076 1_455
O23 Sr0 2.626154 1_555
