# generated using pymatgen
data_Li3Nb(NiO2)4
_symmetry_space_group_name_H-M   'P 1'
_cell_length_a   5.96849600
_cell_length_b   5.96790159
_cell_length_c   5.97577415
_cell_angle_alpha   88.89278859
_cell_angle_beta   119.40810863
_cell_angle_gamma   60.71838540
_symmetry_Int_Tables_number   1
_chemical_formula_structural   Li3Nb(NiO2)4
_chemical_formula_sum   'Li3 Nb1 Ni4 O8'
_cell_volume   152.01020397
_cell_formula_units_Z   1
loop_
 _symmetry_equiv_pos_site_id
 _symmetry_equiv_pos_as_xyz
  1  'x, y, z'
loop_
 _atom_site_type_symbol
 _atom_site_label
 _atom_site_symmetry_multiplicity
 _atom_site_fract_x
 _atom_site_fract_y
 _atom_site_fract_z
 _atom_site_occupancy
  Li  Li0  1  0.50000100  0.00000000  0.50000100  1
  Li  Li1  1  0.00000000  0.50000000  0.00000100  1
  Li  Li2  1  0.50000100  0.00000000  0.00000000  1
  Nb  Nb0  1  0.50000100  0.50000100  0.00000100  1
  Ni  Ni0  1  0.99999900  0.49999900  0.49999900  1
  Ni  Ni1  1  0.49999600  0.49999900  0.49999800  1
  Ni  Ni2  1  0.00000000  0.00000200  0.00000000  1
  Ni  Ni3  1  0.00000000  0.00000100  0.49999900  1
  O  O0  1  0.50126300  0.26043200  0.24082300  1
  O  O1  1  0.49873800  0.73956800  0.75917700  1
  O  O2  1  0.01663600  0.75011000  0.26653900  1
  O  O3  1  0.98336300  0.24988900  0.73346200  1
  O  O4  1  0.49992200  0.25854400  0.76139100  1
  O  O5  1  0.01994500  0.73852100  0.76138800  1
  O  O6  1  0.50007900  0.74145600  0.23861000  1
  O  O7  1  0.98005600  0.26147900  0.23861300  1
loop_
_geom_bond_atom_site_label_1
_geom_bond_atom_site_label_2
_geom_bond_distance
_geom_bond_site_symmetry_2
Li0 O1 2.178142 1_545
Li0 O0 2.178147 1_555
Li0 O5 2.216688 1_645
Li0 O7 2.216692 1_455
Li0 O4 2.216701 1_555
Li0 O6 2.216705 1_545
Li1 O7 2.080288 1_455
Li1 O5 2.080296 1_554
Li1 O1 2.138680 1_454
Li1 O0 2.138685 1_555
Li1 O2 2.203695 1_555
Li1 O3 2.203704 1_454
Li2 O4 2.080255 1_554
Li2 O6 2.080263 1_545
Li2 O0 2.138683 1_555
Li2 O1 2.138683 1_544
Li2 O2 2.203589 1_645
Li2 O3 2.203601 1_454
Nb0 O1 2.003612 1_554
Nb0 O0 2.003616 1_555
Nb0 O7 2.046607 1_555
Nb0 O5 2.046611 1_554
Nb0 O6 2.046692 1_555
Nb0 O4 2.046705 1_554
Ni0 O2 2.093967 1_655
Ni0 O3 2.093970 1_555
Ni0 O7 2.132907 1_555
Ni0 O6 2.132911 1_555
Ni0 O4 2.132925 1_655
Ni0 O5 2.132929 1_655
Ni1 O2 2.061985 1_555
Ni1 O3 2.062014 1_555
Ni1 O4 2.104913 1_555
Ni1 O6 2.104937 1_555
Ni1 O0 2.128222 1_555
Ni1 O1 2.128246 1_555
Ni2 O3 2.092555 1_454
Ni2 O2 2.092583 1_545
Ni2 O4 2.133766 1_454
Ni2 O6 2.133771 1_545
Ni2 O7 2.133868 1_455
Ni2 O5 2.133881 1_544
Ni3 O2 2.061994 1_545
Ni3 O3 2.061994 1_455
Ni3 O7 2.104887 1_455
Ni3 O5 2.104903 1_545
Ni3 O0 2.128129 1_455
Ni3 O1 2.128133 1_545
