# generated using pymatgen
data_Li3CoO2F
_symmetry_space_group_name_H-M   'P 1'
_cell_length_a   3.64820100
_cell_length_b   8.54167800
_cell_length_c   9.73432500
_cell_angle_alpha   90.00138582
_cell_angle_beta   89.99985478
_cell_angle_gamma   90.00003583
_symmetry_Int_Tables_number   1
_chemical_formula_structural   Li3CoO2F
_chemical_formula_sum   'Li12 Co4 O8 F4'
_cell_volume   303.33868207
_cell_formula_units_Z   4
loop_
 _symmetry_equiv_pos_site_id
 _symmetry_equiv_pos_as_xyz
  1  'x, y, z'
loop_
 _atom_site_type_symbol
 _atom_site_label
 _atom_site_symmetry_multiplicity
 _atom_site_fract_x
 _atom_site_fract_y
 _atom_site_fract_z
 _atom_site_occupancy
  Li  Li0  1  0.50000000  0.10268100  0.34442500  1
  Li  Li1  1  0.00000000  0.39730300  0.84448100  1
  Li  Li2  1  0.99999900  0.60270000  0.15552300  1
  Li  Li3  1  0.49999900  0.89730400  0.65557100  1
  Li  Li4  1  0.00000200  0.16189200  0.17331900  1
  Li  Li5  1  0.50000300  0.33812400  0.67333600  1
  Li  Li6  1  0.49999900  0.66187900  0.32665900  1
  Li  Li7  1  0.00000200  0.83809900  0.82668600  1
  Li  Li8  1  0.00000000  0.14356100  0.57640400  1
  Li  Li9  1  0.50000000  0.35649500  0.07641500  1
  Li  Li10  1  0.50000000  0.64351000  0.92358800  1
  Li  Li11  1  0.99999900  0.85648400  0.42360700  1
  Co  Co0  1  0.99999700  0.38195900  0.40960200  1
  Co  Co1  1  0.49999900  0.88195800  0.09038100  1
  Co  Co2  1  0.49999800  0.11804100  0.90962100  1
  Co  Co3  1  0.00000200  0.61803000  0.59037000  1
  O  O0  1  0.50000400  0.10122500  0.11738900  1
  O  O1  1  0.00000500  0.39877200  0.61738400  1
  O  O2  1  0.99999900  0.60121400  0.38259800  1
  O  O3  1  0.50000200  0.89877900  0.88261200  1
  O  O4  1  0.99999800  0.17205000  0.37572700  1
  O  O5  1  0.49999900  0.32795400  0.87574100  1
  O  O6  1  0.49999900  0.67205200  0.12425400  1
  O  O7  1  0.00000000  0.82793400  0.62428200  1
  F  F0  1  0.49999900  0.11740200  0.63094500  1
  F  F1  1  0.99999900  0.38259900  0.13093500  1
  F  F2  1  0.00000100  0.61740500  0.86908500  1
  F  F3  1  0.49999900  0.88259100  0.36905900  1
loop_
_geom_bond_atom_site_label_1
_geom_bond_atom_site_label_2
_geom_bond_distance
_geom_bond_site_symmetry_2
Li0 O4 1.941969 1_555
Li0 O4 1.941982 1_455
Li0 O0 2.210077 1_555
Li1 O5 1.941861 1_555
Li1 O5 1.941866 1_455
Li1 O1 2.210672 1_555
Li2 O6 1.941884 1_655
Li2 O6 1.941886 1_555
Li2 O2 2.210459 1_555
Li3 O7 1.941955 1_555
Li3 O7 1.941961 1_655
Li3 O3 2.210126 1_555
Li4 O4 1.972213 1_455
Li4 O0 1.972879 1_455
Li4 O0 1.972890 1_555
Li5 O5 1.972192 1_555
Li5 O1 1.972903 1_555
Li5 O1 1.972913 1_655
Li6 O6 1.972193 1_555
Li6 O2 1.972910 1_455
Li6 O2 1.972913 1_555
Li7 O7 1.972176 1_555
Li7 O3 1.972902 1_455
Li7 O3 1.972904 1_555
Li8 O4 1.968559 1_455
Li8 O1 2.216119 1_555
Li9 O5 1.968574 1_554
Li9 O0 2.216624 1_555
Li10 O6 1.968497 1_556
Li10 O3 2.216619 1_555
Li11 O7 1.968605 1_655
Li11 O2 2.216666 1_555
Co0 O4 1.823038 1_555
Co0 O2 1.891170 1_555
Co0 O1 2.027706 1_655
Co1 O6 1.823025 1_555
Co1 O0 1.891264 1_565
Co1 O3 2.027592 1_554
Co2 O5 1.823096 1_555
Co2 O3 1.891223 1_545
Co2 O0 2.027579 1_556
Co3 O7 1.823061 1_555
Co3 O1 1.891209 1_555
Co3 O2 2.027611 1_455
F0 Li3 1.895233 1_545
F0 Li8 1.912889 1_555
F0 Li8 1.912893 1_655
F0 Li5 1.929957 1_555
F1 Li2 1.895201 1_555
F1 Li9 1.912774 1_555
F1 Li9 1.912778 1_655
F1 Li4 1.929837 1_655
F2 Li1 1.895229 1_555
F2 Li10 1.912729 1_555
F2 Li10 1.912733 1_455
F2 Li7 1.929759 1_555
F3 Li0 1.895175 1_565
F3 Li11 1.912856 1_455
F3 Li11 1.912859 1_555
F3 Li6 1.929892 1_555
