# generated using pymatgen
data_Mn2NbFe3(PO4)6
_symmetry_space_group_name_H-M   'P 1'
_cell_length_a   8.70573296
_cell_length_b   8.70573296
_cell_length_c   8.70573310
_cell_angle_alpha   59.96080869
_cell_angle_beta   59.96080869
_cell_angle_gamma   59.96081340
_symmetry_Int_Tables_number   1
_chemical_formula_structural   Mn2NbFe3(PO4)6
_chemical_formula_sum   'Mn2 Nb1 Fe3 P6 O24'
_cell_volume   466.13840240
_cell_formula_units_Z   1
loop_
 _symmetry_equiv_pos_site_id
 _symmetry_equiv_pos_as_xyz
  1  'x, y, z'
loop_
 _atom_site_type_symbol
 _atom_site_label
 _atom_site_symmetry_multiplicity
 _atom_site_fract_x
 _atom_site_fract_y
 _atom_site_fract_z
 _atom_site_occupancy
  Mn  Mn0  1  0.00474800  0.00474800  0.00474800  1
  Mn  Mn1  1  0.50058500  0.50058500  0.50058500  1
  Nb  Nb0  1  0.85600200  0.85600200  0.85600200  1
  Fe  Fe0  1  0.14698100  0.14698100  0.14698100  1
  Fe  Fe1  1  0.35503500  0.35503500  0.35503500  1
  Fe  Fe2  1  0.64449500  0.64449500  0.64449500  1
  P  P0  1  0.74708900  0.04462500  0.45086000  1
  P  P1  1  0.04462500  0.45086000  0.74708900  1
  P  P2  1  0.45086000  0.74708900  0.04462500  1
  P  P3  1  0.53826800  0.25525800  0.95754800  1
  P  P4  1  0.95754800  0.53826800  0.25525800  1
  P  P5  1  0.25525800  0.95754800  0.53826800  1
  O  O0  1  0.30838500  0.11535400  0.50753800  1
  O  O1  1  0.50753800  0.30838500  0.11535400  1
  O  O2  1  0.91347100  0.06028600  0.26330900  1
  O  O3  1  0.11535400  0.50753800  0.30838500  1
  O  O4  1  0.81245100  0.99419800  0.61621200  1
  O  O5  1  0.58780800  0.23670600  0.44491600  1
  O  O6  1  0.06028600  0.26330900  0.91347100  1
  O  O7  1  0.23670600  0.44491600  0.58780800  1
  O  O8  1  0.38769300  0.18685700  0.99673100  1
  O  O9  1  0.44491600  0.58780800  0.23670600  1
  O  O10  1  0.73656400  0.08846000  0.93664100  1
  O  O11  1  0.99673100  0.38769300  0.18685700  1
  O  O12  1  0.99419800  0.61621200  0.81245100  1
  O  O13  1  0.26330900  0.91347100  0.06028600  1
  O  O14  1  0.55976100  0.41305400  0.76275700  1
  O  O15  1  0.61621200  0.81245100  0.99419800  1
  O  O16  1  0.76275700  0.55976100  0.41305400  1
  O  O17  1  0.93664100  0.73656400  0.08846000  1
  O  O18  1  0.41305400  0.76275700  0.55976100  1
  O  O19  1  0.18685700  0.99673100  0.38769300  1
  O  O20  1  0.88645300  0.49549800  0.68740100  1
  O  O21  1  0.08846000  0.93664100  0.73656400  1
  O  O22  1  0.49549800  0.68740100  0.88645300  1
  O  O23  1  0.68740100  0.88645300  0.49549800  1
loop_
_geom_bond_atom_site_label_1
_geom_bond_atom_site_label_2
_geom_bond_distance
_geom_bond_site_symmetry_2
Mn0 O6 2.201410 1_554
Mn0 O2 2.201410 1_455
Mn0 O13 2.201410 1_545
Mn0 O17 2.362942 1_445
Mn0 O21 2.362942 1_544
Mn0 O10 2.362942 1_454
Mn1 O7 2.255799 1_555
Mn1 O9 2.255799 1_555
Mn1 O5 2.255799 1_555
Mn1 O16 2.257943 1_555
Mn1 O14 2.257943 1_555
Mn1 O18 2.257943 1_555
Nb0 O15 1.941721 1_555
Nb0 O4 1.941721 1_555
Nb0 O12 1.941721 1_555
Nb0 O21 2.062583 1_655
Nb0 O17 2.062583 1_556
Nb0 O10 2.062583 1_565
Fe0 O8 1.937082 1_554
Fe0 O19 1.937082 1_545
Fe0 O11 1.937082 1_455
Fe0 O2 2.106542 1_455
Fe0 O6 2.106542 1_554
Fe0 O13 2.106542 1_545
Fe1 O0 1.953592 1_555
Fe1 O1 1.953592 1_555
Fe1 O3 1.953592 1_555
Fe1 O9 2.114359 1_555
Fe1 O7 2.114359 1_555
Fe1 O5 2.114359 1_555
Fe2 O23 1.956066 1_555
Fe2 O22 1.956066 1_555
Fe2 O20 1.956066 1_555
Fe2 O14 2.077171 1_555
Fe2 O16 2.077172 1_555
Fe2 O18 2.077172 1_555
O0 P5 1.522224 1_545
O1 P3 1.522224 1_554
O2 P0 1.545841 1_555
O3 P4 1.522224 1_455
O4 P0 1.589336 1_565
O5 P0 1.544491 1_555
O6 P1 1.545841 1_555
O7 P1 1.544491 1_555
O8 P3 1.523086 1_555
O9 P2 1.544491 1_555
O10 P3 1.600674 1_555
O11 P4 1.523086 1_555
O12 P1 1.589336 1_655
O13 P2 1.545841 1_555
O14 P3 1.550875 1_555
O15 P2 1.589336 1_556
O16 P4 1.550875 1_555
O17 P4 1.600674 1_555
O18 P5 1.550875 1_555
O19 P5 1.523086 1_555
O20 P1 1.515132 1_655
O21 P5 1.600674 1_555
O22 P2 1.515132 1_556
O23 P0 1.515132 1_565
