# generated using pymatgen
data_Li4Nb5Cr3O16
_symmetry_space_group_name_H-M   'P 1'
_cell_length_a   6.15368252
_cell_length_b   6.15368252
_cell_length_c   10.08991031
_cell_angle_alpha   89.49965717
_cell_angle_beta   89.49965717
_cell_angle_gamma   59.08822709
_symmetry_Int_Tables_number   1
_chemical_formula_structural   Li4Nb5Cr3O16
_chemical_formula_sum   'Li4 Nb5 Cr3 O16'
_cell_volume   327.79499596
_cell_formula_units_Z   1
loop_
 _symmetry_equiv_pos_site_id
 _symmetry_equiv_pos_as_xyz
  1  'x, y, z'
loop_
 _atom_site_type_symbol
 _atom_site_label
 _atom_site_symmetry_multiplicity
 _atom_site_fract_x
 _atom_site_fract_y
 _atom_site_fract_z
 _atom_site_occupancy
  Li  Li0  1  0.67223400  0.67223400  0.90975800  1
  Li  Li1  1  0.00617900  0.00617900  0.98866600  1
  Li  Li2  1  0.99793300  0.99793300  0.49065100  1
  Li  Li3  1  0.33572500  0.33572500  0.39462800  1
  Nb  Nb0  1  0.65479600  0.65479600  0.49210300  1
  Nb  Nb1  1  0.82911900  0.82911900  0.22434300  1
  Nb  Nb2  1  0.33260000  0.33260000  0.99943700  1
  Nb  Nb3  1  0.63009200  0.18533900  0.71565400  1
  Nb  Nb4  1  0.18533900  0.63009200  0.71565400  1
  Cr  Cr0  1  0.83093900  0.33854400  0.21036600  1
  Cr  Cr1  1  0.33854400  0.83093900  0.21036600  1
  Cr  Cr2  1  0.16356900  0.16356900  0.70945100  1
  O  O0  1  0.81651100  0.33363200  0.59025200  1
  O  O1  1  0.52748900  0.52748900  0.35824100  1
  O  O2  1  0.67521100  0.67521100  0.10866200  1
  O  O3  1  0.99931000  0.99931000  0.30581700  1
  O  O4  1  0.99950900  0.99950900  0.80432700  1
  O  O5  1  0.33363200  0.81651100  0.59025200  1
  O  O6  1  0.96881800  0.52857400  0.34092100  1
  O  O7  1  0.52857400  0.96881800  0.34092100  1
  O  O8  1  0.17339900  0.17339900  0.08182000  1
  O  O9  1  0.82975700  0.82975700  0.59170500  1
  O  O10  1  0.49556100  0.04629500  0.84767100  1
  O  O11  1  0.04629500  0.49556100  0.84767100  1
  O  O12  1  0.31840000  0.31840000  0.58806400  1
  O  O13  1  0.66540300  0.15791300  0.09810900  1
  O  O14  1  0.49110600  0.49110600  0.85409900  1
  O  O15  1  0.15791300  0.66540300  0.09810900  1
loop_
_geom_bond_atom_site_label_1
_geom_bond_atom_site_label_2
_geom_bond_distance
_geom_bond_site_symmetry_2
Li0 O2 2.007497 1_556
Li0 O14 2.024442 1_555
Li0 O10 2.070858 1_565
Li0 O11 2.070858 1_655
Li1 O4 1.862051 1_445
Li1 O8 2.030496 1_556
Li1 O13 2.110587 1_456
Li1 O15 2.110587 1_546
Li2 O3 1.864869 1_555
Li2 O5 2.042284 1_655
Li2 O0 2.042284 1_565
Li2 O9 2.060395 1_555
Li3 O12 1.958693 1_555
Li3 O6 2.014192 1_455
Li3 O7 2.014192 1_545
Li3 O1 2.082175 1_555
Nb0 O1 1.928535 1_555
Nb0 O0 1.959410 1_555
Nb0 O5 1.959410 1_555
Nb0 O9 2.134743 1_555
Nb0 O6 2.256417 1_555
Nb0 O7 2.256417 1_555
Nb1 O6 1.972117 1_555
Nb1 O7 1.972117 1_555
Nb1 O3 2.006608 1_555
Nb1 O2 2.028942 1_555
Nb1 O13 2.148039 1_565
Nb1 O15 2.148039 1_655
Nb2 O8 1.888946 1_556
Nb2 O15 2.023843 1_556
Nb2 O13 2.023843 1_556
Nb2 O10 2.158614 1_555
Nb2 O11 2.158614 1_555
Nb2 O14 2.231770 1_555
Nb3 O10 1.969874 1_555
Nb3 O12 2.101859 1_555
Nb3 O14 2.143553 1_555
Nb3 O4 2.150048 1_545
Nb3 O0 2.186263 1_555
Nb3 O9 2.262822 1_545
Nb4 O11 1.969874 1_555
Nb4 O12 2.101859 1_555
Nb4 O14 2.143553 1_555
Nb4 O4 2.150048 1_455
Nb4 O5 2.186263 1_555
Nb4 O9 2.262822 1_455
Cr0 O3 2.029518 1_545
Cr0 O2 2.050301 1_555
Cr0 O13 2.182111 1_555
Cr0 O1 2.194524 1_555
Cr0 O6 2.210978 1_555
Cr0 O8 2.220586 1_655
Cr1 O3 2.029518 1_455
Cr1 O2 2.050301 1_555
Cr1 O15 2.182111 1_555
Cr1 O1 2.194524 1_555
Cr1 O7 2.210978 1_555
Cr1 O8 2.220586 1_565
Cr2 O4 1.992065 1_445
Cr2 O12 2.051247 1_555
Cr2 O0 2.197585 1_455
Cr2 O5 2.197585 1_545
Cr2 O10 2.270885 1_555
Cr2 O11 2.270885 1_555
