# generated using pymatgen
data_SmTlO3
_symmetry_space_group_name_H-M   'P 1'
_cell_length_a   5.70209600
_cell_length_b   6.07196300
_cell_length_c   8.64172200
_cell_angle_alpha   90.00000000
_cell_angle_beta   90.00000000
_cell_angle_gamma   90.00000000
_symmetry_Int_Tables_number   1
_chemical_formula_structural   SmTlO3
_chemical_formula_sum   'Sm4 Tl4 O12'
_cell_volume   299.20161433
_cell_formula_units_Z   4
loop_
 _symmetry_equiv_pos_site_id
 _symmetry_equiv_pos_as_xyz
  1  'x, y, z'
loop_
 _atom_site_type_symbol
 _atom_site_label
 _atom_site_symmetry_multiplicity
 _atom_site_fract_x
 _atom_site_fract_y
 _atom_site_fract_z
 _atom_site_occupancy
  Sm  Sm0  1  0.97599400  0.06911500  0.25000000  1
  Sm  Sm1  1  0.47599400  0.43088500  0.75000000  1
  Sm  Sm2  1  0.52400600  0.56911500  0.25000000  1
  Sm  Sm3  1  0.02400600  0.93088500  0.75000000  1
  Tl  Tl0  1  0.50000000  0.00000000  0.00000000  1
  Tl  Tl1  1  0.50000000  0.00000000  0.50000000  1
  Tl  Tl2  1  0.00000000  0.50000000  0.00000000  1
  Tl  Tl3  1  0.00000000  0.50000000  0.50000000  1
  O  O0  1  0.65439400  0.07755600  0.75000000  1
  O  O1  1  0.18956400  0.18626400  0.58067800  1
  O  O2  1  0.18956400  0.18626400  0.91932200  1
  O  O3  1  0.68956400  0.31373600  0.41932200  1
  O  O4  1  0.68956400  0.31373600  0.08067800  1
  O  O5  1  0.15439400  0.42244400  0.25000000  1
  O  O6  1  0.84560600  0.57755600  0.75000000  1
  O  O7  1  0.31043600  0.68626400  0.91932200  1
  O  O8  1  0.31043600  0.68626400  0.58067800  1
  O  O9  1  0.81043600  0.81373600  0.08067800  1
  O  O10  1  0.81043600  0.81373600  0.41932200  1
  O  O11  1  0.34560600  0.92244400  0.25000000  1
loop_
_geom_bond_atom_site_label_1
_geom_bond_atom_site_label_2
_geom_bond_distance
_geom_bond_site_symmetry_2
O0 Sm3 2.288003 1_645
O0 Sm1 2.374352 1_555
O0 Tl1 2.379973 1_555
O0 Tl0 2.379973 1_556
O1 Tl1 2.213278 1_555
O1 Tl3 2.298577 1_555
O1 Sm3 2.331687 1_545
O1 Sm1 2.648541 1_555
O2 Tl0 2.213278 1_556
O2 Tl2 2.298577 1_556
O2 Sm3 2.331687 1_545
O2 Sm1 2.648541 1_555
O3 Tl3 2.213278 1_655
O3 Tl1 2.298577 1_555
O3 Sm2 2.331687 1_555
O3 Sm0 2.648541 1_555
O4 Tl2 2.213278 1_655
O4 Tl0 2.298577 1_555
O4 Sm2 2.331687 1_555
O4 Sm0 2.648541 1_555
O5 Sm2 2.288003 1_555
O5 Sm0 2.374352 1_455
O5 Tl2 2.379973 1_555
O5 Tl3 2.379973 1_555
O6 Sm1 2.288003 1_555
O6 Sm3 2.374352 1_655
O6 Tl2 2.379973 1_656
O6 Tl3 2.379973 1_655
O7 Tl2 2.213278 1_556
O7 Tl0 2.298577 1_566
O7 Sm1 2.331687 1_555
O7 Sm3 2.648541 1_555
O8 Tl3 2.213278 1_555
O8 Tl1 2.298577 1_565
O8 Sm1 2.331687 1_555
O8 Sm3 2.648541 1_555
O9 Tl0 2.213278 1_565
O9 Tl2 2.298577 1_655
O9 Sm0 2.331687 1_565
O9 Sm2 2.648541 1_555
O10 Tl1 2.213278 1_565
O10 Tl3 2.298577 1_655
O10 Sm0 2.331687 1_565
O10 Sm2 2.648541 1_555
O11 Sm0 2.288003 1_465
O11 Sm2 2.374352 1_555
O11 Tl1 2.379973 1_565
O11 Tl0 2.379973 1_565
