# generated using pymatgen
data_MnVHPbO5
_symmetry_space_group_name_H-M   'P 1'
_cell_length_a   6.17382202
_cell_length_b   7.59906044
_cell_length_c   9.45825956
_cell_angle_alpha   90.00000000
_cell_angle_beta   90.00000000
_cell_angle_gamma   90.00000000
_symmetry_Int_Tables_number   1
_chemical_formula_structural   MnVHPbO5
_chemical_formula_sum   'Mn4 V4 H4 Pb4 O20'
_cell_volume   443.73658038
_cell_formula_units_Z   4
loop_
 _symmetry_equiv_pos_site_id
 _symmetry_equiv_pos_as_xyz
  1  'x, y, z'
loop_
 _atom_site_type_symbol
 _atom_site_label
 _atom_site_symmetry_multiplicity
 _atom_site_fract_x
 _atom_site_fract_y
 _atom_site_fract_z
 _atom_site_occupancy
  Mn  Mn0  1  -0.00000000  0.50000000  0.50000000  1
  Mn  Mn1  1  0.50000000  0.50000000  0.50000000  1
  Mn  Mn2  1  -0.00000000  0.00000000  0.00000000  1
  Mn  Mn3  1  0.50000000  0.00000000  0.00000000  1
  V  V0  1  0.25000000  0.63543175  0.81021784  1
  V  V1  1  0.75000000  0.86456825  0.31021784  1
  V  V2  1  0.25000000  0.13543175  0.68978216  1
  V  V3  1  0.75000000  0.36456825  0.18978216  1
  H  H0  1  0.25000000  0.77171249  0.47754719  1
  H  H1  1  0.75000000  0.72828751  0.97754719  1
  H  H2  1  0.25000000  0.27171249  0.02245281  1
  H  H3  1  0.75000000  0.22828751  0.52245281  1
  Pb  Pb0  1  0.25000000  0.63202734  0.17575560  1
  Pb  Pb1  1  0.75000000  0.86797266  0.67575560  1
  Pb  Pb2  1  0.25000000  0.13202734  0.32424440  1
  Pb  Pb3  1  0.75000000  0.36797266  0.82424440  1
  O  O0  1  0.75000000  0.54243135  0.08452990  1
  O  O1  1  0.01346343  0.62630774  0.70591339  1
  O  O2  1  0.48653657  0.62630774  0.70591339  1
  O  O3  1  0.25000000  0.65810617  0.42728202  1
  O  O4  1  0.75000000  0.68387346  0.42672478  1
  O  O5  1  0.25000000  0.81612654  0.92672478  1
  O  O6  1  0.75000000  0.84189383  0.92728202  1
  O  O7  1  0.51346343  0.87369226  0.20591339  1
  O  O8  1  0.98653657  0.87369226  0.20591339  1
  O  O9  1  0.25000000  0.95756865  0.58452990  1
  O  O10  1  0.75000000  0.04243135  0.41547010  1
  O  O11  1  0.01346343  0.12630774  0.79408661  1
  O  O12  1  0.48653657  0.12630774  0.79408661  1
  O  O13  1  0.25000000  0.15810617  0.07271798  1
  O  O14  1  0.75000000  0.18387346  0.07327522  1
  O  O15  1  0.25000000  0.31612654  0.57327522  1
  O  O16  1  0.75000000  0.34189383  0.57271798  1
  O  O17  1  0.51346343  0.37369226  0.29408661  1
  O  O18  1  0.98653657  0.37369226  0.29408661  1
  O  O19  1  0.25000000  0.45756865  0.91547010  1
loop_
_geom_bond_atom_site_label_1
_geom_bond_atom_site_label_2
_geom_bond_distance
_geom_bond_site_symmetry_2
Mn0 O16 2.073356 1_455
Mn0 O3 2.073356 1_555
Mn0 O1 2.172842 1_555
Mn0 O18 2.172842 1_455
Mn0 O15 2.194295 1_555
Mn0 O4 2.194295 1_455
Mn1 O16 2.073356 1_555
Mn1 O3 2.073356 1_555
Mn1 O2 2.172842 1_555
Mn1 O17 2.172842 1_555
Mn1 O15 2.194295 1_555
Mn1 O4 2.194295 1_555
Mn2 O13 2.073356 1_555
Mn2 O6 2.073356 1_444
Mn2 O11 2.172842 1_554
Mn2 O8 2.172842 1_445
Mn2 O14 2.194295 1_455
Mn2 O5 2.194295 1_544
Mn3 O13 2.073356 1_555
Mn3 O6 2.073356 1_544
Mn3 O12 2.172842 1_554
Mn3 O7 2.172842 1_545
Mn3 O5 2.194295 1_544
Mn3 O14 2.194295 1_555
H0 O3 0.985553 1_555
H1 O6 0.985553 1_555
H2 O13 0.985553 1_555
H3 O16 0.985553 1_555
O0 V3 1.678639 1_555
O0 Pb3 2.796110 1_554
O1 V0 1.763701 1_555
O1 Pb1 2.469732 1_455
O1 Pb3 2.784268 1_455
O2 V0 1.763701 1_555
O2 Pb1 2.469732 1_555
O2 Pb3 2.784268 1_555
O3 Pb0 2.387242 1_555
O4 V1 1.760606 1_555
O4 Pb1 2.739534 1_555
O5 V0 1.760606 1_555
O5 Pb0 2.739534 1_556
O6 Pb1 2.387242 1_555
O7 V1 1.763701 1_555
O7 Pb0 2.469732 1_555
O7 Pb2 2.784268 1_565
O8 V1 1.763701 1_555
O8 Pb0 2.469732 1_655
O8 Pb2 2.784268 1_665
O9 V2 1.678639 1_565
O9 Pb2 2.796110 1_565
O10 V1 1.678639 1_545
O10 Pb1 2.796110 1_545
O11 V2 1.763701 1_555
O11 Pb3 2.469732 1_455
O11 Pb1 2.784268 1_445
O12 V2 1.763701 1_555
O12 Pb3 2.469732 1_555
O12 Pb1 2.784268 1_545
O13 Pb2 2.387242 1_555
O14 V3 1.760606 1_555
O14 Pb3 2.739534 1_554
O15 V2 1.760606 1_555
O15 Pb2 2.739534 1_555
O16 Pb3 2.387242 1_555
O17 V3 1.763701 1_555
O17 Pb2 2.469732 1_555
O17 Pb0 2.784268 1_555
O18 V3 1.763701 1_555
O18 Pb2 2.469732 1_655
O18 Pb0 2.784268 1_655
O19 V0 1.678639 1_555
O19 Pb0 2.796110 1_556
