# generated using pymatgen
data_Na3FeO4
_symmetry_space_group_name_H-M   'P 1'
_cell_length_a   7.02791300
_cell_length_b   7.44571300
_cell_length_c   8.21153900
_cell_angle_alpha   90.00000000
_cell_angle_beta   90.00000000
_cell_angle_gamma   90.00000000
_symmetry_Int_Tables_number   1
_chemical_formula_structural   Na3FeO4
_chemical_formula_sum   'Na12 Fe4 O16'
_cell_volume   429.69196088
_cell_formula_units_Z   4
loop_
 _symmetry_equiv_pos_site_id
 _symmetry_equiv_pos_as_xyz
  1  'x, y, z'
loop_
 _atom_site_type_symbol
 _atom_site_label
 _atom_site_symmetry_multiplicity
 _atom_site_fract_x
 _atom_site_fract_y
 _atom_site_fract_z
 _atom_site_occupancy
  Na  Na0  1  0.04337600  0.27011100  0.03694100  1
  Na  Na1  1  0.04337600  0.27011100  0.46305900  1
  Na  Na2  1  0.17181900  0.04855000  0.75000000  1
  Na  Na3  1  0.32818100  0.54855000  0.25000000  1
  Na  Na4  1  0.45662400  0.77011100  0.53694100  1
  Na  Na5  1  0.45662400  0.77011100  0.96305900  1
  Na  Na6  1  0.54337600  0.22988900  0.03694100  1
  Na  Na7  1  0.54337600  0.22988900  0.46305900  1
  Na  Na8  1  0.67181900  0.45145000  0.75000000  1
  Na  Na9  1  0.82818100  0.95145000  0.25000000  1
  Na  Na10  1  0.95662400  0.72988900  0.53694100  1
  Na  Na11  1  0.95662400  0.72988900  0.96305900  1
  Fe  Fe0  1  0.21669100  0.50321600  0.75000000  1
  Fe  Fe1  1  0.28330900  0.00321600  0.25000000  1
  Fe  Fe2  1  0.71669100  0.99678400  0.75000000  1
  Fe  Fe3  1  0.78330900  0.49678400  0.25000000  1
  O  O0  1  0.00009800  0.38781400  0.75000000  1
  O  O1  1  0.17959800  0.95476300  0.06192500  1
  O  O2  1  0.17959800  0.95476300  0.43807500  1
  O  O3  1  0.19857300  0.73911900  0.75000000  1
  O  O4  1  0.30142700  0.23911900  0.25000000  1
  O  O5  1  0.32040200  0.45476300  0.56192500  1
  O  O6  1  0.32040200  0.45476300  0.93807500  1
  O  O7  1  0.49990200  0.88781400  0.25000000  1
  O  O8  1  0.50009800  0.11218600  0.75000000  1
  O  O9  1  0.67959800  0.54523700  0.06192500  1
  O  O10  1  0.67959800  0.54523700  0.43807500  1
  O  O11  1  0.69857300  0.76088100  0.75000000  1
  O  O12  1  0.80142700  0.26088100  0.25000000  1
  O  O13  1  0.82040200  0.04523700  0.56192500  1
  O  O14  1  0.82040200  0.04523700  0.93807500  1
  O  O15  1  0.99990200  0.61218600  0.25000000  1
loop_
_geom_bond_atom_site_label_1
_geom_bond_atom_site_label_2
_geom_bond_distance
_geom_bond_site_symmetry_2
Na0 O14 2.432724 1_454
Na0 O12 2.440690 1_455
Na0 O6 2.517900 1_554
Na0 O4 2.530444 1_555
Na0 O0 2.532264 1_554
Na0 O1 2.543950 1_545
Na1 O13 2.432724 1_455
Na1 O12 2.440690 1_455
Na1 O5 2.517900 1_555
Na1 O4 2.530444 1_555
Na1 O0 2.532264 1_555
Na1 O2 2.543950 1_545
Na2 O3 2.311594 1_545
Na2 O8 2.355268 1_555
Na2 O2 2.655432 1_545
Na2 O1 2.655432 1_546
Na2 O0 2.799545 1_555
Na2 O13 2.912952 1_455
Na2 O14 2.912952 1_455
Na3 O4 2.311594 1_555
Na3 O15 2.355268 1_455
Na3 O5 2.655432 1_555
Na3 O6 2.655432 1_554
Na3 O7 2.799545 1_555
Na3 O9 2.912952 1_555
Na3 O10 2.912952 1_555
Na4 O10 2.432724 1_555
Na4 O11 2.440690 1_555
Na4 O2 2.517900 1_555
Na4 O3 2.530444 1_555
Na4 O7 2.532264 1_555
Na4 O5 2.543950 1_555
Na5 O9 2.432724 1_556
Na5 O11 2.440690 1_555
Na5 O1 2.517900 1_556
Na5 O3 2.530444 1_555
Na5 O7 2.532264 1_556
Na5 O6 2.543950 1_555
Na6 O6 2.432724 1_554
Na6 O4 2.440690 1_555
Na6 O14 2.517900 1_554
Na6 O12 2.530444 1_555
Na6 O8 2.532264 1_554
Na6 O9 2.543950 1_555
Na7 O5 2.432724 1_555
Na7 O4 2.440690 1_555
Na7 O13 2.517900 1_555
Na7 O12 2.530444 1_555
Na7 O8 2.532264 1_555
Na7 O10 2.543950 1_555
Na8 O11 2.311594 1_555
Na8 O0 2.355268 1_655
Na8 O9 2.655432 1_556
Na8 O10 2.655432 1_555
Na8 O8 2.799545 1_555
Na8 O5 2.912952 1_555
Na8 O6 2.912952 1_555
Na9 O12 2.311594 1_565
Na9 O7 2.355268 1_555
Na9 O13 2.655432 1_565
Na9 O14 2.655432 1_564
Na9 O15 2.799545 1_555
Na9 O1 2.912952 1_655
Na9 O2 2.912952 1_655
Na10 O2 2.432724 1_655
Na10 O3 2.440690 1_655
Na10 O10 2.517900 1_555
Na10 O11 2.530444 1_555
Na10 O15 2.532264 1_555
Na10 O13 2.543950 1_565
Na11 O1 2.432724 1_656
Na11 O3 2.440690 1_655
Na11 O9 2.517900 1_556
Na11 O11 2.530444 1_555
Na11 O15 2.532264 1_556
Na11 O14 2.543950 1_565
Fe0 O6 1.745432 1_555
Fe0 O5 1.745432 1_555
Fe0 O0 1.747968 1_555
Fe0 O3 1.761075 1_555
Fe1 O1 1.745432 1_545
Fe1 O2 1.745432 1_545
Fe1 O7 1.747968 1_545
Fe1 O4 1.761075 1_555
Fe2 O13 1.745432 1_565
Fe2 O14 1.745432 1_565
Fe2 O8 1.747968 1_565
Fe2 O11 1.761075 1_555
Fe3 O9 1.745432 1_555
Fe3 O10 1.745432 1_555
Fe3 O15 1.747968 1_555
Fe3 O12 1.761075 1_555
