# generated using pymatgen
data_Er(PO2)3
_symmetry_space_group_name_H-M   'P 1'
_cell_length_a   7.80292422
_cell_length_b   7.80292422
_cell_length_c   11.98016005
_cell_angle_alpha   64.67361576
_cell_angle_beta   64.67361576
_cell_angle_gamma   43.05117155
_symmetry_Int_Tables_number   1
_chemical_formula_structural   Er(PO2)3
_chemical_formula_sum   'Er2 P6 O12'
_cell_volume   442.16915581
_cell_formula_units_Z   2
loop_
 _symmetry_equiv_pos_site_id
 _symmetry_equiv_pos_as_xyz
  1  'x, y, z'
loop_
 _atom_site_type_symbol
 _atom_site_label
 _atom_site_symmetry_multiplicity
 _atom_site_fract_x
 _atom_site_fract_y
 _atom_site_fract_z
 _atom_site_occupancy
  Er  Er0  1  0.00000000  0.00000000  0.00000000  1
  Er  Er1  1  0.00000000  0.00000000  0.50000000  1
  P  P0  1  0.59793800  0.59793800  0.77733700  1
  P  P1  1  0.40206200  0.40206200  0.22266300  1
  P  P2  1  0.32264500  0.32264500  0.57375200  1
  P  P3  1  0.67735500  0.67735500  0.42624800  1
  P  P4  1  0.83449800  0.83449800  0.84383300  1
  P  P5  1  0.16550200  0.16550200  0.15616700  1
  O  O0  1  0.35509100  0.79976400  0.85515300  1
  O  O1  1  0.79976400  0.35509100  0.85515300  1
  O  O2  1  0.64490900  0.20023600  0.14484700  1
  O  O3  1  0.20023600  0.64490900  0.14484700  1
  O  O4  1  0.60713200  0.16513300  0.51900900  1
  O  O5  1  0.16513300  0.60713200  0.51900900  1
  O  O6  1  0.39286800  0.83486700  0.48099100  1
  O  O7  1  0.83486700  0.39286800  0.48099100  1
  O  O8  1  0.87035900  0.87035900  0.94535200  1
  O  O9  1  0.12964100  0.12964100  0.05464800  1
  O  O10  1  0.92452300  0.92452300  0.71115400  1
  O  O11  1  0.07547700  0.07547700  0.28884600  1
loop_
_geom_bond_atom_site_label_1
_geom_bond_atom_site_label_2
_geom_bond_distance
_geom_bond_site_symmetry_2
Er0 O1 2.237998 1_454
Er0 O0 2.237998 1_544
Er0 O3 2.237998 1_545
Er0 O2 2.237998 1_455
Er0 O9 2.259192 1_555
Er0 O8 2.259192 1_444
Er1 O5 2.233937 1_545
Er1 O4 2.233937 1_455
Er1 O7 2.233937 1_455
Er1 O6 2.233937 1_545
Er1 O10 2.247347 1_445
Er1 O11 2.247347 1_555
O0 P0 1.524224 1_555
O1 P0 1.524224 1_555
O2 P1 1.524224 1_555
O3 P1 1.524224 1_555
O4 P2 1.524811 1_555
O5 P2 1.524811 1_555
O6 P3 1.524811 1_555
O7 P3 1.524811 1_555
O8 P4 1.527263 1_555
O9 P5 1.527263 1_555
O10 P4 1.524489 1_555
O11 P5 1.524489 1_555
