# generated using pymatgen
data_Li3CrNi3O8
_symmetry_space_group_name_H-M   'P 1'
_cell_length_a   5.83594517
_cell_length_b   5.83594517
_cell_length_c   5.84957653
_cell_angle_alpha   60.50939455
_cell_angle_beta   60.50939455
_cell_angle_gamma   59.17975227
_symmetry_Int_Tables_number   1
_chemical_formula_structural   Li3CrNi3O8
_chemical_formula_sum   'Li3 Cr1 Ni3 O8'
_cell_volume   141.03550310
_cell_formula_units_Z   1
loop_
 _symmetry_equiv_pos_site_id
 _symmetry_equiv_pos_as_xyz
  1  'x, y, z'
loop_
 _atom_site_type_symbol
 _atom_site_label
 _atom_site_symmetry_multiplicity
 _atom_site_fract_x
 _atom_site_fract_y
 _atom_site_fract_z
 _atom_site_occupancy
  Li  Li0  1  0.00000000  0.50000000  0.50000000  1
  Li  Li1  1  0.50000000  0.00000000  0.50000000  1
  Li  Li2  1  0.50000000  0.50000000  0.50000000  1
  Cr  Cr0  1  0.00000000  0.00000000  0.00000000  1
  Ni  Ni0  1  0.50000000  0.50000000  0.00000000  1
  Ni  Ni1  1  0.50000000  0.00000000  0.00000000  1
  Ni  Ni2  1  0.00000000  0.50000000  0.00000000  1
  O  O0  1  0.27500100  0.27500100  0.19930300  1
  O  O1  1  0.26038400  0.73910900  0.22157800  1
  O  O2  1  0.76844100  0.76844100  0.22188300  1
  O  O3  1  0.73910900  0.26038400  0.22157800  1
  O  O4  1  0.26089100  0.73961600  0.77842200  1
  O  O5  1  0.23155900  0.23155900  0.77811700  1
  O  O6  1  0.73961600  0.26089100  0.77842200  1
  O  O7  1  0.72499900  0.72499900  0.80069700  1
loop_
_geom_bond_atom_site_label_1
_geom_bond_atom_site_label_2
_geom_bond_distance
_geom_bond_site_symmetry_2
Li0 O6 2.099393 1_455
Li0 O1 2.099393 1_555
Li0 O2 2.100725 1_455
Li0 O5 2.100725 1_555
Li0 O0 2.174631 1_555
Li0 O7 2.174631 1_455
Li1 O4 2.099393 1_545
Li1 O3 2.099393 1_555
Li1 O2 2.100725 1_545
Li1 O5 2.100725 1_555
Li1 O0 2.174631 1_555
Li1 O7 2.174631 1_545
Li2 O6 2.135514 1_555
Li2 O3 2.135514 1_555
Li2 O4 2.135514 1_555
Li2 O1 2.135514 1_555
Li2 O5 2.247541 1_555
Li2 O2 2.247541 1_555
Cr0 O2 1.937649 1_445
Cr0 O5 1.937649 1_554
Cr0 O4 1.983107 1_544
Cr0 O3 1.983107 1_455
Cr0 O1 1.983107 1_545
Cr0 O6 1.983107 1_454
Ni0 O7 1.886767 1_554
Ni0 O0 1.886767 1_555
Ni0 O3 1.891921 1_555
Ni0 O1 1.891921 1_555
Ni0 O6 1.891921 1_554
Ni0 O4 1.891921 1_554
Ni1 O0 1.958213 1_555
Ni1 O7 1.958213 1_544
Ni1 O2 2.017614 1_545
Ni1 O5 2.017614 1_554
Ni1 O1 2.099476 1_545
Ni1 O6 2.099476 1_554
Ni2 O0 1.958213 1_555
Ni2 O7 1.958213 1_454
Ni2 O2 2.017614 1_455
Ni2 O5 2.017614 1_554
Ni2 O3 2.099476 1_455
Ni2 O4 2.099476 1_554
