# generated using pymatgen
data_Bi2W3(CO)15
_symmetry_space_group_name_H-M   'P 1'
_cell_length_a   7.08458900
_cell_length_b   11.02920690
_cell_length_c   17.56259875
_cell_angle_alpha   87.50489934
_cell_angle_beta   83.00821836
_cell_angle_gamma   73.28452363
_symmetry_Int_Tables_number   1
_chemical_formula_structural   Bi2W3(CO)15
_chemical_formula_sum   'Bi4 W6 C30 O30'
_cell_volume   1304.48305763
_cell_formula_units_Z   2
loop_
 _symmetry_equiv_pos_site_id
 _symmetry_equiv_pos_as_xyz
  1  'x, y, z'
loop_
 _atom_site_type_symbol
 _atom_site_label
 _atom_site_symmetry_multiplicity
 _atom_site_fract_x
 _atom_site_fract_y
 _atom_site_fract_z
 _atom_site_occupancy
  Bi  Bi0  1  0.93572800  0.24451600  0.25721000  1
  Bi  Bi1  1  0.34983600  0.23965400  0.22601100  1
  Bi  Bi2  1  0.06427200  0.75548400  0.74279000  1
  Bi  Bi3  1  0.65016400  0.76034600  0.77398900  1
  W  W0  1  0.94774400  0.51462300  0.69323500  1
  W  W1  1  0.74737000  0.97698300  0.66843700  1
  W  W2  1  0.13288400  0.22247900  0.08304600  1
  W  W3  1  0.05225600  0.48537700  0.30676500  1
  W  W4  1  0.25263000  0.02301700  0.33156300  1
  W  W5  1  0.86711600  0.77752100  0.91695400  1
  C  C0  1  0.97602300  0.03836100  0.39238300  1
  C  C1  1  0.22908600  0.44110200  0.72893100  1
  C  C2  1  0.92828800  0.42418900  0.40965300  1
  C  C3  1  0.12156900  0.21373900  0.96832700  1
  C  C4  1  0.32942400  0.04172200  0.08316700  1
  C  C5  1  0.87843100  0.78626100  0.03167300  1
  C  C6  1  0.37092000  0.29696300  0.04671900  1
  C  C7  1  0.93364300  0.40244200  0.08477200  1
  C  C8  1  0.06635700  0.59755800  0.91522800  1
  C  C9  1  0.67882500  0.55368200  0.64772000  1
  C  C10  1  0.30712600  0.12913500  0.41730900  1
  C  C11  1  0.65910700  0.14086100  0.60740300  1
  C  C12  1  0.02397700  0.96163900  0.60761700  1
  C  C13  1  0.99514400  0.65812300  0.35422300  1
  C  C14  1  0.45072800  0.03020300  0.71389100  1
  C  C15  1  0.34089300  0.85913900  0.39259700  1
  C  C16  1  0.77091400  0.55889800  0.27106900  1
  C  C17  1  0.17870900  0.54655700  0.20394300  1
  C  C18  1  0.32117500  0.44631800  0.35228000  1
  C  C19  1  0.07171200  0.57581100  0.59034700  1
  C  C20  1  0.67057600  0.95827800  0.91683300  1
  C  C21  1  0.19009500  0.91792700  0.24747900  1
  C  C22  1  0.82129100  0.45344300  0.79605700  1
  C  C23  1  0.69287400  0.87086500  0.58269100  1
  C  C24  1  0.80990500  0.08207300  0.75252100  1
  C  C25  1  0.62908000  0.70303700  0.95328100  1
  C  C26  1  0.54927200  0.96979700  0.28610900  1
  C  C27  1  0.90179900  0.14057000  0.09164700  1
  C  C28  1  0.00485600  0.34187700  0.64577700  1
  C  C29  1  0.09820100  0.85943000  0.90835300  1
  O  O0  1  0.33480300  0.18721300  0.46622400  1
  O  O1  1  0.39395600  0.76314200  0.42457200  1
  O  O2  1  0.25329100  0.57710800  0.14663400  1
  O  O3  1  0.61429600  0.60885400  0.25311000  1
  O  O4  1  0.71695200  0.93072100  0.26382200  1
  O  O5  1  0.17181200  0.95939700  0.56978200  1
  O  O6  1  0.50015000  0.66267500  0.97869200  1
  O  O7  1  0.84223300  0.14585300  0.79713300  1
  O  O8  1  0.53405100  0.56720800  0.61899900  1
  O  O9  1  0.17855100  0.49712900  0.91538300  1
  O  O10  1  0.56321800  0.06031300  0.91833400  1
  O  O11  1  0.82144900  0.50287100  0.08461700  1
  O  O12  1  0.22336000  0.90829700  0.91030300  1
  O  O13  1  0.74670900  0.42289200  0.85336600  1
  O  O14  1  0.49985000  0.33732500  0.02130800  1
  O  O15  1  0.77664000  0.09170300  0.08969700  1
  O  O16  1  0.28304800  0.06927900  0.73617800  1
  O  O17  1  0.38570400  0.39114600  0.74689000  1
  O  O18  1  0.11765600  0.21148100  0.90255000  1
  O  O19  1  0.04083200  0.24283100  0.61795400  1
  O  O20  1  0.82818800  0.04060300  0.43021800  1
  O  O21  1  0.66519700  0.81278700  0.53377600  1
  O  O22  1  0.60604400  0.23685800  0.57542800  1
  O  O23  1  0.46594900  0.43279200  0.38100100  1
  O  O24  1  0.88234400  0.78851900  0.09745000  1
  O  O25  1  0.43678200  0.93968700  0.08166600  1
  O  O26  1  0.14115900  0.60500500  0.53155000  1
  O  O27  1  0.85884100  0.39499500  0.46845000  1
  O  O28  1  0.15776700  0.85414700  0.20286700  1
  O  O29  1  0.95916800  0.75716900  0.38204600  1
loop_
_geom_bond_atom_site_label_1
_geom_bond_atom_site_label_2
_geom_bond_distance
_geom_bond_site_symmetry_2
Bi0 Bi1 2.903602 1_655
Bi0 W4 3.161450 1_655
Bi0 W3 3.183359 1_655
Bi0 W2 3.193030 1_655
Bi1 W2 3.138635 1_555
Bi1 W4 3.141610 1_555
Bi1 W3 3.181342 1_555
Bi2 Bi3 2.903602 1_455
Bi2 W1 3.161450 1_455
Bi2 W0 3.183359 1_455
Bi2 W5 3.193030 1_455
Bi3 W5 3.138635 1_555
Bi3 W1 3.141610 1_555
Bi3 W0 3.181342 1_555
C0 O20 1.164556 1_555
C0 W4 2.079708 1_655
C1 O17 1.163017 1_555
C1 W0 2.086526 1_455
C2 O27 1.162134 1_555
C2 W3 2.083353 1_655
C3 O18 1.160435 1_555
C3 W2 2.033634 1_556
C4 O25 1.162311 1_545
C4 W2 2.077692 1_555
C5 O24 1.160435 1_555
C5 W5 2.033634 1_554
C6 O14 1.161477 1_555
C6 W2 2.101226 1_555
C7 O11 1.162970 1_555
C7 W2 2.077540 1_655
C8 O9 1.162970 1_555
C8 W5 2.077540 1_455
C9 O8 1.166217 1_555
C9 W0 2.079167 1_555
C10 O0 1.161007 1_555
C10 W4 2.083658 1_555
C11 O22 1.161181 1_555
C11 W1 2.037455 1_545
C12 O5 1.164556 1_555
C12 W1 2.079708 1_455
C13 O29 1.163213 1_555
C13 W3 2.025119 1_655
C14 O16 1.164962 1_555
C14 W1 2.078757 1_545
C15 O1 1.161181 1_555
C15 W4 2.037455 1_565
C16 O3 1.163017 1_555
C16 W3 2.086526 1_655
C17 O2 1.161539 1_555
C17 W3 2.089657 1_555
C18 O23 1.166217 1_555
C18 W3 2.079167 1_555
C19 O26 1.162134 1_555
C19 W0 2.083353 1_455
C20 O10 1.162311 1_565
C20 W5 2.077692 1_555
C21 O28 1.159963 1_555
C21 W4 2.079455 1_565
C22 O13 1.161539 1_555
C22 W0 2.089657 1_555
C23 O21 1.161007 1_555
C23 W1 2.083658 1_555
C24 O7 1.159963 1_555
C24 W1 2.079455 1_545
C25 O6 1.161477 1_555
C25 W5 2.101226 1_555
C26 O4 1.164962 1_555
C26 W4 2.078757 1_565
C27 O15 1.166961 1_555
C27 W2 2.073125 1_655
C28 O19 1.163213 1_555
C28 W0 2.025119 1_455
C29 O12 1.166961 1_555
C29 W5 2.073125 1_455
