# generated using pymatgen
data_Na2Fe(Si2O5)3
_symmetry_space_group_name_H-M   'P 1'
_cell_length_a   11.32227206
_cell_length_b   11.32227206
_cell_length_c   10.22460700
_cell_angle_alpha   90.00000000
_cell_angle_beta   90.00000000
_cell_angle_gamma   102.00648125
_symmetry_Int_Tables_number   1
_chemical_formula_structural   Na2Fe(Si2O5)3
_chemical_formula_sum   'Na8 Fe4 Si24 O60'
_cell_volume   1282.05821448
_cell_formula_units_Z   4
loop_
 _symmetry_equiv_pos_site_id
 _symmetry_equiv_pos_as_xyz
  1  'x, y, z'
loop_
 _atom_site_type_symbol
 _atom_site_label
 _atom_site_symmetry_multiplicity
 _atom_site_fract_x
 _atom_site_fract_y
 _atom_site_fract_z
 _atom_site_occupancy
  Na  Na0  1  0.02611900  0.47388100  0.25000000  1
  Na  Na1  1  0.47388100  0.02611900  0.75000000  1
  Na  Na2  1  0.58373700  0.41626300  0.24914200  1
  Na  Na3  1  0.08373700  0.91626300  0.25085800  1
  Na  Na4  1  0.41626300  0.58373700  0.75085800  1
  Na  Na5  1  0.91626300  0.08373700  0.74914200  1
  Na  Na6  1  0.52611900  0.97388100  0.25000000  1
  Na  Na7  1  0.97388100  0.52611900  0.75000000  1
  Fe  Fe0  1  0.33414800  0.16585200  0.25000000  1
  Fe  Fe1  1  0.16585200  0.33414800  0.75000000  1
  Fe  Fe2  1  0.83414800  0.66585200  0.25000000  1
  Fe  Fe3  1  0.66585200  0.83414800  0.75000000  1
  Si  Si0  1  0.04150300  0.18591400  0.30677200  1
  Si  Si1  1  0.18591400  0.04150300  0.69322800  1
  Si  Si2  1  0.31408600  0.45849700  0.19322800  1
  Si  Si3  1  0.45849700  0.31408600  0.80677200  1
  Si  Si4  1  0.07576500  0.69761300  0.45993800  1
  Si  Si5  1  0.57576500  0.19761300  0.04006200  1
  Si  Si6  1  0.19761300  0.57576500  0.95993800  1
  Si  Si7  1  0.69761300  0.07576500  0.54006200  1
  Si  Si8  1  0.25439500  0.51938900  0.48595500  1
  Si  Si9  1  0.51938900  0.25439500  0.51404500  1
  Si  Si10  1  0.75439500  0.01938900  0.01404500  1
  Si  Si11  1  0.01938900  0.75439500  0.98595500  1
  Si  Si12  1  0.48061100  0.74560500  0.48595500  1
  Si  Si13  1  0.24560500  0.98061100  0.98595500  1
  Si  Si14  1  0.98061100  0.24560500  0.01404500  1
  Si  Si15  1  0.74560500  0.48061100  0.51404500  1
  Si  Si16  1  0.30238700  0.92423500  0.45993800  1
  Si  Si17  1  0.92423500  0.30238700  0.54006200  1
  Si  Si18  1  0.42423500  0.80238700  0.95993800  1
  Si  Si19  1  0.80238700  0.42423500  0.04006200  1
  Si  Si20  1  0.68591400  0.54150300  0.80677200  1
  Si  Si21  1  0.54150300  0.68591400  0.19322800  1
  Si  Si22  1  0.81408600  0.95849700  0.30677200  1
  Si  Si23  1  0.95849700  0.81408600  0.69322800  1
  O  O0  1  0.02766800  0.25280200  0.16606000  1
  O  O1  1  0.25280200  0.02766800  0.83394000  1
  O  O2  1  0.00448900  0.28164000  0.41180700  1
  O  O3  1  0.28164000  0.00448900  0.58819300  1
  O  O4  1  0.15454200  0.17122200  0.66952400  1
  O  O5  1  0.17122200  0.15454200  0.33047600  1
  O  O6  1  0.08391400  0.24774100  0.90668700  1
  O  O7  1  0.24774100  0.08391400  0.09331300  1
  O  O8  1  0.25225900  0.41608600  0.59331300  1
  O  O9  1  0.41608600  0.25225900  0.40668700  1
  O  O10  1  0.32877800  0.34545800  0.83047600  1
  O  O11  1  0.34545800  0.32877800  0.16952400  1
  O  O12  1  0.50133200  0.16352900  0.17324100  1
  O  O13  1  0.00133200  0.66352900  0.32675900  1
  O  O14  1  0.16352900  0.50133200  0.82675900  1
  O  O15  1  0.66352900  0.00133200  0.67324100  1
  O  O16  1  0.21836000  0.49551100  0.08819300  1
  O  O17  1  0.49551100  0.21836000  0.91180700  1
  O  O18  1  0.47233200  0.24719800  0.66606000  1
  O  O19  1  0.24719800  0.47233200  0.33394000  1
  O  O20  1  0.13974600  0.58624600  0.50341000  1
  O  O21  1  0.08624600  0.63974600  0.00341000  1
  O  O22  1  0.63974600  0.08624600  0.99659000  1
  O  O23  1  0.58624600  0.13974600  0.49659000  1
  O  O24  1  0.67794200  0.32205800  0.06635100  1
  O  O25  1  0.12057900  0.87942100  0.01086800  1
  O  O26  1  0.17794200  0.82205800  0.43364900  1
  O  O27  1  0.05699000  0.94301000  0.68978900  1
  O  O28  1  0.44301000  0.55699000  0.18978900  1
  O  O29  1  0.32205800  0.67794200  0.93364900  1
  O  O30  1  0.94301000  0.05699000  0.31021100  1
  O  O31  1  0.37942100  0.62057900  0.51086800  1
  O  O32  1  0.55699000  0.44301000  0.81021100  1
  O  O33  1  0.87942100  0.12057900  0.98913200  1
  O  O34  1  0.62057900  0.37942100  0.48913200  1
  O  O35  1  0.82205800  0.17794200  0.56635100  1
  O  O36  1  0.41375400  0.86025400  0.50341000  1
  O  O37  1  0.36025400  0.91375400  0.00341000  1
  O  O38  1  0.86025400  0.41375400  0.49659000  1
  O  O39  1  0.91375400  0.36025400  0.99659000  1
  O  O40  1  0.52766800  0.75280200  0.33394000  1
  O  O41  1  0.75280200  0.52766800  0.66606000  1
  O  O42  1  0.50448900  0.78164000  0.08819300  1
  O  O43  1  0.78164000  0.50448900  0.91180700  1
  O  O44  1  0.33647100  0.99866800  0.32675900  1
  O  O45  1  0.49866800  0.83647100  0.82675900  1
  O  O46  1  0.99866800  0.33647100  0.67324100  1
  O  O47  1  0.83647100  0.49866800  0.17324100  1
  O  O48  1  0.67122200  0.65454200  0.16952400  1
  O  O49  1  0.65454200  0.67122200  0.83047600  1
  O  O50  1  0.58391400  0.74774100  0.59331300  1
  O  O51  1  0.74774100  0.58391400  0.40668700  1
  O  O52  1  0.75225900  0.91608600  0.90668700  1
  O  O53  1  0.91608600  0.75225900  0.09331300  1
  O  O54  1  0.82877800  0.84545800  0.66952400  1
  O  O55  1  0.84545800  0.82877800  0.33047600  1
  O  O56  1  0.71836000  0.99551100  0.41180700  1
  O  O57  1  0.99551100  0.71836000  0.58819300  1
  O  O58  1  0.74719800  0.97233200  0.16606000  1
  O  O59  1  0.97233200  0.74719800  0.83394000  1
loop_
_geom_bond_atom_site_label_1
_geom_bond_atom_site_label_2
_geom_bond_distance
_geom_bond_site_symmetry_2
Na0 O13 2.357138 1_555
Na0 O47 2.357138 1_455
Na0 O0 2.649672 1_555
Na0 O19 2.649672 1_555
Na0 O2 2.704236 1_555
Na0 O16 2.704236 1_555
Na1 O45 2.357138 1_545
Na1 O15 2.357138 1_555
Na1 O1 2.649672 1_555
Na1 O18 2.649672 1_555
Na1 O17 2.704236 1_555
Na1 O3 2.704236 1_555
Na2 O24 2.498337 1_555
Na2 O34 2.538020 1_555
Na2 O28 2.549910 1_555
Na2 O11 2.794726 1_555
Na2 O48 2.794726 1_555
Na2 O9 2.859989 1_555
Na2 O51 2.859989 1_555
Na2 O47 2.924093 1_555
Na2 O12 2.924093 1_555
Na3 O26 2.498337 1_555
Na3 O25 2.538020 1_555
Na3 O30 2.549910 1_465
Na3 O5 2.794726 1_565
Na3 O55 2.794726 1_455
Na3 O7 2.859989 1_565
Na3 O53 2.859989 1_455
Na3 O44 2.924093 1_555
Na3 O13 2.924093 1_555
Na4 O29 2.498337 1_555
Na4 O31 2.538020 1_555
Na4 O32 2.549910 1_555
Na4 O10 2.794726 1_555
Na4 O49 2.794726 1_555
Na4 O8 2.859989 1_555
Na4 O50 2.859989 1_555
Na4 O14 2.924093 1_555
Na4 O45 2.924093 1_555
Na5 O35 2.498337 1_555
Na5 O33 2.538020 1_555
Na5 O27 2.549910 1_645
Na5 O4 2.794726 1_655
Na5 O54 2.794726 1_545
Na5 O6 2.859989 1_655
Na5 O52 2.859989 1_545
Na5 O46 2.924093 1_555
Na5 O15 2.924093 1_555
Na6 O44 2.357138 1_555
Na6 O12 2.357138 1_565
Na6 O58 2.649672 1_555
Na6 O40 2.649672 1_555
Na6 O56 2.704236 1_555
Na6 O42 2.704236 1_555
Na7 O46 2.357138 1_555
Na7 O14 2.357138 1_655
Na7 O59 2.649672 1_555
Na7 O41 2.649672 1_555
Na7 O57 2.704236 1_555
Na7 O43 2.704236 1_555
Fe0 O5 1.999517 1_555
Fe0 O11 1.999517 1_555
Fe0 O7 2.001696 1_555
Fe0 O9 2.001696 1_555
Fe0 O44 2.054372 1_545
Fe0 O12 2.054372 1_555
Fe1 O4 1.999517 1_555
Fe1 O10 1.999517 1_555
Fe1 O8 2.001696 1_555
Fe1 O6 2.001696 1_555
Fe1 O14 2.054372 1_555
Fe1 O46 2.054372 1_455
Fe2 O48 1.999517 1_555
Fe2 O55 1.999517 1_555
Fe2 O51 2.001696 1_555
Fe2 O53 2.001696 1_555
Fe2 O47 2.054372 1_555
Fe2 O13 2.054372 1_655
Fe3 O49 1.999517 1_555
Fe3 O54 1.999517 1_555
Fe3 O50 2.001696 1_555
Fe3 O52 2.001696 1_555
Fe3 O45 2.054372 1_555
Fe3 O15 2.054372 1_565
O0 Si14 1.639596 1_455
O0 Si0 1.648442 1_555
O1 Si13 1.639596 1_545
O1 Si1 1.648442 1_555
O2 Si17 1.639908 1_455
O2 Si0 1.640931 1_555
O3 Si16 1.639908 1_545
O3 Si1 1.640931 1_555
O4 Si1 1.599711 1_555
O5 Si0 1.599711 1_555
O6 Si14 1.600553 1_456
O7 Si13 1.600553 1_544
O8 Si8 1.600553 1_555
O9 Si9 1.600553 1_555
O10 Si3 1.599711 1_555
O11 Si2 1.599711 1_555
O12 Si5 1.605640 1_555
O13 Si4 1.605640 1_555
O14 Si6 1.605640 1_555
O15 Si7 1.605640 1_555
O16 Si6 1.639908 1_554
O16 Si2 1.640931 1_555
O17 Si5 1.639908 1_556
O17 Si3 1.640931 1_555
O18 Si9 1.639596 1_555
O18 Si3 1.648442 1_555
O19 Si8 1.639596 1_555
O19 Si2 1.648442 1_555
O20 Si4 1.640823 1_555
O20 Si8 1.642773 1_555
O21 Si6 1.640823 1_554
O21 Si11 1.642773 1_554
O22 Si5 1.640823 1_556
O22 Si10 1.642773 1_556
O23 Si7 1.640823 1_555
O23 Si9 1.642773 1_555
O24 Si19 1.648552 1_555
O24 Si5 1.648552 1_555
O25 Si13 1.645182 1_554
O25 Si11 1.645182 1_554
O26 Si4 1.648552 1_555
O26 Si16 1.648552 1_555
O27 Si1 1.642664 1_565
O27 Si23 1.642664 1_455
O28 Si21 1.642664 1_555
O28 Si2 1.642664 1_555
O29 Si18 1.648552 1_555
O29 Si6 1.648552 1_555
O30 Si0 1.642664 1_655
O30 Si22 1.642664 1_545
O31 Si12 1.645182 1_555
O31 Si8 1.645182 1_555
O32 Si20 1.642664 1_555
O32 Si3 1.642664 1_555
O33 Si10 1.645182 1_556
O33 Si14 1.645182 1_556
O34 Si15 1.645182 1_555
O34 Si9 1.645182 1_555
O35 Si7 1.648552 1_555
O35 Si17 1.648552 1_555
O36 Si16 1.640823 1_555
O36 Si12 1.642773 1_555
O37 Si18 1.640823 1_554
O37 Si13 1.642773 1_554
O38 Si17 1.640823 1_555
O38 Si15 1.642773 1_555
O39 Si19 1.640823 1_556
O39 Si14 1.642773 1_556
O40 Si12 1.639596 1_555
O40 Si21 1.648442 1_555
O41 Si15 1.639596 1_555
O41 Si20 1.648442 1_555
O42 Si18 1.639908 1_554
O42 Si21 1.640931 1_555
O43 Si19 1.639908 1_556
O43 Si20 1.640931 1_555
O44 Si16 1.605640 1_555
O45 Si18 1.605640 1_555
O46 Si17 1.605640 1_555
O47 Si19 1.605640 1_555
O48 Si21 1.599711 1_555
O49 Si20 1.599711 1_555
O50 Si12 1.600553 1_555
O51 Si15 1.600553 1_555
O52 Si10 1.600553 1_566
O53 Si11 1.600553 1_654
O54 Si23 1.599711 1_555
O55 Si22 1.599711 1_555
O56 Si7 1.639908 1_565
O56 Si22 1.640931 1_555
O57 Si4 1.639908 1_655
O57 Si23 1.640931 1_555
O58 Si10 1.639596 1_565
O58 Si22 1.648442 1_555
O59 Si11 1.639596 1_655
O59 Si23 1.648442 1_555
