# generated using pymatgen
data_K2I3NO12
_symmetry_space_group_name_H-M   'P 1'
_cell_length_a   7.12645400
_cell_length_b   10.86858900
_cell_length_c   15.96590100
_cell_angle_alpha   90.00000000
_cell_angle_beta   90.00000000
_cell_angle_gamma   90.00000000
_symmetry_Int_Tables_number   1
_chemical_formula_structural   K2I3NO12
_chemical_formula_sum   'K8 I12 N4 O48'
_cell_volume   1236.63087187
_cell_formula_units_Z   4
loop_
 _symmetry_equiv_pos_site_id
 _symmetry_equiv_pos_as_xyz
  1  'x, y, z'
loop_
 _atom_site_type_symbol
 _atom_site_label
 _atom_site_symmetry_multiplicity
 _atom_site_fract_x
 _atom_site_fract_y
 _atom_site_fract_z
 _atom_site_occupancy
  K  K0  1  0.83751200  0.53351600  0.90365700  1
  K  K1  1  0.66248800  0.46648400  0.40365700  1
  K  K2  1  0.33751200  0.96648400  0.09634300  1
  K  K3  1  0.16248800  0.03351600  0.59634300  1
  K  K4  1  0.85930700  0.62587600  0.16896100  1
  K  K5  1  0.64069300  0.37412400  0.66896100  1
  K  K6  1  0.35930700  0.87412400  0.83103900  1
  K  K7  1  0.14069300  0.12587600  0.33103900  1
  I  I0  1  0.99241600  0.77130000  0.42895200  1
  I  I1  1  0.50758400  0.22870000  0.92895200  1
  I  I2  1  0.49241600  0.72870000  0.57104800  1
  I  I3  1  0.00758400  0.27130000  0.07104800  1
  I  I4  1  0.84309000  0.86999300  0.96548300  1
  I  I5  1  0.65691000  0.13000700  0.46548300  1
  I  I6  1  0.34309000  0.63000700  0.03451700  1
  I  I7  1  0.15691000  0.36999300  0.53451700  1
  I  I8  1  0.48034000  0.82436900  0.32173100  1
  I  I9  1  0.01966000  0.17563100  0.82173100  1
  I  I10  1  0.98034000  0.67563100  0.67826900  1
  I  I11  1  0.51966000  0.32436900  0.17826900  1
  N  N0  1  0.82754600  0.96362800  0.17308200  1
  N  N1  1  0.67245400  0.03637200  0.67308200  1
  N  N2  1  0.32754600  0.53637200  0.82691800  1
  N  N3  1  0.17245400  0.46362800  0.32691800  1
  O  O0  1  0.46773800  0.56583600  0.54811200  1
  O  O1  1  0.03226200  0.43416400  0.04811200  1
  O  O2  1  0.96773800  0.93416400  0.45188800  1
  O  O3  1  0.53226200  0.06583600  0.95188800  1
  O  O4  1  0.74449500  0.72185500  0.41325600  1
  O  O5  1  0.75550500  0.27814500  0.91325600  1
  O  O6  1  0.24449500  0.77814500  0.58674400  1
  O  O7  1  0.25550500  0.22185500  0.08674400  1
  O  O8  1  0.01228900  0.77475800  0.31201300  1
  O  O9  1  0.48771100  0.22524200  0.81201300  1
  O  O10  1  0.51228900  0.72524200  0.68798700  1
  O  O11  1  0.98771100  0.27475800  0.18798700  1
  O  O12  1  0.95988800  0.73578200  0.01093000  1
  O  O13  1  0.54011200  0.26421800  0.51093000  1
  O  O14  1  0.45988800  0.76421800  0.98907000  1
  O  O15  1  0.04011200  0.23578200  0.48907000  1
  O  O16  1  0.75958500  0.80483300  0.86532000  1
  O  O17  1  0.74041500  0.19516700  0.36532000  1
  O  O18  1  0.25958500  0.69516700  0.13468000  1
  O  O19  1  0.24041500  0.30483300  0.63468000  1
  O  O20  1  0.46099200  0.03486100  0.43083500  1
  O  O21  1  0.03900800  0.96513900  0.93083500  1
  O  O22  1  0.96099200  0.46513900  0.56916500  1
  O  O23  1  0.53900800  0.53486100  0.06916500  1
  O  O24  1  0.78812100  0.59479100  0.73201000  1
  O  O25  1  0.71187900  0.40520900  0.23201000  1
  O  O26  1  0.28812100  0.90520900  0.26799000  1
  O  O27  1  0.21187900  0.09479100  0.76799000  1
  O  O28  1  0.00450900  0.81627500  0.74065900  1
  O  O29  1  0.49549100  0.18372500  0.24065900  1
  O  O30  1  0.50450900  0.68372500  0.25934100  1
  O  O31  1  0.99549100  0.31627500  0.75934100  1
  O  O32  1  0.84786800  0.73583700  0.58748700  1
  O  O33  1  0.65213200  0.26416300  0.08748700  1
  O  O34  1  0.34786800  0.76416300  0.41251300  1
  O  O35  1  0.15213200  0.23583700  0.91251300  1
  O  O36  1  0.69144100  0.89060400  0.16022400  1
  O  O37  1  0.80855900  0.10939600  0.66022400  1
  O  O38  1  0.19144100  0.60939600  0.83977600  1
  O  O39  1  0.30855900  0.39060400  0.33977600  1
  O  O40  1  0.93438400  0.99114700  0.11030000  1
  O  O41  1  0.56561600  0.00885300  0.61030000  1
  O  O42  1  0.43438400  0.50885300  0.88970000  1
  O  O43  1  0.06561600  0.49114700  0.38970000  1
  O  O44  1  0.85953900  0.00735700  0.24289900  1
  O  O45  1  0.64046100  0.99264300  0.74289900  1
  O  O46  1  0.35953900  0.49264300  0.75710100  1
  O  O47  1  0.14046100  0.50735700  0.25710100  1
loop_
_geom_bond_atom_site_label_1
_geom_bond_atom_site_label_2
_geom_bond_distance
_geom_bond_site_symmetry_2
K0 O5 2.840521 1_555
K0 O24 2.842138 1_555
K0 O38 2.842915 1_655
K0 O42 2.893943 1_555
K0 O1 2.900254 1_656
K0 O12 2.920047 1_556
K0 O16 3.062461 1_555
K1 O4 2.840521 1_555
K1 O25 2.842138 1_555
K1 O39 2.842915 1_555
K1 O43 2.893943 1_655
K1 O0 2.900254 1_555
K1 O13 2.920047 1_555
K1 O17 3.062461 1_555
K2 O7 2.840521 1_565
K2 O26 2.842138 1_555
K2 O36 2.842915 1_555
K2 O40 2.893943 1_455
K2 O3 2.900254 1_564
K2 O14 2.920047 1_554
K2 O18 3.062461 1_555
K3 O6 2.840521 1_545
K3 O27 2.842138 1_555
K3 O37 2.842915 1_455
K3 O41 2.893943 1_555
K3 O2 2.900254 1_445
K3 O15 2.920047 1_555
K3 O19 3.062461 1_555
K4 O47 2.766611 1_655
K4 O25 2.805207 1_555
K4 O12 2.882141 1_555
K4 O23 2.954231 1_555
K4 O30 2.978359 1_555
K4 O18 3.000639 1_655
K4 O8 3.003896 1_655
K4 O1 3.095735 1_655
K4 O36 3.119128 1_555
K5 O46 2.766611 1_555
K5 O24 2.805207 1_555
K5 O13 2.882141 1_555
K5 O22 2.954231 1_555
K5 O31 2.978359 1_555
K5 O19 3.000639 1_555
K5 O9 3.003896 1_555
K5 O0 3.095735 1_555
K5 O37 3.119128 1_555
K6 O45 2.766611 1_555
K6 O27 2.805207 1_565
K6 O14 2.882141 1_555
K6 O21 2.954231 1_555
K6 O28 2.978359 1_555
K6 O16 3.000639 1_555
K6 O10 3.003896 1_555
K6 O3 3.095735 1_565
K6 O38 3.119128 1_555
K7 O44 2.766611 1_455
K7 O26 2.805207 1_545
K7 O15 2.882141 1_555
K7 O20 2.954231 1_555
K7 O29 2.978359 1_555
K7 O17 3.000639 1_455
K7 O11 3.003896 1_455
K7 O2 3.095735 1_445
K7 O39 3.119128 1_555
I0 O2 1.816119 1_555
I0 O4 1.863644 1_555
I0 O8 1.872777 1_655
I1 O3 1.816119 1_555
I1 O5 1.863644 1_555
I1 O9 1.872777 1_555
I2 O0 1.816119 1_555
I2 O6 1.863644 1_555
I2 O10 1.872777 1_555
I3 O1 1.816119 1_555
I3 O7 1.863644 1_555
I3 O11 1.872777 1_455
I4 O21 1.823392 1_655
I4 O12 1.829501 1_556
I4 O16 1.847457 1_555
I5 O20 1.823392 1_555
I5 O13 1.829501 1_555
I5 O17 1.847457 1_555
I6 O23 1.823392 1_555
I6 O14 1.829501 1_554
I6 O18 1.847457 1_555
I7 O22 1.823392 1_455
I7 O15 1.829501 1_555
I7 O19 1.847457 1_555
I8 O30 1.832629 1_555
I8 O26 1.839737 1_555
I8 O34 1.849386 1_555
I8 O4 2.630685 1_555
I9 O31 1.832629 1_455
I9 O27 1.839737 1_555
I9 O35 1.849386 1_555
I9 O5 2.630685 1_455
I10 O28 1.832629 1_655
I10 O24 1.839737 1_555
I10 O32 1.849386 1_555
I10 O6 2.630685 1_655
I11 O29 1.832629 1_555
I11 O25 1.839737 1_555
I11 O33 1.849386 1_555
I11 O7 2.630685 1_555
N0 O44 1.233046 1_565
N0 O36 1.269979 1_555
N0 O40 1.293792 1_555
N1 O45 1.233046 1_545
N1 O37 1.269979 1_555
N1 O41 1.293792 1_555
N2 O46 1.233046 1_555
N2 O38 1.269979 1_555
N2 O42 1.293792 1_555
N3 O47 1.233046 1_555
N3 O39 1.269979 1_555
N3 O43 1.293792 1_555
