# generated using pymatgen
data_Li3Co4CuO8
_symmetry_space_group_name_H-M   'P 1'
_cell_length_a   5.77136777
_cell_length_b   5.77136777
_cell_length_c   5.71220061
_cell_angle_alpha   62.12281163
_cell_angle_beta   62.12281163
_cell_angle_gamma   58.95614815
_symmetry_Int_Tables_number   1
_chemical_formula_structural   Li3Co4CuO8
_chemical_formula_sum   'Li3 Co4 Cu1 O8'
_cell_volume   137.50485378
_cell_formula_units_Z   1
loop_
 _symmetry_equiv_pos_site_id
 _symmetry_equiv_pos_as_xyz
  1  'x, y, z'
loop_
 _atom_site_type_symbol
 _atom_site_label
 _atom_site_symmetry_multiplicity
 _atom_site_fract_x
 _atom_site_fract_y
 _atom_site_fract_z
 _atom_site_occupancy
  Li  Li0  1  0.00000000  0.50000000  0.00000000  1
  Li  Li1  1  0.00000000  0.00000000  0.50000000  1
  Li  Li2  1  0.50000000  0.00000000  0.00000000  1
  Co  Co0  1  0.50000000  0.50000000  0.50000000  1
  Co  Co1  1  0.00000000  0.00000000  0.00000000  1
  Co  Co2  1  0.00000000  0.50000000  0.50000000  1
  Co  Co3  1  0.50000000  0.00000000  0.50000000  1
  Cu  Cu0  1  0.50000000  0.50000000  0.00000000  1
  O  O0  1  0.24207700  0.24207700  0.27642400  1
  O  O1  1  0.27786400  0.76474900  0.72746300  1
  O  O2  1  0.76474900  0.27786400  0.72746300  1
  O  O3  1  0.73245500  0.73245500  0.28617000  1
  O  O4  1  0.26754500  0.26754500  0.71383000  1
  O  O5  1  0.23525100  0.72213600  0.27253700  1
  O  O6  1  0.72213600  0.23525100  0.27253700  1
  O  O7  1  0.75792300  0.75792300  0.72357600  1
loop_
_geom_bond_atom_site_label_1
_geom_bond_atom_site_label_2
_geom_bond_distance
_geom_bond_site_symmetry_2
Li0 O7 2.093073 1_454
Li0 O0 2.093073 1_555
Li0 O3 2.100016 1_455
Li0 O4 2.100016 1_554
Li0 O1 2.301755 1_554
Li0 O6 2.301755 1_455
Li1 O2 2.038750 1_455
Li1 O6 2.038750 1_455
Li1 O1 2.038750 1_545
Li1 O5 2.038750 1_545
Li1 O0 2.052055 1_555
Li1 O7 2.052055 1_445
Li2 O7 2.093073 1_544
Li2 O0 2.093073 1_555
Li2 O3 2.100016 1_545
Li2 O4 2.100016 1_554
Li2 O2 2.301755 1_554
Li2 O5 2.301755 1_545
Co0 O3 1.970567 1_555
Co0 O4 1.970567 1_555
Co0 O2 1.986186 1_555
Co0 O1 1.986186 1_555
Co0 O5 1.986186 1_555
Co0 O6 1.986186 1_555
Co1 O5 2.057911 1_545
Co1 O6 2.057911 1_455
Co1 O2 2.057911 1_454
Co1 O1 2.057911 1_544
Co1 O4 2.275714 1_554
Co1 O3 2.275714 1_445
Co2 O0 1.939851 1_555
Co2 O7 1.939851 1_455
Co2 O5 1.939854 1_555
Co2 O2 1.939854 1_455
Co2 O4 1.941847 1_555
Co2 O3 1.941847 1_455
Co3 O7 1.939851 1_545
Co3 O0 1.939851 1_555
Co3 O1 1.939854 1_545
Co3 O6 1.939854 1_555
Co3 O4 1.941847 1_555
Co3 O3 1.941847 1_545
Cu0 O6 2.005850 1_555
Cu0 O1 2.005850 1_554
Cu0 O2 2.005850 1_554
Cu0 O5 2.005850 1_555
Cu0 O0 2.194134 1_555
Cu0 O7 2.194134 1_554
