# generated using pymatgen
data_MnV5(PO4)6
_symmetry_space_group_name_H-M   'P 1'
_cell_length_a   8.59154503
_cell_length_b   8.59154503
_cell_length_c   8.59154441
_cell_angle_alpha   60.53898000
_cell_angle_beta   60.53898000
_cell_angle_gamma   60.53897766
_symmetry_Int_Tables_number   1
_chemical_formula_structural   MnV5(PO4)6
_chemical_formula_sum   'Mn1 V5 P6 O24'
_cell_volume   453.89518558
_cell_formula_units_Z   1
loop_
 _symmetry_equiv_pos_site_id
 _symmetry_equiv_pos_as_xyz
  1  'x, y, z'
loop_
 _atom_site_type_symbol
 _atom_site_label
 _atom_site_symmetry_multiplicity
 _atom_site_fract_x
 _atom_site_fract_y
 _atom_site_fract_z
 _atom_site_occupancy
  Mn  Mn0  1  0.85463900  0.85463900  0.85463900  1
  V  V0  1  0.99883100  0.99883100  0.99883100  1
  V  V1  1  0.35456000  0.35456000  0.35456000  1
  V  V2  1  0.49894300  0.49894300  0.49894300  1
  V  V3  1  0.14371200  0.14371200  0.14371200  1
  V  V4  1  0.64521500  0.64521500  0.64521500  1
  P  P0  1  0.75051700  0.04637600  0.45226000  1
  P  P1  1  0.04637600  0.45226000  0.75051700  1
  P  P2  1  0.45226000  0.75051700  0.04637600  1
  P  P3  1  0.54063000  0.25488700  0.95769300  1
  P  P4  1  0.95769300  0.54063000  0.25488700  1
  P  P5  1  0.25488700  0.95769300  0.54063000  1
  O  O0  1  0.88075600  0.49484400  0.69176100  1
  O  O1  1  0.49484400  0.69176100  0.88075600  1
  O  O2  1  0.69176100  0.88075600  0.49484400  1
  O  O3  1  0.91237000  0.06089000  0.25360300  1
  O  O4  1  0.80900100  0.02265800  0.60189900  1
  O  O5  1  0.58454200  0.24086700  0.42790400  1
  O  O6  1  0.06089000  0.25360300  0.91237000  1
  O  O7  1  0.24086700  0.42790400  0.58454200  1
  O  O8  1  0.38182800  0.19118300  0.99608700  1
  O  O9  1  0.42790400  0.58454200  0.24086700  1
  O  O10  1  0.73448500  0.09934300  0.95090500  1
  O  O11  1  0.99608700  0.38182800  0.19118300  1
  O  O12  1  0.02265800  0.60189900  0.80900100  1
  O  O13  1  0.25360300  0.91237000  0.06089000  1
  O  O14  1  0.55352400  0.41943800  0.76226600  1
  O  O15  1  0.60189900  0.80900100  0.02265800  1
  O  O16  1  0.76226600  0.55352400  0.41943800  1
  O  O17  1  0.95090500  0.73448500  0.09934300  1
  O  O18  1  0.41943800  0.76226600  0.55352400  1
  O  O19  1  0.19118300  0.99608700  0.38182800  1
  O  O20  1  0.09934300  0.95090500  0.73448500  1
  O  O21  1  0.32939900  0.11353200  0.48864100  1
  O  O22  1  0.48864100  0.32939900  0.11353200  1
  O  O23  1  0.11353200  0.48864100  0.32939900  1
loop_
_geom_bond_atom_site_label_1
_geom_bond_atom_site_label_2
_geom_bond_distance
_geom_bond_site_symmetry_2
Mn0 O4 2.037169 1_565
Mn0 O12 2.037169 1_655
Mn0 O15 2.037169 1_556
Mn0 O17 2.214826 1_556
Mn0 O10 2.214826 1_565
Mn0 O20 2.214827 1_655
O0 P1 1.557633 1_655
O0 V4 1.907965 1_555
O1 P2 1.557633 1_556
O1 V4 1.907965 1_555
O2 P0 1.557633 1_565
O2 V4 1.907965 1_555
O3 P0 1.577626 1_555
O3 V3 2.057349 1_655
O3 V0 2.187762 1_544
O4 P0 1.491262 1_555
O5 P0 1.573243 1_555
O5 V1 1.994030 1_555
O5 V2 2.261702 1_555
O6 P1 1.577626 1_555
O6 V3 2.057348 1_556
O6 V0 2.187762 1_445
O7 P1 1.573243 1_555
O7 V1 1.994030 1_555
O7 V2 2.261703 1_555
O8 P3 1.544044 1_555
O8 V3 1.928678 1_556
O9 P2 1.573243 1_555
O9 V1 1.994030 1_555
O9 V2 2.261702 1_555
O10 P3 1.534586 1_555
O10 V0 2.171234 1_545
O11 P4 1.544044 1_555
O11 V3 1.928678 1_655
O12 P1 1.491262 1_555
O13 P2 1.577626 1_555
O13 V3 2.057348 1_565
O13 V0 2.187762 1_454
O14 P3 1.570422 1_555
O14 V4 2.049297 1_555
O14 V2 2.238995 1_555
O15 P2 1.491262 1_555
O16 P4 1.570422 1_555
O16 V4 2.049297 1_555
O16 V2 2.238996 1_555
O17 P4 1.534586 1_555
O17 V0 2.171234 1_554
O18 P5 1.570422 1_555
O18 V4 2.049297 1_555
O18 V2 2.238996 1_555
O19 P5 1.544044 1_555
O19 V3 1.928678 1_565
O20 P5 1.534586 1_555
O20 V0 2.171234 1_455
O21 P5 1.541286 1_545
O21 V1 1.873724 1_555
O22 P3 1.541285 1_554
O22 V1 1.873724 1_555
O23 P4 1.541286 1_455
O23 V1 1.873724 1_555
