# generated using pymatgen
data_Li4Si4Bi2O13
_symmetry_space_group_name_H-M   'P 1'
_cell_length_a   5.24521500
_cell_length_b   14.65977100
_cell_length_c   15.13730100
_cell_angle_alpha   90.00000000
_cell_angle_beta   90.00000000
_cell_angle_gamma   90.00000000
_symmetry_Int_Tables_number   1
_chemical_formula_structural   Li4Si4Bi2O13
_chemical_formula_sum   'Li16 Si16 Bi8 O52'
_cell_volume   1163.96233633
_cell_formula_units_Z   4
loop_
 _symmetry_equiv_pos_site_id
 _symmetry_equiv_pos_as_xyz
  1  'x, y, z'
loop_
 _atom_site_type_symbol
 _atom_site_label
 _atom_site_symmetry_multiplicity
 _atom_site_fract_x
 _atom_site_fract_y
 _atom_site_fract_z
 _atom_site_occupancy
  Li  Li0  1  0.14922700  0.02487500  0.22137600  1
  Li  Li1  1  0.65608900  0.09673000  0.90537500  1
  Li  Li2  1  0.64894900  0.14411800  0.11639100  1
  Li  Li3  1  0.19873200  0.22474100  0.83910700  1
  Li  Li4  1  0.69873200  0.27525900  0.33910700  1
  Li  Li5  1  0.14894900  0.35588200  0.61639100  1
  Li  Li6  1  0.15608900  0.40327000  0.40537500  1
  Li  Li7  1  0.64922700  0.47512500  0.72137600  1
  Li  Li8  1  0.35077300  0.52487500  0.22137600  1
  Li  Li9  1  0.84391100  0.59673000  0.90537500  1
  Li  Li10  1  0.85105100  0.64411800  0.11639100  1
  Li  Li11  1  0.30126800  0.72474100  0.83910700  1
  Li  Li12  1  0.80126800  0.77525900  0.33910700  1
  Li  Li13  1  0.35105100  0.85588200  0.61639100  1
  Li  Li14  1  0.34391100  0.90327000  0.40537500  1
  Li  Li15  1  0.85077300  0.97512500  0.72137600  1
  Si  Si0  1  0.16788900  0.03091100  0.99828100  1
  Si  Si1  1  0.65933900  0.05404800  0.32256700  1
  Si  Si2  1  0.85394200  0.19636300  0.72336500  1
  Si  Si3  1  0.17917200  0.22331600  0.05036700  1
  Si  Si4  1  0.67917200  0.27668400  0.55036700  1
  Si  Si5  1  0.35394200  0.30363700  0.22336500  1
  Si  Si6  1  0.15933900  0.44595200  0.82256700  1
  Si  Si7  1  0.66788900  0.46908900  0.49828100  1
  Si  Si8  1  0.33211100  0.53091100  0.99828100  1
  Si  Si9  1  0.84066100  0.55404800  0.32256700  1
  Si  Si10  1  0.64605800  0.69636300  0.72336500  1
  Si  Si11  1  0.32082800  0.72331600  0.05036700  1
  Si  Si12  1  0.82082800  0.77668400  0.55036700  1
  Si  Si13  1  0.14605800  0.80363700  0.22336500  1
  Si  Si14  1  0.34066100  0.94595200  0.82256700  1
  Si  Si15  1  0.83211100  0.96908900  0.49828100  1
  Bi  Bi0  1  0.35600900  0.08269300  0.63178800  1
  Bi  Bi1  1  0.16502600  0.16732600  0.41708600  1
  Bi  Bi2  1  0.66502600  0.33267400  0.91708600  1
  Bi  Bi3  1  0.85600900  0.41730700  0.13178800  1
  Bi  Bi4  1  0.14399100  0.58269300  0.63178800  1
  Bi  Bi5  1  0.33497400  0.66732600  0.41708600  1
  Bi  Bi6  1  0.83497400  0.83267400  0.91708600  1
  Bi  Bi7  1  0.64399100  0.91730700  0.13178800  1
  O  O0  1  0.42457900  0.03278800  0.05899400  1
  O  O1  1  0.77656200  0.04168800  0.22267500  1
  O  O2  1  0.24977000  0.03408000  0.89044600  1
  O  O3  1  0.04495000  0.04785600  0.51189600  1
  O  O4  1  0.34794300  0.04797800  0.32488000  1
  O  O5  1  0.75207100  0.09785800  0.68750000  1
  O  O6  1  0.01221000  0.12905900  0.02236900  1
  O  O7  1  0.76436600  0.15015600  0.36271200  1
  O  O8  1  0.16385300  0.20555200  0.71529900  1
  O  O9  1  0.48949500  0.19186900  0.53042600  1
  O  O10  1  0.23669000  0.21868400  0.15916800  1
  O  O11  1  0.77638900  0.20477000  0.82866300  1
  O  O12  1  0.44783000  0.21872800  0.99612800  1
  O  O13  1  0.94783000  0.28127200  0.49612800  1
  O  O14  1  0.27638900  0.29523000  0.32866300  1
  O  O15  1  0.73669000  0.28131600  0.65916800  1
  O  O16  1  0.98949500  0.30813100  0.03042600  1
  O  O17  1  0.66385300  0.29444800  0.21529900  1
  O  O18  1  0.26436600  0.34984400  0.86271200  1
  O  O19  1  0.51221000  0.37094100  0.52236900  1
  O  O20  1  0.25207100  0.40214200  0.18750000  1
  O  O21  1  0.84794300  0.45202200  0.82488000  1
  O  O22  1  0.54495000  0.45214400  0.01189600  1
  O  O23  1  0.74977000  0.46592000  0.39044600  1
  O  O24  1  0.27656200  0.45831200  0.72267500  1
  O  O25  1  0.92457900  0.46721200  0.55899400  1
  O  O26  1  0.07542100  0.53278800  0.05899400  1
  O  O27  1  0.72343800  0.54168800  0.22267500  1
  O  O28  1  0.25023000  0.53408000  0.89044600  1
  O  O29  1  0.45505000  0.54785600  0.51189600  1
  O  O30  1  0.15205700  0.54797800  0.32488000  1
  O  O31  1  0.74792900  0.59785800  0.68750000  1
  O  O32  1  0.48779000  0.62905900  0.02236900  1
  O  O33  1  0.73563400  0.65015600  0.36271200  1
  O  O34  1  0.33614700  0.70555200  0.71529900  1
  O  O35  1  0.01050500  0.69186900  0.53042600  1
  O  O36  1  0.26331000  0.71868400  0.15916800  1
  O  O37  1  0.72361100  0.70477000  0.82866300  1
  O  O38  1  0.05217000  0.71872800  0.99612800  1
  O  O39  1  0.55217000  0.78127200  0.49612800  1
  O  O40  1  0.22361100  0.79523000  0.32866300  1
  O  O41  1  0.76331000  0.78131600  0.65916800  1
  O  O42  1  0.51050500  0.80813100  0.03042600  1
  O  O43  1  0.83614700  0.79444800  0.21529900  1
  O  O44  1  0.23563400  0.84984400  0.86271200  1
  O  O45  1  0.98779000  0.87094100  0.52236900  1
  O  O46  1  0.24792900  0.90214200  0.18750000  1
  O  O47  1  0.65205700  0.95202200  0.82488000  1
  O  O48  1  0.95505000  0.95214400  0.01189600  1
  O  O49  1  0.75023000  0.96592000  0.39044600  1
  O  O50  1  0.22343800  0.95831200  0.72267500  1
  O  O51  1  0.57542100  0.96721200  0.55899400  1
loop_
_geom_bond_atom_site_label_1
_geom_bond_atom_site_label_2
_geom_bond_distance
_geom_bond_site_symmetry_2
Li0 O4 1.912037 1_555
Li0 O46 1.941195 1_545
Li0 O1 1.970284 1_455
Li1 O11 2.062796 1_555
Li1 O2 2.331681 1_555
Li1 O47 2.446510 1_545
Li1 O12 2.505805 1_555
Li1 O6 2.617275 1_656
Li2 O0 2.191702 1_555
Li2 O1 2.300272 1_555
Li2 O12 2.371335 1_554
Li2 O6 2.388478 1_655
Li2 O10 2.508012 1_555
Li2 O17 2.665421 1_555
Li3 O18 1.899916 1_555
Li3 O8 1.903924 1_555
Li3 O11 2.240128 1_455
Li4 O7 1.899916 1_555
Li4 O17 1.903924 1_555
Li4 O14 2.240128 1_555
Li5 O25 2.191702 1_455
Li5 O24 2.300272 1_555
Li5 O13 2.371335 1_455
Li5 O19 2.388478 1_555
Li5 O15 2.508012 1_455
Li5 O8 2.665421 1_555
Li6 O14 2.062796 1_555
Li6 O23 2.331681 1_455
Li6 O30 2.446510 1_555
Li6 O13 2.505805 1_455
Li6 O19 2.617275 1_555
Li7 O21 1.912037 1_555
Li7 O31 1.941195 1_555
Li7 O24 1.970284 1_555
Li8 O30 1.912037 1_555
Li8 O20 1.941195 1_555
Li8 O27 1.970284 1_555
Li9 O37 2.062796 1_555
Li9 O28 2.331681 1_655
Li9 O21 2.446510 1_555
Li9 O38 2.505805 1_655
Li9 O32 2.617275 1_556
Li10 O26 2.191702 1_655
Li10 O27 2.300272 1_555
Li10 O38 2.371335 1_654
Li10 O32 2.388478 1_555
Li10 O36 2.508012 1_655
Li10 O43 2.665421 1_555
Li11 O44 1.899916 1_555
Li11 O34 1.903924 1_555
Li11 O37 2.240128 1_555
Li12 O33 1.899916 1_555
Li12 O43 1.903924 1_555
Li12 O40 2.240128 1_655
Li13 O51 2.191702 1_555
Li13 O50 2.300272 1_555
Li13 O39 2.371335 1_555
Li13 O45 2.388478 1_455
Li13 O41 2.508012 1_555
Li13 O34 2.665421 1_555
Li14 O40 2.062796 1_555
Li14 O49 2.331681 1_555
Li14 O4 2.446510 1_565
Li14 O39 2.505805 1_555
Li14 O45 2.617275 1_455
Li15 O47 1.912037 1_555
Li15 O5 1.941195 1_565
Li15 O50 1.970284 1_655
Bi0 O5 2.253075 1_555
Bi0 O51 2.324796 1_545
Bi0 O9 2.325088 1_555
Bi0 O50 2.387695 1_545
Bi0 O8 2.420288 1_555
Bi0 O3 2.493289 1_555
Bi1 O7 2.270972 1_455
Bi1 O13 2.349414 1_455
Bi1 O3 2.350276 1_555
Bi1 O14 2.376664 1_555
Bi1 O4 2.435116 1_555
Bi1 O9 2.443245 1_555
Bi2 O18 2.270972 1_555
Bi2 O12 2.349414 1_555
Bi2 O22 2.350276 1_556
Bi2 O11 2.376664 1_555
Bi2 O21 2.435116 1_555
Bi2 O16 2.443245 1_556
Bi3 O20 2.253075 1_655
Bi3 O26 2.324796 1_655
Bi3 O16 2.325088 1_555
Bi3 O27 2.387695 1_555
Bi3 O17 2.420288 1_555
Bi3 O22 2.493289 1_555
Bi4 O31 2.253075 1_455
Bi4 O25 2.324796 1_455
Bi4 O35 2.325088 1_555
Bi4 O24 2.387695 1_555
Bi4 O34 2.420288 1_555
Bi4 O29 2.493289 1_555
Bi5 O33 2.270972 1_555
Bi5 O39 2.349414 1_555
Bi5 O29 2.350276 1_555
Bi5 O40 2.376664 1_555
Bi5 O30 2.435116 1_555
Bi5 O35 2.443245 1_555
Bi6 O44 2.270972 1_655
Bi6 O38 2.349414 1_655
Bi6 O48 2.350276 1_556
Bi6 O37 2.376664 1_555
Bi6 O47 2.435116 1_555
Bi6 O42 2.443245 1_556
Bi7 O46 2.253075 1_555
Bi7 O0 2.324796 1_565
Bi7 O42 2.325088 1_555
Bi7 O1 2.387695 1_565
Bi7 O43 2.420288 1_555
Bi7 O48 2.493289 1_555
O0 Si0 1.630384 1_554
O1 Si1 1.642351 1_555
O2 Si0 1.688525 1_555
O2 Si14 1.718182 1_545
O3 Si15 1.619302 1_445
O4 Si1 1.636136 1_555
O5 Si2 1.632656 1_555
O6 Si3 1.689938 1_555
O6 Si0 1.694097 1_554
O7 Si1 1.630283 1_555
O8 Si2 1.635685 1_455
O9 Si4 1.620771 1_555
O10 Si3 1.675735 1_555
O10 Si5 1.695162 1_555
O11 Si2 1.649626 1_555
O12 Si3 1.632291 1_556
O13 Si4 1.632291 1_555
O14 Si5 1.649626 1_555
O15 Si4 1.675735 1_555
O15 Si2 1.695162 1_555
O16 Si3 1.620771 1_655
O17 Si5 1.635685 1_555
O18 Si6 1.630283 1_555
O19 Si4 1.689938 1_555
O19 Si7 1.694097 1_555
O20 Si5 1.632656 1_555
O21 Si6 1.636136 1_655
O22 Si8 1.619302 1_554
O23 Si7 1.688525 1_555
O23 Si9 1.718182 1_555
O24 Si6 1.642351 1_555
O25 Si7 1.630384 1_555
O26 Si8 1.630384 1_554
O27 Si9 1.642351 1_555
O28 Si8 1.688525 1_555
O28 Si6 1.718182 1_555
O29 Si7 1.619302 1_555
O30 Si9 1.636136 1_455
O31 Si10 1.632656 1_555
O32 Si11 1.689938 1_555
O32 Si8 1.694097 1_554
O33 Si9 1.630283 1_555
O34 Si10 1.635685 1_555
O35 Si12 1.620771 1_455
O36 Si11 1.675735 1_555
O36 Si13 1.695162 1_555
O37 Si10 1.649626 1_555
O38 Si11 1.632291 1_556
O39 Si12 1.632291 1_555
O40 Si13 1.649626 1_555
O41 Si12 1.675735 1_555
O41 Si10 1.695162 1_555
O42 Si11 1.620771 1_555
O43 Si13 1.635685 1_655
O44 Si14 1.630283 1_555
O45 Si12 1.689938 1_555
O45 Si15 1.694097 1_555
O46 Si13 1.632656 1_555
O47 Si14 1.636136 1_555
O48 Si0 1.619302 1_664
O49 Si15 1.688525 1_555
O49 Si1 1.718182 1_565
O50 Si14 1.642351 1_555
O51 Si15 1.630384 1_555
