# generated using pymatgen
data_CeGa6
_symmetry_space_group_name_H-M   'P 1'
_cell_length_a   5.99564119
_cell_length_b   5.99564119
_cell_length_c   7.66840545
_cell_angle_alpha   90.00000000
_cell_angle_beta   90.00000000
_cell_angle_gamma   90.00000000
_symmetry_Int_Tables_number   1
_chemical_formula_structural   CeGa6
_chemical_formula_sum   'Ce2 Ga12'
_cell_volume   275.66164043
_cell_formula_units_Z   2
loop_
 _symmetry_equiv_pos_site_id
 _symmetry_equiv_pos_as_xyz
  1  'x, y, z'
loop_
 _atom_site_type_symbol
 _atom_site_label
 _atom_site_symmetry_multiplicity
 _atom_site_fract_x
 _atom_site_fract_y
 _atom_site_fract_z
 _atom_site_occupancy
  Ce  Ce0  1  0.25000000  0.75000000  -0.00000000  1
  Ce  Ce1  1  0.75000000  0.25000000  -0.00000000  1
  Ga  Ga0  1  0.95455468  0.04544532  0.34640908  1
  Ga  Ga1  1  0.54544532  0.45455468  0.34640908  1
  Ga  Ga2  1  0.25000000  0.25000000  0.16042056  1
  Ga  Ga3  1  0.25000000  0.25000000  0.83957944  1
  Ga  Ga4  1  0.75000000  0.75000000  0.83957944  1
  Ga  Ga5  1  0.75000000  0.75000000  0.16042056  1
  Ga  Ga6  1  0.45455468  0.54544532  0.65359092  1
  Ga  Ga7  1  0.95455468  0.45455468  0.65359092  1
  Ga  Ga8  1  0.54544532  0.04544532  0.65359092  1
  Ga  Ga9  1  0.45455468  0.95455468  0.34640908  1
  Ga  Ga10  1  0.04544532  0.54544532  0.34640908  1
  Ga  Ga11  1  0.04544532  0.95455468  0.65359092  1
loop_
_geom_bond_atom_site_label_1
_geom_bond_atom_site_label_2
_geom_bond_distance
_geom_bond_site_symmetry_2
Ce0 Ga10 3.172504 1_555
Ce0 Ga9 3.172504 1_555
Ce0 Ga11 3.172504 1_554
Ce0 Ga6 3.172504 1_554
Ce0 Ga2 3.240408 1_565
Ce0 Ga5 3.240408 1_555
Ce0 Ga4 3.240408 1_454
Ce0 Ga3 3.240408 1_564
Ce0 Ga5 3.240408 1_455
Ce0 Ga3 3.240408 1_554
Ce0 Ga4 3.240408 1_554
Ce0 Ga2 3.240408 1_555
Ce1 Ga0 3.172504 1_555
Ce1 Ga1 3.172504 1_555
Ce1 Ga7 3.172504 1_554
Ce1 Ga8 3.172504 1_554
Ce1 Ga5 3.240408 1_555
Ce1 Ga4 3.240408 1_544
Ce1 Ga5 3.240408 1_545
Ce1 Ga3 3.240408 1_654
Ce1 Ga3 3.240408 1_554
Ce1 Ga2 3.240408 1_655
Ce1 Ga4 3.240408 1_554
Ce1 Ga2 3.240408 1_555
Ga0 Ga11 2.478460 1_645
Ga0 Ga5 2.583814 1_545
Ga0 Ga2 2.583814 1_655
Ga1 Ga6 2.478460 1_555
Ga1 Ga5 2.583814 1_555
Ga1 Ga2 2.583814 1_555
Ga2 Ga3 2.460340 1_554
Ga2 Ga9 2.583814 1_545
Ga3 Ga8 2.583814 1_555
Ga3 Ga7 2.583814 1_455
Ga3 Ga6 2.583814 1_555
Ga4 Ga5 2.460340 1_556
Ga4 Ga7 2.583814 1_555
Ga4 Ga8 2.583814 1_565
Ga4 Ga6 2.583814 1_555
Ga5 Ga9 2.583814 1_555
Ga8 Ga9 2.478460 1_545
Ga10 Ga7 2.478460 1_455
Ga10 Ga5 2.583814 1_455
Ga10 Ga2 2.583814 1_555
Ga11 Ga3 2.583814 1_565
Ga11 Ga4 2.583814 1_455
