# generated using pymatgen
data_Na4TiO4
_symmetry_space_group_name_H-M   'P 1'
_cell_length_a   6.18900531
_cell_length_b   6.18900531
_cell_length_c   6.79332900
_cell_angle_alpha   90.00000000
_cell_angle_beta   90.00000000
_cell_angle_gamma   90.86480864
_symmetry_Int_Tables_number   1
_chemical_formula_structural   Na4TiO4
_chemical_formula_sum   'Na8 Ti2 O8'
_cell_volume   260.18058529
_cell_formula_units_Z   2
loop_
 _symmetry_equiv_pos_site_id
 _symmetry_equiv_pos_as_xyz
  1  'x, y, z'
loop_
 _atom_site_type_symbol
 _atom_site_label
 _atom_site_symmetry_multiplicity
 _atom_site_fract_x
 _atom_site_fract_y
 _atom_site_fract_z
 _atom_site_occupancy
  Na  Na0  1  0.83640000  0.16360000  0.50000000  1
  Na  Na1  1  0.83640000  0.16360000  0.00000000  1
  Na  Na2  1  0.86552000  0.55998300  0.25000000  1
  Na  Na3  1  0.44001700  0.13448000  0.75000000  1
  Na  Na4  1  0.13448000  0.44001700  0.75000000  1
  Na  Na5  1  0.55998300  0.86552000  0.25000000  1
  Na  Na6  1  0.16360000  0.83640000  0.00000000  1
  Na  Na7  1  0.16360000  0.83640000  0.50000000  1
  Ti  Ti0  1  0.66917300  0.66917300  0.75000000  1
  Ti  Ti1  1  0.33082700  0.33082700  0.25000000  1
  O  O0  1  0.62015100  0.26474100  0.25000000  1
  O  O1  1  0.73525900  0.37984900  0.75000000  1
  O  O2  1  0.79196000  0.79196000  0.97418200  1
  O  O3  1  0.20804000  0.20804000  0.47418200  1
  O  O4  1  0.20804000  0.20804000  0.02581800  1
  O  O5  1  0.79196000  0.79196000  0.52581800  1
  O  O6  1  0.37984900  0.73525900  0.75000000  1
  O  O7  1  0.26474100  0.62015100  0.25000000  1
loop_
_geom_bond_atom_site_label_1
_geom_bond_atom_site_label_2
_geom_bond_distance
_geom_bond_site_symmetry_2
Na0 O0 2.256695 1_555
Na0 O1 2.256695 1_555
Na0 O5 2.318984 1_545
Na0 O3 2.318984 1_655
Na1 O1 2.256695 1_554
Na1 O0 2.256695 1_555
Na1 O2 2.318984 1_544
Na1 O4 2.318984 1_655
Na2 O0 2.358222 1_555
Na2 O5 2.408129 1_555
Na2 O2 2.408129 1_554
Na2 O7 2.493121 1_655
Na3 O1 2.358222 1_555
Na3 O4 2.408129 1_556
Na3 O3 2.408129 1_555
Na3 O6 2.493121 1_545
Na4 O6 2.358222 1_555
Na4 O4 2.408129 1_556
Na4 O3 2.408129 1_555
Na4 O1 2.493121 1_455
Na5 O7 2.358222 1_555
Na5 O5 2.408129 1_555
Na5 O2 2.408129 1_554
Na5 O0 2.493121 1_565
Na6 O7 2.256695 1_555
Na6 O6 2.256695 1_554
Na6 O2 2.318984 1_454
Na6 O4 2.318984 1_565
Na7 O6 2.256695 1_555
Na7 O7 2.256695 1_555
Na7 O5 2.318984 1_455
Na7 O3 2.318984 1_565
O0 Ti1 1.842754 1_555
O1 Ti0 1.842754 1_555
O2 Ti0 1.859276 1_555
O3 Ti1 1.859276 1_555
O4 Ti1 1.859276 1_555
O5 Ti0 1.859276 1_555
O6 Ti0 1.842754 1_555
O7 Ti1 1.842754 1_555
