# generated using pymatgen
data_Li2Mn3Si3O10
_symmetry_space_group_name_H-M   'P 1'
_cell_length_a   8.42071358
_cell_length_b   8.42071358
_cell_length_c   10.61308863
_cell_angle_alpha   86.87308745
_cell_angle_beta   86.87308745
_cell_angle_gamma   33.92691597
_symmetry_Int_Tables_number   1
_chemical_formula_structural   Li2Mn3Si3O10
_chemical_formula_sum   'Li4 Mn6 Si6 O20'
_cell_volume   419.34496065
_cell_formula_units_Z   2
loop_
 _symmetry_equiv_pos_site_id
 _symmetry_equiv_pos_as_xyz
  1  'x, y, z'
loop_
 _atom_site_type_symbol
 _atom_site_label
 _atom_site_symmetry_multiplicity
 _atom_site_fract_x
 _atom_site_fract_y
 _atom_site_fract_z
 _atom_site_occupancy
  Li  Li0  1  0.25049200  0.86480300  0.02486600  1
  Li  Li1  1  0.86480300  0.25049200  0.52486600  1
  Li  Li2  1  0.13519700  0.74950800  0.47513400  1
  Li  Li3  1  0.74950800  0.13519700  0.97513400  1
  Mn  Mn0  1  0.37453300  0.92943500  0.29265100  1
  Mn  Mn1  1  0.92943500  0.37453300  0.79265100  1
  Mn  Mn2  1  0.50000000  0.00000000  0.00000000  1
  Mn  Mn3  1  0.00000000  0.50000000  0.50000000  1
  Mn  Mn4  1  0.07056500  0.62546700  0.20734900  1
  Mn  Mn5  1  0.62546700  0.07056500  0.70734900  1
  Si  Si0  1  0.83552700  0.47092400  0.09904800  1
  Si  Si1  1  0.47092400  0.83552700  0.59904800  1
  Si  Si2  1  0.52907600  0.16447300  0.40095200  1
  Si  Si3  1  0.16447300  0.52907600  0.90095200  1
  Si  Si4  1  0.79890300  0.20109700  0.25000000  1
  Si  Si5  1  0.20109700  0.79890300  0.75000000  1
  O  O0  1  0.02030500  0.06269300  0.35929500  1
  O  O1  1  0.64320500  0.49342000  0.18384400  1
  O  O2  1  0.06269300  0.02030500  0.85929500  1
  O  O3  1  0.49342000  0.64320500  0.68384400  1
  O  O4  1  0.16703200  0.13896000  0.10275700  1
  O  O5  1  0.60626800  0.68785400  0.46024000  1
  O  O6  1  0.13896000  0.16703200  0.60275700  1
  O  O7  1  0.68785400  0.60626800  0.96024000  1
  O  O8  1  0.76091000  0.70071000  0.16534900  1
  O  O9  1  0.70071000  0.76091000  0.66534900  1
  O  O10  1  0.29929000  0.23909000  0.33465100  1
  O  O11  1  0.23909000  0.29929000  0.83465100  1
  O  O12  1  0.31214600  0.39373200  0.03976000  1
  O  O13  1  0.86104000  0.83296800  0.39724300  1
  O  O14  1  0.39373200  0.31214600  0.53976000  1
  O  O15  1  0.83296800  0.86104000  0.89724300  1
  O  O16  1  0.50658100  0.35679500  0.31615600  1
  O  O17  1  0.93730700  0.97969500  0.14070500  1
  O  O18  1  0.35679500  0.50658000  0.81615600  1
  O  O19  1  0.97969500  0.93730700  0.64070500  1
loop_
_geom_bond_atom_site_label_1
_geom_bond_atom_site_label_2
_geom_bond_distance
_geom_bond_site_symmetry_2
Li0 O2 1.979649 1_564
Li0 O4 1.989787 1_565
Li0 O17 2.223599 1_455
Li0 O7 2.314178 1_554
Li0 O1 2.536434 1_555
Li1 O0 1.979649 1_655
Li1 O6 1.989787 1_655
Li1 O19 2.223599 1_545
Li1 O5 2.314178 1_555
Li1 O3 2.536434 1_555
Li2 O19 1.979649 1_455
Li2 O13 1.989787 1_455
Li2 O0 2.223599 1_565
Li2 O14 2.314178 1_555
Li2 O16 2.536435 1_555
Li3 O17 1.979649 1_546
Li3 O15 1.989787 1_545
Li3 O2 2.223599 1_655
Li3 O12 2.314178 1_556
Li3 O18 2.536434 1_555
Mn0 O5 2.122734 1_555
Mn0 O10 2.180270 1_565
Mn0 O0 2.226812 1_565
Mn0 O4 2.260075 1_565
Mn0 O8 2.350704 1_555
Mn0 O1 2.514979 1_555
Mn1 O7 2.122734 1_555
Mn1 O11 2.180270 1_655
Mn1 O2 2.226812 1_655
Mn1 O6 2.260075 1_655
Mn1 O9 2.350704 1_555
Mn1 O3 2.514979 1_555
Mn2 O15 2.186559 1_544
Mn2 O4 2.186559 1_555
Mn2 O8 2.237743 1_545
Mn2 O11 2.237743 1_554
Mn2 O12 2.247041 1_555
Mn2 O7 2.247041 1_544
Mn3 O13 2.186559 1_455
Mn3 O6 2.186559 1_555
Mn3 O9 2.237743 1_455
Mn3 O10 2.237743 1_555
Mn3 O14 2.247041 1_555
Mn3 O5 2.247041 1_455
Mn4 O12 2.122734 1_555
Mn4 O8 2.180270 1_455
Mn4 O17 2.226812 1_455
Mn4 O13 2.260075 1_455
Mn4 O10 2.350704 1_555
Mn4 O16 2.514985 1_555
Mn5 O14 2.122734 1_555
Mn5 O9 2.180270 1_545
Mn5 O19 2.226812 1_545
Mn5 O15 2.260075 1_545
Mn5 O11 2.350704 1_555
Mn5 O18 2.514979 1_555
O0 Si4 1.631644 1_455
O1 Si0 1.678994 1_555
O1 Si4 1.681475 1_555
O2 Si5 1.631644 1_545
O3 Si1 1.678994 1_555
O3 Si5 1.681475 1_555
O4 Si0 1.630513 1_455
O5 Si1 1.637160 1_555
O6 Si1 1.630513 1_545
O7 Si0 1.637160 1_556
O8 Si0 1.648244 1_555
O9 Si1 1.648244 1_555
O10 Si2 1.648244 1_555
O11 Si3 1.648244 1_555
O12 Si3 1.637160 1_554
O13 Si2 1.630513 1_565
O14 Si2 1.637160 1_555
O15 Si3 1.630513 1_655
O16 Si2 1.679000 1_555
O16 Si4 1.681468 1_555
O17 Si4 1.631644 1_565
O18 Si3 1.678994 1_555
O18 Si5 1.681475 1_555
O19 Si5 1.631644 1_655
