# generated using pymatgen
data_Li3Mn2F9
_symmetry_space_group_name_H-M   'P 1'
_cell_length_a   5.29811400
_cell_length_b   5.32864186
_cell_length_c   15.17729131
_cell_angle_alpha   92.08517508
_cell_angle_beta   93.16868914
_cell_angle_gamma   118.37619038
_symmetry_Int_Tables_number   1
_chemical_formula_structural   Li3Mn2F9
_chemical_formula_sum   'Li6 Mn4 F18'
_cell_volume   375.46284732
_cell_formula_units_Z   2
loop_
 _symmetry_equiv_pos_site_id
 _symmetry_equiv_pos_as_xyz
  1  'x, y, z'
loop_
 _atom_site_type_symbol
 _atom_site_label
 _atom_site_symmetry_multiplicity
 _atom_site_fract_x
 _atom_site_fract_y
 _atom_site_fract_z
 _atom_site_occupancy
  Li  Li0  1  0.24862200  0.97828200  0.54580700  1
  Li  Li1  1  0.38602500  0.10025600  0.75414400  1
  Li  Li2  1  0.55821600  0.23256400  0.95518200  1
  Li  Li3  1  0.46940800  0.74253100  0.04248700  1
  Li  Li4  1  0.72544000  0.04052800  0.45224600  1
  Li  Li5  1  0.59453800  0.88126600  0.25381600  1
  Mn  Mn0  1  0.83117900  0.83135000  0.85157700  1
  Mn  Mn1  1  0.65207600  0.69015500  0.65055600  1
  Mn  Mn2  1  0.32288800  0.32018000  0.35020800  1
  Mn  Mn3  1  0.18710300  0.15415700  0.14973900  1
  F  F0  1  0.48688000  0.46940700  0.23075400  1
  F  F1  1  0.25688100  0.97513400  0.87317500  1
  F  F2  1  0.91766100  0.66569700  0.58397300  1
  F  F3  1  0.39332000  0.28930500  0.63257700  1
  F  F4  1  0.62471600  0.61936100  0.94590300  1
  F  F5  1  0.25609300  0.94452900  0.23718400  1
  F  F6  1  0.73164900  0.48489800  0.78647000  1
  F  F7  1  0.64559000  0.33530000  0.40564700  1
  F  F8  1  0.40399200  0.06135900  0.06063300  1
  F  F9  1  0.84889300  0.15365000  0.90393800  1
  F  F10  1  0.56063900  0.89931100  0.55816800  1
  F  F11  1  0.97404100  0.23181100  0.28593300  1
  F  F12  1  0.47475000  0.74157700  0.37080900  1
  F  F13  1  0.15290600  0.40928500  0.07869100  1
  F  F14  1  0.96569900  0.99656300  0.73462000  1
  F  F15  1  0.11229900  0.11202500  0.44508600  1
  F  F16  1  0.79080700  0.88474100  0.12992600  1
  F  F17  1  0.42749000  0.75447800  0.73075000  1
loop_
_geom_bond_atom_site_label_1
_geom_bond_atom_site_label_2
_geom_bond_distance
_geom_bond_site_symmetry_2
F0 Mn3 1.988499 1_555
F0 Li5 1.999128 1_555
F0 Mn2 2.072795 1_555
F1 Li2 1.885236 1_565
F1 Li1 1.991748 1_565
F1 Mn0 2.009687 1_455
F2 Mn1 1.827580 1_555
F2 Li0 1.894979 1_655
F3 Li0 1.894901 1_545
F3 Mn1 1.910282 1_555
F3 Li1 2.127596 1_555
F4 Mn0 1.907455 1_555
F4 Li2 1.930926 1_555
F4 Li3 1.957884 1_556
F5 Mn3 1.893439 1_565
F5 Li5 1.980746 1_555
F5 Mn2 2.466649 1_565
F6 Mn0 1.883342 1_555
F6 Li1 2.013660 1_555
F6 Mn1 2.476995 1_555
F7 Mn2 1.828300 1_555
F7 Li4 1.955957 1_555
F8 Li2 1.898334 1_554
F8 Li3 1.902230 1_545
F8 Mn3 2.014235 1_555
F9 Mn0 1.824587 1_545
F9 Li2 1.969162 1_555
F10 Li4 1.879284 1_565
F10 Li0 1.891480 1_555
F10 Mn1 1.998707 1_555
F11 Mn2 1.878654 1_655
F11 Li5 2.006231 1_545
F12 Li4 1.869101 1_565
F12 Li5 1.970143 1_555
F12 Mn2 1.997772 1_555
F13 Mn3 1.833847 1_555
F13 Li3 1.899896 1_555
F14 Mn1 2.022356 1_555
F14 Mn0 2.022651 1_555
F14 Li1 2.024325 1_665
F15 Li4 1.908748 1_455
F15 Mn2 1.914744 1_555
F15 Li0 1.952656 1_545
F16 Mn3 1.895659 1_665
F16 Li3 1.919750 1_555
F16 Li5 2.194906 1_555
F17 Mn1 1.879389 1_555
F17 Li1 1.978636 1_565
