# generated using pymatgen
data_Li3Fe2(SiO4)2
_symmetry_space_group_name_H-M   'P 1'
_cell_length_a   6.58835000
_cell_length_b   5.23290900
_cell_length_c   10.61690662
_cell_angle_alpha   89.41276892
_cell_angle_beta   90.00000000
_cell_angle_gamma   90.00000000
_symmetry_Int_Tables_number   1
_chemical_formula_structural   Li3Fe2(SiO4)2
_chemical_formula_sum   'Li6 Fe4 Si4 O16'
_cell_volume   366.01175369
_cell_formula_units_Z   2
loop_
 _symmetry_equiv_pos_site_id
 _symmetry_equiv_pos_as_xyz
  1  'x, y, z'
loop_
 _atom_site_type_symbol
 _atom_site_label
 _atom_site_symmetry_multiplicity
 _atom_site_fract_x
 _atom_site_fract_y
 _atom_site_fract_z
 _atom_site_occupancy
  Li  Li0  1  0.50015300  0.63295600  0.91684900  1
  Li  Li1  1  0.74818100  0.23413200  0.84115400  1
  Li  Li2  1  0.25249100  0.75750800  0.65926500  1
  Li  Li3  1  0.49984700  0.63295600  0.41684900  1
  Li  Li4  1  0.25181900  0.23413200  0.34115400  1
  Li  Li5  1  0.74750900  0.75750800  0.15926500  1
  Fe  Fe0  1  0.23248500  0.24710500  0.82701700  1
  Fe  Fe1  1  0.76744600  0.75261200  0.66648500  1
  Fe  Fe2  1  0.76751500  0.24710500  0.32701700  1
  Fe  Fe3  1  0.23255400  0.75261200  0.16648500  1
  Si  Si0  1  0.00275400  0.74857100  0.91017900  1
  Si  Si1  1  0.50845300  0.25200200  0.59242700  1
  Si  Si2  1  0.99724600  0.74857100  0.41017900  1
  Si  Si3  1  0.49154700  0.25200200  0.09242700  1
  O  O0  1  0.48239200  0.21120900  0.93667300  1
  O  O1  1  0.00132900  0.05821800  0.88445900  1
  O  O2  1  0.79166500  0.62815300  0.84443800  1
  O  O3  1  0.21025800  0.62927200  0.84195100  1
  O  O4  1  0.70183600  0.11356000  0.66560600  1
  O  O5  1  0.29871400  0.14281200  0.65572700  1
  O  O6  1  0.51863500  0.57094500  0.60902400  1
  O  O7  1  0.99947600  0.68252100  0.56302700  1
  O  O8  1  0.51760800  0.21120900  0.43667300  1
  O  O9  1  0.99867100  0.05821800  0.38445900  1
  O  O10  1  0.20833500  0.62815300  0.34443800  1
  O  O11  1  0.78974200  0.62927200  0.34195100  1
  O  O12  1  0.29816400  0.11356000  0.16560600  1
  O  O13  1  0.70128600  0.14281200  0.15572700  1
  O  O14  1  0.48136500  0.57094500  0.10902400  1
  O  O15  1  0.00052400  0.68252100  0.06302700  1
loop_
_geom_bond_atom_site_label_1
_geom_bond_atom_site_label_2
_geom_bond_distance
_geom_bond_site_symmetry_2
Li0 O14 2.066371 1_556
Li0 O2 2.068983 1_555
Li0 O3 2.069018 1_555
Li0 O0 2.217917 1_555
Li1 O1 1.957487 1_655
Li1 O4 1.997270 1_555
Li1 O0 2.026504 1_555
Li1 O2 2.082330 1_555
Li2 O7 1.996220 1_455
Li2 O5 2.039095 1_565
Li2 O3 2.064689 1_555
Li2 O6 2.079153 1_555
Li3 O6 2.066371 1_555
Li3 O10 2.068983 1_555
Li3 O11 2.069018 1_555
Li3 O8 2.217917 1_555
Li4 O9 1.957487 1_455
Li4 O12 1.997270 1_555
Li4 O8 2.026504 1_555
Li4 O10 2.082330 1_555
Li5 O15 1.996220 1_655
Li5 O13 2.039095 1_565
Li5 O11 2.064689 1_555
Li5 O14 2.079153 1_555
Fe0 O1 1.912040 1_555
Fe0 O5 1.953403 1_555
Fe0 O3 2.013073 1_555
Fe0 O0 2.024120 1_555
Fe1 O7 1.919944 1_555
Fe1 O4 1.937569 1_565
Fe1 O6 1.993726 1_555
Fe1 O2 1.998475 1_555
Fe2 O9 1.912040 1_555
Fe2 O13 1.953403 1_555
Fe2 O11 2.013073 1_555
Fe2 O8 2.024120 1_555
Fe3 O15 1.919944 1_555
Fe3 O12 1.937569 1_565
Fe3 O14 1.993726 1_555
Fe3 O10 1.998475 1_555
O0 Si3 1.670604 1_556
O1 Si0 1.640467 1_545
O2 Si0 1.681478 1_655
O3 Si0 1.671136 1_555
O4 Si1 1.655352 1_555
O5 Si1 1.636986 1_555
O6 Si1 1.681409 1_555
O7 Si2 1.655770 1_555
O8 Si1 1.670604 1_555
O9 Si2 1.640467 1_545
O10 Si2 1.681478 1_455
O11 Si2 1.671136 1_555
O12 Si3 1.655352 1_555
O13 Si3 1.636986 1_555
O14 Si3 1.681409 1_555
O15 Si0 1.655770 1_554
