# generated using pymatgen
data_Ba2LaI7
_symmetry_space_group_name_H-M   'P 1'
_cell_length_a   15.43934900
_cell_length_b   8.43631300
_cell_length_c   14.97362549
_cell_angle_alpha   80.09674867
_cell_angle_beta   90.00000000
_cell_angle_gamma   90.00000000
_symmetry_Int_Tables_number   1
_chemical_formula_structural   Ba2LaI7
_chemical_formula_sum   'Ba8 La4 I28'
_cell_volume   1921.27160364
_cell_formula_units_Z   4
loop_
 _symmetry_equiv_pos_site_id
 _symmetry_equiv_pos_as_xyz
  1  'x, y, z'
loop_
 _atom_site_type_symbol
 _atom_site_label
 _atom_site_symmetry_multiplicity
 _atom_site_fract_x
 _atom_site_fract_y
 _atom_site_fract_z
 _atom_site_occupancy
  Ba  Ba0  1  0.54593300  0.78492000  0.75065100  1
  Ba  Ba1  1  0.13320600  0.74439400  0.63885800  1
  Ba  Ba2  1  0.79068300  0.75797600  0.13781000  1
  Ba  Ba3  1  0.36340300  0.67926500  0.24129200  1
  Ba  Ba4  1  0.86340300  0.32073500  0.75870800  1
  Ba  Ba5  1  0.29068300  0.24202400  0.86219000  1
  Ba  Ba6  1  0.63320600  0.25560600  0.36114200  1
  Ba  Ba7  1  0.04593300  0.21508000  0.24934900  1
  La  La0  1  0.84632000  0.82149300  0.55004100  1
  La  La1  1  0.07397800  0.80644200  0.04824600  1
  La  La2  1  0.57397800  0.19355800  0.95175400  1
  La  La3  1  0.34632000  0.17850700  0.44995900  1
  I  I0  1  0.70918800  0.94973900  0.88755600  1
  I  I1  1  0.42627500  0.92757700  0.98917000  1
  I  I2  1  0.50951300  0.95366500  0.50970000  1
  I  I3  1  0.16049800  0.88280600  0.85791100  1
  I  I4  1  0.23971500  0.88151200  0.39858100  1
  I  I5  1  0.76209800  0.89007800  0.35774600  1
  I  I6  1  0.92297300  0.78550500  0.74833700  1
  I  I7  1  0.00145400  0.79371600  0.25031100  1
  I  I8  1  0.33990600  0.61422300  0.71723900  1
  I  I9  1  0.58623400  0.61800400  0.21144100  1
  I  I10  1  0.69281400  0.58098300  0.62051500  1
  I  I11  1  0.70724900  0.47864500  0.89271500  1
  I  I12  1  0.96017800  0.51179300  0.54252500  1
  I  I13  1  0.44143400  0.46354100  0.97391600  1
  I  I14  1  0.94143400  0.53645900  0.02608400  1
  I  I15  1  0.46017800  0.48820700  0.45747500  1
  I  I16  1  0.20724900  0.52135500  0.10728500  1
  I  I17  1  0.19281400  0.41901700  0.37948500  1
  I  I18  1  0.08623400  0.38199600  0.78855900  1
  I  I19  1  0.83990600  0.38577700  0.28276100  1
  I  I20  1  0.50145400  0.20628400  0.74968900  1
  I  I21  1  0.42297300  0.21449500  0.25166300  1
  I  I22  1  0.26209800  0.10992200  0.64225400  1
  I  I23  1  0.73971500  0.11848800  0.60141900  1
  I  I24  1  0.66049800  0.11719400  0.14208900  1
  I  I25  1  0.00951300  0.04633500  0.49030000  1
  I  I26  1  0.92627500  0.07242300  0.01083000  1
  I  I27  1  0.20918800  0.05026100  0.11244400  1
loop_
_geom_bond_atom_site_label_1
_geom_bond_atom_site_label_2
_geom_bond_distance
_geom_bond_site_symmetry_2
Ba0 I8 3.562322 1_555
Ba0 I10 3.612888 1_555
Ba0 I20 3.618079 1_565
Ba0 I0 3.670065 1_555
Ba0 I2 3.686883 1_555
Ba0 I11 3.938756 1_555
Ba1 I8 3.510636 1_555
Ba1 I18 3.541241 1_555
Ba1 I25 3.624202 1_565
Ba1 I22 3.677760 1_565
Ba1 I6 3.679505 1_455
Ba1 I3 3.690119 1_555
Ba1 I12 3.747196 1_455
Ba1 I4 3.943984 1_555
Ba2 I9 3.482242 1_555
Ba2 I14 3.575434 1_555
Ba2 I19 3.578224 1_555
Ba2 I24 3.646184 1_565
Ba2 I26 3.646910 1_565
Ba2 I5 3.680304 1_555
Ba2 I7 3.700395 1_655
Ba2 I0 4.019542 1_554
Ba3 I9 3.518872 1_555
Ba3 I16 3.540199 1_555
Ba3 I4 3.672483 1_555
Ba3 I15 3.676168 1_555
Ba3 I17 3.804771 1_555
Ba3 I21 4.004295 1_555
Ba3 I1 4.106379 1_554
Ba3 I27 4.136446 1_565
Ba4 I18 3.518872 1_655
Ba4 I11 3.540199 1_555
Ba4 I23 3.672483 1_555
Ba4 I12 3.676168 1_555
Ba4 I10 3.804771 1_555
Ba4 I6 4.004295 1_555
Ba4 I26 4.106379 1_556
Ba4 I0 4.136446 1_545
Ba5 I18 3.482242 1_555
Ba5 I13 3.575434 1_555
Ba5 I8 3.578224 1_555
Ba5 I3 3.646184 1_545
Ba5 I1 3.646910 1_545
Ba5 I22 3.680304 1_555
Ba5 I20 3.700395 1_555
Ba5 I27 4.019542 1_556
Ba6 I19 3.510636 1_555
Ba6 I9 3.541241 1_555
Ba6 I2 3.624202 1_545
Ba6 I5 3.677760 1_545
Ba6 I21 3.679505 1_555
Ba6 I24 3.690119 1_555
Ba6 I15 3.747196 1_555
Ba6 I23 3.943984 1_555
Ba7 I19 3.562322 1_455
Ba7 I17 3.612888 1_555
Ba7 I7 3.618079 1_545
Ba7 I27 3.670065 1_555
Ba7 I25 3.686883 1_555
Ba7 I16 3.938756 1_555
I0 La2 3.192654 1_565
I1 La2 3.180714 1_565
I2 La3 3.187930 1_565
I3 La1 3.112942 1_556
I4 La3 3.200256 1_565
I5 La0 3.121421 1_555
I6 La0 3.162106 1_555
I7 La1 3.210624 1_555
I10 La0 3.179786 1_555
I11 La2 3.173072 1_555
I12 La0 3.167070 1_555
I13 La2 3.121789 1_555
I14 La1 3.121789 1_655
I15 La3 3.167070 1_555
I16 La1 3.173072 1_555
I17 La3 3.179786 1_555
I20 La2 3.210624 1_555
I21 La3 3.162106 1_555
I22 La3 3.121421 1_555
I23 La0 3.200256 1_545
I24 La2 3.112942 1_554
I25 La0 3.187930 1_445
I26 La1 3.180714 1_645
I27 La1 3.192654 1_545
