# generated using pymatgen
data_Li2V(Si2O5)3
_symmetry_space_group_name_H-M   'P 1'
_cell_length_a   9.75245569
_cell_length_b   9.75245569
_cell_length_c   9.75245569
_cell_angle_alpha   131.77905279
_cell_angle_beta   118.29041557
_cell_angle_gamma   81.94053430
_symmetry_Int_Tables_number   1
_chemical_formula_structural   Li2V(Si2O5)3
_chemical_formula_sum   'Li4 V2 Si12 O30'
_cell_volume   586.90673829
_cell_formula_units_Z   2
loop_
 _symmetry_equiv_pos_site_id
 _symmetry_equiv_pos_as_xyz
  1  'x, y, z'
loop_
 _atom_site_type_symbol
 _atom_site_label
 _atom_site_symmetry_multiplicity
 _atom_site_fract_x
 _atom_site_fract_y
 _atom_site_fract_z
 _atom_site_occupancy
  Li  Li0  1  0.74539200  0.24539200  0.00000000  1
  Li  Li1  1  0.74539200  0.74539200  0.50000000  1
  Li  Li2  1  0.25460800  0.75460800  0.00000000  1
  Li  Li3  1  0.25460800  0.25460800  0.50000000  1
  V  V0  1  0.50000000  0.50000000  0.00000000  1
  V  V1  1  0.00000000  0.00000000  0.00000000  1
  Si  Si0  1  0.42164100  0.14881800  0.27282400  1
  Si  Si1  1  0.62400600  0.35118200  0.27282400  1
  Si  Si2  1  0.31832500  0.04177300  0.65133200  1
  Si  Si3  1  0.31832500  0.66699300  0.27655200  1
  Si  Si4  1  0.10955900  0.83300700  0.65133200  1
  Si  Si5  1  0.10955900  0.45822700  0.27655200  1
  Si  Si6  1  0.68167500  0.95822700  0.34866800  1
  Si  Si7  1  0.68167500  0.33300700  0.72344800  1
  Si  Si8  1  0.89044100  0.16699300  0.34866800  1
  Si  Si9  1  0.89044100  0.54177300  0.72344800  1
  Si  Si10  1  0.57835900  0.85118200  0.72717600  1
  Si  Si11  1  0.37599400  0.64881800  0.72717600  1
  O  O0  1  0.54263400  0.75000000  0.79263400  1
  O  O1  1  0.40265900  0.56848300  0.83417600  1
  O  O2  1  0.76569300  0.93151700  0.83417600  1
  O  O3  1  0.27342600  0.87468200  0.39874400  1
  O  O4  1  0.50745400  0.29983100  0.53597900  1
  O  O5  1  0.50745400  0.97147500  0.20762300  1
  O  O6  1  0.73614800  0.20016900  0.20762300  1
  O  O7  1  0.73614800  0.52852500  0.53597900  1
  O  O8  1  0.02406200  0.62531800  0.39874400  1
  O  O9  1  0.98382800  0.25021100  0.09026000  1
  O  O10  1  0.98382800  0.89356900  0.73361700  1
  O  O11  1  0.34004800  0.60643100  0.09026000  1
  O  O12  1  0.34004800  0.24978900  0.73361700  1
  O  O13  1  0.17879000  0.99353100  0.67232100  1
  O  O14  1  0.17879000  0.50646900  0.18525900  1
  O  O15  1  0.82121000  0.00646900  0.32767900  1
  O  O16  1  0.82121000  0.49353100  0.81474100  1
  O  O17  1  0.01617200  0.10643100  0.26638300  1
  O  O18  1  0.01617200  0.74978900  0.90974000  1
  O  O19  1  0.65995200  0.39356900  0.90974000  1
  O  O20  1  0.65995200  0.75021100  0.26638300  1
  O  O21  1  0.72657400  0.12531800  0.60125600  1
  O  O22  1  0.49254600  0.70016900  0.46402100  1
  O  O23  1  0.49254600  0.02852500  0.79237700  1
  O  O24  1  0.26385200  0.47147500  0.46402100  1
  O  O25  1  0.26385200  0.79983100  0.79237700  1
  O  O26  1  0.97593800  0.37468200  0.60125600  1
  O  O27  1  0.59734100  0.43151700  0.16582400  1
  O  O28  1  0.23430700  0.06848300  0.16582400  1
  O  O29  1  0.45736600  0.25000000  0.20736600  1
loop_
_geom_bond_atom_site_label_1
_geom_bond_atom_site_label_2
_geom_bond_distance
_geom_bond_site_symmetry_2
Li0 O9 2.054156 1_555
Li0 O19 2.054164 1_554
Li0 O2 2.358330 1_544
Li0 O27 2.358330 1_555
Li0 O6 2.382591 1_555
Li0 O23 2.382591 1_554
Li1 O20 2.054157 1_555
Li1 O10 2.054157 1_555
Li1 O27 2.358330 1_555
Li1 O2 2.358330 1_555
Li1 O7 2.382591 1_555
Li1 O22 2.382591 1_555
Li2 O18 2.054156 1_554
Li2 O11 2.054164 1_555
Li2 O1 2.358330 1_554
Li2 O28 2.358330 1_565
Li2 O25 2.382591 1_554
Li2 O5 2.382591 1_555
Li3 O12 2.054157 1_555
Li3 O17 2.054157 1_555
Li3 O1 2.358330 1_555
Li3 O28 2.358330 1_555
Li3 O24 2.382591 1_555
Li3 O4 2.382591 1_555
O0 Si11 1.627648 1_555
O0 Si10 1.627653 1_555
O1 Si11 1.595436 1_555
O1 V0 1.941342 1_556
O2 Si10 1.595427 1_555
O2 V1 1.941342 1_666
O3 Si3 1.656498 1_555
O3 Si2 1.656498 1_565
O4 Si0 1.651991 1_555
O4 Si7 1.659998 1_555
O5 Si0 1.651997 1_565
O5 Si6 1.659998 1_555
O6 Si1 1.651992 1_555
O6 Si8 1.659998 1_555
O7 Si1 1.651992 1_555
O7 Si9 1.659998 1_555
O8 Si5 1.656498 1_555
O8 Si4 1.656498 1_555
O9 Si5 1.610719 1_655
O9 V1 1.978793 1_655
O10 Si4 1.610718 1_655
O10 V1 1.978797 1_666
O11 Si3 1.610709 1_555
O11 V0 1.978801 1_555
O12 Si2 1.610718 1_555
O12 V0 1.978797 1_556
O13 Si2 1.639186 1_565
O13 Si4 1.639186 1_555
O14 Si5 1.639186 1_555
O14 Si3 1.639186 1_555
O15 Si6 1.639186 1_545
O15 Si8 1.639186 1_555
O16 Si7 1.639186 1_555
O16 Si9 1.639186 1_555
O17 Si8 1.610718 1_455
O17 V1 1.978797 1_555
O18 Si9 1.610719 1_455
O18 V1 1.978793 1_566
O19 Si7 1.610709 1_555
O19 V0 1.978801 1_556
O20 Si6 1.610718 1_555
O20 V0 1.978797 1_555
O21 Si7 1.656498 1_555
O21 Si6 1.656498 1_545
O22 Si10 1.651991 1_555
O22 Si3 1.659998 1_555
O23 Si10 1.651997 1_545
O23 Si2 1.659998 1_555
O24 Si11 1.651992 1_555
O24 Si5 1.659998 1_555
O25 Si11 1.651992 1_555
O25 Si4 1.659998 1_555
O26 Si9 1.656498 1_555
O26 Si8 1.656498 1_555
O27 Si1 1.595436 1_555
O27 V0 1.941342 1_555
O28 Si0 1.595427 1_555
O28 V1 1.941342 1_555
O29 Si1 1.627648 1_555
O29 Si0 1.627653 1_555
