# generated using pymatgen
data_CuH8CN5Cl3
_symmetry_space_group_name_H-M   'P 1'
_cell_length_a   14.05400200
_cell_length_b   9.53885700
_cell_length_c   13.10539512
_cell_angle_alpha   52.81410077
_cell_angle_beta   90.00000000
_cell_angle_gamma   90.00000000
_symmetry_Int_Tables_number   1
_chemical_formula_structural   CuH8CN5Cl3
_chemical_formula_sum   'Cu4 H32 C4 N20 Cl12'
_cell_volume   1399.68293696
_cell_formula_units_Z   4
loop_
 _symmetry_equiv_pos_site_id
 _symmetry_equiv_pos_as_xyz
  1  'x, y, z'
loop_
 _atom_site_type_symbol
 _atom_site_label
 _atom_site_symmetry_multiplicity
 _atom_site_fract_x
 _atom_site_fract_y
 _atom_site_fract_z
 _atom_site_occupancy
  Cu  Cu0  1  0.88145900  0.34313200  0.12345500  1
  Cu  Cu1  1  0.61854100  0.34313200  0.62345500  1
  Cu  Cu2  1  0.11854100  0.65686800  0.87654500  1
  Cu  Cu3  1  0.38145900  0.65686800  0.37654500  1
  H  H0  1  0.88667100  0.89619400  0.48825100  1
  H  H1  1  0.61332900  0.89619400  0.98825100  1
  H  H2  1  0.11332900  0.10380600  0.51174900  1
  H  H3  1  0.38667100  0.10380600  0.01174900  1
  H  H4  1  0.84490500  0.72534300  0.49670200  1
  H  H5  1  0.65509500  0.72534300  0.99670200  1
  H  H6  1  0.15509500  0.27465700  0.50329800  1
  H  H7  1  0.34490500  0.27465700  0.00329800  1
  H  H8  1  0.10034600  0.73222000  0.36675200  1
  H  H9  1  0.39965400  0.73222000  0.86675200  1
  H  H10  1  0.89965400  0.26778000  0.63324800  1
  H  H11  1  0.60034600  0.26778000  0.13324800  1
  H  H12  1  0.87050700  0.95355300  0.87208800  1
  H  H13  1  0.62949300  0.95355300  0.37208800  1
  H  H14  1  0.12949300  0.04644700  0.12791200  1
  H  H15  1  0.37050700  0.04644700  0.62791200  1
  H  H16  1  0.76182600  0.50873500  0.85466500  1
  H  H17  1  0.73817400  0.50873500  0.35466500  1
  H  H18  1  0.23817400  0.49126500  0.14533500  1
  H  H19  1  0.26182600  0.49126500  0.64533500  1
  H  H20  1  0.05830400  0.97583800  0.70245600  1
  H  H21  1  0.44169600  0.97583800  0.20245600  1
  H  H22  1  0.94169600  0.02416200  0.29754400  1
  H  H23  1  0.55830400  0.02416200  0.79754400  1
  H  H24  1  0.01446200  0.48371500  0.52930600  1
  H  H25  1  0.48553800  0.48371500  0.02930600  1
  H  H26  1  0.98553800  0.51628500  0.47069400  1
  H  H27  1  0.51446200  0.51628500  0.97069400  1
  H  H28  1  0.76012500  0.59811100  0.83982000  1
  H  H29  1  0.73987500  0.59811100  0.33982000  1
  H  H30  1  0.23987500  0.40188900  0.16018000  1
  H  H31  1  0.26012500  0.40188900  0.66018000  1
  C  C0  1  0.83241300  0.02683700  0.15973600  1
  C  C1  1  0.66758700  0.02683700  0.65973600  1
  C  C2  1  0.16758700  0.97316300  0.84026400  1
  C  C3  1  0.33241300  0.97316300  0.34026400  1
  N  N0  1  0.84407400  0.88577900  0.27227300  1
  N  N1  1  0.65592600  0.88577900  0.77227300  1
  N  N2  1  0.15592600  0.11422100  0.72772700  1
  N  N3  1  0.34407400  0.11422100  0.22772700  1
  N  N4  1  0.85149200  0.21155700  0.06978200  1
  N  N5  1  0.64850800  0.21155700  0.56978200  1
  N  N6  1  0.14850800  0.78844300  0.93021800  1
  N  N7  1  0.35149200  0.78844300  0.43021800  1
  N  N8  1  0.91817900  0.89781200  0.33842200  1
  N  N9  1  0.58182100  0.89781200  0.83842200  1
  N  N10  1  0.08182100  0.10218800  0.66157800  1
  N  N11  1  0.41817900  0.10218800  0.16157800  1
  N  N12  1  0.59840300  0.80825600  0.96974600  1
  N  N13  1  0.90159700  0.80825600  0.46974600  1
  N  N14  1  0.40159700  0.19174400  0.03025400  1
  N  N15  1  0.09840300  0.19174400  0.53025400  1
  N  N16  1  0.77944300  0.12938600  0.05358200  1
  N  N17  1  0.72055700  0.12938600  0.55358200  1
  N  N18  1  0.22055700  0.87061400  0.94641800  1
  N  N19  1  0.27944300  0.87061400  0.44641800  1
  Cl  Cl0  1  0.89121300  0.79396400  0.97036000  1
  Cl  Cl1  1  0.60878700  0.79396400  0.47036000  1
  Cl  Cl2  1  0.10878700  0.20603600  0.02964000  1
  Cl  Cl3  1  0.39121300  0.20603600  0.52964000  1
  Cl  Cl4  1  0.92198200  0.34553100  0.27527600  1
  Cl  Cl5  1  0.57801800  0.34553100  0.77527600  1
  Cl  Cl6  1  0.07801800  0.65446900  0.72472400  1
  Cl  Cl7  1  0.42198200  0.65446900  0.22472400  1
  Cl  Cl8  1  0.64744600  0.26469400  0.21918000  1
  Cl  Cl9  1  0.85255400  0.26469400  0.71918000  1
  Cl  Cl10  1  0.35255400  0.73530600  0.78082000  1
  Cl  Cl11  1  0.14744600  0.73530600  0.28082000  1
loop_
_geom_bond_atom_site_label_1
_geom_bond_atom_site_label_2
_geom_bond_distance
_geom_bond_site_symmetry_2
Cu0 N4 1.820586 1_555
Cu1 N5 1.820586 1_555
Cu2 N6 1.820586 1_555
Cu3 N7 1.820586 1_555
H0 N13 1.025844 1_555
H1 N12 1.025844 1_555
H2 N15 1.025844 1_555
H3 N14 1.025844 1_555
H4 N13 1.023418 1_555
H5 N12 1.023418 1_555
H6 N15 1.023418 1_555
H7 N14 1.023418 1_555
H16 H28 0.751504 1_555
H17 H29 0.751504 1_555
H18 H30 0.751504 1_555
H19 H31 0.751504 1_555
H20 N10 1.033602 1_565
H21 N11 1.033602 1_565
H22 N8 1.033602 1_545
H23 N9 1.033602 1_545
H24 H26 0.750545 1_455
H25 H27 0.750545 1_554
C0 N0 1.270300 1_545
C0 N16 1.342184 1_555
C0 N4 1.433674 1_555
C1 N1 1.270300 1_545
C1 N17 1.342184 1_555
C1 N5 1.433674 1_555
C2 N2 1.270300 1_565
C2 N18 1.342184 1_555
C2 N6 1.433674 1_555
C3 N3 1.270300 1_565
C3 N19 1.342184 1_555
C3 N7 1.433674 1_555
N0 N8 1.403443 1_555
N1 N9 1.403443 1_555
N10 N2 1.403443 1_555
N11 N3 1.403443 1_555
N16 N4 1.373286 1_555
N17 N5 1.373286 1_555
N18 N6 1.373286 1_555
N19 N7 1.373286 1_555
Cl0 H12 1.300310 1_555
Cl1 H13 1.300310 1_555
Cl2 H14 1.300310 1_555
Cl3 H15 1.300310 1_555
Cl4 Cu0 2.082956 1_555
Cl5 Cu1 2.082956 1_555
Cl6 Cu2 2.082956 1_555
Cl7 Cu3 2.082956 1_555
Cl8 H11 1.291212 1_555
Cl9 H10 1.291212 1_555
Cl10 H9 1.291212 1_555
Cl11 H8 1.291212 1_555
