# generated using pymatgen
data_BaP4O11
_symmetry_space_group_name_H-M   'P 1'
_cell_length_a   23.42396400
_cell_length_b   6.35097000
_cell_length_c   8.15421503
_cell_angle_alpha   73.21067485
_cell_angle_beta   90.00000000
_cell_angle_gamma   90.00000000
_symmetry_Int_Tables_number   1
_chemical_formula_structural   BaP4O11
_chemical_formula_sum   'Ba4 P16 O44'
_cell_volume   1161.35217634
_cell_formula_units_Z   4
loop_
 _symmetry_equiv_pos_site_id
 _symmetry_equiv_pos_as_xyz
  1  'x, y, z'
loop_
 _atom_site_type_symbol
 _atom_site_label
 _atom_site_symmetry_multiplicity
 _atom_site_fract_x
 _atom_site_fract_y
 _atom_site_fract_z
 _atom_site_occupancy
  Ba  Ba0  1  0.88645100  0.99265700  0.87032100  1
  Ba  Ba1  1  0.61354900  0.99265700  0.37032100  1
  Ba  Ba2  1  0.38645100  0.00734300  0.62967900  1
  Ba  Ba3  1  0.11354900  0.00734300  0.12967900  1
  P  P0  1  0.57376200  0.65575000  0.84420000  1
  P  P1  1  0.20274000  0.58991800  0.95083200  1
  P  P2  1  0.18025200  0.64079000  0.56738000  1
  P  P3  1  0.97064400  0.58396200  0.69992600  1
  P  P4  1  0.92623800  0.65575000  0.34420000  1
  P  P5  1  0.29726000  0.58991800  0.45083200  1
  P  P6  1  0.47064400  0.41603800  0.80007400  1
  P  P7  1  0.68025200  0.35921000  0.93262000  1
  P  P8  1  0.31974800  0.64079000  0.06738000  1
  P  P9  1  0.52935600  0.58396200  0.19992600  1
  P  P10  1  0.70274000  0.41008200  0.54916800  1
  P  P11  1  0.07376200  0.34425000  0.65580000  1
  P  P12  1  0.02935600  0.41603800  0.30007400  1
  P  P13  1  0.81974800  0.35921000  0.43262000  1
  P  P14  1  0.79726000  0.41008200  0.04916800  1
  P  P15  1  0.42623800  0.34425000  0.15580000  1
  O  O0  1  0.34360900  0.84784300  0.95715400  1
  O  O1  1  0.57508400  0.84883300  0.69137900  1
  O  O2  1  0.55050000  0.72252500  0.00391400  1
  O  O3  1  0.96709600  0.74244400  0.80198100  1
  O  O4  1  0.82951500  0.61936100  0.99012100  1
  O  O5  1  0.15639100  0.84784300  0.45715400  1
  O  O6  1  0.20462600  0.66581900  0.73996300  1
  O  O7  1  0.30965700  0.78775000  0.50723100  1
  O  O8  1  0.44302000  0.63580200  0.75469300  1
  O  O9  1  0.27094200  0.52896200  0.98658800  1
  O  O10  1  0.63691000  0.56275700  0.88964500  1
  O  O11  1  0.92491600  0.84883300  0.19137900  1
  O  O12  1  0.94950000  0.72252500  0.50391400  1
  O  O13  1  0.53290400  0.74244400  0.30198100  1
  O  O14  1  0.03972400  0.55587200  0.66601600  1
  O  O15  1  0.67048500  0.61936100  0.49012100  1
  O  O16  1  0.29537400  0.66581900  0.23996300  1
  O  O17  1  0.19034300  0.78775000  0.00723100  1
  O  O18  1  0.53972400  0.44412800  0.83398400  1
  O  O19  1  0.05698000  0.63580200  0.25469300  1
  O  O20  1  0.22905800  0.52896200  0.48658800  1
  O  O21  1  0.86309000  0.56275700  0.38964500  1
  O  O22  1  0.13691000  0.43724300  0.61035500  1
  O  O23  1  0.77094200  0.47103800  0.51341200  1
  O  O24  1  0.94302000  0.36419800  0.74530700  1
  O  O25  1  0.46027600  0.55587200  0.16601600  1
  O  O26  1  0.80965700  0.21225000  0.99276900  1
  O  O27  1  0.70462600  0.33418100  0.76003700  1
  O  O28  1  0.32951500  0.38063900  0.50987900  1
  O  O29  1  0.96027600  0.44412800  0.33398400  1
  O  O30  1  0.46709600  0.25755600  0.69801900  1
  O  O31  1  0.05050000  0.27747500  0.49608600  1
  O  O32  1  0.07508400  0.15116700  0.80862100  1
  O  O33  1  0.36309000  0.43724300  0.11035500  1
  O  O34  1  0.72905800  0.47103800  0.01341200  1
  O  O35  1  0.55698000  0.36419800  0.24530700  1
  O  O36  1  0.69034300  0.21225000  0.49276900  1
  O  O37  1  0.79537400  0.33418100  0.26003700  1
  O  O38  1  0.84360900  0.15215700  0.54284600  1
  O  O39  1  0.17048500  0.38063900  0.00987900  1
  O  O40  1  0.03290400  0.25755600  0.19801900  1
  O  O41  1  0.44950000  0.27747500  0.99608600  1
  O  O42  1  0.42491600  0.15116700  0.30862100  1
  O  O43  1  0.65639100  0.15215700  0.04284600  1
loop_
_geom_bond_atom_site_label_1
_geom_bond_atom_site_label_2
_geom_bond_distance
_geom_bond_site_symmetry_2
Ba0 O3 2.629783 1_555
Ba0 O24 2.640697 1_565
Ba0 O26 2.642372 1_565
Ba0 O4 2.648708 1_555
Ba0 O11 2.668045 1_556
Ba0 O38 2.756997 1_565
Ba1 O13 2.629783 1_555
Ba1 O35 2.640697 1_565
Ba1 O36 2.642372 1_565
Ba1 O15 2.648708 1_555
Ba1 O1 2.668045 1_555
Ba1 O43 2.756997 1_565
Ba2 O30 2.629783 1_555
Ba2 O8 2.640697 1_545
Ba2 O7 2.642372 1_545
Ba2 O28 2.648708 1_555
Ba2 O42 2.668045 1_555
Ba2 O0 2.756997 1_545
Ba3 O40 2.629783 1_555
Ba3 O19 2.640697 1_545
Ba3 O17 2.642372 1_545
Ba3 O39 2.648708 1_555
Ba3 O32 2.668045 1_554
Ba3 O5 2.756997 1_545
O0 P8 1.471949 1_556
O1 P0 1.474703 1_555
O2 P0 1.578581 1_554
O2 P9 1.661862 1_555
O3 P3 1.482021 1_555
O4 P14 1.483083 1_556
O5 P2 1.471949 1_555
O6 P2 1.568726 1_555
O6 P1 1.646834 1_555
O7 P5 1.486013 1_555
O8 P6 1.485016 1_555
O9 P8 1.586094 1_556
O9 P1 1.649810 1_555
O10 P0 1.596137 1_555
O10 P7 1.600918 1_555
O11 P4 1.474703 1_555
O12 P4 1.578581 1_555
O12 P3 1.661862 1_555
O13 P9 1.482021 1_555
O14 P11 1.585454 1_555
O14 P3 1.659855 1_455
O15 P10 1.483083 1_555
O16 P8 1.568726 1_555
O16 P5 1.646834 1_555
O17 P1 1.486013 1_554
O18 P0 1.585454 1_555
O18 P6 1.659855 1_555
O19 P12 1.485016 1_555
O20 P2 1.586094 1_555
O20 P5 1.649810 1_555
O21 P4 1.596137 1_555
O21 P13 1.600918 1_555
O22 P11 1.596137 1_555
O22 P2 1.600918 1_555
O23 P13 1.586094 1_555
O23 P10 1.649810 1_555
O24 P3 1.485016 1_555
O25 P15 1.585454 1_555
O25 P9 1.659855 1_555
O26 P14 1.486013 1_556
O27 P7 1.568726 1_555
O27 P10 1.646834 1_555
O28 P5 1.483083 1_555
O29 P4 1.585454 1_555
O29 P12 1.659855 1_655
O30 P6 1.482021 1_555
O31 P11 1.578581 1_555
O31 P12 1.661862 1_555
O32 P11 1.474703 1_555
O33 P15 1.596137 1_555
O33 P8 1.600918 1_555
O34 P7 1.586094 1_554
O34 P14 1.649810 1_555
O35 P9 1.485016 1_555
O36 P10 1.486013 1_555
O37 P13 1.568726 1_555
O37 P14 1.646834 1_555
O38 P13 1.471949 1_555
O39 P1 1.483083 1_554
O40 P12 1.482021 1_555
O41 P15 1.578581 1_556
O41 P6 1.661862 1_555
O42 P15 1.474703 1_555
O43 P7 1.471949 1_554
