# generated using pymatgen
data_Li4VF7
_symmetry_space_group_name_H-M   'P 1'
_cell_length_a   5.83707399
_cell_length_b   5.83707484
_cell_length_c   5.83717435
_cell_angle_alpha   60.03266715
_cell_angle_beta   60.03265446
_cell_angle_gamma   60.03538453
_symmetry_Int_Tables_number   1
_chemical_formula_structural   Li4VF7
_chemical_formula_sum   'Li4 V1 F7'
_cell_volume   140.73705766
_cell_formula_units_Z   1
loop_
 _symmetry_equiv_pos_site_id
 _symmetry_equiv_pos_as_xyz
  1  'x, y, z'
loop_
 _atom_site_type_symbol
 _atom_site_label
 _atom_site_symmetry_multiplicity
 _atom_site_fract_x
 _atom_site_fract_y
 _atom_site_fract_z
 _atom_site_occupancy
  Li  Li0  1  0.37397217  0.37397139  0.37397795  1
  Li  Li1  1  0.37407332  0.37407389  0.87809176  1
  Li  Li2  1  0.37406755  0.87808996  0.37407484  1
  Li  Li3  1  0.87808983  0.37406726  0.37407445  1
  V  V0  1  -0.00020482  -0.00020462  -0.00020198  1
  F  F0  1  0.23766878  0.23766855  0.76242420  1
  F  F1  1  0.23770493  0.76239537  0.23769691  1
  F  F2  1  0.76239551  0.23770565  0.23769712  1
  F  F3  1  0.76220510  0.76220487  0.23792234  1
  F  F4  1  0.24990965  0.24990996  0.24991319  1
  F  F5  1  0.23795710  0.76215935  0.76216454  1
  F  F6  1  0.76215987  0.23795737  0.76216367  1
loop_
_geom_bond_atom_site_label_1
_geom_bond_atom_site_label_2
_geom_bond_distance
_geom_bond_site_symmetry_2
F0 Li1 1.852323 1_555
F0 Li0 1.853409 1_555
F0 V0 1.964058 1_556
F1 Li2 1.852118 1_555
F1 Li0 1.853319 1_555
F1 V0 1.964411 1_565
F2 Li3 1.852109 1_555
F2 Li0 1.853315 1_555
F2 V0 1.964414 1_655
F3 Li2 1.851881 1_555
F3 Li3 1.851882 1_555
F3 V0 1.961725 1_665
F4 Li1 1.772832 1_554
F4 Li3 1.772843 1_455
F4 Li2 1.772844 1_545
F4 Li0 1.773393 1_555
F5 Li2 1.851628 1_555
F5 Li1 1.851628 1_555
F5 V0 1.962190 1_566
F6 Li3 1.851626 1_555
F6 Li1 1.851633 1_555
F6 V0 1.962191 1_656
