# generated using pymatgen
data_Mn2Cr3O12
_symmetry_space_group_name_H-M   'P 1'
_cell_length_a   9.05072900
_cell_length_b   9.19082900
_cell_length_c   12.36500700
_cell_angle_alpha   90.00000000
_cell_angle_beta   90.00000000
_cell_angle_gamma   90.00000000
_symmetry_Int_Tables_number   1
_chemical_formula_structural   Mn2Cr3O12
_chemical_formula_sum   'Mn8 Cr12 O48'
_cell_volume   1028.56706449
_cell_formula_units_Z   4
loop_
 _symmetry_equiv_pos_site_id
 _symmetry_equiv_pos_as_xyz
  1  'x, y, z'
loop_
 _atom_site_type_symbol
 _atom_site_label
 _atom_site_symmetry_multiplicity
 _atom_site_fract_x
 _atom_site_fract_y
 _atom_site_fract_z
 _atom_site_occupancy
  Mn  Mn0  1  0.24846700  0.96922400  0.11942900  1
  Mn  Mn1  1  0.75153300  0.46922400  0.11942900  1
  Mn  Mn2  1  0.74846700  0.96922400  0.38057100  1
  Mn  Mn3  1  0.25153300  0.46922400  0.38057100  1
  Mn  Mn4  1  0.25153300  0.03077600  0.61942900  1
  Mn  Mn5  1  0.74846700  0.53077600  0.61942900  1
  Mn  Mn6  1  0.24846700  0.53077600  0.88057100  1
  Mn  Mn7  1  0.75153300  0.03077600  0.88057100  1
  Cr  Cr0  1  0.47294200  0.25000000  0.00000000  1
  Cr  Cr1  1  0.52705800  0.75000000  0.00000000  1
  Cr  Cr2  1  0.09830000  0.60141800  0.14635200  1
  Cr  Cr3  1  0.90170000  0.10141800  0.14635200  1
  Cr  Cr4  1  0.40170000  0.10141800  0.35364800  1
  Cr  Cr5  1  0.59830000  0.60141800  0.35364800  1
  Cr  Cr6  1  0.02705800  0.75000000  0.50000000  1
  Cr  Cr7  1  0.97294200  0.25000000  0.50000000  1
  Cr  Cr8  1  0.40170000  0.39858200  0.64635200  1
  Cr  Cr9  1  0.59830000  0.89858200  0.64635200  1
  Cr  Cr10  1  0.09830000  0.89858200  0.85364800  1
  Cr  Cr11  1  0.90170000  0.39858200  0.85364800  1
  O  O0  1  0.14857300  0.55968300  0.02044000  1
  O  O1  1  0.85142700  0.05968300  0.02044000  1
  O  O2  1  0.57818400  0.36732300  0.07034000  1
  O  O3  1  0.42181600  0.86732300  0.07034000  1
  O  O4  1  0.36598800  0.16141700  0.08479500  1
  O  O5  1  0.63401200  0.66141700  0.08479500  1
  O  O6  1  0.08719000  0.09328700  0.16146400  1
  O  O7  1  0.91281000  0.59328700  0.16146400  1
  O  O8  1  0.14962700  0.76764600  0.17487900  1
  O  O9  1  0.85037300  0.26764600  0.17487900  1
  O  O10  1  0.82355700  0.98161000  0.23020300  1
  O  O11  1  0.17644300  0.48161000  0.23020300  1
  O  O12  1  0.32355700  0.98161000  0.26979700  1
  O  O13  1  0.67644300  0.48161000  0.26979700  1
  O  O14  1  0.64962700  0.76764600  0.32512100  1
  O  O15  1  0.35037300  0.26764600  0.32512100  1
  O  O16  1  0.41281000  0.59328700  0.33853600  1
  O  O17  1  0.58719000  0.09328700  0.33853600  1
  O  O18  1  0.13401200  0.66141700  0.41520500  1
  O  O19  1  0.86598800  0.16141700  0.41520500  1
  O  O20  1  0.07818400  0.36732300  0.42966000  1
  O  O21  1  0.92181600  0.86732300  0.42966000  1
  O  O22  1  0.64857300  0.55968300  0.47956000  1
  O  O23  1  0.35142700  0.05968300  0.47956000  1
  O  O24  1  0.35142700  0.44031700  0.52044000  1
  O  O25  1  0.64857300  0.94031700  0.52044000  1
  O  O26  1  0.07818400  0.13267700  0.57034000  1
  O  O27  1  0.92181600  0.63267700  0.57034000  1
  O  O28  1  0.13401200  0.83858300  0.58479500  1
  O  O29  1  0.86598800  0.33858300  0.58479500  1
  O  O30  1  0.41281000  0.90671300  0.66146400  1
  O  O31  1  0.58719000  0.40671300  0.66146400  1
  O  O32  1  0.35037300  0.23235400  0.67487900  1
  O  O33  1  0.64962700  0.73235400  0.67487900  1
  O  O34  1  0.32355700  0.51839000  0.73020300  1
  O  O35  1  0.67644300  0.01839000  0.73020300  1
  O  O36  1  0.17644300  0.01839000  0.76979700  1
  O  O37  1  0.82355700  0.51839000  0.76979700  1
  O  O38  1  0.14962700  0.73235400  0.82512100  1
  O  O39  1  0.85037300  0.23235400  0.82512100  1
  O  O40  1  0.08719000  0.40671300  0.83853600  1
  O  O41  1  0.91281000  0.90671300  0.83853600  1
  O  O42  1  0.36598800  0.33858300  0.91520500  1
  O  O43  1  0.63401200  0.83858300  0.91520500  1
  O  O44  1  0.42181600  0.63267700  0.92966000  1
  O  O45  1  0.57818400  0.13267700  0.92966000  1
  O  O46  1  0.14857300  0.94031700  0.97956000  1
  O  O47  1  0.85142700  0.44031700  0.97956000  1
loop_
_geom_bond_atom_site_label_1
_geom_bond_atom_site_label_2
_geom_bond_distance
_geom_bond_site_symmetry_2
Mn0 O6 1.923786 1_565
Mn0 O3 1.925389 1_555
Mn0 O46 1.969546 1_554
Mn0 O12 1.982888 1_555
Mn0 O4 2.105936 1_565
Mn0 O8 2.168582 1_555
Mn1 O7 1.923786 1_555
Mn1 O2 1.925389 1_555
Mn1 O47 1.969546 1_554
Mn1 O13 1.982888 1_555
Mn1 O5 2.105936 1_555
Mn1 O9 2.168582 1_555
Mn2 O17 1.923786 1_565
Mn2 O21 1.925389 1_555
Mn2 O25 1.969546 1_555
Mn2 O10 1.982888 1_555
Mn2 O19 2.105936 1_565
Mn2 O14 2.168582 1_555
Mn3 O16 1.923786 1_555
Mn3 O20 1.925389 1_555
Mn3 O24 1.969546 1_555
Mn3 O11 1.982888 1_555
Mn3 O18 2.105936 1_555
Mn3 O15 2.168582 1_555
Mn4 O30 1.923786 1_545
Mn4 O26 1.925389 1_555
Mn4 O23 1.969546 1_555
Mn4 O36 1.982888 1_555
Mn4 O28 2.105936 1_545
Mn4 O32 2.168582 1_555
Mn5 O31 1.923786 1_555
Mn5 O27 1.925389 1_555
Mn5 O22 1.969546 1_555
Mn5 O37 1.982888 1_555
Mn5 O29 2.105936 1_555
Mn5 O33 2.168582 1_555
Mn6 O40 1.923786 1_555
Mn6 O44 1.925389 1_555
Mn6 O0 1.969546 1_556
Mn6 O34 1.982888 1_555
Mn6 O42 2.105936 1_555
Mn6 O38 2.168582 1_555
Mn7 O41 1.923786 1_545
Mn7 O45 1.925389 1_555
Mn7 O1 1.969546 1_556
Mn7 O35 1.982888 1_555
Mn7 O43 2.105936 1_545
Mn7 O39 2.168582 1_555
Cr0 O42 1.642931 1_554
Cr0 O4 1.642931 1_555
Cr0 O45 1.681215 1_554
Cr0 O2 1.681215 1_555
Cr1 O43 1.642931 1_554
Cr1 O5 1.642931 1_555
Cr1 O44 1.681215 1_554
Cr1 O3 1.681215 1_555
Cr2 O8 1.635334 1_555
Cr2 O0 1.666767 1_555
Cr2 O11 1.669639 1_555
Cr2 O7 1.690839 1_455
Cr3 O9 1.635334 1_555
Cr3 O1 1.666767 1_555
Cr3 O10 1.669639 1_545
Cr3 O6 1.690839 1_655
Cr4 O15 1.635334 1_555
Cr4 O23 1.666767 1_555
Cr4 O12 1.669639 1_545
Cr4 O17 1.690839 1_555
Cr5 O14 1.635334 1_555
Cr5 O22 1.666767 1_555
Cr5 O13 1.669639 1_555
Cr5 O16 1.690839 1_555
Cr6 O28 1.642931 1_555
Cr6 O18 1.642931 1_555
Cr6 O27 1.681215 1_455
Cr6 O21 1.681215 1_455
Cr7 O29 1.642931 1_555
Cr7 O19 1.642931 1_555
Cr7 O26 1.681215 1_655
Cr7 O20 1.681215 1_655
Cr8 O32 1.635334 1_555
Cr8 O24 1.666767 1_555
Cr8 O34 1.669639 1_555
Cr8 O31 1.690839 1_555
Cr9 O33 1.635334 1_555
Cr9 O25 1.666767 1_555
Cr9 O35 1.669639 1_565
Cr9 O30 1.690839 1_555
Cr10 O38 1.635334 1_555
Cr10 O46 1.666767 1_555
Cr10 O36 1.669639 1_565
Cr10 O41 1.690839 1_455
Cr11 O39 1.635334 1_555
Cr11 O47 1.666767 1_555
Cr11 O37 1.669639 1_555
Cr11 O40 1.690839 1_655
