# generated using pymatgen
data_VFeP2(HO5)2
_symmetry_space_group_name_H-M   'P 1'
_cell_length_a   5.16710559
_cell_length_b   7.48528680
_cell_length_c   10.23559036
_cell_angle_alpha   75.41369147
_cell_angle_beta   80.87213884
_cell_angle_gamma   104.75697347
_symmetry_Int_Tables_number   1
_chemical_formula_structural   VFeP2(HO5)2
_chemical_formula_sum   'V2 Fe2 P4 H4 O20'
_cell_volume   359.83644951
_cell_formula_units_Z   2
loop_
 _symmetry_equiv_pos_site_id
 _symmetry_equiv_pos_as_xyz
  1  'x, y, z'
loop_
 _atom_site_type_symbol
 _atom_site_label
 _atom_site_symmetry_multiplicity
 _atom_site_fract_x
 _atom_site_fract_y
 _atom_site_fract_z
 _atom_site_occupancy
  V  V0  1  0.49991800  0.00017600  0.49997600  1
  V  V1  1  0.99981400  0.49984600  0.00015000  1
  Fe  Fe0  1  0.00054300  0.99997000  0.00010800  1
  Fe  Fe1  1  0.49975800  0.50000300  0.50009800  1
  P  P0  1  0.00504300  0.88168300  0.33871200  1
  P  P1  1  0.50522900  0.38178900  0.83871000  1
  P  P2  1  0.49484300  0.61839700  0.16127400  1
  P  P3  1  0.99472000  0.11832400  0.66131800  1
  H  H0  1  0.86409000  0.17224700  0.17159300  1
  H  H1  1  0.36421400  0.67249700  0.67154500  1
  H  H2  1  0.63594200  0.32778000  0.32836800  1
  H  H3  1  0.13585400  0.82753200  0.82845700  1
  O  O0  1  0.60055100  0.27760200  0.43073700  1
  O  O1  1  0.10065100  0.77747900  0.93078300  1
  O  O2  1  0.89940700  0.22232900  0.06925300  1
  O  O3  1  0.39929600  0.72244600  0.56918900  1
  O  O4  1  0.80838100  0.00848900  0.36262800  1
  O  O5  1  0.30838500  0.50839200  0.86274000  1
  O  O6  1  0.69150000  0.49152900  0.13726900  1
  O  O7  1  0.19159000  0.99163600  0.63717700  1
  O  O8  1  0.21636600  0.51884400  0.12805400  1
  O  O9  1  0.71630600  0.01880600  0.62800600  1
  O  O10  1  0.28361400  0.98117200  0.37191800  1
  O  O11  1  0.78376300  0.48118300  0.87192300  1
  O  O12  1  0.06480200  0.89625700  0.18582800  1
  O  O13  1  0.56468400  0.39634800  0.68581700  1
  O  O14  1  0.43527600  0.60362400  0.31419700  1
  O  O15  1  0.93536500  0.10356900  0.81423300  1
  O  O16  1  0.88290500  0.67663100  0.43764900  1
  O  O17  1  0.38324400  0.17661300  0.93764100  1
  O  O18  1  0.61715700  0.82345700  0.06230500  1
  O  O19  1  0.11679100  0.32334900  0.56234500  1
loop_
_geom_bond_atom_site_label_1
_geom_bond_atom_site_label_2
_geom_bond_distance
_geom_bond_site_symmetry_2
Fe0 O17 1.976982 1_564
Fe0 O12 1.978590 1_555
Fe0 O18 1.979429 1_455
Fe0 O15 1.981834 1_464
Fe0 O1 2.112412 1_554
Fe0 O2 2.112668 1_465
Fe1 O19 1.978090 1_555
Fe1 O16 1.978741 1_555
Fe1 O13 1.979948 1_555
Fe1 O14 1.980588 1_555
Fe1 O3 2.111609 1_555
Fe1 O0 2.113356 1_555
H0 O2 0.988850 1_555
H1 O3 0.989036 1_555
H2 O0 0.989144 1_555
H3 O1 0.988749 1_555
O0 V0 1.917469 1_555
O1 V1 1.918900 1_456
O2 V1 1.918096 1_555
O3 V0 1.919554 1_565
O4 P0 1.588380 1_645
O4 V0 1.927468 1_555
O5 P1 1.588125 1_555
O5 V1 1.927604 1_456
O6 P2 1.588916 1_555
O6 V1 1.925534 1_555
O7 P3 1.588968 1_465
O7 V0 1.925476 1_565
O8 P2 1.574170 1_555
O8 V1 1.861097 1_455
O9 P3 1.574276 1_555
O9 V0 1.861290 1_555
O10 P0 1.574362 1_555
O10 V0 1.861504 1_565
O11 P1 1.574029 1_555
O11 V1 1.861759 1_556
O12 P0 1.516435 1_555
O13 P1 1.516519 1_555
O14 P2 1.516450 1_555
O15 P3 1.516379 1_555
O16 P0 1.516745 1_655
O17 P1 1.517368 1_555
O18 P2 1.516951 1_555
O19 P3 1.516706 1_455
