# generated using pymatgen
data_CaAsH3O5
_symmetry_space_group_name_H-M   'P 1'
_cell_length_a   6.98810800
_cell_length_b   8.01842700
_cell_length_c   16.32860800
_cell_angle_alpha   90.00000000
_cell_angle_beta   90.00000000
_cell_angle_gamma   90.00000000
_symmetry_Int_Tables_number   1
_chemical_formula_structural   CaAsH3O5
_chemical_formula_sum   'Ca8 As8 H24 O40'
_cell_volume   914.95124222
_cell_formula_units_Z   8
loop_
 _symmetry_equiv_pos_site_id
 _symmetry_equiv_pos_as_xyz
  1  'x, y, z'
loop_
 _atom_site_type_symbol
 _atom_site_label
 _atom_site_symmetry_multiplicity
 _atom_site_fract_x
 _atom_site_fract_y
 _atom_site_fract_z
 _atom_site_occupancy
  Ca  Ca0  1  0.37461700  0.18280300  0.45305500  1
  Ca  Ca1  1  0.12538300  0.31719700  0.95305500  1
  Ca  Ca2  1  0.87461700  0.31719700  0.54694500  1
  Ca  Ca3  1  0.62538300  0.18280300  0.04694500  1
  Ca  Ca4  1  0.62538300  0.81719700  0.54694500  1
  Ca  Ca5  1  0.87461700  0.68280300  0.04694500  1
  Ca  Ca6  1  0.12538300  0.68280300  0.45305500  1
  Ca  Ca7  1  0.37461700  0.81719700  0.95305500  1
  As  As0  1  0.87131800  0.05824700  0.39088000  1
  As  As1  1  0.62868200  0.44175300  0.89088000  1
  As  As2  1  0.37131800  0.44175300  0.60912000  1
  As  As3  1  0.12868200  0.05824700  0.10912000  1
  As  As4  1  0.12868200  0.94175300  0.60912000  1
  As  As5  1  0.37131800  0.55824700  0.10912000  1
  As  As6  1  0.62868200  0.55824700  0.39088000  1
  As  As7  1  0.87131800  0.94175300  0.89088000  1
  H  H0  1  0.68692400  0.23480500  0.31673300  1
  H  H1  1  0.81307600  0.26519500  0.81673300  1
  H  H2  1  0.18692400  0.26519500  0.68326700  1
  H  H3  1  0.31307600  0.23480500  0.18326700  1
  H  H4  1  0.31307600  0.76519500  0.68326700  1
  H  H5  1  0.18692400  0.73480500  0.18326700  1
  H  H6  1  0.81307600  0.73480500  0.31673300  1
  H  H7  1  0.68692400  0.76519500  0.81673300  1
  H  H8  1  0.31543200  0.01141700  0.28763900  1
  H  H9  1  0.18456800  0.48858300  0.78763900  1
  H  H10  1  0.81543200  0.48858300  0.71236100  1
  H  H11  1  0.68456800  0.01141700  0.21236100  1
  H  H12  1  0.68456800  0.98858300  0.71236100  1
  H  H13  1  0.81543200  0.51141700  0.21236100  1
  H  H14  1  0.18456800  0.51141700  0.28763900  1
  H  H15  1  0.31543200  0.98858300  0.78763900  1
  H  H16  1  0.41904600  0.87812800  0.34794800  1
  H  H17  1  0.08095400  0.62187200  0.84794800  1
  H  H18  1  0.91904600  0.62187200  0.65205200  1
  H  H19  1  0.58095400  0.87812800  0.15205200  1
  H  H20  1  0.58095400  0.12187200  0.65205200  1
  H  H21  1  0.91904600  0.37812800  0.15205200  1
  H  H22  1  0.08095400  0.37812800  0.34794800  1
  H  H23  1  0.41904600  0.12187200  0.84794800  1
  O  O0  1  0.78003400  0.14411000  0.29864700  1
  O  O1  1  0.71996600  0.35589000  0.79864700  1
  O  O2  1  0.28003400  0.35589000  0.70135300  1
  O  O3  1  0.21996600  0.14411000  0.20135300  1
  O  O4  1  0.21996600  0.85589000  0.70135300  1
  O  O5  1  0.28003400  0.64411000  0.20135300  1
  O  O6  1  0.71996600  0.64411000  0.29864700  1
  O  O7  1  0.78003400  0.85589000  0.79864700  1
  O  O8  1  0.04002600  0.19562300  0.42666600  1
  O  O9  1  0.45997400  0.30437700  0.92666600  1
  O  O10  1  0.54002600  0.30437700  0.57333400  1
  O  O11  1  0.95997400  0.19562300  0.07333400  1
  O  O12  1  0.95997400  0.80437700  0.57333400  1
  O  O13  1  0.54002600  0.69562300  0.07333400  1
  O  O14  1  0.45997400  0.69562300  0.42666600  1
  O  O15  1  0.04002600  0.80437700  0.92666600  1
  O  O16  1  0.95245100  0.86486400  0.36731400  1
  O  O17  1  0.54754900  0.63513600  0.86731400  1
  O  O18  1  0.45245100  0.63513600  0.63268600  1
  O  O19  1  0.04754900  0.86486400  0.13268600  1
  O  O20  1  0.04754900  0.13513600  0.63268600  1
  O  O21  1  0.45245100  0.36486400  0.13268600  1
  O  O22  1  0.54754900  0.36486400  0.36731400  1
  O  O23  1  0.95245100  0.13513600  0.86731400  1
  O  O24  1  0.69586800  0.05926400  0.46516300  1
  O  O25  1  0.80413200  0.44073600  0.96516300  1
  O  O26  1  0.19586800  0.44073600  0.53483700  1
  O  O27  1  0.30413200  0.05926400  0.03483700  1
  O  O28  1  0.30413200  0.94073600  0.53483700  1
  O  O29  1  0.19586800  0.55926400  0.03483700  1
  O  O30  1  0.80413200  0.55926400  0.46516300  1
  O  O31  1  0.69586800  0.94073600  0.96516300  1
  O  O32  1  0.37805600  0.99438300  0.34133300  1
  O  O33  1  0.12194400  0.50561700  0.84133300  1
  O  O34  1  0.87805600  0.50561700  0.65866700  1
  O  O35  1  0.62194400  0.99438300  0.15866700  1
  O  O36  1  0.62194400  0.00561700  0.65866700  1
  O  O37  1  0.87805600  0.49438300  0.15866700  1
  O  O38  1  0.12194400  0.49438300  0.34133300  1
  O  O39  1  0.37805600  0.00561700  0.84133300  1
loop_
_geom_bond_atom_site_label_1
_geom_bond_atom_site_label_2
_geom_bond_distance
_geom_bond_site_symmetry_2
Ca0 O22 2.356188 1_555
Ca0 O32 2.368783 1_545
Ca0 O8 2.379752 1_555
Ca0 O28 2.406935 1_545
Ca0 O24 2.461726 1_555
Ca0 O10 2.478638 1_555
Ca0 O26 2.760629 1_555
Ca1 O23 2.356188 1_455
Ca1 O33 2.368783 1_555
Ca1 O9 2.379752 1_555
Ca1 O29 2.406935 1_556
Ca1 O25 2.461726 1_455
Ca1 O11 2.478638 1_456
Ca1 O27 2.760629 1_556
Ca2 O20 2.356188 1_655
Ca2 O34 2.368783 1_555
Ca2 O10 2.379752 1_555
Ca2 O30 2.406935 1_555
Ca2 O26 2.461726 1_655
Ca2 O8 2.478638 1_655
Ca2 O24 2.760629 1_555
Ca3 O21 2.356188 1_555
Ca3 O35 2.368783 1_545
Ca3 O11 2.379752 1_555
Ca3 O31 2.406935 1_544
Ca3 O27 2.461726 1_555
Ca3 O9 2.478638 1_554
Ca3 O25 2.760629 1_554
Ca4 O18 2.356188 1_555
Ca4 O36 2.368783 1_565
Ca4 O12 2.379752 1_555
Ca4 O24 2.406935 1_565
Ca4 O28 2.461726 1_555
Ca4 O14 2.478638 1_555
Ca4 O30 2.760629 1_555
Ca5 O19 2.356188 1_655
Ca5 O37 2.368783 1_555
Ca5 O13 2.379752 1_555
Ca5 O25 2.406935 1_554
Ca5 O29 2.461726 1_655
Ca5 O15 2.478638 1_654
Ca5 O31 2.760629 1_554
Ca6 O16 2.356188 1_455
Ca6 O38 2.368783 1_555
Ca6 O14 2.379752 1_555
Ca6 O26 2.406935 1_555
Ca6 O30 2.461726 1_455
Ca6 O12 2.478638 1_455
Ca6 O28 2.760629 1_555
Ca7 O17 2.356188 1_555
Ca7 O39 2.368783 1_565
Ca7 O15 2.379752 1_555
Ca7 O27 2.406935 1_566
Ca7 O31 2.461726 1_555
Ca7 O13 2.478638 1_556
Ca7 O29 2.760629 1_556
As0 O16 1.695278 1_545
As0 O8 1.716030 1_655
As0 O24 1.724679 1_555
As0 O0 1.774564 1_555
As1 O17 1.695278 1_555
As1 O9 1.716030 1_555
As1 O25 1.724679 1_555
As1 O1 1.774564 1_555
As2 O18 1.695278 1_555
As2 O10 1.716030 1_555
As2 O26 1.724679 1_555
As2 O2 1.774564 1_555
As3 O19 1.695278 1_545
As3 O11 1.716030 1_455
As3 O27 1.724679 1_555
As3 O3 1.774564 1_555
As4 O20 1.695278 1_565
As4 O12 1.716030 1_455
As4 O28 1.724679 1_555
As4 O4 1.774564 1_555
As5 O21 1.695278 1_555
As5 O13 1.716030 1_555
As5 O29 1.724679 1_555
As5 O5 1.774564 1_555
As6 O22 1.695278 1_555
As6 O14 1.716030 1_555
As6 O30 1.724679 1_555
As6 O6 1.774564 1_555
As7 O23 1.695278 1_565
As7 O15 1.716030 1_655
As7 O31 1.724679 1_555
As7 O7 1.774564 1_555
H0 O0 1.019530 1_555
H0 O22 1.648735 1_555
H1 O1 1.019530 1_555
H1 O23 1.648735 1_555
H2 O2 1.019530 1_555
H2 O20 1.648735 1_555
H3 O3 1.019530 1_555
H3 O21 1.648735 1_555
H4 O4 1.019530 1_555
H4 O18 1.648735 1_555
H5 O5 1.019530 1_555
H5 O19 1.648735 1_555
H6 O6 1.019530 1_555
H6 O16 1.648735 1_555
H7 O7 1.019530 1_555
H7 O17 1.648735 1_555
H8 O32 0.989372 1_545
H9 O33 0.989372 1_555
H10 O34 0.989372 1_555
H11 O35 0.989372 1_545
H12 O36 0.989372 1_565
H13 O37 0.989372 1_555
H14 O38 0.989372 1_555
H15 O39 0.989372 1_565
H16 O32 0.981163 1_555
H17 O33 0.981163 1_555
H18 O34 0.981163 1_555
H19 O35 0.981163 1_555
H20 O36 0.981163 1_555
H21 O37 0.981163 1_555
H22 O38 0.981163 1_555
H23 O39 0.981163 1_555
