# generated using pymatgen
data_NaCuP2O7
_symmetry_space_group_name_H-M   'P 1'
_cell_length_a   13.80691100
_cell_length_b   4.97162800
_cell_length_c   10.00591946
_cell_angle_alpha   62.43093200
_cell_angle_beta   90.00000000
_cell_angle_gamma   90.00000000
_symmetry_Int_Tables_number   1
_chemical_formula_structural   NaCuP2O7
_chemical_formula_sum   'Na4 Cu4 P8 O28'
_cell_volume   608.84696511
_cell_formula_units_Z   4
loop_
 _symmetry_equiv_pos_site_id
 _symmetry_equiv_pos_as_xyz
  1  'x, y, z'
loop_
 _atom_site_type_symbol
 _atom_site_label
 _atom_site_symmetry_multiplicity
 _atom_site_fract_x
 _atom_site_fract_y
 _atom_site_fract_z
 _atom_site_occupancy
  Na  Na0  1  0.61968100  0.08398900  0.63631700  1
  Na  Na1  1  0.11968100  0.91601100  0.86368300  1
  Na  Na2  1  0.88031900  0.08398900  0.13631700  1
  Na  Na3  1  0.38031900  0.91601100  0.36368300  1
  Cu  Cu0  1  0.84064900  0.06117200  0.73757500  1
  Cu  Cu1  1  0.34064900  0.93882800  0.76242500  1
  Cu  Cu2  1  0.65935100  0.06117200  0.23757500  1
  Cu  Cu3  1  0.15935100  0.93882800  0.26242500  1
  P  P0  1  0.82110200  0.72823500  0.54369000  1
  P  P1  1  0.46269800  0.47768300  0.73301000  1
  P  P2  1  0.96269800  0.52231700  0.76699000  1
  P  P3  1  0.32110200  0.27176500  0.95631000  1
  P  P4  1  0.67889800  0.72823500  0.04369000  1
  P  P5  1  0.03730200  0.47768300  0.23301000  1
  P  P6  1  0.53730200  0.52231700  0.26699000  1
  P  P7  1  0.17889800  0.27176500  0.45631000  1
  O  O0  1  0.93603200  0.67385800  0.58687900  1
  O  O1  1  0.77510000  0.40844600  0.59487500  1
  O  O2  1  0.77891800  0.85127400  0.64922800  1
  O  O3  1  0.19072500  0.07297100  0.62152100  1
  O  O4  1  0.38688800  0.74048400  0.65477100  1
  O  O5  1  0.44126400  0.23112800  0.68009200  1
  O  O6  1  0.56631000  0.56846300  0.70785200  1
  O  O7  1  0.06631000  0.43153700  0.79214800  1
  O  O8  1  0.94126400  0.76887200  0.81990800  1
  O  O9  1  0.88688800  0.25951600  0.84522900  1
  O  O10  1  0.27891800  0.14872600  0.85077200  1
  O  O11  1  0.69072500  0.92702900  0.87847900  1
  O  O12  1  0.27510000  0.59155400  0.90512500  1
  O  O13  1  0.43603200  0.32614200  0.91312100  1
  O  O14  1  0.56396800  0.67385800  0.08687900  1
  O  O15  1  0.72490000  0.40844600  0.09487500  1
  O  O16  1  0.30927500  0.07297100  0.12152100  1
  O  O17  1  0.72108200  0.85127400  0.14922800  1
  O  O18  1  0.11311200  0.74048400  0.15477100  1
  O  O19  1  0.05873600  0.23112800  0.18009200  1
  O  O20  1  0.93369000  0.56846300  0.20785200  1
  O  O21  1  0.43369000  0.43153700  0.29214800  1
  O  O22  1  0.55873600  0.76887200  0.31990800  1
  O  O23  1  0.61311200  0.25951600  0.34522900  1
  O  O24  1  0.80927500  0.92702900  0.37847900  1
  O  O25  1  0.22108200  0.14872600  0.35077200  1
  O  O26  1  0.22490000  0.59155400  0.40512500  1
  O  O27  1  0.06396800  0.32614200  0.41312100  1
loop_
_geom_bond_atom_site_label_1
_geom_bond_atom_site_label_2
_geom_bond_distance
_geom_bond_site_symmetry_2
Na0 O11 2.385808 1_545
Na0 O6 2.434383 1_545
Na0 O2 2.459805 1_545
Na0 O1 2.599909 1_555
Na0 O23 2.626847 1_555
Na0 O5 2.663050 1_555
Na0 O6 2.907341 1_555
Na1 O3 2.385808 1_565
Na1 O7 2.434383 1_565
Na1 O10 2.459805 1_565
Na1 O12 2.599909 1_555
Na1 O18 2.626847 1_556
Na1 O8 2.663050 1_455
Na1 O7 2.907341 1_555
Na2 O24 2.385808 1_545
Na2 O20 2.434383 1_545
Na2 O17 2.459805 1_545
Na2 O15 2.599909 1_555
Na2 O9 2.626847 1_554
Na2 O19 2.663050 1_655
Na2 O20 2.907341 1_555
Na3 O16 2.385808 1_565
Na3 O21 2.434383 1_565
Na3 O25 2.459805 1_565
Na3 O26 2.599909 1_555
Na3 O4 2.626847 1_555
Na3 O22 2.663050 1_555
Na3 O21 2.907341 1_555
Cu0 O2 1.857613 1_545
Cu0 O9 1.877092 1_555
Cu0 O1 1.885950 1_555
Cu0 O8 1.900569 1_545
Cu0 O11 2.418062 1_545
Cu1 O10 1.857613 1_565
Cu1 O4 1.877092 1_555
Cu1 O12 1.885950 1_555
Cu1 O5 1.900569 1_565
Cu1 O3 2.418062 1_565
Cu2 O17 1.857613 1_545
Cu2 O23 1.877092 1_555
Cu2 O15 1.885950 1_555
Cu2 O22 1.900569 1_545
Cu2 O24 2.418062 1_545
Cu3 O25 1.857613 1_565
Cu3 O18 1.877092 1_555
Cu3 O26 1.885950 1_555
Cu3 O19 1.900569 1_565
Cu3 O16 2.418062 1_565
O0 P0 1.633928 1_555
O0 P2 1.641406 1_555
O1 P0 1.561953 1_555
O2 P0 1.557716 1_555
O3 P7 1.491262 1_555
O4 P1 1.571223 1_555
O5 P1 1.572022 1_555
O6 P1 1.486070 1_555
O7 P2 1.486070 1_455
O8 P2 1.572022 1_555
O9 P2 1.571223 1_555
O10 P3 1.557716 1_555
O11 P4 1.491262 1_556
O12 P3 1.561953 1_555
O13 P3 1.633928 1_555
O13 P1 1.641406 1_555
O14 P4 1.633928 1_555
O14 P6 1.641406 1_555
O15 P4 1.561953 1_555
O16 P3 1.491262 1_554
O17 P4 1.557716 1_555
O18 P5 1.571223 1_555
O19 P5 1.572022 1_555
O20 P5 1.486070 1_655
O21 P6 1.486070 1_555
O22 P6 1.572022 1_555
O23 P6 1.571223 1_555
O24 P0 1.491262 1_555
O25 P7 1.557716 1_555
O26 P7 1.561953 1_555
O27 P7 1.633928 1_555
O27 P5 1.641406 1_555
