# generated using pymatgen
data_Li3MnV(PO4)3
_symmetry_space_group_name_H-M   'P 1'
_cell_length_a   8.63690900
_cell_length_b   8.67903562
_cell_length_c   12.65799104
_cell_angle_alpha   105.63428290
_cell_angle_beta   105.83448495
_cell_angle_gamma   95.38290933
_symmetry_Int_Tables_number   1
_chemical_formula_structural   Li3MnV(PO4)3
_chemical_formula_sum   'Li12 Mn4 V4 P12 O48'
_cell_volume   864.60542930
_cell_formula_units_Z   4
loop_
 _symmetry_equiv_pos_site_id
 _symmetry_equiv_pos_as_xyz
  1  'x, y, z'
loop_
 _atom_site_type_symbol
 _atom_site_label
 _atom_site_symmetry_multiplicity
 _atom_site_fract_x
 _atom_site_fract_y
 _atom_site_fract_z
 _atom_site_occupancy
  Li  Li0  1  0.99371600  0.00127100  0.12673800  1
  Li  Li1  1  0.99892400  0.00147600  0.62456100  1
  Li  Li2  1  0.71137100  0.28782900  0.37413200  1
  Li  Li3  1  0.50023700  0.50200000  0.25043700  1
  Li  Li4  1  0.71427200  0.29203100  0.87756900  1
  Li  Li5  1  0.49734800  0.49962500  0.49821400  1
  Li  Li6  1  0.28789700  0.70983500  0.12515800  1
  Li  Li7  1  0.49979300  0.50022200  0.75115900  1
  Li  Li8  1  0.49980000  0.50002600  0.00021100  1
  Li  Li9  1  0.28732500  0.71043900  0.62328900  1
  Li  Li10  1  0.00210400  0.99702300  0.37353700  1
  Li  Li11  1  0.00776600  0.99841500  0.87530300  1
  Mn  Mn0  1  0.94154500  0.62975000  0.18357700  1
  Mn  Mn1  1  0.62578800  0.94350700  0.43507800  1
  Mn  Mn2  1  0.05887100  0.37062200  0.31464700  1
  Mn  Mn3  1  0.05808400  0.37330000  0.81631000  1
  V  V0  1  0.94263300  0.62248500  0.67988200  1
  V  V1  1  0.37976400  0.05593800  0.07010300  1
  V  V2  1  0.62132400  0.94415300  0.93142800  1
  V  V3  1  0.37698000  0.05647800  0.56902000  1
  P  P0  1  0.71570000  0.28991400  0.12537000  1
  P  P1  1  0.86521000  0.66569400  0.43151700  1
  P  P2  1  0.66116200  0.86734100  0.18419500  1
  P  P3  1  0.71277400  0.28676200  0.62508000  1
  P  P4  1  0.85888100  0.66495000  0.93274600  1
  P  P5  1  0.66198000  0.86149400  0.68109500  1
  P  P6  1  0.33464200  0.13458600  0.31727100  1
  P  P7  1  0.14141500  0.33407400  0.06767400  1
  P  P8  1  0.28524800  0.71261700  0.37452600  1
  P  P9  1  0.33776400  0.13169900  0.81726400  1
  P  P10  1  0.13875000  0.33945400  0.56809100  1
  P  P11  1  0.28521900  0.71250600  0.87508400  1
  O  O0  1  0.98418200  0.66214800  0.04767000  1
  O  O1  1  0.94817700  0.60905700  0.33434300  1
  O  O2  1  0.74189700  0.17390800  0.01715200  1
  O  O3  1  0.98966100  0.65509500  0.54382800  1
  O  O4  1  0.82611600  0.26540600  0.23769300  1
  O  O5  1  0.84468800  0.85714000  0.19777300  1
  O  O6  1  0.74061300  0.46388800  0.11400000  1
  O  O7  1  0.85543900  0.85031400  0.45217300  1
  O  O8  1  0.94572300  0.61536400  0.83818600  1
  O  O9  1  0.73790000  0.17334200  0.51471100  1
  O  O10  1  0.82727100  0.26256500  0.73649000  1
  O  O11  1  0.84426500  0.84288900  0.69356900  1
  O  O12  1  0.70352700  0.55063400  0.39833700  1
  O  O13  1  0.59783900  0.95400400  0.08938800  1
  O  O14  1  0.65984000  0.98846600  0.30032700  1
  O  O15  1  0.53902900  0.26423300  0.13306000  1
  O  O16  1  0.73614700  0.46122900  0.61517000  1
  O  O17  1  0.54686300  0.70501700  0.14881200  1
  O  O18  1  0.83878800  0.84789600  0.95161400  1
  O  O19  1  0.70026700  0.54428000  0.89732500  1
  O  O20  1  0.59971100  0.95132700  0.58689100  1
  O  O21  1  0.45069800  0.29568100  0.35144700  1
  O  O22  1  0.66280500  0.98543800  0.79565800  1
  O  O23  1  0.53749400  0.26228700  0.63510600  1
  O  O24  1  0.46191100  0.74011200  0.36553900  1
  O  O25  1  0.34366600  0.01158700  0.20480800  1
  O  O26  1  0.54385100  0.70251800  0.64674900  1
  O  O27  1  0.38992600  0.05208700  0.41379900  1
  O  O28  1  0.29952100  0.45438500  0.10204500  1
  O  O29  1  0.16190300  0.15160300  0.04949500  1
  O  O30  1  0.45151400  0.29378500  0.85133100  1
  O  O31  1  0.26199000  0.53768900  0.38487600  1
  O  O32  1  0.46228700  0.73690000  0.86749600  1
  O  O33  1  0.34354300  0.00888600  0.70378500  1
  O  O34  1  0.40181800  0.04683500  0.91287400  1
  O  O35  1  0.29924600  0.45741200  0.60355900  1
  O  O36  1  0.14916400  0.14448800  0.29712500  1
  O  O37  1  0.17320600  0.73560200  0.26203100  1
  O  O38  1  0.25689600  0.82603000  0.48275000  1
  O  O39  1  0.05351200  0.38523900  0.16229000  1
  O  O40  1  0.15754800  0.15852700  0.55694900  1
  O  O41  1  0.26023100  0.53642400  0.88461200  1
  O  O42  1  0.15322700  0.14161200  0.80126900  1
  O  O43  1  0.17404400  0.73947900  0.76514800  1
  O  O44  1  0.01587600  0.33720700  0.45161600  1
  O  O45  1  0.25939000  0.82591600  0.98401100  1
  O  O46  1  0.04786600  0.40059200  0.66194600  1
  O  O47  1  0.01463500  0.33595500  0.95290300  1
loop_
_geom_bond_atom_site_label_1
_geom_bond_atom_site_label_2
_geom_bond_distance
_geom_bond_site_symmetry_2
Li0 O36 2.158914 1_655
Li0 O18 2.221026 1_544
Li0 O5 2.228398 1_545
Li0 O29 2.423938 1_655
Li1 O7 2.166723 1_545
Li1 O42 2.204835 1_655
Li1 O11 2.319815 1_545
Li1 O40 2.320682 1_655
Li2 O4 2.189015 1_555
Li2 O21 2.200562 1_555
Li2 O12 2.228137 1_555
Li2 O9 2.231472 1_555
Li2 O14 2.463586 1_545
Li2 O44 2.493338 1_655
Li3 O28 2.091512 1_555
Li3 O12 2.099293 1_555
Li3 O24 2.296027 1_555
Li3 O15 2.308020 1_555
Li3 O17 2.508537 1_555
Li3 O21 2.532407 1_555
Li4 O19 2.154347 1_555
Li4 O30 2.204241 1_555
Li4 O10 2.226810 1_555
Li4 O2 2.240942 1_556
Li4 O47 2.460301 1_655
Li4 O22 2.528376 1_545
Li5 O21 2.105238 1_555
Li5 O26 2.113725 1_555
Li5 O31 2.255976 1_555
Li5 O16 2.298944 1_555
Li5 O35 2.496115 1_555
Li5 O12 2.519464 1_555
Li6 O28 2.172374 1_555
Li6 O17 2.180116 1_555
Li6 O37 2.191400 1_555
Li6 O45 2.245964 1_554
Li6 O25 2.486435 1_565
Li6 O0 2.487514 1_455
Li7 O19 2.076916 1_555
Li7 O35 2.089962 1_555
Li7 O32 2.290788 1_555
Li7 O23 2.297942 1_555
Li7 O30 2.522811 1_555
Li7 O26 2.524652 1_555
Li8 O17 2.124136 1_555
Li8 O30 2.131254 1_554
Li8 O6 2.286899 1_555
Li8 O41 2.289486 1_554
Li8 O28 2.484774 1_555
Li8 O19 2.493340 1_554
Li9 O35 2.157862 1_555
Li9 O26 2.163860 1_555
Li9 O38 2.235263 1_555
Li9 O43 2.237460 1_555
Li9 O3 2.438987 1_455
Li9 O33 2.460645 1_565
Li10 O5 2.203628 1_455
Li10 O36 2.284612 1_565
Li10 O7 2.298964 1_455
Li10 O40 2.312819 1_565
Li11 O29 2.210787 1_566
Li11 O42 2.231242 1_565
Li11 O11 2.303024 1_455
Li11 O18 2.421024 1_455
Mn0 O0 1.939369 1_555
Mn0 O1 1.950517 1_555
Mn0 O6 1.968111 1_555
Mn0 O37 1.978025 1_655
Mn0 O5 2.197168 1_555
Mn0 O39 2.393787 1_655
Mn1 O14 1.938825 1_555
Mn1 O24 1.976900 1_555
Mn1 O20 1.979096 1_555
Mn1 O9 1.988437 1_565
Mn1 O7 2.190047 1_555
Mn1 O27 2.303914 1_565
Mn2 O39 1.954926 1_555
Mn2 O44 1.957050 1_555
Mn2 O4 1.982797 1_455
Mn2 O31 1.986772 1_555
Mn2 O36 2.157822 1_555
Mn2 O1 2.341314 1_455
Mn3 O41 1.962869 1_555
Mn3 O47 1.966876 1_555
Mn3 O10 1.984077 1_455
Mn3 O46 2.010236 1_555
Mn3 O42 2.223509 1_555
Mn3 O8 2.376505 1_455
O0 P4 1.566151 1_554
O1 P1 1.577745 1_555
O2 P0 1.552358 1_555
O2 V2 2.016342 1_544
O3 P1 1.562046 1_555
O3 V0 1.958017 1_555
O4 P0 1.561184 1_555
O5 P2 1.560696 1_555
O6 P0 1.555623 1_555
O7 P1 1.566693 1_555
O8 P4 1.566297 1_555
O8 V0 2.014365 1_555
O9 P3 1.559530 1_555
O10 P3 1.564708 1_555
O11 P5 1.566989 1_555
O11 V0 2.148863 1_555
O12 P1 1.521810 1_555
O13 P2 1.584464 1_555
O13 V2 2.044191 1_554
O13 V1 2.137274 1_565
O14 P2 1.563533 1_555
O15 P0 1.554489 1_555
O15 V1 1.988487 1_555
O16 P3 1.551822 1_555
O16 V0 1.981619 1_555
O17 P2 1.522362 1_555
O18 P4 1.574221 1_555
O18 V2 2.106766 1_555
O19 P4 1.522205 1_555
O20 P5 1.596501 1_555
O20 V3 2.188118 1_565
O21 P6 1.523521 1_555
O22 P5 1.553139 1_555
O22 V2 1.963179 1_555
O23 P3 1.553092 1_555
O23 V3 1.977235 1_555
O24 P8 1.561748 1_555
O25 P6 1.558602 1_555
O25 V1 1.942696 1_555
O26 P5 1.517957 1_555
O27 P6 1.565532 1_555
O27 V3 1.988635 1_555
O28 P7 1.519118 1_555
O29 P7 1.571834 1_555
O29 V1 2.107131 1_555
O30 P9 1.520736 1_555
O31 P8 1.557823 1_555
O32 P11 1.556676 1_555
O32 V2 1.980504 1_555
O33 P9 1.557496 1_555
O33 V3 1.946841 1_555
O34 P9 1.582633 1_555
O34 V1 2.031843 1_556
O34 V2 2.151847 1_545
O35 P10 1.522352 1_555
O36 P6 1.566330 1_555
O37 P8 1.562448 1_555
O38 P8 1.551439 1_555
O38 V3 2.020880 1_565
O39 P7 1.575043 1_555
O40 P10 1.566195 1_555
O40 V3 2.151621 1_555
O41 P11 1.564689 1_555
O42 P9 1.564513 1_555
O43 P11 1.549787 1_555
O43 V0 2.010460 1_455
O44 P10 1.557908 1_555
O45 P11 1.548302 1_555
O45 V1 2.018325 1_566
O46 P10 1.598867 1_555
O46 V0 2.189006 1_455
O47 P7 1.567747 1_556
