# generated using pymatgen
data_Mn5Cu(PO4)6
_symmetry_space_group_name_H-M   'P 1'
_cell_length_a   8.58600421
_cell_length_b   8.55766950
_cell_length_c   8.55766932
_cell_angle_alpha   59.99999739
_cell_angle_beta   60.10910895
_cell_angle_gamma   60.10911302
_symmetry_Int_Tables_number   1
_chemical_formula_structural   Mn5Cu(PO4)6
_chemical_formula_sum   'Mn5 Cu1 P6 O24'
_cell_volume   445.34992133
_cell_formula_units_Z   1
loop_
 _symmetry_equiv_pos_site_id
 _symmetry_equiv_pos_as_xyz
  1  'x, y, z'
loop_
 _atom_site_type_symbol
 _atom_site_label
 _atom_site_symmetry_multiplicity
 _atom_site_fract_x
 _atom_site_fract_y
 _atom_site_fract_z
 _atom_site_occupancy
  Mn  Mn0  1  0.99197000  0.00267600  0.00267600  1
  Mn  Mn1  1  0.06931800  0.64356100  0.64356100  1
  Mn  Mn2  1  0.49954500  0.50015100  0.50015100  1
  Mn  Mn3  1  0.42917500  0.85694200  0.85694200  1
  Mn  Mn4  1  0.93116100  0.35628000  0.35628000  1
  Cu  Cu0  1  0.56611600  0.14462800  0.14462800  1
  P  P0  1  0.24995600  0.24954200  0.54057900  1
  P  P1  1  0.24995600  0.95992200  0.24954200  1
  P  P2  1  0.24995600  0.54057900  0.95992200  1
  P  P3  1  0.75208500  0.46050600  0.03808700  1
  P  P4  1  0.75208500  0.03808700  0.74932100  1
  P  P5  1  0.75208500  0.74932100  0.46050600  1
  O  O0  1  0.06571600  0.12172800  0.30125500  1
  O  O1  1  0.06571600  0.51130000  0.12172800  1
  O  O2  1  0.06571600  0.30125500  0.51130000  1
  O  O3  1  0.23334600  0.08436200  0.73948800  1
  O  O4  1  0.43537700  0.19791300  0.38493600  1
  O  O5  1  0.25773300  0.41915800  0.56005900  1
  O  O6  1  0.23334600  0.94280300  0.08436200  1
  O  O7  1  0.25773300  0.76305000  0.41915800  1
  O  O8  1  0.56721100  0.62150900  0.01048400  1
  O  O9  1  0.25773300  0.56005900  0.76305000  1
  O  O10  1  0.76971500  0.26517900  0.05276800  1
  O  O11  1  0.56721100  0.01048400  0.80079600  1
  O  O12  1  0.43537700  0.98177300  0.19791300  1
  O  O13  1  0.23334600  0.73948800  0.94280300  1
  O  O14  1  0.73851000  0.44667100  0.23461900  1
  O  O15  1  0.43537700  0.38493600  0.98177300  1
  O  O16  1  0.73851000  0.23461900  0.58019900  1
  O  O17  1  0.76971500  0.05276800  0.91233800  1
  O  O18  1  0.73851000  0.58019900  0.44667100  1
  O  O19  1  0.56721100  0.80079600  0.62150900  1
  O  O20  1  0.76971500  0.91233800  0.26517900  1
  O  O21  1  0.93458700  0.69290100  0.49538500  1
  O  O22  1  0.93458700  0.49538500  0.87712800  1
  O  O23  1  0.93458700  0.87712800  0.69290100  1
loop_
_geom_bond_atom_site_label_1
_geom_bond_atom_site_label_2
_geom_bond_distance
_geom_bond_site_symmetry_2
Mn0 O17 2.178675 1_554
Mn0 O20 2.178682 1_545
Mn0 O10 2.178687 1_555
Mn0 O13 2.252476 1_644
Mn0 O3 2.252478 1_654
Mn0 O6 2.252481 1_645
Mn1 O22 1.887906 1_455
Mn1 O21 1.887906 1_455
Mn1 O23 1.887906 1_455
Mn1 O9 1.984730 1_555
Mn1 O7 1.984733 1_555
Mn1 O5 1.984737 1_555
Mn2 O14 2.244955 1_555
Mn2 O16 2.244957 1_555
Mn2 O18 2.244961 1_555
Mn2 O5 2.252085 1_555
Mn2 O7 2.252092 1_555
Mn2 O9 2.252097 1_555
Mn3 O11 1.927495 1_565
Mn3 O8 1.927498 1_556
Mn3 O19 1.927502 1_555
Mn3 O6 2.022805 1_556
Mn3 O3 2.022812 1_565
Mn3 O13 2.022817 1_555
Mn4 O2 1.917547 1_655
Mn4 O1 1.917554 1_655
Mn4 O0 1.917562 1_655
Mn4 O18 2.013490 1_555
Mn4 O16 2.013498 1_555
Mn4 O14 2.013503 1_555
Cu0 O4 1.955461 1_555
Cu0 O15 1.955465 1_554
Cu0 O12 1.955469 1_545
Cu0 O10 2.086843 1_555
Cu0 O20 2.086843 1_545
Cu0 O17 2.086843 1_554
O0 P1 1.532126 1_545
O1 P2 1.532126 1_554
O2 P0 1.532126 1_555
O3 P0 1.571234 1_555
O4 P0 1.509220 1_555
O5 P0 1.577600 1_555
O6 P1 1.571234 1_555
O7 P1 1.577595 1_555
O8 P3 1.530427 1_555
O9 P2 1.577592 1_555
O10 P3 1.545807 1_555
O11 P4 1.530424 1_555
O12 P1 1.509220 1_555
O13 P2 1.571234 1_555
O14 P3 1.573369 1_555
O15 P2 1.509220 1_555
O16 P4 1.573369 1_555
O17 P4 1.545815 1_555
O18 P5 1.573369 1_555
O19 P5 1.530429 1_555
O20 P5 1.545810 1_555
O21 P5 1.531524 1_555
O22 P3 1.531519 1_556
O23 P4 1.531515 1_565
