# generated using pymatgen
data_Li8MnNi7O16
_symmetry_space_group_name_H-M   'P 1'
_cell_length_a   6.51854400
_cell_length_b   6.61461860
_cell_length_c   7.60713073
_cell_angle_alpha   64.59090264
_cell_angle_beta   75.44522777
_cell_angle_gamma   72.56987686
_symmetry_Int_Tables_number   1
_chemical_formula_structural   Li8MnNi7O16
_chemical_formula_sum   'Li8 Mn1 Ni7 O16'
_cell_volume   279.78590047
_cell_formula_units_Z   1
loop_
 _symmetry_equiv_pos_site_id
 _symmetry_equiv_pos_as_xyz
  1  'x, y, z'
loop_
 _atom_site_type_symbol
 _atom_site_label
 _atom_site_symmetry_multiplicity
 _atom_site_fract_x
 _atom_site_fract_y
 _atom_site_fract_z
 _atom_site_occupancy
  Li  Li0  1  0.93291800  0.55928100  0.81031100  1
  Li  Li1  1  0.55697500  0.93808400  0.68791500  1
  Li  Li2  1  0.18744700  0.31499600  0.56617300  1
  Li  Li3  1  0.81255300  0.68500400  0.43382700  1
  Li  Li4  1  0.44302500  0.06191600  0.31208500  1
  Li  Li5  1  0.06708200  0.44071900  0.18968900  1
  Li  Li6  1  0.69463200  0.80726400  0.06265200  1
  Li  Li7  1  0.30536800  0.19273600  0.93734800  1
  Mn  Mn0  1  0.00000000  0.00000000  0.50000000  1
  Ni  Ni0  1  0.75080500  0.25150800  0.75035200  1
  Ni  Ni1  1  0.24919500  0.74849200  0.24964800  1
  Ni  Ni2  1  0.62163000  0.37861800  0.37374200  1
  Ni  Ni3  1  0.37837000  0.62138200  0.62625800  1
  Ni  Ni4  1  0.87620100  0.12485200  0.12567500  1
  Ni  Ni5  1  0.50000000  0.50000000  0.00000000  1
  Ni  Ni6  1  0.12379900  0.87514800  0.87432500  1
  O  O0  1  0.86438400  0.91085100  0.77309600  1
  O  O1  1  0.48004200  0.29060800  0.63563100  1
  O  O2  1  0.90573700  0.32247100  0.46600300  1
  O  O3  1  0.63856100  0.58680600  0.73308300  1
  O  O4  1  0.25828700  0.96537800  0.60160100  1
  O  O5  1  0.74171300  0.03462200  0.39839900  1
  O  O6  1  0.36143900  0.41319400  0.26691700  1
  O  O7  1  0.74993300  0.47123900  0.10372400  1
  O  O8  1  0.09426300  0.67752900  0.53399700  1
  O  O9  1  0.51995800  0.70939200  0.36436900  1
  O  O10  1  0.13561600  0.08914900  0.22690400  1
  O  O11  1  0.60182900  0.18146600  0.03488900  1
  O  O12  1  0.25006700  0.52876100  0.89627600  1
  O  O13  1  0.97838600  0.78873600  0.13579200  1
  O  O14  1  0.39817100  0.81853400  0.96511100  1
  O  O15  1  0.02161400  0.21126400  0.86420800  1
loop_
_geom_bond_atom_site_label_1
_geom_bond_atom_site_label_2
_geom_bond_distance
_geom_bond_site_symmetry_2
Li0 O8 2.026568 1_655
Li0 O15 2.076880 1_655
Li0 O3 2.079781 1_555
Li0 O0 2.136327 1_555
Li0 O7 2.169427 1_556
Li0 O12 2.249114 1_655
Li1 O14 2.026254 1_555
Li1 O1 2.109700 1_565
Li1 O3 2.113357 1_555
Li1 O4 2.141215 1_555
Li1 O5 2.151561 1_565
Li1 O0 2.191800 1_555
Li2 O1 2.047441 1_555
Li2 O4 2.126471 1_545
Li2 O2 2.138181 1_455
Li2 O15 2.158024 1_555
Li2 O6 2.182962 1_555
Li2 O8 2.208564 1_555
Li3 O9 2.047441 1_555
Li3 O5 2.126471 1_565
Li3 O8 2.138181 1_655
Li3 O13 2.158024 1_555
Li3 O3 2.182962 1_555
Li3 O2 2.208564 1_555
Li4 O11 2.026254 1_555
Li4 O9 2.109700 1_545
Li4 O6 2.113357 1_555
Li4 O5 2.141215 1_555
Li4 O4 2.151561 1_545
Li4 O10 2.191800 1_555
Li5 O2 2.026568 1_455
Li5 O13 2.076880 1_455
Li5 O6 2.079781 1_555
Li5 O10 2.136327 1_555
Li5 O12 2.169427 1_554
Li5 O7 2.249114 1_455
Li6 O13 2.017118 1_555
Li6 O7 2.036789 1_555
Li6 O0 2.116541 1_554
Li6 O9 2.199202 1_555
Li6 O14 2.208528 1_554
Li6 O11 2.292544 1_565
Li7 O15 2.017118 1_555
Li7 O12 2.036789 1_555
Li7 O10 2.116541 1_556
Li7 O1 2.199202 1_555
Li7 O11 2.208528 1_556
Li7 O14 2.292544 1_545
Mn0 O4 1.937951 1_545
Mn0 O5 1.937951 1_455
Mn0 O10 1.945013 1_555
Mn0 O0 1.945013 1_445
Mn0 O8 1.953333 1_545
Mn0 O2 1.953333 1_455
Ni0 O11 2.048240 1_556
Ni0 O15 2.055802 1_655
Ni0 O2 2.057645 1_555
Ni0 O1 2.061711 1_555
Ni0 O3 2.073079 1_555
Ni0 O0 2.094252 1_545
Ni1 O14 2.048240 1_554
Ni1 O13 2.055802 1_455
Ni1 O8 2.057645 1_555
Ni1 O9 2.061711 1_555
Ni1 O6 2.073079 1_555
Ni1 O10 2.094252 1_565
Ni2 O1 1.887364 1_555
Ni2 O7 1.912483 1_555
Ni2 O6 1.972353 1_555
Ni2 O2 2.019364 1_555
Ni2 O9 2.062180 1_555
Ni2 O5 2.113259 1_555
Ni3 O9 1.887364 1_555
Ni3 O12 1.912483 1_555
Ni3 O3 1.972353 1_555
Ni3 O8 2.019364 1_555
Ni3 O1 2.062180 1_555
Ni3 O4 2.113259 1_555
Ni4 O15 1.892807 1_654
Ni4 O5 1.940528 1_555
Ni4 O10 1.940994 1_655
Ni4 O11 1.952838 1_555
Ni4 O13 2.093875 1_545
Ni4 O7 2.136817 1_555
Ni5 O7 1.909104 1_555
Ni5 O12 1.909104 1_554
Ni5 O6 1.912260 1_555
Ni5 O3 1.912260 1_554
Ni5 O11 1.929044 1_555
Ni5 O14 1.929044 1_554
Ni6 O13 1.892807 1_456
Ni6 O4 1.940528 1_555
Ni6 O0 1.940994 1_455
Ni6 O14 1.952838 1_555
Ni6 O15 2.093875 1_565
Ni6 O12 2.136817 1_555
