# generated using pymatgen
data_Li6CuF8
_symmetry_space_group_name_H-M   'P 1'
_cell_length_a   5.86660475
_cell_length_b   5.86660475
_cell_length_c   5.86660475
_cell_angle_alpha   60.00000000
_cell_angle_beta   60.00000000
_cell_angle_gamma   60.00000000
_symmetry_Int_Tables_number   1
_chemical_formula_structural   Li6CuF8
_chemical_formula_sum   'Li6 Cu1 F8'
_cell_volume   142.77280446
_cell_formula_units_Z   1
loop_
 _symmetry_equiv_pos_site_id
 _symmetry_equiv_pos_as_xyz
  1  'x, y, z'
loop_
 _atom_site_type_symbol
 _atom_site_label
 _atom_site_symmetry_multiplicity
 _atom_site_fract_x
 _atom_site_fract_y
 _atom_site_fract_z
 _atom_site_occupancy
  Li  Li0  1  0.50000000  0.00000000  0.00000000  1
  Li  Li1  1  0.00000000  0.50000000  0.00000000  1
  Li  Li2  1  0.50000000  0.50000000  0.00000000  1
  Li  Li3  1  0.00000000  0.00000000  0.50000000  1
  Li  Li4  1  0.50000000  0.00000000  0.50000000  1
  Li  Li5  1  0.00000000  0.50000000  0.50000000  1
  Cu  Cu0  1  0.00000000  0.00000000  0.00000000  1
  F  F0  1  0.25000000  0.25000000  0.25000000  1
  F  F1  1  0.75702600  0.24297400  0.24297400  1
  F  F2  1  0.75702600  0.75702600  0.24297400  1
  F  F3  1  0.24297400  0.75702600  0.24297400  1
  F  F4  1  0.75702600  0.24297400  0.75702600  1
  F  F5  1  0.24297400  0.24297400  0.75702600  1
  F  F6  1  0.24297400  0.75702600  0.75702600  1
  F  F7  1  0.75000000  0.75000000  0.75000000  1
loop_
_geom_bond_atom_site_label_1
_geom_bond_atom_site_label_2
_geom_bond_distance
_geom_bond_site_symmetry_2
Cu0 F1 2.015866 1_455
Cu0 F5 2.015866 1_554
Cu0 F3 2.015866 1_545
Cu0 F4 2.015866 1_454
Cu0 F2 2.015866 1_445
Cu0 F6 2.015866 1_544
F0 Li4 2.074158 1_555
F0 Li5 2.074158 1_555
F0 Li2 2.074158 1_555
F0 Li3 2.074158 1_555
F0 Li0 2.074158 1_555
F0 Li1 2.074158 1_555
F1 Li3 2.074977 1_655
F1 Li4 2.074977 1_555
F1 Li1 2.074977 1_655
F1 Li2 2.074977 1_555
F2 Li0 2.074977 1_565
F2 Li4 2.074977 1_565
F2 Li1 2.074977 1_655
F2 Li5 2.074977 1_655
F3 Li3 2.074977 1_565
F3 Li0 2.074977 1_565
F3 Li5 2.074977 1_555
F3 Li2 2.074977 1_555
F4 Li3 2.074977 1_655
F4 Li2 2.074977 1_556
F4 Li5 2.074977 1_655
F4 Li0 2.074977 1_556
F5 Li1 2.074977 1_556
F5 Li5 2.074977 1_555
F5 Li4 2.074977 1_555
F5 Li0 2.074977 1_556
F6 Li3 2.074977 1_565
F6 Li1 2.074977 1_556
F6 Li4 2.074977 1_565
F6 Li2 2.074977 1_556
F7 Li0 2.074158 1_566
F7 Li3 2.074158 1_665
F7 Li1 2.074158 1_656
F7 Li4 2.074158 1_565
F7 Li2 2.074158 1_556
F7 Li5 2.074158 1_655
