# generated using pymatgen
data_Li4Fe(WO4)3
_symmetry_space_group_name_H-M   'P 1'
_cell_length_a   5.18761200
_cell_length_b   5.48533955
_cell_length_c   7.52931099
_cell_angle_alpha   94.22860680
_cell_angle_beta   90.25481156
_cell_angle_gamma   90.11238059
_symmetry_Int_Tables_number   1
_chemical_formula_structural   Li4Fe(WO4)3
_chemical_formula_sum   'Li4 Fe1 W3 O12'
_cell_volume   213.66675013
_cell_formula_units_Z   1
loop_
 _symmetry_equiv_pos_site_id
 _symmetry_equiv_pos_as_xyz
  1  'x, y, z'
loop_
 _atom_site_type_symbol
 _atom_site_label
 _atom_site_symmetry_multiplicity
 _atom_site_fract_x
 _atom_site_fract_y
 _atom_site_fract_z
 _atom_site_occupancy
  Li  Li0  1  0.99835700  0.55354400  0.69894600  1
  Li  Li1  1  0.49905400  0.08144600  0.22905700  1
  Li  Li2  1  0.00329300  0.50748100  0.25674500  1
  Li  Li3  1  0.49421500  0.08483100  0.69771300  1
  Fe  Fe0  1  0.50164400  0.50821300  0.49960700  1
  W  W0  1  0.99691000  0.99921200  0.99527000  1
  W  W1  1  0.00412800  0.99898000  0.49503900  1
  W  W2  1  0.49827800  0.50447900  0.99994600  1
  O  O0  1  0.29717800  0.80782400  0.56389700  1
  O  O1  1  0.11721100  0.99124200  0.24741600  1
  O  O2  1  0.31902100  0.18461800  0.94274000  1
  O  O3  1  0.19481900  0.28958800  0.56350200  1
  O  O4  1  0.80398600  0.30980700  0.06979200  1
  O  O5  1  0.38205100  0.48198300  0.24402700  1
  O  O6  1  0.61919600  0.48759500  0.76133800  1
  O  O7  1  0.18758200  0.67706900  0.93994400  1
  O  O8  1  0.82198500  0.69064600  0.45296200  1
  O  O9  1  0.68234700  0.80629000  0.06823300  1
  O  O10  1  0.87935700  0.99617900  0.75336900  1
  O  O11  1  0.69938800  0.18137600  0.44925400  1
loop_
_geom_bond_atom_site_label_1
_geom_bond_atom_site_label_2
_geom_bond_distance
_geom_bond_site_symmetry_2
Li0 O3 1.993078 1_655
Li0 O6 2.061769 1_555
Li0 O7 2.124975 1_655
Li0 O8 2.241871 1_555
Li0 O0 2.365830 1_655
Li0 O10 2.511097 1_555
Li1 O11 1.994411 1_555
Li1 O1 2.048510 1_545
Li1 O9 2.096376 1_545
Li1 O5 2.275434 1_555
Li1 O4 2.395830 1_555
Li1 O2 2.450297 1_554
Li2 O8 1.968229 1_455
Li2 O5 1.972344 1_555
Li2 O4 1.995925 1_455
Li3 O0 2.031680 1_545
Li3 O2 2.096936 1_555
Li3 O10 2.104844 1_545
Li3 O3 2.203445 1_555
Li3 O11 2.252671 1_555
Li3 O6 2.316546 1_555
Fe0 O8 1.984150 1_555
Fe0 O0 1.988580 1_555
Fe0 O5 2.014172 1_555
Fe0 O3 2.070623 1_555
Fe0 O6 2.071374 1_555
Fe0 O11 2.078618 1_555
O0 W1 1.938756 1_555
O1 W1 1.954532 1_555
O1 W0 1.999359 1_454
O2 W2 2.001821 1_555
O2 W0 2.010343 1_445
O3 W1 1.911412 1_545
O4 W2 2.003485 1_554
O4 W0 2.022332 1_544
O5 W2 1.949138 1_554
O6 W2 1.901413 1_555
O7 W2 1.939267 1_555
O7 W0 2.043622 1_455
O8 W1 1.940562 1_655
O9 W2 1.944441 1_554
O9 W0 2.042420 1_554
O10 W0 1.917049 1_555
O10 W1 2.053767 1_655
O11 W1 1.916045 1_645
