# generated using pymatgen
data_Sr2Tl2O5
_symmetry_space_group_name_H-M   'P 1'
_cell_length_a   13.96583265
_cell_length_b   6.03794457
_cell_length_c   7.01483229
_cell_angle_alpha   73.59885924
_cell_angle_beta   90.00000000
_cell_angle_gamma   90.00000000
_symmetry_Int_Tables_number   1
_chemical_formula_structural   Sr2Tl2O5
_chemical_formula_sum   'Sr8 Tl8 O20'
_cell_volume   567.45506071
_cell_formula_units_Z   4
loop_
 _symmetry_equiv_pos_site_id
 _symmetry_equiv_pos_as_xyz
  1  'x, y, z'
loop_
 _atom_site_type_symbol
 _atom_site_label
 _atom_site_symmetry_multiplicity
 _atom_site_fract_x
 _atom_site_fract_y
 _atom_site_fract_z
 _atom_site_occupancy
  Sr  Sr0  1  0.11365472  0.54956831  0.86318374  1
  Sr  Sr1  1  0.76252500  0.93475876  0.76038083  1
  Sr  Sr2  1  0.88634528  0.45043169  0.13681626  1
  Sr  Sr3  1  0.23747500  0.06524124  0.23961917  1
  Sr  Sr4  1  0.38634528  0.54956831  0.36318374  1
  Sr  Sr5  1  0.73747500  0.93475876  0.26038083  1
  Sr  Sr6  1  0.26252500  0.06524124  0.73961917  1
  Sr  Sr7  1  0.61365472  0.45043169  0.63681626  1
  Tl  Tl0  1  0.39428786  0.54659188  0.86057213  1
  Tl  Tl1  1  -0.00000000  0.00000000  0.00000000  1
  Tl  Tl2  1  0.60571214  0.45340812  0.13942787  1
  Tl  Tl3  1  0.50000000  0.00000000  0.00000000  1
  Tl  Tl4  1  0.10571214  0.54659188  0.36057213  1
  Tl  Tl5  1  0.50000000  0.00000000  0.50000000  1
  Tl  Tl6  1  0.89428786  0.45340812  0.63942787  1
  Tl  Tl7  1  -0.00000000  0.00000000  0.50000000  1
  O  O0  1  0.63777085  0.15959010  0.96447008  1
  O  O1  1  0.26693383  0.36638920  0.92052538  1
  O  O2  1  0.94541453  0.73215630  0.81583972  1
  O  O3  1  0.86057927  0.14592112  0.96263673  1
  O  O4  1  0.53427197  0.70734226  0.82270883  1
  O  O5  1  0.36222915  0.84040990  0.03552992  1
  O  O6  1  0.05458547  0.26784370  0.18416028  1
  O  O7  1  0.13942073  0.85407888  0.03736327  1
  O  O8  1  0.46572803  0.29265774  0.17729117  1
  O  O9  1  0.73306617  0.63361080  0.07947462  1
  O  O10  1  0.63942073  0.14592112  0.46263673  1
  O  O11  1  0.86222915  0.15959010  0.46447008  1
  O  O12  1  0.23306617  0.36638920  0.42052538  1
  O  O13  1  0.55458547  0.73215630  0.31583972  1
  O  O14  1  0.96572803  0.70734226  0.32270883  1
  O  O15  1  0.03427197  0.29265774  0.67729117  1
  O  O16  1  0.44541453  0.26784370  0.68416028  1
  O  O17  1  0.76693383  0.63361080  0.57947462  1
  O  O18  1  0.13777085  0.84040990  0.53552992  1
  O  O19  1  0.36057927  0.85407888  0.53736327  1
loop_
_geom_bond_atom_site_label_1
_geom_bond_atom_site_label_2
_geom_bond_distance
_geom_bond_site_symmetry_2
O0 Tl3 2.134740 1_556
O0 Tl2 2.466489 1_556
O0 Sr7 2.490126 1_555
O0 Sr5 2.549364 1_546
O0 Sr1 2.832951 1_545
O1 Tl0 2.065371 1_555
O1 Sr0 2.390883 1_555
O1 Sr3 2.487459 1_556
O1 Sr6 2.494710 1_555
O2 Tl1 2.458715 1_666
O2 Tl6 2.459705 1_555
O2 Tl7 2.466141 1_665
O2 Sr2 2.545751 1_556
O2 Sr0 2.576748 1_655
O2 Sr1 2.811232 1_555
O3 Tl1 2.122702 1_656
O3 Sr2 2.504305 1_556
O3 Tl6 2.536115 1_555
O3 Sr1 2.556441 1_545
O3 Sr5 2.727626 1_546
O4 Tl0 2.165418 1_555
O4 Tl3 2.477765 1_566
O4 Tl5 2.493420 1_565
O4 Tl2 2.521640 1_556
O4 Sr7 2.545210 1_555
O5 Tl3 2.134740 1_565
O5 Tl0 2.466489 1_554
O5 Sr4 2.490126 1_555
O5 Sr6 2.549364 1_564
O5 Sr3 2.832951 1_565
O6 Tl1 2.458715 1_555
O6 Tl4 2.459705 1_555
O6 Tl7 2.466141 1_555
O6 Sr0 2.545751 1_554
O6 Sr2 2.576748 1_455
O6 Sr3 2.811232 1_555
O7 Tl1 2.122702 1_565
O7 Sr0 2.504305 1_554
O7 Tl4 2.536115 1_555
O7 Sr3 2.556441 1_565
O7 Sr6 2.727626 1_564
O8 Tl2 2.165418 1_555
O8 Tl3 2.477765 1_555
O8 Tl5 2.493420 1_555
O8 Tl0 2.521640 1_554
O8 Sr4 2.545210 1_555
O9 Tl2 2.065371 1_555
O9 Sr2 2.390883 1_555
O9 Sr1 2.487459 1_554
O9 Sr5 2.494710 1_555
O10 Tl5 2.122702 1_555
O10 Sr7 2.504305 1_555
O10 Tl2 2.536115 1_555
O10 Sr5 2.556441 1_545
O10 Sr1 2.727626 1_545
O11 Tl7 2.134740 1_655
O11 Tl6 2.466489 1_555
O11 Sr2 2.490126 1_555
O11 Sr1 2.549364 1_545
O11 Sr5 2.832951 1_545
O12 Tl4 2.065371 1_555
O12 Sr4 2.390883 1_555
O12 Sr6 2.487459 1_555
O12 Sr3 2.494710 1_555
O13 Tl5 2.458715 1_565
O13 Tl2 2.459705 1_555
O13 Tl3 2.466141 1_565
O13 Sr7 2.545751 1_555
O13 Sr4 2.576748 1_555
O13 Sr5 2.811232 1_555
O14 Tl4 2.165418 1_655
O14 Tl7 2.477765 1_665
O14 Tl1 2.493420 1_665
O14 Tl6 2.521640 1_555
O14 Sr2 2.545210 1_555
O15 Tl6 2.165418 1_455
O15 Tl7 2.477765 1_555
O15 Tl1 2.493420 1_556
O15 Tl4 2.521640 1_555
O15 Sr0 2.545210 1_555
O16 Tl5 2.458715 1_555
O16 Tl0 2.459705 1_555
O16 Tl3 2.466141 1_556
O16 Sr4 2.545751 1_555
O16 Sr7 2.576748 1_555
O16 Sr6 2.811232 1_555
O17 Tl6 2.065371 1_555
O17 Sr7 2.390883 1_555
O17 Sr5 2.487459 1_555
O17 Sr1 2.494710 1_555
O18 Tl7 2.134740 1_565
O18 Tl4 2.466489 1_555
O18 Sr0 2.490126 1_555
O18 Sr3 2.549364 1_565
O18 Sr6 2.832951 1_565
O19 Tl5 2.122702 1_565
O19 Sr4 2.504305 1_555
O19 Tl0 2.536115 1_555
O19 Sr6 2.556441 1_565
O19 Sr3 2.727626 1_565
