# generated using pymatgen
data_Li5Fe(Ni2O5)2
_symmetry_space_group_name_H-M   'P 1'
_cell_length_a   24.02484072
_cell_length_b   24.02484072
_cell_length_c   24.02484000
_cell_angle_alpha   6.93812594
_cell_angle_beta   6.93812594
_cell_angle_gamma   6.93812529
_symmetry_Int_Tables_number   1
_chemical_formula_structural   Li5Fe(Ni2O5)2
_chemical_formula_sum   'Li5 Fe1 Ni4 O10'
_cell_volume   175.45178727
_cell_formula_units_Z   1
loop_
 _symmetry_equiv_pos_site_id
 _symmetry_equiv_pos_as_xyz
  1  'x, y, z'
loop_
 _atom_site_type_symbol
 _atom_site_label
 _atom_site_symmetry_multiplicity
 _atom_site_fract_x
 _atom_site_fract_y
 _atom_site_fract_z
 _atom_site_occupancy
  Li  Li0  1  0.79938100  0.79938100  0.79938100  1
  Li  Li1  1  0.39990200  0.39990200  0.39990200  1
  Li  Li2  1  0.60009800  0.60009800  0.60009800  1
  Li  Li3  1  0.20061900  0.20061900  0.20061900  1
  Li  Li4  1  0.00000000  0.00000000  0.00000000  1
  Fe  Fe0  1  0.50000000  0.50000000  0.50000000  1
  Ni  Ni0  1  0.90039500  0.90039500  0.90039500  1
  Ni  Ni1  1  0.69998900  0.69998900  0.69998900  1
  Ni  Ni2  1  0.30001100  0.30001100  0.30001100  1
  Ni  Ni3  1  0.09960500  0.09960500  0.09960500  1
  O  O0  1  0.64839400  0.64839400  0.64839400  1
  O  O1  1  0.44777700  0.44777700  0.44777700  1
  O  O2  1  0.84913800  0.84913800  0.84913800  1
  O  O3  1  0.75115800  0.75115800  0.75115800  1
  O  O4  1  0.55222300  0.55222300  0.55222300  1
  O  O5  1  0.24884200  0.24884200  0.24884200  1
  O  O6  1  0.04835800  0.04835800  0.04835800  1
  O  O7  1  0.95164200  0.95164200  0.95164200  1
  O  O8  1  0.15086200  0.15086200  0.15086200  1
  O  O9  1  0.35160600  0.35160600  0.35160600  1
loop_
_geom_bond_atom_site_label_1
_geom_bond_atom_site_label_2
_geom_bond_distance
_geom_bond_site_symmetry_2
Li0 O8 2.126090 1_656
Li0 O8 2.126090 1_566
Li0 O8 2.126090 1_665
Li0 O1 2.131528 1_655
Li0 O1 2.131528 1_565
Li0 O1 2.131529 1_556
Li1 O3 2.116200 1_455
Li1 O3 2.116200 1_545
Li1 O3 2.116201 1_554
Li1 O6 2.128872 1_655
Li1 O6 2.128872 1_565
Li1 O6 2.128873 1_556
Li2 O5 2.116200 1_655
Li2 O5 2.116200 1_565
Li2 O5 2.116201 1_556
Li2 O7 2.128872 1_455
Li2 O7 2.128872 1_545
Li2 O7 2.128873 1_554
Li3 O2 2.126090 1_544
Li3 O2 2.126090 1_454
Li3 O2 2.126090 1_445
Li3 O4 2.131528 1_545
Li3 O4 2.131528 1_455
Li3 O4 2.131529 1_554
Li4 O9 2.131617 1_545
Li4 O0 2.131617 1_544
Li4 O0 2.131617 1_454
Li4 O9 2.131617 1_455
Li4 O0 2.131617 1_445
Li4 O9 2.131617 1_554
Fe0 O2 2.027075 1_455
Fe0 O2 2.027075 1_545
Fe0 O8 2.027075 1_655
Fe0 O8 2.027075 1_565
Fe0 O2 2.027075 1_554
Fe0 O8 2.027075 1_556
Ni0 O4 1.988972 1_565
Ni0 O4 1.988972 1_655
Ni0 O4 1.988973 1_556
Ni0 O5 1.999647 1_566
Ni0 O5 1.999647 1_656
Ni0 O5 1.999648 1_665
Ni1 O6 1.996605 1_566
Ni1 O6 1.996605 1_656
Ni1 O6 1.996606 1_665
Ni1 O9 1.997151 1_565
Ni1 O9 1.997151 1_655
Ni1 O9 1.997151 1_556
Ni2 O7 1.996605 1_454
Ni2 O7 1.996605 1_544
Ni2 O7 1.996606 1_445
Ni2 O0 1.997151 1_545
Ni2 O0 1.997151 1_455
Ni2 O0 1.997151 1_554
Ni3 O1 1.988972 1_545
Ni3 O1 1.988972 1_455
Ni3 O1 1.988973 1_554
Ni3 O3 1.999647 1_544
Ni3 O3 1.999647 1_454
Ni3 O3 1.999648 1_445
