# generated using pymatgen
data_Li14Cr9(P2O7)8
_symmetry_space_group_name_H-M   'P 1'
_cell_length_a   11.22371600
_cell_length_b   9.67784154
_cell_length_c   12.75737650
_cell_angle_alpha   68.74513866
_cell_angle_beta   116.50700603
_cell_angle_gamma   105.79913447
_symmetry_Int_Tables_number   1
_chemical_formula_structural   Li14Cr9(P2O7)8
_chemical_formula_sum   'Li14 Cr9 P16 O56'
_cell_volume   1145.52020616
_cell_formula_units_Z   1
loop_
 _symmetry_equiv_pos_site_id
 _symmetry_equiv_pos_as_xyz
  1  'x, y, z'
loop_
 _atom_site_type_symbol
 _atom_site_label
 _atom_site_symmetry_multiplicity
 _atom_site_fract_x
 _atom_site_fract_y
 _atom_site_fract_z
 _atom_site_occupancy
  Li  Li0  1  0.13189300  0.93543600  0.59319500  1
  Li  Li1  1  0.02371500  0.64547000  0.39467500  1
  Li  Li2  1  0.37669400  0.04231000  0.91302300  1
  Li  Li3  1  0.12694100  0.43963600  0.08228800  1
  Li  Li4  1  0.37399000  0.54345400  0.40975000  1
  Li  Li5  1  0.49265000  0.35417900  0.82703800  1
  Li  Li6  1  0.50172100  0.85574800  0.31779900  1
  Li  Li7  1  0.49827900  0.14425200  0.68220100  1
  Li  Li8  1  0.50735000  0.64582100  0.17296200  1
  Li  Li9  1  0.62601000  0.45654600  0.59025000  1
  Li  Li10  1  0.87305900  0.56036400  0.91771200  1
  Li  Li11  1  0.62330600  0.95769000  0.08697700  1
  Li  Li12  1  0.97628500  0.35453000  0.60532500  1
  Li  Li13  1  0.86810700  0.06456400  0.40680500  1
  Cr  Cr0  1  0.22036200  0.69899000  0.92078500  1
  Cr  Cr1  1  0.25534800  0.56712300  0.70219300  1
  Cr  Cr2  1  0.22249200  0.19662200  0.42261700  1
  Cr  Cr3  1  0.00000000  0.00000000  0.00000000  1
  Cr  Cr4  1  0.72967200  0.92731700  0.79099600  1
  Cr  Cr5  1  0.27032800  0.07268300  0.20900400  1
  Cr  Cr6  1  0.77750800  0.80337800  0.57738300  1
  Cr  Cr7  1  0.74465200  0.43287700  0.29780700  1
  Cr  Cr8  1  0.77963800  0.30101000  0.07921500  1
  P  P0  1  0.06243300  0.97652000  0.77694100  1
  P  P1  1  0.30503400  0.36035300  0.99320100  1
  P  P2  1  0.06209900  0.47556700  0.27277800  1
  P  P3  1  0.46089800  0.80791800  0.86746000  1
  P  P4  1  0.20951400  0.23576000  0.66153500  1
  P  P5  1  0.30083100  0.85790100  0.49165500  1
  P  P6  1  0.20579600  0.73985900  0.15897800  1
  P  P7  1  0.53470900  0.68547300  0.63093000  1
  P  P8  1  0.46529100  0.31452700  0.36907000  1
  P  P9  1  0.79420400  0.26014100  0.84102200  1
  P  P10  1  0.69916900  0.14209900  0.50834500  1
  P  P11  1  0.79048600  0.76424000  0.33846500  1
  P  P12  1  0.53910200  0.19208200  0.13254000  1
  P  P13  1  0.93790100  0.52443300  0.72722200  1
  P  P14  1  0.69496600  0.63964700  0.00679900  1
  P  P15  1  0.93756700  0.02348000  0.22305900  1
  O  O0  1  0.00095200  0.58193900  0.83995500  1
  O  O1  1  0.19940500  0.92222600  0.86307200  1
  O  O2  1  0.02932400  0.53752500  0.66456400  1
  O  O3  1  0.10035300  0.15805300  0.72827400  1
  O  O4  1  0.31406100  0.74136200  0.79671900  1
  O  O5  1  0.46759500  0.84101000  0.98000600  1
  O  O6  1  0.20407500  0.71539100  0.51925900  1
  O  O7  1  0.27814800  0.98452400  0.52382200  1
  O  O8  1  0.30171900  0.39767900  0.86584100  1
  O  O9  1  0.18390000  0.39789800  0.61367700  1
  O  O10  1  0.10513100  0.65827300  0.23077800  1
  O  O11  1  0.00390400  0.08584500  0.33295900  1
  O  O12  1  0.15841100  0.15909400  0.56013300  1
  O  O13  1  0.30225600  0.90070300  0.36562100  1
  O  O14  1  0.19822400  0.41826000  0.36021100  1
  O  O15  1  0.18108700  0.90515600  0.11003700  1
  O  O16  1  0.51949900  0.94108100  0.78885800  1
  O  O17  1  0.54037200  0.66694500  0.91408300  1
  O  O18  1  0.35151900  0.20241100  0.75260100  1
  O  O19  1  0.02914600  0.04349000  0.15747900  1
  O  O20  1  0.15456900  0.66580400  0.05627900  1
  O  O21  1  0.45073300  0.82226300  0.58763400  1
  O  O22  1  0.48000200  0.55093800  0.71075000  1
  O  O23  1  0.34985600  0.71448700  0.24684900  1
  O  O24  1  0.71988200  0.51082600  0.97846300  1
  O  O25  1  0.78297300  0.78405400  0.96809300  1
  O  O26  1  0.31998300  0.24213600  0.30137200  1
  O  O27  1  0.47139700  0.34345600  0.48278000  1
  O  O28  1  0.52860300  0.65654400  0.51722000  1
  O  O29  1  0.68001700  0.75786400  0.69862800  1
  O  O30  1  0.21702700  0.21594600  0.03190700  1
  O  O31  1  0.28011800  0.48917400  0.02153700  1
  O  O32  1  0.65014400  0.28551300  0.75315100  1
  O  O33  1  0.51999800  0.44906200  0.28925000  1
  O  O34  1  0.54926700  0.17773700  0.41236600  1
  O  O35  1  0.84543000  0.33419600  0.94372100  1
  O  O36  1  0.97085400  0.95651000  0.84252100  1
  O  O37  1  0.64848100  0.79758900  0.24739900  1
  O  O38  1  0.45962800  0.33305500  0.08591700  1
  O  O39  1  0.48050100  0.05891900  0.21114200  1
  O  O40  1  0.81891300  0.09484400  0.88996300  1
  O  O41  1  0.80177600  0.58174000  0.63978900  1
  O  O42  1  0.69774400  0.09929700  0.63437900  1
  O  O43  1  0.84158900  0.84090600  0.43986700  1
  O  O44  1  0.99609600  0.91415500  0.66704100  1
  O  O45  1  0.89486900  0.34172700  0.76922200  1
  O  O46  1  0.81610000  0.60210200  0.38632300  1
  O  O47  1  0.69828100  0.60232100  0.13415900  1
  O  O48  1  0.72185200  0.01547600  0.47617800  1
  O  O49  1  0.79592500  0.28460900  0.48074100  1
  O  O50  1  0.53240500  0.15899000  0.01999400  1
  O  O51  1  0.68593900  0.25863800  0.20328100  1
  O  O52  1  0.89964700  0.84194700  0.27172600  1
  O  O53  1  0.97067600  0.46247500  0.33543600  1
  O  O54  1  0.80059500  0.07777400  0.13692800  1
  O  O55  1  0.99904800  0.41806100  0.16004500  1
loop_
_geom_bond_atom_site_label_1
_geom_bond_atom_site_label_2
_geom_bond_distance
_geom_bond_site_symmetry_2
Li0 O12 2.012706 1_565
Li0 O44 2.055001 1_455
Li0 O7 2.066601 1_555
Li1 O53 2.014118 1_455
Li1 O6 2.060050 1_555
Li1 O46 2.212609 1_455
Li1 O52 2.311860 1_455
Li1 O10 2.584218 1_555
Li2 O1 1.965201 1_545
Li2 O18 2.022902 1_555
Li2 O50 2.026213 1_556
Li2 O5 2.159516 1_545
Li3 O55 2.011396 1_455
Li3 O20 2.047648 1_555
Li3 O31 2.063333 1_555
Li4 O14 1.974817 1_555
Li4 O28 2.004746 1_555
Li4 O23 2.092766 1_555
Li4 O27 2.178354 1_555
Li5 O22 1.938565 1_555
Li5 O18 1.992463 1_555
Li5 O50 2.436005 1_556
Li5 O8 2.569783 1_555
Li5 O32 2.652520 1_555
Li6 O39 1.949427 1_565
Li6 O23 1.960789 1_555
Li6 O37 2.455309 1_555
Li6 O28 2.521033 1_555
Li7 O16 1.949427 1_545
Li7 O32 1.960789 1_555
Li7 O18 2.455309 1_555
Li7 O27 2.521033 1_555
Li8 O33 1.938565 1_555
Li8 O37 1.992463 1_555
Li8 O5 2.436005 1_554
Li8 O47 2.569783 1_555
Li8 O23 2.652520 1_555
Li9 O41 1.974817 1_555
Li9 O27 2.004746 1_555
Li9 O32 2.092766 1_555
Li9 O28 2.178354 1_555
Li10 O0 2.011396 1_655
Li10 O35 2.047647 1_555
Li10 O24 2.063333 1_555
Li11 O54 1.965201 1_565
Li11 O37 2.022902 1_555
Li11 O5 2.026213 1_554
Li11 O50 2.159516 1_565
Li12 O2 2.014118 1_655
Li12 O49 2.060050 1_555
Li12 O9 2.212609 1_655
Li12 O3 2.311860 1_655
Li12 O45 2.584218 1_555
Li13 O43 2.012706 1_545
Li13 O11 2.055001 1_655
Li13 O48 2.066601 1_555
Cr0 O1 2.057613 1_555
Cr0 O20 2.060106 1_556
Cr0 O31 2.074823 1_556
Cr0 O4 2.135323 1_555
Cr0 O0 2.339262 1_555
Cr0 O5 2.639051 1_555
Cr1 O8 2.081160 1_555
Cr1 O9 2.101860 1_555
Cr1 O6 2.158582 1_555
Cr1 O4 2.211749 1_555
Cr1 O2 2.316243 1_555
Cr1 O22 2.520148 1_555
Cr2 O14 2.048265 1_555
Cr2 O12 2.061307 1_555
Cr2 O7 2.080233 1_545
Cr2 O26 2.130287 1_555
Cr2 O11 2.329952 1_555
Cr2 O27 2.669830 1_555
Cr3 O36 2.066830 1_444
Cr3 O19 2.066830 1_555
Cr3 O15 2.116351 1_545
Cr3 O40 2.116351 1_454
Cr4 O42 2.040905 1_565
Cr4 O25 2.087745 1_555
Cr4 O40 2.167248 1_565
Cr4 O29 2.169281 1_555
Cr4 O16 2.386219 1_555
Cr4 O36 2.443245 1_555
Cr5 O13 2.040905 1_545
Cr5 O30 2.087745 1_555
Cr5 O15 2.167248 1_545
Cr5 O26 2.169281 1_555
Cr5 O39 2.386219 1_555
Cr5 O19 2.443245 1_555
Cr6 O41 2.048265 1_555
Cr6 O43 2.061307 1_555
Cr6 O48 2.080233 1_565
Cr6 O29 2.130287 1_555
Cr6 O44 2.329952 1_555
Cr6 O28 2.669830 1_555
Cr7 O47 2.081160 1_555
Cr7 O46 2.101860 1_555
Cr7 O49 2.158582 1_555
Cr7 O51 2.211749 1_555
Cr7 O53 2.316243 1_555
Cr7 O33 2.520148 1_555
Cr8 O54 2.057613 1_555
Cr8 O35 2.060098 1_554
Cr8 O24 2.074823 1_554
Cr8 O51 2.135323 1_555
Cr8 O55 2.339262 1_555
Cr8 O50 2.639051 1_555
O0 P13 1.528487 1_455
O1 P0 1.536324 1_555
O2 P13 1.515198 1_455
O3 P0 1.640424 1_545
O3 P4 1.660340 1_555
O4 P3 1.568835 1_555
O5 P3 1.547146 1_555
O6 P5 1.542445 1_555
O7 P5 1.537093 1_555
O8 P1 1.516443 1_555
O9 P4 1.520523 1_555
O10 P6 1.628683 1_555
O10 P2 1.651043 1_555
O11 P15 1.523609 1_455
O12 P4 1.534540 1_555
O13 P5 1.514438 1_555
O14 P2 1.541988 1_555
O15 P6 1.545539 1_555
O16 P3 1.512992 1_555
O17 P3 1.616023 1_555
O17 P14 1.634196 1_556
O18 P4 1.532834 1_555
O19 P15 1.528291 1_455
O20 P6 1.531269 1_555
O21 P5 1.618585 1_555
O21 P7 1.621898 1_555
O22 P7 1.506875 1_555
O23 P6 1.526431 1_555
O24 P14 1.539482 1_556
O25 P14 1.534920 1_556
O26 P8 1.567094 1_555
O27 P8 1.543605 1_555
O28 P7 1.543605 1_555
O29 P7 1.567094 1_555
O30 P1 1.534920 1_554
O31 P1 1.539482 1_554
O32 P9 1.526431 1_555
O33 P8 1.506875 1_555
O34 P10 1.618585 1_555
O34 P8 1.621898 1_555
O35 P9 1.531271 1_555
O36 P0 1.528291 1_655
O37 P11 1.532834 1_555
O38 P12 1.616023 1_555
O38 P1 1.634196 1_554
O39 P12 1.512992 1_555
O40 P9 1.545539 1_555
O41 P13 1.541988 1_555
O42 P10 1.514438 1_555
O43 P11 1.534540 1_555
O44 P0 1.523609 1_655
O45 P9 1.628683 1_555
O45 P13 1.651043 1_555
O46 P11 1.520523 1_555
O47 P14 1.516443 1_555
O48 P10 1.537093 1_555
O49 P10 1.542445 1_555
O50 P12 1.547146 1_555
O51 P12 1.568835 1_555
O52 P15 1.640424 1_565
O52 P11 1.660340 1_555
O53 P2 1.515198 1_655
O54 P15 1.536324 1_555
O55 P2 1.528487 1_655
