# generated using pymatgen
data_Li4Fe3P3O12F
_symmetry_space_group_name_H-M   'P 1'
_cell_length_a   8.44988400
_cell_length_b   8.44988400
_cell_length_c   8.44988400
_cell_angle_alpha   90.00000000
_cell_angle_beta   90.00000000
_cell_angle_gamma   90.00000000
_symmetry_Int_Tables_number   1
_chemical_formula_structural   Li4Fe3P3O12F
_chemical_formula_sum   'Li8 Fe6 P6 O24 F2'
_cell_volume   603.32627727
_cell_formula_units_Z   2
loop_
 _symmetry_equiv_pos_site_id
 _symmetry_equiv_pos_as_xyz
  1  'x, y, z'
loop_
 _atom_site_type_symbol
 _atom_site_label
 _atom_site_symmetry_multiplicity
 _atom_site_fract_x
 _atom_site_fract_y
 _atom_site_fract_z
 _atom_site_occupancy
  Li  Li0  1  0.14313000  0.14313000  0.14313000  1
  Li  Li1  1  0.14313000  0.85687000  0.85687000  1
  Li  Li2  1  0.35687000  0.35687000  0.64313000  1
  Li  Li3  1  0.35687000  0.64313000  0.35687000  1
  Li  Li4  1  0.64313000  0.35687000  0.35687000  1
  Li  Li5  1  0.64313000  0.64313000  0.64313000  1
  Li  Li6  1  0.85687000  0.14313000  0.85687000  1
  Li  Li7  1  0.85687000  0.85687000  0.14313000  1
  Fe  Fe0  1  0.00000000  0.50000000  0.25000000  1
  Fe  Fe1  1  0.00000000  0.50000000  0.75000000  1
  Fe  Fe2  1  0.25000000  0.00000000  0.50000000  1
  Fe  Fe3  1  0.50000000  0.25000000  0.00000000  1
  Fe  Fe4  1  0.50000000  0.75000000  0.00000000  1
  Fe  Fe5  1  0.75000000  0.00000000  0.50000000  1
  P  P0  1  0.00000000  0.25000000  0.50000000  1
  P  P1  1  0.00000000  0.75000000  0.50000000  1
  P  P2  1  0.25000000  0.50000000  0.00000000  1
  P  P3  1  0.50000000  0.00000000  0.25000000  1
  P  P4  1  0.50000000  0.00000000  0.75000000  1
  P  P5  1  0.75000000  0.50000000  0.00000000  1
  O  O0  1  0.11575100  0.35289900  0.59973800  1
  O  O1  1  0.11575100  0.64710100  0.40026200  1
  O  O2  1  0.09973800  0.14710100  0.38424900  1
  O  O3  1  0.09973800  0.85289900  0.61575100  1
  O  O4  1  0.14710100  0.38424900  0.09973800  1
  O  O5  1  0.14710100  0.61575100  0.90026200  1
  O  O6  1  0.35289900  0.40026200  0.88424900  1
  O  O7  1  0.35289900  0.59973800  0.11575100  1
  O  O8  1  0.40026200  0.11575100  0.64710100  1
  O  O9  1  0.40026200  0.88424900  0.35289900  1
  O  O10  1  0.38424900  0.09973800  0.14710100  1
  O  O11  1  0.38424900  0.90026200  0.85289900  1
  O  O12  1  0.61575100  0.09973800  0.85289900  1
  O  O13  1  0.61575100  0.90026200  0.14710100  1
  O  O14  1  0.59973800  0.11575100  0.35289900  1
  O  O15  1  0.59973800  0.88424900  0.64710100  1
  O  O16  1  0.64710100  0.40026200  0.11575100  1
  O  O17  1  0.64710100  0.59973800  0.88424900  1
  O  O18  1  0.85289900  0.38424900  0.90026200  1
  O  O19  1  0.85289900  0.61575100  0.09973800  1
  O  O20  1  0.90026200  0.14710100  0.61575100  1
  O  O21  1  0.90026200  0.85289900  0.38424900  1
  O  O22  1  0.88424900  0.35289900  0.40026200  1
  O  O23  1  0.88424900  0.64710100  0.59973800  1
  F  F0  1  0.00000000  0.00000000  0.00000000  1
  F  F1  1  0.50000000  0.50000000  0.50000000  1
loop_
_geom_bond_atom_site_label_1
_geom_bond_atom_site_label_2
_geom_bond_distance
_geom_bond_site_symmetry_2
Li0 O10 2.070429 1_555
Li0 O2 2.070429 1_555
Li0 O4 2.070429 1_555
Li1 O5 2.070429 1_555
Li1 O11 2.070429 1_555
Li1 O3 2.070429 1_555
Li2 O8 2.070429 1_555
Li2 O6 2.070429 1_555
Li2 O0 2.070429 1_555
Li3 O9 2.070429 1_555
Li3 O1 2.070429 1_555
Li3 O7 2.070429 1_555
Li4 O14 2.070429 1_555
Li4 O22 2.070429 1_555
Li4 O16 2.070429 1_555
Li5 O15 2.070429 1_555
Li5 O23 2.070429 1_555
Li5 O17 2.070429 1_555
Li6 O20 2.070429 1_555
Li6 O12 2.070429 1_555
Li6 O18 2.070429 1_555
Li7 O13 2.070429 1_555
Li7 O19 2.070429 1_555
Li7 O21 2.070429 1_555
Fe0 O4 2.028248 1_555
Fe0 O1 2.028248 1_555
Fe0 O22 2.028248 1_455
Fe0 O19 2.028248 1_455
Fe1 O18 2.028248 1_455
Fe1 O0 2.028248 1_555
Fe1 O5 2.028248 1_555
Fe1 O23 2.028248 1_455
Fe2 O8 2.028248 1_555
Fe2 O2 2.028248 1_555
Fe2 O9 2.028248 1_545
Fe2 O3 2.028248 1_545
Fe3 O16 2.028248 1_555
Fe3 O6 2.028248 1_554
Fe3 O10 2.028248 1_555
Fe3 O12 2.028248 1_554
Fe4 O11 2.028248 1_554
Fe4 O7 2.028248 1_555
Fe4 O13 2.028248 1_555
Fe4 O17 2.028248 1_554
Fe5 O21 2.028248 1_545
Fe5 O20 2.028248 1_555
Fe5 O14 2.028248 1_555
Fe5 O15 2.028248 1_545
O0 P0 1.556572 1_555
O1 P1 1.556572 1_555
O2 P0 1.556572 1_555
O3 P1 1.556572 1_555
O4 P2 1.556572 1_555
O5 P2 1.556572 1_556
O6 P2 1.556572 1_556
O7 P2 1.556572 1_555
O8 P4 1.556572 1_555
O9 P3 1.556572 1_565
O10 P3 1.556572 1_555
O11 P4 1.556572 1_565
O12 P4 1.556572 1_555
O13 P3 1.556572 1_565
O14 P3 1.556572 1_555
O15 P4 1.556572 1_565
O16 P5 1.556572 1_555
O17 P5 1.556572 1_556
O18 P5 1.556572 1_556
O19 P5 1.556572 1_555
O20 P0 1.556572 1_655
O21 P1 1.556572 1_655
O22 P0 1.556572 1_655
O23 P1 1.556572 1_655
F0 Li6 2.094797 1_454
F0 Li0 2.094797 1_555
F0 Li1 2.094797 1_544
F0 Li7 2.094797 1_445
F1 Li3 2.094797 1_555
F1 Li5 2.094797 1_555
F1 Li2 2.094797 1_555
F1 Li4 2.094797 1_555
