# generated using pymatgen
data_LiCrSiO4
_symmetry_space_group_name_H-M   'P 1'
_cell_length_a   4.77336800
_cell_length_b   5.77826400
_cell_length_c   10.19376700
_cell_angle_alpha   89.99998446
_cell_angle_beta   90.00112060
_cell_angle_gamma   89.99996817
_symmetry_Int_Tables_number   1
_chemical_formula_structural   LiCrSiO4
_chemical_formula_sum   'Li4 Cr4 Si4 O16'
_cell_volume   281.16224356
_cell_formula_units_Z   4
loop_
 _symmetry_equiv_pos_site_id
 _symmetry_equiv_pos_as_xyz
  1  'x, y, z'
loop_
 _atom_site_type_symbol
 _atom_site_label
 _atom_site_symmetry_multiplicity
 _atom_site_fract_x
 _atom_site_fract_y
 _atom_site_fract_z
 _atom_site_occupancy
  Li  Li0  1  0.00017700  0.25625800  0.50014400  1
  Li  Li1  1  0.49982100  0.25626000  0.00014400  1
  Li  Li2  1  0.50017700  0.75625800  0.99985400  1
  Li  Li3  1  0.99982000  0.75625600  0.49985500  1
  Cr  Cr0  1  0.49905000  0.00662000  0.73115300  1
  Cr  Cr1  1  0.99905100  0.50658300  0.76887500  1
  Cr  Cr2  1  0.00098300  0.00658900  0.23113400  1
  Cr  Cr3  1  0.50093600  0.50664200  0.26885400  1
  Si  Si0  1  0.05917400  0.50661200  0.09179500  1
  Si  Si1  1  0.44084500  0.50660500  0.59179200  1
  Si  Si2  1  0.55915700  0.00660300  0.40820500  1
  Si  Si3  1  0.94081800  0.00661200  0.90820700  1
  O  O0  1  0.18920900  0.50649100  0.94347200  1
  O  O1  1  0.31082600  0.50649200  0.44346400  1
  O  O2  1  0.68917700  0.00649300  0.55653200  1
  O  O3  1  0.81078400  0.00648500  0.05653000  1
  O  O4  1  0.22043800  0.00651100  0.39990400  1
  O  O5  1  0.27952900  0.00651000  0.89991100  1
  O  O6  1  0.72047100  0.50651100  0.10009100  1
  O  O7  1  0.77955900  0.50650900  0.60009200  1
  O  O8  1  0.22068500  0.28897100  0.17114000  1
  O  O9  1  0.22065300  0.72425100  0.17112800  1
  O  O10  1  0.27934600  0.72424700  0.67112600  1
  O  O11  1  0.27932600  0.28898300  0.67113600  1
  O  O12  1  0.72067800  0.78897900  0.32886100  1
  O  O13  1  0.72064600  0.22425100  0.32887300  1
  O  O14  1  0.77934500  0.22425500  0.82887000  1
  O  O15  1  0.77932000  0.78896500  0.82885700  1
loop_
_geom_bond_atom_site_label_1
_geom_bond_atom_site_label_2
_geom_bond_distance
_geom_bond_site_symmetry_2
Li0 O4 2.057214 1_555
Li0 O7 2.058653 1_455
Li0 O2 2.148739 1_455
Li0 O1 2.150202 1_555
Li0 O11 2.202136 1_555
Li0 O13 2.205139 1_455
Li1 O5 2.057246 1_554
Li1 O6 2.058707 1_555
Li1 O3 2.148634 1_555
Li1 O0 2.150030 1_554
Li1 O8 2.202165 1_555
Li1 O14 2.205183 1_554
Li2 O6 2.057258 1_556
Li2 O5 2.058685 1_565
Li2 O0 2.148610 1_555
Li2 O3 2.150010 1_566
Li2 O15 2.202191 1_555
Li2 O9 2.205184 1_556
Li3 O7 2.057199 1_555
Li3 O4 2.058685 1_665
Li3 O1 2.148762 1_655
Li3 O2 2.150185 1_565
Li3 O12 2.202131 1_555
Li3 O10 2.205125 1_655
Cr0 O2 1.998066 1_555
Cr0 O5 2.014307 1_555
Cr0 O11 2.033793 1_555
Cr0 O10 2.033822 1_545
Cr0 O15 2.088882 1_545
Cr0 O14 2.088953 1_555
Cr1 O0 1.997883 1_655
Cr1 O7 2.014418 1_555
Cr1 O14 2.033533 1_555
Cr1 O15 2.033804 1_555
Cr1 O11 2.088901 1_655
Cr1 O10 2.089234 1_655
Cr2 O3 1.998036 1_455
Cr2 O4 2.014212 1_555
Cr2 O9 2.033523 1_545
Cr2 O8 2.033770 1_555
Cr2 O12 2.088970 1_445
Cr2 O13 2.089307 1_455
Cr3 O1 1.997929 1_555
Cr3 O6 2.014385 1_555
Cr3 O12 2.033688 1_555
Cr3 O13 2.033895 1_555
Cr3 O9 2.088869 1_555
Cr3 O8 2.088929 1_555
O0 Si0 1.634431 1_556
O1 Si1 1.634427 1_555
O2 Si2 1.634419 1_555
O3 Si3 1.634429 1_554
O4 Si2 1.619042 1_555
O5 Si3 1.619004 1_455
O6 Si0 1.618966 1_655
O7 Si1 1.619017 1_555
O8 Si0 1.682279 1_555
O9 Si0 1.682142 1_555
O10 Si1 1.682218 1_555
O11 Si1 1.682225 1_555
O12 Si2 1.682237 1_565
O13 Si2 1.682213 1_555
O14 Si3 1.682165 1_555
O15 Si3 1.682302 1_565
