# generated using pymatgen
data_Li4V3Ni3(TeO8)2
_symmetry_space_group_name_H-M   'P 1'
_cell_length_a   5.95699027
_cell_length_b   5.95699027
_cell_length_c   10.28488582
_cell_angle_alpha   89.58431904
_cell_angle_beta   89.58431904
_cell_angle_gamma   58.28552290
_symmetry_Int_Tables_number   1
_chemical_formula_structural   Li4V3Ni3(TeO8)2
_chemical_formula_sum   'Li4 V3 Ni3 Te2 O16'
_cell_volume   310.45855578
_cell_formula_units_Z   1
loop_
 _symmetry_equiv_pos_site_id
 _symmetry_equiv_pos_as_xyz
  1  'x, y, z'
loop_
 _atom_site_type_symbol
 _atom_site_label
 _atom_site_symmetry_multiplicity
 _atom_site_fract_x
 _atom_site_fract_y
 _atom_site_fract_z
 _atom_site_occupancy
  Li  Li0  1  0.65861300  0.65861300  0.90203200  1
  Li  Li1  1  0.00510500  0.00510500  0.98663200  1
  Li  Li2  1  0.00141200  0.00141200  0.49388500  1
  Li  Li3  1  0.33495800  0.33495800  0.40612800  1
  V  V0  1  0.35739900  0.83805800  0.22093400  1
  V  V1  1  0.83805800  0.35739900  0.22093400  1
  V  V2  1  0.18311700  0.18311700  0.73400800  1
  Ni  Ni0  1  0.83031000  0.83031000  0.20682100  1
  Ni  Ni1  1  0.16914000  0.65609300  0.71656100  1
  Ni  Ni2  1  0.65609300  0.16914000  0.71656100  1
  Te  Te0  1  0.66769500  0.66769500  0.51593300  1
  Te  Te1  1  0.35116700  0.35116700  0.99716600  1
  O  O0  1  0.32971500  0.83659000  0.60331000  1
  O  O1  1  0.51147700  0.51147700  0.32298400  1
  O  O2  1  0.65670700  0.65670700  0.10158700  1
  O  O3  1  0.00200700  0.00200700  0.30417500  1
  O  O4  1  0.01343200  0.01343200  0.79958100  1
  O  O5  1  0.83659000  0.32971500  0.60331000  1
  O  O6  1  0.48491800  0.98454700  0.31713500  1
  O  O7  1  0.98454700  0.48491800  0.31713500  1
  O  O8  1  0.14704700  0.14704700  0.11079500  1
  O  O9  1  0.83833300  0.83833300  0.59885300  1
  O  O10  1  0.01609700  0.47213800  0.83102500  1
  O  O11  1  0.47213800  0.01609700  0.83102500  1
  O  O12  1  0.31343700  0.31343700  0.60784200  1
  O  O13  1  0.17416300  0.68354700  0.09568000  1
  O  O14  1  0.48040900  0.48040900  0.84999700  1
  O  O15  1  0.68354700  0.17416300  0.09568000  1
loop_
_geom_bond_atom_site_label_1
_geom_bond_atom_site_label_2
_geom_bond_distance
_geom_bond_site_symmetry_2
Li0 O14 1.934300 1_555
Li0 O11 1.950463 1_565
Li0 O10 1.950463 1_655
Li0 O2 2.052331 1_556
Li1 O4 1.925029 1_555
Li1 O8 1.960522 1_556
Li1 O15 1.974416 1_456
Li1 O13 1.974416 1_546
Li2 O3 1.951104 1_555
Li2 O9 2.003685 1_445
Li2 O0 2.013061 1_545
Li2 O5 2.013061 1_455
Li3 O6 2.012048 1_545
Li3 O7 2.012048 1_455
Li3 O1 2.019665 1_555
Li3 O12 2.084807 1_555
Ni0 O3 2.055324 1_665
Ni0 O6 2.087688 1_555
Ni0 O7 2.087688 1_555
Ni0 O15 2.089103 1_565
Ni0 O13 2.089103 1_655
Ni0 O2 2.113586 1_555
Ni1 O4 2.014852 1_565
Ni1 O9 2.072143 1_455
Ni1 O12 2.080893 1_555
Ni1 O14 2.095873 1_555
Ni1 O10 2.105694 1_555
Ni1 O0 2.115363 1_555
Ni2 O4 2.014852 1_655
Ni2 O9 2.072143 1_545
Ni2 O12 2.080893 1_555
Ni2 O14 2.095873 1_555
Ni2 O11 2.105694 1_555
Ni2 O5 2.115363 1_555
O0 Te0 1.931466 1_555
O0 V2 2.226799 1_565
O1 V1 1.958516 1_555
O1 V0 1.958516 1_555
O1 Te0 2.575683 1_555
O2 V1 1.953233 1_555
O2 V0 1.953233 1_555
O3 V0 1.995181 1_545
O3 V1 1.995181 1_455
O4 V2 1.884876 1_555
O5 Te0 1.931466 1_555
O5 V2 2.226799 1_655
O6 V0 1.742939 1_555
O6 Te0 2.596954 1_555
O7 V1 1.742939 1_555
O7 Te0 2.596954 1_555
O8 V1 1.951079 1_455
O8 V0 1.951079 1_545
O8 Te1 2.415786 1_554
O9 Te0 1.976182 1_555
O10 V2 1.777442 1_555
O10 Te1 2.437725 1_555
O11 V2 1.777442 1_555
O11 Te1 2.437725 1_555
O12 V2 1.869090 1_555
O13 Te1 1.969097 1_554
O13 V0 2.189071 1_555
O14 Te1 2.016402 1_555
O15 Te1 1.969097 1_554
O15 V1 2.189071 1_555
