# generated using pymatgen
data_La2S3
_symmetry_space_group_name_H-M   'P 1'
_cell_length_a   4.15834987
_cell_length_b   7.62781072
_cell_length_c   15.89540251
_cell_angle_alpha   90.00000000
_cell_angle_beta   90.00000000
_cell_angle_gamma   90.00000000
_symmetry_Int_Tables_number   1
_chemical_formula_structural   La2S3
_chemical_formula_sum   'La8 S12'
_cell_volume   504.18795261
_cell_formula_units_Z   4
loop_
 _symmetry_equiv_pos_site_id
 _symmetry_equiv_pos_as_xyz
  1  'x, y, z'
loop_
 _atom_site_type_symbol
 _atom_site_label
 _atom_site_symmetry_multiplicity
 _atom_site_fract_x
 _atom_site_fract_y
 _atom_site_fract_z
 _atom_site_occupancy
  La  La0  1  0.25000000  0.64618366  0.29524982  1
  La  La1  1  0.75000000  0.35381634  0.70475018  1
  La  La2  1  0.25000000  0.14618366  0.20475018  1
  La  La3  1  0.75000000  0.85381634  0.79524982  1
  La  La4  1  0.25000000  0.26424085  0.95584867  1
  La  La5  1  0.75000000  0.73575915  0.04415133  1
  La  La6  1  0.25000000  0.76424085  0.54415133  1
  La  La7  1  0.75000000  0.23575915  0.45584867  1
  S  S0  1  0.25000000  0.87121673  0.93299293  1
  S  S1  1  0.75000000  0.12878327  0.06700707  1
  S  S2  1  0.25000000  0.37121673  0.56700707  1
  S  S3  1  0.75000000  0.62878327  0.43299293  1
  S  S4  1  0.25000000  0.64568453  0.71956614  1
  S  S5  1  0.75000000  0.35431547  0.28043386  1
  S  S6  1  0.25000000  0.14568453  0.78043386  1
  S  S7  1  0.75000000  0.85431547  0.21956614  1
  S  S8  1  0.75000000  0.98824524  0.60949917  1
  S  S9  1  0.25000000  0.01175476  0.39050083  1
  S  S10  1  0.75000000  0.48824524  0.89050083  1
  S  S11  1  0.25000000  0.51175476  0.10949917  1
loop_
_geom_bond_atom_site_label_1
_geom_bond_atom_site_label_2
_geom_bond_distance
_geom_bond_site_symmetry_2
La0 S7 2.879353 1_555
La0 S7 2.879353 1_455
La0 S3 3.022320 1_555
La0 S3 3.022320 1_455
La0 S5 3.055309 1_455
La0 S5 3.055309 1_555
La0 S11 3.125568 1_555
La0 S9 3.173032 1_565
La1 S6 2.879353 1_555
La1 S6 2.879353 1_655
La1 S2 3.022320 1_655
La1 S2 3.022320 1_555
La1 S4 3.055309 1_655
La1 S4 3.055309 1_555
La1 S10 3.125568 1_555
La1 S8 3.173032 1_545
La2 S5 2.879353 1_455
La2 S5 2.879353 1_555
La2 S1 3.022320 1_455
La2 S1 3.022320 1_555
La2 S7 3.055309 1_445
La2 S7 3.055309 1_545
La2 S9 3.125568 1_555
La2 S11 3.173032 1_555
La3 S4 2.879353 1_655
La3 S4 2.879353 1_555
La3 S0 3.022320 1_655
La3 S0 3.022320 1_555
La3 S6 3.055309 1_565
La3 S6 3.055309 1_665
La3 S8 3.125568 1_555
La3 S10 3.173032 1_555
La4 S10 2.884694 1_455
La4 S10 2.884694 1_555
La4 S1 2.917623 1_556
La4 S1 2.917623 1_456
La4 S6 2.931273 1_555
La4 S0 3.019847 1_545
La4 S11 3.086991 1_556
La5 S11 2.884694 1_555
La5 S11 2.884694 1_655
La5 S0 2.917623 1_654
La5 S0 2.917623 1_554
La5 S7 2.931273 1_555
La5 S1 3.019847 1_565
La5 S10 3.086991 1_554
La6 S8 2.884694 1_555
La6 S8 2.884694 1_455
La6 S3 2.917623 1_455
La6 S3 2.917623 1_555
La6 S4 2.931273 1_555
La6 S2 3.019847 1_555
La6 S9 3.086991 1_565
La7 S9 2.884694 1_555
La7 S9 2.884694 1_655
La7 S2 2.917623 1_555
La7 S2 2.917623 1_655
La7 S5 2.931273 1_555
La7 S3 3.019847 1_555
La7 S8 3.086991 1_545
