# generated using pymatgen
data_BaNb3NO7
_symmetry_space_group_name_H-M   'P 1'
_cell_length_a   10.61181427
_cell_length_b   10.61181427
_cell_length_c   9.01095750
_cell_angle_alpha   89.81687185
_cell_angle_beta   89.81687185
_cell_angle_gamma   21.11693477
_symmetry_Int_Tables_number   1
_chemical_formula_structural   BaNb3NO7
_chemical_formula_sum   'Ba2 Nb6 N2 O14'
_cell_volume   365.57719112
_cell_formula_units_Z   2
loop_
 _symmetry_equiv_pos_site_id
 _symmetry_equiv_pos_as_xyz
  1  'x, y, z'
loop_
 _atom_site_type_symbol
 _atom_site_label
 _atom_site_symmetry_multiplicity
 _atom_site_fract_x
 _atom_site_fract_y
 _atom_site_fract_z
 _atom_site_occupancy
  Ba  Ba0  1  0.98793671  0.98793671  0.75500837  1
  Ba  Ba1  1  0.02275003  0.02275003  0.24287558  1
  Nb  Nb0  1  0.63880877  0.63880877  0.95194461  1
  Nb  Nb1  1  0.24308195  0.24308195  0.75025099  1
  Nb  Nb2  1  0.63541763  0.63541763  0.55696310  1
  Nb  Nb3  1  0.37328799  0.37328799  0.43827094  1
  Nb  Nb4  1  0.76318442  0.76318442  0.25456126  1
  Nb  Nb5  1  0.36861846  0.36861846  0.07014667  1
  N  N0  1  0.29802703  0.29802703  0.25804224  1
  N  N1  1  0.69869276  0.69869276  0.10929821  1
  O  O0  1  0.43360666  0.43360666  0.93060238  1
  O  O1  1  0.15389372  0.15389372  0.89774481  1
  O  O2  1  0.29572094  0.29572094  0.91170305  1
  O  O3  1  0.71529698  0.71529698  0.75405691  1
  O  O4  1  0.58236384  0.58236384  0.73502624  1
  O  O5  1  0.30364025  0.30364025  0.60118961  1
  O  O6  1  0.15759939  0.15759939  0.59159919  1
  O  O7  1  0.44329205  0.44329205  0.56396030  1
  O  O8  1  0.57386509  0.57386509  0.41428899  1
  O  O9  1  0.85999879  0.85999879  0.41973046  1
  O  O10  1  0.71458882  0.71458882  0.42989863  1
  O  O11  1  0.42878685  0.42878685  0.24678520  1
  O  O12  1  0.85037376  0.85037376  0.08814237  1
  O  O13  1  0.56201409  0.56201409  0.05321490  1
loop_
_geom_bond_atom_site_label_1
_geom_bond_atom_site_label_2
_geom_bond_distance
_geom_bond_site_symmetry_2
Ba0 O0 2.749170 1_565
Ba0 O0 2.749170 1_655
Ba0 O7 2.760941 1_655
Ba0 O7 2.760941 1_565
Ba0 O4 2.773569 1_565
Ba0 O4 2.773569 1_655
Ba1 O8 2.704614 1_455
Ba1 O8 2.704614 1_545
Ba1 O13 2.713640 1_455
Ba1 O13 2.713640 1_545
Ba1 O11 2.761397 1_545
Ba1 O11 2.761397 1_455
Nb0 O13 1.841326 1_556
Nb0 O1 2.029200 1_655
Nb0 O1 2.029200 1_565
Nb0 O4 2.285286 1_555
Nb0 O3 2.389132 1_555
Nb1 O2 1.825691 1_555
Nb1 O5 1.841075 1_555
Nb1 O3 2.029330 1_455
Nb1 O3 2.029330 1_545
Nb1 O1 2.283216 1_555
Nb1 O6 2.289396 1_555
Nb2 O8 1.820131 1_555
Nb2 O4 1.946336 1_555
Nb2 O10 2.006806 1_555
Nb2 O6 2.023265 1_565
Nb2 O6 2.023265 1_655
Nb2 O3 2.439483 1_555
Nb3 O7 1.851163 1_555
Nb3 O9 1.971334 1_545
Nb3 O9 1.971334 1_455
Nb3 O5 2.062269 1_555
Nb3 O11 2.074871 1_555
Nb4 O10 1.874531 1_555
Nb4 O12 2.353789 1_555
Nb4 O9 2.512952 1_555
Nb5 O0 1.846236 1_554
Nb5 O12 1.987929 1_545
Nb5 O12 1.987929 1_455
Nb5 O11 2.030369 1_555
Nb5 O2 2.089457 1_554
N0 Nb4 2.076217 1_545
N0 Nb4 2.076217 1_455
N0 Nb5 2.240467 1_555
N0 Nb3 2.262698 1_555
N1 Nb4 1.880264 1_555
N1 Nb0 1.892900 1_554
