# generated using pymatgen
data_Li11Y14Ti14(S2O5)7
_symmetry_space_group_name_H-M   'P 1'
_cell_length_a   8.90934500
_cell_length_b   11.31889789
_cell_length_c   12.56242914
_cell_angle_alpha   83.65250196
_cell_angle_beta   82.02587505
_cell_angle_gamma   76.35202735
_symmetry_Int_Tables_number   1
_chemical_formula_structural   Li11Y14Ti14(S2O5)7
_chemical_formula_sum   'Li11 Y14 Ti14 S14 O35'
_cell_volume   1215.17774376
_cell_formula_units_Z   1
loop_
 _symmetry_equiv_pos_site_id
 _symmetry_equiv_pos_as_xyz
  1  'x, y, z'
loop_
 _atom_site_type_symbol
 _atom_site_label
 _atom_site_symmetry_multiplicity
 _atom_site_fract_x
 _atom_site_fract_y
 _atom_site_fract_z
 _atom_site_occupancy
  Li  Li0  1  0.64911900  0.00001300  0.29016500  1
  Li  Li1  1  0.22375000  0.00006900  0.92945200  1
  Li  Li2  1  0.63554800  0.99997600  0.79019800  1
  Li  Li3  1  0.50000000  0.00000000  0.50000000  1
  Li  Li4  1  0.36445200  0.00002400  0.20980200  1
  Li  Li5  1  0.35088100  0.99998700  0.70983500  1
  Li  Li6  1  0.20886400  0.00001700  0.42953000  1
  Li  Li7  1  0.06896800  0.99996300  0.15020000  1
  Li  Li8  1  0.77625000  0.99993100  0.07054800  1
  Li  Li9  1  0.93103200  0.00003700  0.84980000  1
  Li  Li10  1  0.79113600  0.99998300  0.57047000  1
  Y  Y0  1  0.66534900  0.67366200  0.16537300  1
  Y  Y1  1  0.62406600  0.32618800  0.40498300  1
  Y  Y2  1  0.47854800  0.32643700  0.11891900  1
  Y  Y3  1  0.37593400  0.67381200  0.59501700  1
  Y  Y4  1  0.52145200  0.67356300  0.88108100  1
  Y  Y5  1  0.09283600  0.67460100  0.02327700  1
  Y  Y6  1  0.23442600  0.67395900  0.30942800  1
  Y  Y7  1  0.04805500  0.32613100  0.26271900  1
  Y  Y8  1  0.33465100  0.32633800  0.83462700  1
  Y  Y9  1  0.18924400  0.32682600  0.54834200  1
  Y  Y10  1  0.90716400  0.32539900  0.97672300  1
  Y  Y11  1  0.95194500  0.67386900  0.73728100  1
  Y  Y12  1  0.81075600  0.67317400  0.45165800  1
  Y  Y13  1  0.76557400  0.32604100  0.69057200  1
  Ti  Ti0  1  0.62385900  0.81761400  0.65561600  1
  Ti  Ti1  1  0.48047100  0.81759900  0.37043500  1
  Ti  Ti2  1  0.33927500  0.82099900  0.08327500  1
  Ti  Ti3  1  0.66072500  0.17900100  0.91672500  1
  Ti  Ti4  1  0.51952900  0.18240100  0.62956500  1
  Ti  Ti5  1  0.23690400  0.17911600  0.05774000  1
  Ti  Ti6  1  0.37614100  0.18238600  0.34438400  1
  Ti  Ti7  1  0.19291900  0.82118500  0.79667000  1
  Ti  Ti8  1  0.04995200  0.82532200  0.51244900  1
  Ti  Ti9  1  0.90928700  0.82108500  0.22892200  1
  Ti  Ti10  1  0.76309600  0.82088400  0.94226000  1
  Ti  Ti11  1  0.80708100  0.17881500  0.20333000  1
  Ti  Ti12  1  0.09071300  0.17891500  0.77107800  1
  Ti  Ti13  1  0.95004800  0.17467800  0.48755100  1
  S  S0  1  0.68807500  0.59005100  0.67236100  1
  S  S1  1  0.54539300  0.58991200  0.38612400  1
  S  S2  1  0.40009600  0.58929400  0.10148200  1
  S  S3  1  0.59990400  0.41070600  0.89851800  1
  S  S4  1  0.31192500  0.40994900  0.32763900  1
  S  S5  1  0.45460700  0.41008800  0.61387600  1
  S  S6  1  0.16582500  0.41050000  0.04292000  1
  S  S7  1  0.97376600  0.58934500  0.24181300  1
  S  S8  1  0.26139900  0.58921400  0.81684000  1
  S  S9  1  0.11821800  0.58800300  0.52935400  1
  S  S10  1  0.83417500  0.58950000  0.95708000  1
  S  S11  1  0.73860100  0.41078600  0.18316000  1
  S  S12  1  0.02623400  0.41065500  0.75818700  1
  S  S13  1  0.88178200  0.41199700  0.47064600  1
  O  O0  1  0.69765800  0.81118900  0.30028100  1
  O  O1  1  0.55732600  0.79926400  0.01438300  1
  O  O2  1  0.26884800  0.81059400  0.94100300  1
  O  O3  1  0.69534600  0.81132200  0.79950500  1
  O  O4  1  0.55377900  0.81159200  0.51349300  1
  O  O5  1  0.58974700  0.18868000  0.27334700  1
  O  O6  1  0.41253500  0.81120100  0.22743000  1
  O  O7  1  0.44267400  0.20073600  0.98561700  1
  O  O8  1  0.58746500  0.18879900  0.77257000  1
  O  O9  1  0.57077400  0.99997400  0.64312500  1
  O  O10  1  0.42922600  0.00002600  0.35687500  1
  O  O11  1  0.41025300  0.81132000  0.72665300  1
  O  O12  1  0.26798600  0.81259400  0.44198800  1
  O  O13  1  0.44622100  0.18840800  0.48650700  1
  O  O14  1  0.30465400  0.18867800  0.20049500  1
  O  O15  1  0.12660400  0.80991700  0.15695900  1
  O  O16  1  0.27735700  0.00001400  0.07460600  1
  O  O17  1  0.16075600  0.18752300  0.41516000  1
  O  O18  1  0.98735200  0.79745200  0.37274300  1
  O  O19  1  0.30234200  0.18881100  0.69971900  1
  O  O20  1  0.12846300  0.79745200  0.65624300  1
  O  O21  1  0.01790700  0.19005700  0.12979900  1
  O  O22  1  0.83936200  0.81067200  0.08602700  1
  O  O23  1  0.72264300  0.99998600  0.92539400  1
  O  O24  1  0.87153700  0.20254800  0.34375700  1
  O  O25  1  0.85441700  0.99995600  0.20942700  1
  O  O26  1  0.16063800  0.18932800  0.91397300  1
  O  O27  1  0.00000000  0.00000000  0.50000000  1
  O  O28  1  0.98209300  0.80994300  0.87020100  1
  O  O29  1  0.14558300  0.00004400  0.79057300  1
  O  O30  1  0.01264800  0.20254800  0.62725700  1
  O  O31  1  0.83924400  0.81247700  0.58484000  1
  O  O32  1  0.73115200  0.18940600  0.05899700  1
  O  O33  1  0.73201400  0.18740600  0.55801200  1
  O  O34  1  0.87339600  0.19008300  0.84304100  1
loop_
_geom_bond_atom_site_label_1
_geom_bond_atom_site_label_2
_geom_bond_distance
_geom_bond_site_symmetry_2
Li0 O25 1.964460 1_545
Li0 O10 2.021080 1_555
Li0 O5 2.069537 1_555
Li0 O0 2.071267 1_545
Li1 O16 1.947935 1_556
Li1 O29 1.966249 1_555
Li1 O26 2.076730 1_555
Li1 O2 2.079116 1_545
Li2 O23 1.962747 1_555
Li2 O9 2.010593 1_555
Li2 O3 2.069411 1_555
Li2 O8 2.071247 1_565
Li3 O9 1.986137 1_545
Li3 O10 1.986137 1_555
Li3 O13 2.065568 1_555
Li3 O4 2.065568 1_545
Li4 O16 1.962747 1_555
Li4 O10 2.010593 1_555
Li4 O14 2.069411 1_555
Li4 O6 2.071247 1_545
Li5 O29 1.964460 1_565
Li5 O9 2.021080 1_555
Li5 O11 2.069537 1_555
Li5 O19 2.071267 1_565
Li6 O27 1.946667 1_555
Li6 O10 2.047055 1_555
Li6 O12 2.055360 1_545
Li6 O17 2.056254 1_555
Li7 O25 1.952668 1_455
Li7 O16 1.964695 1_565
Li7 O15 2.085332 1_555
Li7 O21 2.085844 1_565
Li8 O23 1.947935 1_554
Li8 O25 1.966249 1_555
Li8 O22 2.076730 1_555
Li8 O32 2.079116 1_565
Li9 O29 1.952668 1_655
Li9 O23 1.964695 1_545
Li9 O34 2.085332 1_555
Li9 O28 2.085844 1_545
Li10 O27 1.946667 1_665
Li10 O9 2.047055 1_555
Li10 O33 2.055360 1_565
Li10 O31 2.056254 1_555
S0 Ti0 2.494850 1_555
S0 Y13 2.894475 1_555
S0 Y4 2.962801 1_555
S0 Y12 2.972322 1_555
S0 Y11 2.974485 1_555
S0 Y3 2.979680 1_555
S1 Ti1 2.496206 1_555
S1 Y1 2.891427 1_555
S1 Y6 2.967021 1_555
S1 Y0 2.967455 1_555
S1 Y3 2.973698 1_555
S1 Y12 2.986385 1_555
S2 Ti2 2.540729 1_555
S2 Y2 2.881951 1_555
S2 Y5 2.946254 1_555
S2 Y6 2.955903 1_555
S2 Y4 2.969349 1_554
S2 Y0 2.983580 1_555
S3 Ti3 2.540729 1_555
S3 Y4 2.881951 1_555
S3 Y10 2.946254 1_555
S3 Y13 2.955903 1_555
S3 Y2 2.969349 1_556
S3 Y8 2.983580 1_555
S4 Ti6 2.494850 1_555
S4 Y6 2.894475 1_555
S4 Y2 2.962801 1_555
S4 Y9 2.972322 1_555
S4 Y7 2.974485 1_555
S4 Y1 2.979680 1_555
S5 Ti4 2.496206 1_555
S5 Y3 2.891427 1_555
S5 Y13 2.967021 1_555
S5 Y8 2.967455 1_555
S5 Y1 2.973698 1_555
S5 Y9 2.986385 1_555
S6 Ti5 2.537149 1_555
S6 Y5 2.895501 1_555
S6 Y10 2.947288 1_454
S6 Y7 2.953495 1_555
S6 Y8 2.966450 1_554
S6 Y2 2.977524 1_555
S7 Ti9 2.541135 1_555
S7 Y7 2.885807 1_655
S7 Y0 2.945372 1_555
S7 Y5 2.946656 1_655
S7 Y12 2.966383 1_555
S7 Y6 2.967940 1_655
S8 Ti7 2.543682 1_555
S8 Y8 2.882067 1_555
S8 Y4 2.943446 1_555
S8 Y5 2.950186 1_556
S8 Y3 2.967436 1_555
S8 Y11 2.970583 1_455
S9 Ti8 2.601795 1_555
S9 Y9 2.863532 1_555
S9 Y3 2.941231 1_555
S9 Y12 2.945042 1_455
S9 Y6 2.956174 1_555
S9 Y11 2.961472 1_455
S10 Ti10 2.537149 1_555
S10 Y10 2.895501 1_555
S10 Y5 2.947288 1_656
S10 Y11 2.953495 1_555
S10 Y0 2.966450 1_556
S10 Y4 2.977524 1_555
S11 Ti11 2.543682 1_555
S11 Y0 2.882067 1_555
S11 Y2 2.943446 1_555
S11 Y10 2.950186 1_554
S11 Y1 2.967436 1_555
S11 Y7 2.970583 1_655
S12 Ti12 2.541135 1_555
S12 Y11 2.885807 1_455
S12 Y8 2.945372 1_555
S12 Y10 2.946656 1_455
S12 Y9 2.966383 1_555
S12 Y13 2.967940 1_455
S13 Ti13 2.601795 1_555
S13 Y12 2.863532 1_555
S13 Y1 2.941231 1_555
S13 Y9 2.945042 1_655
S13 Y13 2.956174 1_555
S13 Y7 2.961472 1_655
O0 Ti9 1.994914 1_555
O0 Ti1 2.000226 1_555
O0 Y12 2.490777 1_555
O0 Y0 2.511660 1_555
O1 Ti2 1.984600 1_555
O1 Ti10 1.985832 1_554
O1 Y0 2.410350 1_555
O1 Y4 2.412615 1_554
O2 Ti2 1.998628 1_556
O2 Ti7 2.003390 1_555
O2 Y4 2.485586 1_555
O2 Y5 2.496880 1_556
O3 Ti0 1.986874 1_555
O3 Ti10 1.991543 1_555
O3 Y4 2.495599 1_555
O3 Y11 2.520433 1_555
O4 Ti0 1.984553 1_555
O4 Ti1 1.984605 1_555
O4 Y3 2.520766 1_555
O4 Y12 2.526416 1_555
O5 Ti11 1.995633 1_555
O5 Ti6 2.000480 1_555
O5 Y1 2.486884 1_555
O5 Y2 2.512319 1_555
O6 Ti1 1.987488 1_555
O6 Ti2 1.991780 1_555
O6 Y0 2.496214 1_555
O6 Y6 2.519565 1_555
O7 Ti3 1.984600 1_555
O7 Ti5 1.985832 1_556
O7 Y8 2.410350 1_555
O7 Y2 2.412615 1_556
O8 Ti4 1.987488 1_555
O8 Ti3 1.991780 1_555
O8 Y8 2.496214 1_555
O8 Y13 2.519565 1_555
O9 Ti0 1.999288 1_555
O9 Ti4 2.000019 1_565
O10 Ti6 1.999288 1_555
O10 Ti1 2.000019 1_545
O11 Ti7 1.995633 1_555
O11 Ti0 2.000480 1_555
O11 Y3 2.486884 1_555
O11 Y4 2.512319 1_555
O12 Ti1 1.990540 1_555
O12 Ti8 1.999197 1_555
O12 Y3 2.494098 1_555
O12 Y6 2.502456 1_555
O13 Ti6 1.984553 1_555
O13 Ti4 1.984605 1_555
O13 Y1 2.520766 1_555
O13 Y9 2.526416 1_555
O14 Ti6 1.986874 1_555
O14 Ti5 1.991543 1_555
O14 Y2 2.495599 1_555
O14 Y7 2.520433 1_555
O15 Ti9 2.001517 1_455
O15 Ti2 2.015575 1_555
O15 Y6 2.474024 1_555
O15 Y5 2.486577 1_555
O16 Ti2 1.965263 1_545
O16 Ti5 1.966188 1_555
O17 Ti6 1.990387 1_555
O17 Ti13 1.999551 1_455
O17 Y9 2.497959 1_555
O17 Y7 2.502541 1_555
O18 Ti8 1.991930 1_655
O18 Ti9 1.993385 1_555
O18 Y6 2.395849 1_655
O18 Y12 2.395903 1_555
O19 Ti12 1.994914 1_555
O19 Ti4 2.000226 1_555
O19 Y9 2.490777 1_555
O19 Y8 2.511660 1_555
O20 Ti8 1.993067 1_555
O20 Ti7 1.993154 1_555
O20 Y3 2.392207 1_555
O20 Y11 2.396960 1_455
O21 Ti11 2.000741 1_455
O21 Ti5 2.015534 1_555
O21 Y7 2.474056 1_555
O21 Y10 2.485954 1_454
O22 Ti10 1.998544 1_554
O22 Ti9 2.004029 1_555
O22 Y0 2.483175 1_555
O22 Y5 2.495308 1_655
O23 Ti3 1.965263 1_565
O23 Ti10 1.966188 1_555
O24 Ti13 1.993067 1_555
O24 Ti11 1.993154 1_555
O24 Y1 2.392207 1_555
O24 Y7 2.396960 1_655
O25 Ti11 1.963169 1_565
O25 Ti9 1.963303 1_555
O26 Ti5 1.998544 1_556
O26 Ti12 2.004029 1_555
O26 Y8 2.483175 1_555
O26 Y10 2.495308 1_455
O27 Ti13 1.915042 1_455
O27 Ti8 1.915042 1_545
O28 Ti7 2.000741 1_655
O28 Ti10 2.015534 1_555
O28 Y11 2.474056 1_555
O28 Y5 2.485954 1_656
O29 Ti7 1.963169 1_545
O29 Ti12 1.963303 1_555
O30 Ti13 1.991930 1_455
O30 Ti12 1.993385 1_555
O30 Y13 2.395849 1_455
O30 Y9 2.395903 1_555
O31 Ti0 1.990387 1_555
O31 Ti8 1.999551 1_655
O31 Y12 2.497959 1_555
O31 Y11 2.502541 1_555
O32 Ti3 1.998628 1_554
O32 Ti11 2.003390 1_555
O32 Y2 2.485586 1_555
O32 Y10 2.496880 1_554
O33 Ti4 1.990540 1_555
O33 Ti13 1.999197 1_555
O33 Y1 2.494098 1_555
O33 Y13 2.502456 1_555
O34 Ti12 2.001517 1_655
O34 Ti3 2.015575 1_555
O34 Y13 2.474024 1_555
O34 Y10 2.486577 1_555
