# generated using pymatgen
data_Li4Ti2Mn4Cr3O18
_symmetry_space_group_name_H-M   'P 1'
_cell_length_a   2.92884800
_cell_length_b   9.02911700
_cell_length_c   25.23211300
_cell_angle_alpha   90.00000000
_cell_angle_beta   90.00000000
_cell_angle_gamma   90.00000000
_symmetry_Int_Tables_number   1
_chemical_formula_structural   Li4Ti2Mn4Cr3O18
_chemical_formula_sum   'Li8 Ti4 Mn8 Cr6 O36'
_cell_volume   667.26098937
_cell_formula_units_Z   2
loop_
 _symmetry_equiv_pos_site_id
 _symmetry_equiv_pos_as_xyz
  1  'x, y, z'
loop_
 _atom_site_type_symbol
 _atom_site_label
 _atom_site_symmetry_multiplicity
 _atom_site_fract_x
 _atom_site_fract_y
 _atom_site_fract_z
 _atom_site_occupancy
  Li  Li0  1  0.00000000  0.18026700  0.00064100  1
  Li  Li1  1  0.00000000  0.19765100  0.20298000  1
  Li  Li2  1  0.00000000  0.30234900  0.70298000  1
  Li  Li3  1  0.00000000  0.31973300  0.50064100  1
  Li  Li4  1  0.00000000  0.68026700  0.49935900  1
  Li  Li5  1  0.00000000  0.69765100  0.29702000  1
  Li  Li6  1  0.00000000  0.80234900  0.79702000  1
  Li  Li7  1  0.00000000  0.81973300  0.99935900  1
  Ti  Ti0  1  0.00000000  0.00040900  0.10676700  1
  Ti  Ti1  1  0.00000000  0.49959100  0.60676700  1
  Ti  Ti2  1  0.00000000  0.50040900  0.39323300  1
  Ti  Ti3  1  0.00000000  0.99959100  0.89323300  1
  Mn  Mn0  1  0.00000000  0.02178000  0.30995900  1
  Mn  Mn1  1  0.50000000  0.13797200  0.58756100  1
  Mn  Mn2  1  0.50000000  0.36202800  0.08756100  1
  Mn  Mn3  1  0.00000000  0.47822000  0.80995900  1
  Mn  Mn4  1  0.00000000  0.52178000  0.19004100  1
  Mn  Mn5  1  0.50000000  0.63797200  0.91243900  1
  Mn  Mn6  1  0.50000000  0.86202800  0.41243900  1
  Mn  Mn7  1  0.00000000  0.97822000  0.69004100  1
  Cr  Cr0  1  0.00000000  0.00000000  0.50000000  1
  Cr  Cr1  1  0.50000000  0.14361100  0.80434900  1
  Cr  Cr2  1  0.50000000  0.35638900  0.30434900  1
  Cr  Cr3  1  0.00000000  0.50000000  0.00000000  1
  Cr  Cr4  1  0.50000000  0.64361100  0.69565100  1
  Cr  Cr5  1  0.50000000  0.85638900  0.19565100  1
  O  O0  1  0.00000000  0.00099700  0.42091000  1
  O  O1  1  0.00000000  0.99900300  0.57909000  1
  O  O2  1  0.50000000  0.03440500  0.94092500  1
  O  O3  1  0.50000000  0.05642700  0.16166700  1
  O  O4  1  0.50000000  0.10302400  0.66230600  1
  O  O5  1  0.00000000  0.11591200  0.75523800  1
  O  O6  1  0.50000000  0.15188300  0.50970800  1
  O  O7  1  0.50000000  0.14171900  0.28311900  1
  O  O8  1  0.00000000  0.18170700  0.85683600  1
  O  O9  1  0.00000000  0.22206700  0.08889100  1
  O  O10  1  0.00000000  0.27793300  0.58889100  1
  O  O11  1  0.00000000  0.31829300  0.35683600  1
  O  O12  1  0.50000000  0.35828100  0.78311900  1
  O  O13  1  0.50000000  0.34811700  0.00970800  1
  O  O14  1  0.00000000  0.38408800  0.25523800  1
  O  O15  1  0.50000000  0.39697600  0.16230600  1
  O  O16  1  0.50000000  0.44357300  0.66166700  1
  O  O17  1  0.50000000  0.46559500  0.44092500  1
  O  O18  1  0.00000000  0.50099700  0.07909000  1
  O  O19  1  0.00000000  0.49900300  0.92091000  1
  O  O20  1  0.50000000  0.53440500  0.55907500  1
  O  O21  1  0.50000000  0.55642700  0.33833300  1
  O  O22  1  0.50000000  0.60302400  0.83769400  1
  O  O23  1  0.00000000  0.61591200  0.74476200  1
  O  O24  1  0.50000000  0.65188300  0.99029200  1
  O  O25  1  0.50000000  0.64171900  0.21688100  1
  O  O26  1  0.00000000  0.68170700  0.64316400  1
  O  O27  1  0.00000000  0.72206700  0.41110900  1
  O  O28  1  0.00000000  0.77793300  0.91110900  1
  O  O29  1  0.00000000  0.81829300  0.14316400  1
  O  O30  1  0.50000000  0.85828100  0.71688100  1
  O  O31  1  0.50000000  0.84811700  0.49029200  1
  O  O32  1  0.00000000  0.88408800  0.24476200  1
  O  O33  1  0.50000000  0.89697600  0.33769400  1
  O  O34  1  0.50000000  0.94357300  0.83833300  1
  O  O35  1  0.50000000  0.96559500  0.05907500  1
loop_
_geom_bond_atom_site_label_1
_geom_bond_atom_site_label_2
_geom_bond_distance
_geom_bond_site_symmetry_2
Li0 O13 2.119842 1_555
Li0 O13 2.119842 1_455
Li0 O9 2.258492 1_555
Li0 O2 2.479792 1_454
Li0 O2 2.479792 1_554
Li1 O14 2.138307 1_555
Li1 O3 2.203887 1_555
Li1 O3 2.203887 1_455
Li1 O15 2.537092 1_455
Li1 O15 2.537092 1_555
Li1 O7 2.547228 1_455
Li1 O7 2.547228 1_555
Li2 O5 2.138307 1_555
Li2 O16 2.203887 1_555
Li2 O16 2.203887 1_455
Li2 O4 2.537092 1_555
Li2 O4 2.537092 1_455
Li2 O12 2.547228 1_455
Li2 O12 2.547228 1_555
Li3 O6 2.119842 1_455
Li3 O6 2.119842 1_555
Li3 O10 2.258492 1_555
Li3 O17 2.479792 1_455
Li3 O17 2.479792 1_555
Li4 O31 2.119842 1_555
Li4 O31 2.119842 1_455
Li4 O27 2.258492 1_555
Li4 O20 2.479792 1_555
Li4 O20 2.479792 1_455
Li5 O32 2.138307 1_555
Li5 O21 2.203887 1_455
Li5 O21 2.203887 1_555
Li5 O33 2.537092 1_555
Li5 O33 2.537092 1_455
Li5 O25 2.547228 1_555
Li5 O25 2.547228 1_455
Li6 O23 2.138307 1_555
Li6 O34 2.203887 1_455
Li6 O34 2.203887 1_555
Li6 O22 2.537092 1_455
Li6 O22 2.537092 1_555
Li6 O30 2.547228 1_555
Li6 O30 2.547228 1_455
Li7 O24 2.119842 1_555
Li7 O24 2.119842 1_455
Li7 O28 2.258492 1_555
Li7 O35 2.479792 1_456
Li7 O35 2.479792 1_556
Mn0 O7 1.943179 1_555
Mn0 O7 1.943179 1_455
Mn0 O33 1.975882 1_545
Mn0 O33 1.975882 1_445
Mn0 O32 2.062003 1_545
Mn1 O4 1.912190 1_555
Mn1 O10 1.934596 1_655
Mn1 O10 1.934596 1_555
Mn1 O1 1.940274 1_545
Mn1 O1 1.940274 1_645
Mn1 O6 1.968407 1_555
Mn2 O15 1.912190 1_555
Mn2 O9 1.934596 1_555
Mn2 O9 1.934596 1_655
Mn2 O18 1.940274 1_655
Mn2 O18 1.940274 1_555
Mn2 O13 1.968407 1_555
Mn3 O12 1.943179 1_555
Mn3 O12 1.943179 1_455
Mn3 O22 1.975882 1_555
Mn3 O22 1.975882 1_455
Mn3 O23 2.062003 1_555
Mn4 O25 1.943179 1_455
Mn4 O25 1.943179 1_555
Mn4 O15 1.975882 1_555
Mn4 O15 1.975882 1_455
Mn4 O14 2.062003 1_555
Mn5 O22 1.912190 1_555
Mn5 O28 1.934596 1_655
Mn5 O28 1.934596 1_555
Mn5 O19 1.940274 1_555
Mn5 O19 1.940274 1_655
Mn5 O24 1.968407 1_555
Mn6 O33 1.912190 1_555
Mn6 O27 1.934596 1_655
Mn6 O27 1.934596 1_555
Mn6 O0 1.940274 1_565
Mn6 O0 1.940274 1_665
Mn6 O31 1.968407 1_555
Mn7 O30 1.943179 1_455
Mn7 O30 1.943179 1_555
Mn7 O4 1.975882 1_565
Mn7 O4 1.975882 1_465
Mn7 O5 2.062003 1_565
Cr0 O0 1.995628 1_555
Cr0 O1 1.995628 1_545
Cr0 O31 2.021186 1_545
Cr0 O6 2.021186 1_455
Cr0 O6 2.021186 1_555
Cr0 O31 2.021186 1_445
Cr1 O5 1.934590 1_555
Cr1 O5 1.934590 1_655
Cr1 O34 1.999381 1_545
Cr1 O8 2.004190 1_655
Cr1 O8 2.004190 1_555
Cr1 O12 2.010941 1_555
Cr2 O14 1.934590 1_655
Cr2 O14 1.934590 1_555
Cr2 O21 1.999381 1_555
Cr2 O11 2.004190 1_555
Cr2 O11 2.004190 1_655
Cr2 O7 2.010941 1_555
Cr3 O19 1.995628 1_554
Cr3 O18 1.995628 1_555
Cr3 O24 2.021186 1_554
Cr3 O13 2.021186 1_455
Cr3 O13 2.021186 1_555
Cr3 O24 2.021186 1_454
Cr4 O23 1.934590 1_655
Cr4 O23 1.934590 1_555
Cr4 O16 1.999381 1_555
Cr4 O26 2.004190 1_655
Cr4 O26 2.004190 1_555
Cr4 O30 2.010941 1_555
Cr5 O32 1.934590 1_655
Cr5 O32 1.934590 1_555
Cr5 O3 1.999381 1_565
Cr5 O29 2.004190 1_655
Cr5 O29 2.004190 1_555
Cr5 O25 2.010941 1_555
O2 Ti3 1.921314 1_645
O2 Ti3 1.921314 1_545
O3 Ti0 2.078284 1_555
O3 Ti0 2.078284 1_655
O8 Ti3 1.883424 1_545
O9 Ti0 2.051573 1_555
O10 Ti1 2.051573 1_555
O11 Ti2 1.883424 1_555
O16 Ti1 2.078284 1_555
O16 Ti1 2.078284 1_655
O17 Ti2 1.921314 1_655
O17 Ti2 1.921314 1_555
O20 Ti1 1.921314 1_555
O20 Ti1 1.921314 1_655
O21 Ti2 2.078284 1_555
O21 Ti2 2.078284 1_655
O26 Ti1 1.883424 1_555
O27 Ti2 2.051573 1_555
O28 Ti3 2.051573 1_555
O29 Ti0 1.883424 1_565
O34 Ti3 2.078284 1_655
O34 Ti3 2.078284 1_555
O35 Ti0 1.921314 1_665
O35 Ti0 1.921314 1_565
