# generated using pymatgen
data_Bi4O5F2
_symmetry_space_group_name_H-M   'P 1'
_cell_length_a   8.50262300
_cell_length_b   9.09274900
_cell_length_c   9.21765600
_cell_angle_alpha   90.00000000
_cell_angle_beta   90.00000000
_cell_angle_gamma   90.00000000
_symmetry_Int_Tables_number   1
_chemical_formula_structural   Bi4O5F2
_chemical_formula_sum   'Bi16 O20 F8'
_cell_volume   712.63741888
_cell_formula_units_Z   4
loop_
 _symmetry_equiv_pos_site_id
 _symmetry_equiv_pos_as_xyz
  1  'x, y, z'
loop_
 _atom_site_type_symbol
 _atom_site_label
 _atom_site_symmetry_multiplicity
 _atom_site_fract_x
 _atom_site_fract_y
 _atom_site_fract_z
 _atom_site_occupancy
  Bi  Bi0  1  0.75000000  0.43460700  0.01702500  1
  Bi  Bi1  1  0.25000000  0.99944400  0.04488900  1
  Bi  Bi2  1  0.96677700  0.79038600  0.23951200  1
  Bi  Bi3  1  0.53322300  0.79038600  0.23951200  1
  Bi  Bi4  1  0.03322300  0.29038600  0.26048800  1
  Bi  Bi5  1  0.46677700  0.29038600  0.26048800  1
  Bi  Bi6  1  0.75000000  0.49944400  0.45511100  1
  Bi  Bi7  1  0.25000000  0.93460700  0.48297500  1
  Bi  Bi8  1  0.75000000  0.06539300  0.51702500  1
  Bi  Bi9  1  0.25000000  0.50055600  0.54488900  1
  Bi  Bi10  1  0.53322300  0.70961400  0.73951200  1
  Bi  Bi11  1  0.96677700  0.70961400  0.73951200  1
  Bi  Bi12  1  0.03322300  0.20961400  0.76048800  1
  Bi  Bi13  1  0.46677700  0.20961400  0.76048800  1
  Bi  Bi14  1  0.75000000  0.00055600  0.95511100  1
  Bi  Bi15  1  0.25000000  0.56539300  0.98297500  1
  O  O0  1  0.06409200  0.83617700  0.02511200  1
  O  O1  1  0.43590800  0.83617700  0.02511200  1
  O  O2  1  0.56102700  0.49252100  0.16604800  1
  O  O3  1  0.93897300  0.49252100  0.16604800  1
  O  O4  1  0.75000000  0.92464100  0.17949900  1
  O  O5  1  0.25000000  0.42464100  0.32050100  1
  O  O6  1  0.06102700  0.99252100  0.33395200  1
  O  O7  1  0.43897300  0.99252100  0.33395200  1
  O  O8  1  0.56409200  0.33617700  0.47488800  1
  O  O9  1  0.93590800  0.33617700  0.47488800  1
  O  O10  1  0.06409200  0.66382300  0.52511200  1
  O  O11  1  0.43590800  0.66382300  0.52511200  1
  O  O12  1  0.56102700  0.00747900  0.66604800  1
  O  O13  1  0.93897300  0.00747900  0.66604800  1
  O  O14  1  0.75000000  0.57535900  0.67949900  1
  O  O15  1  0.25000000  0.07535900  0.82050100  1
  O  O16  1  0.06102700  0.50747900  0.83395200  1
  O  O17  1  0.43897300  0.50747900  0.83395200  1
  O  O18  1  0.56409200  0.16382300  0.97488800  1
  O  O19  1  0.93590800  0.16382300  0.97488800  1
  F  F0  1  0.25000000  0.32135900  0.02985100  1
  F  F1  1  0.75000000  0.25336700  0.21929300  1
  F  F2  1  0.25000000  0.75336700  0.28070700  1
  F  F3  1  0.75000000  0.82135900  0.47014900  1
  F  F4  1  0.25000000  0.17864100  0.52985100  1
  F  F5  1  0.75000000  0.24663300  0.71929300  1
  F  F6  1  0.25000000  0.74663300  0.78070700  1
  F  F7  1  0.75000000  0.67864100  0.97014900  1
loop_
_geom_bond_atom_site_label_1
_geom_bond_atom_site_label_2
_geom_bond_distance
_geom_bond_site_symmetry_2
Bi0 O3 2.178508 1_555
Bi0 O2 2.178508 1_555
Bi0 F7 2.260618 1_554
Bi0 F1 2.488359 1_555
Bi1 O1 2.176175 1_555
Bi1 O0 2.176175 1_555
Bi1 O15 2.180476 1_564
Bi2 O0 2.182574 1_655
Bi2 O6 2.185887 1_655
Bi2 O4 2.278929 1_555
Bi2 F2 2.461020 1_655
Bi2 O3 2.801774 1_555
Bi3 O1 2.182574 1_555
Bi3 O7 2.185887 1_555
Bi3 O4 2.278929 1_555
Bi3 F2 2.461020 1_555
Bi3 O2 2.801774 1_555
Bi4 O9 2.182574 1_455
Bi4 O3 2.185887 1_455
Bi4 O5 2.278929 1_555
Bi4 F1 2.461020 1_455
Bi4 O6 2.801774 1_545
Bi5 O8 2.182574 1_555
Bi5 O2 2.185887 1_555
Bi5 O5 2.278929 1_555
Bi5 F1 2.461020 1_555
Bi5 O7 2.801774 1_545
Bi6 O9 2.176175 1_555
Bi6 O8 2.176175 1_555
Bi6 O14 2.180476 1_555
Bi7 O6 2.178508 1_555
Bi7 O7 2.178508 1_555
Bi7 F4 2.260618 1_565
Bi7 F2 2.488359 1_555
Bi8 O13 2.178508 1_555
Bi8 O12 2.178508 1_555
Bi8 F3 2.260618 1_545
Bi8 F5 2.488359 1_555
Bi9 O11 2.176175 1_555
Bi9 O10 2.176175 1_555
Bi9 O5 2.180476 1_555
Bi10 O11 2.182574 1_555
Bi10 O17 2.185887 1_555
Bi10 O14 2.278929 1_555
Bi10 F6 2.461020 1_555
Bi10 O12 2.801774 1_565
Bi11 O10 2.182574 1_655
Bi11 O16 2.185887 1_655
Bi11 O14 2.278929 1_555
Bi11 F6 2.461020 1_655
Bi11 O13 2.801774 1_565
Bi12 O19 2.182574 1_455
Bi12 O13 2.185887 1_455
Bi12 O15 2.278929 1_555
Bi12 F5 2.461020 1_455
Bi12 O16 2.801774 1_555
Bi13 O18 2.182574 1_555
Bi13 O12 2.185887 1_555
Bi13 O15 2.278929 1_555
Bi13 F5 2.461020 1_555
Bi13 O17 2.801774 1_555
Bi14 O19 2.176175 1_555
Bi14 O18 2.176175 1_555
Bi14 O4 2.180476 1_546
Bi15 O17 2.178508 1_555
Bi15 O16 2.178508 1_555
Bi15 F0 2.260618 1_556
Bi15 F6 2.488359 1_555
