# generated using pymatgen
data_Co5(P2O7)4
_symmetry_space_group_name_H-M   'P 1'
_cell_length_a   9.36554500
_cell_length_b   10.68158950
_cell_length_c   12.62326625
_cell_angle_alpha   86.11688550
_cell_angle_beta   106.15925159
_cell_angle_gamma   115.69571806
_symmetry_Int_Tables_number   1
_chemical_formula_structural   Co5(P2O7)4
_chemical_formula_sum   'Co10 P16 O56'
_cell_volume   1090.93186597
_cell_formula_units_Z   2
loop_
 _symmetry_equiv_pos_site_id
 _symmetry_equiv_pos_as_xyz
  1  'x, y, z'
loop_
 _atom_site_type_symbol
 _atom_site_label
 _atom_site_symmetry_multiplicity
 _atom_site_fract_x
 _atom_site_fract_y
 _atom_site_fract_z
 _atom_site_occupancy
  Co  Co0  1  0.50913000  0.25362500  0.44204400  1
  Co  Co1  1  0.90522700  0.28421900  0.38002400  1
  Co  Co2  1  0.10022900  0.71409300  0.10246500  1
  Co  Co3  1  0.09477300  0.71578100  0.61997600  1
  Co  Co4  1  0.89977100  0.28590700  0.89753500  1
  Co  Co5  1  0.19140100  0.99189400  0.25915700  1
  Co  Co6  1  0.49087000  0.74637500  0.55795600  1
  Co  Co7  1  0.49103700  0.24936300  0.93472800  1
  Co  Co8  1  0.50896300  0.75063700  0.06527200  1
  Co  Co9  1  0.80859900  0.00810600  0.74084300  1
  P  P0  1  0.56277300  0.19426700  0.69456000  1
  P  P1  1  0.30732800  0.95992800  0.04447900  1
  P  P2  1  0.81533300  0.54292200  0.40106300  1
  P  P3  1  0.18466700  0.45707800  0.59893700  1
  P  P4  1  0.54620600  0.18955000  0.19166300  1
  P  P5  1  0.19797000  0.28460200  0.28806800  1
  P  P6  1  0.69267200  0.04007200  0.95552100  1
  P  P7  1  0.70464300  0.05082400  0.46304700  1
  P  P8  1  0.15633700  0.28603300  0.78926800  1
  P  P9  1  0.20905300  0.46251500  0.10097000  1
  P  P10  1  0.84366300  0.71396700  0.21073200  1
  P  P11  1  0.29535700  0.94917600  0.53695300  1
  P  P12  1  0.79094700  0.53748500  0.89903000  1
  P  P13  1  0.43722700  0.80573300  0.30544000  1
  P  P14  1  0.80203000  0.71539800  0.71193200  1
  P  P15  1  0.45379400  0.81045000  0.80833700  1
  O  O0  1  0.13824500  0.90959700  0.57113100  1
  O  O1  1  0.66927600  0.69829100  0.60311700  1
  O  O2  1  0.72570200  0.22822500  0.25049600  1
  O  O3  1  0.68701000  0.96566500  0.56700600  1
  O  O4  1  0.64816700  0.45109000  0.94599200  1
  O  O5  1  0.27429800  0.77177500  0.74950400  1
  O  O6  1  0.32697700  0.04601300  0.94591100  1
  O  O7  1  0.55779000  0.82161300  0.72896400  1
  O  O8  1  0.52525700  0.96740500  0.85723000  1
  O  O9  1  0.06137500  0.31729100  0.30004300  1
  O  O10  1  0.27027600  0.81531200  0.25728500  1
  O  O11  1  0.02647000  0.14421700  0.72971900  1
  O  O12  1  0.70772700  0.72160300  0.11582200  1
  O  O13  1  0.28760300  0.39786500  0.20985000  1
  O  O14  1  0.93157000  0.63676200  0.17897800  1
  O  O15  1  0.07242700  0.33146900  0.03012700  1
  O  O16  1  0.86175500  0.09040300  0.42886900  1
  O  O17  1  0.29227300  0.27839700  0.88417800  1
  O  O18  1  0.47474300  0.03259500  0.14277000  1
  O  O19  1  0.92757300  0.66853100  0.96987300  1
  O  O20  1  0.25145300  0.38460300  0.70505100  1
  O  O21  1  0.33072400  0.30170900  0.39688300  1
  O  O22  1  0.55348700  0.96083500  0.36197600  1
  O  O23  1  0.72972400  0.18468800  0.74271500  1
  O  O24  1  0.86525800  0.45160300  0.86258700  1
  O  O25  1  0.43734700  0.70822700  0.39952600  1
  O  O26  1  0.13474200  0.54839700  0.13741300  1
  O  O27  1  0.93862500  0.68270900  0.69995700  1
  O  O28  1  0.44221000  0.17838700  0.27103600  1
  O  O29  1  0.09135700  0.53225300  0.62634400  1
  O  O30  1  0.71043900  0.19006800  0.96910900  1
  O  O31  1  0.28956100  0.80993200  0.03089100  1
  O  O32  1  0.31329400  0.81279900  0.52945400  1
  O  O33  1  0.35183300  0.54891000  0.05400800  1
  O  O34  1  0.67302300  0.95398700  0.05408900  1
  O  O35  1  0.90864300  0.46774700  0.37365600  1
  O  O36  1  0.49441200  0.22132700  0.78203200  1
  O  O37  1  0.12620300  0.13665000  0.23157000  1
  O  O38  1  0.83723600  0.06080700  0.90568600  1
  O  O39  1  0.74854700  0.61539700  0.29494900  1
  O  O40  1  0.87379700  0.86335000  0.76843000  1
  O  O41  1  0.68670600  0.18720100  0.47054600  1
  O  O42  1  0.66364200  0.44540000  0.43387600  1
  O  O43  1  0.06843000  0.36323800  0.82102200  1
  O  O44  1  0.06640800  0.33252700  0.51734100  1
  O  O45  1  0.93359200  0.66747300  0.48265900  1
  O  O46  1  0.50558800  0.77867300  0.21796800  1
  O  O47  1  0.31299000  0.03433500  0.43299400  1
  O  O48  1  0.71239700  0.60213500  0.79015000  1
  O  O49  1  0.16276400  0.93919300  0.09431400  1
  O  O50  1  0.47656400  0.72439000  0.90791300  1
  O  O51  1  0.33635800  0.55460000  0.56612400  1
  O  O52  1  0.44651300  0.03916500  0.63802400  1
  O  O53  1  0.52343600  0.27561000  0.09208700  1
  O  O54  1  0.97353000  0.85578300  0.27028100  1
  O  O55  1  0.56265300  0.29177300  0.60047400  1
loop_
_geom_bond_atom_site_label_1
_geom_bond_atom_site_label_2
_geom_bond_distance
_geom_bond_site_symmetry_2
Co0 O21 1.885456 1_555
Co0 O42 1.945441 1_555
Co0 O55 1.947350 1_555
Co0 O41 2.013549 1_555
Co0 O28 2.178002 1_555
Co0 O47 2.249941 1_555
Co1 O44 1.881180 1_655
Co1 O2 1.894281 1_555
Co1 O9 1.899553 1_655
Co1 O35 1.943255 1_555
Co1 O16 2.016886 1_555
Co1 O41 2.422853 1_555
Co2 O19 1.890618 1_454
Co2 O14 1.928706 1_455
Co2 O26 1.934584 1_555
Co2 O31 2.049596 1_555
Co2 O10 2.141324 1_555
Co2 O49 2.216692 1_555
Co3 O45 1.881180 1_455
Co3 O5 1.894281 1_555
Co3 O27 1.899553 1_455
Co3 O29 1.943255 1_555
Co3 O0 2.016886 1_555
Co3 O32 2.422853 1_555
Co4 O15 1.890618 1_656
Co4 O43 1.928706 1_655
Co4 O24 1.934584 1_555
Co4 O30 2.049596 1_555
Co4 O23 2.141324 1_555
Co4 O38 2.216692 1_555
Co5 O37 1.874137 1_565
Co5 O54 1.963742 1_455
Co5 O49 2.106152 1_555
Co5 O47 2.147970 1_565
Co5 O28 2.301085 1_565
Co5 O10 2.308232 1_555
Co6 O1 1.885456 1_555
Co6 O51 1.945441 1_555
Co6 O25 1.947350 1_555
Co6 O32 2.013549 1_555
Co6 O7 2.178002 1_555
Co6 O3 2.249941 1_555
Co7 O17 1.944562 1_555
Co7 O53 1.944881 1_556
Co7 O36 1.981496 1_555
Co7 O4 2.001019 1_555
Co7 O6 2.069742 1_555
Co7 O30 2.325246 1_555
Co8 O12 1.944562 1_555
Co8 O50 1.944881 1_554
Co8 O46 1.981496 1_555
Co8 O33 2.001019 1_555
Co8 O34 2.069742 1_555
Co8 O31 2.325246 1_555
Co9 O40 1.874137 1_545
Co9 O11 1.963742 1_655
Co9 O38 2.106152 1_555
Co9 O3 2.147970 1_545
Co9 O7 2.301085 1_545
Co9 O23 2.308232 1_555
O0 P11 1.522894 1_555
O1 P14 1.533747 1_555
O2 P4 1.514144 1_555
O3 P7 1.550975 1_565
O4 P12 1.512682 1_555
O5 P15 1.514144 1_555
O6 P1 1.501098 1_546
O7 P15 1.546947 1_555
O8 P15 1.605238 1_555
O8 P6 1.610146 1_565
O9 P5 1.511124 1_555
O10 P13 1.557579 1_555
O11 P8 1.544881 1_555
O12 P10 1.513496 1_555
O13 P5 1.600663 1_555
O13 P9 1.629819 1_555
O14 P10 1.528335 1_555
O15 P9 1.541363 1_555
O16 P7 1.522894 1_555
O17 P8 1.513496 1_555
O18 P4 1.605238 1_555
O18 P1 1.610146 1_545
O19 P12 1.541363 1_555
O20 P8 1.610730 1_555
O20 P3 1.611805 1_555
O21 P5 1.533747 1_555
O22 P7 1.592657 1_565
O22 P13 1.613366 1_555
O23 P0 1.557579 1_555
O24 P12 1.525303 1_555
O25 P13 1.525799 1_555
O26 P9 1.525303 1_555
O27 P14 1.511124 1_555
O28 P4 1.546947 1_555
O29 P3 1.530564 1_555
O30 P6 1.553796 1_555
O31 P1 1.553796 1_555
O32 P11 1.548859 1_555
O33 P9 1.512682 1_555
O34 P6 1.501098 1_564
O35 P2 1.530564 1_555
O36 P0 1.519825 1_555
O37 P5 1.556486 1_555
O38 P6 1.572599 1_555
O39 P10 1.610730 1_555
O39 P2 1.611805 1_555
O40 P14 1.556486 1_555
O41 P7 1.548859 1_555
O42 P2 1.503577 1_555
O43 P8 1.528335 1_555
O44 P3 1.526564 1_555
O45 P2 1.526564 1_555
O46 P13 1.519825 1_555
O47 P11 1.550975 1_545
O48 P14 1.600663 1_555
O48 P12 1.629819 1_555
O49 P1 1.572599 1_555
O50 P15 1.528002 1_555
O51 P3 1.503577 1_555
O52 P11 1.592657 1_545
O52 P0 1.613366 1_555
O53 P4 1.528002 1_555
O54 P10 1.544881 1_555
O55 P0 1.525799 1_555
