# generated using pymatgen
data_Li4Co5Sb3O16
_symmetry_space_group_name_H-M   'P 1'
_cell_length_a   6.00700817
_cell_length_b   6.00700817
_cell_length_c   9.71541870
_cell_angle_alpha   89.51411559
_cell_angle_beta   89.51411559
_cell_angle_gamma   59.98109947
_symmetry_Int_Tables_number   1
_chemical_formula_structural   Li4Co5Sb3O16
_chemical_formula_sum   'Li4 Co5 Sb3 O16'
_cell_volume   303.53238641
_cell_formula_units_Z   1
loop_
 _symmetry_equiv_pos_site_id
 _symmetry_equiv_pos_as_xyz
  1  'x, y, z'
loop_
 _atom_site_type_symbol
 _atom_site_label
 _atom_site_symmetry_multiplicity
 _atom_site_fract_x
 _atom_site_fract_y
 _atom_site_fract_z
 _atom_site_occupancy
  Li  Li0  1  0.66792900  0.66792900  0.12225100  1
  Li  Li1  1  0.97989300  0.97989300  0.00977800  1
  Li  Li2  1  0.98676400  0.98676400  0.49481100  1
  Li  Li3  1  0.33119000  0.33119000  0.60129200  1
  Co  Co0  1  0.67175900  0.67175900  0.49322200  1
  Co  Co1  1  0.83296000  0.83296000  0.78302400  1
  Co  Co2  1  0.34978300  0.34978300  0.01860600  1
  Co  Co3  1  0.16945600  0.66256900  0.28576900  1
  Co  Co4  1  0.66256900  0.16945600  0.28576900  1
  Sb  Sb0  1  0.33903400  0.83453700  0.78503400  1
  Sb  Sb1  1  0.83453700  0.33903400  0.78503400  1
  Sb  Sb2  1  0.16998200  0.16998200  0.28460900  1
  O  O0  1  0.31418700  0.83889300  0.39574400  1
  O  O1  1  0.51358900  0.51358900  0.66466800  1
  O  O2  1  0.66018100  0.66018100  0.90328000  1
  O  O3  1  0.00811200  0.00811200  0.67802300  1
  O  O4  1  0.99606300  0.99606300  0.19098900  1
  O  O5  1  0.83889300  0.31418700  0.39574400  1
  O  O6  1  0.51048200  0.96902800  0.66424400  1
  O  O7  1  0.96902800  0.51048200  0.66424400  1
  O  O8  1  0.15835500  0.15835500  0.90286100  1
  O  O9  1  0.84036200  0.84036200  0.38501400  1
  O  O10  1  0.03796100  0.49122700  0.16720900  1
  O  O11  1  0.49122700  0.03796100  0.16720900  1
  O  O12  1  0.33777900  0.33777900  0.39065700  1
  O  O13  1  0.16739800  0.68299000  0.89648500  1
  O  O14  1  0.48097300  0.48097300  0.18005600  1
  O  O15  1  0.68299000  0.16739800  0.89648500  1
loop_
_geom_bond_atom_site_label_1
_geom_bond_atom_site_label_2
_geom_bond_distance
_geom_bond_site_symmetry_2
Li0 O11 1.976389 1_565
Li0 O10 1.976389 1_655
Li0 O14 2.019510 1_555
Li0 O2 2.129711 1_554
Li1 O4 1.770202 1_555
Li1 O15 1.913981 1_564
Li1 O13 1.913981 1_654
Li1 O8 2.118860 1_664
Li2 O3 1.795945 1_665
Li2 O9 1.868260 1_555
Li2 O5 1.954005 1_565
Li2 O0 1.954005 1_655
Li3 O6 1.977644 1_545
Li3 O7 1.977644 1_455
Li3 O1 2.001045 1_555
Li3 O12 2.046884 1_555
Co0 O9 2.036409 1_555
Co0 O5 2.092643 1_555
Co0 O0 2.092643 1_555
Co0 O6 2.275980 1_555
Co0 O7 2.275980 1_555
Co0 O1 2.330133 1_555
Co1 O7 2.046932 1_555
Co1 O6 2.046932 1_555
Co1 O13 2.067004 1_655
Co1 O15 2.067004 1_565
Co1 O3 2.079875 1_665
Co1 O2 2.134505 1_555
Co2 O14 2.089440 1_555
Co2 O15 2.098074 1_554
Co2 O13 2.098074 1_554
Co2 O11 2.167347 1_555
Co2 O10 2.167347 1_555
Co2 O8 2.296959 1_554
Co3 O14 1.921050 1_555
Co3 O4 1.960412 1_455
Co3 O9 1.962389 1_455
Co3 O10 1.964452 1_555
Co3 O12 1.969053 1_555
Co3 O0 1.993900 1_555
Co4 O14 1.921050 1_555
Co4 O4 1.960412 1_545
Co4 O9 1.962389 1_545
Co4 O11 1.964452 1_555
Co4 O12 1.969053 1_555
Co4 O5 1.993900 1_555
O0 Sb2 2.031587 1_565
O1 Sb1 2.044177 1_555
O1 Sb0 2.044177 1_555
O2 Sb1 2.033177 1_555
O2 Sb0 2.033177 1_555
O3 Sb0 2.015542 1_545
O3 Sb1 2.015542 1_455
O4 Sb2 2.033360 1_665
O5 Sb2 2.031587 1_655
O6 Sb0 1.971409 1_555
O7 Sb1 1.971409 1_555
O8 Sb0 2.043628 1_545
O8 Sb1 2.043628 1_455
O10 Sb2 2.024962 1_555
O11 Sb2 2.024962 1_555
O12 Sb2 2.035992 1_555
O13 Sb0 1.991892 1_555
O15 Sb1 1.991892 1_555
