# generated using pymatgen
data_KVPHO6
_symmetry_space_group_name_H-M   'P 1'
_cell_length_a   6.81190800
_cell_length_b   9.26802200
_cell_length_c   17.33849900
_cell_angle_alpha   90.00000000
_cell_angle_beta   90.00000000
_cell_angle_gamma   90.00000000
_symmetry_Int_Tables_number   1
_chemical_formula_structural   KVPHO6
_chemical_formula_sum   'K8 V8 P8 H8 O48'
_cell_volume   1094.62995249
_cell_formula_units_Z   8
loop_
 _symmetry_equiv_pos_site_id
 _symmetry_equiv_pos_as_xyz
  1  'x, y, z'
loop_
 _atom_site_type_symbol
 _atom_site_label
 _atom_site_symmetry_multiplicity
 _atom_site_fract_x
 _atom_site_fract_y
 _atom_site_fract_z
 _atom_site_occupancy
  K  K0  1  0.77399000  0.81390600  0.39726000  1
  K  K1  1  0.27399000  0.68609400  0.60274000  1
  K  K2  1  0.22601000  0.31390600  0.10274000  1
  K  K3  1  0.72601000  0.18609400  0.89726000  1
  K  K4  1  0.22601000  0.18609400  0.60274000  1
  K  K5  1  0.72601000  0.31390600  0.39726000  1
  K  K6  1  0.77399000  0.68609400  0.89726000  1
  K  K7  1  0.27399000  0.81390600  0.10274000  1
  V  V0  1  0.52288800  0.94712900  0.74048800  1
  V  V1  1  0.02288800  0.55287100  0.25951200  1
  V  V2  1  0.47711200  0.44712900  0.75951200  1
  V  V3  1  0.97711200  0.05287100  0.24048800  1
  V  V4  1  0.47711200  0.05287100  0.25951200  1
  V  V5  1  0.97711200  0.44712900  0.74048800  1
  V  V6  1  0.52288800  0.55287100  0.24048800  1
  V  V7  1  0.02288800  0.94712900  0.75951200  1
  P  P0  1  0.30443800  0.89004800  0.90487400  1
  P  P1  1  0.80443800  0.60995200  0.09512600  1
  P  P2  1  0.69556200  0.39004800  0.59512600  1
  P  P3  1  0.19556200  0.10995200  0.40487400  1
  P  P4  1  0.69556200  0.10995200  0.09512600  1
  P  P5  1  0.19556200  0.39004800  0.90487400  1
  P  P6  1  0.30443800  0.60995200  0.40487400  1
  P  P7  1  0.80443800  0.89004800  0.59512600  1
  H  H0  1  0.20990300  0.10685100  0.95366800  1
  H  H1  1  0.70990300  0.39314900  0.04633200  1
  H  H2  1  0.79009700  0.60685100  0.54633200  1
  H  H3  1  0.29009700  0.89314900  0.45366800  1
  H  H4  1  0.79009700  0.89314900  0.04633200  1
  H  H5  1  0.29009700  0.60685100  0.95366800  1
  H  H6  1  0.20990300  0.39314900  0.45366800  1
  H  H7  1  0.70990300  0.10685100  0.54633200  1
  O  O0  1  0.37356500  0.75556900  0.94673600  1
  O  O1  1  0.87356500  0.74443100  0.05326400  1
  O  O2  1  0.62643500  0.25556900  0.55326400  1
  O  O3  1  0.12643500  0.24443100  0.44673600  1
  O  O4  1  0.62643500  0.24443100  0.05326400  1
  O  O5  1  0.12643500  0.25556900  0.94673600  1
  O  O6  1  0.37356500  0.74443100  0.44673600  1
  O  O7  1  0.87356500  0.75556900  0.55326400  1
  O  O8  1  0.26084100  0.00565700  0.96948800  1
  O  O9  1  0.76084100  0.49434300  0.03051200  1
  O  O10  1  0.73915900  0.50565700  0.53051200  1
  O  O11  1  0.23915900  0.99434300  0.46948800  1
  O  O12  1  0.73915900  0.99434300  0.03051200  1
  O  O13  1  0.23915900  0.50565700  0.96948800  1
  O  O14  1  0.26084100  0.49434300  0.46948800  1
  O  O15  1  0.76084100  0.00565700  0.53051200  1
  O  O16  1  0.61235000  0.86428200  0.64276300  1
  O  O17  1  0.11235000  0.63571800  0.35723700  1
  O  O18  1  0.38765000  0.36428200  0.85723700  1
  O  O19  1  0.88765000  0.13571800  0.14276300  1
  O  O20  1  0.38765000  0.13571800  0.35723700  1
  O  O21  1  0.88765000  0.36428200  0.64276300  1
  O  O22  1  0.61235000  0.63571800  0.14276300  1
  O  O23  1  0.11235000  0.86428200  0.85723700  1
  O  O24  1  0.96641600  0.95401600  0.64843200  1
  O  O25  1  0.46641600  0.54598400  0.35156800  1
  O  O26  1  0.03358400  0.45401600  0.85156800  1
  O  O27  1  0.53358400  0.04598400  0.14843200  1
  O  O28  1  0.03358400  0.04598400  0.35156800  1
  O  O29  1  0.53358400  0.45401600  0.64843200  1
  O  O30  1  0.96641600  0.54598400  0.14843200  1
  O  O31  1  0.46641600  0.95401600  0.85156800  1
  O  O32  1  0.47162900  0.87992200  0.27727400  1
  O  O33  1  0.97162900  0.62007800  0.72272600  1
  O  O34  1  0.52837100  0.37992200  0.22272600  1
  O  O35  1  0.02837100  0.12007800  0.77727400  1
  O  O36  1  0.52837100  0.12007800  0.72272600  1
  O  O37  1  0.02837100  0.37992200  0.27727400  1
  O  O38  1  0.47162900  0.62007800  0.77727400  1
  O  O39  1  0.97162900  0.87992200  0.22272600  1
  O  O40  1  0.72199600  0.10866000  0.27739400  1
  O  O41  1  0.22199600  0.39134000  0.72260600  1
  O  O42  1  0.27800400  0.60866000  0.22260600  1
  O  O43  1  0.77800400  0.89134000  0.77739400  1
  O  O44  1  0.27800400  0.89134000  0.72260600  1
  O  O45  1  0.77800400  0.60866000  0.27739400  1
  O  O46  1  0.72199600  0.39134000  0.77739400  1
  O  O47  1  0.22199600  0.10866000  0.22260600  1
loop_
_geom_bond_atom_site_label_1
_geom_bond_atom_site_label_2
_geom_bond_distance
_geom_bond_site_symmetry_2
K0 O45 2.817538 1_555
K0 O7 2.840556 1_555
K0 O28 2.894997 1_665
K0 O15 2.916195 1_565
K0 O17 2.919126 1_655
K0 O6 2.930974 1_555
K0 O32 2.990735 1_555
K1 O44 2.817538 1_555
K1 O6 2.840556 1_555
K1 O29 2.894997 1_555
K1 O14 2.916195 1_555
K1 O16 2.919126 1_555
K1 O7 2.930974 1_455
K1 O33 2.990735 1_455
K2 O47 2.817538 1_555
K2 O5 2.840556 1_554
K2 O30 2.894997 1_455
K2 O13 2.916195 1_554
K2 O19 2.919126 1_455
K2 O4 2.930974 1_555
K2 O34 2.990735 1_555
K3 O46 2.817538 1_555
K3 O4 2.840556 1_556
K3 O31 2.894997 1_545
K3 O12 2.916195 1_546
K3 O18 2.919126 1_555
K3 O5 2.930974 1_655
K3 O35 2.990735 1_655
K4 O41 2.817538 1_555
K4 O3 2.840556 1_555
K4 O24 2.894997 1_445
K4 O11 2.916195 1_545
K4 O21 2.919126 1_455
K4 O2 2.930974 1_555
K4 O36 2.990735 1_555
K5 O40 2.817538 1_555
K5 O2 2.840556 1_555
K5 O25 2.894997 1_555
K5 O10 2.916195 1_555
K5 O20 2.919126 1_555
K5 O3 2.930974 1_655
K5 O37 2.990735 1_655
K6 O43 2.817538 1_555
K6 O1 2.840556 1_556
K6 O26 2.894997 1_655
K6 O9 2.916195 1_556
K6 O23 2.919126 1_655
K6 O0 2.930974 1_555
K6 O38 2.990735 1_555
K7 O42 2.817538 1_555
K7 O0 2.840556 1_554
K7 O27 2.894997 1_565
K7 O8 2.916195 1_564
K7 O22 2.919126 1_555
K7 O1 2.930974 1_455
K7 O39 2.990735 1_455
H0 O8 1.036934 1_555
H0 O5 1.495826 1_555
H1 O9 1.036934 1_555
H1 O4 1.495826 1_555
H2 O10 1.036934 1_555
H2 O7 1.495826 1_555
H3 O11 1.036934 1_555
H3 O6 1.495826 1_555
H4 O12 1.036934 1_555
H4 O1 1.495826 1_555
H5 O13 1.036934 1_555
H5 O0 1.495826 1_555
H6 O14 1.036934 1_555
H6 O3 1.495826 1_555
H7 O15 1.036934 1_555
H7 O2 1.495826 1_555
O0 P0 1.517219 1_555
O1 P1 1.517219 1_555
O2 P2 1.517219 1_555
O3 P3 1.517219 1_555
O4 P4 1.517219 1_555
O5 P5 1.517219 1_555
O6 P6 1.517219 1_555
O7 P7 1.517219 1_555
O8 P0 1.578395 1_545
O9 P1 1.578395 1_555
O10 P2 1.578395 1_555
O11 P3 1.578395 1_565
O12 P4 1.578395 1_565
O13 P5 1.578395 1_555
O14 P6 1.578395 1_555
O15 P7 1.578395 1_545
O16 P7 1.565682 1_555
O16 V0 1.957535 1_555
O17 P6 1.565682 1_555
O17 V1 1.957535 1_555
O18 P5 1.565682 1_555
O18 V2 1.957535 1_555
O19 P4 1.565682 1_555
O19 V3 1.957535 1_555
O20 P3 1.565682 1_555
O20 V4 1.957535 1_555
O21 P2 1.565682 1_555
O21 V5 1.957535 1_555
O22 P1 1.565682 1_555
O22 V6 1.957535 1_555
O23 P0 1.565682 1_555
O23 V7 1.957535 1_555
O24 P7 1.556649 1_555
O24 V7 1.965039 1_655
O25 P6 1.556649 1_555
O25 V6 1.965039 1_555
O26 P5 1.556649 1_555
O26 V5 1.965039 1_455
O27 P4 1.556649 1_555
O27 V4 1.965039 1_555
O28 P3 1.556649 1_555
O28 V3 1.965039 1_455
O29 P2 1.556649 1_555
O29 V2 1.965039 1_555
O30 P1 1.556649 1_555
O30 V1 1.965039 1_655
O31 P0 1.556649 1_555
O31 V0 1.965039 1_555
O32 V4 1.632639 1_565
O33 V5 1.632639 1_555
O34 V6 1.632639 1_555
O35 V7 1.632639 1_545
O36 V0 1.632639 1_545
O37 V1 1.632639 1_555
O38 V2 1.632639 1_555
O39 V3 1.632639 1_565
O40 V4 1.773731 1_555
O40 V3 1.922720 1_555
O41 V5 1.773731 1_455
O41 V2 1.922720 1_555
O42 V6 1.773731 1_555
O42 V1 1.922720 1_555
O43 V7 1.773731 1_655
O43 V0 1.922720 1_555
O44 V0 1.773731 1_555
O44 V7 1.922720 1_555
O45 V1 1.773731 1_655
O45 V6 1.922720 1_555
O46 V2 1.773731 1_555
O46 V5 1.922720 1_555
O47 V3 1.773731 1_455
O47 V4 1.922720 1_555
