# generated using pymatgen
data_H6Os5Pt2(CO)17
_symmetry_space_group_name_H-M   'P 1'
_cell_length_a   16.41071100
_cell_length_b   9.70148300
_cell_length_c   19.55722500
_cell_angle_alpha   88.82020609
_cell_angle_beta   90.00000000
_cell_angle_gamma   90.00000000
_symmetry_Int_Tables_number   1
_chemical_formula_structural   H6Os5Pt2(CO)17
_chemical_formula_sum   'H24 Os20 Pt8 C68 O68'
_cell_volume   3113.01117264
_cell_formula_units_Z   4
loop_
 _symmetry_equiv_pos_site_id
 _symmetry_equiv_pos_as_xyz
  1  'x, y, z'
loop_
 _atom_site_type_symbol
 _atom_site_label
 _atom_site_symmetry_multiplicity
 _atom_site_fract_x
 _atom_site_fract_y
 _atom_site_fract_z
 _atom_site_occupancy
  H  H0  1  0.59502800  0.55900000  0.08679700  1
  H  H1  1  0.90497200  0.05900000  0.58679700  1
  H  H2  1  0.40497200  0.44100000  0.91320300  1
  H  H3  1  0.09502800  0.94100000  0.41320300  1
  H  H4  1  0.45268100  0.48278900  0.13058000  1
  H  H5  1  0.04731900  0.98278900  0.63058000  1
  H  H6  1  0.54731900  0.51721100  0.86942000  1
  H  H7  1  0.95268100  0.01721100  0.36942000  1
  H  H8  1  0.56285100  0.29936400  0.08061200  1
  H  H9  1  0.93714900  0.79936400  0.58061200  1
  H  H10  1  0.43714900  0.70063600  0.91938800  1
  H  H11  1  0.06285100  0.20063600  0.41938800  1
  H  H12  1  0.63133200  0.23083600  0.26128100  1
  H  H13  1  0.86866800  0.73083600  0.76128100  1
  H  H14  1  0.36866800  0.76916400  0.73871900  1
  H  H15  1  0.13133200  0.26916400  0.23871900  1
  H  H16  1  0.65480400  0.52231800  0.27625700  1
  H  H17  1  0.84519600  0.02231800  0.77625700  1
  H  H18  1  0.34519600  0.47768200  0.72374300  1
  H  H19  1  0.15480400  0.97768200  0.22374300  1
  H  H20  1  0.71424000  0.31295100  0.34019700  1
  H  H21  1  0.78576000  0.81295100  0.84019700  1
  H  H22  1  0.28576000  0.68704900  0.65980300  1
  H  H23  1  0.21424000  0.18704900  0.15980300  1
  Os  Os0  1  0.64799600  0.39958700  0.11143400  1
  Os  Os1  1  0.85200400  0.89958700  0.61143400  1
  Os  Os2  1  0.35200400  0.60041300  0.88856600  1
  Os  Os3  1  0.14799600  0.10041300  0.38856600  1
  Os  Os4  1  0.53102500  0.59904900  0.15899800  1
  Os  Os5  1  0.96897500  0.09904900  0.65899800  1
  Os  Os6  1  0.46897500  0.40095100  0.84100200  1
  Os  Os7  1  0.03102500  0.90095100  0.34100200  1
  Os  Os8  1  0.48550500  0.30430100  0.14729400  1
  Os  Os9  1  0.01449500  0.80430100  0.64729400  1
  Os  Os10  1  0.51449500  0.69569900  0.85270600  1
  Os  Os11  1  0.98550500  0.19569900  0.35270600  1
  Os  Os12  1  0.63184800  0.19050400  0.35183200  1
  Os  Os13  1  0.86815200  0.69050400  0.85183200  1
  Os  Os14  1  0.36815200  0.80949600  0.64816800  1
  Os  Os15  1  0.13184800  0.30949600  0.14816800  1
  Os  Os16  1  0.68250600  0.48341700  0.36594400  1
  Os  Os17  1  0.81749400  0.98341700  0.86594400  1
  Os  Os18  1  0.31749400  0.51658300  0.63405600  1
  Os  Os19  1  0.18250600  0.01658300  0.13405600  1
  Pt  Pt0  1  0.59227500  0.39560800  0.24438100  1
  Pt  Pt1  1  0.90772500  0.89560800  0.74438100  1
  Pt  Pt2  1  0.40772500  0.60439200  0.75561900  1
  Pt  Pt3  1  0.09227500  0.10439200  0.25561900  1
  Pt  Pt4  1  0.52719800  0.39454000  0.39037400  1
  Pt  Pt5  1  0.97280200  0.89454000  0.89037400  1
  Pt  Pt6  1  0.47280200  0.60546000  0.60962600  1
  Pt  Pt7  1  0.02719800  0.10546000  0.10962600  1
  C  C0  1  0.43632400  0.27924200  0.41339300  1
  C  C1  1  0.06367600  0.77924200  0.91339300  1
  C  C2  1  0.56367600  0.72075800  0.58660700  1
  C  C3  1  0.93632400  0.22075800  0.08660700  1
  C  C4  1  0.48757600  0.57346500  0.41246300  1
  C  C5  1  0.01242400  0.07346500  0.91246300  1
  C  C6  1  0.51242400  0.42653500  0.58753700  1
  C  C7  1  0.98757600  0.92653500  0.08753700  1
  C  C8  1  0.68391600  0.40219600  0.01895500  1
  C  C9  1  0.81608400  0.90219600  0.51895500  1
  C  C10  1  0.31608400  0.59780400  0.98104500  1
  C  C11  1  0.18391600  0.09780400  0.48104500  1
  C  C12  1  0.69869000  0.22537000  0.13025800  1
  C  C13  1  0.80131000  0.72537000  0.63025800  1
  C  C14  1  0.30131000  0.77463000  0.86974200  1
  C  C15  1  0.19869000  0.27463000  0.36974200  1
  C  C16  1  0.74191900  0.49956500  0.14082300  1
  C  C17  1  0.75808100  0.99956500  0.64082300  1
  C  C18  1  0.25808100  0.50043500  0.85917700  1
  C  C19  1  0.24191900  0.00043500  0.35917700  1
  C  C20  1  0.48357300  0.72701200  0.09474100  1
  C  C21  1  0.01642700  0.22701200  0.59474100  1
  C  C22  1  0.51642700  0.27298800  0.90525900  1
  C  C23  1  0.98357300  0.77298800  0.40525900  1
  C  C24  1  0.45686300  0.64189100  0.23102100  1
  C  C25  1  0.04313700  0.14189100  0.73102100  1
  C  C26  1  0.54313700  0.35810900  0.76897900  1
  C  C27  1  0.95686300  0.85810900  0.26897900  1
  C  C28  1  0.61196000  0.72453500  0.18983300  1
  C  C29  1  0.88804000  0.22453500  0.68983300  1
  C  C30  1  0.38804000  0.27546500  0.81016700  1
  C  C31  1  0.11196000  0.77546500  0.31016700  1
  C  C32  1  0.51743800  0.11675600  0.16030200  1
  C  C33  1  0.98256200  0.61675600  0.66030200  1
  C  C34  1  0.48256200  0.88324400  0.83969800  1
  C  C35  1  0.01743800  0.38324400  0.33969800  1
  C  C36  1  0.40886000  0.28971900  0.22042400  1
  C  C37  1  0.09114000  0.78971900  0.72042400  1
  C  C38  1  0.59114000  0.71028100  0.77957600  1
  C  C39  1  0.90886000  0.21028100  0.27957600  1
  C  C40  1  0.40868900  0.27105900  0.07574300  1
  C  C41  1  0.09131100  0.77105900  0.57574300  1
  C  C42  1  0.59131100  0.72894100  0.92425700  1
  C  C43  1  0.90868900  0.22894100  0.42425700  1
  C  C44  1  0.64178500  0.13908500  0.44681200  1
  C  C45  1  0.85821500  0.63908500  0.94681200  1
  C  C46  1  0.35821500  0.86091500  0.55318800  1
  C  C47  1  0.14178500  0.36091500  0.05318800  1
  C  C48  1  0.71402700  0.06316100  0.32288700  1
  C  C49  1  0.78597300  0.56316100  0.82288700  1
  C  C50  1  0.28597300  0.93683900  0.67711300  1
  C  C51  1  0.21402700  0.43683900  0.17711300  1
  C  C52  1  0.54408900  0.06565800  0.33840900  1
  C  C53  1  0.95591100  0.56565800  0.83840900  1
  C  C54  1  0.45591100  0.93434200  0.66159100  1
  C  C55  1  0.04408900  0.43434200  0.16159100  1
  C  C56  1  0.65160200  0.67126500  0.37263500  1
  C  C57  1  0.84839800  0.17126500  0.87263500  1
  C  C58  1  0.34839800  0.32873500  0.62736500  1
  C  C59  1  0.15160200  0.82873500  0.12736500  1
  C  C60  1  0.70211400  0.46396100  0.46244200  1
  C  C61  1  0.79788600  0.96396100  0.96244200  1
  C  C62  1  0.29788600  0.53603900  0.53755800  1
  C  C63  1  0.20211400  0.03603900  0.03755800  1
  C  C64  1  0.79226500  0.52578400  0.33929400  1
  C  C65  1  0.70773500  0.02578400  0.83929400  1
  C  C66  1  0.20773500  0.47421600  0.66070600  1
  C  C67  1  0.29226500  0.97421600  0.16070600  1
  O  O0  1  0.38227500  0.21618900  0.43575000  1
  O  O1  1  0.11772500  0.71618900  0.93575000  1
  O  O2  1  0.61772500  0.78381100  0.56425000  1
  O  O3  1  0.88227500  0.28381100  0.06425000  1
  O  O4  1  0.46337300  0.68119700  0.42664200  1
  O  O5  1  0.03662700  0.18119700  0.92664200  1
  O  O6  1  0.53662700  0.31880300  0.57335800  1
  O  O7  1  0.96337300  0.81880300  0.07335800  1
  O  O8  1  0.70674900  0.40223400  0.96259300  1
  O  O9  1  0.79325100  0.90223400  0.46259300  1
  O  O10  1  0.29325100  0.59776600  0.03740700  1
  O  O11  1  0.20674900  0.09776600  0.53740700  1
  O  O12  1  0.72580200  0.11817800  0.14365000  1
  O  O13  1  0.77419800  0.61817800  0.64365000  1
  O  O14  1  0.27419800  0.88182200  0.85635000  1
  O  O15  1  0.22580200  0.38182200  0.35635000  1
  O  O16  1  0.79828800  0.55698000  0.16142200  1
  O  O17  1  0.70171200  0.05698000  0.66142200  1
  O  O18  1  0.20171200  0.44302000  0.83857800  1
  O  O19  1  0.29828800  0.94302000  0.33857800  1
  O  O20  1  0.45657700  0.80683400  0.05568900  1
  O  O21  1  0.04342300  0.30683400  0.55568900  1
  O  O22  1  0.54342300  0.19316600  0.94431100  1
  O  O23  1  0.95657700  0.69316600  0.44431100  1
  O  O24  1  0.41025400  0.66389800  0.27384400  1
  O  O25  1  0.08974600  0.16389800  0.77384400  1
  O  O26  1  0.58974600  0.33610200  0.72615600  1
  O  O27  1  0.91025400  0.83610200  0.22615600  1
  O  O28  1  0.66249800  0.79787100  0.20866900  1
  O  O29  1  0.83750200  0.29787100  0.70866900  1
  O  O30  1  0.33750200  0.20212900  0.79133100  1
  O  O31  1  0.16249800  0.70212900  0.29133100  1
  O  O32  1  0.54108100  0.00474800  0.16653800  1
  O  O33  1  0.95891900  0.50474800  0.66653800  1
  O  O34  1  0.45891900  0.99525200  0.83346200  1
  O  O35  1  0.04108100  0.49525200  0.33346200  1
  O  O36  1  0.36441700  0.27372300  0.26602300  1
  O  O37  1  0.13558300  0.77372300  0.76602300  1
  O  O38  1  0.63558300  0.72627700  0.73397700  1
  O  O39  1  0.86441700  0.22627700  0.23397700  1
  O  O40  1  0.36177400  0.25011300  0.03258500  1
  O  O41  1  0.13822600  0.75011300  0.53258500  1
  O  O42  1  0.63822600  0.74988700  0.96741500  1
  O  O43  1  0.86177400  0.24988700  0.46741500  1
  O  O44  1  0.64857900  0.10120500  0.50335000  1
  O  O45  1  0.85142100  0.60120500  0.00335000  1
  O  O46  1  0.35142100  0.89879500  0.49665000  1
  O  O47  1  0.14857900  0.39879500  0.99665000  1
  O  O48  1  0.76449200  0.98744000  0.30575700  1
  O  O49  1  0.73550800  0.48744000  0.80575700  1
  O  O50  1  0.23550800  0.01256000  0.69424300  1
  O  O51  1  0.26449200  0.51256000  0.19424300  1
  O  O52  1  0.48979100  0.99224500  0.32802500  1
  O  O53  1  0.01020900  0.49224500  0.82802500  1
  O  O54  1  0.51020900  0.00775500  0.67197500  1
  O  O55  1  0.98979100  0.50775500  0.17197500  1
  O  O56  1  0.63096400  0.78587400  0.37415300  1
  O  O57  1  0.86903600  0.28587400  0.87415300  1
  O  O58  1  0.36903600  0.21412600  0.62584700  1
  O  O59  1  0.13096400  0.71412600  0.12584700  1
  O  O60  1  0.71225300  0.46022000  0.52126800  1
  O  O61  1  0.78774700  0.96022000  0.02126800  1
  O  O62  1  0.28774700  0.53978000  0.47873200  1
  O  O63  1  0.21225300  0.03978000  0.97873200  1
  O  O64  1  0.85818200  0.55449700  0.32239000  1
  O  O65  1  0.64181800  0.05449700  0.82239000  1
  O  O66  1  0.14181800  0.44550300  0.67761000  1
  O  O67  1  0.35818200  0.94550300  0.17761000  1
loop_
_geom_bond_atom_site_label_1
_geom_bond_atom_site_label_2
_geom_bond_distance
_geom_bond_site_symmetry_2
H0 Os4 1.808492 1_555
H0 Os0 1.829987 1_555
H1 Os5 1.808492 1_555
H1 Os1 1.829987 1_545
H2 Os6 1.808492 1_555
H2 Os2 1.829987 1_555
H3 Os7 1.808492 1_555
H3 Os3 1.829987 1_565
H4 Os4 1.805498 1_555
H4 Os8 1.836337 1_555
H5 Os5 1.805498 1_465
H5 Os9 1.836337 1_555
H6 Os6 1.805498 1_555
H6 Os10 1.836337 1_555
H7 Os7 1.805498 1_645
H7 Os11 1.836337 1_555
H8 Os0 1.812541 1_555
H8 Os8 1.821184 1_555
H9 Os1 1.812541 1_555
H9 Os9 1.821184 1_655
H10 Os2 1.812541 1_555
H10 Os10 1.821184 1_555
H11 Os3 1.812541 1_555
H11 Os11 1.821184 1_455
H12 Pt0 1.747459 1_555
H12 Os12 1.805773 1_555
H13 Pt1 1.747459 1_555
H13 Os13 1.805773 1_555
H14 Pt2 1.747459 1_555
H14 Os14 1.805773 1_555
H15 Pt3 1.747459 1_555
H15 Os15 1.805773 1_555
H16 Pt0 1.727508 1_555
H16 Os16 1.843490 1_555
H17 Pt1 1.727508 1_545
H17 Os17 1.843490 1_545
H18 Pt2 1.727508 1_555
H18 Os18 1.843490 1_555
H19 Pt3 1.727508 1_565
H19 Os19 1.843490 1_565
H20 Os12 1.811077 1_555
H20 Os16 1.814943 1_555
H21 Os13 1.811077 1_555
H21 Os17 1.814943 1_555
H22 Os14 1.811077 1_555
H22 Os18 1.814943 1_555
H23 Os15 1.811077 1_555
H23 Os19 1.814943 1_555
Os12 Pt4 2.738110 1_555
Os13 Pt5 2.738110 1_555
Os14 Pt6 2.738110 1_555
Os15 Pt7 2.738110 1_555
Os16 Pt4 2.729600 1_555
Os17 Pt5 2.729600 1_555
Os18 Pt6 2.729600 1_555
Os19 Pt7 2.729600 1_555
C0 O0 1.158054 1_555
C0 Pt4 1.912357 1_555
C1 O1 1.158054 1_555
C1 Pt5 1.912357 1_455
C2 O2 1.158054 1_555
C2 Pt6 1.912357 1_555
C3 O3 1.158054 1_555
C3 Pt7 1.912357 1_655
C4 O4 1.157130 1_555
C4 Pt4 1.911395 1_555
C5 O5 1.157130 1_555
C5 Pt5 1.911395 1_445
C6 O6 1.157130 1_555
C6 Pt6 1.911395 1_555
C7 O7 1.157130 1_555
C7 Pt7 1.911395 1_665
C8 O8 1.164224 1_554
C8 Os0 1.901943 1_555
C9 O9 1.164224 1_555
C9 Os1 1.901943 1_555
C10 O10 1.164224 1_556
C10 Os2 1.901943 1_555
C11 O11 1.164224 1_555
C11 Os3 1.901943 1_555
C12 O12 1.156191 1_555
C12 Os0 1.912762 1_555
C13 O13 1.156191 1_555
C13 Os1 1.912762 1_555
C14 O14 1.156191 1_555
C14 Os2 1.912762 1_555
C15 O15 1.156191 1_555
C15 Os3 1.912762 1_555
C16 O16 1.156514 1_555
C16 Os0 1.915679 1_555
C17 O17 1.156514 1_565
C17 Os1 1.915679 1_555
C18 O18 1.156514 1_555
C18 Os2 1.915679 1_555
C19 O19 1.156514 1_545
C19 Os3 1.915679 1_555
C20 O20 1.164006 1_555
C20 Os4 1.913787 1_555
C21 O21 1.164006 1_555
C21 Os5 1.913787 1_455
C22 O22 1.164006 1_555
C22 Os6 1.913787 1_555
C23 O23 1.164006 1_555
C23 Os7 1.913787 1_655
C24 O24 1.157325 1_555
C24 Os4 1.913672 1_555
C25 O25 1.157325 1_555
C25 Os5 1.913672 1_455
C26 O26 1.157325 1_555
C26 Os6 1.913672 1_555
C27 O27 1.157325 1_555
C27 Os7 1.913672 1_655
C28 O28 1.157812 1_555
C28 Os4 1.907899 1_555
C29 O29 1.157812 1_555
C29 Os5 1.907899 1_555
C30 O30 1.157812 1_555
C30 Os6 1.907899 1_555
C31 O31 1.157812 1_555
C31 Os7 1.907899 1_555
C32 O32 1.157909 1_555
C32 Os8 1.905448 1_555
C33 O33 1.157909 1_555
C33 Os9 1.905448 1_655
C34 O34 1.157909 1_555
C34 Os10 1.905448 1_555
C35 O35 1.157909 1_555
C35 Os11 1.905448 1_455
C36 O36 1.160005 1_555
C36 Os8 1.907687 1_555
C37 O37 1.160005 1_555
C37 Os9 1.907687 1_555
C38 O38 1.160005 1_555
C38 Os10 1.907687 1_555
C39 O39 1.160005 1_555
C39 Os11 1.907687 1_555
C40 O40 1.163416 1_555
C40 Os8 1.915689 1_555
C41 O41 1.163416 1_555
C41 Os9 1.915689 1_555
C42 O42 1.163416 1_555
C42 Os10 1.915689 1_555
C43 O43 1.163416 1_555
C43 Os11 1.915689 1_555
C44 O44 1.163348 1_555
C44 Os12 1.920352 1_555
C45 O45 1.163348 1_556
C45 Os13 1.920352 1_555
C46 O46 1.163348 1_555
C46 Os14 1.920352 1_555
C47 O47 1.163348 1_554
C47 Os15 1.920352 1_555
C48 O48 1.160980 1_545
C48 Os12 1.922048 1_555
C49 O49 1.160980 1_555
C49 Os13 1.922048 1_555
C50 O50 1.160980 1_565
C50 Os14 1.922048 1_555
C51 O51 1.160980 1_555
C51 Os15 1.922048 1_555
C52 O52 1.161229 1_545
C52 Os12 1.903453 1_555
C53 O53 1.161229 1_655
C53 Os13 1.903453 1_555
C54 O54 1.161229 1_565
C54 Os14 1.903453 1_555
C55 O55 1.161229 1_455
C55 Os15 1.903453 1_555
C56 O56 1.163279 1_555
C56 Os16 1.898765 1_555
C57 O57 1.163279 1_555
C57 Os17 1.898765 1_545
C58 O58 1.163279 1_555
C58 Os18 1.898765 1_555
C59 O59 1.163279 1_555
C59 Os19 1.898765 1_565
C60 O60 1.162270 1_555
C60 Os16 1.919935 1_555
C61 O61 1.162270 1_556
C61 Os17 1.919935 1_555
C62 O62 1.162270 1_555
C62 Os18 1.919935 1_555
C63 O63 1.162270 1_554
C63 Os19 1.919935 1_555
C64 O64 1.163300 1_555
C64 Os16 1.917335 1_555
C65 O65 1.163300 1_555
C65 Os17 1.917335 1_545
C66 O66 1.163300 1_555
C66 Os18 1.917335 1_555
C67 O67 1.163300 1_555
C67 Os19 1.917335 1_565
