# generated using pymatgen
data_CoH8SO8
_symmetry_space_group_name_H-M   'P 1'
_cell_length_a   13.66374300
_cell_length_b   6.01080900
_cell_length_c   9.91372394
_cell_angle_alpha   53.24210799
_cell_angle_beta   90.00000000
_cell_angle_gamma   90.00000000
_symmetry_Int_Tables_number   1
_chemical_formula_structural   CoH8SO8
_chemical_formula_sum   'Co4 H32 S4 O32'
_cell_volume   652.32626757
_cell_formula_units_Z   4
loop_
 _symmetry_equiv_pos_site_id
 _symmetry_equiv_pos_as_xyz
  1  'x, y, z'
loop_
 _atom_site_type_symbol
 _atom_site_label
 _atom_site_symmetry_multiplicity
 _atom_site_fract_x
 _atom_site_fract_y
 _atom_site_fract_z
 _atom_site_occupancy
  Co  Co0  1  0.60154300  0.15108100  0.28089900  1
  Co  Co1  1  0.89845700  0.15108100  0.78089900  1
  Co  Co2  1  0.39845700  0.84891900  0.71910100  1
  Co  Co3  1  0.10154300  0.84891900  0.21910100  1
  H  H0  1  0.58317500  0.10989900  0.02683600  1
  H  H1  1  0.91682500  0.10989900  0.52683600  1
  H  H2  1  0.41682500  0.89010100  0.97316400  1
  H  H3  1  0.08317500  0.89010100  0.47316400  1
  H  H4  1  0.51729400  0.87231000  0.17763100  1
  H  H5  1  0.98270600  0.87231000  0.67763100  1
  H  H6  1  0.48270600  0.12769000  0.82236900  1
  H  H7  1  0.01729400  0.12769000  0.32236900  1
  H  H8  1  0.68666600  0.46331300  0.35040200  1
  H  H9  1  0.81333400  0.46331300  0.85040200  1
  H  H10  1  0.31333400  0.53668700  0.64959800  1
  H  H11  1  0.18666600  0.53668700  0.14959800  1
  H  H12  1  0.58831500  0.36143200  0.45675300  1
  H  H13  1  0.91168500  0.36143200  0.95675300  1
  H  H14  1  0.41168500  0.63856800  0.54324700  1
  H  H15  1  0.08831500  0.63856800  0.04324700  1
  H  H16  1  0.68485700  0.64618200  0.05161200  1
  H  H17  1  0.81514300  0.64618200  0.55161200  1
  H  H18  1  0.31514300  0.35381800  0.94838800  1
  H  H19  1  0.18485700  0.35381800  0.44838800  1
  H  H20  1  0.60019600  0.62754800  0.94648000  1
  H  H21  1  0.89980400  0.62754800  0.44648000  1
  H  H22  1  0.39980400  0.37245200  0.05352000  1
  H  H23  1  0.10019600  0.37245200  0.55352000  1
  H  H24  1  0.76081500  0.97567200  0.21702800  1
  H  H25  1  0.73918500  0.97567200  0.71702800  1
  H  H26  1  0.23918500  0.02432800  0.78297200  1
  H  H27  1  0.26081500  0.02432800  0.28297200  1
  H  H28  1  0.80473300  0.14893000  0.27740900  1
  H  H29  1  0.69526700  0.14893000  0.77740900  1
  H  H30  1  0.19526700  0.85107000  0.72259100  1
  H  H31  1  0.30473300  0.85107000  0.22259100  1
  S  S0  1  0.60901000  0.62482600  0.67877900  1
  S  S1  1  0.89099000  0.62482600  0.17877900  1
  S  S2  1  0.39099000  0.37517400  0.32122100  1
  S  S3  1  0.10901000  0.37517400  0.82122100  1
  O  O0  1  0.55128800  0.74979400  0.74743300  1
  O  O1  1  0.94871200  0.74979400  0.24743300  1
  O  O2  1  0.44871200  0.25020600  0.25256700  1
  O  O3  1  0.05128800  0.25020600  0.75256700  1
  O  O4  1  0.57324300  0.74136000  0.50558400  1
  O  O5  1  0.92675700  0.74136000  0.00558400  1
  O  O6  1  0.42675700  0.25864000  0.49441600  1
  O  O7  1  0.07324300  0.25864000  0.99441600  1
  O  O8  1  0.59296700  0.31572600  0.78870300  1
  O  O9  1  0.90703300  0.31572600  0.28870300  1
  O  O10  1  0.40703300  0.68427400  0.21129700  1
  O  O11  1  0.09296700  0.68427400  0.71129700  1
  O  O12  1  0.71426900  0.68274900  0.68043600  1
  O  O13  1  0.78573100  0.68274900  0.18043600  1
  O  O14  1  0.28573100  0.31725100  0.31956400  1
  O  O15  1  0.21426900  0.31725100  0.81956400  1
  O  O16  1  0.57760100  0.98336200  0.15048500  1
  O  O17  1  0.92239900  0.98336200  0.65048500  1
  O  O18  1  0.42239900  0.01663800  0.84951500  1
  O  O19  1  0.07760100  0.01663800  0.34951500  1
  O  O20  1  0.64279400  0.30335100  0.41975100  1
  O  O21  1  0.85720600  0.30335100  0.91975100  1
  O  O22  1  0.35720600  0.69664900  0.58024900  1
  O  O23  1  0.14279400  0.69664900  0.08024900  1
  O  O24  1  0.62421900  0.54970600  0.06120500  1
  O  O25  1  0.87578100  0.54970600  0.56120500  1
  O  O26  1  0.37578100  0.45029400  0.93879500  1
  O  O27  1  0.12421900  0.45029400  0.43879500  1
  O  O28  1  0.74776400  0.03748700  0.28740900  1
  O  O29  1  0.75223600  0.03748700  0.78740900  1
  O  O30  1  0.25223600  0.96251300  0.71259100  1
  O  O31  1  0.24776400  0.96251300  0.21259100  1
loop_
_geom_bond_atom_site_label_1
_geom_bond_atom_site_label_2
_geom_bond_distance
_geom_bond_site_symmetry_2
Co0 O24 2.082008 1_555
Co0 O16 2.086838 1_545
Co0 O28 2.099842 1_555
Co0 O20 2.134995 1_555
Co0 O2 2.143445 1_555
Co0 O4 2.147235 1_545
Co1 O25 2.082008 1_555
Co1 O17 2.086838 1_545
Co1 O29 2.099842 1_555
Co1 O21 2.134995 1_555
Co1 O3 2.143445 1_655
Co1 O5 2.147235 1_546
Co2 O26 2.082008 1_555
Co2 O18 2.086838 1_565
Co2 O30 2.099842 1_555
Co2 O22 2.134995 1_555
Co2 O0 2.143445 1_555
Co2 O6 2.147235 1_565
Co3 O27 2.082008 1_555
Co3 O19 2.086838 1_565
Co3 O31 2.099842 1_555
Co3 O23 2.134995 1_555
Co3 O1 2.143445 1_455
Co3 O7 2.147235 1_564
H0 O16 0.985413 1_545
H1 O17 0.985413 1_545
H2 O18 0.985413 1_565
H3 O19 0.985413 1_565
H4 O16 0.990959 1_555
H5 O17 0.990959 1_555
H6 O18 0.990959 1_555
H7 O19 0.990959 1_555
H8 O20 0.982507 1_555
H9 O21 0.982507 1_555
H10 O22 0.982507 1_555
H11 O23 0.982507 1_555
H12 O20 0.981749 1_555
H13 O21 0.981749 1_555
H14 O22 0.981749 1_555
H15 O23 0.981749 1_555
H16 O24 0.982752 1_555
H17 O25 0.982752 1_555
H18 O26 0.982752 1_555
H19 O27 0.982752 1_555
H20 O24 0.991621 1_556
H21 O25 0.991621 1_555
H22 O26 0.991621 1_554
H23 O27 0.991621 1_555
H24 O28 0.983353 1_565
H25 O29 0.983353 1_565
H26 O30 0.983353 1_545
H27 O31 0.983353 1_545
H28 O28 0.992463 1_555
H29 O29 0.992463 1_555
H30 O30 0.992463 1_555
H31 O31 0.992463 1_555
O0 S0 1.503804 1_555
O1 S1 1.503804 1_555
O2 S2 1.503804 1_555
O3 S3 1.503804 1_555
O4 S0 1.496037 1_555
O5 S1 1.496037 1_555
O6 S2 1.496037 1_555
O7 S3 1.496037 1_555
O8 S0 1.504746 1_555
O9 S1 1.504746 1_555
O10 S2 1.504746 1_555
O11 S3 1.504746 1_555
O12 S0 1.482176 1_555
O13 S1 1.482176 1_555
O14 S2 1.482176 1_555
O15 S3 1.482176 1_555
