# generated using pymatgen
data_Nb5(AsPd)4
_symmetry_space_group_name_H-M   'P 1'
_cell_length_a   7.74665161
_cell_length_b   7.74665161
_cell_length_c   7.74665161
_cell_angle_alpha   93.48110960
_cell_angle_beta   93.48110960
_cell_angle_gamma   151.46927357
_symmetry_Int_Tables_number   1
_chemical_formula_structural   Nb5(AsPd)4
_chemical_formula_sum   'Nb5 As4 Pd4'
_cell_volume   215.19457548
_cell_formula_units_Z   1
loop_
 _symmetry_equiv_pos_site_id
 _symmetry_equiv_pos_as_xyz
  1  'x, y, z'
loop_
 _atom_site_type_symbol
 _atom_site_label
 _atom_site_symmetry_multiplicity
 _atom_site_fract_x
 _atom_site_fract_y
 _atom_site_fract_z
 _atom_site_occupancy
  Nb  Nb0  1  0.68795000  0.61827600  0.30622600  1
  Nb  Nb1  1  0.31205000  0.38172400  0.69377400  1
  Nb  Nb2  1  0.00000000  0.00000000  0.00000000  1
  Nb  Nb3  1  0.61827600  0.31205000  0.93032600  1
  Nb  Nb4  1  0.38172400  0.68795000  0.06967400  1
  As  As0  1  0.75606700  0.06593600  0.82200300  1
  As  As1  1  0.24393300  0.93406400  0.17799700  1
  As  As2  1  0.93406400  0.75606700  0.69013100  1
  As  As3  1  0.06593600  0.24393300  0.30986900  1
  Pd  Pd0  1  0.88857900  0.40380800  0.29238700  1
  Pd  Pd1  1  0.59619200  0.88857900  0.48477100  1
  Pd  Pd2  1  0.11142100  0.59619200  0.70761300  1
  Pd  Pd3  1  0.40380800  0.11142100  0.51522900  1
loop_
_geom_bond_atom_site_label_1
_geom_bond_atom_site_label_2
_geom_bond_distance
_geom_bond_site_symmetry_2
Nb0 Pd3 2.983604 1_555
Nb0 Pd3 2.983604 1_665
Nb0 Pd1 3.030825 1_555
Nb0 Pd0 3.118190 1_555
Nb1 Pd1 2.983604 1_445
Nb1 Pd1 2.983604 1_555
Nb1 Pd3 3.030825 1_555
Nb1 Pd2 3.118190 1_555
Nb3 Pd2 2.983604 1_655
Nb3 Pd2 2.983604 1_545
Nb3 Pd0 3.030825 1_556
Nb3 Pd3 3.118190 1_555
Nb4 Pd0 2.983604 1_565
Nb4 Pd0 2.983604 1_455
Nb4 Pd2 3.030825 1_554
Nb4 Pd1 3.118190 1_555
As0 Pd2 2.470967 1_655
As0 Pd2 2.470967 1_545
As0 Pd1 2.535264 1_545
As0 Nb4 2.664986 1_546
As0 Nb4 2.664986 1_656
As0 Nb2 2.682935 1_656
As0 Nb1 2.796898 1_545
As0 Nb1 2.796898 1_655
As0 Nb3 2.994814 1_555
As1 Pd0 2.470967 1_455
As1 Pd0 2.470967 1_565
As1 Pd3 2.535264 1_565
As1 Nb3 2.664986 1_454
As1 Nb3 2.664986 1_564
As1 Nb2 2.682935 1_565
As1 Nb0 2.796898 1_565
As1 Nb0 2.796898 1_455
As1 Nb4 2.994814 1_555
As2 Pd3 2.470967 1_665
As2 Pd3 2.470967 1_555
As2 Pd2 2.535264 1_655
As2 Nb1 2.664986 1_665
As2 Nb1 2.664986 1_555
As2 Nb2 2.682935 1_666
As2 Nb3 2.796898 1_665
As2 Nb3 2.796898 1_555
As2 Nb0 2.994814 1_555
As3 Pd1 2.470967 1_445
As3 Pd1 2.470967 1_555
As3 Pd0 2.535264 1_455
As3 Nb0 2.664986 1_445
As3 Nb0 2.664986 1_555
As3 Nb2 2.682935 1_555
As3 Nb4 2.796898 1_445
As3 Nb4 2.796898 1_555
As3 Nb1 2.994814 1_555
Pd0 Pd1 2.920468 1_655
Pd0 Pd1 2.920468 1_545
Pd0 Pd3 2.920468 1_555
Pd0 Pd3 2.920468 1_665
Pd0 Pd2 3.125802 1_655
Pd1 Pd2 2.920468 1_665
Pd1 Pd2 2.920468 1_555
Pd1 Pd3 3.125802 1_565
Pd2 Pd3 2.920468 1_455
Pd2 Pd3 2.920468 1_565
