# generated using pymatgen
data_Mn23FeO32
_symmetry_space_group_name_H-M   'P 1'
_cell_length_a   6.33246000
_cell_length_b   10.48612191
_cell_length_c   10.49754609
_cell_angle_alpha   105.89923609
_cell_angle_beta   94.44166748
_cell_angle_gamma   94.26788013
_symmetry_Int_Tables_number   1
_chemical_formula_structural   Mn23FeO32
_chemical_formula_sum   'Mn23 Fe1 O32'
_cell_volume   665.05540308
_cell_formula_units_Z   1
loop_
 _symmetry_equiv_pos_site_id
 _symmetry_equiv_pos_as_xyz
  1  'x, y, z'
loop_
 _atom_site_type_symbol
 _atom_site_label
 _atom_site_symmetry_multiplicity
 _atom_site_fract_x
 _atom_site_fract_y
 _atom_site_fract_z
 _atom_site_occupancy
  Mn  Mn0  1  0.99663000  0.93721000  0.81276400  1
  Mn  Mn1  1  0.50020200  0.06319800  0.68712100  1
  Mn  Mn2  1  0.50025000  0.43758200  0.81253500  1
  Mn  Mn3  1  0.00003100  0.25026700  0.74979000  1
  Mn  Mn4  1  0.75039200  0.25009200  0.50000700  1
  Mn  Mn5  1  0.49624100  0.75132200  0.75089500  1
  Mn  Mn6  1  0.00005400  0.56308600  0.68797700  1
  Mn  Mn7  1  0.49979800  0.93680200  0.31287900  1
  Mn  Mn8  1  0.50000000  0.50000000  0.50000000  1
  Mn  Mn9  1  0.25020000  0.24994200  0.49969200  1
  Mn  Mn10  1  0.00000000  0.00000000  0.50000000  1
  Mn  Mn11  1  0.74980000  0.75005800  0.50030800  1
  Mn  Mn12  1  0.50375900  0.24867800  0.24910500  1
  Mn  Mn13  1  0.24960800  0.74990800  0.49999300  1
  Mn  Mn14  1  0.75127200  0.25017500  0.99985500  1
  Mn  Mn15  1  0.00337000  0.06279000  0.18723600  1
  Mn  Mn16  1  0.49975000  0.56241800  0.18746500  1
  Mn  Mn17  1  0.99994600  0.43691400  0.31202300  1
  Mn  Mn18  1  0.74740400  0.75118300  0.00190900  1
  Mn  Mn19  1  0.25259600  0.24881700  0.99809100  1
  Mn  Mn20  1  0.99996900  0.74973300  0.25021000  1
  Mn  Mn21  1  0.00000000  0.50000000  0.00000000  1
  Mn  Mn22  1  0.24872800  0.74982500  0.00014500  1
  Fe  Fe0  1  0.50000000  0.00000000  0.00000000  1
  O  O0  1  0.77217800  0.13548100  0.62074200  1
  O  O1  1  0.99346800  0.35735300  0.62131000  1
  O  O2  1  0.49355500  0.37134000  0.60695300  1
  O  O3  1  0.99265200  0.87142700  0.60752800  1
  O  O4  1  0.22820800  0.12907800  0.61425900  1
  O  O5  1  0.72812300  0.62969000  0.61544400  1
  O  O6  1  0.72853700  0.36480400  0.37900700  1
  O  O7  1  0.50747100  0.14273800  0.37822700  1
  O  O8  1  0.27146300  0.63519600  0.62099300  1
  O  O9  1  0.49252900  0.85726200  0.62177300  1
  O  O10  1  0.00734800  0.12857300  0.39247200  1
  O  O11  1  0.27187700  0.37031000  0.38455600  1
  O  O12  1  0.77179200  0.87092200  0.38574100  1
  O  O13  1  0.50644500  0.62866000  0.39304700  1
  O  O14  1  0.99517000  0.37066400  0.10683300  1
  O  O15  1  0.73294600  0.13100200  0.11551100  1
  O  O16  1  0.77151900  0.63498200  0.12110100  1
  O  O17  1  0.99219400  0.85700000  0.12176400  1
  O  O18  1  0.00653200  0.64264700  0.37869000  1
  O  O19  1  0.28275000  0.12740600  0.11494600  1
  O  O20  1  0.22782200  0.86451900  0.37925800  1
  O  O21  1  0.49304400  0.35650700  0.12146600  1
  O  O22  1  0.77209200  0.37119700  0.88519400  1
  O  O23  1  0.50814200  0.13106200  0.89224000  1
  O  O24  1  0.49185800  0.86893800  0.10776000  1
  O  O25  1  0.22790800  0.62880300  0.11480600  1
  O  O26  1  0.22848100  0.36501800  0.87889900  1
  O  O27  1  0.50695600  0.64349300  0.87853400  1
  O  O28  1  0.00780600  0.14300000  0.87823600  1
  O  O29  1  0.71725000  0.87259400  0.88505400  1
  O  O30  1  0.00483000  0.62933600  0.89316700  1
  O  O31  1  0.26705400  0.86899800  0.88448900  1
loop_
_geom_bond_atom_site_label_1
_geom_bond_atom_site_label_2
_geom_bond_distance
_geom_bond_site_symmetry_2
Mn0 O31 2.070917 1_655
Mn0 O28 2.071525 1_665
Mn0 O3 2.071949 1_555
Mn0 O29 2.115695 1_555
Mn1 O23 2.069728 1_555
Mn1 O4 2.071582 1_555
Mn1 O9 2.074570 1_545
Mn1 O0 2.075396 1_555
Mn2 O22 2.072577 1_555
Mn2 O2 2.074087 1_555
Mn2 O27 2.075130 1_555
Mn2 O26 2.075399 1_555
Mn3 O1 1.977316 1_455
Mn3 O0 1.977681 1_455
Mn3 O28 1.978549 1_555
Mn3 O26 1.980230 1_555
Mn3 O22 2.305330 1_455
Mn3 O4 2.308256 1_555
Mn4 O0 1.975330 1_555
Mn4 O1 1.977354 1_555
Mn4 O6 1.978428 1_555
Mn4 O7 1.979155 1_555
Mn4 O2 2.308819 1_555
Mn4 O10 2.313160 1_655
Mn5 O9 1.973802 1_555
Mn5 O8 1.974845 1_555
Mn5 O27 1.976320 1_555
Mn5 O29 2.001956 1_555
Mn5 O31 2.286789 1_555
Mn5 O5 2.326635 1_555
Mn6 O30 2.071263 1_555
Mn6 O5 2.073665 1_455
Mn6 O1 2.073769 1_455
Mn6 O8 2.074890 1_555
Mn7 O24 2.069728 1_555
Mn7 O12 2.071582 1_555
Mn7 O7 2.074570 1_565
Mn7 O20 2.075396 1_555
Mn8 O2 1.977683 1_555
Mn8 O13 1.977683 1_555
Mn8 O11 1.984535 1_555
Mn8 O5 1.984535 1_555
Mn8 O8 2.306721 1_555
Mn8 O6 2.306721 1_555
Mn9 O4 1.976590 1_555
Mn9 O10 1.976697 1_555
Mn9 O11 1.977004 1_555
Mn9 O2 1.979157 1_555
Mn9 O1 2.312524 1_455
Mn9 O7 2.313593 1_555
Mn10 O4 1.977363 1_555
Mn10 O12 1.977363 1_445
Mn10 O10 1.981578 1_555
Mn10 O3 1.981578 1_445
Mn10 O0 2.303877 1_455
Mn10 O20 2.303877 1_545
Mn11 O12 1.976590 1_555
Mn11 O3 1.976697 1_555
Mn11 O5 1.977004 1_555
Mn11 O13 1.979157 1_555
Mn11 O18 2.312524 1_655
Mn11 O9 2.313593 1_555
Mn12 O7 1.973802 1_555
Mn12 O6 1.974845 1_555
Mn12 O21 1.976320 1_555
Mn12 O19 2.001956 1_555
Mn12 O15 2.286789 1_555
Mn12 O11 2.326635 1_555
Mn13 O20 1.975330 1_555
Mn13 O18 1.977354 1_555
Mn13 O8 1.978428 1_555
Mn13 O9 1.979155 1_555
Mn13 O13 2.308819 1_555
Mn13 O3 2.313160 1_455
Mn14 O23 1.969260 1_555
Mn14 O15 1.969945 1_556
Mn14 O14 1.976461 1_556
Mn14 O22 1.978195 1_555
Mn14 O28 2.310588 1_655
Mn14 O21 2.315547 1_556
Mn15 O15 2.070917 1_455
Mn15 O17 2.071525 1_445
Mn15 O10 2.071949 1_555
Mn15 O19 2.115695 1_555
Mn16 O25 2.072577 1_555
Mn16 O13 2.074087 1_555
Mn16 O21 2.075130 1_555
Mn16 O16 2.075399 1_555
Mn17 O14 2.071263 1_555
Mn17 O11 2.073665 1_655
Mn17 O18 2.073769 1_655
Mn17 O6 2.074890 1_555
Mn18 O17 1.973357 1_555
Mn18 O16 1.976624 1_555
Mn18 O27 1.976943 1_554
Mn18 O29 2.004410 1_554
Mn18 O24 2.280851 1_555
Mn18 O30 2.322083 1_654
Mn19 O28 1.973357 1_555
Mn19 O26 1.976624 1_555
Mn19 O21 1.976943 1_556
Mn19 O19 2.004410 1_556
Mn19 O23 2.280851 1_555
Mn19 O14 2.322083 1_456
Mn20 O18 1.977316 1_655
Mn20 O20 1.977681 1_655
Mn20 O17 1.978549 1_555
Mn20 O16 1.980230 1_555
Mn20 O25 2.305330 1_655
Mn20 O12 2.308256 1_555
Mn21 O25 1.976918 1_555
Mn21 O22 1.976918 1_454
Mn21 O14 1.982552 1_455
Mn21 O30 1.982552 1_554
Mn21 O16 2.305811 1_455
Mn21 O26 2.305811 1_554
Mn22 O24 1.969260 1_555
Mn22 O31 1.969945 1_554
Mn22 O30 1.976461 1_554
Mn22 O25 1.978195 1_555
Mn22 O17 2.310588 1_455
Mn22 O27 2.315547 1_554
Fe0 O23 2.005336 1_554
Fe0 O24 2.005336 1_545
Fe0 O15 2.010498 1_555
Fe0 O31 2.010498 1_544
Fe0 O19 2.186537 1_555
Fe0 O29 2.186537 1_544
