# generated using pymatgen
data_MnCr3Te2(PO4)6
_symmetry_space_group_name_H-M   'P 1'
_cell_length_a   8.86137500
_cell_length_b   8.86137500
_cell_length_c   8.86137528
_cell_angle_alpha   58.65464466
_cell_angle_beta   58.65464466
_cell_angle_gamma   58.65464451
_symmetry_Int_Tables_number   1
_chemical_formula_structural   MnCr3Te2(PO4)6
_chemical_formula_sum   'Mn1 Cr3 Te2 P6 O24'
_cell_volume   476.89688745
_cell_formula_units_Z   1
loop_
 _symmetry_equiv_pos_site_id
 _symmetry_equiv_pos_as_xyz
  1  'x, y, z'
loop_
 _atom_site_type_symbol
 _atom_site_label
 _atom_site_symmetry_multiplicity
 _atom_site_fract_x
 _atom_site_fract_y
 _atom_site_fract_z
 _atom_site_occupancy
  Mn  Mn0  1  0.84488800  0.84488800  0.84488800  1
  Cr  Cr0  1  0.14489600  0.14489600  0.14489600  1
  Cr  Cr1  1  0.35298000  0.35298000  0.35298000  1
  Cr  Cr2  1  0.64784900  0.64784900  0.64784900  1
  Te  Te0  1  0.99114800  0.99114800  0.99114800  1
  Te  Te1  1  0.49727500  0.49727500  0.49727500  1
  P  P0  1  0.45243700  0.75041300  0.04514700  1
  P  P1  1  0.75041300  0.04514700  0.45243700  1
  P  P2  1  0.04514700  0.45243700  0.75041300  1
  P  P3  1  0.96263500  0.53787900  0.25532300  1
  P  P4  1  0.25532300  0.96263500  0.53787900  1
  P  P5  1  0.53787900  0.25532300  0.96263500  1
  O  O0  1  0.50563300  0.30878400  0.11556600  1
  O  O1  1  0.11556600  0.50563300  0.30878400  1
  O  O2  1  0.25578100  0.91481600  0.06778600  1
  O  O3  1  0.30878400  0.11556600  0.50563300  1
  O  O4  1  0.42339800  0.58143900  0.23944900  1
  O  O5  1  0.59985600  0.79876400  0.03056200  1
  O  O6  1  0.91481600  0.06778600  0.25578100  1
  O  O7  1  0.58143900  0.23944900  0.42339800  1
  O  O8  1  0.23944900  0.42339800  0.58143900  1
  O  O9  1  0.99377600  0.39087900  0.19282700  1
  O  O10  1  0.94066900  0.74103200  0.08913400  1
  O  O11  1  0.19282700  0.99377600  0.39087900  1
  O  O12  1  0.79876400  0.03056200  0.59985600  1
  O  O13  1  0.06778600  0.25578100  0.91481600  1
  O  O14  1  0.03056200  0.59985600  0.79876400  1
  O  O15  1  0.76770700  0.56339700  0.41962000  1
  O  O16  1  0.41962000  0.76770700  0.56339700  1
  O  O17  1  0.08913400  0.94066900  0.74103200  1
  O  O18  1  0.39087900  0.19282700  0.99377600  1
  O  O19  1  0.56339700  0.41962000  0.76770700  1
  O  O20  1  0.70256700  0.88442500  0.48926200  1
  O  O21  1  0.74103200  0.08913400  0.94066900  1
  O  O22  1  0.88442500  0.48926200  0.70256700  1
  O  O23  1  0.48926200  0.70256700  0.88442500  1
loop_
_geom_bond_atom_site_label_1
_geom_bond_atom_site_label_2
_geom_bond_distance
_geom_bond_site_symmetry_2
Mn0 O14 2.023765 1_655
Mn0 O5 2.023765 1_556
Mn0 O12 2.023765 1_565
Mn0 O17 2.297388 1_655
Mn0 O21 2.297388 1_565
Mn0 O10 2.297388 1_556
Cr0 O18 2.014836 1_554
Cr0 O9 2.014836 1_455
Cr0 O11 2.014836 1_545
Cr0 O6 2.062964 1_455
Cr0 O2 2.062964 1_545
Cr0 O13 2.062964 1_554
Cr1 O1 1.937649 1_555
Cr1 O3 1.937649 1_555
Cr1 O0 1.937649 1_555
Cr1 O4 2.010509 1_555
Cr1 O7 2.010509 1_555
Cr1 O8 2.010509 1_555
Cr2 O20 1.971902 1_555
Cr2 O22 1.971902 1_555
Cr2 O23 1.971902 1_555
Cr2 O19 2.071523 1_555
Cr2 O16 2.071523 1_555
Cr2 O15 2.071524 1_555
O0 P5 1.505592 1_554
O1 P3 1.505592 1_455
O2 P0 1.580659 1_555
O2 Te0 2.438547 1_454
O3 P4 1.505592 1_545
O4 P0 1.590745 1_555
O4 Te1 2.340935 1_555
O5 P0 1.501945 1_555
O6 P1 1.580659 1_555
O6 Te0 2.438547 1_544
O7 P1 1.590745 1_555
O7 Te1 2.340935 1_555
O8 P2 1.590745 1_555
O8 Te1 2.340935 1_555
O9 P3 1.515660 1_555
O10 P3 1.619529 1_555
O10 Te0 2.119318 1_554
O11 P4 1.515660 1_555
O12 P1 1.501945 1_555
O13 P2 1.580659 1_555
O13 Te0 2.438547 1_445
O14 P2 1.501945 1_555
O15 P3 1.572956 1_555
O15 Te1 2.425961 1_555
O16 P4 1.572956 1_555
O16 Te1 2.425961 1_555
O17 P4 1.619529 1_555
O17 Te0 2.119318 1_455
O18 P5 1.515660 1_555
O19 P5 1.572956 1_555
O19 Te1 2.425961 1_555
O20 P1 1.521647 1_565
O21 P5 1.619529 1_555
O21 Te0 2.119318 1_545
O22 P2 1.521647 1_655
O23 P0 1.521647 1_556
