# generated using pymatgen
data_LiY3WO8
_symmetry_space_group_name_H-M   'P 1'
_cell_length_a   5.96919400
_cell_length_b   5.94480400
_cell_length_c   6.18732473
_cell_angle_alpha   63.20063034
_cell_angle_beta   90.00000000
_cell_angle_gamma   90.00000000
_symmetry_Int_Tables_number   1
_chemical_formula_structural   LiY3WO8
_chemical_formula_sum   'Li1 Y3 W1 O8'
_cell_volume   195.97854995
_cell_formula_units_Z   1
loop_
 _symmetry_equiv_pos_site_id
 _symmetry_equiv_pos_as_xyz
  1  'x, y, z'
loop_
 _atom_site_type_symbol
 _atom_site_label
 _atom_site_symmetry_multiplicity
 _atom_site_fract_x
 _atom_site_fract_y
 _atom_site_fract_z
 _atom_site_occupancy
  Li  Li0  1  0.25366000  0.50000000  0.00000000  1
  Y  Y0  1  0.50893600  0.00000000  0.50000000  1
  Y  Y1  1  0.74116200  0.50000000  0.00000000  1
  Y  Y2  1  0.24180600  0.00000000  0.00000000  1
  W  W0  1  0.00786700  0.50000000  0.50000000  1
  O  O0  1  0.77698700  0.30373900  0.43759900  1
  O  O1  1  0.47148200  0.22122500  0.10289000  1
  O  O2  1  0.77698700  0.69626100  0.56240100  1
  O  O3  1  0.22881400  0.76229100  0.43382000  1
  O  O4  1  0.02098400  0.65640600  0.13375700  1
  O  O5  1  0.47148200  0.77877500  0.89711000  1
  O  O6  1  0.22881400  0.23770900  0.56618000  1
  O  O7  1  0.02098400  0.34359400  0.86624300  1
loop_
_geom_bond_atom_site_label_1
_geom_bond_atom_site_label_2
_geom_bond_distance
_geom_bond_site_symmetry_2
Li0 O5 1.972564 1_554
Li0 O1 1.972564 1_555
Li0 O7 2.042633 1_554
Li0 O4 2.042633 1_555
O0 W0 1.953429 1_655
O0 Y0 2.311063 1_555
O0 Y1 2.426793 1_555
O1 Y2 2.183901 1_555
O1 Y1 2.189018 1_555
O1 Y0 2.214233 1_555
O2 W0 1.953429 1_655
O2 Y0 2.311063 1_565
O2 Y1 2.426793 1_556
O3 W0 1.939762 1_555
O3 Y0 2.341438 1_565
O3 Y2 2.405707 1_565
O4 W0 2.026268 1_555
O4 Y1 2.243498 1_455
O4 Y2 2.251723 1_565
O5 Y2 2.183901 1_566
O5 Y1 2.189018 1_556
O5 Y0 2.214233 1_565
O6 W0 1.939762 1_555
O6 Y0 2.341438 1_555
O6 Y2 2.405707 1_556
O7 W0 2.026268 1_555
O7 Y1 2.243498 1_456
O7 Y2 2.251723 1_556
