# generated using pymatgen
data_DyGaO3
_symmetry_space_group_name_H-M   'P 1'
_cell_length_a   6.12098791
_cell_length_b   6.12098791
_cell_length_c   11.72040000
_cell_angle_alpha   90.00000000
_cell_angle_beta   90.00000000
_cell_angle_gamma   119.99999902
_symmetry_Int_Tables_number   1
_chemical_formula_structural   DyGaO3
_chemical_formula_sum   'Dy6 Ga6 O18'
_cell_volume   380.29105744
_cell_formula_units_Z   6
loop_
 _symmetry_equiv_pos_site_id
 _symmetry_equiv_pos_as_xyz
  1  'x, y, z'
loop_
 _atom_site_type_symbol
 _atom_site_label
 _atom_site_symmetry_multiplicity
 _atom_site_fract_x
 _atom_site_fract_y
 _atom_site_fract_z
 _atom_site_occupancy
  Dy  Dy0  1  0.33333300  0.66666700  0.22951000  1
  Dy  Dy1  1  0.00000000  0.00000000  0.27130700  1
  Dy  Dy2  1  0.00000000  0.00000000  0.77130700  1
  Dy  Dy3  1  0.33333300  0.66666700  0.72951000  1
  Dy  Dy4  1  0.66666700  0.33333300  0.72951000  1
  Dy  Dy5  1  0.66666700  0.33333300  0.22951000  1
  Ga  Ga0  1  0.00000000  0.66574700  0.49672400  1
  Ga  Ga1  1  0.00000000  0.33425300  0.99672400  1
  Ga  Ga2  1  0.33425300  0.33425300  0.49672400  1
  Ga  Ga3  1  0.66574700  0.66574700  0.99672400  1
  Ga  Ga4  1  0.33425300  0.00000000  0.99672400  1
  Ga  Ga5  1  0.66574700  0.00000000  0.49672400  1
  O  O0  1  0.00000000  0.69319200  0.65942600  1
  O  O1  1  0.00000000  0.64069000  0.33522300  1
  O  O2  1  0.00000000  0.35931000  0.83522300  1
  O  O3  1  0.00000000  0.30680800  0.15942600  1
  O  O4  1  0.33333300  0.66666700  0.01654600  1
  O  O5  1  0.33333300  0.66666700  0.51654600  1
  O  O6  1  0.00000000  0.00000000  0.47376900  1
  O  O7  1  0.00000000  0.00000000  0.97376900  1
  O  O8  1  0.30680800  0.30680800  0.65942600  1
  O  O9  1  0.35931000  0.35931000  0.33522300  1
  O  O10  1  0.30680800  0.00000000  0.15942600  1
  O  O11  1  0.64069000  0.64069000  0.83522300  1
  O  O12  1  0.69319200  0.69319200  0.15942600  1
  O  O13  1  0.35931000  0.00000000  0.83522300  1
  O  O14  1  0.66666700  0.33333300  0.51654600  1
  O  O15  1  0.66666700  0.33333300  0.01654600  1
  O  O16  1  0.64069000  0.00000000  0.33522300  1
  O  O17  1  0.69319200  0.00000000  0.65942600  1
loop_
_geom_bond_atom_site_label_1
_geom_bond_atom_site_label_2
_geom_bond_distance
_geom_bond_site_symmetry_2
Dy0 O10 2.279316 1_565
Dy0 O3 2.279319 1_555
Dy0 O12 2.279321 1_555
Dy0 O1 2.323556 1_555
Dy0 O16 2.323559 1_565
Dy0 O9 2.323561 1_555
Dy0 O4 2.496023 1_555
Dy1 O10 2.290468 1_555
Dy1 O3 2.290468 1_555
Dy1 O12 2.290468 1_445
Dy1 O16 2.323412 1_455
Dy1 O1 2.323412 1_545
Dy1 O9 2.323412 1_555
Dy1 O6 2.372936 1_555
Dy2 O0 2.290468 1_545
Dy2 O17 2.290468 1_455
Dy2 O8 2.290468 1_555
Dy2 O13 2.323412 1_555
Dy2 O2 2.323412 1_555
Dy2 O11 2.323412 1_445
Dy2 O7 2.372936 1_555
Dy3 O0 2.279316 1_555
Dy3 O17 2.279319 1_565
Dy3 O8 2.279321 1_555
Dy3 O13 2.323556 1_565
Dy3 O2 2.323559 1_555
Dy3 O11 2.323561 1_555
Dy3 O5 2.496023 1_555
Dy4 O17 2.279316 1_555
Dy4 O0 2.279319 1_655
Dy4 O8 2.279321 1_555
Dy4 O2 2.323556 1_655
Dy4 O13 2.323559 1_555
Dy4 O11 2.323561 1_555
Dy4 O14 2.496023 1_555
Dy5 O3 2.279316 1_655
Dy5 O10 2.279319 1_555
Dy5 O12 2.279321 1_555
Dy5 O16 2.323556 1_555
Dy5 O1 2.323559 1_655
Dy5 O9 2.323561 1_555
Dy5 O15 2.496023 1_555
Ga0 O1 1.899060 1_555
Ga0 O0 1.914318 1_555
Ga0 O5 2.050720 1_555
Ga0 O14 2.050723 1_455
Ga0 O6 2.063572 1_565
Ga1 O2 1.899060 1_555
Ga1 O3 1.914318 1_556
Ga1 O15 2.050720 1_456
Ga1 O4 2.050723 1_556
Ga1 O7 2.063572 1_555
Ga2 O9 1.899060 1_555
Ga2 O8 1.914318 1_555
Ga2 O5 2.050726 1_555
Ga2 O14 2.050726 1_555
Ga2 O6 2.063572 1_555
Ga3 O11 1.899060 1_555
Ga3 O12 1.914318 1_556
Ga3 O15 2.050726 1_556
Ga3 O4 2.050726 1_556
Ga3 O7 2.063572 1_665
Ga4 O13 1.899060 1_555
Ga4 O10 1.914318 1_556
Ga4 O4 2.050720 1_546
Ga4 O15 2.050723 1_556
Ga4 O7 2.063572 1_555
Ga5 O16 1.899060 1_555
Ga5 O17 1.914318 1_555
Ga5 O14 2.050720 1_555
Ga5 O5 2.050723 1_545
Ga5 O6 2.063572 1_655
