# generated using pymatgen
data_Li2CuNiO4
_symmetry_space_group_name_H-M   'P 1'
_cell_length_a   2.93410500
_cell_length_b   4.99299100
_cell_length_c   5.03192066
_cell_angle_alpha   71.40219778
_cell_angle_beta   90.00000000
_cell_angle_gamma   90.00000000
_symmetry_Int_Tables_number   1
_chemical_formula_structural   Li2CuNiO4
_chemical_formula_sum   'Li2 Cu1 Ni1 O4'
_cell_volume   69.86795861
_cell_formula_units_Z   1
loop_
 _symmetry_equiv_pos_site_id
 _symmetry_equiv_pos_as_xyz
  1  'x, y, z'
loop_
 _atom_site_type_symbol
 _atom_site_label
 _atom_site_symmetry_multiplicity
 _atom_site_fract_x
 _atom_site_fract_y
 _atom_site_fract_z
 _atom_site_occupancy
  Li  Li0  1  0.00000000  0.00000000  0.00000000  1
  Li  Li1  1  0.50000000  0.50000000  0.00000000  1
  Cu  Cu0  1  0.00000000  0.50000000  0.50000000  1
  Ni  Ni0  1  0.50000000  0.00000000  0.50000000  1
  O  O0  1  0.00000000  0.75532200  0.73768500  1
  O  O1  1  0.50000000  0.24530700  0.71583700  1
  O  O2  1  0.00000000  0.24467800  0.26231500  1
  O  O3  1  0.50000000  0.75469300  0.28416300  1
loop_
_geom_bond_atom_site_label_1
_geom_bond_atom_site_label_2
_geom_bond_distance
_geom_bond_site_symmetry_2
Li0 O0 2.064779 1_544
Li0 O2 2.064779 1_555
Li0 O1 2.140070 1_454
Li0 O3 2.140070 1_445
Li0 O1 2.140070 1_554
Li0 O3 2.140070 1_545
Li1 O0 2.108642 1_554
Li1 O0 2.108642 1_654
Li1 O2 2.108642 1_655
Li1 O2 2.108642 1_555
Li1 O3 2.195808 1_555
Li1 O1 2.195808 1_554
Cu0 O2 2.007022 1_555
Cu0 O0 2.007022 1_555
Cu0 O1 2.016933 1_455
Cu0 O1 2.016933 1_555
Cu0 O3 2.016933 1_455
Cu0 O3 2.016933 1_555
Ni0 O1 1.878356 1_555
Ni0 O3 1.878356 1_545
Ni0 O0 2.035484 1_645
Ni0 O2 2.035484 1_555
Ni0 O0 2.035484 1_545
Ni0 O2 2.035484 1_655
