# generated using pymatgen
data_Sm3NbO7
_symmetry_space_group_name_H-M   'P 1'
_cell_length_a   6.56333992
_cell_length_b   6.56333992
_cell_length_c   7.61751472
_cell_angle_alpha   90.00000000
_cell_angle_beta   90.00000000
_cell_angle_gamma   111.17764616
_symmetry_Int_Tables_number   1
_chemical_formula_structural   Sm3NbO7
_chemical_formula_sum   'Sm6 Nb2 O14'
_cell_volume   305.98176899
_cell_formula_units_Z   2
loop_
 _symmetry_equiv_pos_site_id
 _symmetry_equiv_pos_as_xyz
  1  'x, y, z'
loop_
 _atom_site_type_symbol
 _atom_site_label
 _atom_site_symmetry_multiplicity
 _atom_site_fract_x
 _atom_site_fract_y
 _atom_site_fract_z
 _atom_site_occupancy
  Sm  Sm0  1  0.52192234  0.06891645  0.25000000  1
  Sm  Sm1  1  0.93108355  0.47807766  0.75000000  1
  Sm  Sm2  1  -0.00000000  -0.00000000  0.00000000  1
  Sm  Sm3  1  -0.00000000  -0.00000000  0.50000000  1
  Sm  Sm4  1  0.47807766  0.93108355  0.75000000  1
  Sm  Sm5  1  0.06891645  0.52192234  0.25000000  1
  Nb  Nb0  1  0.50000000  0.50000000  0.00000000  1
  Nb  Nb1  1  0.50000000  0.50000000  0.50000000  1
  O  O0  1  0.89249623  0.15522199  0.25000000  1
  O  O1  1  0.84477801  0.10750377  0.75000000  1
  O  O2  1  0.43765513  0.18120170  0.53726650  1
  O  O3  1  0.81879830  0.56234487  0.03726650  1
  O  O4  1  0.81879830  0.56234487  0.46273350  1
  O  O5  1  0.43765513  0.18120170  0.96273350  1
  O  O6  1  0.57933445  0.57933445  0.75000000  1
  O  O7  1  0.42066555  0.42066555  0.25000000  1
  O  O8  1  0.18120170  0.43765513  0.53726650  1
  O  O9  1  0.18120170  0.43765513  0.96273350  1
  O  O10  1  0.56234487  0.81879830  0.03726650  1
  O  O11  1  0.56234487  0.81879830  0.46273350  1
  O  O12  1  0.15522199  0.89249623  0.25000000  1
  O  O13  1  0.10750377  0.84477801  0.75000000  1
loop_
_geom_bond_atom_site_label_1
_geom_bond_atom_site_label_2
_geom_bond_distance
_geom_bond_site_symmetry_2
Nb0 O7 1.993243 1_555
Nb0 O6 1.993243 1_554
Nb0 O3 2.001868 1_555
Nb0 O10 2.001868 1_555
Nb0 O9 2.001868 1_554
Nb0 O5 2.001868 1_554
Nb1 O7 1.993243 1_555
Nb1 O6 1.993243 1_555
Nb1 O8 2.001868 1_555
Nb1 O2 2.001868 1_555
Nb1 O4 2.001868 1_555
Nb1 O11 2.001868 1_555
O0 Sm5 2.262696 1_655
O0 Sm0 2.289332 1_555
O0 Sm2 2.383648 1_655
O0 Sm3 2.383648 1_655
O1 Sm4 2.262696 1_545
O1 Sm1 2.289332 1_555
O1 Sm3 2.383648 1_655
O1 Sm2 2.383648 1_656
O2 Sm4 2.388718 1_545
O2 Sm0 2.435565 1_555
O2 Sm3 2.697749 1_555
O3 Sm5 2.388718 1_655
O3 Sm1 2.435565 1_554
O3 Sm2 2.697749 1_665
O4 Sm5 2.388718 1_655
O4 Sm1 2.435565 1_555
O4 Sm3 2.697749 1_665
O5 Sm4 2.388718 1_545
O5 Sm0 2.435565 1_556
O5 Sm2 2.697749 1_556
O6 Sm4 2.622992 1_555
O6 Sm1 2.622992 1_555
O7 Sm5 2.622992 1_555
O7 Sm0 2.622992 1_555
O8 Sm1 2.388718 1_455
O8 Sm5 2.435565 1_555
O8 Sm3 2.697749 1_555
O9 Sm1 2.388718 1_455
O9 Sm5 2.435565 1_556
O9 Sm2 2.697749 1_556
O10 Sm0 2.388718 1_565
O10 Sm4 2.435565 1_554
O10 Sm2 2.697749 1_665
O11 Sm0 2.388718 1_565
O11 Sm4 2.435565 1_555
O11 Sm3 2.697749 1_665
O12 Sm0 2.262696 1_565
O12 Sm5 2.289332 1_555
O12 Sm2 2.383648 1_565
O12 Sm3 2.383648 1_565
O13 Sm1 2.262696 1_455
O13 Sm4 2.289332 1_555
O13 Sm2 2.383648 1_566
O13 Sm3 2.383648 1_565
