# generated using pymatgen
data_Li6MnV3(PO4)6
_symmetry_space_group_name_H-M   'P 1'
_cell_length_a   9.89201050
_cell_length_b   9.86197566
_cell_length_c   9.86197490
_cell_angle_alpha   87.57421979
_cell_angle_beta   86.96287895
_cell_angle_gamma   86.96287896
_symmetry_Int_Tables_number   1
_chemical_formula_structural   Li6MnV3(PO4)6
_chemical_formula_sum   'Li12 Mn2 V6 P12 O48'
_cell_volume   958.62827137
_cell_formula_units_Z   2
loop_
 _symmetry_equiv_pos_site_id
 _symmetry_equiv_pos_as_xyz
  1  'x, y, z'
loop_
 _atom_site_type_symbol
 _atom_site_label
 _atom_site_symmetry_multiplicity
 _atom_site_fract_x
 _atom_site_fract_y
 _atom_site_fract_z
 _atom_site_occupancy
  Li  Li0  1  0.00518400  0.04915700  0.97904800  1
  Li  Li1  1  0.06139600  0.73594700  0.14404600  1
  Li  Li2  1  0.13729300  0.07172800  0.72856100  1
  Li  Li3  1  0.23143600  0.55968000  0.64542800  1
  Li  Li4  1  0.26856400  0.85457200  0.94032000  1
  Li  Li5  1  0.36270700  0.77143900  0.42827200  1
  Li  Li6  1  0.43860400  0.35595400  0.76405300  1
  Li  Li7  1  0.49481600  0.52095200  0.45084300  1
  Li  Li8  1  0.64148400  0.23277900  0.55847900  1
  Li  Li9  1  0.76782300  0.46242400  0.35783400  1
  Li  Li10  1  0.73217700  0.14216600  0.03757600  1
  Li  Li11  1  0.85851600  0.94152100  0.26722100  1
  Mn  Mn0  1  0.52750000  0.96838200  0.74356900  1
  Mn  Mn1  1  0.97250000  0.75643100  0.53161800  1
  V  V0  1  0.03322900  0.25407800  0.47108600  1
  V  V1  1  0.25000000  0.24991900  0.25008100  1
  V  V2  1  0.25000000  0.46387400  0.03612600  1
  V  V3  1  0.46677100  0.02891400  0.24592200  1
  V  V4  1  0.75000000  0.53200300  0.96799700  1
  V  V5  1  0.75000000  0.75144900  0.74855100  1
  P  P0  1  0.05092800  0.66866300  0.85939900  1
  P  P1  1  0.14871900  0.95393300  0.33206600  1
  P  P2  1  0.17249800  0.55020400  0.35310500  1
  P  P3  1  0.32750200  0.14689500  0.94979600  1
  P  P4  1  0.35128100  0.16793400  0.54606700  1
  P  P5  1  0.44907200  0.64060100  0.83133700  1
  P  P6  1  0.55018500  0.34694800  0.17657200  1
  P  P7  1  0.64287000  0.82194400  0.44948300  1
  P  P8  1  0.67217600  0.84784000  0.04674800  1
  P  P9  1  0.82782400  0.45325200  0.65216000  1
  P  P10  1  0.85713000  0.05051700  0.67805600  1
  P  P11  1  0.94981500  0.32342800  0.15305200  1
  O  O0  1  0.03286700  0.61484000  0.39756000  1
  O  O1  1  0.05615500  0.90631100  0.22610900  1
  O  O2  1  0.10943400  0.32936200  0.12336100  1
  O  O3  1  0.12246600  0.11455700  0.33170100  1
  O  O4  1  0.09073100  0.69035200  0.70694300  1
  O  O5  1  0.11738200  0.89133600  0.47535500  1
  O  O6  1  0.09206800  0.78138400  0.94950900  1
  O  O7  1  0.11525200  0.52988500  0.90678300  1
  O  O8  1  0.17026200  0.38959100  0.37862300  1
  O  O9  1  0.19309800  0.58554600  0.19820600  1
  O  O10  1  0.19766800  0.20301900  0.58294600  1
  O  O11  1  0.21345400  0.06024900  0.90643400  1
  O  O12  1  0.32973800  0.12137700  0.11040900  1
  O  O13  1  0.28654600  0.59356600  0.43975100  1
  O  O14  1  0.30233200  0.91705400  0.29698100  1
  O  O15  1  0.30690200  0.30179400  0.91445400  1
  O  O16  1  0.37753400  0.16829900  0.38544300  1
  O  O17  1  0.39056600  0.37663900  0.17063800  1
  O  O18  1  0.38261800  0.02464500  0.60866400  1
  O  O19  1  0.38474800  0.59321700  0.97011500  1
  O  O20  1  0.40793200  0.55049100  0.71861600  1
  O  O21  1  0.44384500  0.27389100  0.59368900  1
  O  O22  1  0.40926900  0.79305700  0.80964800  1
  O  O23  1  0.46713300  0.10244000  0.88516000  1
  O  O24  1  0.53219300  0.88736300  0.11082900  1
  O  O25  1  0.58187000  0.18918500  0.17422500  1
  O  O26  1  0.59512800  0.41037000  0.30310200  1
  O  O27  1  0.55760800  0.70579500  0.41403300  1
  O  O28  1  0.61760900  0.40578500  0.04247100  1
  O  O29  1  0.58561100  0.96007200  0.38630200  1
  O  O30  1  0.61053200  0.62168300  0.83667500  1
  O  O31  1  0.62308700  0.83255100  0.61040800  1
  O  O32  1  0.70460600  0.09248900  0.69100600  1
  O  O33  1  0.70268200  0.68846400  0.07223200  1
  O  O34  1  0.71728200  0.40336600  0.56608000  1
  O  O35  1  0.67160900  0.87677800  0.88823700  1
  O  O36  1  0.78271800  0.93392000  0.09663400  1
  O  O37  1  0.79731800  0.42776800  0.81153600  1
  O  O38  1  0.79539400  0.80899400  0.40751100  1
  O  O39  1  0.82839100  0.61176300  0.62322200  1
  O  O40  1  0.88239100  0.45752900  0.09421500  1
  O  O41  1  0.90487200  0.19689800  0.08963000  1
  O  O42  1  0.91438900  0.11369800  0.53992800  1
  O  O43  1  0.91813000  0.32577500  0.31081500  1
  O  O44  1  0.87691300  0.88959200  0.66744900  1
  O  O45  1  0.94239200  0.08596700  0.79420500  1
  O  O46  1  0.88946800  0.66332500  0.87831700  1
  O  O47  1  0.96780700  0.38917100  0.61263700  1
loop_
_geom_bond_atom_site_label_1
_geom_bond_atom_site_label_2
_geom_bond_distance
_geom_bond_site_symmetry_2
Li0 O45 1.969948 1_455
Li0 O41 2.040461 1_456
Li0 O11 2.151782 1_555
Li1 O1 1.892593 1_555
Li1 O6 1.963037 1_554
Li1 O9 1.996124 1_555
Li2 O11 1.942098 1_555
Li2 O10 1.982188 1_555
Li2 O45 2.000652 1_455
Li3 O20 1.920566 1_555
Li3 O4 1.937173 1_555
Li3 O13 2.089963 1_555
Li4 O6 1.920566 1_555
Li4 O22 1.937173 1_555
Li4 O11 2.089964 1_565
Li5 O13 1.942098 1_555
Li5 O14 1.982188 1_555
Li5 O27 2.000652 1_555
Li6 O21 1.892593 1_555
Li6 O20 1.963038 1_555
Li6 O15 1.996124 1_555
Li7 O27 1.969948 1_555
Li7 O26 2.040461 1_555
Li7 O13 2.151782 1_555
Li8 O34 1.883700 1_555
Li8 O32 1.963189 1_555
Li8 O21 1.990768 1_555
Li9 O26 1.920225 1_555
Li9 O43 2.002330 1_555
Li9 O34 2.151216 1_555
Li10 O41 1.920225 1_555
Li10 O25 2.002330 1_555
Li10 O36 2.151216 1_545
Li11 O36 1.883699 1_555
Li11 O38 1.963189 1_555
Li11 O1 1.990768 1_655
Mn0 O23 2.009620 1_565
Mn0 O18 2.046265 1_565
Mn0 O31 2.072722 1_555
Mn0 O22 2.195509 1_555
Mn0 O35 2.203113 1_555
Mn0 O32 2.216595 1_565
Mn1 O0 2.009620 1_655
Mn1 O5 2.046265 1_655
Mn1 O44 2.072722 1_555
Mn1 O4 2.195509 1_655
Mn1 O39 2.203113 1_555
Mn1 O38 2.216595 1_555
O0 P2 1.540301 1_555
O1 P1 1.529504 1_555
O2 P11 1.594241 1_455
O2 V1 2.023572 1_555
O2 V2 2.098906 1_555
O3 P1 1.591464 1_545
O3 V1 2.000355 1_555
O3 V0 2.113017 1_555
O4 P0 1.542826 1_555
O5 P1 1.540808 1_555
O6 P0 1.536551 1_555
O7 P0 1.543199 1_555
O7 V2 1.961000 1_556
O8 P2 1.594407 1_555
O8 V1 2.013265 1_555
O8 V0 2.100673 1_555
O9 P2 1.557584 1_555
O9 V2 2.075350 1_555
O10 P4 1.567603 1_555
O10 V0 2.042739 1_555
O11 P3 1.539482 1_555
O12 P3 1.594407 1_554
O12 V1 2.013265 1_555
O12 V3 2.100673 1_555
O13 P2 1.539482 1_555
O14 P1 1.567603 1_555
O14 V3 2.042739 1_565
O15 P3 1.557584 1_555
O15 V2 2.075350 1_556
O16 P4 1.591464 1_555
O16 V1 2.000355 1_555
O16 V3 2.113017 1_555
O17 P6 1.594241 1_555
O17 V1 2.023572 1_555
O17 V2 2.098906 1_555
O18 P4 1.540808 1_555
O19 P5 1.543199 1_555
O19 V2 1.961000 1_556
O20 P5 1.536551 1_555
O21 P4 1.529504 1_555
O22 P5 1.542826 1_555
O23 P3 1.540301 1_555
O24 P8 1.529596 1_555
O24 V3 2.028021 1_565
O25 P6 1.571643 1_555
O25 V3 2.074926 1_555
O26 P6 1.516664 1_555
O27 P7 1.520909 1_555
O28 P6 1.553420 1_555
O28 V4 1.948684 1_554
O29 P7 1.564760 1_555
O29 V3 1.941092 1_565
O30 P5 1.601566 1_555
O30 V5 2.064531 1_555
O30 V4 2.079879 1_555
O31 P7 1.595902 1_555
O31 V5 2.013564 1_555
O32 P10 1.543343 1_555
O33 P8 1.596559 1_555
O33 V4 1.914012 1_554
O34 P9 1.532688 1_555
O35 P8 1.577392 1_556
O35 V5 1.988992 1_555
O36 P8 1.532688 1_555
O37 P9 1.596559 1_555
O37 V4 1.914012 1_555
O38 P7 1.543343 1_555
O39 P9 1.577392 1_555
O39 V5 1.988992 1_555
O40 P11 1.553420 1_555
O40 V4 1.948684 1_554
O41 P11 1.516664 1_555
O42 P10 1.564760 1_555
O42 V0 1.941092 1_655
O43 P11 1.571643 1_555
O43 V0 2.074926 1_655
O44 P10 1.595902 1_565
O44 V5 2.013564 1_555
O45 P10 1.520909 1_555
O46 P0 1.601566 1_655
O46 V5 2.064531 1_555
O46 V4 2.079879 1_555
O47 P9 1.529596 1_555
O47 V0 2.028021 1_655
