# generated using pymatgen
data_TiVO4
_symmetry_space_group_name_H-M   'P 1'
_cell_length_a   5.47927914
_cell_length_b   5.47927386
_cell_length_c   8.83086094
_cell_angle_alpha   86.27780615
_cell_angle_beta   86.27778583
_cell_angle_gamma   72.63693276
_symmetry_Int_Tables_number   1
_chemical_formula_structural   TiVO4
_chemical_formula_sum   'Ti4 V4 O16'
_cell_volume   252.22064505
_cell_formula_units_Z   4
loop_
 _symmetry_equiv_pos_site_id
 _symmetry_equiv_pos_as_xyz
  1  'x, y, z'
loop_
 _atom_site_type_symbol
 _atom_site_label
 _atom_site_symmetry_multiplicity
 _atom_site_fract_x
 _atom_site_fract_y
 _atom_site_fract_z
 _atom_site_occupancy
  Ti  Ti0  1  0.87315200  0.87315200  0.62691600  1
  Ti  Ti1  1  0.37318300  0.37318300  0.12700500  1
  Ti  Ti2  1  0.74827300  0.74827100  0.25228100  1
  Ti  Ti3  1  0.24840600  0.24840700  0.75199700  1
  V  V0  1  0.62551400  0.62551500  0.87481300  1
  V  V1  1  0.00020800  0.00020800  0.99930900  1
  V  V2  1  0.12533300  0.12533200  0.37464600  1
  V  V3  1  0.50011200  0.50011100  0.49958200  1
  O  O0  1  0.27268300  0.27268400  0.52412600  1
  O  O1  1  0.77275500  0.77275400  0.02415900  1
  O  O2  1  0.20244300  0.79624500  0.50062400  1
  O  O3  1  0.70236600  0.29624400  0.00069300  1
  O  O4  1  0.79624500  0.20244200  0.50062500  1
  O  O5  1  0.29624400  0.70236600  0.00069100  1
  O  O6  1  0.97555800  0.97556000  0.22742200  1
  O  O7  1  0.47552700  0.47552600  0.72748800  1
  O  O8  1  0.02865800  0.02865600  0.77572600  1
  O  O9  1  0.52872500  0.52872700  0.27566800  1
  O  O10  1  0.94702900  0.55603600  0.74848400  1
  O  O11  1  0.44706700  0.05600500  0.24837800  1
  O  O12  1  0.05600300  0.44706800  0.24837800  1
  O  O13  1  0.55603600  0.94702800  0.74848400  1
  O  O14  1  0.72427100  0.72427100  0.47121900  1
  O  O15  1  0.22420700  0.22420600  0.97128900  1
loop_
_geom_bond_atom_site_label_1
_geom_bond_atom_site_label_2
_geom_bond_distance
_geom_bond_site_symmetry_2
O0 V2 1.926663 1_555
O0 V3 2.002350 1_555
O0 Ti3 2.006435 1_555
O1 V0 1.925072 1_554
O1 V1 2.002650 1_664
O1 Ti2 2.008687 1_555
O2 V3 1.927057 1_555
O2 V2 2.003347 1_565
O2 Ti0 2.005684 1_455
O3 V1 1.927320 1_654
O3 V0 2.003744 1_554
O3 Ti1 2.005297 1_555
O4 V3 1.927054 1_555
O4 V2 2.003357 1_655
O4 Ti0 2.005674 1_545
O5 V1 1.927320 1_564
O5 V0 2.003732 1_554
O5 Ti1 2.005305 1_555
O6 V2 1.927758 1_665
O6 Ti2 2.001191 1_555
O6 V1 2.008647 1_664
O7 V0 1.929811 1_555
O7 Ti3 1.999638 1_555
O7 V3 2.006815 1_555
O8 Ti3 1.934749 1_555
O8 V1 1.970166 1_555
O8 Ti0 1.975596 1_445
O9 Ti2 1.932882 1_555
O9 V3 1.973134 1_555
O9 Ti1 1.974911 1_555
O10 Ti0 1.931303 1_555
O10 V0 1.972979 1_555
O10 Ti3 1.976764 1_655
O11 Ti1 1.930695 1_555
O11 V2 1.973689 1_555
O11 Ti2 1.976619 1_545
O12 Ti1 1.930705 1_555
O12 V2 1.973696 1_555
O12 Ti2 1.976596 1_455
O13 Ti0 1.931304 1_555
O13 V0 1.972970 1_555
O13 Ti3 1.976774 1_565
O14 Ti2 1.927943 1_555
O14 V3 1.974928 1_555
O14 Ti0 1.977328 1_555
O15 Ti3 1.931102 1_555
O15 V1 1.973380 1_555
O15 Ti1 1.978062 1_556
