# generated using pymatgen
data_Li2MnF5
_symmetry_space_group_name_H-M   'P 1'
_cell_length_a   6.06771200
_cell_length_b   7.44089400
_cell_length_c   8.51720700
_cell_angle_alpha   90.00000000
_cell_angle_beta   90.00000000
_cell_angle_gamma   90.00000000
_symmetry_Int_Tables_number   1
_chemical_formula_structural   Li2MnF5
_chemical_formula_sum   'Li8 Mn4 F20'
_cell_volume   384.54509774
_cell_formula_units_Z   4
loop_
 _symmetry_equiv_pos_site_id
 _symmetry_equiv_pos_as_xyz
  1  'x, y, z'
loop_
 _atom_site_type_symbol
 _atom_site_label
 _atom_site_symmetry_multiplicity
 _atom_site_fract_x
 _atom_site_fract_y
 _atom_site_fract_z
 _atom_site_occupancy
  Li  Li0  1  0.24392100  0.07767300  0.36875800  1
  Li  Li1  1  0.75602600  0.07964200  0.36302200  1
  Li  Li2  1  0.75602600  0.42035800  0.86302200  1
  Li  Li3  1  0.24392100  0.42232700  0.86875800  1
  Li  Li4  1  0.74392100  0.57767300  0.13124200  1
  Li  Li5  1  0.25602600  0.57964200  0.13697800  1
  Li  Li6  1  0.25602600  0.92035800  0.63697800  1
  Li  Li7  1  0.74392100  0.92232700  0.63124200  1
  Mn  Mn0  1  0.00755600  0.98251400  0.00447700  1
  Mn  Mn1  1  0.00755600  0.51748600  0.50447700  1
  Mn  Mn2  1  0.50755600  0.48251400  0.49552300  1
  Mn  Mn3  1  0.50755600  0.01748600  0.99552300  1
  F  F0  1  0.00077500  0.99633600  0.50869300  1
  F  F1  1  0.50556500  0.91318500  0.79776400  1
  F  F2  1  0.27245800  0.84087700  0.07440800  1
  F  F3  1  0.74217500  0.83959600  0.07183800  1
  F  F4  1  0.01031400  0.87413500  0.81044000  1
  F  F5  1  0.01031400  0.62586500  0.31044000  1
  F  F6  1  0.74217500  0.66040400  0.57183800  1
  F  F7  1  0.27245800  0.65912300  0.57440800  1
  F  F8  1  0.50556500  0.58681500  0.29776400  1
  F  F9  1  0.00077500  0.50366400  0.00869300  1
  F  F10  1  0.50077500  0.49633600  0.99130700  1
  F  F11  1  0.00556500  0.41318500  0.70223600  1
  F  F12  1  0.77245800  0.34087700  0.42559200  1
  F  F13  1  0.24217500  0.33959600  0.42816200  1
  F  F14  1  0.51031400  0.37413500  0.68956000  1
  F  F15  1  0.51031400  0.12586500  0.18956000  1
  F  F16  1  0.24217500  0.16040400  0.92816200  1
  F  F17  1  0.77245800  0.15912300  0.92559200  1
  F  F18  1  0.00556500  0.08681500  0.20223600  1
  F  F19  1  0.50077500  0.00366400  0.49130700  1
loop_
_geom_bond_atom_site_label_1
_geom_bond_atom_site_label_2
_geom_bond_distance
_geom_bond_site_symmetry_2
F0 Li7 1.954917 1_455
F0 Li6 1.977929 1_555
F0 Li0 1.990839 1_565
F0 Li1 2.032000 1_465
F1 Mn3 1.854593 1_565
F1 Li7 2.026801 1_555
F1 Li6 2.042260 1_555
F2 Mn0 2.012225 1_555
F2 Li5 2.018016 1_555
F2 Mn3 2.052627 1_564
F3 Mn0 2.013203 1_655
F3 Li4 2.013573 1_555
F3 Mn3 2.049684 1_564
F4 Mn0 1.838990 1_556
F4 Li6 2.126935 1_555
F4 Li7 2.251847 1_455
F5 Mn1 1.838990 1_555
F5 Li5 2.126935 1_555
F5 Li4 2.251847 1_455
F6 Mn1 2.013203 1_655
F6 Li7 2.013573 1_555
F6 Mn2 2.049684 1_555
F7 Mn1 2.012225 1_555
F7 Li6 2.018016 1_555
F7 Mn2 2.052627 1_555
F8 Mn2 1.854593 1_555
F8 Li4 2.026801 1_555
F8 Li5 2.042260 1_555
F9 Li4 1.954917 1_455
F9 Li5 1.977929 1_555
F9 Li3 1.990839 1_554
F9 Li2 2.032000 1_454
F10 Li3 1.954917 1_555
F10 Li2 1.977929 1_555
F10 Li4 1.990839 1_556
F10 Li5 2.032000 1_556
F11 Mn1 1.854593 1_555
F11 Li3 2.026801 1_555
F11 Li2 2.042260 1_455
F12 Mn2 2.012225 1_555
F12 Li1 2.018016 1_555
F12 Mn1 2.052627 1_655
F13 Mn2 2.013203 1_555
F13 Li0 2.013573 1_555
F13 Mn1 2.049684 1_555
F14 Mn2 1.838990 1_555
F14 Li2 2.126935 1_555
F14 Li3 2.251847 1_555
F15 Mn3 1.838990 1_554
F15 Li1 2.126935 1_555
F15 Li0 2.251847 1_555
F16 Mn3 2.013203 1_555
F16 Li3 2.013573 1_555
F16 Mn0 2.049684 1_546
F17 Mn3 2.012225 1_555
F17 Li2 2.018016 1_555
F17 Mn0 2.052627 1_646
F18 Mn0 1.854593 1_545
F18 Li0 2.026801 1_555
F18 Li1 2.042260 1_455
F19 Li0 1.954917 1_555
F19 Li1 1.977929 1_555
F19 Li7 1.990839 1_545
F19 Li6 2.032000 1_545
