# generated using pymatgen
data_Li3Fe(Ni2O5)2
_symmetry_space_group_name_H-M   'P 1'
_cell_length_a   2.86157800
_cell_length_b   5.04770100
_cell_length_c   24.26773246
_cell_angle_alpha   86.21119977
_cell_angle_beta   90.00000000
_cell_angle_gamma   90.00000000
_symmetry_Int_Tables_number   1
_chemical_formula_structural   Li3Fe(Ni2O5)2
_chemical_formula_sum   'Li6 Fe2 Ni8 O20'
_cell_volume   349.76647262
_cell_formula_units_Z   2
loop_
 _symmetry_equiv_pos_site_id
 _symmetry_equiv_pos_as_xyz
  1  'x, y, z'
loop_
 _atom_site_type_symbol
 _atom_site_label
 _atom_site_symmetry_multiplicity
 _atom_site_fract_x
 _atom_site_fract_y
 _atom_site_fract_z
 _atom_site_occupancy
  Li  Li0  1  0.50000000  0.70286900  0.39844900  1
  Li  Li1  1  0.50000000  0.90002000  0.80098600  1
  Li  Li2  1  0.50000000  0.09998000  0.19901400  1
  Li  Li3  1  0.50000000  0.50000000  0.00000000  1
  Li  Li4  1  0.50000000  0.29713100  0.60155100  1
  Li  Li5  1  0.00000000  0.00000000  0.00000000  1
  Fe  Fe0  1  0.50000000  0.00000000  0.50000000  1
  Fe  Fe1  1  0.00000000  0.50000000  0.50000000  1
  Ni  Ni0  1  0.50000000  0.20389300  0.89841900  1
  Ni  Ni1  1  0.50000000  0.40039600  0.29922300  1
  Ni  Ni2  1  0.50000000  0.59960400  0.70077700  1
  Ni  Ni3  1  0.50000000  0.79610700  0.10158100  1
  Ni  Ni4  1  0.00000000  0.90048500  0.29899500  1
  Ni  Ni5  1  0.00000000  0.09951500  0.70100500  1
  Ni  Ni6  1  0.00000000  0.29839100  0.09750800  1
  Ni  Ni7  1  0.00000000  0.70160900  0.90249200  1
  O  O0  1  0.50000000  0.97514800  0.65913600  1
  O  O1  1  0.50000000  0.02485200  0.34086400  1
  O  O2  1  0.50000000  0.16613600  0.05384400  1
  O  O3  1  0.50000000  0.22440500  0.74291400  1
  O  O4  1  0.50000000  0.35618500  0.45564500  1
  O  O5  1  0.50000000  0.41935900  0.13961600  1
  O  O6  1  0.50000000  0.58064100  0.86038400  1
  O  O7  1  0.50000000  0.64381500  0.54435500  1
  O  O8  1  0.50000000  0.77559500  0.25708600  1
  O  O9  1  0.50000000  0.83386400  0.94615600  1
  O  O10  1  0.00000000  0.97903400  0.14103500  1
  O  O11  1  0.00000000  0.02096600  0.85896500  1
  O  O12  1  0.00000000  0.16484700  0.54550400  1
  O  O13  1  0.00000000  0.23193700  0.25915500  1
  O  O14  1  0.00000000  0.36538300  0.94390700  1
  O  O15  1  0.00000000  0.43040500  0.66089700  1
  O  O16  1  0.00000000  0.56959500  0.33910300  1
  O  O17  1  0.00000000  0.63461700  0.05609300  1
  O  O18  1  0.00000000  0.76806300  0.74084500  1
  O  O19  1  0.00000000  0.83515300  0.45449600  1
loop_
_geom_bond_atom_site_label_1
_geom_bond_atom_site_label_2
_geom_bond_distance
_geom_bond_site_symmetry_2
Li0 O1 2.072255 1_565
Li0 O19 2.112584 1_555
Li0 O19 2.112584 1_655
Li0 O4 2.160540 1_555
Li0 O16 2.168390 1_655
Li0 O16 2.168390 1_555
Li1 O3 2.088581 1_565
Li1 O6 2.090369 1_555
Li1 O11 2.124403 1_565
Li1 O11 2.124403 1_665
Li1 O18 2.179310 1_655
Li1 O18 2.179310 1_555
Li2 O8 2.088581 1_545
Li2 O5 2.090369 1_555
Li2 O10 2.124403 1_545
Li2 O10 2.124403 1_645
Li2 O13 2.179310 1_655
Li2 O13 2.179310 1_555
Li3 O2 2.063110 1_555
Li3 O9 2.063110 1_554
Li3 O17 2.117577 1_555
Li3 O17 2.117577 1_655
Li3 O14 2.117577 1_554
Li3 O14 2.117577 1_654
Li4 O0 2.072255 1_545
Li4 O12 2.112584 1_655
Li4 O12 2.112584 1_555
Li4 O7 2.160540 1_555
Li4 O15 2.168390 1_555
Li4 O15 2.168390 1_655
Li5 O2 2.145372 1_555
Li5 O2 2.145372 1_455
Li5 O9 2.145372 1_544
Li5 O9 2.145372 1_444
Li5 O17 2.218741 1_545
Li5 O14 2.218741 1_554
Fe0 O12 2.020003 1_655
Fe0 O12 2.020003 1_555
Fe0 O19 2.020003 1_645
Fe0 O19 2.020003 1_545
Fe0 O7 2.033560 1_545
Fe0 O4 2.033560 1_555
Fe1 O12 1.958204 1_555
Fe1 O19 1.958204 1_555
Fe1 O7 1.958579 1_555
Fe1 O7 1.958579 1_455
Fe1 O4 1.958579 1_555
Fe1 O4 1.958579 1_455
Ni0 O11 1.983260 1_555
Ni0 O11 1.983260 1_655
Ni0 O14 2.012244 1_555
Ni0 O14 2.012244 1_655
Ni0 O6 2.058275 1_555
Ni0 O9 2.131842 1_545
Ni1 O16 1.955110 1_655
Ni1 O16 1.955110 1_555
Ni1 O13 1.955754 1_555
Ni1 O13 1.955754 1_655
Ni1 O1 2.088407 1_555
Ni1 O8 2.092017 1_555
Ni2 O15 1.955110 1_655
Ni2 O15 1.955110 1_555
Ni2 O18 1.955754 1_555
Ni2 O18 1.955754 1_655
Ni2 O0 2.088407 1_555
Ni2 O3 2.092017 1_555
Ni3 O10 1.983260 1_555
Ni3 O10 1.983260 1_655
Ni3 O17 2.012244 1_655
Ni3 O17 2.012244 1_555
Ni3 O5 2.058275 1_555
Ni3 O2 2.131842 1_565
Ni4 O13 1.876205 1_565
Ni4 O16 1.876754 1_555
Ni4 O1 1.886249 1_565
Ni4 O1 1.886249 1_465
Ni4 O8 1.887768 1_555
Ni4 O8 1.887768 1_455
Ni5 O18 1.876205 1_545
Ni5 O15 1.876754 1_555
Ni5 O0 1.886249 1_545
Ni5 O0 1.886249 1_445
Ni5 O3 1.887768 1_455
Ni5 O3 1.887768 1_555
Ni6 O10 1.867978 1_545
Ni6 O5 1.883261 1_455
Ni6 O5 1.883261 1_555
Ni6 O17 1.914439 1_555
Ni6 O2 1.925908 1_555
Ni6 O2 1.925908 1_455
Ni7 O11 1.867978 1_565
Ni7 O6 1.883261 1_455
Ni7 O6 1.883261 1_555
Ni7 O14 1.914439 1_555
Ni7 O9 1.925908 1_555
Ni7 O9 1.925908 1_455
