# generated using pymatgen
data_Li3Fe(PO4)2
_symmetry_space_group_name_H-M   'P 1'
_cell_length_a   8.50505876
_cell_length_b   8.50474649
_cell_length_c   8.50478031
_cell_angle_alpha   63.08298612
_cell_angle_beta   63.08334630
_cell_angle_gamma   63.08158219
_symmetry_Int_Tables_number   1
_chemical_formula_structural   Li3Fe(PO4)2
_chemical_formula_sum   'Li9 Fe3 P6 O24'
_cell_volume   464.74800626
_cell_formula_units_Z   3
loop_
 _symmetry_equiv_pos_site_id
 _symmetry_equiv_pos_as_xyz
  1  'x, y, z'
loop_
 _atom_site_type_symbol
 _atom_site_label
 _atom_site_symmetry_multiplicity
 _atom_site_fract_x
 _atom_site_fract_y
 _atom_site_fract_z
 _atom_site_occupancy
  Li  Li0  1  0.24367800  0.85189900  0.65483100  1
  Li  Li1  1  0.32317700  0.81390600  0.14248900  1
  Li  Li2  1  0.14224100  0.32336200  0.81397200  1
  Li  Li3  1  0.00834700  0.00838800  0.00852700  1
  Li  Li4  1  0.15469000  0.15435600  0.15444200  1
  Li  Li5  1  0.49716100  0.49700100  0.49710800  1
  Li  Li6  1  0.85169100  0.65487800  0.24399600  1
  Li  Li7  1  0.65521400  0.24343500  0.85156500  1
  Li  Li8  1  0.81405000  0.14236200  0.32323300  1
  Fe  Fe0  1  0.35390200  0.35380800  0.35381900  1
  Fe  Fe1  1  0.85473100  0.85465400  0.85472100  1
  Fe  Fe2  1  0.64433100  0.64459300  0.64445800  1
  P  P0  1  0.04623400  0.74566900  0.45335500  1
  P  P1  1  0.54713800  0.94904300  0.24719900  1
  P  P2  1  0.24719700  0.54711400  0.94908900  1
  P  P3  1  0.74573800  0.45337600  0.04616400  1
  P  P4  1  0.45318400  0.04639400  0.74577400  1
  P  P5  1  0.94915400  0.24718400  0.54702700  1
  O  O0  1  0.04648600  0.90749800  0.27004300  1
  O  O1  1  0.09045500  0.74142100  0.93468900  1
  O  O2  1  0.49734700  0.89117900  0.67106400  1
  O  O3  1  0.61783000  0.01581600  0.80147400  1
  O  O4  1  0.24311700  0.59688500  0.42373400  1
  O  O5  1  0.19067600  0.39097000  0.97278400  1
  O  O6  1  0.11338700  0.30598100  0.50878600  1
  O  O7  1  0.57980300  0.75419600  0.40230900  1
  O  O8  1  0.74144300  0.93454600  0.09056200  1
  O  O9  1  0.97300700  0.19041600  0.39095700  1
  O  O10  1  0.30607400  0.50879200  0.11326300  1
  O  O11  1  0.40219600  0.57997700  0.75417400  1
  O  O12  1  0.59694300  0.42371100  0.24308400  1
  O  O13  1  0.67116500  0.49798600  0.89081900  1
  O  O14  1  0.01593200  0.80141500  0.61789400  1
  O  O15  1  0.42363700  0.24331400  0.59704300  1
  O  O16  1  0.26994800  0.04668100  0.90763900  1
  O  O17  1  0.80159600  0.61777400  0.01606200  1
  O  O18  1  0.89088100  0.67111700  0.49779800  1
  O  O19  1  0.75427900  0.40231700  0.57960800  1
  O  O20  1  0.39101000  0.97272800  0.19066100  1
  O  O21  1  0.50886400  0.11328900  0.30597800  1
  O  O22  1  0.90752500  0.27001600  0.04637800  1
  O  O23  1  0.93454000  0.09055600  0.74142700  1
loop_
_geom_bond_atom_site_label_1
_geom_bond_atom_site_label_2
_geom_bond_distance
_geom_bond_site_symmetry_2
Li0 O11 2.078198 1_555
Li0 O1 2.126435 1_555
Li0 O14 2.336883 1_555
Li0 O2 2.397782 1_555
Li0 O23 2.518592 1_465
Li1 O20 1.935410 1_555
Li1 O0 2.030452 1_555
Li1 O16 2.130880 1_564
Li1 O4 2.292984 1_555
Li2 O5 1.935448 1_555
Li2 O16 2.030630 1_555
Li2 O22 2.129187 1_456
Li2 O15 2.293319 1_555
Li3 O22 2.112091 1_455
Li3 O0 2.112239 1_545
Li3 O16 2.113585 1_554
Li3 O8 2.344009 1_445
Li3 O1 2.344224 1_544
Li3 O23 2.345053 1_454
Li4 O20 1.959423 1_545
Li4 O9 1.960417 1_455
Li4 O5 1.960809 1_554
Li4 O16 2.295637 1_554
Li4 O0 2.298402 1_545
Li4 O22 2.299940 1_455
Li5 O15 2.201936 1_555
Li5 O12 2.203730 1_555
Li5 O4 2.204174 1_555
Li5 O19 2.281678 1_555
Li5 O7 2.282753 1_555
Li5 O11 2.283038 1_555
Li6 O7 2.077462 1_555
Li6 O8 2.125474 1_555
Li6 O17 2.337172 1_555
Li6 O18 2.398419 1_555
Li6 O1 2.519773 1_654
Li7 O19 2.078991 1_555
Li7 O23 2.122010 1_555
Li7 O3 2.335955 1_555
Li7 O13 2.403730 1_555
Li7 O8 2.518185 1_546
Li8 O9 1.935182 1_555
Li8 O22 2.031508 1_555
Li8 O0 2.129700 1_645
Li8 O12 2.293911 1_555
Fe0 O21 1.978348 1_555
Fe0 O6 1.978382 1_555
Fe0 O10 1.978613 1_555
Fe0 O12 2.087203 1_555
Fe0 O4 2.087375 1_555
Fe0 O15 2.088054 1_555
Fe1 O14 1.976107 1_655
Fe1 O17 1.976297 1_556
Fe1 O3 1.976613 1_565
Fe1 O1 2.074303 1_655
Fe1 O8 2.074745 1_556
Fe1 O23 2.074845 1_565
Fe2 O13 1.951090 1_555
Fe2 O18 1.951729 1_555
Fe2 O2 1.952380 1_555
Fe2 O7 2.057510 1_555
Fe2 O11 2.057747 1_555
Fe2 O19 2.059525 1_555
O0 P0 1.543287 1_555
O1 P2 1.578896 1_555
O2 P4 1.543296 1_565
O3 P4 1.553148 1_555
O4 P0 1.567405 1_555
O5 P2 1.511024 1_555
O6 P5 1.542981 1_455
O7 P1 1.580887 1_555
O8 P1 1.578568 1_555
O9 P5 1.511228 1_555
O10 P2 1.542650 1_554
O11 P2 1.580990 1_555
O12 P3 1.567680 1_555
O13 P3 1.542297 1_556
O14 P0 1.553369 1_555
O15 P4 1.567382 1_555
O16 P4 1.543054 1_555
O17 P3 1.553488 1_555
O18 P0 1.542747 1_655
O19 P5 1.581069 1_555
O20 P1 1.511044 1_555
O21 P1 1.542823 1_545
O22 P3 1.543384 1_555
O23 P5 1.578994 1_555
