# generated using pymatgen
data_BaY3F11
_symmetry_space_group_name_H-M   'P 1'
_cell_length_a   6.27044700
_cell_length_b   7.85529700
_cell_length_c   29.68113400
_cell_angle_alpha   90.00000000
_cell_angle_beta   90.00000000
_cell_angle_gamma   90.00000000
_symmetry_Int_Tables_number   1
_chemical_formula_structural   BaY3F11
_chemical_formula_sum   'Ba4 Y12 F44'
_cell_volume   1461.98057027
_cell_formula_units_Z   4
loop_
 _symmetry_equiv_pos_site_id
 _symmetry_equiv_pos_as_xyz
  1  'x, y, z'
loop_
 _atom_site_type_symbol
 _atom_site_label
 _atom_site_symmetry_multiplicity
 _atom_site_fract_x
 _atom_site_fract_y
 _atom_site_fract_z
 _atom_site_occupancy
  Ba  Ba0  1  0.22968700  0.90599100  0.20956100  1
  Ba  Ba1  1  0.27031300  0.09400900  0.70956100  1
  Ba  Ba2  1  0.72968700  0.59400900  0.79043900  1
  Ba  Ba3  1  0.77031300  0.40599100  0.29043900  1
  Y  Y0  1  0.24146700  0.25030900  0.08634800  1
  Y  Y1  1  0.24141000  0.58992100  0.96878700  1
  Y  Y2  1  0.23502700  0.94062600  0.85263100  1
  Y  Y3  1  0.26497300  0.05937400  0.35263100  1
  Y  Y4  1  0.25859000  0.41007900  0.46878700  1
  Y  Y5  1  0.25853300  0.74969100  0.58634800  1
  Y  Y6  1  0.74146700  0.24969100  0.91365200  1
  Y  Y7  1  0.74141000  0.91007900  0.03121300  1
  Y  Y8  1  0.73502700  0.55937400  0.14736900  1
  Y  Y9  1  0.76497300  0.44062600  0.64736900  1
  Y  Y10  1  0.75859000  0.08992100  0.53121300  1
  Y  Y11  1  0.75853300  0.75030900  0.41365200  1
  F  F0  1  0.02074100  0.10555800  0.89097600  1
  F  F1  1  0.01549900  0.42987200  0.11822900  1
  F  F2  1  0.09128000  0.23349600  0.30730900  1
  F  F3  1  0.00072900  0.75778600  0.00034500  1
  F  F4  1  0.01782100  0.58388600  0.43894700  1
  F  F5  1  0.02137800  0.93336700  0.55901900  1
  F  F6  1  0.04459200  0.30889200  0.67315600  1
  F  F7  1  0.22859900  0.10898600  0.79387300  1
  F  F8  1  0.24073700  0.13029600  0.15160300  1
  F  F9  1  0.23737800  0.42068200  0.02747100  1
  F  F10  1  0.24558100  0.24615400  0.40904900  1
  F  F11  1  0.25441900  0.75384600  0.90904900  1
  F  F12  1  0.26262200  0.57931800  0.52747100  1
  F  F13  1  0.25926300  0.86970400  0.65160300  1
  F  F14  1  0.27140100  0.89101400  0.29387300  1
  F  F15  1  0.45540800  0.69110800  0.17315600  1
  F  F16  1  0.47862200  0.06663300  0.05901900  1
  F  F17  1  0.48217900  0.41611400  0.93894700  1
  F  F18  1  0.49927100  0.24221400  0.50034500  1
  F  F19  1  0.40872000  0.76650400  0.80730900  1
  F  F20  1  0.48450100  0.57012800  0.61822900  1
  F  F21  1  0.47925900  0.89444200  0.39097600  1
  F  F22  1  0.52074100  0.39444200  0.10902400  1
  F  F23  1  0.51549900  0.07012800  0.88177100  1
  F  F24  1  0.59128000  0.26650400  0.69269100  1
  F  F25  1  0.50072900  0.74221400  0.99965500  1
  F  F26  1  0.51782100  0.91611400  0.56105300  1
  F  F27  1  0.52137800  0.56663300  0.44098100  1
  F  F28  1  0.54459200  0.19110800  0.32684400  1
  F  F29  1  0.72859900  0.39101400  0.20612700  1
  F  F30  1  0.74073700  0.36970400  0.84839700  1
  F  F31  1  0.73737800  0.07931800  0.97252900  1
  F  F32  1  0.74558100  0.25384600  0.59095100  1
  F  F33  1  0.75441900  0.74615400  0.09095100  1
  F  F34  1  0.76262200  0.92068200  0.47252900  1
  F  F35  1  0.75926300  0.63029600  0.34839700  1
  F  F36  1  0.77140100  0.60898600  0.70612700  1
  F  F37  1  0.95540800  0.80889200  0.82684400  1
  F  F38  1  0.97862200  0.43336700  0.94098100  1
  F  F39  1  0.98217900  0.08388600  0.06105300  1
  F  F40  1  0.99927100  0.25778600  0.49965500  1
  F  F41  1  0.90872000  0.73349600  0.19269100  1
  F  F42  1  0.98450100  0.92987200  0.38177100  1
  F  F43  1  0.97925900  0.60555800  0.60902400  1
loop_
_geom_bond_atom_site_label_1
_geom_bond_atom_site_label_2
_geom_bond_distance
_geom_bond_site_symmetry_2
Ba0 F15 2.453587 1_555
Ba0 F8 2.463468 1_565
Ba0 F41 2.477364 1_455
Ba0 F14 2.518857 1_555
Ba1 F6 2.453587 1_555
Ba1 F13 2.463468 1_545
Ba1 F24 2.477364 1_555
Ba1 F7 2.518857 1_555
Ba2 F37 2.453587 1_555
Ba2 F30 2.463468 1_555
Ba2 F19 2.477364 1_555
Ba2 F36 2.518857 1_555
Ba3 F28 2.453587 1_555
Ba3 F35 2.463468 1_555
Ba3 F2 2.477364 1_655
Ba3 F29 2.518857 1_555
F0 Y2 2.186166 1_545
F0 Y6 2.191232 1_455
F1 Y8 2.208142 1_455
F1 Y0 2.211933 1_555
F2 Y3 2.206041 1_555
F3 Y1 2.212185 1_554
F3 Y7 2.216888 1_455
F4 Y11 2.217230 1_455
F4 Y4 2.219860 1_555
F5 Y10 2.215567 1_465
F5 Y5 2.225107 1_555
F6 Y9 2.175049 1_455
F7 Y2 2.189116 1_545
F8 Y0 2.154097 1_555
F9 Y1 2.191323 1_554
F9 Y0 2.201288 1_555
F10 Y4 2.192858 1_555
F10 Y3 2.229712 1_555
F11 Y1 2.192858 1_555
F11 Y2 2.229712 1_555
F12 Y4 2.191323 1_555
F12 Y5 2.201288 1_555
F13 Y5 2.154097 1_555
F14 Y3 2.189116 1_565
F15 Y8 2.175049 1_555
F16 Y7 2.215567 1_545
F16 Y0 2.225107 1_555
F17 Y6 2.217230 1_555
F17 Y1 2.219860 1_555
F18 Y4 2.212185 1_555
F18 Y10 2.216888 1_555
F19 Y2 2.206041 1_555
F20 Y9 2.208142 1_555
F20 Y5 2.211933 1_555
F21 Y3 2.186166 1_565
F21 Y11 2.191232 1_555
F22 Y8 2.186166 1_555
F22 Y0 2.191232 1_555
F23 Y2 2.208142 1_545
F23 Y6 2.211933 1_555
F24 Y9 2.206041 1_555
F25 Y7 2.212185 1_556
F25 Y1 2.216888 1_555
F26 Y5 2.217230 1_555
F26 Y10 2.219860 1_565
F27 Y4 2.215567 1_555
F27 Y11 2.225107 1_555
F28 Y3 2.175049 1_555
F29 Y8 2.189116 1_555
F30 Y6 2.154097 1_555
F31 Y7 2.191323 1_546
F31 Y6 2.201288 1_555
F32 Y10 2.192858 1_555
F32 Y9 2.229712 1_555
F33 Y7 2.192858 1_555
F33 Y8 2.229712 1_555
F34 Y10 2.191323 1_565
F34 Y11 2.201288 1_555
F35 Y11 2.154097 1_555
F36 Y9 2.189116 1_555
F37 Y2 2.175049 1_655
F38 Y1 2.215567 1_655
F38 Y6 2.225107 1_555
F39 Y0 2.217230 1_655
F39 Y7 2.219860 1_545
F40 Y10 2.212185 1_555
F40 Y4 2.216888 1_655
F41 Y8 2.206041 1_555
F42 Y3 2.208142 1_665
F42 Y11 2.211933 1_555
F43 Y9 2.186166 1_555
F43 Y5 2.191232 1_655
