# generated using pymatgen
data_Li3Ti(NiO3)2
_symmetry_space_group_name_H-M   'P 1'
_cell_length_a   2.92339089
_cell_length_b   12.97502698
_cell_length_c   5.90350576
_cell_angle_alpha   103.10398959
_cell_angle_beta   90.02280553
_cell_angle_gamma   89.99370819
_symmetry_Int_Tables_number   1
_chemical_formula_structural   Li3Ti(NiO3)2
_chemical_formula_sum   'Li6 Ti2 Ni4 O12'
_cell_volume   218.09530558
_cell_formula_units_Z   2
loop_
 _symmetry_equiv_pos_site_id
 _symmetry_equiv_pos_as_xyz
  1  'x, y, z'
loop_
 _atom_site_type_symbol
 _atom_site_label
 _atom_site_symmetry_multiplicity
 _atom_site_fract_x
 _atom_site_fract_y
 _atom_site_fract_z
 _atom_site_occupancy
  Li  Li0  1  0.00000000  0.66662400  0.83331400  1
  Li  Li1  1  0.50000000  0.16665900  0.33334000  1
  Li  Li2  1  0.00000900  0.99410200  0.49006400  1
  Li  Li3  1  0.50000800  0.49413900  0.98998500  1
  Li  Li4  1  0.99999200  0.33924800  0.17660700  1
  Li  Li5  1  0.49999200  0.83920700  0.67662200  1
  Ti  Ti0  1  0.00000000  0.66665200  0.33334200  1
  Ti  Ti1  1  0.50000000  0.16668500  0.83333100  1
  Ni  Ni0  1  0.49995900  0.49784700  0.50269100  1
  Ni  Ni1  1  0.50003900  0.83545200  0.16397100  1
  Ni  Ni2  1  0.99996200  0.99790700  0.00270100  1
  Ni  Ni3  1  0.00003900  0.33547200  0.66400900  1
  O  O0  1  0.00018500  0.50984400  0.26659600  1
  O  O1  1  0.50018800  0.00983500  0.76661800  1
  O  O2  1  0.99981200  0.82347400  0.40005400  1
  O  O3  1  0.49981400  0.32349800  0.90002900  1
  O  O4  1  0.00019700  0.83427700  0.93275300  1
  O  O5  1  0.50019600  0.33428500  0.43277300  1
  O  O6  1  0.99980500  0.49904500  0.73396100  1
  O  O7  1  0.49980100  0.99905600  0.23390700  1
  O  O8  1  0.99997900  0.16418400  0.60540700  1
  O  O9  1  0.49997900  0.66415800  0.10536700  1
  O  O10  1  0.00002100  0.16918900  0.06128000  1
  O  O11  1  0.50002300  0.66916600  0.56129000  1
loop_
_geom_bond_atom_site_label_1
_geom_bond_atom_site_label_2
_geom_bond_distance
_geom_bond_site_symmetry_2
Li0 O6 2.119789 1_455
Li0 O4 2.120736 1_555
Li0 O9 2.176757 1_556
Li0 O11 2.176806 1_455
Li0 O9 2.177702 1_456
Li0 O11 2.177759 1_555
Li1 O7 2.120109 1_545
Li1 O5 2.120397 1_555
Li1 O8 2.176839 1_555
Li1 O10 2.176939 1_555
Li1 O8 2.177785 1_455
Li1 O10 2.177884 1_655
Li2 O7 2.114611 1_455
Li2 O7 2.114612 1_555
Li2 O2 2.156454 1_455
Li2 O8 2.156928 1_465
Li2 O1 2.166173 1_565
Li2 O1 2.166314 1_465
Li3 O6 2.113915 1_455
Li3 O6 2.113936 1_555
Li3 O9 2.156169 1_556
Li3 O3 2.156614 1_555
Li3 O0 2.166443 1_656
Li3 O0 2.166592 1_556
Li4 O5 2.114664 1_655
Li4 O5 2.114681 1_555
Li4 O0 2.156050 1_655
Li4 O10 2.156636 1_655
Li4 O3 2.166258 1_554
Li4 O3 2.166402 1_654
Li5 O4 2.114434 1_655
Li5 O4 2.114448 1_555
Li5 O11 2.156416 1_555
Li5 O1 2.156453 1_565
Li5 O2 2.166235 1_455
Li5 O2 2.166372 1_555
Ni0 O6 1.997080 1_555
Ni0 O6 1.998531 1_455
Ni0 O0 2.048952 1_555
Ni0 O0 2.050710 1_655
Ni0 O5 2.068090 1_555
Ni0 O11 2.170745 1_555
Ni1 O4 1.996906 1_554
Ni1 O4 1.998374 1_654
Ni1 O2 2.048844 1_555
Ni1 O2 2.050606 1_455
Ni1 O7 2.068621 1_555
Ni1 O9 2.170423 1_555
Ni2 O7 1.996901 1_655
Ni2 O7 1.998382 1_555
Ni2 O1 2.048697 1_564
Ni2 O1 2.050455 1_664
Ni2 O4 2.068950 1_654
Ni2 O10 2.170280 1_665
Ni3 O5 1.996958 1_455
Ni3 O5 1.998422 1_555
Ni3 O3 2.048577 1_555
Ni3 O3 2.050331 1_455
Ni3 O6 2.068224 1_455
Ni3 O8 2.170347 1_455
O0 Ti0 1.982748 1_555
O1 Ti1 1.983290 1_555
O2 Ti0 1.982933 1_655
O3 Ti1 1.982822 1_555
O8 Ti1 1.981650 1_655
O8 Ti1 1.982345 1_555
O9 Ti0 1.981866 1_655
O9 Ti0 1.982560 1_555
O10 Ti1 1.981745 1_454
O10 Ti1 1.982439 1_554
O11 Ti0 1.981727 1_555
O11 Ti0 1.982413 1_655
