# generated using pymatgen
data_NbCrO4
_symmetry_space_group_name_H-M   'P 1'
_cell_length_a   5.60137010
_cell_length_b   5.60135055
_cell_length_c   5.60137164
_cell_angle_alpha   138.60633489
_cell_angle_beta   138.60653792
_cell_angle_gamma   59.97555110
_symmetry_Int_Tables_number   1
_chemical_formula_structural   NbCrO4
_chemical_formula_sum   'Nb1 Cr1 O4'
_cell_volume   76.05248641
_cell_formula_units_Z   1
loop_
 _symmetry_equiv_pos_site_id
 _symmetry_equiv_pos_as_xyz
  1  'x, y, z'
loop_
 _atom_site_type_symbol
 _atom_site_label
 _atom_site_symmetry_multiplicity
 _atom_site_fract_x
 _atom_site_fract_y
 _atom_site_fract_z
 _atom_site_occupancy
  Nb  Nb0  1  0.99999900  0.00000000  0.99999800  1
  Cr  Cr0  1  0.75000000  0.25000000  0.50000000  1
  O  O0  1  0.53993700  0.03993400  0.49999900  1
  O  O1  1  0.20654400  0.20654600  0.00000300  1
  O  O2  1  0.96006200  0.46006800  0.50000100  1
  O  O3  1  0.79345800  0.79345300  0.99999800  1
loop_
_geom_bond_atom_site_label_1
_geom_bond_atom_site_label_2
_geom_bond_distance
_geom_bond_site_symmetry_2
Nb0 O1 2.004094 1_656
Nb0 O3 2.004104 1_545
Nb0 O2 2.017201 1_545
Nb0 O0 2.017203 1_555
Nb0 O0 2.017222 1_656
Nb0 O2 2.017237 1_556
Cr0 O3 2.024043 1_555
Cr0 O1 2.024051 1_555
Cr0 O1 2.024055 1_656
Cr0 O3 2.024075 1_544
Cr0 O0 2.038258 1_555
Cr0 O2 2.038263 1_555
