# generated using pymatgen
data_Nb3O7F
_symmetry_space_group_name_H-M   'P 1'
_cell_length_a   6.34641690
_cell_length_b   6.34641690
_cell_length_c   3.91092400
_cell_angle_alpha   90.00000000
_cell_angle_beta   90.00000000
_cell_angle_gamma   117.82447726
_symmetry_Int_Tables_number   1
_chemical_formula_structural   Nb3O7F
_chemical_formula_sum   'Nb3 O7 F1'
_cell_volume   139.30807640
_cell_formula_units_Z   1
loop_
 _symmetry_equiv_pos_site_id
 _symmetry_equiv_pos_as_xyz
  1  'x, y, z'
loop_
 _atom_site_type_symbol
 _atom_site_label
 _atom_site_symmetry_multiplicity
 _atom_site_fract_x
 _atom_site_fract_y
 _atom_site_fract_z
 _atom_site_occupancy
  Nb  Nb0  1  0.00000000  0.00000000  0.00000000  1
  Nb  Nb1  1  0.69881600  0.30118400  0.00000000  1
  Nb  Nb2  1  0.30118400  0.69881600  0.00000000  1
  O  O0  1  0.33796700  0.04583100  0.00000000  1
  O  O1  1  0.04583100  0.33796700  0.00000000  1
  O  O2  1  0.00000000  0.00000000  0.50000000  1
  O  O3  1  0.68915200  0.31084800  0.50000000  1
  O  O4  1  0.31084800  0.68915200  0.50000000  1
  O  O5  1  0.66203300  0.95416900  0.00000000  1
  O  O6  1  0.95416900  0.66203300  0.00000000  1
  F  F0  1  0.50000000  0.50000000  0.00000000  1
loop_
_geom_bond_atom_site_label_1
_geom_bond_atom_site_label_2
_geom_bond_distance
_geom_bond_site_symmetry_2
Nb0 O2 1.955462 1_554
Nb0 O2 1.955462 1_555
Nb0 O0 2.025515 1_555
Nb0 O5 2.025515 1_445
Nb0 O6 2.025515 1_445
Nb0 O1 2.025515 1_555
Nb1 O3 1.958281 1_555
Nb1 O3 1.958281 1_554
Nb1 O0 2.099102 1_555
Nb1 O6 2.099102 1_555
Nb1 O1 2.103496 1_655
Nb1 O5 2.103496 1_545
Nb2 O4 1.958281 1_555
Nb2 O4 1.958281 1_554
Nb2 O1 2.099102 1_555
Nb2 O5 2.099102 1_555
Nb2 O0 2.103496 1_565
Nb2 O6 2.103496 1_455
F0 Nb2 2.161101 1_555
F0 Nb1 2.161101 1_555
