# generated using pymatgen
data_Cr2CoNi3(PO4)6
_symmetry_space_group_name_H-M   'P 1'
_cell_length_a   8.34544509
_cell_length_b   8.34544509
_cell_length_c   8.34544489
_cell_angle_alpha   61.95934290
_cell_angle_beta   61.95934290
_cell_angle_gamma   61.95934831
_symmetry_Int_Tables_number   1
_chemical_formula_structural   Cr2CoNi3(PO4)6
_chemical_formula_sum   'Cr2 Co1 Ni3 P6 O24'
_cell_volume   429.00947989
_cell_formula_units_Z   1
loop_
 _symmetry_equiv_pos_site_id
 _symmetry_equiv_pos_as_xyz
  1  'x, y, z'
loop_
 _atom_site_type_symbol
 _atom_site_label
 _atom_site_symmetry_multiplicity
 _atom_site_fract_x
 _atom_site_fract_y
 _atom_site_fract_z
 _atom_site_occupancy
  Cr  Cr0  1  0.00055100  0.00055100  0.00055100  1
  Cr  Cr1  1  0.50027400  0.50027400  0.50027400  1
  Co  Co0  1  0.86028400  0.86028400  0.86028400  1
  Ni  Ni0  1  0.35774900  0.35774900  0.35774900  1
  Ni  Ni1  1  0.14198300  0.14198300  0.14198300  1
  Ni  Ni2  1  0.64181600  0.64181600  0.64181600  1
  P  P0  1  0.45872800  0.75021400  0.04487200  1
  P  P1  1  0.75021400  0.04487200  0.45872800  1
  P  P2  1  0.04487200  0.45872800  0.75021400  1
  P  P3  1  0.95041500  0.54709600  0.24806000  1
  P  P4  1  0.24806000  0.95041500  0.54709600  1
  P  P5  1  0.54709600  0.24806000  0.95041500  1
  O  O0  1  0.66688500  0.89782300  0.49842100  1
  O  O1  1  0.89782300  0.49842100  0.66688500  1
  O  O2  1  0.49842100  0.66688500  0.89782300  1
  O  O3  1  0.25373900  0.90440900  0.05451000  1
  O  O4  1  0.61586100  0.82467300  0.00233900  1
  O  O5  1  0.43963900  0.60269700  0.25208200  1
  O  O6  1  0.90440900  0.05451000  0.25373900  1
  O  O7  1  0.60269700  0.25208200  0.43963900  1
  O  O8  1  0.99083100  0.39607100  0.17143900  1
  O  O9  1  0.25208200  0.43963900  0.60269700  1
  O  O10  1  0.93720400  0.75475000  0.08734900  1
  O  O11  1  0.17143900  0.99083100  0.39607100  1
  O  O12  1  0.82467300  0.00233900  0.61586100  1
  O  O13  1  0.05451000  0.25373900  0.90440900  1
  O  O14  1  0.74450700  0.56786100  0.39771200  1
  O  O15  1  0.00233900  0.61586100  0.82467300  1
  O  O16  1  0.39771200  0.74450700  0.56786100  1
  O  O17  1  0.08734900  0.93720400  0.75475000  1
  O  O18  1  0.56786100  0.39771200  0.74450700  1
  O  O19  1  0.39607100  0.17143900  0.99083100  1
  O  O20  1  0.75475000  0.08734900  0.93720400  1
  O  O21  1  0.51379600  0.32201600  0.10132000  1
  O  O22  1  0.10132000  0.51379600  0.32201600  1
  O  O23  1  0.32201600  0.10132000  0.51379600  1
loop_
_geom_bond_atom_site_label_1
_geom_bond_atom_site_label_2
_geom_bond_distance
_geom_bond_site_symmetry_2
Cr0 O13 2.066910 1_554
Cr0 O6 2.066910 1_455
Cr0 O3 2.066910 1_545
Cr0 O10 2.067511 1_445
Cr0 O17 2.067511 1_544
Cr0 O20 2.067511 1_454
Cr1 O9 2.047207 1_555
Cr1 O5 2.047207 1_555
Cr1 O7 2.047207 1_555
Cr1 O14 2.047412 1_555
Cr1 O18 2.047412 1_555
Cr1 O16 2.047412 1_555
Co0 O4 1.902556 1_556
Co0 O12 1.902556 1_565
Co0 O15 1.902556 1_655
Co0 O17 1.954897 1_655
Co0 O10 1.954897 1_556
Co0 O20 1.954897 1_565
Ni0 O23 1.994786 1_555
Ni0 O21 1.994786 1_555
Ni0 O22 1.994786 1_555
Ni0 O5 2.115527 1_555
Ni0 O9 2.115527 1_555
Ni0 O7 2.115527 1_555
Ni1 O11 1.957482 1_545
Ni1 O19 1.957482 1_554
Ni1 O8 1.957482 1_455
Ni1 O6 2.077451 1_455
Ni1 O13 2.077451 1_554
Ni1 O3 2.077451 1_545
Ni2 O2 1.954860 1_555
Ni2 O0 1.954860 1_555
Ni2 O1 1.954861 1_555
Ni2 O18 2.075755 1_555
Ni2 O14 2.075755 1_555
Ni2 O16 2.075755 1_555
O0 P1 1.517536 1_565
O1 P2 1.517536 1_655
O2 P0 1.517536 1_556
O3 P0 1.577073 1_555
O4 P0 1.533906 1_555
O5 P0 1.566886 1_555
O6 P1 1.577073 1_555
O7 P1 1.566886 1_555
O8 P3 1.505471 1_555
O9 P2 1.566886 1_555
O10 P3 1.608814 1_555
O11 P4 1.505471 1_555
O12 P1 1.533906 1_555
O13 P2 1.577073 1_555
O14 P3 1.564743 1_555
O15 P2 1.533906 1_555
O16 P4 1.564743 1_555
O17 P4 1.608814 1_555
O18 P5 1.564743 1_555
O19 P5 1.505471 1_555
O20 P5 1.608814 1_555
O21 P5 1.511506 1_554
O22 P3 1.511506 1_455
O23 P4 1.511506 1_545
