# generated using pymatgen
data_Li3Fe2(CO3)4
_symmetry_space_group_name_H-M   'P 1'
_cell_length_a   5.54726400
_cell_length_b   6.17499135
_cell_length_c   8.49120388
_cell_angle_alpha   84.71701622
_cell_angle_beta   107.01509508
_cell_angle_gamma   116.46652000
_symmetry_Int_Tables_number   1
_chemical_formula_structural   Li3Fe2(CO3)4
_chemical_formula_sum   'Li3 Fe2 C4 O12'
_cell_volume   248.72952457
_cell_formula_units_Z   1
loop_
 _symmetry_equiv_pos_site_id
 _symmetry_equiv_pos_as_xyz
  1  'x, y, z'
loop_
 _atom_site_type_symbol
 _atom_site_label
 _atom_site_symmetry_multiplicity
 _atom_site_fract_x
 _atom_site_fract_y
 _atom_site_fract_z
 _atom_site_occupancy
  Li  Li0  1  0.46414700  0.91802700  0.33458600  1
  Li  Li1  1  0.21058200  0.07488900  0.65217400  1
  Li  Li2  1  0.29610000  0.56025700  0.85902700  1
  Fe  Fe0  1  0.67343000  0.49473300  0.49607900  1
  Fe  Fe1  1  0.90650700  0.01945700  0.00485500  1
  C  C0  1  0.36640700  0.42065900  0.20890600  1
  C  C1  1  0.91494100  0.91719900  0.29512800  1
  C  C2  1  0.69608700  0.07817000  0.70508900  1
  C  C3  1  0.73601300  0.58881800  0.79649000  1
  O  O0  1  0.19433800  0.35610200  0.05640200  1
  O  O1  1  0.58968800  0.38872800  0.25122400  1
  O  O2  1  0.11161400  0.93457800  0.23497600  1
  O  O3  1  0.70920900  0.94990800  0.18905500  1
  O  O4  1  0.91749500  0.87462700  0.44657600  1
  O  O5  1  0.30849000  0.51320400  0.31526700  1
  O  O6  1  0.58647800  0.11333200  0.55594000  1
  O  O7  1  0.94563900  0.59812500  0.75163900  1
  O  O8  1  0.55496300  0.02231500  0.81490100  1
  O  O9  1  0.95100800  0.09847100  0.76082100  1
  O  O10  1  0.48687800  0.49299300  0.69302500  1
  O  O11  1  0.76570700  0.67509200  0.93808700  1
loop_
_geom_bond_atom_site_label_1
_geom_bond_atom_site_label_2
_geom_bond_distance
_geom_bond_site_symmetry_2
Li0 O2 1.935041 1_555
Li0 O3 2.028208 1_555
Li0 O6 2.095038 1_565
Li0 O5 2.256111 1_555
Li0 O4 2.540618 1_555
Li1 O9 1.983621 1_455
Li1 O4 2.040739 1_445
Li1 O8 2.142311 1_555
Li1 O10 2.337032 1_555
Li1 O6 2.364821 1_555
Li2 O7 1.998532 1_455
Li2 O0 2.060831 1_556
Li2 O10 2.156852 1_555
Li2 O11 2.270977 1_555
Li2 O8 2.609451 1_565
Fe0 O1 2.093159 1_555
Fe0 O5 2.196136 1_555
Fe0 O4 2.198460 1_555
Fe0 O10 2.206186 1_555
Fe0 O7 2.207898 1_555
Fe0 O6 2.224457 1_555
Fe1 O0 1.965277 1_655
Fe1 O11 1.983858 1_544
Fe1 O3 2.070705 1_545
Fe1 O2 2.104568 1_645
Fe1 O8 2.142288 1_554
Fe1 O9 2.144435 1_554
C0 O1 1.283077 1_555
C0 O5 1.293813 1_555
C0 O0 1.333938 1_555
C1 O4 1.285863 1_555
C1 O2 1.293963 1_655
C1 O3 1.313341 1_555
C2 O6 1.279501 1_555
C2 O9 1.304088 1_555
C2 O8 1.314749 1_555
C3 O11 1.296290 1_555
C3 O10 1.299296 1_555
C3 O7 1.302362 1_555
