# generated using pymatgen
data_La3B5O12
_symmetry_space_group_name_H-M   'P 1'
_cell_length_a   6.63351800
_cell_length_b   8.05691000
_cell_length_c   18.32339600
_cell_angle_alpha   90.00000000
_cell_angle_beta   90.00000000
_cell_angle_gamma   90.00000000
_symmetry_Int_Tables_number   1
_chemical_formula_structural   La3B5O12
_chemical_formula_sum   'La12 B20 O48'
_cell_volume   979.30594702
_cell_formula_units_Z   4
loop_
 _symmetry_equiv_pos_site_id
 _symmetry_equiv_pos_as_xyz
  1  'x, y, z'
loop_
 _atom_site_type_symbol
 _atom_site_label
 _atom_site_symmetry_multiplicity
 _atom_site_fract_x
 _atom_site_fract_y
 _atom_site_fract_z
 _atom_site_occupancy
  La  La0  1  0.01768900  0.01078000  0.89853100  1
  La  La1  1  0.01768900  0.48922000  0.89853100  1
  La  La2  1  0.01023400  0.75000000  0.32001200  1
  La  La3  1  0.48976600  0.25000000  0.82001200  1
  La  La4  1  0.48231100  0.51078000  0.39853100  1
  La  La5  1  0.48231100  0.98922000  0.39853100  1
  La  La6  1  0.51768900  0.01078000  0.60146900  1
  La  La7  1  0.51768900  0.48922000  0.60146900  1
  La  La8  1  0.51023400  0.75000000  0.17998800  1
  La  La9  1  0.98976600  0.25000000  0.67998800  1
  La  La10  1  0.98231100  0.51078000  0.10146900  1
  La  La11  1  0.98231100  0.98922000  0.10146900  1
  B  B0  1  0.06627300  0.25000000  0.38749600  1
  B  B1  1  0.12341800  0.09895000  0.26536300  1
  B  B2  1  0.12341800  0.40105000  0.26536300  1
  B  B3  1  0.15933100  0.25000000  0.51987500  1
  B  B4  1  0.21472100  0.75000000  0.51509600  1
  B  B5  1  0.28527900  0.25000000  0.01509600  1
  B  B6  1  0.34066900  0.75000000  0.01987500  1
  B  B7  1  0.37658200  0.59895000  0.76536300  1
  B  B8  1  0.37658200  0.90105000  0.76536300  1
  B  B9  1  0.43372700  0.75000000  0.88749600  1
  B  B10  1  0.56627300  0.25000000  0.11250400  1
  B  B11  1  0.62341800  0.09895000  0.23463700  1
  B  B12  1  0.62341800  0.40105000  0.23463700  1
  B  B13  1  0.65933100  0.25000000  0.98012500  1
  B  B14  1  0.71472100  0.75000000  0.98490400  1
  B  B15  1  0.78527900  0.25000000  0.48490400  1
  B  B16  1  0.84066900  0.75000000  0.48012500  1
  B  B17  1  0.87658200  0.90105000  0.73463700  1
  B  B18  1  0.87658200  0.59895000  0.73463700  1
  B  B19  1  0.93372700  0.75000000  0.61250400  1
  O  O0  1  0.04020600  0.75000000  0.46158000  1
  O  O1  1  0.12252300  0.09720400  0.34103300  1
  O  O2  1  0.12252300  0.40279600  0.34103300  1
  O  O3  1  0.09244900  0.25000000  0.22819900  1
  O  O4  1  0.13582100  0.75000000  0.59142200  1
  O  O5  1  0.14854300  0.54354700  0.22786400  1
  O  O6  1  0.14854300  0.95645300  0.22786400  1
  O  O7  1  0.17174400  0.25000000  0.84737300  1
  O  O8  1  0.16655600  0.10042900  0.00337900  1
  O  O9  1  0.16655600  0.39957100  0.00337900  1
  O  O10  1  0.21179400  0.75000000  0.07888300  1
  O  O11  1  0.22139500  0.25000000  0.44685000  1
  O  O12  1  0.27860500  0.75000000  0.94685000  1
  O  O13  1  0.28820600  0.25000000  0.57888300  1
  O  O14  1  0.33344400  0.60042900  0.50337900  1
  O  O15  1  0.33344400  0.89957100  0.50337900  1
  O  O16  1  0.32825600  0.75000000  0.34737300  1
  O  O17  1  0.35145700  0.45645300  0.72786400  1
  O  O18  1  0.35145700  0.04354700  0.72786400  1
  O  O19  1  0.36417900  0.25000000  0.09142200  1
  O  O20  1  0.40755100  0.75000000  0.72819900  1
  O  O21  1  0.37747700  0.59720400  0.84103300  1
  O  O22  1  0.37747700  0.90279600  0.84103300  1
  O  O23  1  0.45979400  0.25000000  0.96158000  1
  O  O24  1  0.54020600  0.75000000  0.03842000  1
  O  O25  1  0.62252300  0.09720400  0.15896700  1
  O  O26  1  0.62252300  0.40279600  0.15896700  1
  O  O27  1  0.59244900  0.25000000  0.27180100  1
  O  O28  1  0.63582100  0.75000000  0.90857800  1
  O  O29  1  0.64854300  0.54354700  0.27213600  1
  O  O30  1  0.64854300  0.95645300  0.27213600  1
  O  O31  1  0.67174400  0.25000000  0.65262700  1
  O  O32  1  0.66655600  0.10042900  0.49662100  1
  O  O33  1  0.66655600  0.39957100  0.49662100  1
  O  O34  1  0.71179400  0.75000000  0.42111700  1
  O  O35  1  0.72139500  0.25000000  0.05315000  1
  O  O36  1  0.77860500  0.75000000  0.55315000  1
  O  O37  1  0.78820600  0.25000000  0.92111700  1
  O  O38  1  0.83344400  0.89957100  0.99662100  1
  O  O39  1  0.83344400  0.60042900  0.99662100  1
  O  O40  1  0.82825600  0.75000000  0.15262700  1
  O  O41  1  0.85145700  0.04354700  0.77213600  1
  O  O42  1  0.85145700  0.45645300  0.77213600  1
  O  O43  1  0.86417900  0.25000000  0.40857800  1
  O  O44  1  0.90755100  0.75000000  0.77180100  1
  O  O45  1  0.87747700  0.90279600  0.65896700  1
  O  O46  1  0.87747700  0.59720400  0.65896700  1
  O  O47  1  0.95979400  0.25000000  0.53842000  1
loop_
_geom_bond_atom_site_label_1
_geom_bond_atom_site_label_2
_geom_bond_distance
_geom_bond_site_symmetry_2
La0 O8 2.277672 1_556
La0 O38 2.350959 1_445
La0 O7 2.374405 1_555
La0 O37 2.490658 1_455
La0 O41 2.578651 1_455
La0 O22 2.750102 1_545
La0 O12 2.862526 1_545
La0 O44 3.215677 1_445
La0 O28 3.296236 1_445
La1 O9 2.277672 1_556
La1 O39 2.350959 1_455
La1 O7 2.374405 1_555
La1 O37 2.490658 1_455
La1 O42 2.578651 1_455
La1 O21 2.750102 1_555
La1 O12 2.862526 1_555
La1 O44 3.215677 1_455
La1 O28 3.296236 1_455
La2 O16 2.168359 1_555
La3 O7 2.168359 1_555
La4 O14 2.277672 1_555
La4 O33 2.350959 1_555
La4 O16 2.374405 1_555
La4 O34 2.490658 1_555
La4 O29 2.578651 1_555
La4 O2 2.750102 1_555
La4 O11 2.862526 1_555
La4 O27 3.215677 1_555
La4 O43 3.296236 1_555
La5 O15 2.277672 1_555
La5 O32 2.350959 1_565
La5 O16 2.374405 1_555
La5 O34 2.490658 1_555
La5 O30 2.578651 1_555
La5 O1 2.750102 1_565
La5 O11 2.862526 1_565
La5 O27 3.215677 1_565
La5 O43 3.296236 1_565
La6 O32 2.277672 1_555
La6 O15 2.350959 1_545
La6 O31 2.374405 1_555
La6 O13 2.490658 1_555
La6 O18 2.578651 1_555
La6 O45 2.750102 1_545
La6 O36 2.862526 1_545
La6 O20 3.215677 1_545
La6 O4 3.296236 1_545
La7 O33 2.277672 1_555
La7 O14 2.350959 1_555
La7 O31 2.374405 1_555
La7 O13 2.490658 1_555
La7 O17 2.578651 1_555
La7 O46 2.750102 1_555
La7 O36 2.862526 1_555
La7 O20 3.215677 1_555
La7 O4 3.296236 1_555
La8 O40 2.168359 1_555
La9 O31 2.168359 1_555
La10 O39 2.277672 1_554
La10 O9 2.350959 1_655
La10 O40 2.374405 1_555
La10 O10 2.490658 1_655
La10 O5 2.578651 1_655
La10 O26 2.750102 1_555
La10 O35 2.862526 1_555
La10 O3 3.215677 1_655
La10 O19 3.296236 1_655
La11 O38 2.277672 1_554
La11 O8 2.350959 1_665
La11 O40 2.374405 1_555
La11 O10 2.490658 1_655
La11 O6 2.578651 1_655
La11 O25 2.750102 1_565
La11 O35 2.862526 1_565
La11 O3 3.215677 1_665
La11 O19 3.296236 1_665
B0 O43 1.395140 1_455
B0 O11 1.497215 1_555
B0 O1 1.542583 1_555
B0 O2 1.542583 1_555
B1 O6 1.348331 1_545
B1 O1 1.386615 1_555
B1 O3 1.409611 1_555
B2 O5 1.348331 1_555
B2 O2 1.386615 1_555
B2 O3 1.409611 1_555
B3 O47 1.366555 1_455
B3 O13 1.378367 1_555
B3 O11 1.399971 1_555
B4 O15 1.455524 1_555
B4 O14 1.455524 1_555
B4 O4 1.493278 1_555
B4 O0 1.517141 1_555
B5 O8 1.455524 1_555
B5 O9 1.455524 1_555
B5 O19 1.493278 1_555
B5 O23 1.517141 1_554
B6 O24 1.366555 1_555
B6 O10 1.378367 1_555
B6 O12 1.399971 1_554
B7 O17 1.348331 1_555
B7 O21 1.386615 1_555
B7 O20 1.409611 1_555
B8 O18 1.348331 1_565
B8 O22 1.386615 1_555
B8 O20 1.409611 1_555
B9 O28 1.395140 1_555
B9 O12 1.497215 1_555
B9 O21 1.542583 1_555
B9 O22 1.542583 1_555
B10 O19 1.395140 1_555
B10 O35 1.497215 1_555
B10 O25 1.542583 1_555
B10 O26 1.542583 1_555
B11 O30 1.348331 1_545
B11 O25 1.386615 1_555
B11 O27 1.409611 1_555
B12 O29 1.348331 1_555
B12 O26 1.386615 1_555
B12 O27 1.409611 1_555
B13 O23 1.366555 1_555
B13 O37 1.378367 1_555
B13 O35 1.399971 1_556
B14 O38 1.455524 1_555
B14 O39 1.455524 1_555
B14 O28 1.493278 1_555
B14 O24 1.517141 1_556
B15 O32 1.455524 1_555
B15 O33 1.455524 1_555
B15 O43 1.493278 1_555
B15 O47 1.517141 1_555
B16 O0 1.366555 1_655
B16 O34 1.378367 1_555
B16 O36 1.399971 1_555
B17 O41 1.348331 1_565
B17 O45 1.386615 1_555
B17 O44 1.409611 1_555
B18 O42 1.348331 1_555
B18 O46 1.386615 1_555
B18 O44 1.409611 1_555
B19 O4 1.395140 1_655
B19 O36 1.497215 1_555
B19 O46 1.542583 1_555
B19 O45 1.542583 1_555
