# generated using pymatgen
data_LiAg5F12
_symmetry_space_group_name_H-M   'P 1'
_cell_length_a   4.76964628
_cell_length_b   4.76964628
_cell_length_c   10.73713784
_cell_angle_alpha   90.00000000
_cell_angle_beta   90.00000000
_cell_angle_gamma   89.97808519
_symmetry_Int_Tables_number   1
_chemical_formula_structural   LiAg5F12
_chemical_formula_sum   'Li1 Ag5 F12'
_cell_volume   244.26477443
_cell_formula_units_Z   1
loop_
 _symmetry_equiv_pos_site_id
 _symmetry_equiv_pos_as_xyz
  1  'x, y, z'
loop_
 _atom_site_type_symbol
 _atom_site_label
 _atom_site_symmetry_multiplicity
 _atom_site_fract_x
 _atom_site_fract_y
 _atom_site_fract_z
 _atom_site_occupancy
  Li  Li0  1  -0.00000000  -0.00000000  0.00000000  1
  Ag  Ag0  1  -0.00000000  -0.00000000  0.32355916  1
  Ag  Ag1  1  -0.00000000  -0.00000000  0.67644084  1
  Ag  Ag2  1  0.50000000  0.50000000  0.15672077  1
  Ag  Ag3  1  0.50000000  0.50000000  0.50000000  1
  Ag  Ag4  1  0.50000000  0.50000000  0.84327923  1
  F  F0  1  0.19766868  0.19766868  0.50000000  1
  F  F1  1  0.19600333  0.19600333  0.15350416  1
  F  F2  1  0.19600333  0.19600333  0.84649584  1
  F  F3  1  0.69869100  0.30130900  0.00000000  1
  F  F4  1  0.69644597  0.30355403  0.32376420  1
  F  F5  1  0.69644597  0.30355403  0.67623580  1
  F  F6  1  0.30355403  0.69644597  0.32376420  1
  F  F7  1  0.30355403  0.69644597  0.67623580  1
  F  F8  1  0.30130900  0.69869100  0.00000000  1
  F  F9  1  0.80399667  0.80399667  0.15350416  1
  F  F10  1  0.80399667  0.80399667  0.84649584  1
  F  F11  1  0.80233132  0.80233132  0.50000000  1
loop_
_geom_bond_atom_site_label_1
_geom_bond_atom_site_label_2
_geom_bond_distance
_geom_bond_site_symmetry_2
Ag0 F4 2.047172 1_455
Ag0 F6 2.047172 1_545
Ag0 F9 2.254450 1_445
Ag0 F1 2.254450 1_555
Ag0 F11 2.316781 1_445
Ag0 F0 2.316781 1_555
Ag1 F7 2.047172 1_545
Ag1 F5 2.047172 1_455
Ag1 F2 2.254450 1_555
Ag1 F10 2.254450 1_445
Ag1 F11 2.316781 1_445
Ag1 F0 2.316781 1_555
Ag2 F1 2.051231 1_555
Ag2 F9 2.051231 1_555
Ag2 F8 2.151074 1_555
Ag2 F3 2.151074 1_555
Ag2 F4 2.229814 1_555
Ag2 F6 2.229814 1_555
Ag3 F0 2.039705 1_555
Ag3 F11 2.039705 1_555
Ag3 F7 2.309948 1_555
Ag3 F5 2.309948 1_555
Ag3 F6 2.309948 1_555
Ag3 F4 2.309948 1_555
Ag4 F10 2.051231 1_555
Ag4 F2 2.051231 1_555
Ag4 F3 2.151074 1_556
Ag4 F8 2.151074 1_556
Ag4 F7 2.229814 1_555
Ag4 F5 2.229814 1_555
F1 Li0 2.113094 1_555
F2 Li0 2.113094 1_556
F3 Li0 2.032030 1_655
F8 Li0 2.032030 1_565
F9 Li0 2.113094 1_665
F10 Li0 2.113094 1_666
