# generated using pymatgen
data_Li4Cr7(PO4)6
_symmetry_space_group_name_H-M   'P 1'
_cell_length_a   9.04317956
_cell_length_b   9.04317956
_cell_length_c   6.50679119
_cell_angle_alpha   81.24553759
_cell_angle_beta   81.24553759
_cell_angle_gamma   102.32326365
_symmetry_Int_Tables_number   1
_chemical_formula_structural   Li4Cr7(PO4)6
_chemical_formula_sum   'Li4 Cr7 P6 O24'
_cell_volume   504.31650304
_cell_formula_units_Z   1
loop_
 _symmetry_equiv_pos_site_id
 _symmetry_equiv_pos_as_xyz
  1  'x, y, z'
loop_
 _atom_site_type_symbol
 _atom_site_label
 _atom_site_symmetry_multiplicity
 _atom_site_fract_x
 _atom_site_fract_y
 _atom_site_fract_z
 _atom_site_occupancy
  Li  Li0  1  0.99475300  0.99475300  0.48794900  1
  Li  Li1  1  0.63909900  0.63909900  0.57311500  1
  Li  Li2  1  0.55566800  0.32612700  0.51996500  1
  Li  Li3  1  0.32612700  0.55566800  0.51996500  1
  Cr  Cr0  1  0.35465300  0.98815400  0.18536200  1
  Cr  Cr1  1  0.98815400  0.35465300  0.18536200  1
  Cr  Cr2  1  0.99858900  0.99858900  0.99467700  1
  Cr  Cr3  1  0.33852800  0.65225600  0.00604100  1
  Cr  Cr4  1  0.65225600  0.33852800  0.00604100  1
  Cr  Cr5  1  0.64164200  0.99889000  0.82024400  1
  Cr  Cr6  1  0.99889000  0.64164200  0.82024400  1
  P  P0  1  0.29106200  0.89697400  0.69787600  1
  P  P1  1  0.89697400  0.29106200  0.69787600  1
  P  P2  1  0.68240600  0.68240600  0.08392000  1
  P  P3  1  0.31246400  0.31246400  0.91770700  1
  P  P4  1  0.70386500  0.08225700  0.30601200  1
  P  P5  1  0.08225700  0.70386500  0.30601200  1
  O  O0  1  0.65623600  0.96550400  0.51544000  1
  O  O1  1  0.96550400  0.65623600  0.51544000  1
  O  O2  1  0.95158500  0.38073900  0.87274600  1
  O  O3  1  0.38073900  0.95158500  0.87274600  1
  O  O4  1  0.81384100  0.81384100  0.10552100  1
  O  O5  1  0.74852800  0.57509300  0.94469300  1
  O  O6  1  0.57509300  0.74852800  0.94469300  1
  O  O7  1  0.87973200  0.11175800  0.75997600  1
  O  O8  1  0.11175800  0.87973200  0.75997600  1
  O  O9  1  0.31244300  0.72890400  0.69585200  1
  O  O10  1  0.72890400  0.31244300  0.69585200  1
  O  O11  1  0.58994500  0.58994500  0.30257800  1
  O  O12  1  0.40979100  0.40979100  0.70208900  1
  O  O13  1  0.67304400  0.24554700  0.31347500  1
  O  O14  1  0.24554700  0.67304400  0.31347500  1
  O  O15  1  0.88487200  0.11193600  0.23921900  1
  O  O16  1  0.11193600  0.88487200  0.23921900  1
  O  O17  1  0.18233000  0.18233000  0.89179600  1
  O  O18  1  0.61207000  0.02348100  0.13642500  1
  O  O19  1  0.02348100  0.61207000  0.13642500  1
  O  O20  1  0.24150300  0.42138900  0.04703200  1
  O  O21  1  0.42138900  0.24150300  0.04703200  1
  O  O22  1  0.35040500  0.01301400  0.49037100  1
  O  O23  1  0.01301400  0.35040500  0.49037100  1
loop_
_geom_bond_atom_site_label_1
_geom_bond_atom_site_label_2
_geom_bond_distance
_geom_bond_site_symmetry_2
Li0 O16 2.268621 1_655
Li0 O15 2.268621 1_565
Li0 O8 2.411209 1_655
Li0 O7 2.411209 1_565
Li1 O11 1.971285 1_555
Li1 O12 2.531704 1_555
Li2 O13 1.912324 1_555
Li2 O12 1.984971 1_555
Li2 O10 2.089200 1_555
Li2 O11 2.512433 1_555
Li3 O14 1.912324 1_555
Li3 O12 1.984971 1_555
Li3 O9 2.089200 1_555
Li3 O11 2.512433 1_555
Cr0 O22 2.026590 1_565
Cr0 O3 2.096350 1_554
Cr0 O16 2.145703 1_555
Cr0 O21 2.245026 1_565
Cr0 O18 2.246860 1_565
Cr1 O23 2.026590 1_655
Cr1 O2 2.096350 1_554
Cr1 O15 2.145703 1_555
Cr1 O20 2.245026 1_655
Cr1 O19 2.246860 1_655
Cr2 O17 2.028370 1_665
Cr2 O4 2.043934 1_556
Cr2 O8 2.242386 1_655
Cr2 O7 2.242386 1_565
Cr2 O16 2.255744 1_656
Cr2 O15 2.255744 1_566
Cr3 O20 2.043799 1_555
Cr3 O6 2.081623 1_554
Cr3 O9 2.097292 1_554
Cr3 O14 2.100935 1_555
Cr3 O3 2.639829 1_554
Cr4 O21 2.043799 1_555
Cr4 O5 2.081623 1_554
Cr4 O10 2.097292 1_554
Cr4 O13 2.100935 1_555
Cr4 O2 2.639829 1_554
Cr5 O0 2.040009 1_555
Cr5 O18 2.085840 1_566
Cr5 O7 2.124725 1_565
Cr5 O6 2.203605 1_555
Cr5 O3 2.268429 1_555
Cr6 O1 2.040009 1_555
Cr6 O19 2.085840 1_656
Cr6 O8 2.124725 1_655
Cr6 O5 2.203605 1_555
Cr6 O2 2.268429 1_555
O0 P4 1.531826 1_565
O1 P5 1.531826 1_655
O2 P1 1.573921 1_555
O3 P0 1.573921 1_555
O4 P2 1.530986 1_555
O5 P2 1.571761 1_556
O6 P2 1.571761 1_556
O7 P1 1.578049 1_555
O8 P0 1.578049 1_555
O9 P0 1.574285 1_555
O10 P1 1.574285 1_555
O11 P2 1.549142 1_555
O12 P3 1.560525 1_555
O13 P4 1.566512 1_555
O14 P5 1.566512 1_555
O15 P4 1.581362 1_555
O16 P5 1.581362 1_555
O17 P3 1.525744 1_555
O18 P4 1.567891 1_555
O19 P5 1.567891 1_555
O20 P3 1.564590 1_554
O21 P3 1.564590 1_554
O22 P0 1.523140 1_545
O23 P1 1.523140 1_455
