# generated using pymatgen
data_LiV2(CO3)4
_symmetry_space_group_name_H-M   'P 1'
_cell_length_a   5.86827979
_cell_length_b   9.47534119
_cell_length_c   7.54522438
_cell_angle_alpha   90.41875750
_cell_angle_beta   106.68163121
_cell_angle_gamma   89.15836440
_symmetry_Int_Tables_number   1
_chemical_formula_structural   LiV2(CO3)4
_chemical_formula_sum   'Li2 V4 C8 O24'
_cell_volume   401.84214943
_cell_formula_units_Z   2
loop_
 _symmetry_equiv_pos_site_id
 _symmetry_equiv_pos_as_xyz
  1  'x, y, z'
loop_
 _atom_site_type_symbol
 _atom_site_label
 _atom_site_symmetry_multiplicity
 _atom_site_fract_x
 _atom_site_fract_y
 _atom_site_fract_z
 _atom_site_occupancy
  Li  Li0  1  0.50003600  0.24999800  0.50000800  1
  Li  Li1  1  0.49996800  0.75002200  0.50000300  1
  V  V0  1  0.50020100  0.75006900  0.00000100  1
  V  V1  1  0.50016300  0.24985400  0.99990800  1
  V  V2  1  0.00019900  0.00005600  0.50005800  1
  V  V3  1  0.99979200  0.49996400  0.49994900  1
  C  C0  1  0.01901200  0.24516100  0.73898400  1
  C  C1  1  0.01934200  0.74509300  0.73855700  1
  C  C2  1  0.98097200  0.25487600  0.26108500  1
  C  C3  1  0.98069200  0.75493300  0.26144600  1
  C  C4  1  0.51303600  0.00319400  0.23765900  1
  C  C5  1  0.51279300  0.50290700  0.23767200  1
  C  C6  1  0.48691700  0.49681000  0.76237500  1
  C  C7  1  0.48717200  0.99706200  0.76231800  1
  O  O0  1  0.35158300  0.43907200  0.61383400  1
  O  O1  1  0.35257400  0.93903500  0.61368100  1
  O  O2  1  0.64837200  0.06093600  0.38617100  1
  O  O3  1  0.64753100  0.56098500  0.38634300  1
  O  O4  1  0.60935900  0.42024400  0.89655000  1
  O  O5  1  0.60941000  0.92074800  0.89685200  1
  O  O6  1  0.39054100  0.07972000  0.10345700  1
  O  O7  1  0.39062400  0.57929600  0.10319000  1
  O  O8  1  0.99437400  0.38950300  0.27276000  1
  O  O9  1  0.99438700  0.88952000  0.27315000  1
  O  O10  1  0.00565100  0.11047400  0.72722100  1
  O  O11  1  0.00552100  0.61051100  0.72674700  1
  O  O12  1  0.49887700  0.36479700  0.22675000  1
  O  O13  1  0.49850500  0.86509700  0.22630000  1
  O  O14  1  0.50111800  0.13516700  0.77329900  1
  O  O15  1  0.50146700  0.63491000  0.77371600  1
  O  O16  1  0.88111000  0.32624000  0.61662100  1
  O  O17  1  0.88186200  0.82649400  0.61661500  1
  O  O18  1  0.11874900  0.17370700  0.38329700  1
  O  O19  1  0.11816500  0.67356200  0.38336000  1
  O  O20  1  0.17663300  0.30047100  0.88189200  1
  O  O21  1  0.17696900  0.80020400  0.88173100  1
  O  O22  1  0.82329600  0.19952900  0.11814200  1
  O  O23  1  0.82302700  0.69977700  0.11829900  1
loop_
_geom_bond_atom_site_label_1
_geom_bond_atom_site_label_2
_geom_bond_distance
_geom_bond_site_symmetry_2
Li0 O2 2.250697 1_555
Li0 O0 2.251079 1_555
Li0 O16 2.281539 1_555
Li0 O18 2.282860 1_555
Li0 O12 2.336402 1_555
Li0 O14 2.336881 1_555
Li1 O1 2.247073 1_555
Li1 O3 2.247666 1_555
Li1 O19 2.285980 1_555
Li1 O17 2.286461 1_555
Li1 O13 2.340149 1_555
Li1 O15 2.340328 1_555
C0 O10 1.280630 1_555
C0 O16 1.288665 1_455
C0 O20 1.313880 1_555
C1 O11 1.279808 1_555
C1 O17 1.287738 1_455
C1 O21 1.314374 1_555
C2 O8 1.280048 1_555
C2 O18 1.288252 1_655
C2 O22 1.314337 1_555
C3 O9 1.279777 1_555
C3 O19 1.287438 1_655
C3 O23 1.314526 1_555
C4 O6 1.282721 1_555
C4 O2 1.295614 1_555
C4 O13 1.313116 1_545
C5 O7 1.282709 1_555
C5 O3 1.296498 1_555
C5 O12 1.312896 1_555
C6 O4 1.282704 1_555
C6 O0 1.295744 1_555
C6 O15 1.313146 1_555
C7 O5 1.282690 1_555
C7 O1 1.295813 1_555
C7 O14 1.312876 1_565
O0 V3 2.070480 1_455
O1 V2 2.073546 1_565
O2 V2 2.070636 1_655
O3 V3 2.072944 1_555
O4 V1 1.990254 1_555
O5 V0 1.991759 1_556
O6 V1 1.990094 1_554
O7 V0 1.993600 1_555
O8 V3 1.994596 1_555
O9 V2 1.992647 1_665
O10 V2 1.994174 1_555
O11 V3 1.992104 1_455
O12 V1 2.023773 1_554
O13 V0 2.021325 1_555
O14 V1 2.020539 1_555
O15 V0 2.021296 1_556
O16 V3 2.092006 1_555
O17 V2 2.089391 1_665
O18 V2 2.091446 1_555
O19 V3 2.089886 1_455
O20 V1 1.906935 1_555
O21 V0 1.904695 1_556
O22 V1 1.904576 1_554
O23 V0 1.903046 1_555
