# generated using pymatgen
data_K3HPtS2(ClO3)2
_symmetry_space_group_name_H-M   'P 1'
_cell_length_a   9.32406716
_cell_length_b   9.32406716
_cell_length_c   7.14976800
_cell_angle_alpha   90.00000000
_cell_angle_beta   90.00000000
_cell_angle_gamma   110.30669581
_symmetry_Int_Tables_number   1
_chemical_formula_structural   K3HPtS2(ClO3)2
_chemical_formula_sum   'K6 H2 Pt2 S4 Cl4 O12'
_cell_volume   582.95545421
_cell_formula_units_Z   2
loop_
 _symmetry_equiv_pos_site_id
 _symmetry_equiv_pos_as_xyz
  1  'x, y, z'
loop_
 _atom_site_type_symbol
 _atom_site_label
 _atom_site_symmetry_multiplicity
 _atom_site_fract_x
 _atom_site_fract_y
 _atom_site_fract_z
 _atom_site_occupancy
  K  K0  1  0.42009000  0.85993900  0.10100200  1
  K  K1  1  0.85993900  0.42009000  0.10100200  1
  K  K2  1  0.57991000  0.14006100  0.60100200  1
  K  K3  1  0.14006100  0.57991000  0.60100200  1
  K  K4  1  0.87652800  0.87652800  0.28258200  1
  K  K5  1  0.12347200  0.12347200  0.78258200  1
  H  H0  1  0.51516400  0.51516400  0.53346500  1
  H  H1  1  0.48483600  0.48483600  0.03346500  1
  Pt  Pt0  1  0.75491500  0.75491500  0.74946700  1
  Pt  Pt1  1  0.24508500  0.24508500  0.24946700  1
  S  S0  1  0.54305500  0.76144900  0.59806900  1
  S  S1  1  0.76144900  0.54305500  0.59806800  1
  S  S2  1  0.45694500  0.23855100  0.09806900  1
  S  S3  1  0.23855100  0.45694500  0.09806900  1
  Cl  Cl0  1  0.77095800  0.98975800  0.90410100  1
  Cl  Cl1  1  0.98975800  0.77095800  0.90410100  1
  Cl  Cl2  1  0.22904200  0.01024200  0.40410100  1
  Cl  Cl3  1  0.01024200  0.22904200  0.40410100  1
  O  O0  1  0.44276400  0.82013100  0.71152200  1
  O  O1  1  0.82013100  0.44276400  0.71152200  1
  O  O2  1  0.55723600  0.17986900  0.21152100  1
  O  O3  1  0.17986900  0.55723600  0.21152100  1
  O  O4  1  0.59629100  0.85821600  0.42757800  1
  O  O5  1  0.85821600  0.59629100  0.42757800  1
  O  O6  1  0.40370900  0.14178400  0.92757800  1
  O  O7  1  0.14178400  0.40370900  0.92757800  1
  O  O8  1  0.44228500  0.59919200  0.53612200  1
  O  O9  1  0.59919200  0.44228500  0.53612200  1
  O  O10  1  0.55771500  0.40080800  0.03612200  1
  O  O11  1  0.40080800  0.55771500  0.03612200  1
loop_
_geom_bond_atom_site_label_1
_geom_bond_atom_site_label_2
_geom_bond_distance
_geom_bond_site_symmetry_2
K0 O11 2.799417 1_555
K0 O0 2.826913 1_554
K0 O4 2.858267 1_555
K0 O2 2.917279 1_565
K0 O6 2.957272 1_564
K0 O3 3.036356 1_555
K1 O10 2.799417 1_555
K1 O1 2.826913 1_554
K1 O5 2.858267 1_555
K1 O3 2.917279 1_655
K1 O7 2.957272 1_654
K1 O2 3.036356 1_555
K2 O9 2.799417 1_555
K2 O2 2.826920 1_555
K2 O6 2.858267 1_555
K2 O0 2.917281 1_545
K2 O4 2.957272 1_545
K2 O1 3.036357 1_555
K3 O8 2.799417 1_555
K3 O3 2.826920 1_555
K3 O7 2.858267 1_555
K3 O1 2.917281 1_455
K3 O5 2.957272 1_455
K3 O0 3.036357 1_555
K4 O5 2.760745 1_555
K4 O4 2.760745 1_555
K5 O6 2.760745 1_555
K5 O7 2.760745 1_555
H0 O8 1.202289 1_555
H0 O9 1.202289 1_555
H1 O10 1.202289 1_555
H1 O11 1.202289 1_555
Pt0 S0 2.271818 1_555
Pt0 S1 2.271822 1_555
Pt1 S2 2.271818 1_555
Pt1 S3 2.271818 1_555
Cl0 Pt0 2.410835 1_555
Cl0 K4 3.182389 1_556
Cl0 K5 3.204438 1_665
Cl0 K0 3.376581 1_556
Cl0 K2 3.400916 1_565
Cl1 Pt0 2.410835 1_555
Cl1 K4 3.182389 1_556
Cl1 K5 3.204438 1_665
Cl1 K1 3.376581 1_556
Cl1 K3 3.400916 1_655
Cl2 Pt1 2.410835 1_555
Cl2 K5 3.182389 1_555
Cl2 K4 3.204438 1_445
Cl2 K2 3.376581 1_555
Cl2 K0 3.400916 1_545
Cl3 Pt1 2.410835 1_555
Cl3 K5 3.182389 1_555
Cl3 K4 3.204438 1_445
Cl3 K3 3.376581 1_555
Cl3 K1 3.400916 1_455
O0 S0 1.478833 1_555
O1 S1 1.478837 1_555
O2 S2 1.478829 1_555
O3 S3 1.478829 1_555
O4 S0 1.495159 1_555
O5 S1 1.495153 1_555
O6 S2 1.495159 1_556
O7 S3 1.495159 1_556
O8 S0 1.543112 1_555
O9 S1 1.543110 1_555
O10 S2 1.543112 1_555
O11 S3 1.543112 1_555
