# generated using pymatgen
data_Mn3VO8
_symmetry_space_group_name_H-M   'P 1'
_cell_length_a   5.79111191
_cell_length_b   5.79111191
_cell_length_c   8.95734200
_cell_angle_alpha   90.00000000
_cell_angle_beta   90.00000000
_cell_angle_gamma   119.99999893
_symmetry_Int_Tables_number   1
_chemical_formula_structural   Mn3VO8
_chemical_formula_sum   'Mn6 V2 O16'
_cell_volume   260.15591653
_cell_formula_units_Z   2
loop_
 _symmetry_equiv_pos_site_id
 _symmetry_equiv_pos_as_xyz
  1  'x, y, z'
loop_
 _atom_site_type_symbol
 _atom_site_label
 _atom_site_symmetry_multiplicity
 _atom_site_fract_x
 _atom_site_fract_y
 _atom_site_fract_z
 _atom_site_occupancy
  Mn  Mn0  1  0.16802900  0.83197100  0.21074400  1
  Mn  Mn1  1  0.16802900  0.33605900  0.21074400  1
  Mn  Mn2  1  0.66394100  0.83197100  0.21074400  1
  Mn  Mn3  1  0.33605900  0.16802900  0.71074400  1
  Mn  Mn4  1  0.83197100  0.66394100  0.71074400  1
  Mn  Mn5  1  0.83197100  0.16802900  0.71074400  1
  V  V0  1  0.33333300  0.66666700  0.49282000  1
  V  V1  1  0.66666700  0.33333300  0.99282000  1
  O  O0  1  0.16812400  0.83187600  0.59995500  1
  O  O1  1  0.04170200  0.52085100  0.33747700  1
  O  O2  1  0.33333300  0.66666700  0.10226300  1
  O  O3  1  0.00000000  0.00000000  0.31623300  1
  O  O4  1  0.00000000  0.00000000  0.81623300  1
  O  O5  1  0.16812400  0.33624900  0.59995500  1
  O  O6  1  0.47914900  0.95829800  0.33747700  1
  O  O7  1  0.47914900  0.52085100  0.33747700  1
  O  O8  1  0.33624900  0.16812400  0.09995500  1
  O  O9  1  0.66375100  0.83187600  0.59995500  1
  O  O10  1  0.52085100  0.47914900  0.83747700  1
  O  O11  1  0.52085100  0.04170200  0.83747700  1
  O  O12  1  0.66666700  0.33333300  0.60226300  1
  O  O13  1  0.83187600  0.66375100  0.09995500  1
  O  O14  1  0.95829800  0.47914900  0.83747700  1
  O  O15  1  0.83187600  0.16812400  0.09995500  1
loop_
_geom_bond_atom_site_label_1
_geom_bond_atom_site_label_2
_geom_bond_distance
_geom_bond_site_symmetry_2
Mn0 O2 1.921832 1_555
Mn0 O3 1.932217 1_565
Mn0 O1 1.937006 1_555
Mn0 O6 1.937006 1_555
Mn0 O13 1.956282 1_455
Mn0 O8 1.956282 1_565
Mn1 O2 1.921832 1_555
Mn1 O3 1.932221 1_555
Mn1 O1 1.937002 1_555
Mn1 O7 1.937006 1_555
Mn1 O15 1.956282 1_455
Mn1 O8 1.956290 1_555
Mn2 O2 1.921832 1_555
Mn2 O3 1.932221 1_665
Mn2 O6 1.937002 1_555
Mn2 O7 1.937006 1_555
Mn2 O15 1.956282 1_565
Mn2 O13 1.956290 1_555
Mn3 O12 1.921832 1_555
Mn3 O4 1.932221 1_555
Mn3 O11 1.937002 1_555
Mn3 O10 1.937006 1_555
Mn3 O0 1.956282 1_545
Mn3 O5 1.956290 1_555
Mn4 O12 1.921832 1_555
Mn4 O4 1.932221 1_665
Mn4 O14 1.937002 1_555
Mn4 O10 1.937006 1_555
Mn4 O0 1.956282 1_655
Mn4 O9 1.956290 1_555
Mn5 O12 1.921832 1_555
Mn5 O4 1.932217 1_655
Mn5 O11 1.937006 1_555
Mn5 O14 1.937006 1_555
Mn5 O9 1.956282 1_545
Mn5 O5 1.956282 1_655
O0 V0 1.914940 1_555
O1 V0 2.018754 1_555
O5 V0 1.914940 1_555
O6 V0 2.018754 1_555
O7 V0 2.018758 1_555
O8 V1 1.914940 1_554
O9 V0 1.914940 1_555
O10 V1 2.018758 1_555
O11 V1 2.018754 1_555
O13 V1 1.914940 1_554
O14 V1 2.018754 1_555
O15 V1 1.914940 1_554
