# generated using pymatgen
data_Li5Fe2Ni3O10
_symmetry_space_group_name_H-M   'P 1'
_cell_length_a   5.08320100
_cell_length_b   5.09981289
_cell_length_c   7.71509256
_cell_angle_alpha   70.97136375
_cell_angle_beta   71.49269178
_cell_angle_gamma   81.26228550
_symmetry_Int_Tables_number   1
_chemical_formula_structural   Li5Fe2Ni3O10
_chemical_formula_sum   'Li5 Fe2 Ni3 O10'
_cell_volume   179.03239501
_cell_formula_units_Z   1
loop_
 _symmetry_equiv_pos_site_id
 _symmetry_equiv_pos_as_xyz
  1  'x, y, z'
loop_
 _atom_site_type_symbol
 _atom_site_label
 _atom_site_symmetry_multiplicity
 _atom_site_fract_x
 _atom_site_fract_y
 _atom_site_fract_z
 _atom_site_occupancy
  Li  Li0  1  0.50344400  0.78731100  0.40848500  1
  Li  Li1  1  0.50097700  0.60043300  0.79119000  1
  Li  Li2  1  0.00000000  0.50000000  0.50000000  1
  Li  Li3  1  0.49902300  0.39956700  0.20881000  1
  Li  Li4  1  0.49655600  0.21268900  0.59151500  1
  Fe  Fe0  1  0.00602600  0.89899500  0.69246400  1
  Fe  Fe1  1  0.99397400  0.10100500  0.30753600  1
  Ni  Ni0  1  0.50000000  0.00000000  0.00000000  1
  Ni  Ni1  1  0.99897600  0.30206100  0.89884400  1
  Ni  Ni2  1  0.00102400  0.69793900  0.10115600  1
  O  O0  1  0.23317200  0.93902300  0.86492000  1
  O  O1  1  0.76638700  0.66086200  0.95550700  1
  O  O2  1  0.75763100  0.86746900  0.55101400  1
  O  O3  1  0.22867200  0.76465200  0.23716500  1
  O  O4  1  0.22456400  0.54450100  0.66960000  1
  O  O5  1  0.77543600  0.45549900  0.33040000  1
  O  O6  1  0.77132800  0.23534800  0.76283500  1
  O  O7  1  0.24236900  0.13253100  0.44898600  1
  O  O8  1  0.23361300  0.33913800  0.04449300  1
  O  O9  1  0.76682800  0.06097700  0.13508000  1
loop_
_geom_bond_atom_site_label_1
_geom_bond_atom_site_label_2
_geom_bond_distance
_geom_bond_site_symmetry_2
Li0 O7 2.084224 1_565
Li0 O2 2.097943 1_555
Li0 O5 2.136141 1_555
Li0 O4 2.166780 1_555
Li0 O3 2.243178 1_555
Li0 O9 2.246068 1_565
Li1 O4 2.017072 1_555
Li1 O2 2.085607 1_555
Li1 O0 2.143151 1_555
Li1 O8 2.146590 1_556
Li1 O6 2.168021 1_555
Li1 O1 2.233635 1_555
Li2 O4 2.070565 1_555
Li2 O5 2.070565 1_455
Li2 O6 2.116676 1_455
Li2 O3 2.116676 1_555
Li2 O2 2.157862 1_455
Li2 O7 2.157862 1_555
Li3 O5 2.017072 1_555
Li3 O7 2.085607 1_555
Li3 O9 2.143151 1_555
Li3 O1 2.146590 1_554
Li3 O3 2.168021 1_555
Li3 O8 2.233635 1_555
Li4 O2 2.084224 1_545
Li4 O7 2.097943 1_555
Li4 O4 2.136141 1_555
Li4 O5 2.166780 1_555
Li4 O6 2.243178 1_555
Li4 O0 2.246068 1_545
Fe0 O2 1.965175 1_455
Fe0 O7 1.983315 1_565
Fe0 O4 2.001716 1_555
Fe0 O6 2.057853 1_465
Fe0 O1 2.085694 1_455
Fe0 O0 2.090243 1_555
Fe1 O7 1.965175 1_655
Fe1 O2 1.983315 1_545
Fe1 O5 2.001716 1_555
Fe1 O3 2.057853 1_645
Fe1 O8 2.085694 1_655
Fe1 O9 2.090243 1_555
Ni0 O3 2.039495 1_545
Ni0 O6 2.039495 1_554
Ni0 O9 2.063806 1_555
Ni0 O0 2.063806 1_544
Ni0 O1 2.079238 1_544
Ni0 O8 2.079238 1_555
Ni1 O6 1.918118 1_555
Ni1 O4 1.920671 1_655
Ni1 O8 1.943944 1_656
Ni1 O9 1.959632 1_556
Ni1 O0 2.088544 1_645
Ni1 O1 2.115035 1_555
Ni2 O3 1.918118 1_555
Ni2 O5 1.920671 1_455
Ni2 O1 1.943944 1_454
Ni2 O0 1.959632 1_554
Ni2 O9 2.088544 1_465
Ni2 O8 2.115035 1_555
