# generated using pymatgen
data_Ta5Pb11O26
_symmetry_space_group_name_H-M   'P 1'
_cell_length_a   7.67974020
_cell_length_b   7.67974020
_cell_length_c   13.46593793
_cell_angle_alpha   72.98548801
_cell_angle_beta   72.98548801
_cell_angle_gamma   59.91779558
_symmetry_Int_Tables_number   1
_chemical_formula_structural   Ta5Pb11O26
_chemical_formula_sum   'Ta5 Pb11 O26'
_cell_volume   646.84436823
_cell_formula_units_Z   1
loop_
 _symmetry_equiv_pos_site_id
 _symmetry_equiv_pos_as_xyz
  1  'x, y, z'
loop_
 _atom_site_type_symbol
 _atom_site_label
 _atom_site_symmetry_multiplicity
 _atom_site_fract_x
 _atom_site_fract_y
 _atom_site_fract_z
 _atom_site_occupancy
  Ta  Ta0  1  0.00000000  0.00000000  0.00000000  1
  Ta  Ta1  1  0.00000000  0.50000000  0.00000000  1
  Ta  Ta2  1  0.50000000  0.00000000  0.00000000  1
  Ta  Ta3  1  0.50000000  0.00000000  0.50000000  1
  Ta  Ta4  1  0.00000000  0.50000000  0.50000000  1
  Pb  Pb0  1  0.50000000  0.50000000  0.00000000  1
  Pb  Pb1  1  0.74842400  0.25611600  0.74268500  1
  Pb  Pb2  1  0.25611600  0.74842400  0.74268500  1
  Pb  Pb3  1  0.75137100  0.75137100  0.74331100  1
  Pb  Pb4  1  0.00000000  0.00000000  0.50000000  1
  Pb  Pb5  1  0.50000000  0.50000000  0.50000000  1
  Pb  Pb6  1  0.24906500  0.24906500  0.75420800  1
  Pb  Pb7  1  0.25157600  0.74388400  0.25731500  1
  Pb  Pb8  1  0.74388400  0.25157600  0.25731500  1
  Pb  Pb9  1  0.24862900  0.24862900  0.25668900  1
  Pb  Pb10  1  0.75093500  0.75093500  0.24579200  1
  O  O0  1  0.71563000  0.71563000  0.97988000  1
  O  O1  1  0.07937000  0.07937000  0.84487500  1
  O  O2  1  0.00677600  0.42799900  0.65547000  1
  O  O3  1  0.08939000  0.71662200  0.97756900  1
  O  O4  1  0.42799900  0.00677600  0.65547000  1
  O  O5  1  0.56816500  0.56816500  0.80094000  1
  O  O6  1  0.71662200  0.08939000  0.97756900  1
  O  O7  1  0.22720600  0.22720600  0.47561800  1
  O  O8  1  0.07371800  0.50418600  0.84410400  1
  O  O9  1  0.80787400  0.37827900  0.53296000  1
  O  O10  1  0.50418600  0.07371800  0.84410400  1
  O  O11  1  0.37827900  0.80787400  0.53296000  1
  O  O12  1  0.42272800  0.42272800  0.67122200  1
  O  O13  1  0.57727200  0.57727200  0.32877800  1
  O  O14  1  0.49581400  0.92628200  0.15589600  1
  O  O15  1  0.62172100  0.19212600  0.46704000  1
  O  O16  1  0.92628200  0.49581400  0.15589600  1
  O  O17  1  0.19212600  0.62172100  0.46704000  1
  O  O18  1  0.77279400  0.77279400  0.52438200  1
  O  O19  1  0.28337800  0.91061000  0.02243100  1
  O  O20  1  0.57200100  0.99322400  0.34453000  1
  O  O21  1  0.91061000  0.28337800  0.02243100  1
  O  O22  1  0.43183500  0.43183500  0.19906000  1
  O  O23  1  0.99322400  0.57200100  0.34453000  1
  O  O24  1  0.92063000  0.92063000  0.15512500  1
  O  O25  1  0.28437000  0.28437000  0.02012000  1
loop_
_geom_bond_atom_site_label_1
_geom_bond_atom_site_label_2
_geom_bond_distance
_geom_bond_site_symmetry_2
O0 Ta1 2.010793 1_656
O0 Ta2 2.010793 1_566
O0 Pb0 2.789608 1_556
O1 Ta0 1.997186 1_556
O1 Pb6 2.174310 1_555
O1 Pb2 2.773252 1_545
O1 Pb1 2.773252 1_455
O2 Ta4 2.012174 1_555
O2 Pb6 2.221203 1_555
O2 Pb3 2.625246 1_455
O2 Pb1 2.722660 1_455
O3 Ta1 2.014828 1_556
O3 Ta0 2.016012 1_566
O3 Pb0 2.794093 1_556
O4 Ta3 2.012174 1_555
O4 Pb6 2.221203 1_555
O4 Pb3 2.625246 1_545
O4 Pb2 2.722660 1_545
O5 Pb3 2.295192 1_555
O5 Pb2 2.326729 1_555
O5 Pb1 2.326729 1_555
O5 Pb0 2.523019 1_556
O6 Ta2 2.014828 1_556
O6 Ta0 2.016012 1_656
O6 Pb0 2.794093 1_556
O7 Ta4 1.985968 1_555
O7 Ta3 1.985968 1_555
O8 Ta1 2.002938 1_556
O8 Pb6 2.215078 1_555
O8 Pb3 2.705838 1_455
O8 Pb2 2.713065 1_555
O9 Ta4 2.001119 1_655
O9 Pb5 2.194723 1_555
O9 Pb4 2.624470 1_655
O9 Pb1 2.681163 1_555
O10 Ta2 2.002938 1_556
O10 Pb6 2.215078 1_555
O10 Pb3 2.705838 1_545
O10 Pb1 2.713065 1_555
O11 Ta3 2.001119 1_565
O11 Pb5 2.194723 1_555
O11 Pb4 2.624470 1_565
O11 Pb2 2.681163 1_555
O12 Pb5 2.184483 1_555
O12 Pb6 2.201121 1_555
O12 Pb1 2.509823 1_555
O12 Pb2 2.509823 1_555
O13 Pb5 2.184483 1_555
O13 Pb10 2.201121 1_555
O13 Pb8 2.509823 1_555
O13 Pb7 2.509823 1_555
O14 Ta2 2.002938 1_565
O14 Pb10 2.215078 1_555
O14 Pb9 2.705838 1_565
O14 Pb7 2.713065 1_555
O15 Ta3 2.001119 1_555
O15 Pb5 2.194723 1_555
O15 Pb4 2.624470 1_655
O15 Pb8 2.681163 1_555
O16 Ta1 2.002938 1_655
O16 Pb10 2.215078 1_555
O16 Pb9 2.705838 1_655
O16 Pb8 2.713065 1_555
O17 Ta4 2.001119 1_555
O17 Pb5 2.194723 1_555
O17 Pb4 2.624470 1_565
O17 Pb7 2.681163 1_555
O18 Ta4 1.985968 1_655
O18 Ta3 1.985968 1_565
O19 Ta2 2.014828 1_565
O19 Ta0 2.016012 1_565
O19 Pb0 2.794093 1_555
O20 Ta3 2.012174 1_565
O20 Pb10 2.221203 1_555
O20 Pb9 2.625246 1_565
O20 Pb8 2.722660 1_565
O21 Ta1 2.014828 1_655
O21 Ta0 2.016012 1_655
O21 Pb0 2.794093 1_555
O22 Pb9 2.295192 1_555
O22 Pb7 2.326729 1_555
O22 Pb8 2.326729 1_555
O22 Pb0 2.523019 1_555
O23 Ta4 2.012174 1_655
O23 Pb10 2.221203 1_555
O23 Pb9 2.625246 1_655
O23 Pb7 2.722660 1_655
O24 Ta0 1.997186 1_665
O24 Pb10 2.174310 1_555
O24 Pb7 2.773252 1_655
O24 Pb8 2.773252 1_565
O25 Ta2 2.010793 1_555
O25 Ta1 2.010793 1_555
O25 Pb0 2.789608 1_555
