# generated using pymatgen
data_Co(BiO3)2
_symmetry_space_group_name_H-M   'P 1'
_cell_length_a   8.80988727
_cell_length_b   8.80987515
_cell_length_c   4.98388134
_cell_angle_alpha   90.00020800
_cell_angle_beta   89.99994362
_cell_angle_gamma   120.00002840
_symmetry_Int_Tables_number   1
_chemical_formula_structural   Co(BiO3)2
_chemical_formula_sum   'Co3 Bi6 O18'
_cell_volume   334.99498568
_cell_formula_units_Z   3
loop_
 _symmetry_equiv_pos_site_id
 _symmetry_equiv_pos_as_xyz
  1  'x, y, z'
loop_
 _atom_site_type_symbol
 _atom_site_label
 _atom_site_symmetry_multiplicity
 _atom_site_fract_x
 _atom_site_fract_y
 _atom_site_fract_z
 _atom_site_occupancy
  Co  Co0  1  -0.00001105  -0.00001469  0.50000486  1
  Co  Co1  1  0.33334084  0.66666835  -0.00021636  1
  Co  Co2  1  0.66666553  0.33334267  0.00021746  1
  Bi  Bi0  1  0.00001355  0.37691271  0.50000462  1
  Bi  Bi1  1  0.28977762  0.28978909  0.00000725  1
  Bi  Bi2  1  0.00000803  0.71021218  0.00000594  1
  Bi  Bi3  1  0.62308862  0.62310171  0.50000444  1
  Bi  Bi4  1  0.37690232  -0.00000693  0.50001020  1
  Bi  Bi5  1  0.71021188  -0.00000365  0.00000493  1
  O  O0  1  0.08171487  0.19929072  0.71600452  1
  O  O1  1  0.23195842  0.46517117  0.21919334  1
  O  O2  1  0.13708529  0.59973398  0.78297967  1
  O  O3  1  0.40026958  0.53735013  0.78298415  1
  O  O4  1  0.23322120  0.76804442  0.21918782  1
  O  O5  1  0.11757253  0.91827817  0.71601089  1
  O  O6  1  0.53483538  0.76678325  0.21918691  1
  O  O7  1  0.19928289  0.08170590  0.28399131  1
  O  O8  1  0.46265737  0.86291472  0.78297202  1
  O  O9  1  0.80070908  0.88242335  0.71601128  1
  O  O10  1  0.46514768  0.23195337  0.78080039  1
  O  O11  1  0.59972352  0.13706409  0.21701348  1
  O  O12  1  0.53733699  0.40027803  0.21702639  1
  O  O13  1  0.76804948  0.23320793  0.78079301  1
  O  O14  1  0.91828898  0.11757976  0.28398917  1
  O  O15  1  0.76679389  0.53484944  0.78080332  1
  O  O16  1  0.86293755  0.46266367  0.21702025  1
  O  O17  1  0.88241596  0.80070645  0.28398475  1
loop_
_geom_bond_atom_site_label_1
_geom_bond_atom_site_label_2
_geom_bond_distance
_geom_bond_site_symmetry_2
Co0 O9 1.869647 1_445
Co0 O17 1.869683 1_445
Co0 O5 1.869726 1_545
Co0 O7 1.869757 1_555
Co0 O0 1.869783 1_555
Co0 O14 1.869783 1_455
Co1 O3 1.866777 1_554
Co1 O8 1.866811 1_554
Co1 O2 1.866844 1_554
Co1 O6 1.886552 1_555
Co1 O4 1.886560 1_555
Co1 O1 1.886589 1_555
Co2 O12 1.866912 1_555
Co2 O16 1.866929 1_555
Co2 O11 1.866969 1_555
Co2 O15 1.886661 1_554
Co2 O10 1.886736 1_554
Co2 O13 1.886761 1_554
Bi0 O2 2.220402 1_555
Bi0 O16 2.220474 1_455
Bi0 O1 2.269347 1_555
Bi0 O13 2.269400 1_455
Bi0 O0 2.291725 1_555
Bi0 O14 2.291787 1_455
Bi1 O0 2.130167 1_554
Bi1 O7 2.130231 1_555
Bi1 O1 2.151080 1_555
Bi1 O10 2.151134 1_554
Bi1 O12 2.179686 1_555
Bi1 O3 2.179708 1_554
Bi2 O5 2.130162 1_554
Bi2 O17 2.130228 1_455
Bi2 O4 2.151134 1_555
Bi2 O15 2.151150 1_454
Bi2 O16 2.179607 1_455
Bi2 O2 2.179680 1_554
Bi3 O3 2.220407 1_555
Bi3 O12 2.220424 1_555
Bi3 O6 2.269308 1_555
Bi3 O15 2.269398 1_555
Bi3 O9 2.291722 1_555
Bi3 O17 2.291766 1_555
Bi4 O8 2.220439 1_545
Bi4 O11 2.220476 1_555
Bi4 O10 2.269387 1_555
Bi4 O4 2.269391 1_545
Bi4 O5 2.291751 1_545
Bi4 O7 2.291817 1_555
Bi5 O9 2.130179 1_544
Bi5 O14 2.130192 1_555
Bi5 O6 2.151125 1_545
Bi5 O13 2.151188 1_554
Bi5 O11 2.179635 1_555
Bi5 O8 2.179694 1_544
