# generated using pymatgen
data_Li2Cr3O6
_symmetry_space_group_name_H-M   'P 1'
_cell_length_a   5.13248991
_cell_length_b   5.13248991
_cell_length_c   10.10035500
_cell_angle_alpha   90.00000000
_cell_angle_beta   90.00000000
_cell_angle_gamma   119.92834141
_symmetry_Int_Tables_number   1
_chemical_formula_structural   Li2Cr3O6
_chemical_formula_sum   'Li4 Cr6 O12'
_cell_volume   230.58795631
_cell_formula_units_Z   2
loop_
 _symmetry_equiv_pos_site_id
 _symmetry_equiv_pos_as_xyz
  1  'x, y, z'
loop_
 _atom_site_type_symbol
 _atom_site_label
 _atom_site_symmetry_multiplicity
 _atom_site_fract_x
 _atom_site_fract_y
 _atom_site_fract_z
 _atom_site_occupancy
  Li  Li0  1  0.15813500  0.65813500  0.75000000  1
  Li  Li1  1  0.34186500  0.84186500  0.25000000  1
  Li  Li2  1  0.65813500  0.15813500  0.75000000  1
  Li  Li3  1  0.84186500  0.34186500  0.25000000  1
  Cr  Cr0  1  0.00000000  0.00000000  0.00000000  1
  Cr  Cr1  1  0.50000000  0.50000000  0.50000000  1
  Cr  Cr2  1  0.33473400  0.66526600  0.00000000  1
  Cr  Cr3  1  0.83473400  0.16526600  0.50000000  1
  Cr  Cr4  1  0.16526600  0.83473400  0.50000000  1
  Cr  Cr5  1  0.66526600  0.33473400  0.00000000  1
  O  O0  1  0.16950000  0.16950000  0.59423300  1
  O  O1  1  0.33050000  0.33050000  0.09423300  1
  O  O2  1  0.66950000  0.66950000  0.90576700  1
  O  O3  1  0.99330200  0.33633100  0.89332100  1
  O  O4  1  0.83050000  0.83050000  0.40576700  1
  O  O5  1  0.16366900  0.50669800  0.39332100  1
  O  O6  1  0.49330200  0.83633100  0.60667900  1
  O  O7  1  0.66366900  0.00669800  0.10667900  1
  O  O8  1  0.00669800  0.66366900  0.10667900  1
  O  O9  1  0.33633100  0.99330200  0.89332100  1
  O  O10  1  0.50669800  0.16366900  0.39332100  1
  O  O11  1  0.83633100  0.49330200  0.60667900  1
loop_
_geom_bond_atom_site_label_1
_geom_bond_atom_site_label_2
_geom_bond_distance
_geom_bond_site_symmetry_2
Li0 O3 2.035911 1_455
Li0 O11 2.035911 1_455
Li0 O9 2.078779 1_555
Li0 O6 2.078779 1_555
Li1 O10 2.035911 1_565
Li1 O7 2.035911 1_565
Li1 O5 2.078779 1_555
Li1 O8 2.078779 1_555
Li2 O9 2.035911 1_545
Li2 O6 2.035911 1_545
Li2 O3 2.078779 1_555
Li2 O11 2.078779 1_555
Li3 O5 2.035911 1_655
Li3 O8 2.035911 1_655
Li3 O7 2.078779 1_555
Li3 O10 2.078779 1_555
Cr0 O1 1.946671 1_555
Cr0 O2 1.946671 1_444
Cr0 O7 2.049686 1_455
Cr0 O8 2.049686 1_545
Cr0 O9 2.049686 1_544
Cr0 O3 2.049686 1_454
Cr1 O0 1.946671 1_555
Cr1 O4 1.946671 1_555
Cr1 O11 2.049686 1_555
Cr1 O6 2.049686 1_555
Cr1 O10 2.049686 1_555
Cr1 O5 2.049686 1_555
Cr2 O2 1.954806 1_554
Cr2 O1 1.954806 1_555
Cr2 O8 1.995481 1_555
Cr2 O9 1.995481 1_554
Cr2 O7 2.032244 1_565
Cr2 O3 2.032244 1_454
Cr3 O0 1.954806 1_655
Cr3 O4 1.954806 1_545
Cr3 O11 1.995481 1_555
Cr3 O10 1.995481 1_555
Cr3 O5 2.032244 1_655
Cr3 O6 2.032244 1_545
Cr4 O0 1.954806 1_565
Cr4 O4 1.954806 1_455
Cr4 O6 1.995481 1_555
Cr4 O5 1.995481 1_555
Cr4 O10 2.032244 1_565
Cr4 O11 2.032244 1_455
Cr5 O2 1.954806 1_554
Cr5 O1 1.954806 1_555
Cr5 O7 1.995481 1_555
Cr5 O3 1.995481 1_554
Cr5 O8 2.032244 1_655
Cr5 O9 2.032244 1_544
