# generated using pymatgen
data_K5H3S5O14
_symmetry_space_group_name_H-M   'P 1'
_cell_length_a   10.78119005
_cell_length_b   10.78119005
_cell_length_c   15.01068903
_cell_angle_alpha   76.08862203
_cell_angle_beta   76.08862203
_cell_angle_gamma   32.22573297
_symmetry_Int_Tables_number   1
_chemical_formula_structural   K5H3S5O14
_chemical_formula_sum   'K10 H6 S10 O28'
_cell_volume   900.79610431
_cell_formula_units_Z   2
loop_
 _symmetry_equiv_pos_site_id
 _symmetry_equiv_pos_as_xyz
  1  'x, y, z'
loop_
 _atom_site_type_symbol
 _atom_site_label
 _atom_site_symmetry_multiplicity
 _atom_site_fract_x
 _atom_site_fract_y
 _atom_site_fract_z
 _atom_site_occupancy
  K  K0  1  0.50000000  0.50000000  0.50000000  1
  K  K1  1  0.50000000  0.50000000  0.00000000  1
  K  K2  1  0.72221100  0.72221100  0.88596100  1
  K  K3  1  0.27778900  0.27778900  0.11403900  1
  K  K4  1  0.92393900  0.92393900  0.69748500  1
  K  K5  1  0.07606100  0.07606100  0.30251500  1
  K  K6  1  0.08480500  0.08480500  0.78447900  1
  K  K7  1  0.91519500  0.91519500  0.21552100  1
  K  K8  1  0.29294200  0.29294200  0.62884000  1
  K  K9  1  0.70705800  0.70705800  0.37116000  1
  H  H0  1  0.61378400  0.61378400  0.64324000  1
  H  H1  1  0.38621600  0.38621600  0.35676000  1
  H  H2  1  0.09421400  0.09421400  0.07414500  1
  H  H3  1  0.90578600  0.90578600  0.92585500  1
  H  H4  1  0.16852200  0.16852200  0.53453600  1
  H  H5  1  0.83147800  0.83147800  0.46546400  1
  S  S0  1  0.34080100  0.34080100  0.84310200  1
  S  S1  1  0.65919900  0.65919900  0.15689800  1
  S  S2  1  0.45474100  0.45474100  0.78801400  1
  S  S3  1  0.54525900  0.54525900  0.21198600  1
  S  S4  1  0.67826300  0.67826300  0.65125900  1
  S  S5  1  0.32173700  0.32173700  0.34874100  1
  S  S6  1  0.12977100  0.12977100  0.98466900  1
  S  S7  1  0.87022900  0.87022900  0.01533100  1
  S  S8  1  0.10708300  0.10708300  0.51742600  1
  S  S9  1  0.89291700  0.89291700  0.48257400  1
  O  O0  1  0.11795000  0.53299400  0.79527700  1
  O  O1  1  0.53299400  0.11795000  0.79527700  1
  O  O2  1  0.88205000  0.46700600  0.20472300  1
  O  O3  1  0.46700600  0.88205000  0.20472300  1
  O  O4  1  0.27318900  0.68647800  0.82344300  1
  O  O5  1  0.68647800  0.27318900  0.82344300  1
  O  O6  1  0.72681100  0.31352200  0.17655700  1
  O  O7  1  0.31352200  0.72681100  0.17655700  1
  O  O8  1  0.46640800  0.46640800  0.68635300  1
  O  O9  1  0.53359200  0.53359200  0.31364700  1
  O  O10  1  0.88911600  0.47838100  0.70317800  1
  O  O11  1  0.47838100  0.88911600  0.70317800  1
  O  O12  1  0.11088400  0.52161900  0.29682200  1
  O  O13  1  0.52161900  0.11088400  0.29682200  1
  O  O14  1  0.72111100  0.72111100  0.55778000  1
  O  O15  1  0.27888900  0.27888900  0.44222000  1
  O  O16  1  0.90384400  0.31393300  0.94474800  1
  O  O17  1  0.31393300  0.90384400  0.94474800  1
  O  O18  1  0.09615600  0.68606700  0.05525200  1
  O  O19  1  0.68606700  0.09615600  0.05525200  1
  O  O20  1  0.20064600  0.20064600  0.98402100  1
  O  O21  1  0.79935400  0.79935400  0.01597900  1
  O  O22  1  0.90084900  0.30866800  0.46315900  1
  O  O23  1  0.30866800  0.90084900  0.46315900  1
  O  O24  1  0.09915100  0.69133200  0.53684100  1
  O  O25  1  0.69133200  0.09915100  0.53684100  1
  O  O26  1  0.05869500  0.05869500  0.60733400  1
  O  O27  1  0.94130500  0.94130500  0.39266600  1
loop_
_geom_bond_atom_site_label_1
_geom_bond_atom_site_label_2
_geom_bond_distance
_geom_bond_site_symmetry_2
K0 O9 2.708283 1_555
K0 O8 2.708283 1_555
K0 O23 2.748465 1_555
K0 O22 2.748465 1_555
K0 O25 2.748465 1_555
K0 O24 2.748465 1_555
K1 O16 2.820467 1_554
K1 O17 2.820467 1_554
K1 O18 2.820467 1_555
K1 O19 2.820467 1_555
K1 O4 3.046577 1_554
K1 O5 3.046577 1_554
K1 O6 3.046577 1_555
K1 O7 3.046577 1_555
K2 O21 2.814908 1_556
K2 O0 2.834548 1_655
K2 O1 2.834548 1_565
K2 O16 2.892785 1_555
K2 O17 2.892785 1_555
K2 O10 3.281342 1_555
K2 O11 3.281342 1_555
K2 O20 3.315086 1_565
K2 O20 3.315086 1_655
K3 O20 2.814908 1_554
K3 O2 2.834548 1_455
K3 O3 2.834548 1_545
K3 O19 2.892785 1_555
K3 O18 2.892785 1_555
K3 O13 3.281342 1_555
K3 O12 3.281342 1_555
K3 O21 3.315086 1_545
K3 O21 3.315086 1_455
K4 O26 2.780847 1_665
K4 O1 2.807179 1_565
K4 O0 2.807179 1_655
K4 O25 2.893891 1_565
K4 O24 2.893891 1_655
K4 O4 3.015456 1_655
K4 O5 3.015456 1_565
K4 O8 3.111436 1_565
K4 O8 3.111436 1_655
K5 O27 2.780847 1_445
K5 O2 2.807179 1_455
K5 O3 2.807179 1_545
K5 O23 2.893891 1_545
K5 O22 2.893891 1_455
K5 O6 3.015456 1_455
K5 O7 3.015456 1_545
K5 O9 3.111436 1_545
K5 O9 3.111436 1_455
K6 O5 2.741506 1_455
K6 O4 2.741506 1_545
K6 O11 2.747205 1_545
K6 O10 2.747205 1_455
K6 O26 2.843067 1_555
K6 O16 2.853567 1_455
K6 O17 2.853567 1_545
K7 O7 2.741506 1_655
K7 O6 2.741506 1_565
K7 O13 2.747205 1_565
K7 O12 2.747205 1_655
K7 O27 2.843067 1_555
K7 O19 2.853567 1_565
K7 O18 2.853567 1_655
K8 O25 2.841258 1_555
K8 O24 2.841258 1_555
K8 O11 2.864801 1_545
K8 O10 2.864801 1_455
K8 O15 2.887933 1_555
K8 O0 3.013404 1_555
K8 O1 3.013404 1_555
K9 O23 2.841258 1_555
K9 O22 2.841258 1_555
K9 O12 2.864801 1_655
K9 O13 2.864801 1_565
K9 O14 2.887933 1_555
K9 O3 3.013404 1_555
K9 O2 3.013404 1_555
H0 S4 1.370790 1_555
H1 S5 1.370790 1_555
H2 S6 1.360628 1_554
H3 S7 1.360628 1_556
H4 S8 1.359930 1_555
H5 S9 1.359930 1_555
O0 S0 1.507481 1_555
O1 S0 1.507481 1_555
O2 S1 1.507481 1_555
O3 S1 1.507481 1_555
O4 S2 1.490157 1_555
O5 S2 1.490157 1_555
O6 S3 1.490157 1_555
O7 S3 1.490157 1_555
O8 S2 1.484083 1_555
O9 S3 1.484083 1_555
O10 S4 1.474774 1_555
O11 S4 1.474774 1_555
O12 S5 1.474774 1_555
O13 S5 1.474774 1_555
O14 S4 1.460620 1_555
O15 S5 1.460620 1_555
O16 S6 1.477014 1_655
O17 S6 1.477014 1_565
O18 S7 1.477014 1_455
O19 S7 1.477014 1_545
O20 S6 1.465796 1_555
O21 S7 1.465796 1_555
O22 S8 1.474612 1_655
O23 S8 1.474612 1_565
O24 S9 1.474612 1_455
O25 S9 1.474612 1_545
O26 S8 1.465964 1_555
O27 S9 1.465964 1_555
