# generated using pymatgen
data_Bi19O30
_symmetry_space_group_name_H-M   'P 1'
_cell_length_a   14.72580816
_cell_length_b   14.72580816
_cell_length_c   9.00257400
_cell_angle_alpha   90.00000000
_cell_angle_beta   90.00000000
_cell_angle_gamma   120.00000070
_symmetry_Int_Tables_number   1
_chemical_formula_structural   Bi19O30
_chemical_formula_sum   'Bi38 O60'
_cell_volume   1690.65738213
_cell_formula_units_Z   2
loop_
 _symmetry_equiv_pos_site_id
 _symmetry_equiv_pos_as_xyz
  1  'x, y, z'
loop_
 _atom_site_type_symbol
 _atom_site_label
 _atom_site_symmetry_multiplicity
 _atom_site_fract_x
 _atom_site_fract_y
 _atom_site_fract_z
 _atom_site_occupancy
  Bi  Bi0  1  0.14522300  0.98873600  0.31921400  1
  Bi  Bi1  1  0.36956900  0.93365000  0.22306100  1
  Bi  Bi2  1  0.51219000  0.82988400  0.01691500  1
  Bi  Bi3  1  0.84351300  0.85477700  0.31921400  1
  Bi  Bi4  1  0.95400900  0.73821000  0.08301900  1
  Bi  Bi5  1  0.61786600  0.88887500  0.42710600  1
  Bi  Bi6  1  0.17011600  0.68230700  0.01691500  1
  Bi  Bi7  1  0.56408000  0.63043100  0.22306100  1
  Bi  Bi8  1  0.21866900  0.95954300  0.90721200  1
  Bi  Bi9  1  0.11112500  0.72899000  0.42710600  1
  Bi  Bi10  1  0.33333300  0.66666700  0.33910100  1
  Bi  Bi11  1  0.98243400  0.83749100  0.67336900  1
  Bi  Bi12  1  0.33604500  0.82261900  0.68577100  1
  Bi  Bi13  1  0.67771200  0.49242700  0.01441600  1
  Bi  Bi14  1  0.31769300  0.48781000  0.01691500  1
  Bi  Bi15  1  0.48657400  0.66395500  0.68577100  1
  Bi  Bi16  1  0.06635000  0.43592000  0.22306100  1
  Bi  Bi17  1  0.74087400  0.78133100  0.90721200  1
  Bi  Bi18  1  0.81471500  0.32228800  0.01441600  1
  Bi  Bi19  1  0.70464100  0.61016300  0.56109500  1
  Bi  Bi20  1  0.84859200  0.49957700  0.34062000  1
  Bi  Bi21  1  0.17738100  0.51342600  0.68577100  1
  Bi  Bi22  1  0.50757300  0.18528500  0.01441600  1
  Bi  Bi23  1  0.27101000  0.38213400  0.42710600  1
  Bi  Bi24  1  0.94782800  0.55625000  0.74686700  1
  Bi  Bi25  1  0.50042300  0.34901400  0.34062000  1
  Bi  Bi26  1  0.26179000  0.21579900  0.08301900  1
  Bi  Bi27  1  0.78420100  0.04599100  0.08301900  1
  Bi  Bi28  1  0.90552300  0.29535900  0.56109500  1
  Bi  Bi29  1  0.44375000  0.39157800  0.74686700  1
  Bi  Bi30  1  0.66666700  0.33333300  0.66191600  1
  Bi  Bi31  1  0.01126400  0.15648700  0.31921400  1
  Bi  Bi32  1  0.65098600  0.15140800  0.34062000  1
  Bi  Bi33  1  0.38983700  0.09447700  0.56109500  1
  Bi  Bi34  1  0.04045700  0.25912600  0.90721200  1
  Bi  Bi35  1  0.16250900  0.14494300  0.67336900  1
  Bi  Bi36  1  0.60842200  0.05217200  0.74686700  1
  Bi  Bi37  1  0.85505700  0.01756600  0.67336900  1
  O  O0  1  0.81249900  0.90513100  0.09343100  1
  O  O1  1  0.09486900  0.90736800  0.09343100  1
  O  O2  1  0.79012000  0.95371900  0.40487000  1
  O  O3  1  0.29926900  0.95792500  0.41181600  1
  O  O4  1  0.57461900  0.78745700  0.21464900  1
  O  O5  1  0.21254300  0.78716200  0.21464900  1
  O  O6  1  0.70681900  0.67464800  0.08498300  1
  O  O7  1  0.04628100  0.83640100  0.40487000  1
  O  O8  1  0.40886200  0.81890700  0.41075800  1
  O  O9  1  0.33333300  0.66666700  0.11106800  1
  O  O10  1  0.49495000  0.87940500  0.74311800  1
  O  O11  1  0.83327400  0.55015800  0.08336400  1
  O  O12  1  0.83846700  0.79938900  0.57515000  1
  O  O13  1  0.00507000  0.62638000  0.26550000  1
  O  O14  1  0.65865600  0.70073100  0.41181600  1
  O  O15  1  0.66683300  0.95157300  0.92865900  1
  O  O16  1  0.41004500  0.59113800  0.41075800  1
  O  O17  1  0.18109300  0.58995500  0.41075800  1
  O  O18  1  0.28927100  0.82245900  0.92053100  1
  O  O19  1  0.96023500  0.66887500  0.59151900  1
  O  O20  1  0.61990600  0.48978000  0.24459200  1
  O  O21  1  0.88037100  0.75926800  0.87677900  1
  O  O22  1  0.21283800  0.42538100  0.21464900  1
  O  O23  1  0.66666700  0.33333300  0.03715600  1
  O  O24  1  0.33333300  0.66666700  0.70424600  1
  O  O25  1  0.37362000  0.37869000  0.26550000  1
  O  O26  1  0.04842700  0.71526000  0.92865900  1
  O  O27  1  0.12059500  0.61554600  0.74311800  1
  O  O28  1  0.44984200  0.28311700  0.08336400  1
  O  O29  1  0.63447000  0.63395600  0.74922300  1
  O  O30  1  0.96782900  0.29318100  0.08498300  1
  O  O31  1  0.86987500  0.38009400  0.24459200  1
  O  O32  1  0.53318800  0.71072900  0.92053100  1
  O  O33  1  0.91424000  0.45592300  0.54394100  1
  O  O34  1  0.54407700  0.45831700  0.54394100  1
  O  O35  1  0.71688300  0.16672600  0.08336400  1
  O  O36  1  0.04207500  0.34134400  0.41181600  1
  O  O37  1  0.38445400  0.50505000  0.74311800  1
  O  O38  1  0.66666700  0.33333300  0.43521300  1
  O  O39  1  0.09263200  0.18750100  0.09343100  1
  O  O40  1  0.74377300  0.48414300  0.74062700  1
  O  O41  1  0.16359900  0.20988000  0.40487000  1
  O  O42  1  0.51022000  0.13012500  0.24459200  1
  O  O43  1  0.17754100  0.46681200  0.92053100  1
  O  O44  1  0.99948600  0.36553000  0.74922300  1
  O  O45  1  0.32535200  0.03217100  0.08498300  1
  O  O46  1  0.33112500  0.29136000  0.59151900  1
  O  O47  1  0.74037000  0.25622700  0.74062700  1
  O  O48  1  0.51585700  0.25963000  0.74062700  1
  O  O49  1  0.96092300  0.16153300  0.57515000  1
  O  O50  1  0.28474000  0.33316700  0.92865900  1
  O  O51  1  0.62131000  0.99493000  0.26550000  1
  O  O52  1  0.00000000  0.00000000  0.35073300  1
  O  O53  1  0.54168300  0.08576000  0.54394100  1
  O  O54  1  0.70864000  0.03976500  0.59151900  1
  O  O55  1  0.20061100  0.03907700  0.57515000  1
  O  O56  1  0.24073200  0.12110200  0.87677900  1
  O  O57  1  0.87889800  0.11962900  0.87677900  1
  O  O58  1  0.36604400  0.00051400  0.74922300  1
  O  O59  1  0.00000000  0.00000000  0.71404500  1
loop_
_geom_bond_atom_site_label_1
_geom_bond_atom_site_label_2
_geom_bond_distance
_geom_bond_site_symmetry_2
Bi0 O7 2.116898 1_555
Bi0 O52 2.244113 1_565
Bi0 O1 2.286621 1_555
Bi0 O55 2.432891 1_565
Bi0 O3 2.660066 1_555
Bi1 O3 2.111182 1_555
Bi1 O5 2.240062 1_555
Bi1 O45 2.240234 1_565
Bi1 O42 2.589565 1_565
Bi1 O8 2.650056 1_555
Bi2 O32 2.114212 1_554
Bi2 O15 2.224302 1_554
Bi2 O4 2.231291 1_555
Bi2 O10 2.618586 1_554
Bi2 O9 2.664935 1_555
Bi3 O2 2.116898 1_555
Bi3 O52 2.244113 1_665
Bi3 O0 2.286621 1_555
Bi3 O12 2.432893 1_555
Bi3 O14 2.660066 1_555
Bi4 O26 2.109113 1_654
Bi4 O21 2.248466 1_554
Bi4 O1 2.312884 1_655
Bi4 O11 2.430253 1_555
Bi4 O13 2.685947 1_655
Bi5 O51 2.116380 1_555
Bi5 O2 2.227998 1_555
Bi5 O4 2.311528 1_555
Bi5 O54 2.438167 1_565
Bi5 O8 2.717480 1_555
Bi6 O18 2.114204 1_554
Bi6 O26 2.224293 1_554
Bi6 O5 2.231282 1_555
Bi6 O27 2.618586 1_554
Bi6 O9 2.664935 1_555
Bi7 O14 2.111188 1_555
Bi7 O4 2.240056 1_555
Bi7 O6 2.240246 1_555
Bi7 O20 2.589586 1_555
Bi7 O16 2.650045 1_555
Bi8 O45 2.119657 1_566
Bi8 O56 2.251160 1_565
Bi8 O1 2.307302 1_556
Bi8 O58 2.405711 1_565
Bi8 O18 2.696125 1_555
Bi9 O13 2.116375 1_555
Bi9 O7 2.228011 1_555
Bi9 O5 2.311529 1_555
Bi9 O19 2.438168 1_455
Bi9 O17 2.717466 1_555
Bi10 O8 2.045891 1_555
Bi10 O17 2.045891 1_555
Bi10 O16 2.045903 1_555
Bi10 O9 2.052884 1_555
Bi11 O12 2.098019 1_555
Bi11 O21 2.282070 1_555
Bi11 O59 2.304082 1_665
Bi11 O19 2.450196 1_555
Bi11 O7 2.596554 1_655
Bi12 O10 2.117702 1_555
Bi12 O18 2.222488 1_555
Bi12 O24 2.282881 1_555
Bi12 O58 2.495347 1_565
Bi12 O8 2.709449 1_555
Bi13 O11 2.099570 1_555
Bi13 O20 2.233129 1_555
Bi13 O23 2.275076 1_555
Bi13 O6 2.576341 1_555
Bi13 O40 2.674913 1_554
Bi14 O43 2.114199 1_554
Bi14 O50 2.224306 1_554
Bi14 O22 2.231283 1_555
Bi14 O37 2.618586 1_554
Bi14 O9 2.664935 1_555
Bi15 O37 2.117704 1_555
Bi15 O32 2.222488 1_555
Bi15 O24 2.282895 1_555
Bi15 O29 2.495347 1_555
Bi15 O16 2.709449 1_555
Bi16 O36 2.111190 1_555
Bi16 O22 2.240070 1_555
Bi16 O30 2.240243 1_455
Bi16 O31 2.589558 1_455
Bi16 O17 2.650048 1_555
Bi17 O6 2.119657 1_556
Bi17 O21 2.251174 1_555
Bi17 O0 2.307302 1_556
Bi17 O29 2.405711 1_555
Bi17 O32 2.696125 1_555
Bi18 O35 2.099572 1_555
Bi18 O31 2.233131 1_555
Bi18 O23 2.275062 1_555
Bi18 O30 2.576341 1_555
Bi18 O47 2.674913 1_554
Bi19 O29 2.102610 1_555
Bi19 O14 2.224063 1_555
Bi19 O34 2.308102 1_555
Bi19 O12 2.484534 1_555
Bi19 O40 2.730842 1_555
Bi20 O31 2.119624 1_555
Bi20 O13 2.225085 1_655
Bi20 O33 2.306436 1_555
Bi20 O11 2.477376 1_555
Bi20 O38 2.708670 1_555
Bi21 O27 2.117715 1_555
Bi21 O43 2.222488 1_555
Bi21 O24 2.282888 1_555
Bi21 O44 2.495347 1_455
Bi21 O17 2.709449 1_555
Bi22 O28 2.099583 1_555
Bi22 O42 2.233134 1_555
Bi22 O23 2.275070 1_555
Bi22 O45 2.576341 1_555
Bi22 O48 2.674913 1_554
Bi23 O25 2.116369 1_555
Bi23 O41 2.228000 1_555
Bi23 O22 2.311536 1_555
Bi23 O46 2.438157 1_555
Bi23 O16 2.717477 1_555
Bi24 O19 2.106386 1_555
Bi24 O27 2.239355 1_655
Bi24 O33 2.243659 1_555
Bi24 O26 2.624325 1_655
Bi24 O40 2.639932 1_555
Bi25 O20 2.119624 1_555
Bi25 O25 2.225094 1_555
Bi25 O34 2.306444 1_555
Bi25 O28 2.477369 1_555
Bi25 O38 2.708670 1_555
Bi26 O50 2.109113 1_554
Bi26 O56 2.248474 1_554
Bi26 O39 2.312884 1_555
Bi26 O28 2.430250 1_555
Bi26 O25 2.685947 1_555
Bi27 O15 2.109113 1_544
Bi27 O57 2.248472 1_554
Bi27 O0 2.312884 1_545
Bi27 O35 2.430264 1_555
Bi27 O51 2.685947 1_545
Bi28 O44 2.102604 1_555
Bi28 O36 2.224052 1_655
Bi28 O33 2.308109 1_555
Bi28 O49 2.484534 1_555
Bi28 O47 2.730854 1_555
Bi29 O46 2.106386 1_555
Bi29 O37 2.239369 1_555
Bi29 O34 2.243659 1_555
Bi29 O50 2.624325 1_555
Bi29 O48 2.639932 1_555
Bi30 O38 2.040911 1_555
Bi30 O47 2.049794 1_555
Bi30 O40 2.049806 1_555
Bi30 O48 2.049806 1_555
Bi31 O41 2.116898 1_555
Bi31 O52 2.244113 1_555
Bi31 O39 2.286621 1_555
Bi31 O49 2.432889 1_455
Bi31 O36 2.660066 1_555
Bi32 O42 2.119624 1_555
Bi32 O51 2.225081 1_545
Bi32 O53 2.306443 1_555
Bi32 O35 2.477366 1_555
Bi32 O38 2.708670 1_555
Bi33 O58 2.102602 1_555
Bi33 O3 2.224054 1_545
Bi33 O53 2.308094 1_555
Bi33 O55 2.484534 1_555
Bi33 O48 2.730850 1_555
Bi34 O30 2.119657 1_456
Bi34 O57 2.251165 1_455
Bi34 O39 2.307302 1_556
Bi34 O44 2.405711 1_455
Bi34 O43 2.696125 1_555
Bi35 O55 2.098032 1_555
Bi35 O56 2.282076 1_555
Bi35 O59 2.304082 1_555
Bi35 O46 2.450196 1_555
Bi35 O41 2.596554 1_555
Bi36 O54 2.106386 1_555
Bi36 O10 2.239358 1_545
Bi36 O53 2.243659 1_555
Bi36 O15 2.624325 1_545
Bi36 O47 2.639932 1_555
Bi37 O49 2.098022 1_555
Bi37 O57 2.282067 1_555
Bi37 O59 2.304082 1_655
Bi37 O54 2.450196 1_555
Bi37 O2 2.596554 1_545
