# generated using pymatgen
data_TiMnO4
_symmetry_space_group_name_H-M   'P 1'
_cell_length_a   3.78243660
_cell_length_b   3.78244205
_cell_length_c   9.54131888
_cell_angle_alpha   90.00007058
_cell_angle_beta   90.00003338
_cell_angle_gamma   89.99997849
_symmetry_Int_Tables_number   1
_chemical_formula_structural   TiMnO4
_chemical_formula_sum   'Ti2 Mn2 O8'
_cell_volume   136.50619190
_cell_formula_units_Z   2
loop_
 _symmetry_equiv_pos_site_id
 _symmetry_equiv_pos_as_xyz
  1  'x, y, z'
loop_
 _atom_site_type_symbol
 _atom_site_label
 _atom_site_symmetry_multiplicity
 _atom_site_fract_x
 _atom_site_fract_y
 _atom_site_fract_z
 _atom_site_occupancy
  Ti  Ti0  1  0.50000000  0.00000000  0.75000500  1
  Ti  Ti1  1  0.99999900  0.50000200  0.24999300  1
  Mn  Mn0  1  0.50000000  0.49999400  0.50000100  1
  Mn  Mn1  1  0.00000500  0.00000000  0.00000500  1
  O  O0  1  0.49999800  0.99999900  0.95932900  1
  O  O1  1  0.00000400  0.50000000  0.45931200  1
  O  O2  1  0.50000000  0.99999900  0.54068800  1
  O  O3  1  0.99999900  0.50000300  0.04066900  1
  O  O4  1  0.99999900  0.00000100  0.79902400  1
  O  O5  1  0.49999900  0.50000200  0.29899100  1
  O  O6  1  0.00000000  0.00000000  0.20097600  1
  O  O7  1  0.49999800  0.50000000  0.70100700  1
loop_
_geom_bond_atom_site_label_1
_geom_bond_atom_site_label_2
_geom_bond_distance
_geom_bond_site_symmetry_2
Mn0 O7 1.917862 1_555
Mn0 O5 1.917901 1_555
Mn0 O2 1.930635 1_545
Mn0 O1 1.930639 1_555
Mn0 O1 1.930670 1_655
Mn0 O2 1.930671 1_555
Mn1 O6 1.917528 1_555
Mn1 O4 1.917624 1_454
Mn1 O3 1.930599 1_445
Mn1 O0 1.930604 1_544
Mn1 O3 1.930620 1_455
Mn1 O0 1.930655 1_444
O0 Ti0 1.997227 1_565
O1 Ti1 1.997179 1_455
O2 Ti0 1.997160 1_565
O3 Ti1 1.997227 1_555
O4 Ti0 1.948189 1_555
O4 Ti0 1.948197 1_655
O5 Ti1 1.948145 1_455
O5 Ti1 1.948145 1_555
O6 Ti1 1.948184 1_445
O6 Ti1 1.948198 1_455
O7 Ti0 1.948147 1_565
O7 Ti0 1.948148 1_555
