# generated using pymatgen
data_ZnH10C4N6(ClO2)2
_symmetry_space_group_name_H-M   'P 1'
_cell_length_a   7.36645500
_cell_length_b   8.15043600
_cell_length_c   11.70835040
_cell_angle_alpha   55.18760601
_cell_angle_beta   90.00000000
_cell_angle_gamma   90.00000000
_symmetry_Int_Tables_number   1
_chemical_formula_structural   ZnH10C4N6(ClO2)2
_chemical_formula_sum   'Zn2 H20 C8 N12 Cl4 O8'
_cell_volume   577.15420420
_cell_formula_units_Z   2
loop_
 _symmetry_equiv_pos_site_id
 _symmetry_equiv_pos_as_xyz
  1  'x, y, z'
loop_
 _atom_site_type_symbol
 _atom_site_label
 _atom_site_symmetry_multiplicity
 _atom_site_fract_x
 _atom_site_fract_y
 _atom_site_fract_z
 _atom_site_occupancy
  Zn  Zn0  1  0.50000000  0.00000000  0.50000000  1
  Zn  Zn1  1  0.00000000  0.00000000  0.00000000  1
  H  H0  1  0.14721400  0.66782600  0.80106100  1
  H  H1  1  0.64721400  0.33217400  0.69893900  1
  H  H2  1  0.85278600  0.33217400  0.19893900  1
  H  H3  1  0.35278600  0.66782600  0.30106100  1
  H  H4  1  0.92830000  0.59996900  0.79029900  1
  H  H5  1  0.42830000  0.40003100  0.70970100  1
  H  H6  1  0.07170000  0.40003100  0.20970100  1
  H  H7  1  0.57170000  0.59996900  0.29029900  1
  H  H8  1  0.40190100  0.88338200  0.98144000  1
  H  H9  1  0.90190100  0.11661800  0.51856000  1
  H  H10  1  0.59809900  0.11661800  0.01856000  1
  H  H11  1  0.09809900  0.88338200  0.48144000  1
  H  H12  1  0.42805700  0.76243500  0.89643700  1
  H  H13  1  0.92805700  0.23756500  0.60356300  1
  H  H14  1  0.57194300  0.23756500  0.10356300  1
  H  H15  1  0.07194300  0.76243500  0.39643700  1
  H  H16  1  0.68954600  0.70072200  0.84985500  1
  H  H17  1  0.18954600  0.29927800  0.65014500  1
  H  H18  1  0.31045400  0.29927800  0.15014500  1
  H  H19  1  0.81045400  0.70072200  0.34985500  1
  C  C0  1  0.95265500  0.76568800  0.87476300  1
  C  C1  1  0.45265500  0.23431200  0.62523700  1
  C  C2  1  0.04734500  0.23431200  0.12523700  1
  C  C3  1  0.54734500  0.76568800  0.37476300  1
  C  C4  1  0.66343600  0.83934200  0.94951700  1
  C  C5  1  0.16343600  0.16065800  0.55048300  1
  C  C6  1  0.33656400  0.16065800  0.05048300  1
  C  C7  1  0.83656400  0.83934200  0.44951700  1
  N  N0  1  0.76532800  0.76055200  0.89190200  1
  N  N1  1  0.26532800  0.23944800  0.60809800  1
  N  N2  1  0.23467200  0.23944800  0.10809800  1
  N  N3  1  0.73467200  0.76055200  0.39190200  1
  N  N4  1  0.01114500  0.67176100  0.81789100  1
  N  N5  1  0.51114500  0.32823900  0.68210900  1
  N  N6  1  0.98885500  0.32823900  0.18210900  1
  N  N7  1  0.48885500  0.67176100  0.31789100  1
  N  N8  1  0.48399400  0.81939300  0.94663100  1
  N  N9  1  0.98399400  0.18060700  0.55336900  1
  N  N10  1  0.51600600  0.18060700  0.05336900  1
  N  N11  1  0.01600600  0.81939300  0.44663100  1
  Cl  Cl0  1  0.44521400  0.67116600  0.74151100  1
  Cl  Cl1  1  0.94521400  0.32883400  0.75848900  1
  Cl  Cl2  1  0.55478600  0.32883400  0.25848900  1
  Cl  Cl3  1  0.05478600  0.67116600  0.24151100  1
  O  O0  1  0.06187800  0.84984800  0.90864200  1
  O  O1  1  0.56187800  0.15015200  0.59135800  1
  O  O2  1  0.93812200  0.15015200  0.09135800  1
  O  O3  1  0.43812200  0.84984800  0.40864200  1
  O  O4  1  0.73177900  0.92250300  0.00354300  1
  O  O5  1  0.23177900  0.07749700  0.49645700  1
  O  O6  1  0.26822100  0.07749700  0.99645700  1
  O  O7  1  0.76822100  0.92250300  0.50354300  1
loop_
_geom_bond_atom_site_label_1
_geom_bond_atom_site_label_2
_geom_bond_distance
_geom_bond_site_symmetry_2
H0 N4 1.025559 1_555
H1 N5 1.025559 1_555
H2 N6 1.025559 1_555
H3 N7 1.025559 1_555
H4 N4 1.017358 1_655
H5 N5 1.017358 1_555
H6 N6 1.017358 1_455
H7 N7 1.017358 1_555
H8 N8 1.022986 1_555
H9 N9 1.022986 1_555
H10 N10 1.022986 1_555
H11 N11 1.022986 1_555
H12 N8 1.020876 1_555
H13 N9 1.020876 1_555
H14 N10 1.020876 1_555
H15 N11 1.020876 1_555
H16 N0 1.032421 1_555
H17 N1 1.032421 1_555
H18 N2 1.032421 1_555
H19 N3 1.032421 1_555
C0 O0 1.259320 1_655
C0 N4 1.340571 1_655
C0 N0 1.391637 1_555
C1 O1 1.259320 1_555
C1 N5 1.340571 1_555
C1 N1 1.391637 1_555
C2 O2 1.259320 1_455
C2 N6 1.340571 1_455
C2 N2 1.391637 1_555
C3 O3 1.259320 1_555
C3 N7 1.340571 1_555
C3 N3 1.391637 1_555
C4 O4 1.265910 1_556
C4 N8 1.334595 1_555
C4 N0 1.387598 1_555
C5 O5 1.265910 1_555
C5 N9 1.334595 1_455
C5 N1 1.387598 1_555
C6 O6 1.265910 1_554
C6 N10 1.334595 1_555
C6 N2 1.387598 1_555
C7 O7 1.265910 1_555
C7 N11 1.334595 1_655
C7 N3 1.387598 1_555
Cl0 Zn0 2.586263 1_565
Cl1 Zn1 2.586263 1_656
Cl2 Zn0 2.586263 1_555
Cl3 Zn1 2.586263 1_565
O0 Zn1 2.084291 1_566
O1 Zn0 2.084291 1_555
O2 Zn1 2.084291 1_655
O3 Zn0 2.084291 1_565
O4 Zn1 2.067535 1_665
O5 Zn0 2.067535 1_555
O6 Zn1 2.067535 1_556
O7 Zn0 2.067535 1_565
