# generated using pymatgen
data_Si17NO34
_symmetry_space_group_name_H-M   'P 1'
_cell_length_a   14.16258515
_cell_length_b   14.16258515
_cell_length_c   14.16258515
_cell_angle_alpha   60.00000000
_cell_angle_beta   60.00000000
_cell_angle_gamma   60.00000000
_symmetry_Int_Tables_number   1
_chemical_formula_structural   Si17NO34
_chemical_formula_sum   'Si34 N2 O68'
_cell_volume   2008.68855154
_cell_formula_units_Z   2
loop_
 _symmetry_equiv_pos_site_id
 _symmetry_equiv_pos_as_xyz
  1  'x, y, z'
loop_
 _atom_site_type_symbol
 _atom_site_label
 _atom_site_symmetry_multiplicity
 _atom_site_fract_x
 _atom_site_fract_y
 _atom_site_fract_z
 _atom_site_occupancy
  Si  Si0  1  0.50000000  0.50000000  0.50000000  1
  Si  Si1  1  0.75000000  0.75000000  0.75000000  1
  Si  Si2  1  0.77610600  0.40796500  0.40796500  1
  Si  Si3  1  0.40796500  0.77610600  0.40796500  1
  Si  Si4  1  0.40796500  0.40796500  0.77610600  1
  Si  Si5  1  0.40796500  0.40796500  0.40796500  1
  Si  Si6  1  0.47389400  0.84203500  0.84203500  1
  Si  Si7  1  0.84203500  0.47389400  0.84203500  1
  Si  Si8  1  0.84203500  0.84203500  0.47389400  1
  Si  Si9  1  0.84203500  0.84203500  0.84203500  1
  Si  Si10  1  0.86029000  0.25459000  0.25459000  1
  Si  Si11  1  0.25459000  0.86029000  0.63053000  1
  Si  Si12  1  0.25459000  0.63053000  0.86029000  1
  Si  Si13  1  0.63053000  0.25459000  0.25459000  1
  Si  Si14  1  0.25459000  0.25459000  0.86029000  1
  Si  Si15  1  0.86029000  0.63053000  0.25459000  1
  Si  Si16  1  0.63053000  0.86029000  0.25459000  1
  Si  Si17  1  0.25459000  0.25459000  0.63053000  1
  Si  Si18  1  0.25459000  0.86029000  0.25459000  1
  Si  Si19  1  0.63053000  0.25459000  0.86029000  1
  Si  Si20  1  0.86029000  0.25459000  0.63053000  1
  Si  Si21  1  0.25459000  0.63053000  0.25459000  1
  Si  Si22  1  0.38971000  0.99541000  0.99541000  1
  Si  Si23  1  0.99541000  0.38971000  0.61947000  1
  Si  Si24  1  0.99541000  0.61947000  0.38971000  1
  Si  Si25  1  0.61947000  0.99541000  0.99541000  1
  Si  Si26  1  0.99541000  0.99541000  0.38971000  1
  Si  Si27  1  0.38971000  0.61947000  0.99541000  1
  Si  Si28  1  0.61947000  0.38971000  0.99541000  1
  Si  Si29  1  0.99541000  0.99541000  0.61947000  1
  Si  Si30  1  0.99541000  0.38971000  0.99541000  1
  Si  Si31  1  0.61947000  0.99541000  0.38971000  1
  Si  Si32  1  0.38971000  0.99541000  0.61947000  1
  Si  Si33  1  0.99541000  0.61947000  0.99541000  1
  N  N0  1  0.00000000  0.00000000  0.00000000  1
  N  N1  1  0.25000000  0.25000000  0.25000000  1
  O  O0  1  0.12500000  0.62500000  0.93804400  1
  O  O1  1  0.62500000  0.12500000  0.31195600  1
  O  O2  1  0.93804400  0.31195600  0.12500000  1
  O  O3  1  0.31195600  0.93804400  0.62500000  1
  O  O4  1  0.62500000  0.93804400  0.12500000  1
  O  O5  1  0.12500000  0.31195600  0.62500000  1
  O  O6  1  0.31195600  0.12500000  0.93804400  1
  O  O7  1  0.93804400  0.62500000  0.31195600  1
  O  O8  1  0.93804400  0.12500000  0.62500000  1
  O  O9  1  0.31195600  0.62500000  0.12500000  1
  O  O10  1  0.12500000  0.93804400  0.31195600  1
  O  O11  1  0.62500000  0.31195600  0.93804400  1
  O  O12  1  0.12500000  0.93804400  0.62500000  1
  O  O13  1  0.62500000  0.31195600  0.12500000  1
  O  O14  1  0.93804400  0.12500000  0.31195600  1
  O  O15  1  0.31195600  0.62500000  0.93804400  1
  O  O16  1  0.62500000  0.12500000  0.93804400  1
  O  O17  1  0.12500000  0.62500000  0.31195600  1
  O  O18  1  0.31195600  0.93804400  0.12500000  1
  O  O19  1  0.93804400  0.31195600  0.62500000  1
  O  O20  1  0.93804400  0.62500000  0.12500000  1
  O  O21  1  0.31195600  0.12500000  0.62500000  1
  O  O22  1  0.12500000  0.31195600  0.93804400  1
  O  O23  1  0.62500000  0.93804400  0.31195600  1
  O  O24  1  0.81953000  0.33114500  0.33114500  1
  O  O25  1  0.33114500  0.81953000  0.51818000  1
  O  O26  1  0.33114500  0.51818000  0.81953000  1
  O  O27  1  0.51818000  0.33114500  0.33114500  1
  O  O28  1  0.33114500  0.33114500  0.81953000  1
  O  O29  1  0.81953000  0.51818000  0.33114500  1
  O  O30  1  0.51818000  0.81953000  0.33114500  1
  O  O31  1  0.33114500  0.33114500  0.51818000  1
  O  O32  1  0.33114500  0.81953000  0.33114500  1
  O  O33  1  0.51818000  0.33114500  0.81953000  1
  O  O34  1  0.81953000  0.33114500  0.51818000  1
  O  O35  1  0.33114500  0.51818000  0.33114500  1
  O  O36  1  0.43047000  0.91885500  0.91885500  1
  O  O37  1  0.91885500  0.43047000  0.73182000  1
  O  O38  1  0.91885500  0.73182000  0.43047000  1
  O  O39  1  0.73182000  0.91885500  0.91885500  1
  O  O40  1  0.91885500  0.91885500  0.43047000  1
  O  O41  1  0.43047000  0.73182000  0.91885500  1
  O  O42  1  0.73182000  0.43047000  0.91885500  1
  O  O43  1  0.91885500  0.91885500  0.73182000  1
  O  O44  1  0.91885500  0.43047000  0.91885500  1
  O  O45  1  0.73182000  0.91885500  0.43047000  1
  O  O46  1  0.43047000  0.91885500  0.73182000  1
  O  O47  1  0.91885500  0.73182000  0.91885500  1
  O  O48  1  0.74850400  0.25149600  0.25149600  1
  O  O49  1  0.25149600  0.74850400  0.74850400  1
  O  O50  1  0.25149600  0.25149600  0.74850400  1
  O  O51  1  0.74850400  0.74850400  0.25149600  1
  O  O52  1  0.25149600  0.74850400  0.25149600  1
  O  O53  1  0.74850400  0.25149600  0.74850400  1
  O  O54  1  0.50149600  0.99850400  0.99850400  1
  O  O55  1  0.99850400  0.50149600  0.50149600  1
  O  O56  1  0.99850400  0.99850400  0.50149600  1
  O  O57  1  0.50149600  0.50149600  0.99850400  1
  O  O58  1  0.99850400  0.50149600  0.99850400  1
  O  O59  1  0.50149600  0.99850400  0.50149600  1
  O  O60  1  0.63785300  0.45404900  0.45404900  1
  O  O61  1  0.45404900  0.63785300  0.45404900  1
  O  O62  1  0.45404900  0.45404900  0.63785300  1
  O  O63  1  0.45404900  0.45404900  0.45404900  1
  O  O64  1  0.61214700  0.79595100  0.79595100  1
  O  O65  1  0.79595100  0.61214700  0.79595100  1
  O  O66  1  0.79595100  0.79595100  0.61214700  1
  O  O67  1  0.79595100  0.79595100  0.79595100  1
loop_
_geom_bond_atom_site_label_1
_geom_bond_atom_site_label_2
_geom_bond_distance
_geom_bond_site_symmetry_2
O0 Si33 1.619766 1_455
O0 Si12 1.619766 1_555
O1 Si13 1.619766 1_555
O1 Si31 1.619766 1_545
O2 Si10 1.619766 1_555
O2 Si30 1.619766 1_554
O3 Si11 1.619766 1_555
O3 Si32 1.619766 1_555
O4 Si16 1.619766 1_555
O4 Si25 1.619766 1_554
O5 Si23 1.619766 1_455
O5 Si17 1.619766 1_555
O6 Si22 1.619766 1_545
O6 Si14 1.619766 1_555
O7 Si24 1.619766 1_555
O7 Si15 1.619766 1_555
O8 Si20 1.619766 1_555
O8 Si29 1.619766 1_545
O9 Si21 1.619766 1_555
O9 Si27 1.619766 1_554
O10 Si18 1.619766 1_555
O10 Si26 1.619766 1_455
O11 Si19 1.619766 1_555
O11 Si28 1.619766 1_555
O12 Si11 1.619766 1_555
O12 Si29 1.619766 1_455
O13 Si13 1.619766 1_555
O13 Si28 1.619766 1_554
O14 Si26 1.619766 1_545
O14 Si10 1.619766 1_555
O15 Si27 1.619766 1_555
O15 Si12 1.619766 1_555
O16 Si25 1.619766 1_545
O16 Si19 1.619766 1_555
O17 Si24 1.619766 1_455
O17 Si21 1.619766 1_555
O18 Si18 1.619766 1_555
O18 Si22 1.619766 1_554
O19 Si23 1.619766 1_555
O19 Si20 1.619766 1_555
O20 Si33 1.619766 1_554
O20 Si15 1.619766 1_555
O21 Si32 1.619766 1_545
O21 Si17 1.619766 1_555
O22 Si30 1.619766 1_455
O22 Si14 1.619766 1_555
O23 Si16 1.619766 1_555
O23 Si31 1.619766 1_555
O24 Si2 1.609677 1_555
O24 Si10 1.614946 1_555
O25 Si3 1.609666 1_555
O25 Si11 1.614946 1_555
O26 Si4 1.609666 1_555
O26 Si12 1.614946 1_555
O27 Si5 1.609673 1_555
O27 Si13 1.614946 1_555
O28 Si4 1.609677 1_555
O28 Si14 1.614946 1_555
O29 Si2 1.609666 1_555
O29 Si15 1.614946 1_555
O30 Si3 1.609666 1_555
O30 Si16 1.614946 1_555
O31 Si5 1.609673 1_555
O31 Si17 1.614946 1_555
O32 Si3 1.609677 1_555
O32 Si18 1.614946 1_555
O33 Si4 1.609666 1_555
O33 Si19 1.614946 1_555
O34 Si2 1.609666 1_555
O34 Si20 1.614946 1_555
O35 Si5 1.609673 1_555
O35 Si21 1.614946 1_555
O36 Si6 1.609677 1_555
O36 Si22 1.614946 1_555
O37 Si7 1.609666 1_555
O37 Si23 1.614946 1_555
O38 Si8 1.609666 1_555
O38 Si24 1.614946 1_555
O39 Si9 1.609673 1_555
O39 Si25 1.614946 1_555
O40 Si8 1.609677 1_555
O40 Si26 1.614946 1_555
O41 Si6 1.609666 1_555
O41 Si27 1.614946 1_555
O42 Si7 1.609666 1_555
O42 Si28 1.614946 1_555
O43 Si9 1.609673 1_555
O43 Si29 1.614946 1_555
O44 Si7 1.609677 1_555
O44 Si30 1.614946 1_555
O45 Si8 1.609666 1_555
O45 Si31 1.614946 1_555
O46 Si6 1.609666 1_555
O46 Si32 1.614946 1_555
O47 Si9 1.609673 1_555
O47 Si33 1.614946 1_555
O48 Si13 1.628178 1_555
O48 Si10 1.628178 1_555
O49 Si11 1.628178 1_555
O49 Si12 1.628178 1_555
O50 Si17 1.628178 1_555
O50 Si14 1.628178 1_555
O51 Si15 1.628178 1_555
O51 Si16 1.628178 1_555
O52 Si21 1.628178 1_555
O52 Si18 1.628178 1_555
O53 Si19 1.628178 1_555
O53 Si20 1.628178 1_555
O54 Si25 1.628178 1_555
O54 Si22 1.628178 1_555
O55 Si24 1.628178 1_555
O55 Si23 1.628178 1_555
O56 Si26 1.628178 1_555
O56 Si29 1.628178 1_555
O57 Si28 1.628178 1_555
O57 Si27 1.628178 1_555
O58 Si30 1.628178 1_555
O58 Si33 1.628178 1_555
O59 Si31 1.628178 1_555
O59 Si32 1.628178 1_555
O60 Si0 1.594091 1_555
O60 Si2 1.598717 1_555
O61 Si0 1.594091 1_555
O61 Si3 1.598717 1_555
O62 Si0 1.594091 1_555
O62 Si4 1.598717 1_555
O63 Si0 1.594091 1_555
O63 Si5 1.598705 1_555
O64 Si1 1.594091 1_555
O64 Si6 1.598717 1_555
O65 Si1 1.594091 1_555
O65 Si7 1.598717 1_555
O66 Si1 1.594091 1_555
O66 Si8 1.598717 1_555
O67 Si1 1.594091 1_555
O67 Si9 1.598705 1_555
