# generated using pymatgen
data_Li8Mn5Fe3(BO3)8
_symmetry_space_group_name_H-M   'P 1'
_cell_length_a   5.24592000
_cell_length_b   6.04324855
_cell_length_c   16.21761172
_cell_angle_alpha   81.77089861
_cell_angle_beta   89.24588723
_cell_angle_gamma   89.01085003
_symmetry_Int_Tables_number   1
_chemical_formula_structural   Li8Mn5Fe3(BO3)8
_chemical_formula_sum   'Li8 Mn5 Fe3 B8 O24'
_cell_volume   508.73794005
_cell_formula_units_Z   1
loop_
 _symmetry_equiv_pos_site_id
 _symmetry_equiv_pos_as_xyz
  1  'x, y, z'
loop_
 _atom_site_type_symbol
 _atom_site_label
 _atom_site_symmetry_multiplicity
 _atom_site_fract_x
 _atom_site_fract_y
 _atom_site_fract_z
 _atom_site_occupancy
  Li  Li0  1  0.84840900  0.06648400  0.38994900  1
  Li  Li1  1  0.15051400  0.43393700  0.11098600  1
  Li  Li2  1  0.65145800  0.18813900  0.85834700  1
  Li  Li3  1  0.34917400  0.31286600  0.64075900  1
  Li  Li4  1  0.64886000  0.68592700  0.35860800  1
  Li  Li5  1  0.35042300  0.81216400  0.14171600  1
  Li  Li6  1  0.84685900  0.56456400  0.88985600  1
  Li  Li7  1  0.15134400  0.93417900  0.60907900  1
  Mn  Mn0  1  0.66931900  0.27006300  0.04108700  1
  Mn  Mn1  1  0.16680200  0.02307100  0.78988800  1
  Mn  Mn2  1  0.33061500  0.22785400  0.45913900  1
  Mn  Mn3  1  0.66851200  0.77185200  0.54127200  1
  Mn  Mn4  1  0.33211000  0.72554700  0.96055900  1
  Fe  Fe0  1  0.16889200  0.52902900  0.28818100  1
  Fe  Fe1  1  0.83847200  0.47468200  0.70964100  1
  Fe  Fe2  1  0.83545400  0.96798300  0.21205600  1
  B  B0  1  0.32921100  0.03961000  0.29589900  1
  B  B1  1  0.83043200  0.28540200  0.54879100  1
  B  B2  1  0.67161500  0.46150800  0.20414000  1
  B  B3  1  0.16979100  0.21537600  0.95217700  1
  B  B4  1  0.83167400  0.78455000  0.04901000  1
  B  B5  1  0.32924800  0.53805600  0.79629700  1
  B  B6  1  0.16771700  0.71541400  0.45107000  1
  B  B7  1  0.67036800  0.96287500  0.70274800  1
  O  O0  1  0.58956300  0.01466300  0.30735100  1
  O  O1  1  0.18360200  0.17237500  0.34330300  1
  O  O2  1  0.71138100  0.17182300  0.49140800  1
  O  O3  1  0.28778700  0.33110000  0.00929100  1
  O  O4  1  0.78685000  0.08103500  0.75909400  1
  O  O5  1  0.81530100  0.32739000  0.15688100  1
  O  O6  1  0.31905300  0.08200300  0.90544700  1
  O  O7  1  0.09060200  0.26348000  0.56104200  1
  O  O8  1  0.40940900  0.48582900  0.19305300  1
  O  O9  1  0.90987900  0.23733900  0.93890300  1
  O  O10  1  0.68264600  0.41735100  0.59673900  1
  O  O11  1  0.20635600  0.42474600  0.73931100  1
  O  O12  1  0.79226400  0.58035700  0.25966000  1
  O  O13  1  0.31355700  0.58284900  0.40311300  1
  O  O14  1  0.09186600  0.76241600  0.06195000  1
  O  O15  1  0.58907600  0.51390400  0.80746700  1
  O  O16  1  0.90725100  0.73801400  0.43879200  1
  O  O17  1  0.68387200  0.91620400  0.09675600  1
  O  O18  1  0.18231400  0.66875400  0.84462800  1
  O  O19  1  0.20768500  0.92364200  0.23928300  1
  O  O20  1  0.71375100  0.67085500  0.99147800  1
  O  O21  1  0.28827100  0.82915800  0.50806300  1
  O  O22  1  0.81991300  0.82796700  0.65672900  1
  O  O23  1  0.41048100  0.98561200  0.68900400  1
loop_
_geom_bond_atom_site_label_1
_geom_bond_atom_site_label_2
_geom_bond_distance
_geom_bond_site_symmetry_2
Li0 O2 1.970357 1_555
Li0 O0 1.979634 1_555
Li0 O1 1.984689 1_655
Li0 O16 2.048958 1_545
Li1 O3 1.967618 1_555
Li1 O8 1.973838 1_555
Li1 O5 1.982009 1_455
Li1 O14 2.049651 1_555
Li2 O4 1.940784 1_555
Li2 O9 1.950561 1_555
Li2 O6 1.974565 1_555
Li2 O15 2.045362 1_555
Li3 O7 1.941906 1_555
Li3 O11 1.957877 1_555
Li3 O10 1.960832 1_555
Li3 O23 2.041697 1_545
Li4 O12 1.947497 1_555
Li4 O16 1.950843 1_555
Li4 O13 1.969435 1_555
Li4 O0 2.060875 1_565
Li5 O19 1.942879 1_555
Li5 O14 1.942976 1_555
Li5 O17 1.964686 1_555
Li5 O8 2.047895 1_555
Li6 O20 1.968141 1_555
Li6 O15 1.971479 1_555
Li6 O18 1.975683 1_655
Li6 O9 2.046114 1_555
Li7 O23 1.949623 1_555
Li7 O21 1.963038 1_555
Li7 O22 1.973139 1_455
Li7 O7 2.051725 1_565
Mn0 O3 2.086896 1_555
Mn0 O9 2.099534 1_554
Mn0 O5 2.113352 1_555
Mn0 O17 2.199413 1_545
Mn0 O20 2.454554 1_554
Mn1 O4 2.072912 1_455
Mn1 O23 2.098367 1_545
Mn1 O6 2.125383 1_555
Mn1 O18 2.198024 1_545
Mn1 O11 2.459911 1_555
Mn2 O2 2.081308 1_555
Mn2 O7 2.097747 1_555
Mn2 O1 2.112729 1_555
Mn2 O13 2.207600 1_555
Mn2 O21 2.439419 1_545
Mn3 O21 2.083245 1_555
Mn3 O16 2.099089 1_555
Mn3 O22 2.117085 1_555
Mn3 O10 2.202020 1_555
Mn3 O2 2.449786 1_565
Mn4 O20 2.079675 1_555
Mn4 O14 2.093424 1_556
Mn4 O18 2.122050 1_555
Mn4 O6 2.211171 1_565
Mn4 O3 2.415759 1_556
Fe0 O8 2.023088 1_555
Fe0 O12 2.043432 1_455
Fe0 O13 2.091704 1_555
Fe0 O1 2.212495 1_555
Fe0 O19 2.414215 1_555
Fe1 O11 2.002459 1_655
Fe1 O15 2.080183 1_555
Fe1 O10 2.090838 1_555
Fe1 O22 2.185081 1_555
Fe1 O4 2.417874 1_555
Fe2 O19 2.012598 1_655
Fe2 O0 2.047361 1_565
Fe2 O17 2.107595 1_555
Fe2 O5 2.228808 1_565
Fe2 O12 2.372925 1_555
B0 O0 1.383526 1_555
B0 O19 1.398451 1_545
B0 O1 1.399352 1_555
B1 O7 1.383166 1_655
B1 O2 1.392898 1_555
B1 O10 1.407782 1_555
B2 O8 1.392095 1_555
B2 O12 1.393911 1_555
B2 O5 1.397864 1_555
B3 O9 1.384315 1_455
B3 O3 1.394870 1_556
B3 O6 1.405185 1_555
B4 O14 1.384995 1_655
B4 O20 1.392374 1_554
B4 O17 1.404643 1_555
B5 O15 1.379873 1_555
B5 O11 1.396674 1_555
B5 O18 1.404510 1_555
B6 O16 1.385006 1_455
B6 O21 1.392490 1_555
B6 O13 1.404832 1_555
B7 O23 1.385655 1_555
B7 O4 1.390994 1_565
B7 O22 1.404921 1_555
