# generated using pymatgen
data_Li4Fe5(NiO6)2
_symmetry_space_group_name_H-M   'P 1'
_cell_length_a   8.87294000
_cell_length_b   5.17242000
_cell_length_c   9.76634928
_cell_angle_alpha   80.78655955
_cell_angle_beta   90.00000000
_cell_angle_gamma   90.00000000
_symmetry_Int_Tables_number   1
_chemical_formula_structural   Li4Fe5(NiO6)2
_chemical_formula_sum   'Li8 Fe10 Ni4 O24'
_cell_volume   442.43978611
_cell_formula_units_Z   2
loop_
 _symmetry_equiv_pos_site_id
 _symmetry_equiv_pos_as_xyz
  1  'x, y, z'
loop_
 _atom_site_type_symbol
 _atom_site_label
 _atom_site_symmetry_multiplicity
 _atom_site_fract_x
 _atom_site_fract_y
 _atom_site_fract_z
 _atom_site_occupancy
  Li  Li0  1  0.90630500  0.00822800  0.74532900  1
  Li  Li1  1  0.91588700  0.48713400  0.25676400  1
  Li  Li2  1  0.58371300  0.75956600  0.50297600  1
  Li  Li3  1  0.58966800  0.50177500  0.25538700  1
  Li  Li4  1  0.40630500  0.99177200  0.25467100  1
  Li  Li5  1  0.41588700  0.51286600  0.74323600  1
  Li  Li6  1  0.08371300  0.24043400  0.49702400  1
  Li  Li7  1  0.08966800  0.49822500  0.74461300  1
  Fe  Fe0  1  0.91841400  0.25457200  0.00232700  1
  Fe  Fe1  1  0.92187200  0.74747900  0.49674100  1
  Fe  Fe2  1  0.75145100  0.99199300  0.25598100  1
  Fe  Fe3  1  0.58024200  0.24107500  0.99621100  1
  Fe  Fe4  1  0.74286000  0.51153500  0.74012900  1
  Fe  Fe5  1  0.42187200  0.25252100  0.50325900  1
  Fe  Fe6  1  0.41841400  0.74542800  0.99767300  1
  Fe  Fe7  1  0.25145100  0.00800700  0.74401900  1
  Fe  Fe8  1  0.24286000  0.48846500  0.25987100  1
  Fe  Fe9  1  0.08024200  0.75892500  0.00378900  1
  Ni  Ni0  1  0.74851600  0.24527800  0.50379500  1
  Ni  Ni1  1  0.74685700  0.75384300  0.99352500  1
  Ni  Ni2  1  0.24685700  0.24615700  0.00647500  1
  Ni  Ni3  1  0.24851600  0.75472200  0.49620500  1
  O  O0  1  0.89647000  0.12187900  0.38781100  1
  O  O1  1  0.90833900  0.88963900  0.11347900  1
  O  O2  1  0.75395200  0.14867300  0.88018600  1
  O  O3  1  0.76748700  0.85375300  0.62352700  1
  O  O4  1  0.91577100  0.61276400  0.87978800  1
  O  O5  1  0.90056400  0.37724000  0.61783500  1
  O  O6  1  0.76172400  0.64358500  0.36810600  1
  O  O7  1  0.59609500  0.13695000  0.38406500  1
  O  O8  1  0.58357900  0.88481500  0.12008000  1
  O  O9  1  0.74815400  0.35548100  0.12283000  1
  O  O10  1  0.58192500  0.59837700  0.88076500  1
  O  O11  1  0.40833900  0.11036100  0.88652100  1
  O  O12  1  0.59531600  0.38394000  0.60954900  1
  O  O13  1  0.39647000  0.87812100  0.61218900  1
  O  O14  1  0.26748700  0.14624700  0.37647300  1
  O  O15  1  0.40056400  0.62276000  0.38216500  1
  O  O16  1  0.41577100  0.38723600  0.12021200  1
  O  O17  1  0.25395200  0.85132700  0.11981400  1
  O  O18  1  0.24815400  0.64451900  0.87717000  1
  O  O19  1  0.08357900  0.11518500  0.87992000  1
  O  O20  1  0.09609500  0.86305000  0.61593500  1
  O  O21  1  0.26172400  0.35641500  0.63189400  1
  O  O22  1  0.09531600  0.61606000  0.39045100  1
  O  O23  1  0.08192500  0.40162300  0.11923500  1
loop_
_geom_bond_atom_site_label_1
_geom_bond_atom_site_label_2
_geom_bond_distance
_geom_bond_site_symmetry_2
Li0 O3 1.968497 1_545
Li0 O2 2.096702 1_555
Li0 O5 2.105950 1_555
Li0 O19 2.177357 1_655
Li0 O4 2.248425 1_545
Li0 O20 2.302293 1_645
Li1 O6 1.997544 1_555
Li1 O23 2.088154 1_655
Li1 O0 2.112506 1_555
Li1 O9 2.162157 1_555
Li1 O22 2.227747 1_655
Li1 O1 2.316073 1_555
Li2 O12 2.054556 1_555
Li2 O7 2.108338 1_565
Li2 O3 2.113305 1_555
Li2 O13 2.117399 1_555
Li2 O15 2.191131 1_555
Li2 O6 2.200605 1_555
Li3 O6 2.083054 1_555
Li3 O7 2.093814 1_555
Li3 O9 2.130673 1_555
Li3 O16 2.173721 1_555
Li3 O8 2.199113 1_555
Li3 O15 2.233414 1_555
Li4 O14 1.968497 1_565
Li4 O17 2.096702 1_555
Li4 O15 2.105950 1_555
Li4 O8 2.177357 1_555
Li4 O16 2.248425 1_565
Li4 O7 2.302293 1_565
Li5 O21 1.997544 1_555
Li5 O10 2.088154 1_555
Li5 O13 2.112506 1_555
Li5 O18 2.162157 1_555
Li5 O12 2.227747 1_555
Li5 O11 2.316073 1_555
Li6 O22 2.054556 1_555
Li6 O20 2.108338 1_545
Li6 O14 2.113305 1_555
Li6 O0 2.117399 1_455
Li6 O5 2.191131 1_455
Li6 O21 2.200605 1_555
Li7 O21 2.083054 1_555
Li7 O20 2.093814 1_555
Li7 O18 2.130673 1_555
Li7 O4 2.173721 1_455
Li7 O19 2.199113 1_555
Li7 O5 2.233414 1_455
Fe0 O2 2.015355 1_554
Fe0 O1 2.023173 1_545
Fe0 O9 2.033813 1_555
Fe0 O4 2.038462 1_554
Fe0 O23 2.065221 1_655
Fe0 O19 2.091084 1_654
Fe1 O3 1.982382 1_555
Fe1 O6 2.025448 1_555
Fe1 O22 2.033224 1_655
Fe1 O0 2.067145 1_565
Fe1 O20 2.079663 1_655
Fe1 O5 2.092008 1_555
Fe2 O6 1.955280 1_555
Fe2 O0 2.010398 1_565
Fe2 O7 2.080254 1_565
Fe2 O1 2.095459 1_555
Fe2 O9 2.108032 1_565
Fe2 O8 2.126786 1_555
Fe3 O10 2.004924 1_555
Fe3 O2 2.015323 1_555
Fe3 O8 2.036210 1_546
Fe3 O11 2.040386 1_555
Fe3 O9 2.081687 1_556
Fe3 O16 2.112112 1_556
Fe4 O3 1.957627 1_555
Fe4 O12 2.011299 1_555
Fe4 O5 2.032911 1_555
Fe4 O10 2.079645 1_555
Fe4 O2 2.140383 1_555
Fe4 O4 2.171887 1_555
Fe5 O14 1.982382 1_555
Fe5 O21 2.025448 1_555
Fe5 O12 2.033224 1_555
Fe5 O13 2.067145 1_545
Fe5 O7 2.079663 1_555
Fe5 O15 2.092008 1_555
Fe6 O17 2.015355 1_556
Fe6 O11 2.023173 1_565
Fe6 O18 2.033813 1_555
Fe6 O16 2.038462 1_556
Fe6 O10 2.065221 1_555
Fe6 O8 2.091084 1_556
Fe7 O21 1.955280 1_555
Fe7 O13 2.010398 1_545
Fe7 O20 2.080254 1_545
Fe7 O11 2.095459 1_555
Fe7 O18 2.108032 1_545
Fe7 O19 2.126786 1_555
Fe8 O14 1.957627 1_555
Fe8 O22 2.011299 1_555
Fe8 O15 2.032911 1_555
Fe8 O23 2.079645 1_555
Fe8 O17 2.140383 1_555
Fe8 O16 2.171887 1_555
Fe9 O23 2.004924 1_555
Fe9 O17 2.015323 1_555
Fe9 O19 2.036210 1_564
Fe9 O1 2.040386 1_455
Fe9 O18 2.081687 1_554
Fe9 O4 2.112112 1_454
Ni0 O0 1.909299 1_555
Ni0 O12 1.914717 1_555
Ni0 O7 1.928765 1_555
Ni0 O5 1.941619 1_555
Ni0 O3 2.176819 1_545
Ni0 O6 2.267169 1_555
Ni1 O1 2.045061 1_556
Ni1 O4 2.066934 1_555
Ni1 O10 2.069928 1_555
Ni1 O8 2.086527 1_556
Ni1 O2 2.162408 1_565
Ni1 O9 2.237696 1_556
Ni2 O11 2.045061 1_554
Ni2 O16 2.066934 1_555
Ni2 O23 2.069928 1_555
Ni2 O19 2.086527 1_554
Ni2 O17 2.162408 1_545
Ni2 O18 2.237696 1_554
Ni3 O13 1.909299 1_555
Ni3 O22 1.914717 1_555
Ni3 O20 1.928765 1_555
Ni3 O15 1.941619 1_555
Ni3 O14 2.176819 1_565
Ni3 O21 2.267169 1_555
