# generated using pymatgen
data_Ni3OF5
_symmetry_space_group_name_H-M   'P 1'
_cell_length_a   5.63058679
_cell_length_b   5.63058679
_cell_length_c   7.39009911
_cell_angle_alpha   71.93250809
_cell_angle_beta   71.93250809
_cell_angle_gamma   71.58549833
_symmetry_Int_Tables_number   1
_chemical_formula_structural   Ni3OF5
_chemical_formula_sum   'Ni6 O2 F10'
_cell_volume   205.40501683
_cell_formula_units_Z   2
loop_
 _symmetry_equiv_pos_site_id
 _symmetry_equiv_pos_as_xyz
  1  'x, y, z'
loop_
 _atom_site_type_symbol
 _atom_site_label
 _atom_site_symmetry_multiplicity
 _atom_site_fract_x
 _atom_site_fract_y
 _atom_site_fract_z
 _atom_site_occupancy
  Ni  Ni0  1  0.65832100  0.65832100  0.84119900  1
  Ni  Ni1  1  0.66885400  0.66885400  0.33462300  1
  Ni  Ni2  1  0.33114600  0.33114600  0.66537700  1
  Ni  Ni3  1  0.34167900  0.34167900  0.15880100  1
  Ni  Ni4  1  0.00000000  0.00000000  0.50000000  1
  Ni  Ni5  1  0.00000000  0.00000000  0.00000000  1
  O  O0  1  0.69941400  0.30058600  0.00000000  1
  O  O1  1  0.30058600  0.69941400  0.00000000  1
  F  F0  1  0.97527300  0.36450000  0.33070100  1
  F  F1  1  0.63550000  0.02472700  0.66929900  1
  F  F2  1  0.23405500  0.23405500  0.96196500  1
  F  F3  1  0.56271200  0.56271200  0.63140900  1
  F  F4  1  0.89963800  0.89963800  0.29966700  1
  F  F5  1  0.76594500  0.76594500  0.03803500  1
  F  F6  1  0.43728800  0.43728800  0.36859100  1
  F  F7  1  0.10036200  0.10036200  0.70033300  1
  F  F8  1  0.36450000  0.97527300  0.33070100  1
  F  F9  1  0.02472700  0.63550000  0.66929900  1
loop_
_geom_bond_atom_site_label_1
_geom_bond_atom_site_label_2
_geom_bond_distance
_geom_bond_site_symmetry_2
Ni0 O0 1.973767 1_556
Ni0 O1 1.973767 1_556
Ni3 O1 1.973767 1_555
Ni3 O0 1.973767 1_555
Ni5 O1 1.979706 1_545
Ni5 O0 1.979706 1_455
F0 Ni1 2.011501 1_555
F0 Ni4 2.032649 1_655
F0 Ni3 2.048108 1_655
F1 Ni2 2.011501 1_555
F1 Ni4 2.032649 1_655
F1 Ni0 2.048108 1_545
F2 Ni2 2.025865 1_555
F2 Ni3 2.043512 1_556
F2 Ni5 2.047016 1_556
F3 Ni1 2.030855 1_555
F3 Ni2 2.032507 1_555
F3 Ni0 2.049812 1_555
F4 Ni4 2.017450 1_665
F4 Ni1 2.023423 1_555
F4 Ni5 2.047499 1_665
F5 Ni1 2.025865 1_555
F5 Ni0 2.043512 1_554
F5 Ni5 2.047016 1_665
F6 Ni2 2.030855 1_555
F6 Ni1 2.032507 1_555
F6 Ni3 2.049812 1_555
F7 Ni4 2.017450 1_555
F7 Ni2 2.023423 1_555
F7 Ni5 2.047499 1_556
F8 Ni1 2.011501 1_555
F8 Ni4 2.032649 1_565
F8 Ni3 2.048108 1_565
F9 Ni2 2.011501 1_555
F9 Ni4 2.032649 1_565
F9 Ni0 2.048108 1_455
