# generated using pymatgen
data_Li2MnO2F
_symmetry_space_group_name_H-M   'P 1'
_cell_length_a   4.06036810
_cell_length_b   8.95660300
_cell_length_c   5.94059260
_cell_angle_alpha   90.00042993
_cell_angle_beta   90.00152458
_cell_angle_gamma   89.99994839
_symmetry_Int_Tables_number   1
_chemical_formula_structural   Li2MnO2F
_chemical_formula_sum   'Li8 Mn4 O8 F4'
_cell_volume   216.04215508
_cell_formula_units_Z   4
loop_
 _symmetry_equiv_pos_site_id
 _symmetry_equiv_pos_as_xyz
  1  'x, y, z'
loop_
 _atom_site_type_symbol
 _atom_site_label
 _atom_site_symmetry_multiplicity
 _atom_site_fract_x
 _atom_site_fract_y
 _atom_site_fract_z
 _atom_site_occupancy
  Li  Li0  1  0.25006300  0.74559800  0.86143400  1
  Li  Li1  1  0.25006500  0.75438500  0.36142600  1
  Li  Li2  1  0.74992600  0.24560400  0.63860900  1
  Li  Li3  1  0.74992400  0.25442300  0.13855500  1
  Li  Li4  1  0.24995700  0.41204200  0.88761300  1
  Li  Li5  1  0.24996600  0.08797400  0.38765100  1
  Li  Li6  1  0.75002600  0.91194600  0.61247300  1
  Li  Li7  1  0.75002700  0.58804200  0.11232500  1
  Mn  Mn0  1  0.75000400  0.59665500  0.61238900  1
  Mn  Mn1  1  0.75008800  0.90344800  0.11263300  1
  Mn  Mn2  1  0.24994900  0.09679200  0.88752600  1
  Mn  Mn3  1  0.24994400  0.40321000  0.38747600  1
  O  O0  1  0.24999900  0.57253500  0.60502300  1
  O  O1  1  0.25003200  0.92747100  0.10507500  1
  O  O2  1  0.74998400  0.07262200  0.89499800  1
  O  O3  1  0.74997400  0.42733500  0.39482900  1
  O  O4  1  0.24996200  0.24055300  0.65415000  1
  O  O5  1  0.24996300  0.25942800  0.15414900  1
  O  O6  1  0.75002400  0.74047800  0.84578900  1
  O  O7  1  0.75003500  0.75946300  0.34585900  1
  F  F0  1  0.25006100  0.91924600  0.61618500  1
  F  F1  1  0.25005900  0.58075400  0.11619300  1
  F  F2  1  0.74998000  0.41918700  0.88380700  1
  F  F3  1  0.74998600  0.08080900  0.38383100  1
loop_
_geom_bond_atom_site_label_1
_geom_bond_atom_site_label_2
_geom_bond_distance
_geom_bond_site_symmetry_2
Li0 O6 2.032672 1_555
Li0 O6 2.032983 1_455
Li0 O0 2.173219 1_555
Li0 O1 2.179077 1_556
Li1 O7 2.032679 1_555
Li1 O7 2.032917 1_455
Li1 O1 2.173132 1_555
Li1 O0 2.178765 1_555
Li2 O4 2.032642 1_555
Li2 O4 2.032929 1_655
Li2 O2 2.172626 1_555
Li2 O3 2.178691 1_555
Li3 O5 2.032635 1_555
Li3 O5 2.032947 1_655
Li3 O3 2.171684 1_555
Li3 O2 2.178263 1_554
Li4 O4 2.069457 1_555
Li4 O5 2.091783 1_556
Li4 O0 2.210106 1_555
Li5 O5 2.069395 1_555
Li5 O4 2.091396 1_555
Li5 O1 2.210085 1_545
Li6 O6 2.068748 1_555
Li6 O7 2.091351 1_555
Li6 O2 2.210863 1_565
Li7 O7 2.069288 1_555
Li7 O6 2.090741 1_554
Li7 O3 2.210966 1_555
Mn0 O6 1.892570 1_555
Mn0 O3 1.992543 1_555
Mn0 O0 2.042095 1_655
Mn0 O0 2.042134 1_555
Mn0 O7 2.152530 1_555
Mn1 O7 1.892815 1_555
Mn1 O2 1.991852 1_564
Mn1 O1 2.041823 1_655
Mn1 O1 2.042272 1_555
Mn1 O6 2.154869 1_554
Mn2 O4 1.892102 1_555
Mn2 O1 1.992523 1_546
Mn2 O2 2.042036 1_455
Mn2 O2 2.042316 1_555
Mn2 O5 2.151877 1_556
Mn3 O5 1.892002 1_555
Mn3 O0 1.992527 1_555
Mn3 O3 2.041998 1_455
Mn3 O3 2.042238 1_555
Mn3 O4 2.152244 1_555
F0 Li6 2.031215 1_555
F0 Li6 2.031498 1_455
F0 Li5 2.031501 1_565
F0 Li1 2.114412 1_555
F0 Li0 2.131105 1_555
F0 Mn2 2.264295 1_565
F1 Li7 2.031234 1_555
F1 Li7 2.031492 1_455
F1 Li4 2.031562 1_554
F1 Li0 2.114321 1_554
F1 Li1 2.130913 1_555
F1 Mn3 2.264054 1_555
F2 Li4 2.031224 1_655
F2 Li4 2.031412 1_555
F2 Li7 2.032269 1_556
F2 Li3 2.113774 1_556
F2 Li2 2.130457 1_555
F2 Mn0 2.264147 1_555
F3 Li5 2.031243 1_655
F3 Li5 2.031407 1_555
F3 Li6 2.032830 1_545
F3 Li2 2.114080 1_555
F3 Li3 2.130993 1_555
F3 Mn1 2.262527 1_545
