# generated using pymatgen
data_DyNbO4
_symmetry_space_group_name_H-M   'P 1'
_cell_length_a   6.17901199
_cell_length_b   6.17901199
_cell_length_c   6.17901199
_cell_angle_alpha   107.22993649
_cell_angle_beta   107.22993649
_cell_angle_gamma   114.05326431
_symmetry_Int_Tables_number   1
_chemical_formula_structural   DyNbO4
_chemical_formula_sum   'Dy2 Nb2 O8'
_cell_volume   180.72978267
_cell_formula_units_Z   2
loop_
 _symmetry_equiv_pos_site_id
 _symmetry_equiv_pos_as_xyz
  1  'x, y, z'
loop_
 _atom_site_type_symbol
 _atom_site_label
 _atom_site_symmetry_multiplicity
 _atom_site_fract_x
 _atom_site_fract_y
 _atom_site_fract_z
 _atom_site_occupancy
  Dy  Dy0  1  0.50000000  0.50000000  0.00000000  1
  Dy  Dy1  1  0.75000000  0.25000000  0.50000000  1
  Nb  Nb0  1  0.25000000  0.75000000  0.50000000  1
  Nb  Nb1  1  0.00000000  0.00000000  0.00000000  1
  O  O0  1  0.26092700  0.56782600  0.69310100  1
  O  O1  1  0.43217400  0.12527600  0.69310100  1
  O  O2  1  0.43217400  0.73907300  0.30689900  1
  O  O3  1  0.87472400  0.56782600  0.30689900  1
  O  O4  1  0.37527600  0.18217400  0.19310100  1
  O  O5  1  0.81782600  0.62472400  0.80689900  1
  O  O6  1  0.81782600  0.01092700  0.19310100  1
  O  O7  1  0.98907300  0.18217400  0.80689900  1
loop_
_geom_bond_atom_site_label_1
_geom_bond_atom_site_label_2
_geom_bond_distance
_geom_bond_site_symmetry_2
Dy0 O1 2.295621 1_554
Dy0 O3 2.295621 1_555
Dy0 O0 2.295625 1_554
Dy0 O2 2.295625 1_555
Dy0 O5 2.563877 1_554
Dy0 O4 2.563877 1_555
Dy0 O6 2.563877 1_565
Dy0 O7 2.563877 1_454
Dy1 O5 2.295621 1_555
Dy1 O4 2.295621 1_555
Dy1 O7 2.295625 1_555
Dy1 O6 2.295625 1_555
Dy1 O3 2.563877 1_555
Dy1 O1 2.563877 1_555
Dy1 O0 2.563877 1_655
Dy1 O2 2.563877 1_545
Nb0 O2 1.872224 1_555
Nb0 O0 1.872224 1_555
Nb0 O3 1.872229 1_455
Nb0 O1 1.872229 1_565
Nb1 O6 1.872224 1_455
Nb1 O7 1.872224 1_454
Nb1 O4 1.872229 1_555
Nb1 O5 1.872229 1_444
