# generated using pymatgen
data_NaLiTiAl(PO4)3
_symmetry_space_group_name_H-M   'P 1'
_cell_length_a   8.55887243
_cell_length_b   8.55887243
_cell_length_c   8.77607722
_cell_angle_alpha   60.49025527
_cell_angle_beta   60.49025527
_cell_angle_gamma   59.75334862
_symmetry_Int_Tables_number   1
_chemical_formula_structural   NaLiTiAl(PO4)3
_chemical_formula_sum   'Na2 Li2 Ti2 Al2 P6 O24'
_cell_volume   457.05610591
_cell_formula_units_Z   2
loop_
 _symmetry_equiv_pos_site_id
 _symmetry_equiv_pos_as_xyz
  1  'x, y, z'
loop_
 _atom_site_type_symbol
 _atom_site_label
 _atom_site_symmetry_multiplicity
 _atom_site_fract_x
 _atom_site_fract_y
 _atom_site_fract_z
 _atom_site_occupancy
  Na  Na0  1  0.98848800  0.49834200  0.74725700  1
  Na  Na1  1  0.50165800  0.01151200  0.25274300  1
  Li  Li0  1  0.84535900  0.75269700  0.00209900  1
  Li  Li1  1  0.24730300  0.15464100  0.99790100  1
  Ti  Ti0  1  0.35776900  0.85942000  0.67568100  1
  Ti  Ti1  1  0.14058000  0.64223100  0.32431900  1
  Al  Al0  1  0.84754100  0.35374200  0.19226200  1
  Al  Al1  1  0.64625800  0.15245900  0.80773800  1
  P  P0  1  0.95783500  0.04216500  0.00000000  1
  P  P1  1  0.46631900  0.25069500  0.50448700  1
  P  P2  1  0.74930500  0.53368100  0.49551300  1
  P  P3  1  0.25052200  0.46145700  0.00002900  1
  P  P4  1  0.53854300  0.74947800  0.99997100  1
  P  P5  1  0.03064500  0.96935500  0.50000000  1
  O  O0  1  0.71386200  0.36462200  0.66881700  1
  O  O1  1  0.86370300  0.99304300  0.67918300  1
  O  O2  1  0.94290600  0.22166700  0.01670000  1
  O  O3  1  0.98847600  0.86611300  0.17321800  1
  O  O4  1  0.92166900  0.55890400  0.48646200  1
  O  O5  1  0.48520700  0.21125900  0.68647400  1
  O  O6  1  0.63537800  0.28613800  0.33118300  1
  O  O7  1  0.77833300  0.05709400  0.98330000  1
  O  O8  1  0.44109600  0.07833100  0.51353800  1
  O  O9  1  0.27838000  0.42393400  0.49091100  1
  O  O10  1  0.78874100  0.51479300  0.31352600  1
  O  O11  1  0.57606600  0.72162000  0.50908900  1
  O  O12  1  0.41765500  0.27117400  0.98334100  1
  O  O13  1  0.22157500  0.48997300  0.17257500  1
  O  O14  1  0.72882600  0.58234500  0.01665900  1
  O  O15  1  0.56056000  0.92694600  0.98643600  1
  O  O16  1  0.21834100  0.94342000  0.51125700  1
  O  O17  1  0.36326500  0.72167000  0.17169600  1
  O  O18  1  0.51002700  0.77842500  0.82742500  1
  O  O19  1  0.07305400  0.43944000  0.01356400  1
  O  O20  1  0.00695700  0.13629700  0.32081700  1
  O  O21  1  0.05658000  0.78165900  0.48874300  1
  O  O22  1  0.13388700  0.01152400  0.82678200  1
  O  O23  1  0.27833000  0.63673500  0.82830400  1
loop_
_geom_bond_atom_site_label_1
_geom_bond_atom_site_label_2
_geom_bond_distance
_geom_bond_site_symmetry_2
Na0 O4 2.378288 1_555
Na0 O2 2.420096 1_556
Na0 O14 2.436063 1_556
Na0 O9 2.437929 1_655
Na0 O21 2.463397 1_655
Na0 O19 2.525536 1_656
Na1 O8 2.378288 1_555
Na1 O7 2.420096 1_554
Na1 O12 2.436063 1_554
Na1 O11 2.437929 1_545
Na1 O16 2.463397 1_545
Na1 O15 2.525536 1_544
Li0 O14 2.071931 1_555
Li0 O15 2.156509 1_554
Li0 O7 2.303904 1_564
Li0 O19 2.379059 1_655
Li0 O10 2.461226 1_555
Li0 O1 2.536032 1_554
Li1 O12 2.071931 1_555
Li1 O19 2.156509 1_556
Li1 O2 2.303904 1_456
Li1 O15 2.379059 1_545
Li1 O5 2.461226 1_555
Li1 O20 2.536032 1_556
Al0 O6 1.816913 1_555
Al0 O20 1.867594 1_655
Al0 O10 1.872036 1_555
Al0 O14 1.950613 1_555
Al0 O2 1.966040 1_555
Al0 O19 2.008467 1_655
Al1 O0 1.816913 1_555
Al1 O1 1.867594 1_545
Al1 O5 1.872036 1_555
Al1 O12 1.950613 1_555
Al1 O7 1.966040 1_555
Al1 O15 2.008467 1_545
O0 P2 1.522691 1_555
O1 P5 1.537611 1_655
O2 P0 1.550398 1_555
O3 P0 1.545392 1_565
O3 Ti1 1.951744 1_655
O4 P2 1.554916 1_555
O4 Ti1 1.940076 1_655
O5 P1 1.535971 1_555
O6 P1 1.522691 1_555
O7 P0 1.550398 1_556
O8 P1 1.554916 1_555
O8 Ti0 1.940076 1_545
O9 P1 1.553084 1_555
O9 Ti1 1.951165 1_555
O10 P2 1.535971 1_555
O11 P2 1.553084 1_555
O11 Ti0 1.951165 1_555
O12 P3 1.549716 1_556
O13 P3 1.532176 1_555
O13 Ti1 1.960186 1_555
O14 P4 1.549716 1_554
O15 P4 1.563752 1_555
O16 P5 1.554111 1_555
O16 Ti0 1.957869 1_555
O17 P4 1.535420 1_554
O17 Ti1 1.944824 1_555
O18 P4 1.532176 1_555
O18 Ti0 1.960186 1_555
O19 P3 1.563752 1_555
O20 P5 1.537611 1_545
O21 P5 1.554111 1_555
O21 Ti1 1.957869 1_555
O22 P0 1.545392 1_456
O22 Ti0 1.951744 1_545
O23 P3 1.535420 1_556
O23 Ti0 1.944824 1_555
