# generated using pymatgen
data_Ga4SiO8
_symmetry_space_group_name_H-M   'P 1'
_cell_length_a   6.40088779
_cell_length_b   6.40088779
_cell_length_c   9.40821080
_cell_angle_alpha   55.03108138
_cell_angle_beta   55.03108138
_cell_angle_gamma   26.94455657
_symmetry_Int_Tables_number   1
_chemical_formula_structural   Ga4SiO8
_chemical_formula_sum   'Ga4 Si1 O8'
_cell_volume   141.10890783
_cell_formula_units_Z   1
loop_
 _symmetry_equiv_pos_site_id
 _symmetry_equiv_pos_as_xyz
  1  'x, y, z'
loop_
 _atom_site_type_symbol
 _atom_site_label
 _atom_site_symmetry_multiplicity
 _atom_site_fract_x
 _atom_site_fract_y
 _atom_site_fract_z
 _atom_site_occupancy
  Ga  Ga0  1  0.75517600  0.75517600  0.64429700  1
  Ga  Ga1  1  0.46128200  0.46128200  0.72168500  1
  Ga  Ga2  1  0.53871800  0.53871800  0.27831500  1
  Ga  Ga3  1  0.24482400  0.24482400  0.35570300  1
  Si  Si0  1  0.00000000  0.00000000  0.00000000  1
  O  O0  1  0.88550100  0.88550100  0.70127700  1
  O  O1  1  0.84813700  0.84813700  0.20587400  1
  O  O2  1  0.64620800  0.64620800  0.53694200  1
  O  O3  1  0.44491900  0.44491900  0.93156600  1
  O  O4  1  0.55508100  0.55508100  0.06843400  1
  O  O5  1  0.35379200  0.35379200  0.46305800  1
  O  O6  1  0.15186300  0.15186300  0.79412600  1
  O  O7  1  0.11449900  0.11449900  0.29872300  1
loop_
_geom_bond_atom_site_label_1
_geom_bond_atom_site_label_2
_geom_bond_distance
_geom_bond_site_symmetry_2
Ga0 O6 1.930832 1_655
Ga0 O6 1.930832 1_565
Ga0 O0 1.986212 1_555
Ga0 O5 2.042321 1_565
Ga0 O5 2.042321 1_655
Ga0 O2 2.115546 1_555
Ga1 O0 1.834193 1_545
Ga1 O0 1.834193 1_455
Ga1 O3 1.861835 1_555
Ga1 O2 1.898606 1_555
Ga2 O7 1.834193 1_655
Ga2 O7 1.834193 1_565
Ga2 O4 1.861835 1_555
Ga2 O5 1.898606 1_555
Ga3 O1 1.930832 1_455
Ga3 O1 1.930832 1_545
Ga3 O7 1.986212 1_555
Ga3 O2 2.042321 1_545
Ga3 O2 2.042321 1_455
Ga3 O5 2.115546 1_555
O1 Si0 1.734851 1_665
O3 Si0 1.904986 1_566
O3 Si0 1.904986 1_656
O4 Si0 1.904986 1_565
O4 Si0 1.904986 1_655
O6 Si0 1.734851 1_556
