# generated using pymatgen
data_Na3BSbPO7
_symmetry_space_group_name_H-M   'P 1'
_cell_length_a   6.95117000
_cell_length_b   5.47195400
_cell_length_c   9.31852802
_cell_angle_alpha   87.06228932
_cell_angle_beta   90.00000000
_cell_angle_gamma   90.00000000
_symmetry_Int_Tables_number   1
_chemical_formula_structural   Na3BSbPO7
_chemical_formula_sum   'Na6 B2 Sb2 P2 O14'
_cell_volume   353.97823230
_cell_formula_units_Z   2
loop_
 _symmetry_equiv_pos_site_id
 _symmetry_equiv_pos_as_xyz
  1  'x, y, z'
loop_
 _atom_site_type_symbol
 _atom_site_label
 _atom_site_symmetry_multiplicity
 _atom_site_fract_x
 _atom_site_fract_y
 _atom_site_fract_z
 _atom_site_occupancy
  Na  Na0  1  0.25000000  0.75951200  0.92976300  1
  Na  Na1  1  0.00795200  0.24930700  0.75182400  1
  Na  Na2  1  0.49204800  0.24930700  0.75182400  1
  Na  Na3  1  0.50795200  0.75069300  0.24817600  1
  Na  Na4  1  0.99204800  0.75069300  0.24817600  1
  Na  Na5  1  0.75000000  0.24048800  0.07023700  1
  B  B0  1  0.75000000  0.73595000  0.93374200  1
  B  B1  1  0.25000000  0.26405000  0.06625800  1
  Sb  Sb0  1  0.75000000  0.77797200  0.65458800  1
  Sb  Sb1  1  0.25000000  0.22202800  0.34541200  1
  P  P0  1  0.25000000  0.71929700  0.59996400  1
  P  P1  1  0.75000000  0.28070300  0.40003600  1
  O  O0  1  0.25000000  0.26991100  0.92331400  1
  O  O1  1  0.75000000  0.95955700  0.84574600  1
  O  O2  1  0.75000000  0.52911500  0.84829700  1
  O  O3  1  0.07371000  0.82268000  0.68359200  1
  O  O4  1  0.42629000  0.82268000  0.68359200  1
  O  O5  1  0.25000000  0.43939000  0.60958900  1
  O  O6  1  0.75000000  0.18782100  0.56249000  1
  O  O7  1  0.25000000  0.81217900  0.43751000  1
  O  O8  1  0.75000000  0.56061000  0.39041100  1
  O  O9  1  0.57371000  0.17732000  0.31640800  1
  O  O10  1  0.92629000  0.17732000  0.31640800  1
  O  O11  1  0.25000000  0.47088500  0.15170300  1
  O  O12  1  0.25000000  0.04044300  0.15425400  1
  O  O13  1  0.75000000  0.73008900  0.07668600  1
loop_
_geom_bond_atom_site_label_1
_geom_bond_atom_site_label_2
_geom_bond_distance
_geom_bond_site_symmetry_2
Na0 O11 2.537088 1_556
Na0 O3 2.608078 1_555
Na0 O4 2.608078 1_555
Na0 O12 2.658738 1_566
Na0 O0 2.682825 1_555
Na0 O0 2.790445 1_565
Na1 O0 2.327178 1_555
Na1 O5 2.351203 1_555
Na1 O3 2.493022 1_545
Na1 O1 2.520449 1_445
Na1 O6 2.549890 1_455
Na1 O2 2.551198 1_455
Na2 O0 2.327178 1_555
Na2 O5 2.351203 1_555
Na2 O4 2.493022 1_545
Na2 O1 2.520449 1_545
Na2 O6 2.549890 1_555
Na2 O2 2.551198 1_555
Na3 O13 2.327178 1_555
Na3 O8 2.351203 1_555
Na3 O9 2.493022 1_565
Na3 O12 2.520449 1_565
Na3 O7 2.549890 1_555
Na3 O11 2.551198 1_555
Na4 O13 2.327178 1_555
Na4 O8 2.351203 1_555
Na4 O10 2.493022 1_565
Na4 O12 2.520449 1_665
Na4 O7 2.549890 1_655
Na4 O11 2.551198 1_655
Na5 O2 2.537088 1_554
Na5 O9 2.608078 1_555
Na5 O10 2.608078 1_555
Na5 O1 2.658738 1_544
Na5 O13 2.682825 1_555
Na5 O13 2.790445 1_545
B0 O13 1.330770 1_556
B0 O2 1.416789 1_555
B0 O1 1.437590 1_555
B1 O0 1.330770 1_554
B1 O11 1.416789 1_555
B1 O12 1.437590 1_555
O1 Sb0 2.083694 1_555
O2 Sb0 2.204698 1_555
O3 P0 1.572947 1_555
O3 Sb0 2.280989 1_455
O4 P0 1.572947 1_555
O4 Sb0 2.280989 1_555
O5 P0 1.529666 1_555
O6 P1 1.571985 1_555
O6 Sb0 2.359840 1_545
O7 P0 1.571985 1_555
O7 Sb1 2.359840 1_565
O8 P1 1.529666 1_555
O9 P1 1.572947 1_555
O9 Sb1 2.280989 1_555
O10 P1 1.572947 1_555
O10 Sb1 2.280989 1_655
O11 Sb1 2.204698 1_555
O12 Sb1 2.083694 1_555
