# generated using pymatgen
data_LiZnCr3(SO4)6
_symmetry_space_group_name_H-M   'P 1'
_cell_length_a   8.31210100
_cell_length_b   8.31728291
_cell_length_c   8.90014660
_cell_angle_alpha   62.20374506
_cell_angle_beta   62.32803560
_cell_angle_gamma   60.36149811
_symmetry_Int_Tables_number   1
_chemical_formula_structural   LiZnCr3(SO4)6
_chemical_formula_sum   'Li1 Zn1 Cr3 S6 O24'
_cell_volume   450.68715827
_cell_formula_units_Z   1
loop_
 _symmetry_equiv_pos_site_id
 _symmetry_equiv_pos_as_xyz
  1  'x, y, z'
loop_
 _atom_site_type_symbol
 _atom_site_label
 _atom_site_symmetry_multiplicity
 _atom_site_fract_x
 _atom_site_fract_y
 _atom_site_fract_z
 _atom_site_occupancy
  Li  Li0  1  0.77195800  0.41990900  0.62925200  1
  Zn  Zn0  1  0.16752600  0.13918700  0.54534500  1
  Cr  Cr0  1  0.35344800  0.35071300  0.93871900  1
  Cr  Cr1  1  0.64394100  0.64526800  0.06776100  1
  Cr  Cr2  1  0.85117000  0.85252900  0.44966700  1
  S  S0  1  0.03772800  0.46912800  0.74940000  1
  S  S1  1  0.54094000  0.25375700  0.24976100  1
  S  S2  1  0.25486000  0.95390600  0.24963200  1
  S  S3  1  0.74837300  0.03769200  0.74893400  1
  S  S4  1  0.46550200  0.74275800  0.75304400  1
  S  S5  1  0.95597000  0.54352400  0.24929100  1
  O  O0  1  0.29913900  0.10572100  0.07681000  1
  O  O1  1  0.10904400  0.50971300  0.08271300  1
  O  O2  1  0.00401200  0.33921200  0.70470100  1
  O  O3  1  0.02482900  0.65930200  0.60455200  1
  O  O4  1  0.35232600  0.28934800  0.38891700  1
  O  O5  1  0.04825300  0.98303000  0.29328700  1
  O  O6  1  0.51827000  0.29706300  0.07637600  1
  O  O7  1  0.23439200  0.37963600  0.76823100  1
  O  O8  1  0.67465200  0.04828100  0.29560700  1
  O  O9  1  0.38006100  0.75926800  0.22491600  1
  O  O10  1  0.63408400  0.38122000  0.22516200  1
  O  O11  1  0.29121200  0.96554000  0.38992400  1
  O  O12  1  0.71368600  0.02441300  0.60567000  1
  O  O13  1  0.38471600  0.60945200  0.76845500  1
  O  O14  1  0.61901300  0.24026400  0.76412400  1
  O  O15  1  0.33981800  0.94538300  0.70700900  1
  O  O16  1  0.76135600  0.63465400  0.22458200  1
  O  O17  1  0.49591000  0.68699100  0.92318200  1
  O  O18  1  0.94939200  0.01471700  0.70643500  1
  O  O19  1  0.66082800  0.70515700  0.60780400  1
  O  O20  1  0.96035900  0.35939400  0.39987100  1
  O  O21  1  0.98301700  0.67947600  0.29170400  1
  O  O22  1  0.89259300  0.49702400  0.92082100  1
  O  O23  1  0.68792200  0.89817100  0.92194200  1
loop_
_geom_bond_atom_site_label_1
_geom_bond_atom_site_label_2
_geom_bond_distance
_geom_bond_site_symmetry_2
Li0 O14 2.019442 1_555
Li0 O20 2.020602 1_555
Li0 O19 2.022935 1_555
Li0 O2 2.030799 1_655
Cr0 O0 1.981197 1_556
Cr0 O6 2.005392 1_556
Cr0 O1 2.005903 1_556
Cr0 O13 2.034927 1_555
Cr0 O7 2.039218 1_555
Cr0 O14 2.066636 1_555
Cr1 O17 1.980413 1_554
Cr1 O16 1.993352 1_555
Cr1 O22 1.993787 1_554
Cr1 O10 1.998573 1_555
Cr1 O9 1.999203 1_555
Cr1 O23 2.004082 1_554
Cr2 O5 2.007689 1_655
Cr2 O12 2.009775 1_565
Cr2 O3 2.013512 1_655
Cr2 O8 2.026691 1_565
Cr2 O21 2.036008 1_555
Cr2 O19 2.056041 1_555
O0 S2 1.489345 1_545
O1 S5 1.476099 1_455
O2 S0 1.486062 1_555
O2 Zn0 2.190985 1_555
O3 S0 1.494716 1_555
O4 S1 1.469316 1_555
O4 Zn0 2.036435 1_555
O5 S2 1.488447 1_555
O6 S1 1.493694 1_555
O7 S0 1.479535 1_555
O8 S1 1.488174 1_555
O9 S2 1.485039 1_555
O10 S1 1.486322 1_555
O11 S2 1.466883 1_555
O11 Zn0 2.032270 1_565
O12 S3 1.491788 1_555
O13 S4 1.485944 1_555
O14 S3 1.516172 1_555
O15 S4 1.453165 1_555
O15 Zn0 2.046236 1_565
O16 S5 1.483891 1_555
O17 S4 1.468491 1_555
O18 S3 1.461525 1_555
O18 Zn0 2.114834 1_655
O19 S4 1.526521 1_555
O20 S5 1.489539 1_555
O20 Zn0 2.176217 1_655
O21 S5 1.483233 1_555
O22 S0 1.476699 1_655
O23 S3 1.470249 1_565
