# generated using pymatgen
data_Co29O40
_symmetry_space_group_name_H-M   'P 1'
_cell_length_a   8.33737100
_cell_length_b   10.19918113
_cell_length_c   10.24846200
_cell_angle_alpha   80.16312148
_cell_angle_beta   66.05605714
_cell_angle_gamma   66.06742624
_symmetry_Int_Tables_number   1
_chemical_formula_structural   Co29O40
_chemical_formula_sum   'Co29 O40'
_cell_volume   727.97686021
_cell_formula_units_Z   1
loop_
 _symmetry_equiv_pos_site_id
 _symmetry_equiv_pos_as_xyz
  1  'x, y, z'
loop_
 _atom_site_type_symbol
 _atom_site_label
 _atom_site_symmetry_multiplicity
 _atom_site_fract_x
 _atom_site_fract_y
 _atom_site_fract_z
 _atom_site_occupancy
  Co  Co0  1  0.17122500  0.55057800  0.85832300  1
  Co  Co1  1  0.90012500  0.90511000  0.80195900  1
  Co  Co2  1  0.50182000  0.00060500  0.99734000  1
  Co  Co3  1  0.57263300  0.95508600  0.64863100  1
  Co  Co4  1  0.19932800  0.20587900  0.90017200  1
  Co  Co5  1  0.30026200  0.30043000  0.59805700  1
  Co  Co6  1  0.89789000  0.39533100  0.80519000  1
  Co  Co7  1  0.69753800  0.69789600  0.89749600  1
  Co  Co8  1  0.97792400  0.34510000  0.45044100  1
  Co  Co9  1  0.59667200  0.59957600  0.70127700  1
  Co  Co10  1  0.69439800  0.70052900  0.40088700  1
  Co  Co11  1  0.21885500  0.85718500  0.94926100  1
  Co  Co12  1  0.30600500  0.80113600  0.59799100  1
  Co  Co13  1  0.10227000  0.10383300  0.69744400  1
  Co  Co14  1  0.37556800  0.74816600  0.24710400  1
  Co  Co15  1  0.99892900  0.00106900  0.50009800  1
  Co  Co16  1  0.62588400  0.24913000  0.75068900  1
  Co  Co17  1  0.10203400  0.10007500  0.19930300  1
  Co  Co18  1  0.70306800  0.19685100  0.39983200  1
  Co  Co19  1  0.50360800  0.49908500  0.50164400  1
  Co  Co20  1  0.40546500  0.39246400  0.29559400  1
  Co  Co21  1  0.49859900  0.49358300  0.00380500  1
  Co  Co22  1  0.02771200  0.65067000  0.54697000  1
  Co  Co23  1  0.09566300  0.60048900  0.20175700  1
  Co  Co24  1  0.89958000  0.90461700  0.28934800  1
  Co  Co25  1  0.79696600  0.79998700  0.09599700  1
  Co  Co26  1  0.42986700  0.05100100  0.34390100  1
  Co  Co27  1  0.29840100  0.30017600  0.10225900  1
  Co  Co28  1  0.82852100  0.44838600  0.15088600  1
  O  O0  1  0.92870000  0.71301300  0.91114200  1
  O  O1  1  0.74140400  0.97394600  0.99576000  1
  O  O2  1  0.64974200  0.89989700  0.81163500  1
  O  O3  1  0.42821300  0.20911800  0.91555200  1
  O  O4  1  0.32828300  0.11660100  0.69338400  1
  O  O5  1  0.98115300  0.19808500  0.87097300  1
  O  O6  1  0.14931800  0.39013300  0.79756800  1
  O  O7  1  0.06376100  0.29068900  0.60939900  1
  O  O8  1  0.74288400  0.49941000  0.99151800  1
  O  O9  1  0.64960000  0.41108100  0.80474500  1
  O  O10  1  0.84110800  0.59445800  0.71303900  1
  O  O11  1  0.45965500  0.68899700  0.90282600  1
  O  O12  1  0.73684600  0.50807400  0.50343500  1
  O  O13  1  0.35931500  0.60286000  0.69223000  1
  O  O14  1  0.55281100  0.79045800  0.59465700  1
  O  O15  1  0.45284200  0.69405000  0.41061600  1
  O  O16  1  0.14561300  0.91666000  0.78360700  1
  O  O17  1  0.04366200  0.82092400  0.60366500  1
  O  O18  1  0.23229900  0.00556500  0.51347900  1
  O  O19  1  0.87859900  0.09505900  0.69947100  1
  O  O20  1  0.13799900  0.91433500  0.30042700  1
  O  O21  1  0.76126100  0.01106900  0.48828900  1
  O  O22  1  0.93923100  0.18442700  0.40366300  1
  O  O23  1  0.85134000  0.09922600  0.22704700  1
  O  O24  1  0.54925100  0.29446200  0.58321300  1
  O  O25  1  0.47459300  0.20444700  0.39774700  1
  O  O26  1  0.64724900  0.38541400  0.31433700  1
  O  O27  1  0.27006900  0.48028300  0.49599300  1
  O  O28  1  0.51538300  0.31631600  0.10600100  1
  O  O29  1  0.16766300  0.39126100  0.28682000  1
  O  O30  1  0.33161000  0.59027100  0.20063200  1
  O  O31  1  0.24165800  0.49445800  0.02576600  1
  O  O32  1  0.94823600  0.70780300  0.38083600  1
  O  O33  1  0.85777600  0.61620000  0.19823000  1
  O  O34  1  0.01733900  0.80794700  0.10210000  1
  O  O35  1  0.66752700  0.88470400  0.28226100  1
  O  O36  1  0.57585100  0.79300600  0.08972800  1
  O  O37  1  0.35057800  0.10639700  0.18058000  1
  O  O38  1  0.26133200  0.01402900  0.00113400  1
  O  O39  1  0.07189900  0.28731600  0.09992900  1
loop_
_geom_bond_atom_site_label_1
_geom_bond_atom_site_label_2
_geom_bond_distance
_geom_bond_site_symmetry_2
Co0 O6 1.944691 1_555
Co0 O0 1.956122 1_455
Co0 O31 1.956233 1_556
Co0 O13 1.960259 1_555
Co1 O1 1.943767 1_555
Co1 O19 2.016008 1_565
Co1 O17 2.021830 1_655
Co1 O16 2.028280 1_655
Co1 O0 2.058158 1_555
Co1 O2 2.071398 1_555
Co2 O1 1.897052 1_545
Co2 O38 1.938105 1_556
Co2 O2 1.983222 1_545
Co2 O37 1.986778 1_556
Co2 O3 2.086017 1_555
Co2 O36 2.118878 1_546
Co3 O14 1.941456 1_555
Co3 O2 1.943626 1_555
Co3 O21 1.951895 1_565
Co3 O4 1.962476 1_565
Co4 O6 1.963688 1_555
Co4 O3 1.991134 1_555
Co4 O5 1.992966 1_455
Co4 O38 2.021950 1_556
Co4 O39 2.027143 1_556
Co4 O4 2.119427 1_555
Co5 O27 1.925049 1_555
Co5 O4 1.930882 1_555
Co5 O7 1.969852 1_555
Co5 O24 1.995139 1_555
Co5 O6 2.053765 1_555
Co5 O25 2.096558 1_555
Co6 O5 1.940864 1_555
Co6 O8 2.004985 1_555
Co6 O9 2.012139 1_555
Co6 O10 2.041612 1_555
Co6 O6 2.044874 1_655
Co6 O7 2.087991 1_655
Co7 O10 1.984846 1_555
Co7 O11 2.000298 1_555
Co7 O36 2.020813 1_556
Co7 O2 2.043719 1_555
Co7 O8 2.043972 1_555
Co7 O0 2.055475 1_555
Co8 O29 1.928051 1_655
Co8 O7 1.946587 1_655
Co8 O12 1.951825 1_555
Co8 O22 1.960157 1_555
Co9 O9 2.002522 1_555
Co9 O13 2.004991 1_555
Co9 O14 2.034145 1_555
Co9 O12 2.046004 1_555
Co9 O10 2.069167 1_555
Co9 O11 2.070379 1_555
Co10 O15 2.003248 1_555
Co10 O14 2.004865 1_555
Co10 O12 2.028817 1_555
Co10 O35 2.038641 1_555
Co10 O33 2.066962 1_555
Co10 O32 2.072634 1_555
Co11 O34 1.951448 1_556
Co11 O16 1.952458 1_555
Co11 O38 1.967242 1_566
Co11 O11 1.977110 1_555
Co12 O14 2.002398 1_555
Co12 O15 2.025543 1_555
Co12 O13 2.042469 1_555
Co12 O16 2.053754 1_555
Co12 O18 2.061674 1_565
Co12 O17 2.090648 1_555
Co13 O5 1.856187 1_455
Co13 O19 1.894555 1_455
Co13 O16 1.917809 1_545
Co13 O7 1.923644 1_555
Co13 O4 1.924338 1_555
Co13 O18 1.959454 1_555
Co14 O36 1.944306 1_555
Co14 O15 1.949261 1_555
Co14 O20 1.951538 1_555
Co14 O30 1.958858 1_555
Co15 O22 1.932445 1_555
Co15 O17 1.934031 1_645
Co15 O21 1.994483 1_555
Co15 O18 2.024287 1_655
Co15 O20 2.043248 1_645
Co15 O19 2.079789 1_555
Co16 O9 1.934140 1_555
Co16 O3 1.946083 1_555
Co16 O19 1.970307 1_555
Co16 O24 1.986758 1_555
Co17 O20 1.968056 1_545
Co17 O39 1.975136 1_555
Co17 O23 1.995250 1_455
Co17 O37 2.028901 1_555
Co17 O38 2.032914 1_555
Co17 O22 2.080802 1_455
Co18 O23 1.866082 1_555
Co18 O25 1.883553 1_555
Co18 O21 1.916192 1_555
Co18 O26 1.926656 1_555
Co18 O22 1.937292 1_555
Co18 O24 1.953193 1_555
Co19 O12 1.991072 1_555
Co19 O15 2.001829 1_555
Co19 O13 2.036814 1_555
Co19 O24 2.053510 1_555
Co19 O27 2.056597 1_555
Co19 O26 2.056986 1_555
Co20 O28 1.926462 1_555
Co20 O25 2.003140 1_555
Co20 O29 2.025816 1_555
Co20 O30 2.050399 1_555
Co20 O27 2.054501 1_555
Co20 O26 2.073082 1_555
Co21 O28 1.911019 1_555
Co21 O8 2.013701 1_554
Co21 O9 2.024163 1_554
Co21 O11 2.047352 1_554
Co21 O31 2.057581 1_555
Co21 O30 2.065444 1_555
Co22 O10 1.971503 1_455
Co22 O32 1.985194 1_455
Co22 O17 1.991320 1_555
Co22 O27 1.995061 1_555
Co23 O30 1.922616 1_555
Co23 O31 1.928916 1_555
Co23 O33 1.938823 1_455
Co23 O32 1.959817 1_455
Co23 O29 2.103309 1_555
Co23 O34 2.151399 1_555
Co24 O23 1.907042 1_565
Co24 O34 1.987576 1_655
Co24 O32 2.019423 1_555
Co24 O35 2.056095 1_555
Co24 O20 2.078679 1_655
Co24 O21 2.120765 1_565
Co25 O1 1.874694 1_554
Co25 O34 1.897979 1_655
Co25 O36 1.900513 1_555
Co25 O0 1.917574 1_554
Co25 O35 1.920963 1_555
Co25 O33 1.964055 1_555
Co26 O35 1.955871 1_545
Co26 O25 1.956651 1_555
Co26 O37 1.956975 1_555
Co26 O18 1.992203 1_555
Co27 O28 1.897721 1_555
Co27 O29 1.932401 1_555
Co27 O31 1.942801 1_555
Co27 O37 1.945110 1_555
Co27 O3 1.950889 1_554
Co27 O39 1.955140 1_555
Co28 O8 1.950090 1_554
Co28 O39 1.953809 1_655
Co28 O26 1.966637 1_555
Co28 O33 1.985670 1_555
