# generated using pymatgen
data_Sr2CaI6
_symmetry_space_group_name_H-M   'P 1'
_cell_length_a   7.41956800
_cell_length_b   8.22315000
_cell_length_c   27.45457300
_cell_angle_alpha   90.00000000
_cell_angle_beta   90.00000000
_cell_angle_gamma   90.00000000
_symmetry_Int_Tables_number   1
_chemical_formula_structural   Sr2CaI6
_chemical_formula_sum   'Sr8 Ca4 I24'
_cell_volume   1675.06446433
_cell_formula_units_Z   4
loop_
 _symmetry_equiv_pos_site_id
 _symmetry_equiv_pos_as_xyz
  1  'x, y, z'
loop_
 _atom_site_type_symbol
 _atom_site_label
 _atom_site_symmetry_multiplicity
 _atom_site_fract_x
 _atom_site_fract_y
 _atom_site_fract_z
 _atom_site_occupancy
  Sr  Sr0  1  0.00000000  0.25000000  0.04688600  1
  Sr  Sr1  1  0.00000000  0.75000000  0.28585300  1
  Sr  Sr2  1  0.00000000  0.25000000  0.71414700  1
  Sr  Sr3  1  0.00000000  0.75000000  0.95311400  1
  Sr  Sr4  1  0.50000000  0.25000000  0.21414700  1
  Sr  Sr5  1  0.50000000  0.25000000  0.54688600  1
  Sr  Sr6  1  0.50000000  0.75000000  0.78585300  1
  Sr  Sr7  1  0.50000000  0.75000000  0.45311400  1
  Ca  Ca0  1  0.00000000  0.25000000  0.38045600  1
  Ca  Ca1  1  0.00000000  0.75000000  0.61954400  1
  Ca  Ca2  1  0.50000000  0.25000000  0.88045600  1
  Ca  Ca3  1  0.50000000  0.75000000  0.11954400  1
  I  I0  1  0.24879300  0.58235400  0.04001200  1
  I  I1  1  0.24879300  0.08235400  0.95998800  1
  I  I2  1  0.26145000  0.58380600  0.20175800  1
  I  I3  1  0.26145000  0.08380600  0.79824200  1
  I  I4  1  0.23669300  0.56717600  0.37230100  1
  I  I5  1  0.23669300  0.06717600  0.62769900  1
  I  I6  1  0.26330700  0.56717600  0.87230100  1
  I  I7  1  0.26330700  0.06717600  0.12769900  1
  I  I8  1  0.23855000  0.08380600  0.29824200  1
  I  I9  1  0.23855000  0.58380600  0.70175800  1
  I  I10  1  0.25120700  0.08235400  0.45998800  1
  I  I11  1  0.25120700  0.58235400  0.54001200  1
  I  I12  1  0.74879300  0.41764600  0.45998800  1
  I  I13  1  0.74879300  0.91764600  0.54001200  1
  I  I14  1  0.76145000  0.41619400  0.29824200  1
  I  I15  1  0.76145000  0.91619400  0.70175800  1
  I  I16  1  0.73669300  0.43282400  0.12769900  1
  I  I17  1  0.73669300  0.93282400  0.87230100  1
  I  I18  1  0.76330700  0.93282400  0.37230100  1
  I  I19  1  0.76330700  0.43282400  0.62769900  1
  I  I20  1  0.73855000  0.41619400  0.79824200  1
  I  I21  1  0.73855000  0.91619400  0.20175800  1
  I  I22  1  0.75120700  0.91764600  0.04001200  1
  I  I23  1  0.75120700  0.41764600  0.95998800  1
loop_
_geom_bond_atom_site_label_1
_geom_bond_atom_site_label_2
_geom_bond_distance
_geom_bond_site_symmetry_2
Ca0 I18 3.152278 1_445
Ca0 I4 3.152278 1_555
Ca0 I8 3.177280 1_555
Ca0 I14 3.177280 1_455
Ca0 I12 3.184675 1_455
Ca0 I10 3.184675 1_555
Ca1 I5 3.152278 1_565
Ca1 I19 3.152278 1_455
Ca1 I9 3.177280 1_555
Ca1 I15 3.177280 1_455
Ca1 I11 3.184675 1_555
Ca1 I13 3.184675 1_455
Ca2 I6 3.152278 1_555
Ca2 I17 3.152278 1_545
Ca2 I3 3.177280 1_555
Ca2 I20 3.177280 1_555
Ca2 I23 3.184675 1_555
Ca2 I1 3.184675 1_555
Ca3 I7 3.152278 1_565
Ca3 I16 3.152278 1_555
Ca3 I21 3.177280 1_555
Ca3 I2 3.177280 1_555
Ca3 I22 3.184675 1_555
Ca3 I0 3.184675 1_555
I0 Sr0 3.303388 1_555
I0 Sr3 3.316587 1_554
I1 Sr3 3.303388 1_545
I1 Sr0 3.316587 1_556
I2 Sr4 3.283755 1_555
I2 Sr1 3.310774 1_555
I3 Sr6 3.283755 1_545
I3 Sr2 3.310774 1_555
I4 Sr1 3.313196 1_555
I4 Sr7 3.316534 1_555
I5 Sr2 3.313196 1_555
I5 Sr5 3.316534 1_555
I6 Sr6 3.313196 1_555
I6 Sr3 3.316534 1_555
I7 Sr4 3.313196 1_555
I7 Sr0 3.316534 1_555
I8 Sr1 3.283755 1_545
I8 Sr4 3.310774 1_555
I9 Sr2 3.283755 1_555
I9 Sr6 3.310774 1_555
I10 Sr7 3.303388 1_545
I10 Sr5 3.316587 1_555
I11 Sr5 3.303388 1_555
I11 Sr7 3.316587 1_555
I12 Sr7 3.303388 1_555
I12 Sr5 3.316587 1_555
I13 Sr5 3.303388 1_565
I13 Sr7 3.316587 1_555
I14 Sr1 3.283755 1_655
I14 Sr4 3.310774 1_555
I15 Sr2 3.283755 1_665
I15 Sr6 3.310774 1_555
I16 Sr4 3.313196 1_555
I16 Sr0 3.316534 1_655
I17 Sr6 3.313196 1_555
I17 Sr3 3.316534 1_655
I18 Sr1 3.313196 1_655
I18 Sr7 3.316534 1_555
I19 Sr2 3.313196 1_655
I19 Sr5 3.316534 1_555
I20 Sr6 3.283755 1_555
I20 Sr2 3.310774 1_655
I21 Sr4 3.283755 1_565
I21 Sr1 3.310774 1_655
I22 Sr0 3.303388 1_665
I22 Sr3 3.316587 1_654
I23 Sr3 3.303388 1_655
I23 Sr0 3.316587 1_656
