# generated using pymatgen
data_SrLaI5
_symmetry_space_group_name_H-M   'P 1'
_cell_length_a   11.44937656
_cell_length_b   11.44937656
_cell_length_c   7.98041286
_cell_angle_alpha   88.48330626
_cell_angle_beta   88.48330626
_cell_angle_gamma   147.47875067
_symmetry_Int_Tables_number   1
_chemical_formula_structural   SrLaI5
_chemical_formula_sum   'Sr2 La2 I10'
_cell_volume   559.89846678
_cell_formula_units_Z   2
loop_
 _symmetry_equiv_pos_site_id
 _symmetry_equiv_pos_as_xyz
  1  'x, y, z'
loop_
 _atom_site_type_symbol
 _atom_site_label
 _atom_site_symmetry_multiplicity
 _atom_site_fract_x
 _atom_site_fract_y
 _atom_site_fract_z
 _atom_site_occupancy
  Sr  Sr0  1  0.67560100  0.32180300  0.25637300  1
  Sr  Sr1  1  0.32180300  0.67560100  0.75637300  1
  La  La0  1  0.92026900  0.07976600  0.24939200  1
  La  La1  1  0.07976600  0.92026900  0.74939200  1
  I  I0  1  0.78850900  0.71253000  0.10652900  1
  I  I1  1  0.80581100  0.19958800  0.99284800  1
  I  I2  1  0.62909700  0.36955300  0.74437500  1
  I  I3  1  0.79571100  0.19016200  0.50575100  1
  I  I4  1  0.71253000  0.78850900  0.60652900  1
  I  I5  1  0.28401200  0.20784800  0.39205100  1
  I  I6  1  0.19958800  0.80581100  0.49284800  1
  I  I7  1  0.36955300  0.62909700  0.24437500  1
  I  I8  1  0.19016200  0.79571100  0.00575100  1
  I  I9  1  0.20784800  0.28401200  0.89205100  1
loop_
_geom_bond_atom_site_label_1
_geom_bond_atom_site_label_2
_geom_bond_distance
_geom_bond_site_symmetry_2
I0 La1 3.265415 1_654
I0 La0 3.301910 1_565
I0 Sr0 3.605061 1_555
I1 La0 3.288787 1_556
I1 Sr0 3.480098 1_556
I1 Sr1 3.568473 1_655
I1 Sr1 3.917942 1_545
I2 La1 3.381715 1_545
I2 La1 3.397273 1_655
I2 Sr0 4.030262 1_555
I3 La0 3.292286 1_555
I3 Sr0 3.406597 1_555
I3 Sr1 3.611628 1_545
I3 Sr1 3.992787 1_655
I4 La0 3.265415 1_565
I4 La1 3.301910 1_655
I4 Sr1 3.605061 1_555
I5 La1 3.256895 1_545
I5 La0 3.291043 1_455
I5 Sr0 3.574845 1_555
I6 La1 3.288787 1_555
I6 Sr1 3.480098 1_555
I6 Sr0 3.568473 1_565
I6 Sr0 3.917942 1_455
I7 La0 3.381715 1_455
I7 La0 3.397273 1_565
I7 Sr1 4.030262 1_554
I8 La1 3.292286 1_554
I8 Sr1 3.406597 1_554
I8 Sr0 3.611628 1_455
I8 Sr0 3.992787 1_565
I9 La0 3.256895 1_456
I9 La1 3.291043 1_545
I9 Sr1 3.574845 1_555
