# generated using pymatgen
data_Li2CoSiO4
_symmetry_space_group_name_H-M   'P 1'
_cell_length_a   7.36594345
_cell_length_b   7.66398825
_cell_length_c   8.21147547
_cell_angle_alpha   117.81889152
_cell_angle_beta   116.00741284
_cell_angle_gamma   89.99513564
_symmetry_Int_Tables_number   1
_chemical_formula_structural   Li2CoSiO4
_chemical_formula_sum   'Li8 Co4 Si4 O16'
_cell_volume   356.05835235
_cell_formula_units_Z   4
loop_
 _symmetry_equiv_pos_site_id
 _symmetry_equiv_pos_as_xyz
  1  'x, y, z'
loop_
 _atom_site_type_symbol
 _atom_site_label
 _atom_site_symmetry_multiplicity
 _atom_site_fract_x
 _atom_site_fract_y
 _atom_site_fract_z
 _atom_site_occupancy
  Li  Li0  1  0.74998700  0.57337700  0.49997300  1
  Li  Li1  1  0.24999500  0.07339700  0.50000400  1
  Li  Li2  1  0.75001300  0.92644100  0.50002300  1
  Li  Li3  1  0.25000800  0.42642000  0.49999400  1
  Li  Li4  1  0.05025400  0.36855500  0.73743200  1
  Li  Li5  1  0.55026300  0.86856600  0.73744000  1
  Li  Li6  1  0.44974000  0.13111100  0.26255500  1
  Li  Li7  1  0.94974200  0.63110600  0.26255600  1
  Co  Co0  1  0.49999500  0.68803000  0.99999900  1
  Co  Co1  1  0.00001000  0.81185400  0.00000200  1
  Co  Co2  1  0.99999900  0.18805900  0.99999900  1
  Co  Co3  1  0.50001100  0.31180600  0.99999800  1
  Si  Si0  1  0.80636800  0.12847200  0.25715200  1
  Si  Si1  1  0.30636900  0.62857900  0.25715200  1
  Si  Si2  1  0.69363500  0.37139700  0.74284200  1
  Si  Si3  1  0.19362400  0.87129800  0.74284500  1
  O  O0  1  0.82148600  0.01622700  0.03265200  1
  O  O1  1  0.32151500  0.51629400  0.03266600  1
  O  O2  1  0.67849800  0.48363400  0.96732900  1
  O  O3  1  0.17849100  0.98358900  0.96734000  1
  O  O4  1  0.03685200  0.23204500  0.46437000  1
  O  O5  1  0.53685000  0.73207100  0.46437400  1
  O  O6  1  0.46315100  0.26768200  0.53563300  1
  O  O7  1  0.96314400  0.76765400  0.53562600  1
  O  O8  1  0.66400800  0.29528700  0.25034400  1
  O  O9  1  0.16390800  0.79533100  0.25038800  1
  O  O10  1  0.83610900  0.54491300  0.74964300  1
  O  O11  1  0.33598500  0.04492700  0.74968500  1
  O  O12  1  0.66373200  0.95504400  0.25033200  1
  O  O13  1  0.16383200  0.45504100  0.25029000  1
  O  O14  1  0.83616100  0.20469100  0.74968100  1
  O  O15  1  0.33625500  0.70466600  0.74965800  1
loop_
_geom_bond_atom_site_label_1
_geom_bond_atom_site_label_2
_geom_bond_distance
_geom_bond_site_symmetry_2
Li0 O8 1.982263 1_555
Li0 O10 1.982427 1_555
Li0 O7 1.989544 1_555
Li0 O5 1.989589 1_555
Li1 O9 1.982006 1_545
Li1 O11 1.982670 1_555
Li1 O4 1.989406 1_555
Li1 O6 1.989689 1_555
Li2 O14 1.982917 1_565
Li2 O12 1.983066 1_555
Li2 O7 1.990044 1_555
Li2 O5 1.990079 1_555
Li3 O15 1.982821 1_555
Li3 O13 1.983351 1_555
Li3 O6 1.989878 1_555
Li3 O4 1.990180 1_555
Li4 O4 1.936060 1_555
Li4 O14 2.081235 1_455
Li4 O10 2.082515 1_455
Li4 O1 2.083738 1_556
Li5 O5 1.936052 1_555
Li5 O15 2.080751 1_555
Li5 O11 2.083314 1_565
Li5 O0 2.083524 1_566
Li6 O6 1.936146 1_555
Li6 O12 2.080249 1_545
Li6 O8 2.083530 1_555
Li6 O3 2.083622 1_544
Li7 O7 1.936118 1_555
Li7 O13 2.080829 1_655
Li7 O9 2.082946 1_655
Li7 O2 2.083654 1_554
Co0 O15 1.940873 1_555
Co0 O12 1.941089 1_556
Co0 O2 2.042405 1_555
Co0 O1 2.042486 1_556
Co1 O9 1.940873 1_555
Co1 O10 1.941029 1_454
Co1 O0 2.042380 1_465
Co1 O3 2.042457 1_554
Co2 O14 1.940815 1_555
Co2 O13 1.940961 1_656
Co2 O3 2.042744 1_645
Co2 O0 2.043094 1_556
Co3 O8 1.940703 1_556
Co3 O11 1.940797 1_555
Co3 O1 2.042866 1_556
Co3 O2 2.043032 1_555
O0 Si0 1.688398 1_555
O1 Si1 1.688408 1_555
O2 Si2 1.688380 1_555
O3 Si3 1.688422 1_555
O4 Si0 1.616748 1_455
O5 Si1 1.616747 1_555
O6 Si2 1.616721 1_555
O7 Si3 1.616733 1_655
O8 Si0 1.658997 1_555
O9 Si1 1.659035 1_555
O10 Si2 1.659045 1_555
O11 Si3 1.659014 1_545
O12 Si0 1.659157 1_565
O13 Si1 1.659155 1_555
O14 Si2 1.659125 1_555
O15 Si3 1.659133 1_555
