# generated using pymatgen
data_AlCuO3
_symmetry_space_group_name_H-M   'P 1'
_cell_length_a   6.78166700
_cell_length_b   4.70912300
_cell_length_c   6.23274940
_cell_angle_alpha   85.48211893
_cell_angle_beta   90.00000000
_cell_angle_gamma   90.00000000
_symmetry_Int_Tables_number   1
_chemical_formula_structural   AlCuO3
_chemical_formula_sum   'Al4 Cu4 O12'
_cell_volume   198.42876063
_cell_formula_units_Z   4
loop_
 _symmetry_equiv_pos_site_id
 _symmetry_equiv_pos_as_xyz
  1  'x, y, z'
loop_
 _atom_site_type_symbol
 _atom_site_label
 _atom_site_symmetry_multiplicity
 _atom_site_fract_x
 _atom_site_fract_y
 _atom_site_fract_z
 _atom_site_occupancy
  Al  Al0  1  0.19775600  0.51849200  0.74811100  1
  Al  Al1  1  0.69775600  0.48150800  0.75188900  1
  Al  Al2  1  0.30224400  0.51849200  0.24811100  1
  Al  Al3  1  0.80224400  0.48150800  0.25188900  1
  Cu  Cu0  1  0.00000000  0.00000000  0.50000000  1
  Cu  Cu1  1  0.50000000  0.00000000  0.50000000  1
  Cu  Cu2  1  0.00000000  0.00000000  0.00000000  1
  Cu  Cu3  1  0.50000000  0.00000000  0.00000000  1
  O  O0  1  0.60558100  0.85116800  0.75846200  1
  O  O1  1  0.89441900  0.85116800  0.25846200  1
  O  O2  1  0.18852000  0.69528100  0.00283700  1
  O  O3  1  0.31148000  0.69528100  0.50283700  1
  O  O4  1  0.94357100  0.66078400  0.66967100  1
  O  O5  1  0.55642900  0.66078400  0.16967100  1
  O  O6  1  0.44357100  0.33921600  0.83032900  1
  O  O7  1  0.05642900  0.33921600  0.33032900  1
  O  O8  1  0.68852000  0.30471900  0.49716300  1
  O  O9  1  0.81148000  0.30471900  0.99716300  1
  O  O10  1  0.10558100  0.14883200  0.74153800  1
  O  O11  1  0.39441900  0.14883200  0.24153800  1
loop_
_geom_bond_atom_site_label_1
_geom_bond_atom_site_label_2
_geom_bond_distance
_geom_bond_site_symmetry_2
Al0 O3 1.850518 1_555
Al0 O2 1.850906 1_556
Al0 O10 1.853095 1_555
Al0 O4 1.899443 1_455
Al0 O6 1.919943 1_555
Al1 O9 1.850518 1_555
Al1 O8 1.850906 1_555
Al1 O0 1.853095 1_555
Al1 O6 1.899443 1_555
Al1 O4 1.919943 1_555
Al2 O2 1.850518 1_555
Al2 O3 1.850906 1_555
Al2 O11 1.853095 1_555
Al2 O5 1.899443 1_555
Al2 O7 1.919943 1_555
Al3 O8 1.850518 1_555
Al3 O9 1.850906 1_554
Al3 O1 1.853095 1_555
Al3 O7 1.899443 1_655
Al3 O5 1.919943 1_555
Cu0 O10 1.853776 1_555
Cu0 O1 1.853776 1_445
Cu0 O7 1.884244 1_555
Cu0 O4 1.884244 1_445
Cu1 O0 1.849626 1_545
Cu1 O11 1.849626 1_555
Cu1 O8 1.920920 1_555
Cu1 O3 1.920920 1_545
Cu2 O1 1.849626 1_445
Cu2 O10 1.849626 1_554
Cu2 O9 1.920920 1_454
Cu2 O2 1.920920 1_545
Cu3 O0 1.853776 1_544
Cu3 O11 1.853776 1_555
Cu3 O6 1.884244 1_554
Cu3 O5 1.884244 1_545
