# generated using pymatgen
data_Li9V3P8O29
_symmetry_space_group_name_H-M   'P 1'
_cell_length_a   9.90795500
_cell_length_b   9.91793332
_cell_length_c   13.70865280
_cell_angle_alpha   89.98171025
_cell_angle_beta   90.18422999
_cell_angle_gamma   119.83354114
_symmetry_Int_Tables_number   1
_chemical_formula_structural   Li9V3P8O29
_chemical_formula_sum   'Li18 V6 P16 O58'
_cell_volume   1168.56782077
_cell_formula_units_Z   2
loop_
 _symmetry_equiv_pos_site_id
 _symmetry_equiv_pos_as_xyz
  1  'x, y, z'
loop_
 _atom_site_type_symbol
 _atom_site_label
 _atom_site_symmetry_multiplicity
 _atom_site_fract_x
 _atom_site_fract_y
 _atom_site_fract_z
 _atom_site_occupancy
  Li  Li0  1  0.65868200  0.76466900  0.06487500  1
  Li  Li1  1  0.66882900  0.90187200  0.56254500  1
  Li  Li2  1  0.23237300  0.33074700  0.56151600  1
  Li  Li3  1  0.31678400  0.65492300  0.37672100  1
  Li  Li4  1  0.33383200  0.66686300  0.87958700  1
  Li  Li5  1  0.10196200  0.34196300  0.07188400  1
  Li  Li6  1  0.23329000  0.89266400  0.06516200  1
  Li  Li7  1  0.90159400  0.24152800  0.42625100  1
  Li  Li8  1  0.01471400  0.43663400  0.25595200  1
  Li  Li9  1  0.09742500  0.76657900  0.56155000  1
  Li  Li10  1  0.77079600  0.09415600  0.93510200  1
  Li  Li11  1  0.90638500  0.67595600  0.93510300  1
  Li  Li12  1  0.66612100  0.33312800  0.61875700  1
  Li  Li13  1  0.76817300  0.66580300  0.43404600  1
  Li  Li14  1  0.33334300  0.10052200  0.43428500  1
  Li  Li15  1  0.32472600  0.22987100  0.93498600  1
  Li  Li16  1  0.99964300  0.00044900  0.00009000  1
  Li  Li17  1  0.00244400  0.00067900  0.49390600  1
  V  V0  1  0.00170400  0.56583900  0.74906900  1
  V  V1  1  0.56505500  0.99858400  0.74924700  1
  V  V2  1  0.68503800  0.33187500  0.13146100  1
  V  V3  1  0.42857700  0.99426600  0.25302800  1
  V  V4  1  0.56343100  0.56678200  0.25248600  1
  V  V5  1  0.43368600  0.43508900  0.74926300  1
  P  P0  1  0.68358300  0.77321400  0.84478900  1
  P  P1  1  0.68379500  0.91226100  0.34555500  1
  P  P2  1  0.22736100  0.31672200  0.34637300  1
  P  P3  1  0.33588600  0.66626700  0.12228100  1
  P  P4  1  0.33375200  0.66682100  0.62240800  1
  P  P5  1  0.08972200  0.31564200  0.84517400  1
  P  P6  1  0.91035200  0.22613300  0.65492600  1
  P  P7  1  0.22681100  0.91018800  0.84463200  1
  P  P8  1  0.77596300  0.09098700  0.15323300  1
  P  P9  1  0.09028300  0.76982800  0.34717600  1
  P  P10  1  0.90728700  0.68610100  0.15499200  1
  P  P11  1  0.66172400  0.32889700  0.37530200  1
  P  P12  1  0.66716000  0.33328100  0.87852500  1
  P  P13  1  0.77275600  0.68327600  0.65554400  1
  P  P14  1  0.31567500  0.08955600  0.65558700  1
  P  P15  1  0.31825100  0.22349200  0.15443500  1
  O  O0  1  0.76737100  0.77129700  0.56623000  1
  O  O1  1  0.67494600  0.75395300  0.34527500  1
  O  O2  1  0.76248300  0.99097100  0.06562600  1
  O  O3  1  0.67240300  0.92208100  0.84389800  1
  O  O4  1  0.52067600  0.63007300  0.83416500  1
  O  O5  1  0.49041900  0.67787700  0.16371900  1
  O  O6  1  0.37271400  0.48069600  0.33549900  1
  O  O7  1  0.23026600  0.23285300  0.06578000  1
  O  O8  1  0.25052800  0.32823300  0.84412600  1
  O  O9  1  0.48633700  0.81061700  0.66238800  1
  O  O10  1  0.51978800  0.89189800  0.33628800  1
  O  O11  1  0.32450200  0.51379400  0.66193500  1
  O  O12  1  0.34940900  0.68260200  0.01204700  1
  O  O13  1  0.33552600  0.66772100  0.51263700  1
  O  O14  1  0.19558500  0.51713800  0.15732000  1
  O  O15  1  0.37031400  0.89055100  0.83389600  1
  O  O16  1  0.32896800  0.81230400  0.16324300  1
  O  O17  1  0.07941400  0.32338300  0.34578000  1
  O  O18  1  0.99945200  0.21345900  0.75046300  1
  O  O19  1  0.00345500  0.23006800  0.56609900  1
  O  O20  1  0.99833300  0.22415900  0.93430400  1
  O  O21  1  0.10915500  0.47892000  0.83507300  1
  O  O22  1  0.18913800  0.67525400  0.66152400  1
  O  O23  1  0.91149800  0.25428200  0.14661100  1
  O  O24  1  0.11261000  0.63090200  0.34067800  1
  O  O25  1  0.24516900  0.92517200  0.34380600  1
  O  O26  1  0.78337000  0.00400200  0.24923900  1
  O  O27  1  0.77661500  0.00678300  0.43367400  1
  O  O28  1  0.22688800  0.99604600  0.56645900  1
  O  O29  1  0.75017200  0.07824800  0.65513700  1
  O  O30  1  0.88915600  0.36956800  0.66738200  1
  O  O31  1  0.07841600  0.75001800  0.84380300  1
  O  O32  1  0.79786900  0.31687100  0.33360800  1
  O  O33  1  0.88123800  0.51825100  0.15903700  1
  O  O34  1  0.00201900  0.77610700  0.06633400  1
  O  O35  1  0.99572800  0.77565000  0.43378400  1
  O  O36  1  0.99629300  0.77740700  0.25031300  1
  O  O37  1  0.92158300  0.67184000  0.65528400  1
  O  O38  1  0.67432200  0.18813000  0.84442600  1
  O  O39  1  0.62683600  0.11183500  0.16416100  1
  O  O40  1  0.81199400  0.48542800  0.84467400  1
  O  O41  1  0.66544600  0.33268100  0.99250900  1
  O  O42  1  0.65490000  0.33236700  0.48555900  1
  O  O43  1  0.67058100  0.48349300  0.33499300  1
  O  O44  1  0.48004100  0.11031000  0.66819700  1
  O  O45  1  0.50469100  0.18749100  0.33504600  1
  O  O46  1  0.74711100  0.67427800  0.15494500  1
  O  O47  1  0.78642500  0.78576700  0.75048000  1
  O  O48  1  0.77462600  0.77199300  0.93431700  1
  O  O49  1  0.63001900  0.51940800  0.66824000  1
  O  O50  1  0.51471200  0.32610000  0.84391900  1
  O  O51  1  0.49068300  0.36331700  0.16193900  1
  O  O52  1  0.32813200  0.07445800  0.15227300  1
  O  O53  1  0.22795200  0.00162600  0.93438900  1
  O  O54  1  0.21370900  0.00085200  0.75057200  1
  O  O55  1  0.32702400  0.24939200  0.65556500  1
  O  O56  1  0.23694000  0.22714200  0.43431300  1
  O  O57  1  0.22478000  0.21877500  0.24921500  1
loop_
_geom_bond_atom_site_label_1
_geom_bond_atom_site_label_2
_geom_bond_distance
_geom_bond_site_symmetry_2
Li0 O2 1.949008 1_555
Li0 O46 1.967170 1_555
Li0 O5 1.985535 1_555
Li0 O48 2.111481 1_554
Li1 O0 1.972461 1_555
Li1 O29 1.978082 1_565
Li1 O27 2.061442 1_565
Li1 O9 2.085359 1_555
Li2 O19 1.973027 1_555
Li2 O55 1.984238 1_555
Li2 O56 2.036318 1_555
Li2 O11 2.090174 1_555
Li3 O13 1.869940 1_555
Li3 O24 1.976699 1_555
Li3 O6 2.137213 1_555
Li3 O10 2.275863 1_555
Li4 O12 1.822059 1_556
Li4 O4 2.151185 1_555
Li4 O15 2.155811 1_555
Li4 O21 2.160050 1_555
Li5 O14 1.908269 1_555
Li5 O23 1.935430 1_455
Li5 O7 2.040475 1_555
Li5 O20 2.184448 1_454
Li6 O52 1.966816 1_565
Li6 O34 1.987937 1_555
Li6 O16 2.021030 1_555
Li6 O53 2.107020 1_564
Li7 O17 1.889148 1_655
Li7 O32 1.995635 1_555
Li7 O27 2.023950 1_555
Li7 O19 2.192807 1_655
Li8 O17 1.974689 1_555
Li8 O24 2.033940 1_555
Li8 O14 2.066022 1_555
Li8 O32 2.152892 1_455
Li8 O23 2.171430 1_455
Li8 O33 2.285262 1_455
Li9 O28 1.980989 1_555
Li9 O37 1.988527 1_455
Li9 O35 2.042025 1_455
Li9 O22 2.081947 1_555
Li10 O3 1.940187 1_545
Li10 O20 1.962913 1_555
Li10 O2 2.042457 1_546
Li10 O38 2.050738 1_555
Li11 O31 1.943893 1_655
Li11 O48 1.961800 1_555
Li11 O34 2.043182 1_656
Li11 O40 2.053742 1_555
Li12 O42 1.828779 1_555
Li12 O30 2.157385 1_555
Li12 O49 2.159001 1_555
Li12 O44 2.166885 1_555
Li13 O35 1.956092 1_555
Li13 O1 1.973332 1_555
Li13 O43 2.074066 1_555
Li13 O0 2.094737 1_555
Li14 O56 1.919072 1_555
Li14 O25 1.951643 1_545
Li14 O45 2.008508 1_555
Li14 O28 2.095934 1_545
Li15 O8 1.936615 1_555
Li15 O53 1.970841 1_555
Li15 O7 2.032251 1_556
Li15 O50 2.059026 1_555
Li16 O20 2.400748 1_554
Li16 O34 2.413831 1_645
Li16 O48 2.424801 1_544
Li16 O53 2.432109 1_654
Li16 O7 2.468362 1_655
Li16 O2 2.476116 1_545
Li17 O35 2.349002 1_445
Li17 O27 2.411375 1_455
Li17 O56 2.434973 1_555
Li17 O28 2.454377 1_545
Li17 O19 2.476724 1_555
Li17 O0 2.514895 1_445
O0 P13 1.519633 1_555
O1 P1 1.528370 1_555
O1 V4 2.058292 1_555
O2 P8 1.520545 1_565
O3 P0 1.534613 1_555
O3 V1 2.045481 1_555
O4 P0 1.536428 1_555
O4 V5 2.043001 1_555
O5 P3 1.580908 1_555
O5 V4 2.001166 1_555
O6 P2 1.553055 1_555
O6 V4 2.000659 1_555
O7 P15 1.522913 1_555
O8 P5 1.535077 1_555
O8 V5 2.051410 1_555
O9 P4 1.571567 1_555
O9 V1 2.012535 1_555
O10 P1 1.539360 1_555
O10 V3 2.013895 1_555
O11 P4 1.570624 1_555
O11 V5 2.010974 1_555
O12 P3 1.518997 1_555
O13 P4 1.504943 1_555
O14 P3 1.519492 1_555
O15 P7 1.535594 1_555
O15 V1 2.043080 1_555
O16 P3 1.586626 1_555
O16 V3 1.991820 1_555
O17 P2 1.499809 1_555
O18 P5 1.613774 1_655
O18 P6 1.616562 1_555
O19 P6 1.518756 1_455
O20 P5 1.524805 1_655
O21 P5 1.538974 1_555
O21 V0 2.042306 1_555
O22 P4 1.572177 1_555
O22 V0 2.018678 1_555
O23 P8 1.507078 1_555
O24 P9 1.502943 1_555
O25 P9 1.542349 1_555
O25 V3 2.023720 1_555
O26 P8 1.594822 1_555
O26 P1 1.630658 1_545
O27 P1 1.523033 1_545
O28 P14 1.519509 1_565
O29 P6 1.534274 1_555
O29 V1 2.055584 1_545
O30 P6 1.547458 1_555
O30 V0 2.029864 1_655
O31 P7 1.536692 1_555
O31 V0 2.052990 1_555
O32 P11 1.524985 1_555
O33 P10 1.553557 1_555
O33 V2 1.938852 1_555
O34 P10 1.525775 1_455
O35 P9 1.533515 1_655
O36 P10 1.582417 1_555
O36 P9 1.642474 1_655
O37 P13 1.534170 1_555
O37 V0 2.052146 1_655
O38 P12 1.548635 1_555
O38 V1 2.091902 1_545
O39 P8 1.598044 1_555
O39 V2 2.011220 1_555
O39 V3 2.106639 1_545
O40 P12 1.549504 1_555
O40 V0 2.100112 1_655
O41 P12 1.562691 1_555
O41 V2 1.914506 1_556
O42 P11 1.514370 1_555
O43 P11 1.590556 1_555
O43 V4 1.988208 1_555
O44 P14 1.545656 1_555
O44 V1 2.023297 1_545
O45 P11 1.586219 1_555
O45 V3 2.015798 1_545
O46 P10 1.532061 1_555
O46 V4 2.078678 1_555
O47 P0 1.614737 1_555
O47 P13 1.614964 1_555
O48 P0 1.524423 1_555
O49 P13 1.544748 1_555
O49 V5 2.027758 1_555
O50 P12 1.549181 1_555
O50 V5 2.086273 1_555
O51 P15 1.579298 1_555
O51 V2 2.140727 1_555
O51 V4 2.163584 1_555
O52 P15 1.529476 1_555
O52 V3 2.075753 1_545
O53 P7 1.525443 1_545
O54 P7 1.613190 1_545
O54 P14 1.616646 1_555
O55 P14 1.532411 1_555
O55 V5 2.053025 1_555
O56 P2 1.527792 1_555
O57 P15 1.585134 1_555
O57 P2 1.641401 1_555
