# generated using pymatgen
data_LiFePO5
_symmetry_space_group_name_H-M   'P 1'
_cell_length_a   7.98618700
_cell_length_b   7.04978500
_cell_length_c   7.26558810
_cell_angle_alpha   61.79963503
_cell_angle_beta   90.00000000
_cell_angle_gamma   90.00000000
_symmetry_Int_Tables_number   1
_chemical_formula_structural   LiFePO5
_chemical_formula_sum   'Li4 Fe4 P4 O20'
_cell_volume   360.50401710
_cell_formula_units_Z   4
loop_
 _symmetry_equiv_pos_site_id
 _symmetry_equiv_pos_as_xyz
  1  'x, y, z'
loop_
 _atom_site_type_symbol
 _atom_site_label
 _atom_site_symmetry_multiplicity
 _atom_site_fract_x
 _atom_site_fract_y
 _atom_site_fract_z
 _atom_site_occupancy
  Li  Li0  1  0.56238200  0.27944400  0.25219300  1
  Li  Li1  1  0.93761800  0.77944400  0.25219300  1
  Li  Li2  1  0.06238200  0.22055600  0.74780700  1
  Li  Li3  1  0.43761800  0.72055600  0.74780700  1
  Fe  Fe0  1  0.24648400  0.49989800  0.24991900  1
  Fe  Fe1  1  0.25351600  0.99989800  0.24991900  1
  Fe  Fe2  1  0.74648400  0.00010200  0.75008100  1
  Fe  Fe3  1  0.75351600  0.50010200  0.75008100  1
  P  P0  1  0.60827100  0.74851200  0.25039800  1
  P  P1  1  0.10827100  0.75148800  0.74960200  1
  P  P2  1  0.89172900  0.24851200  0.25039800  1
  P  P3  1  0.39172900  0.25148800  0.74960200  1
  O  O0  1  0.32227900  0.25126900  0.24950900  1
  O  O1  1  0.00073400  0.42298900  0.26331800  1
  O  O2  1  0.73501800  0.84776100  0.06497300  1
  O  O3  1  0.76405200  0.15218200  0.43510500  1
  O  O4  1  0.50037100  0.57152700  0.23956700  1
  O  O5  1  0.17772100  0.75126900  0.24950900  1
  O  O6  1  0.49926600  0.92298900  0.26331800  1
  O  O7  1  0.76498200  0.34776100  0.06497300  1
  O  O8  1  0.00037100  0.92847300  0.76043300  1
  O  O9  1  0.26405200  0.34781800  0.56489500  1
  O  O10  1  0.73594800  0.65218200  0.43510500  1
  O  O11  1  0.99962900  0.07152700  0.23956700  1
  O  O12  1  0.23501800  0.65223900  0.93502700  1
  O  O13  1  0.50073400  0.07701100  0.73668200  1
  O  O14  1  0.82227900  0.24873100  0.75049100  1
  O  O15  1  0.49962900  0.42847300  0.76043300  1
  O  O16  1  0.23594800  0.84781800  0.56489500  1
  O  O17  1  0.26498200  0.15223900  0.93502700  1
  O  O18  1  0.99926600  0.57701100  0.73668200  1
  O  O19  1  0.67772100  0.74873100  0.75049100  1
loop_
_geom_bond_atom_site_label_1
_geom_bond_atom_site_label_2
_geom_bond_distance
_geom_bond_site_symmetry_2
Li0 O0 1.928815 1_555
Li0 O3 2.009513 1_555
Li0 O7 2.020156 1_555
Li0 O4 2.077289 1_555
Li0 O6 2.526551 1_545
Li1 O5 1.928815 1_655
Li1 O10 2.009513 1_555
Li1 O2 2.020156 1_555
Li1 O11 2.077289 1_565
Li1 O1 2.526551 1_655
Li2 O14 1.928815 1_455
Li2 O9 2.009513 1_555
Li2 O17 2.020156 1_555
Li2 O8 2.077289 1_545
Li2 O18 2.526551 1_455
Li3 O19 1.928815 1_555
Li3 O16 2.009513 1_555
Li3 O12 2.020156 1_555
Li3 O15 2.077289 1_555
Li3 O13 2.526551 1_565
Fe0 O5 1.853906 1_555
Fe0 O0 1.855691 1_555
Fe0 O12 2.018397 1_554
Fe0 O9 2.021739 1_555
Fe0 O1 2.026175 1_555
Fe0 O4 2.082276 1_555
Fe1 O0 1.853906 1_565
Fe1 O5 1.855691 1_555
Fe1 O17 2.018397 1_564
Fe1 O16 2.021739 1_555
Fe1 O6 2.026175 1_555
Fe1 O11 2.082276 1_465
Fe2 O19 1.853906 1_545
Fe2 O14 1.855691 1_555
Fe2 O2 2.018397 1_546
Fe2 O3 2.021739 1_555
Fe2 O13 2.026175 1_555
Fe2 O8 2.082276 1_645
Fe3 O14 1.853906 1_555
Fe3 O19 1.855691 1_555
Fe3 O7 2.018397 1_556
Fe3 O10 2.021739 1_555
Fe3 O18 2.026175 1_555
Fe3 O15 2.082276 1_555
O1 P2 1.545552 1_455
O2 P0 1.561497 1_555
O3 P2 1.562214 1_555
O4 P0 1.548646 1_555
O6 P0 1.545552 1_555
O7 P2 1.561497 1_555
O8 P1 1.548646 1_555
O9 P3 1.562214 1_555
O10 P0 1.562214 1_555
O11 P2 1.548646 1_555
O12 P1 1.561497 1_555
O13 P3 1.545552 1_555
O15 P3 1.548646 1_555
O16 P1 1.562214 1_555
O17 P3 1.561497 1_555
O18 P1 1.545552 1_655
