# generated using pymatgen
data_Li2VCr(P2O7)2
_symmetry_space_group_name_H-M   'P 1'
_cell_length_a   8.22140500
_cell_length_b   7.15127700
_cell_length_c   9.74233807
_cell_angle_alpha   68.53644736
_cell_angle_beta   90.00000000
_cell_angle_gamma   90.00000000
_symmetry_Int_Tables_number   1
_chemical_formula_structural   Li2VCr(P2O7)2
_chemical_formula_sum   'Li4 V2 Cr2 P8 O28'
_cell_volume   533.06413530
_cell_formula_units_Z   2
loop_
 _symmetry_equiv_pos_site_id
 _symmetry_equiv_pos_as_xyz
  1  'x, y, z'
loop_
 _atom_site_type_symbol
 _atom_site_label
 _atom_site_symmetry_multiplicity
 _atom_site_fract_x
 _atom_site_fract_y
 _atom_site_fract_z
 _atom_site_occupancy
  Li  Li0  1  0.63699100  0.67649700  0.75028600  1
  Li  Li1  1  0.13720100  0.32333900  0.75003200  1
  Li  Li2  1  0.63720100  0.67666100  0.24996800  1
  Li  Li3  1  0.13699100  0.32350300  0.24971400  1
  V  V0  1  0.00036500  0.72930600  0.74349700  1
  V  V1  1  0.50036500  0.27069400  0.25650300  1
  Cr  Cr0  1  0.49991700  0.27216600  0.75675700  1
  Cr  Cr1  1  0.99991700  0.72783400  0.24324300  1
  P  P0  1  0.21721300  0.91422600  0.93720700  1
  P  P1  1  0.32025100  0.52154900  0.93871400  1
  P  P2  1  0.81941300  0.47711400  0.56089800  1
  P  P3  1  0.21508700  0.91396100  0.43590100  1
  P  P4  1  0.71508700  0.08603900  0.56409900  1
  P  P5  1  0.31941300  0.52288600  0.43910200  1
  P  P6  1  0.82025100  0.47845100  0.06128600  1
  P  P7  1  0.71721300  0.08577400  0.06279300  1
  O  O0  1  0.34843500  0.75290200  0.92057900  1
  O  O1  1  0.06670700  0.91957700  0.84213000  1
  O  O2  1  0.82176000  0.60583200  0.89572300  1
  O  O3  1  0.15576100  0.50477300  0.87104800  1
  O  O4  1  0.46321200  0.48133100  0.85234300  1
  O  O5  1  0.67680900  0.14548100  0.90041400  1
  O  O6  1  0.30746500  0.11536200  0.87638300  1
  O  O7  1  0.80255600  0.88444400  0.62277000  1
  O  O8  1  0.17643700  0.85100500  0.59939900  1
  O  O9  1  0.96146700  0.51750800  0.64825600  1
  O  O10  1  0.65377500  0.49011200  0.63025700  1
  O  O11  1  0.32021900  0.39345800  0.60366200  1
  O  O12  1  0.56506200  0.08428000  0.65804800  1
  O  O13  1  0.84831600  0.24609000  0.57932300  1
  O  O14  1  0.34831600  0.75391000  0.42067700  1
  O  O15  1  0.06506200  0.91572000  0.34195200  1
  O  O16  1  0.82021900  0.60654200  0.39633800  1
  O  O17  1  0.15377500  0.50988800  0.36974300  1
  O  O18  1  0.46146700  0.48249200  0.35174400  1
  O  O19  1  0.67643700  0.14899500  0.40060100  1
  O  O20  1  0.30255600  0.11555600  0.37723000  1
  O  O21  1  0.80746500  0.88463800  0.12361700  1
  O  O22  1  0.17680900  0.85451900  0.09958600  1
  O  O23  1  0.96321200  0.51866900  0.14765700  1
  O  O24  1  0.65576100  0.49522700  0.12895200  1
  O  O25  1  0.32176000  0.39416800  0.10427700  1
  O  O26  1  0.56670700  0.08042300  0.15787000  1
  O  O27  1  0.84843500  0.24709800  0.07942100  1
loop_
_geom_bond_atom_site_label_1
_geom_bond_atom_site_label_2
_geom_bond_distance
_geom_bond_site_symmetry_2
Li0 O4 1.990524 1_555
Li0 O2 2.011596 1_555
Li0 O7 2.062905 1_555
Li0 O10 2.074533 1_555
Li1 O9 1.997762 1_455
Li1 O11 2.006393 1_555
Li1 O3 2.053341 1_555
Li1 O6 2.084938 1_555
Li2 O18 1.997762 1_555
Li2 O16 2.006393 1_555
Li2 O24 2.053341 1_555
Li2 O21 2.084938 1_555
Li3 O23 1.990524 1_455
Li3 O25 2.011596 1_555
Li3 O20 2.062905 1_555
Li3 O17 2.074533 1_555
Cr0 O12 1.990615 1_555
Cr0 O5 1.991634 1_555
Cr0 O10 2.035286 1_555
Cr0 O6 2.040274 1_555
Cr0 O11 2.052512 1_555
Cr0 O4 2.053055 1_555
Cr1 O15 1.990615 1_655
Cr1 O22 1.991634 1_655
Cr1 O17 2.035286 1_655
Cr1 O21 2.040274 1_555
Cr1 O16 2.052512 1_555
Cr1 O23 2.053055 1_555
O0 P1 1.615010 1_555
O0 P0 1.630290 1_555
O1 P0 1.537723 1_555
O1 V0 2.007275 1_555
O2 P6 1.535045 1_556
O2 V0 2.043748 1_655
O3 P1 1.528289 1_555
O3 V0 2.072298 1_555
O4 P1 1.532743 1_555
O5 P7 1.516874 1_556
O6 P0 1.531952 1_545
O7 P4 1.522888 1_565
O7 V0 2.074613 1_655
O8 P3 1.521853 1_555
O8 V0 1.982306 1_555
O9 P2 1.533504 1_555
O9 V0 2.070214 1_655
O10 P2 1.538063 1_555
O11 P5 1.530049 1_555
O12 P4 1.533229 1_555
O13 P2 1.612807 1_555
O13 P4 1.629729 1_555
O14 P5 1.612807 1_555
O14 P3 1.629729 1_555
O15 P3 1.533229 1_555
O16 P2 1.530049 1_555
O17 P5 1.538063 1_555
O18 P5 1.533504 1_555
O18 V1 2.070214 1_555
O19 P4 1.521853 1_555
O19 V1 1.982306 1_555
O20 P3 1.522888 1_545
O20 V1 2.074613 1_555
O21 P7 1.531952 1_565
O22 P0 1.516874 1_554
O23 P6 1.532743 1_555
O24 P6 1.528289 1_555
O24 V1 2.072298 1_555
O25 P1 1.535045 1_554
O25 V1 2.043748 1_555
O26 P7 1.537723 1_555
O26 V1 2.007275 1_555
O27 P6 1.615010 1_555
O27 P7 1.630290 1_555
