# generated using pymatgen
data_Na3NiBSO7
_symmetry_space_group_name_H-M   'P 1'
_cell_length_a   5.27549092
_cell_length_b   11.23018818
_cell_length_c   11.22956995
_cell_angle_alpha   106.04522299
_cell_angle_beta   91.20108981
_cell_angle_gamma   88.80034762
_symmetry_Int_Tables_number   1
_chemical_formula_structural   Na3NiBSO7
_chemical_formula_sum   'Na12 Ni4 B4 S4 O28'
_cell_volume   639.15599128
_cell_formula_units_Z   4
loop_
 _symmetry_equiv_pos_site_id
 _symmetry_equiv_pos_as_xyz
  1  'x, y, z'
loop_
 _atom_site_type_symbol
 _atom_site_label
 _atom_site_symmetry_multiplicity
 _atom_site_fract_x
 _atom_site_fract_y
 _atom_site_fract_z
 _atom_site_occupancy
  Na  Na0  1  0.74828600  0.15632100  0.09370900  1
  Na  Na1  1  0.74834000  0.65627700  0.59372900  1
  Na  Na2  1  0.25172000  0.84368400  0.90629400  1
  Na  Na3  1  0.25166800  0.34372300  0.40627700  1
  Na  Na4  1  0.24079100  0.61666600  0.37610200  1
  Na  Na5  1  0.24083300  0.11663400  0.87608400  1
  Na  Na6  1  0.24074500  0.37395400  0.13332900  1
  Na  Na7  1  0.24082400  0.87389500  0.63335800  1
  Na  Na8  1  0.75926000  0.62603900  0.86668400  1
  Na  Na9  1  0.75916800  0.12610600  0.36665800  1
  Na  Na10  1  0.75921500  0.38332600  0.62391400  1
  Na  Na11  1  0.75915200  0.88336900  0.12392000  1
  Ni  Ni0  1  0.76719300  0.04280300  0.70709700  1
  Ni  Ni1  1  0.23277200  0.95715000  0.29283300  1
  Ni  Ni2  1  0.76714700  0.54287600  0.20712700  1
  Ni  Ni3  1  0.23295400  0.45711600  0.79287700  1
  B  B0  1  0.73118600  0.40858800  0.34142900  1
  B  B1  1  0.73121200  0.90852800  0.84144600  1
  B  B2  1  0.26883300  0.59144000  0.65855500  1
  B  B3  1  0.26878500  0.09147900  0.15854500  1
  S  S0  1  0.71826700  0.33513300  0.91484200  1
  S  S1  1  0.71821000  0.83518100  0.41483200  1
  S  S2  1  0.28173200  0.66486800  0.08514600  1
  S  S3  1  0.28176000  0.16480700  0.58517200  1
  O  O0  1  0.29246500  0.16682200  0.08323100  1
  O  O1  1  0.29249100  0.66675700  0.58323400  1
  O  O2  1  0.70753600  0.83316600  0.91678200  1
  O  O3  1  0.70752400  0.33324100  0.41677300  1
  O  O4  1  0.96438500  0.44440800  0.30564100  1
  O  O5  1  0.96442700  0.94433800  0.80565600  1
  O  O6  1  0.03562500  0.55560400  0.69436300  1
  O  O7  1  0.03555500  0.05565800  0.19434200  1
  O  O8  1  0.52246500  0.45897600  0.29101500  1
  O  O9  1  0.52251300  0.95892900  0.79103800  1
  O  O10  1  0.47756600  0.54104000  0.70898300  1
  O  O11  1  0.47746800  0.04106300  0.20896500  1
  O  O12  1  0.43867700  0.35350400  0.89656400  1
  O  O13  1  0.43867400  0.85354800  0.39654500  1
  O  O14  1  0.56132000  0.64651000  0.10343300  1
  O  O15  1  0.56131500  0.14644900  0.60345600  1
  O  O16  1  0.13887000  0.59446500  0.15564600  1
  O  O17  1  0.13886900  0.09439400  0.65562200  1
  O  O18  1  0.86113500  0.40553700  0.84435400  1
  O  O19  1  0.86111900  0.90561400  0.34438200  1
  O  O20  1  0.78439000  0.20029600  0.87282500  1
  O  O21  1  0.78438900  0.70033700  0.37276700  1
  O  O22  1  0.78461900  0.37721800  0.04967700  1
  O  O23  1  0.78457300  0.87720200  0.54966700  1
  O  O24  1  0.21537200  0.62279100  0.95032600  1
  O  O25  1  0.21540800  0.12279700  0.45033800  1
  O  O26  1  0.21558200  0.79970800  0.12717600  1
  O  O27  1  0.21561700  0.29966600  0.62723900  1
loop_
_geom_bond_atom_site_label_1
_geom_bond_atom_site_label_2
_geom_bond_distance
_geom_bond_site_symmetry_2
Na0 O7 2.326876 1_655
Na0 O0 2.407108 1_555
Na0 O11 2.544160 1_555
Na0 O20 2.670880 1_554
Na0 O22 2.671539 1_555
Na0 O0 2.881895 1_655
Na1 O6 2.327004 1_655
Na1 O1 2.407254 1_555
Na1 O10 2.543853 1_555
Na1 O23 2.671947 1_555
Na1 O21 2.672135 1_555
Na1 O1 2.881744 1_655
Na2 O5 2.326928 1_455
Na2 O2 2.407095 1_555
Na2 O9 2.543986 1_555
Na2 O26 2.670879 1_556
Na2 O24 2.671503 1_555
Na2 O2 2.881943 1_455
Na3 O4 2.327092 1_455
Na3 O3 2.407292 1_555
Na3 O8 2.544102 1_555
Na3 O25 2.671967 1_555
Na3 O27 2.672121 1_555
Na3 O3 2.881710 1_455
Na4 O1 2.248922 1_555
Na4 O8 2.295884 1_555
Na4 O4 2.391279 1_455
Na4 O16 2.467509 1_555
Na4 O21 2.569533 1_455
Na4 O13 2.826298 1_555
Na5 O0 2.249010 1_556
Na5 O9 2.295913 1_545
Na5 O5 2.391555 1_445
Na5 O17 2.467544 1_555
Na5 O20 2.569617 1_455
Na5 O12 2.826016 1_555
Na6 O0 2.249063 1_555
Na6 O8 2.295757 1_555
Na6 O4 2.391532 1_455
Na6 O16 2.467987 1_555
Na6 O22 2.567990 1_455
Na6 O12 2.825055 1_554
Na7 O1 2.249089 1_555
Na7 O9 2.295639 1_555
Na7 O5 2.391526 1_455
Na7 O17 2.468042 1_565
Na7 O23 2.568802 1_455
Na7 O13 2.825603 1_555
Na8 O2 2.249012 1_555
Na8 O10 2.295722 1_555
Na8 O6 2.391602 1_655
Na8 O18 2.467863 1_555
Na8 O24 2.567865 1_655
Na8 O14 2.824861 1_556
Na9 O3 2.249047 1_555
Na9 O11 2.295791 1_555
Na9 O7 2.391646 1_655
Na9 O19 2.467938 1_545
Na9 O25 2.568707 1_655
Na9 O15 2.825461 1_555
Na10 O3 2.249016 1_555
Na10 O10 2.295930 1_555
Na10 O6 2.391443 1_655
Na10 O18 2.467314 1_555
Na10 O27 2.569479 1_655
Na10 O15 2.826249 1_555
Na11 O2 2.248899 1_554
Na11 O11 2.295845 1_565
Na11 O7 2.391482 1_665
Na11 O19 2.467538 1_555
Na11 O26 2.569546 1_655
Na11 O14 2.825862 1_555
Ni0 O9 2.008647 1_545
Ni0 O5 2.027420 1_545
Ni0 O15 2.128826 1_555
Ni0 O23 2.185081 1_545
Ni0 O20 2.186330 1_555
Ni0 O17 2.189671 1_655
Ni1 O11 2.008469 1_565
Ni1 O7 2.027184 1_565
Ni1 O13 2.129096 1_555
Ni1 O26 2.185499 1_555
Ni1 O25 2.185885 1_565
Ni1 O19 2.189637 1_455
Ni2 O8 2.008468 1_555
Ni2 O4 2.027107 1_555
Ni2 O14 2.129011 1_555
Ni2 O21 2.185514 1_555
Ni2 O22 2.185631 1_555
Ni2 O16 2.189912 1_655
Ni3 O10 2.008430 1_555
Ni3 O6 2.027497 1_555
Ni3 O12 2.128520 1_555
Ni3 O27 2.185449 1_555
Ni3 O24 2.185768 1_555
Ni3 O18 2.190315 1_455
B0 O3 1.360893 1_555
B0 O4 1.402723 1_555
B0 O8 1.406415 1_555
B1 O2 1.360964 1_555
B1 O5 1.402764 1_555
B1 O9 1.406366 1_555
B2 O1 1.360417 1_555
B2 O6 1.402921 1_555
B2 O10 1.406609 1_555
B3 O0 1.360600 1_555
B3 O7 1.402912 1_555
B3 O11 1.406452 1_555
O12 S0 1.502737 1_555
O13 S1 1.502467 1_555
O14 S2 1.502719 1_555
O15 S3 1.502544 1_555
O16 S2 1.488579 1_555
O17 S3 1.488350 1_555
O18 S0 1.488510 1_555
O19 S1 1.488555 1_555
O20 S0 1.492339 1_555
O21 S1 1.492498 1_555
O22 S0 1.492527 1_554
O23 S1 1.492511 1_555
O24 S2 1.492378 1_556
O25 S3 1.492482 1_555
O26 S2 1.492407 1_555
O27 S3 1.492613 1_555
