# generated using pymatgen
data_KLiH2WO5
_symmetry_space_group_name_H-M   'P 1'
_cell_length_a   7.86785800
_cell_length_b   10.83736200
_cell_length_c   13.02876900
_cell_angle_alpha   90.00000000
_cell_angle_beta   90.00000000
_cell_angle_gamma   90.00000000
_symmetry_Int_Tables_number   1
_chemical_formula_structural   KLiH2WO5
_chemical_formula_sum   'K8 Li8 H16 W8 O40'
_cell_volume   1110.92177034
_cell_formula_units_Z   8
loop_
 _symmetry_equiv_pos_site_id
 _symmetry_equiv_pos_as_xyz
  1  'x, y, z'
loop_
 _atom_site_type_symbol
 _atom_site_label
 _atom_site_symmetry_multiplicity
 _atom_site_fract_x
 _atom_site_fract_y
 _atom_site_fract_z
 _atom_site_occupancy
  K  K0  1  0.69302600  0.80285200  0.36866900  1
  K  K1  1  0.80697400  0.80285200  0.86866900  1
  K  K2  1  0.19302600  0.69714800  0.36866900  1
  K  K3  1  0.30697400  0.69714800  0.86866900  1
  K  K4  1  0.69302600  0.30285200  0.13133100  1
  K  K5  1  0.80697400  0.30285200  0.63133100  1
  K  K6  1  0.30697400  0.19714800  0.63133100  1
  K  K7  1  0.19302600  0.19714800  0.13133100  1
  Li  Li0  1  0.01769500  0.93069900  0.17716800  1
  Li  Li1  1  0.48230500  0.93069900  0.67716800  1
  Li  Li2  1  0.51769500  0.56930100  0.17716800  1
  Li  Li3  1  0.98230500  0.56930100  0.67716800  1
  Li  Li4  1  0.48230500  0.43069900  0.82283200  1
  Li  Li5  1  0.01769500  0.43069900  0.32283200  1
  Li  Li6  1  0.98230500  0.06930100  0.82283200  1
  Li  Li7  1  0.51769500  0.06930100  0.32283200  1
  H  H0  1  0.25541900  0.97509100  0.36151900  1
  H  H1  1  0.24458100  0.97509100  0.86151900  1
  H  H2  1  0.33819300  0.94671100  0.46939800  1
  H  H3  1  0.16180700  0.94671100  0.96939800  1
  H  H4  1  0.83819300  0.55328900  0.46939800  1
  H  H5  1  0.66180700  0.55328900  0.96939800  1
  H  H6  1  0.75541900  0.52490900  0.36151900  1
  H  H7  1  0.74458100  0.52490900  0.86151900  1
  H  H8  1  0.25541900  0.47509100  0.13848100  1
  H  H9  1  0.24458100  0.47509100  0.63848100  1
  H  H10  1  0.33819300  0.44671100  0.03060200  1
  H  H11  1  0.16180700  0.44671100  0.53060200  1
  H  H12  1  0.83819300  0.05328900  0.03060200  1
  H  H13  1  0.66180700  0.05328900  0.53060200  1
  H  H14  1  0.75541900  0.02490900  0.13848100  1
  H  H15  1  0.74458100  0.02490900  0.63848100  1
  W  W0  1  0.43859900  0.86943800  0.12448800  1
  W  W1  1  0.06140100  0.86943800  0.62448800  1
  W  W2  1  0.93859900  0.63056200  0.12448800  1
  W  W3  1  0.56140100  0.63056200  0.62448800  1
  W  W4  1  0.43859900  0.36943800  0.37551200  1
  W  W5  1  0.06140100  0.36943800  0.87551200  1
  W  W6  1  0.93859900  0.13056200  0.37551200  1
  W  W7  1  0.56140100  0.13056200  0.87551200  1
  O  O0  1  0.57029900  0.98132100  0.19368500  1
  O  O1  1  0.92970100  0.98132100  0.69368500  1
  O  O2  1  0.36441900  0.94960800  0.39481900  1
  O  O3  1  0.13558100  0.94960800  0.89481900  1
  O  O4  1  0.22758400  0.93399900  0.10055500  1
  O  O5  1  0.27241600  0.93399900  0.60055500  1
  O  O6  1  0.53308700  0.82983300  0.00363800  1
  O  O7  1  0.96691300  0.82983300  0.50363800  1
  O  O8  1  0.92121400  0.76841900  0.20371800  1
  O  O9  1  0.57878600  0.76841900  0.70371800  1
  O  O10  1  0.42121400  0.73158100  0.20371800  1
  O  O11  1  0.07878600  0.73158100  0.70371800  1
  O  O12  1  0.03308700  0.67016700  0.00363800  1
  O  O13  1  0.46691300  0.67016700  0.50363800  1
  O  O14  1  0.72758400  0.56600100  0.10055500  1
  O  O15  1  0.77241600  0.56600100  0.60055500  1
  O  O16  1  0.86441900  0.55039200  0.39481900  1
  O  O17  1  0.63558100  0.55039200  0.89481900  1
  O  O18  1  0.42970100  0.51867900  0.69368500  1
  O  O19  1  0.07029900  0.51867900  0.19368500  1
  O  O20  1  0.57029900  0.48132100  0.30631500  1
  O  O21  1  0.92970100  0.48132100  0.80631500  1
  O  O22  1  0.36441900  0.44960800  0.10518100  1
  O  O23  1  0.13558100  0.44960800  0.60518100  1
  O  O24  1  0.22758400  0.43399900  0.39944500  1
  O  O25  1  0.27241600  0.43399900  0.89944500  1
  O  O26  1  0.53308700  0.32983300  0.49636200  1
  O  O27  1  0.96691300  0.32983300  0.99636200  1
  O  O28  1  0.92121400  0.26841900  0.29628200  1
  O  O29  1  0.57878600  0.26841900  0.79628200  1
  O  O30  1  0.42121400  0.23158100  0.29628200  1
  O  O31  1  0.07878600  0.23158100  0.79628200  1
  O  O32  1  0.46691300  0.17016700  0.99636200  1
  O  O33  1  0.03308700  0.17016700  0.49636200  1
  O  O34  1  0.77241600  0.06600100  0.89944500  1
  O  O35  1  0.72758400  0.06600100  0.39944500  1
  O  O36  1  0.86441900  0.05039200  0.10518100  1
  O  O37  1  0.63558100  0.05039200  0.60518100  1
  O  O38  1  0.42970100  0.01867900  0.80631500  1
  O  O39  1  0.07029900  0.01867900  0.30631500  1
loop_
_geom_bond_atom_site_label_1
_geom_bond_atom_site_label_2
_geom_bond_distance
_geom_bond_site_symmetry_2
K0 O7 2.796670 1_555
K0 O8 2.825102 1_555
K0 O13 2.885290 1_555
K0 O35 2.892699 1_565
K0 O2 3.054516 1_555
K0 O16 3.069237 1_555
K0 O10 3.128701 1_555
K0 O0 3.141792 1_555
K1 O6 2.796670 1_556
K1 O9 2.825102 1_555
K1 O12 2.885290 1_656
K1 O34 2.892699 1_565
K1 O3 3.054516 1_655
K1 O17 3.069237 1_555
K1 O11 3.128701 1_655
K1 O1 3.141792 1_555
K2 O13 2.796670 1_555
K2 O10 2.825102 1_555
K2 O7 2.885290 1_455
K2 O24 2.892699 1_555
K2 O16 3.054516 1_455
K2 O2 3.069237 1_555
K2 O8 3.128701 1_455
K2 O19 3.141792 1_555
K3 O12 2.796670 1_556
K3 O11 2.825102 1_555
K3 O6 2.885290 1_556
K3 O25 2.892699 1_555
K3 O17 3.054516 1_555
K3 O3 3.069237 1_555
K3 O9 3.128701 1_555
K3 O18 3.141792 1_555
K4 O27 2.796670 1_554
K4 O28 2.825102 1_555
K4 O32 2.885290 1_554
K4 O14 2.892699 1_555
K4 O22 3.054516 1_555
K4 O36 3.069237 1_555
K4 O30 3.128701 1_555
K4 O20 3.141792 1_555
K5 O26 2.796670 1_555
K5 O29 2.825102 1_555
K5 O33 2.885290 1_655
K5 O15 2.892699 1_555
K5 O23 3.054516 1_655
K5 O37 3.069237 1_555
K5 O31 3.128701 1_655
K5 O21 3.141792 1_555
K6 O33 2.796670 1_555
K6 O31 2.825102 1_555
K6 O26 2.885290 1_555
K6 O5 2.892699 1_545
K6 O37 3.054516 1_555
K6 O23 3.069237 1_555
K6 O29 3.128701 1_555
K6 O38 3.141792 1_555
K7 O32 2.796670 1_554
K7 O30 2.825102 1_555
K7 O27 2.885290 1_454
K7 O4 2.892699 1_545
K7 O36 3.054516 1_455
K7 O22 3.069237 1_555
K7 O28 3.128701 1_455
K7 O39 3.141792 1_555
Li0 O4 1.929941 1_555
Li0 O8 1.946501 1_455
Li0 O39 1.977786 1_565
Li0 O36 2.004146 1_465
Li1 O5 1.929941 1_555
Li1 O9 1.946501 1_555
Li1 O38 1.977786 1_565
Li1 O37 2.004146 1_565
Li2 O14 1.929941 1_555
Li2 O10 1.946501 1_555
Li2 O20 1.977786 1_555
Li2 O22 2.004146 1_555
Li3 O15 1.929941 1_555
Li3 O11 1.946501 1_655
Li3 O21 1.977786 1_555
Li3 O23 2.004146 1_655
Li4 O25 1.929941 1_555
Li4 O29 1.946501 1_555
Li4 O18 1.977786 1_555
Li4 O17 2.004146 1_555
Li5 O24 1.929941 1_555
Li5 O28 1.946501 1_455
Li5 O19 1.977786 1_555
Li5 O16 2.004146 1_455
Li6 O34 1.929941 1_555
Li6 O31 1.946501 1_655
Li6 O1 1.977786 1_545
Li6 O3 2.004146 1_645
Li7 O35 1.929941 1_555
Li7 O30 1.946501 1_555
Li7 O0 1.977786 1_545
Li7 O2 2.004146 1_545
H0 O2 0.999987 1_555
H0 O39 1.691696 1_565
H0 K2 3.053330 1_555
H1 O3 0.999987 1_555
H1 O38 1.691696 1_565
H1 K3 3.053330 1_555
H2 O2 0.993836 1_555
H3 O3 0.993836 1_555
H4 O16 0.993836 1_555
H5 O17 0.993836 1_555
H6 O16 0.999987 1_555
H6 O20 1.691696 1_555
H6 K0 3.053330 1_555
H7 O17 0.999987 1_555
H7 O21 1.691696 1_555
H7 K1 3.053330 1_555
H8 O22 0.999987 1_555
H8 O19 1.691696 1_555
H8 K7 3.053330 1_555
H9 O23 0.999987 1_555
H9 O18 1.691696 1_555
H9 K6 3.053330 1_555
H10 O22 0.993836 1_555
H11 O23 0.993836 1_555
H12 O36 0.993836 1_555
H13 O37 0.993836 1_555
H14 O36 0.999987 1_555
H14 O0 1.691696 1_545
H14 K4 3.053330 1_555
H15 O37 0.999987 1_555
H15 O1 1.691696 1_545
H15 K5 3.053330 1_555
O0 W0 1.832129 1_555
O1 W1 1.832129 1_655
O4 W0 1.828429 1_555
O5 W1 1.828429 1_555
O6 W0 1.793329 1_555
O7 W1 1.793329 1_655
O8 W2 1.821083 1_555
O9 W3 1.821083 1_555
O10 W0 1.821083 1_555
O11 W1 1.821083 1_555
O12 W2 1.793329 1_455
O13 W3 1.793329 1_555
O14 W2 1.828429 1_555
O15 W3 1.828429 1_555
O18 W3 1.832129 1_555
O19 W2 1.832129 1_455
O20 W4 1.832129 1_555
O21 W5 1.832129 1_655
O24 W4 1.828429 1_555
O25 W5 1.828429 1_555
O26 W4 1.793329 1_555
O27 W5 1.793329 1_655
O28 W6 1.821083 1_555
O29 W7 1.821083 1_555
O30 W4 1.821083 1_555
O31 W5 1.821083 1_555
O32 W7 1.793329 1_555
O33 W6 1.793329 1_455
O34 W7 1.828429 1_555
O35 W6 1.828429 1_555
O38 W7 1.832129 1_555
O39 W6 1.832129 1_455
