# generated using pymatgen
data_LiV(PO3)3
_symmetry_space_group_name_H-M   'P 1'
_cell_length_a   5.36107900
_cell_length_b   10.74898400
_cell_length_c   12.02187700
_cell_angle_alpha   90.00000000
_cell_angle_beta   90.00000000
_cell_angle_gamma   90.00000000
_symmetry_Int_Tables_number   1
_chemical_formula_structural   LiV(PO3)3
_chemical_formula_sum   'Li4 V4 P12 O36'
_cell_volume   692.77451606
_cell_formula_units_Z   4
loop_
 _symmetry_equiv_pos_site_id
 _symmetry_equiv_pos_as_xyz
  1  'x, y, z'
loop_
 _atom_site_type_symbol
 _atom_site_label
 _atom_site_symmetry_multiplicity
 _atom_site_fract_x
 _atom_site_fract_y
 _atom_site_fract_z
 _atom_site_occupancy
  Li  Li0  1  0.10960000  0.11244400  0.08673400  1
  Li  Li1  1  0.60960000  0.38755600  0.91326600  1
  Li  Li2  1  0.89040000  0.61244400  0.41326600  1
  Li  Li3  1  0.39040000  0.88755600  0.58673400  1
  V  V0  1  0.59791000  0.03464100  0.86929200  1
  V  V1  1  0.09791000  0.46535900  0.13070800  1
  V  V2  1  0.40209000  0.53464100  0.63070800  1
  V  V3  1  0.90209000  0.96535900  0.36929200  1
  P  P0  1  0.88178000  0.07348000  0.62606100  1
  P  P1  1  0.39910800  0.15286100  0.36155800  1
  P  P2  1  0.08232000  0.19489400  0.82151900  1
  P  P3  1  0.58232000  0.30510600  0.17848100  1
  P  P4  1  0.89910800  0.34713900  0.63844200  1
  P  P5  1  0.38178000  0.42652000  0.37393900  1
  P  P6  1  0.11822000  0.57348000  0.87393900  1
  P  P7  1  0.60089200  0.65286100  0.13844200  1
  P  P8  1  0.91768000  0.69489400  0.67848100  1
  P  P9  1  0.41768000  0.80510600  0.32151900  1
  P  P10  1  0.10089200  0.84713900  0.86155800  1
  P  P11  1  0.61822000  0.92652000  0.12606100  1
  O  O0  1  0.49279000  0.01189300  0.04374300  1
  O  O1  1  0.63410400  0.03676000  0.67615900  1
  O  O2  1  0.55298400  0.06340000  0.42837000  1
  O  O3  1  0.08000600  0.08739100  0.72749500  1
  O  O4  1  0.14106100  0.11794800  0.32434000  1
  O  O5  1  0.85012700  0.19198400  0.89285800  1
  O  O6  1  0.33131100  0.18784800  0.87785800  1
  O  O7  1  0.57203200  0.18211700  0.25345300  1
  O  O8  1  0.88551800  0.21346300  0.57595700  1
  O  O9  1  0.38551800  0.28653700  0.42404300  1
  O  O10  1  0.07203200  0.31788300  0.74654700  1
  O  O11  1  0.83131100  0.31215200  0.12214200  1
  O  O12  1  0.35012700  0.30801600  0.10714200  1
  O  O13  1  0.64106100  0.38205200  0.67566000  1
  O  O14  1  0.58000600  0.41260900  0.27250500  1
  O  O15  1  0.05298400  0.43660000  0.57163000  1
  O  O16  1  0.13410400  0.46324000  0.32384100  1
  O  O17  1  0.99279000  0.48810700  0.95625700  1
  O  O18  1  0.50721000  0.51189300  0.45625700  1
  O  O19  1  0.36589600  0.53676000  0.82384100  1
  O  O20  1  0.44701600  0.56340000  0.07163000  1
  O  O21  1  0.91999400  0.58739100  0.77250500  1
  O  O22  1  0.85893900  0.61794800  0.17566000  1
  O  O23  1  0.14987300  0.69198400  0.60714200  1
  O  O24  1  0.66868900  0.68784800  0.62214200  1
  O  O25  1  0.42796800  0.68211700  0.24654700  1
  O  O26  1  0.11448200  0.71346300  0.92404300  1
  O  O27  1  0.61448200  0.78653700  0.07595700  1
  O  O28  1  0.92796800  0.81788300  0.75345300  1
  O  O29  1  0.16868900  0.81215200  0.37785800  1
  O  O30  1  0.64987300  0.80801600  0.39285800  1
  O  O31  1  0.35893900  0.88205200  0.82434000  1
  O  O32  1  0.41999400  0.91260900  0.22749500  1
  O  O33  1  0.94701600  0.93660000  0.92837000  1
  O  O34  1  0.86589600  0.96324000  0.17615900  1
  O  O35  1  0.00721000  0.98810700  0.54374300  1
loop_
_geom_bond_atom_site_label_1
_geom_bond_atom_site_label_2
_geom_bond_distance
_geom_bond_site_symmetry_2
Li0 O34 2.331283 1_445
Li0 O0 2.378127 1_555
Li0 O12 2.478348 1_555
Li0 O11 2.648620 1_455
Li1 O19 2.331283 1_555
Li1 O17 2.378127 1_555
Li1 O5 2.478348 1_555
Li1 O6 2.648620 1_555
Li2 O16 2.331283 1_655
Li2 O18 2.378127 1_555
Li2 O30 2.478348 1_555
Li2 O29 2.648620 1_655
Li3 O1 2.331283 1_565
Li3 O35 2.378127 1_555
Li3 O23 2.478348 1_555
Li3 O24 2.648620 1_555
O0 P11 1.507860 1_545
O0 V0 2.185349 1_554
O1 P0 1.510498 1_555
O1 V0 2.330026 1_555
O2 P1 1.500124 1_555
O2 V3 2.262263 1_545
O3 P2 1.616516 1_555
O3 P0 1.624409 1_455
O4 P1 1.501617 1_555
O4 V3 2.150243 1_445
O5 P2 1.511967 1_655
O5 V0 2.183805 1_555
O6 P2 1.498774 1_555
O6 V0 2.182979 1_555
O7 P3 1.600966 1_555
O7 P1 1.627070 1_555
O8 P0 1.620885 1_555
O8 P4 1.623027 1_555
O9 P5 1.620885 1_555
O9 P1 1.623027 1_555
O10 P2 1.600966 1_555
O10 P4 1.627070 1_455
O11 P3 1.498774 1_555
O11 V1 2.182979 1_655
O12 P3 1.511967 1_555
O12 V1 2.183805 1_555
O13 P4 1.501617 1_555
O13 V2 2.150243 1_555
O14 P3 1.616516 1_555
O14 P5 1.624409 1_555
O15 P4 1.500124 1_455
O15 V2 2.262263 1_555
O16 P5 1.510498 1_555
O16 V1 2.330026 1_555
O17 P6 1.507860 1_655
O17 V1 2.185349 1_656
O18 P5 1.507860 1_555
O18 V2 2.185349 1_555
O19 P6 1.510498 1_555
O19 V2 2.330026 1_555
O20 P7 1.500124 1_555
O20 V1 2.262263 1_555
O21 P8 1.616516 1_555
O21 P6 1.624409 1_655
O22 P7 1.501617 1_555
O22 V1 2.150243 1_655
O23 P8 1.511967 1_455
O23 V2 2.183805 1_555
O24 P8 1.498774 1_555
O24 V2 2.182979 1_555
O25 P9 1.600966 1_555
O25 P7 1.627070 1_555
O26 P6 1.620885 1_555
O26 P10 1.623027 1_555
O27 P11 1.620885 1_555
O27 P7 1.623027 1_555
O28 P8 1.600966 1_555
O28 P10 1.627070 1_655
O29 P9 1.498774 1_555
O29 V3 2.182979 1_455
O30 P9 1.511967 1_555
O30 V3 2.183805 1_555
O31 P10 1.501617 1_555
O31 V0 2.150243 1_565
O32 P9 1.616516 1_555
O32 P11 1.624409 1_555
O33 P10 1.500124 1_655
O33 V0 2.262263 1_565
O34 P11 1.510498 1_555
O34 V3 2.330026 1_555
O35 P0 1.507860 1_465
O35 V3 2.185349 1_455
