# generated using pymatgen
data_Fe10O11F9
_symmetry_space_group_name_H-M   'P 1'
_cell_length_a   15.32941600
_cell_length_b   4.73659400
_cell_length_c   4.74183260
_cell_angle_alpha   87.74483019
_cell_angle_beta   90.00000000
_cell_angle_gamma   90.00000000
_symmetry_Int_Tables_number   1
_chemical_formula_structural   Fe10O11F9
_chemical_formula_sum   'Fe10 O11 F9'
_cell_volume   344.03410112
_cell_formula_units_Z   1
loop_
 _symmetry_equiv_pos_site_id
 _symmetry_equiv_pos_as_xyz
  1  'x, y, z'
loop_
 _atom_site_type_symbol
 _atom_site_label
 _atom_site_symmetry_multiplicity
 _atom_site_fract_x
 _atom_site_fract_y
 _atom_site_fract_z
 _atom_site_occupancy
  Fe  Fe0  1  0.39592000  0.99830800  0.98519500  1
  Fe  Fe1  1  0.60408000  0.99830800  0.98519500  1
  Fe  Fe2  1  0.80132200  0.94791300  0.00736000  1
  Fe  Fe3  1  0.00000000  0.00961400  0.94587100  1
  Fe  Fe4  1  0.19867800  0.94791300  0.00736000  1
  Fe  Fe5  1  0.50000000  0.49751500  0.49076700  1
  Fe  Fe6  1  0.89830800  0.51861400  0.52062000  1
  Fe  Fe7  1  0.69247100  0.53274100  0.51190200  1
  Fe  Fe8  1  0.10169200  0.51861400  0.52062000  1
  Fe  Fe9  1  0.30752900  0.53274100  0.51190200  1
  O  O0  1  0.69842000  0.80507000  0.81513500  1
  O  O1  1  0.89994300  0.80611600  0.80420300  1
  O  O2  1  0.10005700  0.80611600  0.80420300  1
  O  O3  1  0.30158000  0.80507000  0.81513500  1
  O  O4  1  0.40713100  0.69726000  0.29797200  1
  O  O5  1  0.59286900  0.69726000  0.29797200  1
  O  O6  1  0.79792600  0.68131400  0.32318100  1
  O  O7  1  0.20207400  0.68131400  0.32318100  1
  O  O8  1  0.40574400  0.30804800  0.68779800  1
  O  O9  1  0.59425600  0.30804800  0.68779800  1
  O  O10  1  0.00000000  0.32138500  0.67490300  1
  F  F0  1  0.50000000  0.81312400  0.79867700  1
  F  F1  1  0.00000000  0.71087900  0.29108000  1
  F  F2  1  0.79741600  0.29440100  0.71265700  1
  F  F3  1  0.20258400  0.29440100  0.71265700  1
  F  F4  1  0.50000000  0.19026100  0.17918300  1
  F  F5  1  0.89969800  0.19573000  0.19278900  1
  F  F6  1  0.70069400  0.19309500  0.20094700  1
  F  F7  1  0.29930600  0.19309500  0.20094700  1
  F  F8  1  0.10030200  0.19573000  0.19278900  1
loop_
_geom_bond_atom_site_label_1
_geom_bond_atom_site_label_2
_geom_bond_distance
_geom_bond_site_symmetry_2
Fe0 O3 1.907235 1_555
Fe0 O8 2.000239 1_565
Fe0 O4 2.023882 1_556
Fe1 O0 1.907235 1_555
Fe1 O9 2.000239 1_565
Fe1 O5 2.023882 1_556
Fe2 O6 1.921247 1_555
Fe2 O1 1.927583 1_554
Fe2 O0 1.955867 1_554
Fe3 O10 1.918943 1_555
Fe3 O2 1.945224 1_545
Fe3 O1 1.945224 1_445
Fe4 O7 1.921247 1_555
Fe4 O2 1.927583 1_554
Fe4 O3 1.955867 1_554
Fe5 O5 1.920816 1_555
Fe5 O4 1.920816 1_555
Fe5 O9 1.923536 1_555
Fe5 O8 1.923536 1_555
Fe6 O6 1.944613 1_555
Fe6 O10 1.945315 1_655
Fe6 O1 1.951260 1_555
Fe7 O6 1.964629 1_555
Fe7 O0 1.971207 1_555
Fe7 O5 1.976189 1_555
Fe7 O9 2.006307 1_555
Fe8 O7 1.944613 1_555
Fe8 O10 1.945315 1_555
Fe8 O2 1.951260 1_555
Fe9 O7 1.964629 1_555
Fe9 O3 1.971207 1_555
Fe9 O4 1.976189 1_555
Fe9 O8 2.006307 1_555
F0 Fe0 2.039175 1_555
F0 Fe1 2.039175 1_555
F0 Fe5 2.130330 1_555
F1 Fe8 2.089530 1_555
F1 Fe6 2.089530 1_455
F1 Fe3 2.121183 1_564
F2 Fe6 2.067117 1_555
F2 Fe2 2.114086 1_546
F2 Fe7 2.164289 1_555
F3 Fe8 2.067117 1_555
F3 Fe4 2.114086 1_546
F3 Fe9 2.164289 1_555
F4 Fe0 2.069827 1_544
F4 Fe1 2.069827 1_544
F4 Fe5 2.114279 1_555
F5 Fe2 2.122823 1_545
F5 Fe3 2.143215 1_654
F5 Fe6 2.223300 1_555
F6 Fe1 2.040991 1_544
F6 Fe2 2.157485 1_545
F6 Fe7 2.228192 1_555
F7 Fe0 2.040991 1_544
F7 Fe4 2.157485 1_545
F7 Fe9 2.228192 1_555
F8 Fe4 2.122823 1_545
F8 Fe3 2.143215 1_554
F8 Fe8 2.223300 1_555
