# generated using pymatgen
data_Li4Fe3Ni(PO4)4
_symmetry_space_group_name_H-M   'P 1'
_cell_length_a   6.06380000
_cell_length_b   4.74194400
_cell_length_c   10.37245300
_cell_angle_alpha   89.68175885
_cell_angle_beta   90.00000000
_cell_angle_gamma   90.00000000
_symmetry_Int_Tables_number   1
_chemical_formula_structural   Li4Fe3Ni(PO4)4
_chemical_formula_sum   'Li4 Fe3 Ni1 P4 O16'
_cell_volume   298.24698766
_cell_formula_units_Z   1
loop_
 _symmetry_equiv_pos_site_id
 _symmetry_equiv_pos_as_xyz
  1  'x, y, z'
loop_
 _atom_site_type_symbol
 _atom_site_label
 _atom_site_symmetry_multiplicity
 _atom_site_fract_x
 _atom_site_fract_y
 _atom_site_fract_z
 _atom_site_occupancy
  Li  Li0  1  0.25056900  0.99931300  0.00248300  1
  Li  Li1  1  0.74943100  0.99931300  0.00248300  1
  Li  Li2  1  0.75141500  0.49989700  0.49708800  1
  Li  Li3  1  0.24858500  0.49989700  0.49708800  1
  Fe  Fe0  1  0.00000000  0.47569300  0.78054400  1
  Fe  Fe1  1  0.50000000  0.52360900  0.22017500  1
  Fe  Fe2  1  0.50000000  0.97385900  0.71830100  1
  Ni  Ni0  1  0.00000000  0.01718900  0.27834000  1
  P  P0  1  0.50000000  0.08322700  0.40473400  1
  P  P1  1  0.50000000  0.41615600  0.90566700  1
  P  P2  1  0.00000000  0.58129600  0.09700300  1
  P  P3  1  0.00000000  0.92040300  0.59184400  1
  O  O0  1  0.50000000  0.20662500  0.54339200  1
  O  O1  1  0.29397600  0.21746300  0.33495500  1
  O  O2  1  0.70602400  0.21746300  0.33495500  1
  O  O3  1  0.00000000  0.24404400  0.59575500  1
  O  O4  1  0.00000000  0.25664600  0.10175400  1
  O  O5  1  0.29609800  0.28289900  0.83530000  1
  O  O6  1  0.70390200  0.28289900  0.83530000  1
  O  O7  1  0.50000000  0.29260400  0.04481100  1
  O  O8  1  0.00000000  0.70280200  0.95767100  1
  O  O9  1  0.79768100  0.71937300  0.16749900  1
  O  O10  1  0.20231900  0.71937300  0.16749900  1
  O  O11  1  0.50000000  0.74026100  0.90306700  1
  O  O12  1  0.50000000  0.75875200  0.40313200  1
  O  O13  1  0.79704000  0.78398800  0.66331600  1
  O  O14  1  0.20296000  0.78398800  0.66331600  1
  O  O15  1  0.00000000  0.80096800  0.45252800  1
loop_
_geom_bond_atom_site_label_1
_geom_bond_atom_site_label_2
_geom_bond_distance
_geom_bond_site_symmetry_2
Li0 O7 2.102722 1_565
Li0 O8 2.123401 1_554
Li0 O10 2.179944 1_555
Li0 O5 2.205847 1_564
Li0 O4 2.207219 1_565
Li0 O11 2.207729 1_554
Li1 O7 2.102722 1_565
Li1 O8 2.123401 1_654
Li1 O9 2.179944 1_555
Li1 O6 2.205847 1_564
Li1 O4 2.207219 1_665
Li1 O11 2.207729 1_554
Li2 O0 2.116940 1_555
Li2 O15 2.125248 1_655
Li2 O2 2.173163 1_555
Li2 O12 2.183428 1_555
Li2 O3 2.185797 1_655
Li2 O13 2.211329 1_555
Li3 O0 2.116940 1_555
Li3 O15 2.125248 1_555
Li3 O1 2.173163 1_555
Li3 O12 2.183428 1_555
Li3 O3 2.185797 1_555
Li3 O14 2.211329 1_555
Fe0 O6 2.091971 1_455
Fe0 O5 2.091971 1_555
Fe0 O8 2.134767 1_555
Fe0 O3 2.214456 1_555
Fe0 O13 2.260667 1_455
Fe0 O14 2.260667 1_555
Fe1 O9 2.100702 1_555
Fe1 O10 2.100702 1_555
Fe1 O7 2.128535 1_555
Fe1 O12 2.206382 1_555
Fe1 O2 2.250876 1_555
Fe1 O1 2.250876 1_555
Fe2 O14 2.094257 1_555
Fe2 O13 2.094257 1_555
Fe2 O0 2.118372 1_565
Fe2 O11 2.208239 1_555
Fe2 O5 2.273495 1_565
Fe2 O6 2.273495 1_565
Ni0 O15 2.072450 1_545
Ni0 O1 2.104912 1_555
Ni0 O2 2.104912 1_455
Ni0 O4 2.149676 1_555
Ni0 O10 2.199843 1_545
Ni0 O9 2.199843 1_445
O0 P0 1.555710 1_555
O1 P0 1.576275 1_555
O2 P0 1.576275 1_555
O3 P3 1.535449 1_545
O4 P2 1.539987 1_555
O5 P1 1.570311 1_555
O6 P1 1.570311 1_555
O7 P1 1.554629 1_554
O8 P2 1.552859 1_556
O9 P2 1.572829 1_655
O10 P2 1.572829 1_555
O11 P1 1.536975 1_555
O12 P0 1.538824 1_565
O13 P3 1.573959 1_655
O14 P3 1.573959 1_555
O15 P3 1.554996 1_555
