# generated using pymatgen
data_Li2Mn2P4H3O16
_symmetry_space_group_name_H-M   'P 1'
_cell_length_a   4.88023000
_cell_length_b   7.52185187
_cell_length_c   8.10879488
_cell_angle_alpha   88.83554338
_cell_angle_beta   87.60116751
_cell_angle_gamma   75.33258178
_symmetry_Int_Tables_number   1
_chemical_formula_structural   Li2Mn2P4H3O16
_chemical_formula_sum   'Li2 Mn2 P4 H3 O16'
_cell_volume   287.69352045
_cell_formula_units_Z   1
loop_
 _symmetry_equiv_pos_site_id
 _symmetry_equiv_pos_as_xyz
  1  'x, y, z'
loop_
 _atom_site_type_symbol
 _atom_site_label
 _atom_site_symmetry_multiplicity
 _atom_site_fract_x
 _atom_site_fract_y
 _atom_site_fract_z
 _atom_site_occupancy
  Li  Li0  1  0.39631500  0.14928300  0.87667100  1
  Li  Li1  1  0.59115200  0.84837700  0.12106900  1
  Mn  Mn0  1  0.49763600  0.99904300  0.50007900  1
  Mn  Mn1  1  0.00021800  0.50180700  0.99766900  1
  P  P0  1  0.10894500  0.74749200  0.33091600  1
  P  P1  1  0.37695200  0.76086600  0.84249300  1
  P  P2  1  0.62044200  0.24604600  0.15897100  1
  P  P3  1  0.88706900  0.25112300  0.66881300  1
  H  H0  1  0.46323600  0.52671500  0.39805100  1
  H  H1  1  0.53820400  0.48030700  0.61605200  1
  H  H2  1  0.96019400  0.01878300  0.01236900  1
  O  O0  1  0.99907500  0.30439900  0.83404300  1
  O  O1  1  0.13638700  0.15713700  0.55624500  1
  O  O2  1  0.17845300  0.62913800  0.83124900  1
  O  O3  1  0.25794300  0.56220200  0.42208700  1
  O  O4  1  0.36654600  0.33825600  0.05127900  1
  O  O5  1  0.25054000  0.93759000  0.94116900  1
  O  O6  1  0.32369300  0.86276800  0.30210300  1
  O  O7  1  0.54047000  0.19187600  0.33183500  1
  O  O8  1  0.45825900  0.80407200  0.66494100  1
  O  O9  1  0.67339500  0.13535300  0.69877700  1
  O  O10  1  0.75084400  0.06155500  0.05892200  1
  O  O11  1  0.63631700  0.66048400  0.94704000  1
  O  O12  1  0.73631500  0.43582100  0.57649400  1
  O  O13  1  0.82815700  0.36867700  0.16691800  1
  O  O14  1  0.86034500  0.84316100  0.44362200  1
  O  O15  1  0.99291200  0.69608500  0.16639600  1
loop_
_geom_bond_atom_site_label_1
_geom_bond_atom_site_label_2
_geom_bond_distance
_geom_bond_site_symmetry_2
Li0 O9 1.921300 1_555
Li0 O5 1.955457 1_545
Li0 O4 2.001555 1_556
Li0 O0 2.033053 1_455
Li0 O10 2.282367 1_556
Li1 O6 1.909153 1_555
Li1 O11 1.983599 1_554
Li1 O10 1.999908 1_565
Li1 O15 2.048750 1_555
Li1 O5 2.222557 1_554
Mn0 O14 1.902781 1_555
Mn0 O1 1.903348 1_565
Mn0 O8 2.004078 1_555
Mn0 O7 2.014442 1_565
Mn0 O6 2.229362 1_555
Mn0 O9 2.238558 1_565
Mn1 O11 1.927351 1_455
Mn1 O2 1.940637 1_555
Mn1 O4 1.956537 1_556
Mn1 O13 1.965924 1_456
Mn1 O0 2.012509 1_455
Mn1 O15 2.014807 1_456
H0 O3 0.981496 1_555
H1 O12 0.981928 1_555
H2 O10 1.046910 1_555
H2 O5 1.490532 1_644
O0 P3 1.564782 1_555
O1 P3 1.520214 1_455
O2 P1 1.557447 1_555
O3 P0 1.583556 1_555
O4 P2 1.552313 1_555
O5 P1 1.540925 1_555
O6 P0 1.528476 1_555
O7 P2 1.514820 1_555
O8 P1 1.527862 1_555
O9 P3 1.527995 1_555
O10 P2 1.595062 1_555
O11 P1 1.571865 1_555
O12 P3 1.586811 1_555
O13 P2 1.537526 1_555
O14 P0 1.522094 1_655
O15 P0 1.563643 1_655
