# generated using pymatgen
data_VOF
_symmetry_space_group_name_H-M   'P 1'
_cell_length_a   3.09834100
_cell_length_b   4.75418700
_cell_length_c   18.98500950
_cell_angle_alpha   86.18970611
_cell_angle_beta   90.00000000
_cell_angle_gamma   90.00000000
_symmetry_Int_Tables_number   1
_chemical_formula_structural   VOF
_chemical_formula_sum   'V8 O8 F8'
_cell_volume   279.03279042
_cell_formula_units_Z   8
loop_
 _symmetry_equiv_pos_site_id
 _symmetry_equiv_pos_as_xyz
  1  'x, y, z'
loop_
 _atom_site_type_symbol
 _atom_site_label
 _atom_site_symmetry_multiplicity
 _atom_site_fract_x
 _atom_site_fract_y
 _atom_site_fract_z
 _atom_site_occupancy
  V  V0  1  0.00000000  0.99244700  0.25038500  1
  V  V1  1  0.00000000  0.95490900  0.99936900  1
  V  V2  1  0.00000000  0.00165000  0.49973400  1
  V  V3  1  0.00000000  0.01562200  0.74978200  1
  V  V4  1  0.50000000  0.48204100  0.12524300  1
  V  V5  1  0.50000000  0.55050400  0.87556000  1
  V  V6  1  0.50000000  0.49816900  0.37511800  1
  V  V7  1  0.50000000  0.50650600  0.62455200  1
  O  O0  1  0.50000000  0.79851400  0.94998600  1
  O  O1  1  0.00000000  0.71528200  0.82401100  1
  O  O2  1  0.00000000  0.68499000  0.07693900  1
  O  O3  1  0.00000000  0.70335900  0.57468000  1
  O  O4  1  0.00000000  0.69697000  0.32561400  1
  O  O5  1  0.00000000  0.28763400  0.17523200  1
  O  O6  1  0.00000000  0.29933800  0.42514600  1
  O  O7  1  0.00000000  0.30855600  0.67487200  1
  F  F0  1  0.50000000  0.79453400  0.20160600  1
  F  F1  1  0.50000000  0.80460300  0.45109900  1
  F  F2  1  0.50000000  0.81392100  0.70130100  1
  F  F3  1  0.00000000  0.30244100  0.92439100  1
  F  F4  1  0.50000000  0.18852200  0.04605700  1
  F  F5  1  0.50000000  0.19224900  0.29895200  1
  F  F6  1  0.50000000  0.19758900  0.54899600  1
  F  F7  1  0.50000000  0.20965200  0.80137600  1
loop_
_geom_bond_atom_site_label_1
_geom_bond_atom_site_label_2
_geom_bond_distance
_geom_bond_site_symmetry_2
O0 V5 1.899520 1_555
O0 V1 1.981007 1_555
O0 V1 1.981007 1_655
O1 V3 1.938385 1_565
O1 V5 1.967104 1_555
O1 V5 1.967104 1_455
O2 V1 1.887936 1_554
O2 V4 2.013520 1_555
O2 V4 2.013520 1_455
O3 V2 1.940985 1_565
O3 V7 2.013577 1_555
O3 V7 2.013577 1_455
O4 V0 1.935588 1_555
O4 V6 2.014558 1_455
O4 V6 2.014558 1_555
O5 V0 1.933660 1_545
O5 V4 2.009543 1_555
O5 V4 2.009543 1_455
O6 V2 1.934380 1_555
O6 V6 2.018971 1_555
O6 V6 2.018971 1_455
O7 V3 1.923236 1_555
O7 V7 2.019589 1_555
O7 V7 2.019589 1_455
F0 V0 2.063653 1_555
F0 V0 2.063653 1_655
F0 V4 2.143641 1_555
F1 V2 2.060347 1_665
F1 V2 2.060347 1_565
F1 V6 2.117193 1_555
F2 V3 2.069765 1_565
F2 V3 2.069765 1_665
F2 V7 2.131225 1_555
F3 V1 2.107967 1_545
F3 V5 2.122473 1_555
F3 V5 2.122473 1_455
F4 V4 2.118049 1_555
F4 V1 2.133060 1_544
F4 V1 2.133060 1_644
F5 V0 2.066108 1_645
F5 V0 2.066108 1_545
F5 V6 2.117958 1_555
F6 V2 2.063526 1_655
F6 V2 2.063526 1_555
F6 V7 2.120027 1_555
F7 V3 2.080958 1_655
F7 V3 2.080958 1_555
F7 V5 2.216485 1_555
