# generated using pymatgen
data_Fe5O3F7
_symmetry_space_group_name_H-M   'P 1'
_cell_length_a   4.78275800
_cell_length_b   4.79130403
_cell_length_c   15.80558033
_cell_angle_alpha   90.19050438
_cell_angle_beta   90.17716299
_cell_angle_gamma   92.17349711
_symmetry_Int_Tables_number   1
_chemical_formula_structural   Fe5O3F7
_chemical_formula_sum   'Fe10 O6 F14'
_cell_volume   361.93065700
_cell_formula_units_Z   2
loop_
 _symmetry_equiv_pos_site_id
 _symmetry_equiv_pos_as_xyz
  1  'x, y, z'
loop_
 _atom_site_type_symbol
 _atom_site_label
 _atom_site_symmetry_multiplicity
 _atom_site_fract_x
 _atom_site_fract_y
 _atom_site_fract_z
 _atom_site_occupancy
  Fe  Fe0  1  0.00702000  0.00612700  0.99959100  1
  Fe  Fe1  1  0.97383600  0.97368900  0.20149900  1
  Fe  Fe2  1  0.02044600  0.02280100  0.40190200  1
  Fe  Fe3  1  0.03319800  0.99955200  0.60636400  1
  Fe  Fe4  1  0.00272000  0.99217500  0.79428700  1
  Fe  Fe5  1  0.51563300  0.51533100  0.09721500  1
  Fe  Fe6  1  0.47888000  0.46930200  0.49918100  1
  Fe  Fe7  1  0.49891100  0.49959800  0.29979700  1
  Fe  Fe8  1  0.47121300  0.51125400  0.69439500  1
  Fe  Fe9  1  0.50204100  0.49914500  0.91223000  1
  O  O0  1  0.18769500  0.80716200  0.69677900  1
  O  O1  1  0.30416900  0.30204600  0.00288400  1
  O  O2  1  0.32292800  0.32115200  0.39540800  1
  O  O3  1  0.29892200  0.29884300  0.59167600  1
  O  O4  1  0.70739800  0.70515500  0.00060200  1
  O  O5  1  0.67256200  0.67281800  0.19883700  1
  F  F0  1  0.19838600  0.80172900  0.09501200  1
  F  F1  1  0.20608200  0.79285200  0.29969600  1
  F  F2  1  0.20485800  0.79754000  0.50268700  1
  F  F3  1  0.20321500  0.80117400  0.90493600  1
  F  F4  1  0.29068400  0.29051900  0.19759800  1
  F  F5  1  0.30530500  0.30683700  0.81314500  1
  F  F6  1  0.70623600  0.70499400  0.39895900  1
  F  F7  1  0.70679100  0.70969200  0.58720100  1
  F  F8  1  0.68851200  0.68703800  0.81078600  1
  F  F9  1  0.80227500  0.19784000  0.09487400  1
  F  F10  1  0.80069800  0.20067300  0.50416000  1
  F  F11  1  0.79264400  0.20668200  0.29950300  1
  F  F12  1  0.80514300  0.19833400  0.90302300  1
  F  F13  1  0.79159700  0.20794600  0.69577400  1
loop_
_geom_bond_atom_site_label_1
_geom_bond_atom_site_label_2
_geom_bond_distance
_geom_bond_site_symmetry_2
Fe0 O1 1.969510 1_556
Fe0 O4 1.994205 1_446
Fe1 O5 1.999449 1_555
Fe2 O2 1.997985 1_555
Fe3 O0 1.868644 1_555
Fe3 O3 1.895048 1_565
Fe4 O0 2.000629 1_555
Fe5 O5 1.911568 1_555
Fe5 O4 1.988673 1_555
Fe5 O1 2.047510 1_555
Fe6 O3 1.872830 1_555
Fe6 O2 1.922229 1_555
Fe7 O2 1.919635 1_555
Fe7 O5 1.972226 1_555
Fe8 O0 1.999012 1_555
Fe8 O3 2.065859 1_555
Fe9 O1 1.946809 1_556
Fe9 O4 1.949032 1_556
F0 Fe0 2.034867 1_564
F0 Fe5 2.084314 1_555
F0 Fe1 2.175799 1_455
F1 Fe7 2.021131 1_555
F1 Fe1 2.112990 1_455
F1 Fe2 2.164019 1_565
F2 Fe6 2.085725 1_555
F2 Fe3 2.086670 1_555
F2 Fe2 2.134311 1_565
F3 Fe0 2.037613 1_565
F3 Fe9 2.075342 1_555
F3 Fe4 2.209616 1_555
F4 Fe1 2.105085 1_445
F4 Fe7 2.123252 1_555
F4 Fe5 2.183827 1_555
F5 Fe9 2.025474 1_555
F5 Fe4 2.070032 1_545
F5 Fe8 2.252598 1_555
F6 Fe7 2.077091 1_555
F6 Fe2 2.098741 1_665
F6 Fe6 2.212768 1_555
F7 Fe3 2.070619 1_655
F7 Fe6 2.082063 1_555
F7 Fe8 2.232767 1_555
F8 Fe9 2.033277 1_555
F8 Fe4 2.074155 1_655
F8 Fe8 2.255036 1_555
F9 Fe0 2.034419 1_654
F9 Fe5 2.086386 1_555
F9 Fe1 2.176502 1_545
F10 Fe6 2.045002 1_555
F10 Fe2 2.124254 1_655
F10 Fe3 2.203436 1_645
F11 Fe7 2.023081 1_555
F11 Fe1 2.113486 1_545
F11 Fe2 2.157341 1_655
F12 Fe0 2.043931 1_655
F12 Fe9 2.087671 1_555
F12 Fe4 2.211766 1_645
F13 Fe3 2.101781 1_645
F13 Fe4 2.143122 1_645
F13 Fe8 2.151580 1_555
