# generated using pymatgen
data_Li12MnFe3P4(CO7)4
_symmetry_space_group_name_H-M   'P 1'
_cell_length_a   6.51363500
_cell_length_b   8.53595600
_cell_length_c   10.04057321
_cell_angle_alpha   85.20515104
_cell_angle_beta   90.00000000
_cell_angle_gamma   90.00000000
_symmetry_Int_Tables_number   1
_chemical_formula_structural   Li12MnFe3P4(CO7)4
_chemical_formula_sum   'Li12 Mn1 Fe3 P4 C4 O28'
_cell_volume   556.30320415
_cell_formula_units_Z   1
loop_
 _symmetry_equiv_pos_site_id
 _symmetry_equiv_pos_as_xyz
  1  'x, y, z'
loop_
 _atom_site_type_symbol
 _atom_site_label
 _atom_site_symmetry_multiplicity
 _atom_site_fract_x
 _atom_site_fract_y
 _atom_site_fract_z
 _atom_site_occupancy
  Li  Li0  1  0.00000000  0.90796900  0.62035800  1
  Li  Li1  1  0.00000000  0.90952400  0.12067300  1
  Li  Li2  1  0.22530600  0.72556700  0.87568900  1
  Li  Li3  1  0.77469400  0.72556700  0.87568900  1
  Li  Li4  1  0.22613600  0.72636700  0.37655000  1
  Li  Li5  1  0.77386400  0.72636700  0.37655000  1
  Li  Li6  1  0.72421200  0.27456600  0.62355600  1
  Li  Li7  1  0.27578800  0.27456600  0.62355600  1
  Li  Li8  1  0.72465700  0.27401200  0.12305800  1
  Li  Li9  1  0.27534300  0.27401200  0.12305800  1
  Li  Li10  1  0.50000000  0.09174600  0.87973000  1
  Li  Li11  1  0.50000000  0.09296600  0.38021300  1
  Mn  Mn0  1  0.00000000  0.34059300  0.38901900  1
  Fe  Fe0  1  0.50000000  0.66534400  0.60577800  1
  Fe  Fe1  1  0.50000000  0.66468100  0.10634200  1
  Fe  Fe2  1  0.00000000  0.33399900  0.89448300  1
  P  P0  1  0.00000000  0.58699800  0.64165000  1
  P  P1  1  0.00000000  0.58966200  0.13966800  1
  P  P2  1  0.50000000  0.41220800  0.85926600  1
  P  P3  1  0.50000000  0.41117900  0.36001300  1
  C  C0  1  0.50000000  0.96565900  0.64883400  1
  C  C1  1  0.50000000  0.96588400  0.14856600  1
  C  C2  1  0.00000000  0.03473200  0.85132700  1
  C  C3  1  0.00000000  0.03273600  0.35175100  1
  O  O0  1  0.50000000  0.92873800  0.52624200  1
  O  O1  1  0.00000000  0.88866500  0.82200000  1
  O  O2  1  0.50000000  0.92911100  0.02600300  1
  O  O3  1  0.50000000  0.85276200  0.74531900  1
  O  O4  1  0.00000000  0.88658600  0.32218000  1
  O  O5  1  0.50000000  0.85282100  0.24501000  1
  O  O6  1  0.18665800  0.68854600  0.58801700  1
  O  O7  1  0.81334200  0.68854600  0.58801700  1
  O  O8  1  0.18704200  0.68985300  0.08603500  1
  O  O9  1  0.81295800  0.68985300  0.08603500  1
  O  O10  1  0.50000000  0.57826400  0.90961100  1
  O  O11  1  0.00000000  0.57195700  0.79785200  1
  O  O12  1  0.50000000  0.57822600  0.40939100  1
  O  O13  1  0.00000000  0.57639800  0.29568600  1
  O  O14  1  0.50000000  0.42821300  0.70316000  1
  O  O15  1  0.00000000  0.42091600  0.59201700  1
  O  O16  1  0.50000000  0.42809600  0.20347800  1
  O  O17  1  0.00000000  0.42171400  0.09297100  1
  O  O18  1  0.31327300  0.31083000  0.91255000  1
  O  O19  1  0.68672700  0.31083000  0.91255000  1
  O  O20  1  0.68480800  0.30939900  0.41349400  1
  O  O21  1  0.31519200  0.30939900  0.41349400  1
  O  O22  1  0.00000000  0.14705900  0.75488100  1
  O  O23  1  0.50000000  0.11101900  0.67822700  1
  O  O24  1  0.00000000  0.14420300  0.25461000  1
  O  O25  1  0.00000000  0.07130700  0.97369400  1
  O  O26  1  0.50000000  0.11122300  0.17794500  1
  O  O27  1  0.00000000  0.06856400  0.47415400  1
loop_
_geom_bond_atom_site_label_1
_geom_bond_atom_site_label_2
_geom_bond_distance
_geom_bond_site_symmetry_2
Li0 O27 1.922942 1_565
Li0 O1 2.017521 1_555
Li0 O7 2.278907 1_455
Li0 O6 2.278907 1_555
Li0 O22 2.539746 1_565
Li1 O25 1.935002 1_564
Li1 O4 2.016342 1_555
Li1 O8 2.286984 1_555
Li1 O9 2.286984 1_455
Li1 O24 2.504338 1_565
Li2 O1 2.063269 1_555
Li2 O8 2.123191 1_556
Li2 O11 2.157569 1_555
Li2 O10 2.197006 1_555
Li2 O3 2.419940 1_555
Li3 O1 2.063269 1_655
Li3 O9 2.123191 1_556
Li3 O11 2.157569 1_655
Li3 O10 2.197006 1_555
Li3 O3 2.419940 1_555
Li4 O4 2.052614 1_555
Li4 O6 2.136339 1_555
Li4 O13 2.154376 1_555
Li4 O12 2.195488 1_555
Li4 O5 2.419350 1_555
Li5 O4 2.052614 1_655
Li5 O7 2.136339 1_555
Li5 O13 2.154376 1_655
Li5 O12 2.195488 1_555
Li5 O5 2.419350 1_555
Li6 O23 2.062761 1_555
Li6 O20 2.120832 1_555
Li6 O14 2.160334 1_555
Li6 O15 2.195843 1_655
Li6 O22 2.431115 1_655
Li7 O23 2.062761 1_555
Li7 O21 2.120832 1_555
Li7 O14 2.160334 1_555
Li7 O15 2.195843 1_555
Li7 O22 2.431115 1_555
Li8 O26 2.061046 1_555
Li8 O19 2.125125 1_554
Li8 O16 2.168128 1_555
Li8 O17 2.198575 1_655
Li8 O24 2.438101 1_655
Li9 O26 2.061046 1_555
Li9 O18 2.125125 1_554
Li9 O16 2.168128 1_555
Li9 O17 2.198575 1_555
Li9 O24 2.438101 1_555
Li10 O2 1.934774 1_546
Li10 O23 2.016130 1_555
Li10 O19 2.277756 1_555
Li10 O18 2.277756 1_555
Li10 O3 2.538305 1_545
Li11 O0 1.941992 1_545
Li11 O26 2.023827 1_555
Li11 O21 2.253232 1_555
Li11 O20 2.253232 1_555
Li11 O5 2.551472 1_545
Mn0 O21 2.082150 1_555
Mn0 O20 2.082150 1_455
Mn0 O13 2.148092 1_555
Mn0 O15 2.204097 1_555
Mn0 O24 2.238239 1_555
Mn0 O27 2.406383 1_555
Fe0 O7 2.056887 1_555
Fe0 O6 2.056887 1_555
Fe0 O12 2.164781 1_555
Fe0 O14 2.173088 1_555
Fe0 O3 2.212928 1_555
Fe0 O0 2.322180 1_555
Fe1 O9 2.058124 1_555
Fe1 O8 2.058124 1_555
Fe1 O10 2.165525 1_554
Fe1 O16 2.168003 1_555
Fe1 O5 2.211653 1_555
Fe1 O2 2.332613 1_555
Fe2 O19 2.056660 1_455
Fe2 O18 2.056660 1_555
Fe2 O11 2.176616 1_555
Fe2 O17 2.186741 1_556
Fe2 O22 2.210189 1_555
Fe2 O25 2.315693 1_555
C0 O0 1.295868 1_555
C0 O23 1.299179 1_565
C0 O3 1.308097 1_555
C1 O2 1.295179 1_555
C1 O26 1.298961 1_565
C1 O5 1.308775 1_555
C2 O25 1.292726 1_555
C2 O22 1.304552 1_555
C2 O1 1.304855 1_545
C3 O27 1.291045 1_555
C3 O24 1.304406 1_555
C3 O4 1.306296 1_545
O6 P0 1.562541 1_555
O7 P0 1.562541 1_655
O8 P1 1.558435 1_555
O9 P1 1.558435 1_655
O10 P2 1.544170 1_555
O11 P0 1.562871 1_555
O12 P3 1.548287 1_555
O13 P1 1.561129 1_555
O14 P2 1.561918 1_555
O15 P0 1.541505 1_555
O16 P3 1.566255 1_555
O17 P1 1.545122 1_555
O18 P2 1.561086 1_555
O19 P2 1.561086 1_555
O20 P3 1.553775 1_555
O21 P3 1.553775 1_555
