# generated using pymatgen
data_Li3NbV2O6
_symmetry_space_group_name_H-M   'P 1'
_cell_length_a   2.94809323
_cell_length_b   10.27315254
_cell_length_c   7.98952464
_cell_angle_alpha   87.41574259
_cell_angle_beta   100.63216814
_cell_angle_gamma   81.74782452
_symmetry_Int_Tables_number   1
_chemical_formula_structural   Li3NbV2O6
_chemical_formula_sum   'Li6 Nb2 V4 O12'
_cell_volume   234.71782961
_cell_formula_units_Z   2
loop_
 _symmetry_equiv_pos_site_id
 _symmetry_equiv_pos_as_xyz
  1  'x, y, z'
loop_
 _atom_site_type_symbol
 _atom_site_label
 _atom_site_symmetry_multiplicity
 _atom_site_fract_x
 _atom_site_fract_y
 _atom_site_fract_z
 _atom_site_occupancy
  Li  Li0  1  0.41666700  0.24999900  0.08333200  1
  Li  Li1  1  0.91667100  0.75000200  0.58334100  1
  Li  Li2  1  0.25902200  0.73729500  0.25545800  1
  Li  Li3  1  0.75900200  0.23733100  0.75545700  1
  Li  Li4  1  0.07433200  0.26267500  0.41121300  1
  Li  Li5  1  0.57431800  0.76269700  0.91120800  1
  Nb  Nb0  1  0.66658900  0.00005600  0.33327500  1
  Nb  Nb1  1  0.16671400  0.49994900  0.83338700  1
  V  V0  1  0.49579800  0.50360600  0.49525400  1
  V  V1  1  0.33754300  0.99639300  0.67141400  1
  V  V2  1  0.99574800  0.00369000  0.99524100  1
  V  V3  1  0.83759200  0.49630200  0.17143000  1
  O  O0  1  0.62373700  0.88446000  0.13198300  1
  O  O1  1  0.12371900  0.38451300  0.63201600  1
  O  O2  1  0.20959600  0.61554100  0.03468100  1
  O  O3  1  0.70961300  0.11548900  0.53464700  1
  O  O4  1  0.45574700  0.38055900  0.29192500  1
  O  O5  1  0.95574900  0.88056200  0.79192700  1
  O  O6  1  0.87758700  0.61943800  0.37473600  1
  O  O7  1  0.37758900  0.11943900  0.87474200  1
  O  O8  1  0.29125000  0.87486900  0.45733600  1
  O  O9  1  0.79122600  0.37488300  0.95733300  1
  O  O10  1  0.04210700  0.12511500  0.20933100  1
  O  O11  1  0.54208600  0.62513000  0.70933200  1
loop_
_geom_bond_atom_site_label_1
_geom_bond_atom_site_label_2
_geom_bond_distance
_geom_bond_site_symmetry_2
Li0 O10 2.139789 1_655
Li0 O9 2.139791 1_454
Li0 O9 2.139880 1_554
Li0 O10 2.139882 1_555
Li0 O7 2.182814 1_554
Li0 O4 2.182832 1_555
Li1 O11 2.139664 1_655
Li1 O8 2.139684 1_555
Li1 O11 2.139818 1_555
Li1 O8 2.139833 1_655
Li1 O5 2.182789 1_555
Li1 O6 2.182934 1_555
Li2 O6 2.078569 1_555
Li2 O6 2.078664 1_455
Li2 O8 2.189871 1_555
Li2 O2 2.203069 1_555
Li2 O0 2.266599 1_455
Li2 O0 2.266829 1_555
Li3 O7 2.078787 1_655
Li3 O7 2.078878 1_555
Li3 O9 2.189704 1_555
Li3 O3 2.203838 1_555
Li3 O1 2.266619 1_555
Li3 O1 2.266824 1_655
Li4 O4 2.078753 1_455
Li4 O4 2.078842 1_555
Li4 O10 2.189797 1_555
Li4 O1 2.203767 1_555
Li4 O3 2.266623 1_555
Li4 O3 2.266829 1_455
Li5 O5 2.078619 1_455
Li5 O5 2.078721 1_555
Li5 O11 2.189810 1_555
Li5 O0 2.203113 1_556
Li5 O2 2.266533 1_656
Li5 O2 2.266768 1_556
Nb0 O3 2.037334 1_555
Nb0 O0 2.037870 1_545
Nb0 O10 2.134046 1_555
Nb0 O10 2.134212 1_655
Nb0 O8 2.135208 1_545
Nb0 O8 2.135271 1_645
Nb1 O1 2.037347 1_555
Nb1 O2 2.037857 1_556
Nb1 O9 2.134144 1_555
Nb1 O9 2.134207 1_455
Nb1 O11 2.135162 1_455
Nb1 O11 2.135209 1_555
O0 V2 2.145563 1_464
O0 V2 2.145635 1_564
O1 V0 2.144880 1_455
O1 V0 2.144991 1_555
O2 V3 2.145634 1_555
O2 V3 2.145710 1_455
O3 V1 2.144925 1_645
O3 V1 2.145015 1_545
O4 V3 2.070933 1_555
O4 V3 2.071000 1_455
O4 V0 2.099546 1_555
O5 V1 2.071474 1_655
O5 V1 2.071533 1_555
O5 V2 2.099988 1_565
O6 V0 2.071492 1_555
O6 V0 2.071559 1_655
O6 V3 2.099990 1_555
O7 V2 2.070981 1_455
O7 V2 2.071044 1_555
O7 V1 2.099533 1_545
O8 V1 2.158228 1_555
O9 V3 2.157678 1_556
O10 V2 2.157672 1_454
O11 V0 2.158228 1_555
