# generated using pymatgen
data_Mn2OF3
_symmetry_space_group_name_H-M   'P 1'
_cell_length_a   3.08925862
_cell_length_b   5.16223705
_cell_length_c   10.63917278
_cell_angle_alpha   89.98462266
_cell_angle_beta   89.94041044
_cell_angle_gamma   89.99961781
_symmetry_Int_Tables_number   1
_chemical_formula_structural   Mn2OF3
_chemical_formula_sum   'Mn4 O2 F6'
_cell_volume   169.66795347
_cell_formula_units_Z   2
loop_
 _symmetry_equiv_pos_site_id
 _symmetry_equiv_pos_as_xyz
  1  'x, y, z'
loop_
 _atom_site_type_symbol
 _atom_site_label
 _atom_site_symmetry_multiplicity
 _atom_site_fract_x
 _atom_site_fract_y
 _atom_site_fract_z
 _atom_site_occupancy
  Mn  Mn0  1  0.24452600  0.50099100  0.84621000  1
  Mn  Mn1  1  0.24448900  0.99886900  0.34633500  1
  Mn  Mn2  1  0.74423000  0.05086400  0.63889400  1
  Mn  Mn3  1  0.74415800  0.44913400  0.13887800  1
  O  O0  1  0.24418700  0.24077100  0.70376700  1
  O  O1  1  0.24411200  0.25926700  0.20383900  1
  F  F0  1  0.24429100  0.84399800  0.55959100  1
  F  F1  1  0.24424000  0.65600200  0.05954600  1
  F  F2  1  0.74426400  0.31073700  0.94532400  1
  F  F3  1  0.74444800  0.75085600  0.78661300  1
  F  F4  1  0.74423100  0.18933700  0.44537500  1
  F  F5  1  0.74442700  0.74917400  0.28662500  1
loop_
_geom_bond_atom_site_label_1
_geom_bond_atom_site_label_2
_geom_bond_distance
_geom_bond_site_symmetry_2
Mn0 O0 2.025405 1_555
Mn1 O1 2.025897 1_565
Mn2 O0 1.954958 1_555
Mn2 O0 1.955893 1_655
Mn3 O1 1.955016 1_555
Mn3 O1 1.955917 1_655
F0 Mn2 2.058267 1_465
F0 Mn2 2.059312 1_565
F0 Mn1 2.405401 1_555
F1 Mn3 2.058223 1_455
F1 Mn3 2.059150 1_555
F1 Mn0 2.406848 1_554
F2 Mn0 2.112108 1_655
F2 Mn0 2.112518 1_555
F2 Mn3 2.179848 1_556
F3 Mn0 2.109139 1_555
F3 Mn0 2.110445 1_655
F3 Mn2 2.206164 1_565
F4 Mn1 2.112474 1_645
F4 Mn1 2.112920 1_545
F4 Mn2 2.179263 1_555
F5 Mn1 2.109195 1_555
F5 Mn1 2.110455 1_655
F5 Mn3 2.207084 1_555
