# generated using pymatgen
data_Li3Fe3(BO3)4
_symmetry_space_group_name_H-M   'P 1'
_cell_length_a   9.06708700
_cell_length_b   5.22159000
_cell_length_c   10.99174009
_cell_angle_alpha   64.53877478
_cell_angle_beta   90.00000000
_cell_angle_gamma   90.00000000
_symmetry_Int_Tables_number   1
_chemical_formula_structural   Li3Fe3(BO3)4
_chemical_formula_sum   'Li6 Fe6 B8 O24'
_cell_volume   469.85658173
_cell_formula_units_Z   2
loop_
 _symmetry_equiv_pos_site_id
 _symmetry_equiv_pos_as_xyz
  1  'x, y, z'
loop_
 _atom_site_type_symbol
 _atom_site_label
 _atom_site_symmetry_multiplicity
 _atom_site_fract_x
 _atom_site_fract_y
 _atom_site_fract_z
 _atom_site_occupancy
  Li  Li0  1  0.21574400  0.50592000  0.33493600  1
  Li  Li1  1  0.22768800  0.86054000  0.91536300  1
  Li  Li2  1  0.72986400  0.10342700  0.59925500  1
  Li  Li3  1  0.78425600  0.50592000  0.83493600  1
  Li  Li4  1  0.77231200  0.86054000  0.41536300  1
  Li  Li5  1  0.27013600  0.10342700  0.09925500  1
  Fe  Fe0  1  0.57718600  0.97488500  0.86509500  1
  Fe  Fe1  1  0.72050200  0.46372000  0.18408700  1
  Fe  Fe2  1  0.04221100  0.03177800  0.61691900  1
  Fe  Fe3  1  0.42281400  0.97488500  0.36509500  1
  Fe  Fe4  1  0.95778900  0.03177800  0.11691900  1
  Fe  Fe5  1  0.27949800  0.46372000  0.68408700  1
  B  B0  1  0.55252700  0.44440700  0.38586100  1
  B  B1  1  0.90836100  0.98271800  0.86349300  1
  B  B2  1  0.05896800  0.56536200  0.11574400  1
  B  B3  1  0.40051200  0.01928200  0.63246600  1
  B  B4  1  0.09163900  0.98271800  0.36349300  1
  B  B5  1  0.44747300  0.44440700  0.88586100  1
  B  B6  1  0.59948800  0.01928200  0.13246600  1
  B  B7  1  0.94103200  0.56536200  0.61574400  1
  O  O0  1  0.60279400  0.79814100  0.09252300  1
  O  O1  1  0.89952000  0.33542000  0.59726300  1
  O  O2  1  0.15094200  0.78378200  0.10556400  1
  O  O3  1  0.91232100  0.61167400  0.14442200  1
  O  O4  1  0.52902000  0.11010000  0.66757300  1
  O  O5  1  0.26619500  0.14447300  0.64118500  1
  O  O6  1  0.41601600  0.34096400  0.37413000  1
  O  O7  1  0.03553100  0.91085600  0.81629800  1
  O  O8  1  0.67634300  0.29165900  0.37278400  1
  O  O9  1  0.77338100  0.86657200  0.84731300  1
  O  O10  1  0.09055800  0.16444100  0.42513200  1
  O  O11  1  0.42494900  0.68706200  0.90225500  1
  O  O12  1  0.10048000  0.33542000  0.09726300  1
  O  O13  1  0.39720600  0.79814100  0.59252300  1
  O  O14  1  0.47098000  0.11010000  0.16757300  1
  O  O15  1  0.84905800  0.78378200  0.60556400  1
  O  O16  1  0.73380500  0.14447300  0.14118500  1
  O  O17  1  0.08767900  0.61167400  0.64442200  1
  O  O18  1  0.96446900  0.91085600  0.31629800  1
  O  O19  1  0.58398400  0.34096400  0.87413000  1
  O  O20  1  0.22661900  0.86657200  0.34731300  1
  O  O21  1  0.32365700  0.29165900  0.87278400  1
  O  O22  1  0.57505100  0.68706200  0.40225500  1
  O  O23  1  0.90944200  0.16444100  0.92513200  1
loop_
_geom_bond_atom_site_label_1
_geom_bond_atom_site_label_2
_geom_bond_distance
_geom_bond_site_symmetry_2
Li0 O20 1.948041 1_555
Li0 O6 1.976329 1_555
Li0 O10 1.982597 1_555
Li0 O2 2.379414 1_555
Li1 O7 2.011062 1_555
Li1 O11 2.037776 1_555
Li1 O2 2.072484 1_556
Li1 O21 2.266701 1_565
Li2 O1 1.952286 1_555
Li2 O15 1.964444 1_545
Li2 O4 1.975831 1_555
Li2 O8 2.300989 1_555
Li2 O9 2.494030 1_545
Li3 O9 1.948041 1_555
Li3 O19 1.976329 1_555
Li3 O23 1.982597 1_555
Li3 O15 2.379414 1_555
Li4 O18 2.011062 1_555
Li4 O22 2.037776 1_555
Li4 O15 2.072484 1_555
Li4 O8 2.266701 1_565
Li5 O12 1.952286 1_555
Li5 O2 1.964444 1_545
Li5 O14 1.975831 1_555
Li5 O21 2.300989 1_554
Li5 O20 2.494030 1_545
Fe0 O9 1.902014 1_555
Fe0 O11 1.950149 1_555
Fe0 O19 1.957235 1_565
Fe0 O4 2.021129 1_565
Fe0 O0 2.274021 1_556
Fe1 O3 1.876774 1_555
Fe1 O8 1.915001 1_555
Fe1 O0 1.920983 1_555
Fe1 O16 1.921359 1_555
Fe2 O10 1.964798 1_555
Fe2 O1 1.984903 1_455
Fe2 O7 2.003839 1_545
Fe2 O17 2.122053 1_545
Fe2 O5 2.162601 1_555
Fe2 O15 2.213271 1_445
Fe3 O20 1.902014 1_555
Fe3 O22 1.950149 1_555
Fe3 O6 1.957235 1_565
Fe3 O14 2.021129 1_565
Fe3 O13 2.274021 1_555
Fe4 O23 1.964798 1_554
Fe4 O12 1.984903 1_655
Fe4 O18 2.003839 1_545
Fe4 O3 2.122053 1_545
Fe4 O16 2.162601 1_555
Fe4 O2 2.213271 1_645
Fe5 O17 1.876774 1_555
Fe5 O21 1.915001 1_555
Fe5 O13 1.920983 1_555
Fe5 O5 1.921359 1_555
B0 O22 1.369632 1_555
B0 O6 1.378514 1_555
B0 O8 1.419761 1_555
B1 O7 1.380877 1_655
B1 O23 1.382846 1_565
B1 O9 1.410687 1_555
B2 O12 1.354339 1_555
B2 O2 1.378036 1_555
B2 O3 1.411163 1_455
B3 O4 1.374337 1_555
B3 O13 1.401034 1_545
B3 O5 1.404835 1_555
B4 O18 1.380877 1_455
B4 O10 1.382846 1_565
B4 O20 1.410687 1_555
B5 O11 1.369632 1_555
B5 O19 1.378514 1_555
B5 O21 1.419761 1_555
B6 O14 1.374337 1_555
B6 O0 1.401034 1_545
B6 O16 1.404835 1_555
B7 O1 1.354339 1_555
B7 O15 1.378036 1_555
B7 O17 1.411163 1_655
