# generated using pymatgen
data_K3CuB2P4H3O17
_symmetry_space_group_name_H-M   'P 1'
_cell_length_a   17.84098700
_cell_length_b   9.49098400
_cell_length_c   9.70173649
_cell_angle_alpha   67.94028874
_cell_angle_beta   90.00000000
_cell_angle_gamma   90.00000000
_symmetry_Int_Tables_number   1
_chemical_formula_structural   K3CuB2P4H3O17
_chemical_formula_sum   'K12 Cu4 B8 P16 H12 O68'
_cell_volume   1522.51757634
_cell_formula_units_Z   4
loop_
 _symmetry_equiv_pos_site_id
 _symmetry_equiv_pos_as_xyz
  1  'x, y, z'
loop_
 _atom_site_type_symbol
 _atom_site_label
 _atom_site_symmetry_multiplicity
 _atom_site_fract_x
 _atom_site_fract_y
 _atom_site_fract_z
 _atom_site_occupancy
  K  K0  1  0.86875200  0.05532000  0.01577400  1
  K  K1  1  0.63124800  0.55532000  0.01577400  1
  K  K2  1  0.13086300  0.46399400  0.37206000  1
  K  K3  1  0.88800600  0.09832500  0.54330100  1
  K  K4  1  0.38800600  0.40167500  0.45669900  1
  K  K5  1  0.63086300  0.03600600  0.62794000  1
  K  K6  1  0.36913700  0.96399400  0.37206000  1
  K  K7  1  0.61199400  0.59832500  0.54330100  1
  K  K8  1  0.11199400  0.90167500  0.45669900  1
  K  K9  1  0.86913700  0.53600600  0.62794000  1
  K  K10  1  0.36875200  0.44468000  0.98422600  1
  K  K11  1  0.13124800  0.94468000  0.98422600  1
  Cu  Cu0  1  0.83230200  0.43666000  0.02591800  1
  Cu  Cu1  1  0.66769800  0.93666000  0.02591800  1
  Cu  Cu2  1  0.33230200  0.06334000  0.97408200  1
  Cu  Cu3  1  0.16769800  0.56334000  0.97408200  1
  B  B0  1  0.58669200  0.20699300  0.01114200  1
  B  B1  1  0.91330800  0.70699300  0.01114200  1
  B  B2  1  0.90839100  0.49261500  0.27669800  1
  B  B3  1  0.59160900  0.99261500  0.27669800  1
  B  B4  1  0.40839100  0.00738500  0.72330200  1
  B  B5  1  0.09160900  0.50738500  0.72330200  1
  B  B6  1  0.08669200  0.29300700  0.98885800  1
  B  B7  1  0.41330800  0.79300700  0.98885800  1
  P  P0  1  0.21949500  0.22296200  0.14171500  1
  P  P1  1  0.97766800  0.26991000  0.20378400  1
  P  P2  1  0.51872400  0.25649900  0.24688200  1
  P  P3  1  0.28050500  0.72296200  0.14171500  1
  P  P4  1  0.52233200  0.76991000  0.20378400  1
  P  P5  1  0.75918400  0.39349800  0.34917200  1
  P  P6  1  0.98127600  0.75649900  0.24688200  1
  P  P7  1  0.74081600  0.89349800  0.34917200  1
  P  P8  1  0.25918400  0.10650200  0.65082800  1
  P  P9  1  0.01872400  0.24350100  0.75311800  1
  P  P10  1  0.24081600  0.60650200  0.65082800  1
  P  P11  1  0.47766800  0.23009000  0.79621600  1
  P  P12  1  0.71949500  0.27703800  0.85828500  1
  P  P13  1  0.48127600  0.74350100  0.75311800  1
  P  P14  1  0.02233200  0.73009000  0.79621600  1
  P  P15  1  0.78050500  0.77703800  0.85828500  1
  H  H0  1  0.75960900  0.15199500  0.27073300  1
  H  H1  1  0.22263900  0.16726200  0.39220300  1
  H  H2  1  0.53448100  0.47468100  0.29693900  1
  H  H3  1  0.74039100  0.65199500  0.27073300  1
  H  H4  1  0.27736100  0.66726200  0.39220300  1
  H  H5  1  0.96551900  0.97468100  0.29693900  1
  H  H6  1  0.03448100  0.02531900  0.70306100  1
  H  H7  1  0.72263900  0.33273800  0.60779700  1
  H  H8  1  0.25960900  0.34800500  0.72926700  1
  H  H9  1  0.46551900  0.52531900  0.70306100  1
  H  H10  1  0.77736100  0.83273800  0.60779700  1
  H  H11  1  0.24039100  0.84800500  0.72926700  1
  O  O0  1  0.14850700  0.18494400  0.06511000  1
  O  O1  1  0.61824200  0.06815700  0.12353800  1
  O  O2  1  0.29170700  0.18912600  0.07614300  1
  O  O3  1  0.53743300  0.29108600  0.07751300  1
  O  O4  1  0.90614100  0.27352300  0.11572900  1
  O  O5  1  0.04627700  0.33871800  0.09824300  1
  O  O6  1  0.21713100  0.38900400  0.12907600  1
  O  O7  1  0.35149300  0.68494400  0.06511000  1
  O  O8  1  0.88175800  0.56815700  0.12353800  1
  O  O9  1  0.20829300  0.68912600  0.07614300  1
  O  O10  1  0.78227000  0.04922700  0.32703400  1
  O  O11  1  0.74798500  0.34901600  0.21544900  1
  O  O12  1  0.99584000  0.10998600  0.31441800  1
  O  O13  1  0.21559400  0.11506700  0.31065500  1
  O  O14  1  0.43594200  0.25593500  0.27224500  1
  O  O15  1  0.96256700  0.79108600  0.07751300  1
  O  O16  1  0.56034600  0.10344200  0.33706600  1
  O  O17  1  0.59385900  0.77352300  0.11572900  1
  O  O18  1  0.45372300  0.83871800  0.09824300  1
  O  O19  1  0.56127200  0.37740000  0.29208400  1
  O  O20  1  0.96957800  0.37885200  0.29285500  1
  O  O21  1  0.28286900  0.88900400  0.12907600  1
  O  O22  1  0.71773000  0.54922700  0.32703400  1
  O  O23  1  0.75201500  0.84901600  0.21544900  1
  O  O24  1  0.84582700  0.41450000  0.37685900  1
  O  O25  1  0.50416000  0.60998600  0.31441800  1
  O  O26  1  0.28440600  0.61506700  0.31065500  1
  O  O27  1  0.06405800  0.75593500  0.27224500  1
  O  O28  1  0.93965400  0.60344200  0.33706600  1
  O  O29  1  0.22975500  0.22268700  0.50478300  1
  O  O30  1  0.72975500  0.27731300  0.49521700  1
  O  O31  1  0.93872800  0.87740000  0.29208400  1
  O  O32  1  0.53042200  0.87885200  0.29285500  1
  O  O33  1  0.34582700  0.08550000  0.62314100  1
  O  O34  1  0.65417300  0.91450000  0.37685900  1
  O  O35  1  0.46957800  0.12114800  0.70714500  1
  O  O36  1  0.06127200  0.12260000  0.70791600  1
  O  O37  1  0.27024500  0.72268700  0.50478300  1
  O  O38  1  0.77024500  0.77731300  0.49521700  1
  O  O39  1  0.06034600  0.39655800  0.66293400  1
  O  O40  1  0.93594200  0.24406500  0.72775500  1
  O  O41  1  0.71559400  0.38493300  0.68934500  1
  O  O42  1  0.49584000  0.39001400  0.68558200  1
  O  O43  1  0.15417300  0.58550000  0.62314100  1
  O  O44  1  0.24798500  0.15098400  0.78455100  1
  O  O45  1  0.28227000  0.45077300  0.67296600  1
  O  O46  1  0.71713100  0.11099600  0.87092400  1
  O  O47  1  0.03042200  0.62114800  0.70714500  1
  O  O48  1  0.43872800  0.62260000  0.70791600  1
  O  O49  1  0.54627700  0.16128200  0.90175700  1
  O  O50  1  0.40614100  0.22647700  0.88427100  1
  O  O51  1  0.43965400  0.89655800  0.66293400  1
  O  O52  1  0.03743300  0.20891400  0.92248700  1
  O  O53  1  0.56405800  0.74406500  0.72775500  1
  O  O54  1  0.78440600  0.88493300  0.68934500  1
  O  O55  1  0.00416000  0.89001400  0.68558200  1
  O  O56  1  0.25201500  0.65098400  0.78455100  1
  O  O57  1  0.21773000  0.95077300  0.67296600  1
  O  O58  1  0.79170700  0.31087400  0.92385700  1
  O  O59  1  0.11824200  0.43184300  0.87646200  1
  O  O60  1  0.64850700  0.31505600  0.93489000  1
  O  O61  1  0.78286900  0.61099600  0.87092400  1
  O  O62  1  0.95372300  0.66128200  0.90175700  1
  O  O63  1  0.09385900  0.72647700  0.88427100  1
  O  O64  1  0.46256700  0.70891400  0.92248700  1
  O  O65  1  0.70829300  0.81087400  0.92385700  1
  O  O66  1  0.38175800  0.93184300  0.87646200  1
  O  O67  1  0.85149300  0.81505600  0.93489000  1
loop_
_geom_bond_atom_site_label_1
_geom_bond_atom_site_label_2
_geom_bond_distance
_geom_bond_site_symmetry_2
K0 O58 2.634924 1_554
K0 O4 2.680065 1_555
K0 O67 2.693448 1_544
K0 O31 2.862860 1_545
K0 O15 2.884642 1_545
K0 O40 2.948572 1_554
K0 O46 3.002281 1_554
K0 O23 3.012490 1_545
K1 O65 2.634924 1_554
K1 O17 2.680065 1_555
K1 O60 2.693448 1_554
K1 O19 2.862860 1_555
K1 O3 2.884642 1_555
K1 O53 2.948572 1_554
K1 O61 3.002281 1_554
K1 O11 3.012490 1_555
K2 O29 2.793019 1_555
K2 O27 2.831998 1_555
K2 O39 2.932462 1_555
K2 O26 3.045200 1_555
K2 O43 3.089762 1_555
K2 O6 3.113336 1_555
K2 O20 3.160666 1_455
K2 O9 3.179350 1_555
K3 O54 2.714813 1_545
K3 O40 2.776041 1_555
K3 O55 2.838793 1_645
K3 O12 2.908574 1_555
K3 O24 2.922135 1_555
K3 O10 2.985379 1_555
K4 O26 2.714813 1_555
K4 O14 2.776041 1_555
K4 O25 2.838793 1_555
K4 O42 2.908574 1_555
K4 O33 2.922135 1_555
K4 O45 2.985379 1_555
K5 O30 2.793019 1_555
K5 O53 2.831998 1_545
K5 O16 2.932462 1_555
K5 O54 3.045200 1_545
K5 O34 3.089762 1_545
K5 O46 3.113336 1_555
K5 O35 3.160666 1_555
K5 O65 3.179350 1_545
K6 O37 2.793019 1_555
K6 O14 2.831998 1_565
K6 O51 2.932462 1_555
K6 O13 3.045200 1_565
K6 O33 3.089762 1_565
K6 O21 3.113336 1_555
K6 O32 3.160666 1_555
K6 O2 3.179350 1_565
K7 O41 2.714813 1_555
K7 O53 2.776041 1_555
K7 O42 2.838793 1_555
K7 O25 2.908574 1_555
K7 O34 2.922135 1_555
K7 O22 2.985379 1_555
K8 O13 2.714813 1_565
K8 O27 2.776041 1_555
K8 O12 2.838793 1_465
K8 O55 2.908574 1_555
K8 O43 2.922135 1_555
K8 O57 2.985379 1_555
K9 O38 2.793019 1_555
K9 O40 2.831998 1_555
K9 O28 2.932462 1_555
K9 O41 3.045200 1_555
K9 O24 3.089762 1_555
K9 O61 3.113336 1_555
K9 O47 3.160666 1_655
K9 O58 3.179350 1_555
K10 O2 2.634924 1_556
K10 O50 2.680065 1_555
K10 O7 2.693448 1_556
K10 O48 2.862860 1_555
K10 O64 2.884642 1_555
K10 O14 2.948572 1_556
K10 O6 3.002281 1_556
K10 O56 3.012490 1_555
K11 O9 2.634924 1_556
K11 O63 2.680065 1_555
K11 O0 2.693448 1_566
K11 O36 2.862860 1_565
K11 O52 2.884642 1_565
K11 O27 2.948572 1_556
K11 O21 3.002281 1_556
K11 O44 3.012490 1_565
Cu0 O58 1.954007 1_554
Cu0 O4 1.969417 1_555
Cu0 O61 1.976820 1_554
Cu0 O8 2.030010 1_555
Cu0 O11 2.277510 1_555
Cu1 O65 1.954007 1_554
Cu1 O17 1.969417 1_555
Cu1 O46 1.976820 1_564
Cu1 O1 2.030010 1_565
Cu1 O23 2.277510 1_555
Cu2 O2 1.954007 1_556
Cu2 O50 1.969417 1_555
Cu2 O21 1.976820 1_546
Cu2 O66 2.030010 1_545
Cu2 O44 2.277510 1_555
Cu3 O9 1.954007 1_556
Cu3 O63 1.969417 1_555
Cu3 O6 1.976820 1_556
Cu3 O59 2.030010 1_555
Cu3 O56 2.277510 1_555
B0 O1 1.470683 1_555
B0 O49 1.476533 1_554
B0 O3 1.486607 1_555
B0 O60 1.498504 1_554
B1 O8 1.470683 1_555
B1 O62 1.476533 1_554
B1 O15 1.486607 1_555
B1 O67 1.498504 1_554
B2 O8 1.465447 1_555
B2 O24 1.482797 1_555
B2 O28 1.491059 1_555
B2 O20 1.501637 1_555
B3 O1 1.465447 1_565
B3 O34 1.482797 1_555
B3 O16 1.491059 1_565
B3 O32 1.501637 1_555
B4 O66 1.465447 1_545
B4 O33 1.482797 1_555
B4 O51 1.491059 1_545
B4 O35 1.501637 1_555
B5 O59 1.465447 1_555
B5 O43 1.482797 1_555
B5 O39 1.491059 1_555
B5 O47 1.501637 1_555
B6 O59 1.470683 1_555
B6 O5 1.476533 1_556
B6 O52 1.486607 1_555
B6 O0 1.498504 1_556
B7 O66 1.470683 1_555
B7 O18 1.476533 1_556
B7 O64 1.486607 1_555
B7 O7 1.498504 1_556
H0 O10 1.006464 1_555
H1 O13 1.086979 1_555
H1 O29 1.384685 1_555
H2 O19 1.056322 1_555
H2 O25 1.460848 1_555
H3 O22 1.006464 1_555
H4 O26 1.086979 1_555
H4 O37 1.384685 1_555
H5 O31 1.056322 1_555
H5 O12 1.460848 1_565
H6 O36 1.056322 1_555
H6 O55 1.460848 1_545
H7 O41 1.086979 1_555
H7 O30 1.384685 1_555
H8 O45 1.006464 1_555
H9 O48 1.056322 1_555
H9 O42 1.460848 1_555
H10 O54 1.086979 1_555
H10 O38 1.384685 1_555
H11 O57 1.006464 1_555
O0 P0 1.577337 1_555
O2 P0 1.523512 1_555
O3 P2 1.585568 1_555
O4 P1 1.528869 1_555
O5 P1 1.571923 1_455
O6 P0 1.534644 1_555
O7 P3 1.577337 1_555
O9 P3 1.523512 1_555
O10 P7 1.593489 1_545
O11 P5 1.520746 1_555
O12 P1 1.528812 1_555
O13 P0 1.574522 1_555
O14 P2 1.496950 1_555
O15 P6 1.585568 1_555
O16 P2 1.572408 1_555
O17 P4 1.528869 1_555
O18 P4 1.571923 1_555
O19 P2 1.569463 1_555
O20 P1 1.583606 1_555
O21 P3 1.534644 1_555
O22 P5 1.593489 1_555
O23 P7 1.520746 1_555
O24 P5 1.594236 1_555
O25 P4 1.528812 1_555
O26 P3 1.574522 1_555
O27 P6 1.496950 1_455
O28 P6 1.572408 1_555
O29 P8 1.524996 1_555
O30 P5 1.524996 1_555
O31 P6 1.569463 1_555
O32 P4 1.583606 1_555
O33 P8 1.594236 1_555
O34 P7 1.594236 1_555
O35 P11 1.583606 1_555
O36 P9 1.569463 1_555
O37 P10 1.524996 1_555
O38 P7 1.524996 1_555
O39 P9 1.572408 1_555
O40 P9 1.496950 1_655
O41 P12 1.574522 1_555
O42 P11 1.528812 1_555
O43 P10 1.594236 1_555
O44 P8 1.520746 1_555
O45 P10 1.593489 1_555
O46 P12 1.534644 1_555
O47 P14 1.583606 1_555
O48 P13 1.569463 1_555
O49 P11 1.571923 1_555
O50 P11 1.528869 1_555
O51 P13 1.572408 1_555
O52 P9 1.585568 1_555
O53 P13 1.496950 1_555
O54 P15 1.574522 1_555
O55 P14 1.528812 1_555
O56 P10 1.520746 1_555
O57 P8 1.593489 1_565
O58 P12 1.523512 1_555
O60 P12 1.577337 1_555
O61 P15 1.534644 1_555
O62 P14 1.571923 1_655
O63 P14 1.528869 1_555
O64 P13 1.585568 1_555
O65 P15 1.523512 1_555
O67 P15 1.577337 1_555
