# generated using pymatgen
data_NaMgSb
_symmetry_space_group_name_H-M   'P 1'
_cell_length_a   4.64915576
_cell_length_b   4.64915576
_cell_length_c   7.61518133
_cell_angle_alpha   90.00000000
_cell_angle_beta   90.00000000
_cell_angle_gamma   90.00000000
_symmetry_Int_Tables_number   1
_chemical_formula_structural   NaMgSb
_chemical_formula_sum   'Na2 Mg2 Sb2'
_cell_volume   164.59947366
_cell_formula_units_Z   2
loop_
 _symmetry_equiv_pos_site_id
 _symmetry_equiv_pos_as_xyz
  1  'x, y, z'
loop_
 _atom_site_type_symbol
 _atom_site_label
 _atom_site_symmetry_multiplicity
 _atom_site_fract_x
 _atom_site_fract_y
 _atom_site_fract_z
 _atom_site_occupancy
  Na  Na0  1  0.25000000  0.25000000  0.35742757  1
  Na  Na1  1  0.75000000  0.75000000  0.64257243  1
  Mg  Mg0  1  0.25000000  0.75000000  0.00000000  1
  Mg  Mg1  1  0.75000000  0.25000000  0.00000000  1
  Sb  Sb0  1  0.25000000  0.25000000  0.77408844  1
  Sb  Sb1  1  0.75000000  0.75000000  0.22591156  1
loop_
_geom_bond_atom_site_label_1
_geom_bond_atom_site_label_2
_geom_bond_distance
_geom_bond_site_symmetry_2
Na0 Sb0 3.172948 1_555
Na0 Sb1 3.436621 1_455
Na0 Sb1 3.436621 1_555
Na0 Sb1 3.436621 1_545
Na0 Sb1 3.436621 1_445
Na1 Sb1 3.172948 1_555
Na1 Sb0 3.436621 1_655
Na1 Sb0 3.436621 1_665
Na1 Sb0 3.436621 1_555
Na1 Sb0 3.436621 1_565
Mg0 Sb0 2.891936 1_554
Mg0 Sb1 2.891936 1_555
Mg0 Sb0 2.891936 1_564
Mg0 Sb1 2.891936 1_455
Mg1 Sb0 2.891936 1_554
Mg1 Sb1 2.891936 1_545
Mg1 Sb1 2.891936 1_555
Mg1 Sb0 2.891936 1_654
