# generated using pymatgen
data_Li5V3F14
_symmetry_space_group_name_H-M   'P 1'
_cell_length_a   7.28849600
_cell_length_b   11.62895400
_cell_length_c   12.53588300
_cell_angle_alpha   90.00000000
_cell_angle_beta   90.00000000
_cell_angle_gamma   90.00000000
_symmetry_Int_Tables_number   1
_chemical_formula_structural   Li5V3F14
_chemical_formula_sum   'Li20 V12 F56'
_cell_volume   1062.51116533
_cell_formula_units_Z   4
loop_
 _symmetry_equiv_pos_site_id
 _symmetry_equiv_pos_as_xyz
  1  'x, y, z'
loop_
 _atom_site_type_symbol
 _atom_site_label
 _atom_site_symmetry_multiplicity
 _atom_site_fract_x
 _atom_site_fract_y
 _atom_site_fract_z
 _atom_site_occupancy
  Li  Li0  1  0.00272600  0.00995600  0.00995800  1
  Li  Li1  1  0.80758400  0.09125900  0.26764300  1
  Li  Li2  1  0.31222900  0.09052500  0.26468500  1
  Li  Li3  1  0.80138700  0.22150800  0.01235000  1
  Li  Li4  1  0.81811600  0.21713700  0.49410300  1
  Li  Li5  1  0.31811600  0.28286300  0.99410300  1
  Li  Li6  1  0.30138700  0.27849200  0.51235000  1
  Li  Li7  1  0.81222900  0.40947500  0.76468500  1
  Li  Li8  1  0.30758400  0.40874100  0.76764300  1
  Li  Li9  1  0.50272600  0.49004400  0.50995800  1
  Li  Li10  1  0.49727400  0.50995600  0.00995800  1
  Li  Li11  1  0.69241600  0.59125900  0.26764300  1
  Li  Li12  1  0.18777100  0.59052500  0.26468500  1
  Li  Li13  1  0.69861300  0.72150800  0.01235000  1
  Li  Li14  1  0.68188400  0.71713700  0.49410300  1
  Li  Li15  1  0.18188400  0.78286300  0.99410300  1
  Li  Li16  1  0.19861300  0.77849200  0.51235000  1
  Li  Li17  1  0.68777100  0.90947500  0.76468500  1
  Li  Li18  1  0.19241600  0.90874100  0.76764300  1
  Li  Li19  1  0.99727400  0.99004400  0.50995800  1
  V  V0  1  0.50148800  0.00123200  0.49597500  1
  V  V1  1  0.00076400  0.15633700  0.75075900  1
  V  V2  1  0.50016000  0.17149300  0.74739100  1
  V  V3  1  0.00016000  0.32850700  0.24739100  1
  V  V4  1  0.50076400  0.34366300  0.25075900  1
  V  V5  1  0.00148800  0.49876800  0.99597500  1
  V  V6  1  0.99851200  0.50123200  0.49597500  1
  V  V7  1  0.49923600  0.65633700  0.75075900  1
  V  V8  1  0.99984000  0.67149300  0.74739100  1
  V  V9  1  0.49984000  0.82850700  0.24739100  1
  V  V10  1  0.99923600  0.84366300  0.25075900  1
  V  V11  1  0.49851200  0.99876800  0.99597500  1
  F  F0  1  0.93058900  0.99135200  0.75018600  1
  F  F1  1  0.73275500  0.06642800  0.44035800  1
  F  F2  1  0.72732200  0.06587400  0.04831300  1
  F  F3  1  0.57994800  0.05156400  0.84838600  1
  F  F4  1  0.58258200  0.06225100  0.63945100  1
  F  F5  1  0.35576200  0.13397200  0.45442600  1
  F  F6  1  0.35323700  0.13068300  0.03746200  1
  F  F7  1  0.25681800  0.08993600  0.74808700  1
  F  F8  1  0.99430300  0.14347400  0.90749700  1
  F  F9  1  0.99430500  0.14271800  0.59250200  1
  F  F10  1  0.57702100  0.18292800  0.25019100  1
  F  F11  1  0.93632800  0.22264300  0.35838900  1
  F  F12  1  0.93304400  0.21630800  0.14274000  1
  F  F13  1  0.75326900  0.23788600  0.75042200  1
  F  F14  1  0.25326900  0.26211400  0.25042200  1
  F  F15  1  0.43304400  0.28369200  0.64274000  1
  F  F16  1  0.43632800  0.27735700  0.85838900  1
  F  F17  1  0.07702100  0.31707200  0.75019100  1
  F  F18  1  0.49430500  0.35728200  0.09250200  1
  F  F19  1  0.49430300  0.35652600  0.40749700  1
  F  F20  1  0.85323700  0.36931700  0.53746200  1
  F  F21  1  0.75681800  0.41006400  0.24808700  1
  F  F22  1  0.85576200  0.36602800  0.95442600  1
  F  F23  1  0.08258200  0.43774900  0.13945100  1
  F  F24  1  0.07994800  0.44843600  0.34838600  1
  F  F25  1  0.22732200  0.43412600  0.54831300  1
  F  F26  1  0.23275500  0.43357200  0.94035800  1
  F  F27  1  0.43058900  0.50864800  0.25018600  1
  F  F28  1  0.56941100  0.49135200  0.75018600  1
  F  F29  1  0.76724500  0.56642800  0.44035800  1
  F  F30  1  0.77267800  0.56587400  0.04831300  1
  F  F31  1  0.92005200  0.55156400  0.84838600  1
  F  F32  1  0.91741800  0.56225100  0.63945100  1
  F  F33  1  0.14423800  0.63397200  0.45442600  1
  F  F34  1  0.14676300  0.63068300  0.03746200  1
  F  F35  1  0.24318200  0.58993600  0.74808700  1
  F  F36  1  0.50569700  0.64347400  0.90749700  1
  F  F37  1  0.50569500  0.64271800  0.59250200  1
  F  F38  1  0.92297900  0.68292800  0.25019100  1
  F  F39  1  0.56367200  0.72264300  0.35838900  1
  F  F40  1  0.56695600  0.71630800  0.14274000  1
  F  F41  1  0.74673100  0.73788600  0.75042200  1
  F  F42  1  0.24673100  0.76211400  0.25042200  1
  F  F43  1  0.06695600  0.78369200  0.64274000  1
  F  F44  1  0.06367200  0.77735700  0.85838900  1
  F  F45  1  0.42297900  0.81707200  0.75019100  1
  F  F46  1  0.00569500  0.85728200  0.09250200  1
  F  F47  1  0.00569700  0.85652600  0.40749700  1
  F  F48  1  0.64676300  0.86931700  0.53746200  1
  F  F49  1  0.74318200  0.91006400  0.24808700  1
  F  F50  1  0.64423800  0.86602800  0.95442600  1
  F  F51  1  0.41741800  0.93774900  0.13945100  1
  F  F52  1  0.42005200  0.94843600  0.34838600  1
  F  F53  1  0.27267800  0.93412600  0.54831300  1
  F  F54  1  0.26724500  0.93357200  0.94035800  1
  F  F55  1  0.06941100  0.00864800  0.25018600  1
loop_
_geom_bond_atom_site_label_1
_geom_bond_atom_site_label_2
_geom_bond_distance
_geom_bond_site_symmetry_2
F0 V1 1.985621 1_665
F0 Li17 2.017852 1_555
F0 Li18 2.147673 1_655
F1 V0 1.975378 1_555
F1 Li4 1.978021 1_555
F1 Li1 2.251365 1_555
F1 Li19 2.295047 1_545
F2 Li3 1.941713 1_555
F2 V11 1.954639 1_544
F2 Li0 2.164072 1_655
F3 V2 1.971329 1_555
F3 V11 2.037727 1_545
F3 Li17 2.109217 1_545
F4 V2 1.950811 1_555
F4 V0 2.021834 1_555
F4 Li17 2.491751 1_545
F5 Li6 1.873178 1_555
F5 V0 1.944783 1_555
F5 Li2 2.452253 1_555
F6 Li5 1.868899 1_554
F6 V11 1.935167 1_544
F7 V2 2.011275 1_555
F7 V1 2.019965 1_555
F7 Li18 2.172633 1_545
F8 V1 1.971097 1_655
F8 Li0 2.016024 1_656
F8 Li3 2.127959 1_556
F9 Li4 1.979788 1_555
F9 V1 1.990759 1_655
F9 Li19 2.055087 1_545
F10 V4 1.950076 1_555
F10 Li1 2.002046 1_555
F10 Li2 2.216376 1_555
F11 Li4 1.908098 1_555
F11 V3 1.915249 1_655
F11 Li1 2.123427 1_555
F12 Li3 1.896370 1_555
F12 V3 1.913830 1_655
F12 Li1 2.324318 1_555
F13 V2 2.000195 1_555
F13 V1 2.037960 1_655
F13 Li7 2.048966 1_555
F14 V3 2.000195 1_555
F14 V4 2.037960 1_555
F14 Li2 2.048966 1_555
F15 Li6 1.896370 1_555
F15 V2 1.913830 1_555
F15 Li8 2.324318 1_555
F16 Li5 1.908098 1_555
F16 V2 1.915249 1_555
F16 Li8 2.123427 1_555
F17 V1 1.950076 1_555
F17 Li8 2.002046 1_555
F17 Li7 2.216376 1_455
F18 Li5 1.979788 1_554
F18 V4 1.990759 1_555
F18 Li10 2.055087 1_555
F19 V4 1.971097 1_555
F19 Li9 2.016024 1_555
F19 Li6 2.127959 1_555
F20 Li4 1.868899 1_555
F20 V6 1.935167 1_555
F21 V3 2.011275 1_655
F21 V4 2.019965 1_555
F21 Li11 2.172633 1_555
F22 Li3 1.873178 1_556
F22 V5 1.944783 1_655
F22 Li7 2.452253 1_555
F23 V3 1.950811 1_555
F23 V5 2.021834 1_554
F23 Li12 2.491751 1_555
F24 V3 1.971329 1_555
F24 V6 2.037727 1_455
F24 Li12 2.109217 1_555
F25 Li6 1.941713 1_555
F25 V6 1.954639 1_455
F25 Li9 2.164072 1_555
F26 V5 1.975378 1_555
F26 Li5 1.978021 1_555
F26 Li8 2.251365 1_555
F26 Li10 2.295047 1_556
F27 V4 1.985621 1_555
F27 Li12 2.017852 1_555
F27 Li11 2.147673 1_555
F28 V7 1.985621 1_555
F28 Li7 2.017852 1_555
F28 Li8 2.147673 1_555
F29 V6 1.975378 1_555
F29 Li14 1.978021 1_555
F29 Li11 2.251365 1_555
F29 Li9 2.295047 1_555
F30 Li13 1.941713 1_555
F30 V5 1.954639 1_654
F30 Li10 2.164072 1_555
F31 V8 1.971329 1_555
F31 V5 2.037727 1_655
F31 Li7 2.109217 1_555
F32 V8 1.950811 1_555
F32 V6 2.021834 1_555
F32 Li7 2.491751 1_555
F33 Li16 1.873178 1_555
F33 V6 1.944783 1_455
F33 Li12 2.452253 1_555
F34 Li15 1.868899 1_554
F34 V5 1.935167 1_554
F35 V8 2.011275 1_455
F35 V7 2.019965 1_555
F35 Li8 2.172633 1_555
F36 V7 1.971097 1_555
F36 Li10 2.016024 1_556
F36 Li13 2.127959 1_556
F37 Li14 1.979788 1_555
F37 V7 1.990759 1_555
F37 Li9 2.055087 1_555
F38 V10 1.950076 1_555
F38 Li11 2.002046 1_555
F38 Li12 2.216376 1_655
F39 Li14 1.908098 1_555
F39 V9 1.915249 1_555
F39 Li11 2.123427 1_555
F40 Li13 1.896370 1_555
F40 V9 1.913830 1_555
F40 Li11 2.324318 1_555
F41 V8 2.000195 1_555
F41 V7 2.037960 1_555
F41 Li17 2.048966 1_555
F42 V9 2.000195 1_555
F42 V10 2.037960 1_455
F42 Li12 2.048966 1_555
F43 Li16 1.896370 1_555
F43 V8 1.913830 1_455
F43 Li18 2.324318 1_555
F44 Li15 1.908098 1_555
F44 V8 1.915249 1_455
F44 Li18 2.123427 1_555
F45 V7 1.950076 1_555
F45 Li18 2.002046 1_555
F45 Li17 2.216376 1_555
F46 Li15 1.979788 1_554
F46 V10 1.990759 1_455
F46 Li0 2.055087 1_565
F47 V10 1.971097 1_455
F47 Li19 2.016024 1_455
F47 Li16 2.127959 1_555
F48 Li14 1.868899 1_555
F48 V0 1.935167 1_565
F49 V9 2.011275 1_555
F49 V10 2.019965 1_555
F49 Li1 2.172633 1_565
F50 Li13 1.873178 1_556
F50 V11 1.944783 1_555
F50 Li17 2.452253 1_555
F51 V9 1.950811 1_555
F51 V11 2.021834 1_554
F51 Li2 2.491751 1_565
F52 V9 1.971329 1_555
F52 V0 2.037727 1_565
F52 Li2 2.109217 1_565
F53 Li16 1.941713 1_555
F53 V0 1.954639 1_565
F53 Li19 2.164072 1_455
F54 V11 1.975378 1_555
F54 Li15 1.978021 1_555
F54 Li18 2.251365 1_555
F54 Li0 2.295047 1_566
F55 V10 1.985621 1_445
F55 Li2 2.017852 1_555
F55 Li1 2.147673 1_455
