# generated using pymatgen
data_Li3Fe2(PO5)2
_symmetry_space_group_name_H-M   'P 1'
_cell_length_a   6.44122171
_cell_length_b   6.44122171
_cell_length_c   8.69118400
_cell_angle_alpha   90.00000000
_cell_angle_beta   90.00000000
_cell_angle_gamma   90.70847917
_symmetry_Int_Tables_number   1
_chemical_formula_structural   Li3Fe2(PO5)2
_chemical_formula_sum   'Li6 Fe4 P4 O20'
_cell_volume   360.56389599
_cell_formula_units_Z   2
loop_
 _symmetry_equiv_pos_site_id
 _symmetry_equiv_pos_as_xyz
  1  'x, y, z'
loop_
 _atom_site_type_symbol
 _atom_site_label
 _atom_site_symmetry_multiplicity
 _atom_site_fract_x
 _atom_site_fract_y
 _atom_site_fract_z
 _atom_site_occupancy
  Li  Li0  1  0.00000000  0.00000000  0.00000000  1
  Li  Li1  1  0.50000000  0.00000000  0.00000000  1
  Li  Li2  1  0.50000000  0.00000000  0.50000000  1
  Li  Li3  1  0.50000000  0.50000000  0.50000000  1
  Li  Li4  1  0.00000000  0.50000000  0.00000000  1
  Li  Li5  1  0.00000000  0.50000000  0.50000000  1
  Fe  Fe0  1  0.74261200  0.74261200  0.79749300  1
  Fe  Fe1  1  0.75738800  0.75738800  0.29749300  1
  Fe  Fe2  1  0.24261200  0.24261200  0.70250700  1
  Fe  Fe3  1  0.25738800  0.25738800  0.20250700  1
  P  P0  1  0.25272100  0.75272100  0.75000000  1
  P  P1  1  0.24727900  0.74727900  0.25000000  1
  P  P2  1  0.75272100  0.25272100  0.75000000  1
  P  P3  1  0.74727900  0.24727900  0.25000000  1
  O  O0  1  0.44455800  0.75886300  0.85727000  1
  O  O1  1  0.05486700  0.75272700  0.85197900  1
  O  O2  1  0.77392500  0.77392500  0.09567400  1
  O  O3  1  0.44513300  0.74727300  0.35197900  1
  O  O4  1  0.05544200  0.74113700  0.35727000  1
  O  O5  1  0.72607500  0.72607500  0.59567400  1
  O  O6  1  0.25886300  0.94455800  0.64273000  1
  O  O7  1  0.24727300  0.94513300  0.14802100  1
  O  O8  1  0.75272700  0.05486700  0.85197900  1
  O  O9  1  0.74113700  0.05544200  0.35727000  1
  O  O10  1  0.55544200  0.24113700  0.14273000  1
  O  O11  1  0.55486700  0.25272700  0.64802100  1
  O  O12  1  0.27392500  0.27392500  0.40432600  1
  O  O13  1  0.22607500  0.22607500  0.90432600  1
  O  O14  1  0.94513300  0.24727300  0.14802100  1
  O  O15  1  0.94455800  0.25886300  0.64273000  1
  O  O16  1  0.75886300  0.44455800  0.85727000  1
  O  O17  1  0.74727300  0.44513300  0.35197900  1
  O  O18  1  0.24113700  0.55544200  0.14273000  1
  O  O19  1  0.25272700  0.55486700  0.64802100  1
loop_
_geom_bond_atom_site_label_1
_geom_bond_atom_site_label_2
_geom_bond_distance
_geom_bond_site_symmetry_2
Li0 O14 2.081025 1_455
Li0 O7 2.081025 1_545
Li0 O8 2.081025 1_454
Li0 O1 2.081025 1_544
Li0 O13 2.209076 1_554
Li0 O2 2.209076 1_445
Li1 O10 2.016214 1_555
Li1 O0 2.016214 1_544
Li1 O7 2.101347 1_545
Li1 O8 2.101347 1_554
Li1 O2 2.447168 1_545
Li1 O13 2.447168 1_554
Li2 O9 2.016214 1_555
Li2 O6 2.016214 1_545
Li2 O11 2.101347 1_555
Li2 O3 2.101347 1_545
Li2 O5 2.447168 1_545
Li2 O12 2.447168 1_555
Li3 O11 2.081025 1_555
Li3 O19 2.081025 1_555
Li3 O3 2.081025 1_555
Li3 O17 2.081025 1_555
Li3 O5 2.209076 1_555
Li3 O12 2.209076 1_555
Li4 O18 2.016214 1_555
Li4 O16 2.016214 1_454
Li4 O14 2.101347 1_455
Li4 O1 2.101347 1_554
Li4 O13 2.447168 1_554
Li4 O2 2.447168 1_455
Li5 O4 2.016214 1_555
Li5 O15 2.016214 1_455
Li5 O19 2.101347 1_555
Li5 O17 2.101347 1_455
Li5 O5 2.447168 1_455
Li5 O12 2.447168 1_555
Fe0 O5 1.760423 1_555
Fe0 O0 1.992886 1_555
Fe0 O16 1.992886 1_555
Fe0 O1 2.066542 1_655
Fe0 O8 2.066542 1_565
Fe0 O2 2.607003 1_556
Fe1 O2 1.760423 1_555
Fe1 O9 1.992886 1_565
Fe1 O4 1.992886 1_655
Fe1 O17 2.066542 1_555
Fe1 O3 2.066542 1_555
Fe1 O5 2.607003 1_555
Fe2 O13 1.760423 1_555
Fe2 O6 1.992886 1_545
Fe2 O15 1.992886 1_455
Fe2 O11 2.066542 1_555
Fe2 O19 2.066542 1_555
Fe2 O12 2.607003 1_555
Fe3 O12 1.760423 1_555
Fe3 O18 1.992886 1_555
Fe3 O10 1.992886 1_555
Fe3 O7 2.066542 1_545
Fe3 O14 2.066542 1_455
Fe3 O13 2.607003 1_554
O0 P0 1.548035 1_555
O1 P0 1.552325 1_555
O3 P1 1.552325 1_555
O4 P1 1.548035 1_555
O6 P0 1.548035 1_555
O7 P1 1.552325 1_555
O8 P2 1.552325 1_555
O9 P3 1.548035 1_555
O10 P3 1.548035 1_555
O11 P2 1.552325 1_555
O14 P3 1.552325 1_555
O15 P2 1.548035 1_555
O16 P2 1.548035 1_555
O17 P3 1.552325 1_555
O18 P1 1.548035 1_555
O19 P0 1.552325 1_555
