# generated using pymatgen
data_Li2FePCO7
_symmetry_space_group_name_H-M   'P 1'
_cell_length_a   5.05965300
_cell_length_b   10.15763928
_cell_length_c   11.01609136
_cell_angle_alpha   74.28196777
_cell_angle_beta   88.02668751
_cell_angle_gamma   83.05717240
_symmetry_Int_Tables_number   1
_chemical_formula_structural   Li2FePCO7
_chemical_formula_sum   'Li8 Fe4 P4 C4 O28'
_cell_volume   540.99453394
_cell_formula_units_Z   4
loop_
 _symmetry_equiv_pos_site_id
 _symmetry_equiv_pos_as_xyz
  1  'x, y, z'
loop_
 _atom_site_type_symbol
 _atom_site_label
 _atom_site_symmetry_multiplicity
 _atom_site_fract_x
 _atom_site_fract_y
 _atom_site_fract_z
 _atom_site_occupancy
  Li  Li0  1  0.26316100  0.91166500  0.84417600  1
  Li  Li1  1  0.22312400  0.55234800  0.86665000  1
  Li  Li2  1  0.28611200  0.39933500  0.34980800  1
  Li  Li3  1  0.36940300  0.11867400  0.60184400  1
  Li  Li4  1  0.63059700  0.88132600  0.39815600  1
  Li  Li5  1  0.73683900  0.08833500  0.15582400  1
  Li  Li6  1  0.77687600  0.44765200  0.13335000  1
  Li  Li7  1  0.71388800  0.60066500  0.65019200  1
  Fe  Fe0  1  0.18830400  0.20743900  0.95421800  1
  Fe  Fe1  1  0.18664700  0.70488300  0.44952500  1
  Fe  Fe2  1  0.81169600  0.79256100  0.04578200  1
  Fe  Fe3  1  0.81335300  0.29511700  0.55047500  1
  P  P0  1  0.27416400  0.91053400  0.16674600  1
  P  P1  1  0.27319700  0.41177100  0.66898400  1
  P  P2  1  0.72583600  0.08946600  0.83325400  1
  P  P3  1  0.72680300  0.58822900  0.33101600  1
  C  C0  1  0.25396600  0.84913900  0.59558300  1
  C  C1  1  0.32817200  0.33097400  0.10936200  1
  C  C2  1  0.74603400  0.15086100  0.40441700  1
  C  C3  1  0.67182800  0.66902600  0.89063800  1
  O  O0  1  0.02176900  0.83602400  0.55703200  1
  O  O1  1  0.15032400  0.80318200  0.11818800  1
  O  O2  1  0.11595600  0.05460500  0.11287000  1
  O  O3  1  0.07981800  0.34653300  0.07117500  1
  O  O4  1  0.27283000  0.87118300  0.31291700  1
  O  O5  1  0.16959200  0.29621800  0.62169600  1
  O  O6  1  0.24422000  0.38229700  0.81393000  1
  O  O7  1  0.10595100  0.55237100  0.60973400  1
  O  O8  1  0.42655900  0.08281000  0.87426900  1
  O  O9  1  0.29833300  0.92691600  0.66303200  1
  O  O10  1  0.41058700  0.39765100  0.17993600  1
  O  O11  1  0.57344100  0.91719000  0.12573100  1
  O  O12  1  0.48821000  0.24587400  0.06303100  1
  O  O13  1  0.54570700  0.22861700  0.44503100  1
  O  O14  1  0.43127400  0.57676000  0.37242300  1
  O  O15  1  0.70166700  0.07308400  0.33696800  1
  O  O16  1  0.51179000  0.75412600  0.93696900  1
  O  O17  1  0.58941300  0.60234900  0.82006400  1
  O  O18  1  0.56872600  0.42324000  0.62757700  1
  O  O19  1  0.45429300  0.77138300  0.55496900  1
  O  O20  1  0.88404400  0.94539500  0.88713000  1
  O  O21  1  0.72717000  0.12881700  0.68708300  1
  O  O22  1  0.84967600  0.19681800  0.88181200  1
  O  O23  1  0.75578000  0.61770300  0.18607000  1
  O  O24  1  0.97823100  0.16397600  0.44296800  1
  O  O25  1  0.89404900  0.44762900  0.39026600  1
  O  O26  1  0.83040800  0.70378200  0.37830400  1
  O  O27  1  0.92018200  0.65346700  0.92882500  1
loop_
_geom_bond_atom_site_label_1
_geom_bond_atom_site_label_2
_geom_bond_distance
_geom_bond_site_symmetry_2
Li0 O9 1.962754 1_555
Li0 O20 1.971605 1_455
Li0 O16 1.975795 1_555
Li0 O8 2.119931 1_565
Li1 O27 1.949817 1_455
Li1 O6 1.956270 1_555
Li1 O17 1.994208 1_555
Li2 O10 1.957645 1_555
Li2 O25 2.048578 1_455
Li2 O13 2.095543 1_555
Li2 O14 2.103658 1_555
Li3 O9 1.954199 1_545
Li3 O5 2.019883 1_555
Li3 O13 2.028917 1_555
Li3 O21 2.093715 1_555
Li3 O24 2.602721 1_455
Li4 O15 1.954199 1_565
Li4 O26 2.019883 1_555
Li4 O19 2.028917 1_555
Li4 O4 2.093715 1_555
Li4 O0 2.602721 1_655
Li5 O15 1.962754 1_555
Li5 O2 1.971605 1_655
Li5 O12 1.975795 1_555
Li5 O11 2.119931 1_545
Li6 O3 1.949817 1_655
Li6 O23 1.956270 1_555
Li6 O10 1.994208 1_555
Li7 O17 1.957645 1_555
Li7 O7 2.048578 1_655
Li7 O19 2.095543 1_555
Li7 O18 2.103658 1_555
Fe0 O22 1.941344 1_455
Fe0 O8 1.998374 1_555
Fe0 O2 2.054719 1_556
Fe0 O6 2.056025 1_555
Fe0 O12 2.100926 1_556
Fe0 O3 2.169693 1_556
Fe1 O26 1.992866 1_455
Fe1 O4 2.015898 1_555
Fe1 O14 2.020935 1_555
Fe1 O7 2.074450 1_555
Fe1 O0 2.095475 1_555
Fe1 O19 2.096183 1_555
Fe2 O1 1.941344 1_655
Fe2 O11 1.998374 1_555
Fe2 O20 2.054719 1_554
Fe2 O23 2.056025 1_555
Fe2 O16 2.100926 1_554
Fe2 O27 2.169693 1_554
Fe3 O5 1.992866 1_655
Fe3 O21 2.015898 1_555
Fe3 O18 2.020935 1_555
Fe3 O25 2.074450 1_555
Fe3 O24 2.095475 1_555
Fe3 O13 2.096183 1_555
C0 O9 1.264529 1_555
C0 O0 1.296608 1_555
C0 O19 1.348343 1_555
C1 O10 1.270005 1_555
C1 O12 1.305657 1_555
C1 O3 1.316556 1_555
C2 O15 1.264529 1_555
C2 O24 1.296608 1_555
C2 O13 1.348343 1_555
C3 O17 1.270005 1_555
C3 O16 1.305657 1_555
C3 O27 1.316556 1_555
O1 P0 1.540168 1_555
O2 P0 1.553558 1_545
O4 P0 1.550434 1_555
O5 P1 1.556494 1_555
O6 P1 1.547961 1_555
O7 P1 1.556455 1_555
O8 P2 1.569304 1_555
O11 P0 1.569304 1_555
O14 P3 1.556866 1_555
O18 P1 1.556866 1_555
O20 P2 1.553558 1_565
O21 P2 1.550434 1_555
O22 P2 1.540168 1_555
O23 P3 1.547961 1_555
O25 P3 1.556455 1_555
O26 P3 1.556494 1_555
