# generated using pymatgen
data_CoNCl4O3
_symmetry_space_group_name_H-M   'P 1'
_cell_length_a   8.94859000
_cell_length_b   9.19083700
_cell_length_c   11.94536200
_cell_angle_alpha   90.00000000
_cell_angle_beta   90.00000000
_cell_angle_gamma   90.00000000
_symmetry_Int_Tables_number   1
_chemical_formula_structural   CoNCl4O3
_chemical_formula_sum   'Co4 N4 Cl16 O12'
_cell_volume   982.44668078
_cell_formula_units_Z   4
loop_
 _symmetry_equiv_pos_site_id
 _symmetry_equiv_pos_as_xyz
  1  'x, y, z'
loop_
 _atom_site_type_symbol
 _atom_site_label
 _atom_site_symmetry_multiplicity
 _atom_site_fract_x
 _atom_site_fract_y
 _atom_site_fract_z
 _atom_site_occupancy
  Co  Co0  1  0.17482400  0.75000000  0.59579100  1
  Co  Co1  1  0.32517600  0.25000000  0.09579100  1
  Co  Co2  1  0.67482400  0.75000000  0.90420900  1
  Co  Co3  1  0.82517600  0.25000000  0.40420900  1
  N  N0  1  0.15881900  0.25000000  0.77405900  1
  N  N1  1  0.34118100  0.75000000  0.27405900  1
  N  N2  1  0.65881900  0.25000000  0.72594100  1
  N  N3  1  0.84118100  0.75000000  0.22594100  1
  Cl  Cl0  1  0.02680200  0.25000000  0.49915900  1
  Cl  Cl1  1  0.12467700  0.75000000  0.76950700  1
  Cl  Cl2  1  0.19681500  0.43729400  0.05544800  1
  Cl  Cl3  1  0.19681500  0.06270600  0.05544800  1
  Cl  Cl4  1  0.30318500  0.56270600  0.55544800  1
  Cl  Cl5  1  0.30318500  0.93729400  0.55544800  1
  Cl  Cl6  1  0.37532300  0.25000000  0.26950700  1
  Cl  Cl7  1  0.47319800  0.75000000  0.99915900  1
  Cl  Cl8  1  0.52680200  0.25000000  0.00084100  1
  Cl  Cl9  1  0.62467700  0.75000000  0.73049300  1
  Cl  Cl10  1  0.69681500  0.06270600  0.44455200  1
  Cl  Cl11  1  0.69681500  0.43729400  0.44455200  1
  Cl  Cl12  1  0.80318500  0.56270600  0.94455200  1
  Cl  Cl13  1  0.80318500  0.93729400  0.94455200  1
  Cl  Cl14  1  0.87532300  0.25000000  0.23049300  1
  Cl  Cl15  1  0.97319800  0.75000000  0.50084100  1
  O  O0  1  0.09370300  0.13169900  0.79245100  1
  O  O1  1  0.09370300  0.36830100  0.79245100  1
  O  O2  1  0.20995400  0.75000000  0.23741100  1
  O  O3  1  0.29004600  0.25000000  0.73741100  1
  O  O4  1  0.40629700  0.63169900  0.29245100  1
  O  O5  1  0.40629700  0.86830100  0.29245100  1
  O  O6  1  0.59370300  0.13169900  0.70754900  1
  O  O7  1  0.59370300  0.36830100  0.70754900  1
  O  O8  1  0.70995400  0.75000000  0.26258900  1
  O  O9  1  0.79004600  0.25000000  0.76258900  1
  O  O10  1  0.90629700  0.63169900  0.20754900  1
  O  O11  1  0.90629700  0.86830100  0.20754900  1
loop_
_geom_bond_atom_site_label_1
_geom_bond_atom_site_label_2
_geom_bond_distance
_geom_bond_site_symmetry_2
N0 O1 1.252993 1_555
N0 O0 1.252993 1_555
N0 O3 1.253243 1_555
N1 O5 1.252993 1_555
N1 O4 1.252993 1_555
N1 O2 1.253243 1_555
N2 O7 1.252993 1_555
N2 O6 1.252993 1_555
N2 O9 1.253243 1_555
N3 O10 1.252993 1_555
N3 O11 1.252993 1_555
N3 O8 1.253243 1_555
Cl0 Co3 2.131155 1_455
Cl1 Co0 2.123067 1_555
Cl2 Co1 2.124809 1_555
Cl3 Co1 2.124809 1_555
Cl4 Co0 2.124809 1_555
Cl5 Co0 2.124809 1_555
Cl6 Co1 2.123067 1_555
Cl7 Co2 2.131155 1_555
Cl8 Co1 2.131155 1_555
Cl9 Co2 2.123067 1_555
Cl10 Co3 2.124809 1_555
Cl11 Co3 2.124809 1_555
Cl12 Co2 2.124809 1_555
Cl13 Co2 2.124809 1_555
Cl14 Co3 2.123067 1_555
Cl15 Co0 2.131155 1_655
