# generated using pymatgen
data_VCr2O6
_symmetry_space_group_name_H-M   'P 1'
_cell_length_a   5.17159900
_cell_length_b   5.42387400
_cell_length_c   13.90745100
_cell_angle_alpha   90.00000000
_cell_angle_beta   90.00000000
_cell_angle_gamma   90.00000000
_symmetry_Int_Tables_number   1
_chemical_formula_structural   VCr2O6
_chemical_formula_sum   'V4 Cr8 O24'
_cell_volume   390.10541013
_cell_formula_units_Z   4
loop_
 _symmetry_equiv_pos_site_id
 _symmetry_equiv_pos_as_xyz
  1  'x, y, z'
loop_
 _atom_site_type_symbol
 _atom_site_label
 _atom_site_symmetry_multiplicity
 _atom_site_fract_x
 _atom_site_fract_y
 _atom_site_fract_z
 _atom_site_occupancy
  V  V0  1  0.75000000  0.65843400  0.00000000  1
  V  V1  1  0.75000000  0.15843400  0.50000000  1
  V  V2  1  0.25000000  0.34156600  0.00000000  1
  V  V3  1  0.25000000  0.84156600  0.50000000  1
  Cr  Cr0  1  0.00936600  0.85772300  0.17429900  1
  Cr  Cr1  1  0.00936600  0.35772300  0.32570100  1
  Cr  Cr2  1  0.99063400  0.64227700  0.67429900  1
  Cr  Cr3  1  0.99063400  0.14227700  0.82570100  1
  Cr  Cr4  1  0.50936600  0.64227700  0.32570100  1
  Cr  Cr5  1  0.49063400  0.35772300  0.67429900  1
  Cr  Cr6  1  0.50936600  0.14227700  0.17429900  1
  Cr  Cr7  1  0.49063400  0.85772300  0.82570100  1
  O  O0  1  0.93747500  0.89009900  0.56975500  1
  O  O1  1  0.80948300  0.38299000  0.59345600  1
  O  O2  1  0.80948300  0.88299000  0.90654400  1
  O  O3  1  0.93747500  0.39009900  0.93024500  1
  O  O4  1  0.84682000  0.62981900  0.25986700  1
  O  O5  1  0.84682000  0.12981900  0.24013300  1
  O  O6  1  0.65318000  0.62981900  0.74013300  1
  O  O7  1  0.65318000  0.12981900  0.75986700  1
  O  O8  1  0.69051700  0.88299000  0.09345600  1
  O  O9  1  0.56252500  0.39009900  0.06975500  1
  O  O10  1  0.56252500  0.89009900  0.43024500  1
  O  O11  1  0.69051700  0.38299000  0.40654400  1
  O  O12  1  0.30948300  0.61701000  0.59345600  1
  O  O13  1  0.43747500  0.10990100  0.56975500  1
  O  O14  1  0.43747500  0.60990100  0.93024500  1
  O  O15  1  0.30948300  0.11701000  0.90654400  1
  O  O16  1  0.34682000  0.87018100  0.24013300  1
  O  O17  1  0.34682000  0.37018100  0.25986700  1
  O  O18  1  0.15318000  0.87018100  0.75986700  1
  O  O19  1  0.15318000  0.37018100  0.74013300  1
  O  O20  1  0.19051700  0.11701000  0.09345600  1
  O  O21  1  0.06252500  0.10990100  0.43024500  1
  O  O22  1  0.19051700  0.61701000  0.40654400  1
  O  O23  1  0.06252500  0.60990100  0.06975500  1
loop_
_geom_bond_atom_site_label_1
_geom_bond_atom_site_label_2
_geom_bond_distance
_geom_bond_site_symmetry_2
Cr0 O4 1.910713 1_455
Cr0 O5 1.929499 1_465
Cr0 O16 1.971928 1_555
Cr0 O23 1.999069 1_555
Cr0 O8 2.000486 1_455
Cr0 O20 2.029669 1_565
Cr1 O5 1.910713 1_455
Cr1 O4 1.929499 1_455
Cr1 O17 1.971928 1_555
Cr1 O21 1.999069 1_555
Cr1 O11 2.000486 1_455
Cr1 O22 2.029669 1_555
Cr2 O18 1.910713 1_655
Cr2 O19 1.929499 1_655
Cr2 O6 1.971928 1_555
Cr2 O0 1.999069 1_555
Cr2 O12 2.000486 1_655
Cr2 O1 2.029669 1_555
Cr3 O19 1.910713 1_655
Cr3 O18 1.929499 1_645
Cr3 O7 1.971928 1_555
Cr3 O3 1.999069 1_555
Cr3 O15 2.000486 1_655
Cr3 O2 2.029669 1_545
Cr4 O16 1.910713 1_555
Cr4 O17 1.929499 1_555
Cr4 O4 1.971928 1_555
Cr4 O10 1.999069 1_555
Cr4 O22 2.000486 1_555
Cr4 O11 2.029669 1_555
Cr5 O7 1.910713 1_555
Cr5 O6 1.929499 1_555
Cr5 O19 1.971928 1_555
Cr5 O13 1.999069 1_555
Cr5 O1 2.000486 1_555
Cr5 O12 2.029669 1_555
Cr6 O17 1.910713 1_555
Cr6 O16 1.929499 1_545
Cr6 O5 1.971928 1_555
Cr6 O9 1.999069 1_555
Cr6 O20 2.000486 1_555
Cr6 O8 2.029669 1_545
Cr7 O6 1.910713 1_555
Cr7 O7 1.929499 1_565
Cr7 O18 1.971928 1_555
Cr7 O14 1.999069 1_555
Cr7 O2 2.000486 1_555
Cr7 O15 2.029669 1_565
O0 V3 1.903337 1_655
O0 V1 1.999843 1_565
O1 V1 1.807589 1_555
O2 V0 1.807589 1_556
O3 V2 1.903337 1_656
O3 V0 1.999843 1_556
O8 V0 1.807589 1_555
O9 V2 1.903337 1_555
O9 V0 1.999843 1_555
O10 V3 1.903337 1_555
O10 V1 1.999843 1_565
O11 V1 1.807589 1_555
O12 V3 1.807589 1_555
O13 V1 1.903337 1_555
O13 V3 1.999843 1_545
O14 V0 1.903337 1_556
O14 V2 1.999843 1_556
O15 V2 1.807589 1_556
O20 V2 1.807589 1_555
O21 V1 1.903337 1_455
O21 V3 1.999843 1_545
O22 V3 1.807589 1_555
O23 V0 1.903337 1_455
O23 V2 1.999843 1_555
