# generated using pymatgen
data_Li3Bi(BO3)2
_symmetry_space_group_name_H-M   'P 1'
_cell_length_a   6.54328700
_cell_length_b   8.98539100
_cell_length_c   10.29410107
_cell_angle_alpha   62.72124932
_cell_angle_beta   90.00000000
_cell_angle_gamma   90.00000000
_symmetry_Int_Tables_number   1
_chemical_formula_structural   Li3Bi(BO3)2
_chemical_formula_sum   'Li12 Bi4 B8 O24'
_cell_volume   537.92187311
_cell_formula_units_Z   4
loop_
 _symmetry_equiv_pos_site_id
 _symmetry_equiv_pos_as_xyz
  1  'x, y, z'
loop_
 _atom_site_type_symbol
 _atom_site_label
 _atom_site_symmetry_multiplicity
 _atom_site_fract_x
 _atom_site_fract_y
 _atom_site_fract_z
 _atom_site_occupancy
  Li  Li0  1  0.24372000  0.39152000  0.97923000  1
  Li  Li1  1  0.93599200  0.29373500  0.16806600  1
  Li  Li2  1  0.74372000  0.60848000  0.52077000  1
  Li  Li3  1  0.71690500  0.15890600  0.04525200  1
  Li  Li4  1  0.56400800  0.29373500  0.66806600  1
  Li  Li5  1  0.21690500  0.84109400  0.45474800  1
  Li  Li6  1  0.78309500  0.15890600  0.54525200  1
  Li  Li7  1  0.43599200  0.70626500  0.33193400  1
  Li  Li8  1  0.28309500  0.84109400  0.95474800  1
  Li  Li9  1  0.25628000  0.39152000  0.47923000  1
  Li  Li10  1  0.06400800  0.70626500  0.83193400  1
  Li  Li11  1  0.75628000  0.60848000  0.02077000  1
  Bi  Bi0  1  0.47098400  0.18934400  0.30046100  1
  Bi  Bi1  1  0.02901600  0.18934400  0.80046100  1
  Bi  Bi2  1  0.97098400  0.81065600  0.19953900  1
  Bi  Bi3  1  0.52901600  0.81065600  0.69953900  1
  B  B0  1  0.33556400  0.53912500  0.67528500  1
  B  B1  1  0.83556400  0.46087500  0.82471500  1
  B  B2  1  0.83064200  0.95122100  0.39003200  1
  B  B3  1  0.33064200  0.04877900  0.10996800  1
  B  B4  1  0.66935800  0.95122100  0.89003200  1
  B  B5  1  0.16935800  0.04877900  0.60996800  1
  B  B6  1  0.16443600  0.53912500  0.17528500  1
  B  B7  1  0.66443600  0.46087500  0.32471500  1
  O  O0  1  0.79450200  0.61526000  0.81878400  1
  O  O1  1  0.28831700  0.58039300  0.78733300  1
  O  O2  1  0.43512000  0.66215200  0.55175800  1
  O  O3  1  0.93512000  0.33784800  0.94824200  1
  O  O4  1  0.78831700  0.41960700  0.71266700  1
  O  O5  1  0.72370600  0.99472400  0.48392900  1
  O  O6  1  0.43030500  0.20096400  0.06017700  1
  O  O7  1  0.29450200  0.38474000  0.68121600  1
  O  O8  1  0.82690500  0.06264200  0.24149000  1
  O  O9  1  0.32690500  0.93735800  0.25851000  1
  O  O10  1  0.93030500  0.79903600  0.43982300  1
  O  O11  1  0.22370600  0.00527600  0.01607100  1
  O  O12  1  0.77629400  0.99472400  0.98392900  1
  O  O13  1  0.06969500  0.20096400  0.56017700  1
  O  O14  1  0.67309500  0.06264200  0.74149000  1
  O  O15  1  0.17309500  0.93735800  0.75851000  1
  O  O16  1  0.70549800  0.61526000  0.31878400  1
  O  O17  1  0.56969500  0.79903600  0.93982300  1
  O  O18  1  0.27629400  0.00527600  0.51607100  1
  O  O19  1  0.21168300  0.58039300  0.28733300  1
  O  O20  1  0.06488000  0.66215200  0.05175800  1
  O  O21  1  0.56488000  0.33784800  0.44824200  1
  O  O22  1  0.71168300  0.41960700  0.21266700  1
  O  O23  1  0.20549800  0.38474000  0.18121600  1
loop_
_geom_bond_atom_site_label_1
_geom_bond_atom_site_label_2
_geom_bond_distance
_geom_bond_site_symmetry_2
Li0 O1 1.947955 1_555
Li0 O6 1.951608 1_556
Li0 O23 2.067242 1_556
Li0 O3 2.133719 1_455
Li1 O23 1.974391 1_655
Li1 O8 1.988426 1_555
Li1 O22 2.029819 1_555
Li1 O3 2.110838 1_554
Li2 O4 1.947955 1_555
Li2 O10 1.951608 1_555
Li2 O16 2.067242 1_555
Li2 O2 2.133719 1_555
Li3 O12 1.891950 1_544
Li3 O6 1.932980 1_555
Li3 O8 1.935289 1_555
Li3 O3 2.037011 1_554
Li4 O7 1.974391 1_555
Li4 O14 1.988426 1_555
Li4 O4 2.029819 1_555
Li4 O21 2.110838 1_555
Li5 O18 1.891950 1_565
Li5 O10 1.932980 1_455
Li5 O9 1.935289 1_555
Li5 O2 2.037011 1_555
Li6 O5 1.891950 1_545
Li6 O13 1.932980 1_655
Li6 O14 1.935289 1_555
Li6 O21 2.037011 1_555
Li7 O16 1.974391 1_555
Li7 O9 1.988426 1_555
Li7 O19 2.029819 1_555
Li7 O2 2.110838 1_555
Li8 O11 1.891950 1_566
Li8 O17 1.932980 1_555
Li8 O15 1.935289 1_555
Li8 O20 2.037011 1_556
Li9 O19 1.947955 1_555
Li9 O13 1.951608 1_555
Li9 O7 2.067242 1_555
Li9 O21 2.133719 1_555
Li10 O0 1.974391 1_455
Li10 O15 1.988426 1_555
Li10 O1 2.029819 1_555
Li10 O20 2.110838 1_556
Li11 O22 1.947955 1_555
Li11 O17 1.951608 1_554
Li11 O0 2.067242 1_554
Li11 O20 2.133719 1_655
Bi0 O23 2.373079 1_555
Bi0 O22 2.421581 1_555
Bi0 O18 2.433033 1_555
Bi0 O6 2.441979 1_555
Bi0 O5 2.516370 1_545
Bi0 O21 2.516545 1_555
Bi0 O9 2.664229 1_545
Bi0 O8 2.778824 1_555
Bi1 O7 2.373079 1_555
Bi1 O4 2.421581 1_455
Bi1 O11 2.433033 1_556
Bi1 O13 2.441979 1_555
Bi1 O12 2.516370 1_445
Bi1 O3 2.516545 1_455
Bi1 O15 2.664229 1_545
Bi1 O14 2.778824 1_455
Bi2 O16 2.373079 1_555
Bi2 O19 2.421581 1_655
Bi2 O12 2.433033 1_554
Bi2 O10 2.441979 1_555
Bi2 O11 2.516370 1_665
Bi2 O20 2.516545 1_655
Bi2 O8 2.664229 1_565
Bi2 O9 2.778824 1_655
Bi3 O0 2.373079 1_555
Bi3 O1 2.421581 1_555
Bi3 O5 2.433033 1_555
Bi3 O17 2.441979 1_555
Bi3 O18 2.516370 1_565
Bi3 O2 2.516545 1_555
Bi3 O14 2.664229 1_565
Bi3 O15 2.778824 1_555
B0 O7 1.386590 1_555
B0 O1 1.398404 1_555
B0 O2 1.405283 1_555
B1 O0 1.386590 1_555
B1 O4 1.398404 1_555
B1 O3 1.405283 1_555
B2 O10 1.383984 1_555
B2 O5 1.386728 1_555
B2 O8 1.392056 1_565
B3 O6 1.383984 1_555
B3 O11 1.386728 1_555
B3 O9 1.392056 1_545
B4 O17 1.383984 1_555
B4 O12 1.386728 1_555
B4 O14 1.392056 1_565
B5 O13 1.383984 1_555
B5 O18 1.386728 1_555
B5 O15 1.392056 1_545
B6 O23 1.386590 1_555
B6 O19 1.398404 1_555
B6 O20 1.405283 1_555
B7 O16 1.386590 1_555
B7 O22 1.398404 1_555
B7 O21 1.405283 1_555
