# generated using pymatgen
data_RbS
_symmetry_space_group_name_H-M   'P 1'
_cell_length_a   5.90541855
_cell_length_b   5.90541855
_cell_length_c   4.86277200
_cell_angle_alpha   90.00000000
_cell_angle_beta   90.00000000
_cell_angle_gamma   129.09632137
_symmetry_Int_Tables_number   1
_chemical_formula_structural   RbS
_chemical_formula_sum   'Rb2 S2'
_cell_volume   131.61204173
_cell_formula_units_Z   2
loop_
 _symmetry_equiv_pos_site_id
 _symmetry_equiv_pos_as_xyz
  1  'x, y, z'
loop_
 _atom_site_type_symbol
 _atom_site_label
 _atom_site_symmetry_multiplicity
 _atom_site_fract_x
 _atom_site_fract_y
 _atom_site_fract_z
 _atom_site_occupancy
  Rb  Rb0  1  0.14859500  0.85140500  0.75000000  1
  Rb  Rb1  1  0.85140500  0.14859500  0.25000000  1
  S  S0  1  0.46832400  0.53167600  0.75000000  1
  S  S1  1  0.53167600  0.46832400  0.25000000  1
loop_
_geom_bond_atom_site_label_1
_geom_bond_atom_site_label_2
_geom_bond_distance
_geom_bond_site_symmetry_2
Rb0 S0 3.183837 1_455
Rb0 S0 3.183837 1_565
Rb0 S0 3.409768 1_555
Rb0 S1 3.729228 1_455
Rb0 S1 3.729228 1_456
Rb0 S1 3.729228 1_566
Rb0 S1 3.729228 1_565
Rb1 S1 3.183837 1_545
Rb1 S1 3.183837 1_655
Rb1 S1 3.409768 1_555
Rb1 S0 3.729228 1_655
Rb1 S0 3.729228 1_545
Rb1 S0 3.729228 1_544
Rb1 S0 3.729228 1_654
S0 S1 2.523510 1_556
S0 S1 2.523510 1_555
