# generated using pymatgen
data_Li8VFe7(PO4)12
_symmetry_space_group_name_H-M   'P 1'
_cell_length_a   8.65158100
_cell_length_b   8.76392526
_cell_length_c   12.17788560
_cell_angle_alpha   90.18944002
_cell_angle_beta   90.05692464
_cell_angle_gamma   90.04113512
_symmetry_Int_Tables_number   1
_chemical_formula_structural   Li8VFe7(PO4)12
_chemical_formula_sum   'Li8 V1 Fe7 P12 O48'
_cell_volume   923.34357644
_cell_formula_units_Z   1
loop_
 _symmetry_equiv_pos_site_id
 _symmetry_equiv_pos_as_xyz
  1  'x, y, z'
loop_
 _atom_site_type_symbol
 _atom_site_label
 _atom_site_symmetry_multiplicity
 _atom_site_fract_x
 _atom_site_fract_y
 _atom_site_fract_z
 _atom_site_occupancy
  Li  Li0  1  0.21720700  0.72246300  0.18136600  1
  Li  Li1  1  0.21818300  0.77721400  0.81829200  1
  Li  Li2  1  0.28230800  0.22277900  0.31959800  1
  Li  Li3  1  0.28280400  0.27800300  0.68192900  1
  Li  Li4  1  0.71653100  0.72487700  0.31738300  1
  Li  Li5  1  0.71524400  0.78188600  0.68123800  1
  Li  Li6  1  0.78408200  0.22214900  0.18156600  1
  Li  Li7  1  0.78429600  0.27794600  0.82047200  1
  V  V0  1  0.75389400  0.46154300  0.61060400  1
  Fe  Fe0  1  0.24788800  0.95970400  0.61358100  1
  Fe  Fe1  1  0.24900400  0.54194000  0.38667300  1
  Fe  Fe2  1  0.25112500  0.04100800  0.11304800  1
  Fe  Fe3  1  0.25122900  0.45866700  0.88725300  1
  Fe  Fe4  1  0.74995500  0.54113400  0.11113300  1
  Fe  Fe5  1  0.74845000  0.96075300  0.88794600  1
  Fe  Fe6  1  0.75052100  0.03732100  0.38690200  1
  P  P0  1  0.03961500  0.24865400  0.49859400  1
  P  P1  1  0.10532600  0.39315400  0.14724300  1
  P  P2  1  0.10588500  0.10657600  0.85269700  1
  P  P3  1  0.39590900  0.60377900  0.64614400  1
  P  P4  1  0.39402100  0.89347200  0.35348700  1
  P  P5  1  0.46085100  0.74980200  0.00032300  1
  P  P6  1  0.53977300  0.25050100  0.00059500  1
  P  P7  1  0.60561400  0.39280400  0.35334600  1
  P  P8  1  0.60457900  0.10892600  0.64473900  1
  P  P9  1  0.89483600  0.60757900  0.85008700  1
  P  P10  1  0.89461100  0.89281600  0.14710300  1
  P  P11  1  0.96084400  0.74797300  0.49927700  1
  O  O0  1  0.05486400  0.63839900  0.43033900  1
  O  O1  1  0.05255400  0.85304500  0.57532800  1
  O  O2  1  0.07335400  0.89497800  0.15627100  1
  O  O3  1  0.07251200  0.60371900  0.84073500  1
  O  O4  1  0.14095300  0.16657400  0.58412800  1
  O  O5  1  0.14507400  0.34022000  0.42198100  1
  O  O6  1  0.15488400  0.43372900  0.03011000  1
  O  O7  1  0.15595600  0.06671800  0.96971900  1
  O  O8  1  0.16217900  0.23249300  0.18072600  1
  O  O9  1  0.16222600  0.26790800  0.81946900  1
  O  O10  1  0.17457800  0.51473600  0.22571100  1
  O  O11  1  0.17473800  0.98476400  0.77403700  1
  O  O12  1  0.32565000  0.01495600  0.27468500  1
  O  O13  1  0.32856600  0.48413800  0.72536300  1
  O  O14  1  0.34704400  0.76688700  0.68063500  1
  O  O15  1  0.33691500  0.73256400  0.31994300  1
  O  O16  1  0.34906700  0.56632700  0.52891900  1
  O  O17  1  0.34273900  0.93470400  0.47068400  1
  O  O18  1  0.35203700  0.83719900  0.07983400  1
  O  O19  1  0.35185700  0.66216700  0.92062900  1
  O  O20  1  0.42732800  0.11147500  0.65714500  1
  O  O21  1  0.42868700  0.39384300  0.34926900  1
  O  O22  1  0.44398500  0.14210500  0.07112900  1
  O  O23  1  0.44400000  0.35829800  0.92917800  1
  O  O24  1  0.55679800  0.64229400  0.07191100  1
  O  O25  1  0.55671000  0.85734200  0.92866700  1
  O  O26  1  0.57907900  0.59458100  0.65408400  1
  O  O27  1  0.57247500  0.89519100  0.34366200  1
  O  O28  1  0.64748600  0.33819200  0.08115700  1
  O  O29  1  0.64833100  0.16427700  0.92010900  1
  O  O30  1  0.65453000  0.06895800  0.52902200  1
  O  O31  1  0.66105200  0.43067300  0.47679100  1
  O  O32  1  0.66537500  0.23394300  0.32257300  1
  O  O33  1  0.66576100  0.27643500  0.67385600  1
  O  O34  1  0.67744600  0.51691200  0.28117900  1
  O  O35  1  0.67700400  0.99338900  0.72520700  1
  O  O36  1  0.82594500  0.01376500  0.22623000  1
  O  O37  1  0.82602000  0.48621100  0.76565300  1
  O  O38  1  0.83762200  0.73139500  0.17956900  1
  O  O39  1  0.83547200  0.76714200  0.81688300  1
  O  O40  1  0.84037500  0.56053200  0.96403400  1
  O  O41  1  0.84421900  0.93288900  0.03014900  1
  O  O42  1  0.84852600  0.65120700  0.57848600  1
  O  O43  1  0.84723800  0.83325100  0.42405000  1
  O  O44  1  0.92699100  0.10510100  0.84375000  1
  O  O45  1  0.92631000  0.39587300  0.15583900  1
  O  O46  1  0.94107400  0.14216400  0.43018100  1
  O  O47  1  0.93182000  0.36091600  0.56837200  1
loop_
_geom_bond_atom_site_label_1
_geom_bond_atom_site_label_2
_geom_bond_distance
_geom_bond_site_symmetry_2
Li0 O10 1.935928 1_555
Li0 O18 1.977375 1_555
Li0 O15 1.980846 1_555
Li0 O2 1.983225 1_555
Li1 O11 1.935814 1_555
Li1 O19 1.978464 1_555
Li1 O3 1.993892 1_555
Li1 O14 2.015976 1_555
Li2 O12 1.936971 1_555
Li2 O8 1.986212 1_555
Li2 O21 1.993668 1_555
Li2 O5 2.004930 1_555
Li3 O13 1.921558 1_555
Li3 O20 1.945486 1_555
Li3 O4 1.966203 1_555
Li3 O9 1.976319 1_555
Li4 O34 1.903698 1_555
Li4 O43 1.963560 1_555
Li4 O27 1.970768 1_555
Li4 O38 1.980269 1_555
Li5 O39 1.955888 1_555
Li5 O35 1.956182 1_555
Li5 O26 2.045630 1_555
Li5 O42 2.049953 1_555
Li6 O36 1.941488 1_555
Li6 O45 1.982808 1_555
Li6 O28 1.983204 1_555
Li6 O32 2.004137 1_555
Li7 O29 1.964054 1_555
Li7 O44 1.975827 1_555
Li7 O37 1.978631 1_555
Li7 O33 2.058144 1_555
Fe0 O17 1.936548 1_555
Fe0 O1 1.984938 1_555
Fe0 O11 2.065610 1_555
Fe0 O14 2.065930 1_555
Fe0 O4 2.068225 1_565
Fe0 O20 2.109844 1_565
Fe1 O16 1.946827 1_555
Fe1 O0 1.954318 1_555
Fe1 O15 2.009519 1_555
Fe1 O5 2.030321 1_555
Fe1 O10 2.075554 1_555
Fe1 O21 2.075825 1_555
Fe2 O7 1.943008 1_554
Fe2 O22 1.957601 1_555
Fe2 O8 2.020302 1_555
Fe2 O18 2.028391 1_545
Fe2 O2 2.069691 1_545
Fe2 O12 2.084008 1_555
Fe3 O6 1.942737 1_556
Fe3 O23 1.954294 1_555
Fe3 O9 2.014197 1_555
Fe3 O19 2.023890 1_555
Fe3 O3 2.081695 1_555
Fe3 O13 2.095125 1_555
Fe4 O24 1.951945 1_555
Fe4 O40 1.963267 1_554
Fe4 O38 2.009452 1_555
Fe4 O28 2.018732 1_555
Fe4 O45 2.061724 1_555
Fe4 O34 2.175340 1_555
Fe5 O41 1.935269 1_556
Fe5 O25 1.954869 1_555
Fe5 O29 2.020752 1_565
Fe5 O39 2.046524 1_555
Fe5 O44 2.068663 1_565
Fe5 O35 2.095960 1_555
Fe6 O30 1.939580 1_555
Fe6 O46 1.957745 1_555
Fe6 O43 2.027344 1_545
Fe6 O32 2.033545 1_555
Fe6 O27 2.047658 1_545
Fe6 O36 2.072907 1_555
O0 P11 1.511875 1_455
O1 P11 1.525477 1_455
O2 P10 1.550422 1_455
O3 P9 1.541891 1_455
O4 P0 1.541149 1_555
O5 P0 1.533777 1_555
O6 P1 1.532755 1_555
O7 P2 1.530625 1_555
O8 P1 1.547615 1_555
O9 P2 1.550367 1_555
O10 P1 1.548764 1_555
O11 P2 1.551577 1_565
O12 P4 1.552699 1_545
O13 P3 1.541580 1_555
O14 P3 1.547828 1_555
O15 P4 1.547376 1_555
O16 P3 1.518365 1_555
O17 P4 1.537020 1_555
O18 P5 1.551910 1_555
O19 P5 1.553432 1_556
O20 P8 1.541245 1_555
O21 P7 1.531489 1_555
O22 P6 1.527321 1_555
O23 P6 1.529896 1_556
O24 P5 1.530332 1_555
O25 P5 1.530772 1_556
O26 P3 1.589680 1_555
O26 V0 1.981727 1_555
O27 P4 1.548723 1_555
O28 P6 1.553612 1_555
O29 P6 1.552984 1_556
O30 P8 1.514406 1_555
O31 P7 1.610942 1_555
O31 V0 1.835213 1_555
O32 P7 1.531036 1_555
O33 P8 1.598784 1_555
O33 V0 1.952982 1_555
O34 P7 1.532333 1_555
O35 P8 1.544152 1_565
O36 P10 1.549292 1_545
O37 P9 1.591769 1_555
O37 V0 1.999016 1_555
O38 P10 1.550425 1_555
O39 P9 1.545042 1_555
O40 P9 1.523923 1_555
O41 P10 1.531077 1_555
O42 P11 1.612446 1_555
O42 V0 1.894511 1_555
O43 P11 1.538714 1_555
O44 P2 1.551480 1_655
O45 P1 1.552603 1_655
O46 P0 1.511361 1_655
O47 P0 1.599108 1_655
O47 V0 1.847247 1_555
