# generated using pymatgen
data_LiP4WO12
_symmetry_space_group_name_H-M   'P 1'
_cell_length_a   14.03783000
_cell_length_b   5.34034800
_cell_length_c   7.39221431
_cell_angle_alpha   84.03018193
_cell_angle_beta   90.00000000
_cell_angle_gamma   90.00000000
_symmetry_Int_Tables_number   1
_chemical_formula_structural   LiP4WO12
_chemical_formula_sum   'Li2 P8 W2 O24'
_cell_volume   551.16600029
_cell_formula_units_Z   2
loop_
 _symmetry_equiv_pos_site_id
 _symmetry_equiv_pos_as_xyz
  1  'x, y, z'
loop_
 _atom_site_type_symbol
 _atom_site_label
 _atom_site_symmetry_multiplicity
 _atom_site_fract_x
 _atom_site_fract_y
 _atom_site_fract_z
 _atom_site_occupancy
  Li  Li0  1  0.00996000  0.37447300  0.10328000  1
  Li  Li1  1  0.50996000  0.62552700  0.89672000  1
  P  P0  1  0.09514900  0.96620400  0.55876100  1
  P  P1  1  0.37873300  0.00755800  0.44513300  1
  P  P2  1  0.67255500  0.86393700  0.09745400  1
  P  P3  1  0.31960100  0.78513800  0.10836100  1
  P  P4  1  0.81960100  0.21486200  0.89163900  1
  P  P5  1  0.17255500  0.13606300  0.90254600  1
  P  P6  1  0.87873300  0.99244200  0.55486700  1
  P  P7  1  0.59514900  0.03379600  0.44123900  1
  W  W0  1  0.23586900  0.48800900  0.50549700  1
  W  W1  1  0.73586900  0.51199100  0.49450300  1
  O  O0  1  0.26200000  0.95388600  0.95319300  1
  O  O1  1  0.10908300  0.96418200  0.77499800  1
  O  O2  1  0.86246300  0.99913300  0.76940600  1
  O  O3  1  0.61438200  0.82208400  0.93651700  1
  O  O4  1  0.48867500  0.93101700  0.47740000  1
  O  O5  1  0.65721800  0.84064200  0.54554000  1
  O  O6  1  0.32357100  0.80470900  0.55625700  1
  O  O7  1  0.10255900  0.70021800  0.51026100  1
  O  O8  1  0.86658700  0.72710600  0.50802600  1
  O  O9  1  0.25053400  0.62142900  0.22314800  1
  O  O10  1  0.71101200  0.63703300  0.21292800  1
  O  O11  1  0.39919900  0.66345600  0.01952500  1
  O  O12  1  0.89919900  0.33654400  0.98047500  1
  O  O13  1  0.21101200  0.36296700  0.78707200  1
  O  O14  1  0.75053500  0.37857100  0.77685200  1
  O  O15  1  0.36658700  0.27289400  0.49197400  1
  O  O16  1  0.60255900  0.29978200  0.48973900  1
  O  O17  1  0.82357100  0.19529100  0.44374300  1
  O  O18  1  0.15721800  0.15935800  0.45446000  1
  O  O19  1  0.98867500  0.06898300  0.52260000  1
  O  O20  1  0.11438200  0.17791600  0.06348300  1
  O  O21  1  0.36246300  0.00086700  0.23059400  1
  O  O22  1  0.60908300  0.03581800  0.22500200  1
  O  O23  1  0.76200000  0.04611400  0.04680700  1
loop_
_geom_bond_atom_site_label_1
_geom_bond_atom_site_label_2
_geom_bond_distance
_geom_bond_site_symmetry_2
Li0 O12 1.822339 1_454
Li0 O20 1.844276 1_555
Li1 O11 1.822339 1_556
Li1 O3 1.844276 1_555
O0 P3 1.602065 1_556
O0 P5 1.608565 1_565
O1 P0 1.609315 1_555
O1 P5 1.644828 1_565
O2 P6 1.606352 1_555
O2 P4 1.649929 1_565
O3 P2 1.479013 1_556
O4 P7 1.605061 1_565
O4 P1 1.607985 1_565
O5 P7 1.500744 1_565
O5 W1 2.139977 1_555
O6 P1 1.504265 1_565
O6 W0 2.156149 1_555
O7 P0 1.504324 1_555
O7 W0 2.189958 1_555
O8 P6 1.502956 1_555
O8 W1 2.172743 1_555
O9 P3 1.506671 1_555
O9 W0 2.144073 1_555
O10 P2 1.507734 1_555
O10 W1 2.147333 1_555
O11 P3 1.480145 1_555
O12 P4 1.480145 1_555
O13 P5 1.507734 1_555
O13 W0 2.147333 1_555
O14 P4 1.506662 1_555
O14 W1 2.144075 1_555
O15 P1 1.502956 1_555
O15 W0 2.172743 1_555
O16 P7 1.504324 1_555
O16 W1 2.189958 1_555
O17 P6 1.504265 1_545
O17 W1 2.156149 1_555
O18 P0 1.500744 1_545
O18 W0 2.139977 1_555
O19 P0 1.605061 1_645
O19 P6 1.607985 1_545
O20 P5 1.479013 1_554
O21 P1 1.606352 1_555
O21 P3 1.649929 1_545
O22 P7 1.609315 1_555
O22 P2 1.644828 1_545
O23 P4 1.602065 1_554
O23 P2 1.608565 1_545
