# generated using pymatgen
data_Li4Mn2Co3Ni3O16
_symmetry_space_group_name_H-M   'P 1'
_cell_length_a   5.69437258
_cell_length_b   5.66031604
_cell_length_c   9.13704890
_cell_angle_alpha   90.00578124
_cell_angle_beta   90.77873724
_cell_angle_gamma   119.77392821
_symmetry_Int_Tables_number   1
_chemical_formula_structural   Li4Mn2Co3Ni3O16
_chemical_formula_sum   'Li4 Mn2 Co3 Ni3 O16'
_cell_volume   255.59617077
_cell_formula_units_Z   1
loop_
 _symmetry_equiv_pos_site_id
 _symmetry_equiv_pos_as_xyz
  1  'x, y, z'
loop_
 _atom_site_type_symbol
 _atom_site_label
 _atom_site_symmetry_multiplicity
 _atom_site_fract_x
 _atom_site_fract_y
 _atom_site_fract_z
 _atom_site_occupancy
  Li  Li0  1  0.32523600  0.66249000  0.89582000  1
  Li  Li1  1  0.00163700  0.00045300  0.99588600  1
  Li  Li2  1  0.00613200  0.00318600  0.49679400  1
  Li  Li3  1  0.67002000  0.33489200  0.39487700  1
  Mn  Mn0  1  0.33570900  0.66775800  0.48887400  1
  Mn  Mn1  1  0.66046300  0.32998700  0.99074000  1
  Co  Co0  1  0.17004400  0.83027400  0.21408600  1
  Co  Co1  1  0.17011300  0.33979600  0.21415300  1
  Co  Co2  1  0.34246000  0.17125500  0.71515800  1
  Ni  Ni0  1  0.66088800  0.83055100  0.21382000  1
  Ni  Ni1  1  0.82882800  0.65989100  0.71359600  1
  Ni  Ni2  1  0.82860300  0.16882300  0.71359600  1
  O  O0  1  0.17453800  0.83582200  0.59642200  1
  O  O1  1  0.04280300  0.52157900  0.33821100  1
  O  O2  1  0.32990900  0.66489300  0.11225700  1
  O  O3  1  0.00333300  0.00180200  0.30487300  1
  O  O4  1  0.00567900  0.00295700  0.80338600  1
  O  O5  1  0.17493100  0.33949100  0.59636400  1
  O  O6  1  0.47907800  0.95879600  0.33981500  1
  O  O7  1  0.47946100  0.52074500  0.33986900  1
  O  O8  1  0.33398600  0.16699000  0.10032800  1
  O  O9  1  0.67357600  0.83703600  0.59363700  1
  O  O10  1  0.51249800  0.47461700  0.84318300  1
  O  O11  1  0.51221400  0.03759300  0.84333300  1
  O  O12  1  0.65847600  0.32923700  0.61290200  1
  O  O13  1  0.83394000  0.66917300  0.09621400  1
  O  O14  1  0.95133500  0.47547000  0.84343100  1
  O  O15  1  0.83411000  0.16474400  0.09621800  1
loop_
_geom_bond_atom_site_label_1
_geom_bond_atom_site_label_2
_geom_bond_distance
_geom_bond_site_symmetry_2
Li0 O14 1.901759 1_455
Li0 O10 1.907695 1_555
Li0 O11 1.908021 1_565
Li0 O2 1.977367 1_556
Li1 O4 1.759312 1_555
Li1 O13 1.874614 1_446
Li1 O15 1.876138 1_456
Li1 O8 1.886754 1_556
Li2 O3 1.753429 1_555
Li2 O0 1.877340 1_545
Li2 O9 1.878959 1_445
Li2 O5 1.879875 1_555
Li3 O6 1.911361 1_545
Li3 O7 1.912005 1_555
Li3 O1 1.921726 1_655
Li3 O12 1.993818 1_555
Mn0 O5 1.894893 1_555
Mn0 O0 1.898506 1_555
Mn0 O9 1.911759 1_555
Mn0 O7 1.980579 1_555
Mn0 O1 1.982012 1_555
Mn0 O6 1.982480 1_555
Mn1 O8 1.912415 1_556
Mn1 O15 1.916827 1_556
Mn1 O13 1.918534 1_556
Mn1 O11 1.961352 1_555
Mn1 O10 1.962713 1_555
Mn1 O14 1.984790 1_555
Co0 O2 1.854687 1_555
Co0 O3 1.862415 1_565
Co0 O6 1.902404 1_555
Co0 O1 1.905181 1_555
Co0 O8 1.960638 1_565
Co0 O13 1.965945 1_455
Co1 O2 1.855092 1_555
Co1 O3 1.861830 1_555
Co1 O7 1.903788 1_555
Co1 O1 1.905807 1_555
Co1 O8 1.960066 1_555
Co1 O15 1.965876 1_455
Co2 O12 1.832634 1_555
Co2 O4 1.860894 1_555
Co2 O10 1.889965 1_555
Co2 O11 1.890529 1_555
Co2 O0 1.965840 1_545
Co2 O5 1.967058 1_555
Ni0 O2 1.868067 1_555
Ni0 O3 1.874235 1_665
Ni0 O7 1.924153 1_555
Ni0 O6 1.924241 1_555
Ni0 O15 1.970274 1_565
Ni0 O13 1.970461 1_555
Ni1 O12 1.860821 1_555
Ni1 O4 1.868986 1_665
Ni1 O14 1.919543 1_555
Ni1 O9 1.960256 1_555
Ni1 O10 1.982055 1_555
Ni1 O0 2.030722 1_655
Ni2 O12 1.859839 1_555
Ni2 O4 1.867925 1_655
Ni2 O14 1.918533 1_555
Ni2 O9 1.958157 1_545
Ni2 O11 1.982922 1_555
Ni2 O5 2.033564 1_655
