# generated using pymatgen
data_NaCu(PO3)3
_symmetry_space_group_name_H-M   'P 1'
_cell_length_a   9.71176300
_cell_length_b   9.72647764
_cell_length_c   9.78764975
_cell_angle_alpha   106.83429997
_cell_angle_beta   105.57775646
_cell_angle_gamma   111.87050417
_symmetry_Int_Tables_number   1
_chemical_formula_structural   NaCu(PO3)3
_chemical_formula_sum   'Na4 Cu4 P12 O36'
_cell_volume   743.85294086
_cell_formula_units_Z   4
loop_
 _symmetry_equiv_pos_site_id
 _symmetry_equiv_pos_as_xyz
  1  'x, y, z'
loop_
 _atom_site_type_symbol
 _atom_site_label
 _atom_site_symmetry_multiplicity
 _atom_site_fract_x
 _atom_site_fract_y
 _atom_site_fract_z
 _atom_site_occupancy
  Na  Na0  1  0.93362300  0.34425000  0.50631400  1
  Na  Na1  1  0.17170800  0.37998400  0.31459500  1
  Na  Na2  1  0.82829200  0.62001600  0.68540500  1
  Na  Na3  1  0.06637700  0.65575000  0.49368600  1
  Cu  Cu0  1  0.23204800  0.74597900  0.27591600  1
  Cu  Cu1  1  0.29409500  0.10246300  0.21278300  1
  Cu  Cu2  1  0.70590500  0.89753700  0.78721700  1
  Cu  Cu3  1  0.76795200  0.25402100  0.72408400  1
  P  P0  1  0.91645200  0.81644400  0.08120900  1
  P  P1  1  0.85108000  0.48968100  0.09830200  1
  P  P2  1  0.60100500  0.98394500  0.35188900  1
  P  P3  1  0.78200500  0.04001900  0.15355000  1
  P  P4  1  0.65673600  0.42472500  0.29000800  1
  P  P5  1  0.56815300  0.68917700  0.40924700  1
  P  P6  1  0.43184700  0.31082300  0.59075300  1
  P  P7  1  0.34326400  0.57527500  0.70999200  1
  P  P8  1  0.21799500  0.95998100  0.84645000  1
  P  P9  1  0.39899500  0.01605500  0.64811100  1
  P  P10  1  0.14892000  0.51031900  0.90169800  1
  P  P11  1  0.08354800  0.18355600  0.91879100  1
  O  O0  1  0.27736600  0.97332800  0.01053900  1
  O  O1  1  0.82576500  0.63815300  0.08070800  1
  O  O2  1  0.82120000  0.89394100  0.16099300  1
  O  O3  1  0.62570100  0.98880500  0.19814700  1
  O  O4  1  0.70191300  0.40102900  0.13940100  1
  O  O5  1  0.17910700  0.63393100  0.05404700  1
  O  O6  1  0.09613000  0.90430800  0.19388000  1
  O  O7  1  0.42532600  0.94157100  0.31755600  1
  O  O8  1  0.63665900  0.83896600  0.36222500  1
  O  O9  1  0.60908500  0.56829700  0.29544700  1
  O  O10  1  0.91858600  0.20194000  0.28059900  1
  O  O11  1  0.13075100  0.20117800  0.08409000  1
  O  O12  1  0.51132200  0.26710100  0.24768600  1
  O  O13  1  0.80712200  0.48855700  0.43527100  1
  O  O14  1  0.38715900  0.61741300  0.35693300  1
  O  O15  1  0.01533800  0.56056100  0.23677600  1
  O  O16  1  0.67884400  0.74569900  0.57952200  1
  O  O17  1  0.27129000  0.85804900  0.50294400  1
  O  O18  1  0.72871000  0.14195100  0.49705600  1
  O  O19  1  0.32115600  0.25430100  0.42047800  1
  O  O20  1  0.98466200  0.43943900  0.76322400  1
  O  O21  1  0.61284100  0.38258700  0.64306700  1
  O  O22  1  0.19287800  0.51144300  0.56472900  1
  O  O23  1  0.48867800  0.73289900  0.75231400  1
  O  O24  1  0.86924900  0.79882200  0.91591000  1
  O  O25  1  0.08141400  0.79806000  0.71940100  1
  O  O26  1  0.39091500  0.43170300  0.70455300  1
  O  O27  1  0.36334100  0.16103400  0.63777500  1
  O  O28  1  0.57467400  0.05842900  0.68244400  1
  O  O29  1  0.90387000  0.09569200  0.80612000  1
  O  O30  1  0.82089300  0.36606900  0.94595300  1
  O  O31  1  0.29808700  0.59897100  0.86059900  1
  O  O32  1  0.37429900  0.01119500  0.80185300  1
  O  O33  1  0.17880000  0.10605900  0.83900700  1
  O  O34  1  0.17423500  0.36184700  0.91929200  1
  O  O35  1  0.72263400  0.02667200  0.98946100  1
loop_
_geom_bond_atom_site_label_1
_geom_bond_atom_site_label_2
_geom_bond_distance
_geom_bond_site_symmetry_2
Na0 O18 2.173200 1_555
Na0 O10 2.173211 1_555
Na0 O22 2.224561 1_655
Na0 O20 2.250786 1_555
Na0 O13 2.313895 1_555
Na1 O11 2.236704 1_555
Na1 O10 2.282107 1_455
Na1 O14 2.294120 1_555
Na1 O22 2.321988 1_555
Na1 O19 2.433673 1_555
Na1 O15 2.848160 1_555
Na2 O24 2.236704 1_555
Na2 O25 2.282107 1_655
Na2 O21 2.294120 1_555
Na2 O13 2.321988 1_555
Na2 O16 2.433673 1_555
Na2 O20 2.848160 1_555
Na3 O17 2.173200 1_555
Na3 O25 2.173211 1_555
Na3 O13 2.224561 1_455
Na3 O15 2.250786 1_555
Na3 O22 2.313895 1_555
Cu0 O5 1.944198 1_555
Cu0 O7 1.946350 1_555
Cu0 O17 2.025775 1_555
Cu0 O15 2.041495 1_555
Cu0 O14 2.407899 1_555
Cu0 O6 2.533788 1_555
Cu1 O0 1.938439 1_545
Cu1 O12 1.977583 1_555
Cu1 O19 2.016829 1_555
Cu1 O6 2.070506 1_545
Cu1 O11 2.405635 1_555
Cu1 O7 2.615021 1_545
Cu2 O35 1.938439 1_565
Cu2 O23 1.977583 1_555
Cu2 O16 2.016829 1_555
Cu2 O29 2.070506 1_565
Cu2 O24 2.405635 1_555
Cu2 O28 2.615021 1_565
Cu3 O30 1.944198 1_555
Cu3 O28 1.946350 1_555
Cu3 O18 2.025775 1_555
Cu3 O20 2.041495 1_555
Cu3 O21 2.407899 1_555
Cu3 O29 2.533788 1_555
O0 P8 1.501599 1_554
O1 P1 1.600425 1_555
O1 P0 1.624143 1_555
O2 P0 1.612534 1_555
O2 P3 1.617696 1_565
O3 P2 1.597089 1_555
O3 P3 1.631385 1_565
O4 P1 1.608489 1_555
O4 P4 1.626185 1_555
O5 P10 1.489691 1_554
O6 P0 1.516910 1_455
O7 P2 1.510531 1_555
O8 P2 1.595683 1_555
O8 P5 1.614853 1_555
O9 P5 1.615087 1_555
O9 P4 1.618241 1_555
O10 P3 1.486446 1_555
O11 P11 1.496525 1_554
O12 P4 1.490421 1_555
O13 P4 1.495959 1_555
O14 P5 1.494873 1_555
O15 P1 1.528137 1_455
O16 P5 1.517287 1_555
O17 P9 1.512482 1_565
O18 P2 1.512482 1_545
O19 P6 1.517287 1_555
O20 P10 1.528137 1_655
O21 P6 1.494873 1_555
O22 P7 1.495959 1_555
O23 P7 1.490421 1_555
O24 P0 1.496525 1_556
O25 P8 1.486446 1_555
O26 P6 1.615087 1_555
O26 P7 1.618241 1_555
O27 P9 1.595683 1_555
O27 P6 1.614853 1_555
O28 P9 1.510531 1_555
O29 P11 1.516910 1_655
O30 P1 1.489691 1_556
O31 P10 1.608489 1_555
O31 P7 1.626185 1_555
O32 P9 1.597089 1_555
O32 P8 1.631385 1_545
O33 P11 1.612534 1_555
O33 P8 1.617696 1_545
O34 P10 1.600425 1_555
O34 P11 1.624143 1_555
O35 P3 1.501599 1_556
