# generated using pymatgen
data_Li2Ni3BiO8
_symmetry_space_group_name_H-M   'P 1'
_cell_length_a   5.89751783
_cell_length_b   5.89751742
_cell_length_c   6.14667739
_cell_angle_alpha   61.33209722
_cell_angle_beta   118.66790961
_cell_angle_gamma   119.99999973
_symmetry_Int_Tables_number   1
_chemical_formula_structural   Li2Ni3BiO8
_chemical_formula_sum   'Li2 Ni3 Bi1 O8'
_cell_volume   154.14197243
_cell_formula_units_Z   1
loop_
 _symmetry_equiv_pos_site_id
 _symmetry_equiv_pos_as_xyz
  1  'x, y, z'
loop_
 _atom_site_type_symbol
 _atom_site_label
 _atom_site_symmetry_multiplicity
 _atom_site_fract_x
 _atom_site_fract_y
 _atom_site_fract_z
 _atom_site_occupancy
  Li  Li0  1  0.87899000  0.12101000  0.63697100  1
  Li  Li1  1  0.12101000  0.87899000  0.36302900  1
  Ni  Ni0  1  0.50000000  0.50000000  0.00000000  1
  Ni  Ni1  1  0.50000000  0.00000000  0.00000000  1
  Ni  Ni2  1  0.00000000  0.50000000  0.00000000  1
  Bi  Bi0  1  0.50000000  0.50000000  0.50000000  1
  O  O0  1  0.74825100  0.72292800  0.77357300  1
  O  O1  1  0.74825100  0.25174900  0.77357300  1
  O  O2  1  0.27116300  0.72883700  0.81349000  1
  O  O3  1  0.27707200  0.25174900  0.77357300  1
  O  O4  1  0.72292800  0.74825100  0.22642700  1
  O  O5  1  0.72883700  0.27116300  0.18651000  1
  O  O6  1  0.25174900  0.74825100  0.22642700  1
  O  O7  1  0.25174900  0.27707200  0.22642700  1
loop_
_geom_bond_atom_site_label_1
_geom_bond_atom_site_label_2
_geom_bond_distance
_geom_bond_site_symmetry_2
Li0 O1 1.931530 1_555
Li0 O3 1.931540 1_655
Li0 O0 1.931540 1_545
Li0 O5 2.305202 1_555
Li1 O6 1.931530 1_555
Li1 O4 1.931540 1_455
Li1 O7 1.931540 1_565
Li1 O2 2.305202 1_555
Ni0 O5 1.951764 1_555
Ni0 O2 1.951764 1_554
Ni0 O4 2.020792 1_555
Ni0 O3 2.020792 1_554
Ni0 O7 2.020792 1_555
Ni0 O0 2.020792 1_554
Ni1 O5 1.951759 1_555
Ni1 O2 1.951759 1_544
Ni1 O4 2.020788 1_545
Ni1 O3 2.020788 1_554
Ni1 O6 2.020792 1_545
Ni1 O1 2.020792 1_554
Ni2 O2 1.951760 1_554
Ni2 O5 1.951760 1_455
Ni2 O0 2.020788 1_454
Ni2 O7 2.020788 1_555
Ni2 O6 2.020792 1_555
Ni2 O1 2.020792 1_454
Bi0 O7 2.129284 1_555
Bi0 O0 2.129284 1_555
Bi0 O3 2.129284 1_555
Bi0 O4 2.129284 1_555
Bi0 O6 2.129288 1_555
Bi0 O1 2.129288 1_555
