# generated using pymatgen
data_Li2Ti2O5
_symmetry_space_group_name_H-M   'P 1'
_cell_length_a   5.31635100
_cell_length_b   8.60759800
_cell_length_c   11.72289600
_cell_angle_alpha   67.48159456
_cell_angle_beta   90.00000000
_cell_angle_gamma   90.00000000
_symmetry_Int_Tables_number   1
_chemical_formula_structural   Li2Ti2O5
_chemical_formula_sum   'Li8 Ti8 O20'
_cell_volume   495.55066911
_cell_formula_units_Z   4
loop_
 _symmetry_equiv_pos_site_id
 _symmetry_equiv_pos_as_xyz
  1  'x, y, z'
loop_
 _atom_site_type_symbol
 _atom_site_label
 _atom_site_symmetry_multiplicity
 _atom_site_fract_x
 _atom_site_fract_y
 _atom_site_fract_z
 _atom_site_occupancy
  Li  Li0  1  0.17105100  0.10126500  0.01526400  1
  Li  Li1  1  0.34238500  0.90559600  0.30956000  1
  Li  Li2  1  0.84238500  0.09440400  0.19044000  1
  Li  Li3  1  0.67105100  0.89873500  0.48473600  1
  Li  Li4  1  0.32894900  0.10126500  0.51526400  1
  Li  Li5  1  0.15761500  0.90559600  0.80956000  1
  Li  Li6  1  0.65761500  0.09440400  0.69044000  1
  Li  Li7  1  0.82894900  0.89873500  0.98473600  1
  Ti  Ti0  1  0.66712600  0.28291500  0.88642900  1
  Ti  Ti1  1  0.83586000  0.70331600  0.28674300  1
  Ti  Ti2  1  0.16712600  0.71708500  0.61357100  1
  Ti  Ti3  1  0.66414000  0.70331600  0.78674300  1
  Ti  Ti4  1  0.33586000  0.29668400  0.21325700  1
  Ti  Ti5  1  0.83287400  0.28291500  0.38642900  1
  Ti  Ti6  1  0.16414000  0.29668400  0.71325700  1
  Ti  Ti7  1  0.33287400  0.71708500  0.11357100  1
  O  O0  1  0.78613400  0.11407100  0.01540500  1
  O  O1  1  0.32182700  0.26630100  0.86207000  1
  O  O2  1  0.17913700  0.73416600  0.25154800  1
  O  O3  1  0.22952500  0.51296800  0.60395500  1
  O  O4  1  0.72952500  0.48703200  0.89604500  1
  O  O5  1  0.72934000  0.86886900  0.32847100  1
  O  O6  1  0.82182700  0.73369900  0.63793000  1
  O  O7  1  0.28613400  0.88592900  0.48459500  1
  O  O8  1  0.22934000  0.13113100  0.17152900  1
  O  O9  1  0.32086300  0.73416600  0.75154800  1
  O  O10  1  0.67913700  0.26583400  0.24845200  1
  O  O11  1  0.77066000  0.86886900  0.82847100  1
  O  O12  1  0.71386600  0.11407100  0.51540500  1
  O  O13  1  0.17817300  0.26630100  0.36207000  1
  O  O14  1  0.27066000  0.13113100  0.67152900  1
  O  O15  1  0.27047500  0.51296800  0.10395500  1
  O  O16  1  0.77047500  0.48703200  0.39604500  1
  O  O17  1  0.82086300  0.26583400  0.74845200  1
  O  O18  1  0.67817300  0.73369900  0.13793000  1
  O  O19  1  0.21386600  0.88592900  0.98459500  1
loop_
_geom_bond_atom_site_label_1
_geom_bond_atom_site_label_2
_geom_bond_distance
_geom_bond_site_symmetry_2
Li0 O8 1.969418 1_555
Li0 O1 1.982831 1_554
Li0 O19 2.031518 1_544
Li0 O0 2.049355 1_455
Li1 O7 2.015537 1_555
Li1 O2 2.040039 1_555
Li1 O5 2.080248 1_555
Li1 O8 2.083773 1_565
Li2 O0 2.015537 1_555
Li2 O10 2.040039 1_555
Li2 O8 2.080248 1_655
Li2 O5 2.083773 1_545
Li3 O5 1.969418 1_555
Li3 O6 1.982831 1_555
Li3 O12 2.031518 1_565
Li3 O7 2.049355 1_555
Li4 O14 1.969418 1_555
Li4 O13 1.982831 1_555
Li4 O7 2.031518 1_545
Li4 O12 2.049355 1_555
Li5 O19 2.015537 1_555
Li5 O9 2.040039 1_555
Li5 O11 2.080248 1_455
Li5 O14 2.083773 1_565
Li6 O12 2.015537 1_555
Li6 O17 2.040039 1_555
Li6 O14 2.080248 1_555
Li6 O11 2.083773 1_545
Li7 O11 1.969418 1_555
Li7 O18 1.982831 1_556
Li7 O0 2.031518 1_566
Li7 O19 2.049355 1_655
O0 Ti0 1.765057 1_554
O1 Ti6 1.861468 1_555
O1 Ti0 1.871679 1_555
O2 Ti1 1.867453 1_455
O2 Ti7 1.867634 1_555
O3 Ti2 1.833401 1_555
O3 Ti6 1.844281 1_555
O4 Ti0 1.833401 1_555
O4 Ti3 1.844281 1_555
O5 Ti1 1.767649 1_555
O6 Ti3 1.861468 1_555
O6 Ti2 1.871679 1_655
O7 Ti2 1.765057 1_555
O8 Ti4 1.767649 1_555
O9 Ti3 1.867453 1_555
O9 Ti2 1.867634 1_555
O10 Ti4 1.867453 1_555
O10 Ti5 1.867634 1_555
O11 Ti3 1.767649 1_555
O12 Ti5 1.765057 1_555
O13 Ti4 1.861468 1_555
O13 Ti5 1.871679 1_455
O14 Ti6 1.767649 1_555
O15 Ti7 1.833401 1_555
O15 Ti4 1.844281 1_555
O16 Ti5 1.833401 1_555
O16 Ti1 1.844281 1_555
O17 Ti6 1.867453 1_655
O17 Ti0 1.867634 1_555
O18 Ti1 1.861468 1_555
O18 Ti7 1.871679 1_555
O19 Ti7 1.765057 1_556
