# generated using pymatgen
data_Ca5MnO6
_symmetry_space_group_name_H-M   'P 1'
_cell_length_a   5.85102301
_cell_length_b   6.76317796
_cell_length_c   16.51610080
_cell_angle_alpha   90.00000000
_cell_angle_beta   89.88780378
_cell_angle_gamma   90.00000000
_symmetry_Int_Tables_number   1
_chemical_formula_structural   Ca5MnO6
_chemical_formula_sum   'Ca20 Mn4 O24'
_cell_volume   653.56579357
_cell_formula_units_Z   4
loop_
 _symmetry_equiv_pos_site_id
 _symmetry_equiv_pos_as_xyz
  1  'x, y, z'
loop_
 _atom_site_type_symbol
 _atom_site_label
 _atom_site_symmetry_multiplicity
 _atom_site_fract_x
 _atom_site_fract_y
 _atom_site_fract_z
 _atom_site_occupancy
  Ca  Ca0  1  0.50000000  0.25000000  0.00000000  1
  Ca  Ca1  1  0.00000000  0.50000000  0.50000000  1
  Ca  Ca2  1  0.50000000  0.75000000  0.00000000  1
  Ca  Ca3  1  0.00000000  0.00000000  0.50000000  1
  Ca  Ca4  1  0.83124100  0.25000000  0.33470700  1
  Ca  Ca5  1  0.33124100  0.50000000  0.83470700  1
  Ca  Ca6  1  0.83124100  0.75000000  0.33470700  1
  Ca  Ca7  1  0.33124100  0.00000000  0.83470700  1
  Ca  Ca8  1  0.66875900  0.50000000  0.16529300  1
  Ca  Ca9  1  0.16875900  0.75000000  0.66529300  1
  Ca  Ca10  1  0.66875900  0.00000000  0.16529300  1
  Ca  Ca11  1  0.16875900  0.25000000  0.66529300  1
  Ca  Ca12  1  0.33505200  0.50000000  0.33536500  1
  Ca  Ca13  1  0.83505200  0.75000000  0.83536500  1
  Ca  Ca14  1  0.33505200  0.00000000  0.33536500  1
  Ca  Ca15  1  0.83505200  0.25000000  0.83536500  1
  Ca  Ca16  1  0.16494800  0.25000000  0.16463500  1
  Ca  Ca17  1  0.66494800  0.50000000  0.66463500  1
  Ca  Ca18  1  0.16494800  0.75000000  0.16463500  1
  Ca  Ca19  1  0.66494800  0.00000000  0.66463500  1
  Mn  Mn0  1  0.00000000  0.50000000  0.00000000  1
  Mn  Mn1  1  0.50000000  0.75000000  0.50000000  1
  Mn  Mn2  1  0.00000000  0.00000000  0.00000000  1
  Mn  Mn3  1  0.50000000  0.25000000  0.50000000  1
  O  O0  1  0.17142600  0.25000000  0.41793800  1
  O  O1  1  0.67142600  0.50000000  0.91793800  1
  O  O2  1  0.17142600  0.75000000  0.41793800  1
  O  O3  1  0.67142600  0.00000000  0.91793800  1
  O  O4  1  0.32857400  0.50000000  0.08206200  1
  O  O5  1  0.82857400  0.75000000  0.58206200  1
  O  O6  1  0.32857400  0.00000000  0.08206200  1
  O  O7  1  0.82857400  0.25000000  0.58206200  1
  O  O8  1  0.66052400  0.50000000  0.42031900  1
  O  O9  1  0.16052400  0.75000000  0.92031900  1
  O  O10  1  0.66052400  0.00000000  0.42031900  1
  O  O11  1  0.16052400  0.25000000  0.92031900  1
  O  O12  1  0.83947600  0.25000000  0.07968100  1
  O  O13  1  0.33947600  0.50000000  0.57968100  1
  O  O14  1  0.83947600  0.75000000  0.07968100  1
  O  O15  1  0.33947600  0.00000000  0.57968100  1
  O  O16  1  0.99697800  0.50000000  0.25089000  1
  O  O17  1  0.49697800  0.75000000  0.75089000  1
  O  O18  1  0.99697800  0.00000000  0.25089000  1
  O  O19  1  0.49697800  0.25000000  0.75089000  1
  O  O20  1  0.50302200  0.25000000  0.24911000  1
  O  O21  1  0.00302200  0.50000000  0.74911000  1
  O  O22  1  0.50302200  0.75000000  0.24911000  1
  O  O23  1  0.00302200  0.00000000  0.74911000  1
loop_
_geom_bond_atom_site_label_1
_geom_bond_atom_site_label_2
_geom_bond_distance
_geom_bond_site_symmetry_2
Ca0 O11 2.384840 1_554
Ca0 O12 2.384840 1_555
Ca0 O3 2.386727 1_554
Ca0 O1 2.386727 1_554
Ca0 O6 2.386727 1_555
Ca0 O4 2.386727 1_555
Ca1 O8 2.384840 1_455
Ca1 O13 2.384840 1_555
Ca1 O5 2.386727 1_455
Ca1 O7 2.386727 1_455
Ca1 O0 2.386727 1_555
Ca1 O2 2.386727 1_555
Ca2 O14 2.384840 1_555
Ca2 O9 2.384840 1_554
Ca2 O3 2.386727 1_564
Ca2 O1 2.386727 1_554
Ca2 O6 2.386727 1_565
Ca2 O4 2.386727 1_555
Ca3 O15 2.384840 1_555
Ca3 O10 2.384840 1_455
Ca3 O7 2.386727 1_455
Ca3 O5 2.386727 1_445
Ca3 O0 2.386727 1_555
Ca3 O2 2.386727 1_545
Ca4 O20 2.386894 1_555
Ca4 O16 2.389618 1_555
Ca4 O18 2.389618 1_555
Ca4 O10 2.418744 1_555
Ca4 O8 2.418744 1_555
Ca4 O0 2.421197 1_655
Ca5 O21 2.386894 1_555
Ca5 O19 2.389618 1_555
Ca5 O17 2.389618 1_555
Ca5 O9 2.418744 1_555
Ca5 O11 2.418744 1_555
Ca5 O1 2.421197 1_555
Ca6 O22 2.386894 1_555
Ca6 O16 2.389618 1_555
Ca6 O18 2.389618 1_565
Ca6 O8 2.418744 1_555
Ca6 O10 2.418744 1_565
Ca6 O2 2.421197 1_655
Ca7 O23 2.386894 1_555
Ca7 O19 2.389618 1_555
Ca7 O17 2.389618 1_545
Ca7 O11 2.418744 1_555
Ca7 O9 2.418744 1_545
Ca7 O3 2.421197 1_555
Ca8 O16 2.386894 1_555
Ca8 O22 2.389618 1_555
Ca8 O20 2.389618 1_555
Ca8 O14 2.418744 1_555
Ca8 O12 2.418744 1_555
Ca8 O4 2.421197 1_555
Ca9 O17 2.386894 1_555
Ca9 O23 2.389618 1_565
Ca9 O21 2.389618 1_555
Ca9 O15 2.418744 1_565
Ca9 O13 2.418744 1_555
Ca9 O5 2.421197 1_455
Ca10 O18 2.386894 1_555
Ca10 O22 2.389618 1_545
Ca10 O20 2.389618 1_555
Ca10 O14 2.418744 1_545
Ca10 O12 2.418744 1_555
Ca10 O6 2.421197 1_555
Ca11 O19 2.386894 1_555
Ca11 O23 2.389618 1_555
Ca11 O21 2.389618 1_555
Ca11 O15 2.418744 1_555
Ca11 O13 2.418744 1_555
Ca11 O7 2.421197 1_455
Ca12 O8 2.367637 1_555
Ca12 O2 2.372795 1_555
Ca12 O0 2.372795 1_555
Ca12 O20 2.418402 1_555
Ca12 O22 2.418402 1_555
Ca12 O16 2.422846 1_455
Ca13 O9 2.367637 1_655
Ca13 O3 2.372795 1_565
Ca13 O1 2.372795 1_555
Ca13 O21 2.418402 1_655
Ca13 O23 2.418402 1_665
Ca13 O17 2.422846 1_555
Ca14 O10 2.367637 1_555
Ca14 O2 2.372795 1_545
Ca14 O0 2.372795 1_555
Ca14 O22 2.418402 1_545
Ca14 O20 2.418402 1_555
Ca14 O18 2.422846 1_455
Ca15 O11 2.367637 1_655
Ca15 O1 2.372795 1_555
Ca15 O3 2.372795 1_555
Ca15 O21 2.418402 1_655
Ca15 O23 2.418402 1_655
Ca15 O19 2.422846 1_555
Ca16 O12 2.367637 1_455
Ca16 O4 2.372795 1_555
Ca16 O6 2.372795 1_555
Ca16 O18 2.418402 1_455
Ca16 O16 2.418402 1_455
Ca16 O20 2.422846 1_555
Ca17 O13 2.367637 1_555
Ca17 O5 2.372795 1_555
Ca17 O7 2.372795 1_555
Ca17 O19 2.418402 1_555
Ca17 O17 2.418402 1_555
Ca17 O21 2.422846 1_655
Ca18 O14 2.367637 1_455
Ca18 O6 2.372795 1_565
Ca18 O4 2.372795 1_555
Ca18 O16 2.418402 1_455
Ca18 O18 2.418402 1_465
Ca18 O22 2.422846 1_555
Ca19 O15 2.367637 1_555
Ca19 O5 2.372795 1_545
Ca19 O7 2.372795 1_555
Ca19 O17 2.418402 1_545
Ca19 O19 2.418402 1_555
Ca19 O23 2.422846 1_655
Mn0 O14 2.338376 1_455
Mn0 O11 2.338376 1_554
Mn0 O12 2.338376 1_455
Mn0 O9 2.338376 1_554
Mn0 O1 2.354389 1_454
Mn0 O4 2.354389 1_555
Mn1 O8 2.338376 1_555
Mn1 O10 2.338376 1_565
Mn1 O15 2.338376 1_565
Mn1 O13 2.338376 1_555
Mn1 O5 2.354389 1_555
Mn1 O2 2.354389 1_555
Mn2 O11 2.338376 1_554
Mn2 O12 2.338376 1_455
Mn2 O14 2.338376 1_445
Mn2 O9 2.338376 1_544
Mn2 O6 2.354389 1_555
Mn2 O3 2.354389 1_454
Mn3 O10 2.338376 1_555
Mn3 O8 2.338376 1_555
Mn3 O15 2.338376 1_555
Mn3 O13 2.338376 1_555
Mn3 O7 2.354389 1_555
Mn3 O0 2.354389 1_555
