# generated using pymatgen
data_K3BiPCO7
_symmetry_space_group_name_H-M   'P 1'
_cell_length_a   7.25700100
_cell_length_b   6.04563200
_cell_length_c   10.34140663
_cell_angle_alpha   85.44186793
_cell_angle_beta   90.00000000
_cell_angle_gamma   90.00000000
_symmetry_Int_Tables_number   1
_chemical_formula_structural   K3BiPCO7
_chemical_formula_sum   'K6 Bi2 P2 C2 O14'
_cell_volume   452.27517453
_cell_formula_units_Z   2
loop_
 _symmetry_equiv_pos_site_id
 _symmetry_equiv_pos_as_xyz
  1  'x, y, z'
loop_
 _atom_site_type_symbol
 _atom_site_label
 _atom_site_symmetry_multiplicity
 _atom_site_fract_x
 _atom_site_fract_y
 _atom_site_fract_z
 _atom_site_occupancy
  K  K0  1  0.75000000  0.24047700  0.92322900  1
  K  K1  1  0.99952100  0.77736300  0.73174200  1
  K  K2  1  0.50047900  0.77736300  0.73174200  1
  K  K3  1  0.49952100  0.22263700  0.26825800  1
  K  K4  1  0.00047900  0.22263700  0.26825800  1
  K  K5  1  0.25000000  0.75952300  0.07677100  1
  Bi  Bi0  1  0.25000000  0.27748800  0.64357500  1
  Bi  Bi1  1  0.75000000  0.72251200  0.35642500  1
  P  P0  1  0.75000000  0.32057600  0.59654200  1
  P  P1  1  0.25000000  0.67942400  0.40345800  1
  C  C0  1  0.25000000  0.27343100  0.94320900  1
  C  C1  1  0.75000000  0.72656900  0.05679100  1
  O  O0  1  0.75000000  0.76758300  0.93229700  1
  O  O1  1  0.25000000  0.10482300  0.86833500  1
  O  O2  1  0.25000000  0.47522300  0.88935800  1
  O  O3  1  0.92179400  0.24386400  0.68157400  1
  O  O4  1  0.57820600  0.24386400  0.68157400  1
  O  O5  1  0.75000000  0.58303200  0.58067100  1
  O  O6  1  0.25000000  0.77363800  0.53633000  1
  O  O7  1  0.75000000  0.22636200  0.46367000  1
  O  O8  1  0.25000000  0.41696800  0.41932900  1
  O  O9  1  0.42179400  0.75613600  0.31842600  1
  O  O10  1  0.07820600  0.75613600  0.31842600  1
  O  O11  1  0.75000000  0.52477700  0.11064200  1
  O  O12  1  0.75000000  0.89517700  0.13166500  1
  O  O13  1  0.25000000  0.23241700  0.06770300  1
loop_
_geom_bond_atom_site_label_1
_geom_bond_atom_site_label_2
_geom_bond_distance
_geom_bond_site_symmetry_2
K0 O11 2.690711 1_556
K0 O3 2.791386 1_555
K0 O4 2.791386 1_555
K0 O0 2.853023 1_545
K0 O12 2.879057 1_546
K0 O0 3.195509 1_555
K1 O5 2.718760 1_555
K1 O6 2.719493 1_655
K1 O0 2.750358 1_555
K1 O3 2.882503 1_565
K1 O2 2.970569 1_655
K1 O1 3.108562 1_665
K2 O5 2.718760 1_555
K2 O6 2.719493 1_555
K2 O0 2.750358 1_555
K2 O4 2.882503 1_565
K2 O2 2.970569 1_555
K2 O1 3.108562 1_565
K3 O8 2.718760 1_555
K3 O7 2.719493 1_555
K3 O13 2.750358 1_555
K3 O9 2.882503 1_545
K3 O11 2.970569 1_555
K3 O12 3.108562 1_545
K4 O8 2.718760 1_555
K4 O7 2.719493 1_455
K4 O13 2.750358 1_555
K4 O10 2.882503 1_545
K4 O11 2.970569 1_455
K4 O12 3.108562 1_445
K5 O2 2.690711 1_554
K5 O10 2.791386 1_555
K5 O9 2.791386 1_555
K5 O13 2.853023 1_565
K5 O1 2.879057 1_564
K5 O13 3.195509 1_555
Bi0 O8 2.403768 1_555
Bi0 O4 2.419912 1_555
Bi0 O3 2.419912 1_455
Bi0 O1 2.471144 1_555
Bi1 O5 2.403768 1_555
Bi1 O9 2.419912 1_555
Bi1 O10 2.419912 1_655
Bi1 O12 2.471144 1_555
C0 O13 1.291609 1_556
C0 O2 1.300174 1_555
C0 O1 1.328176 1_555
C1 O0 1.291609 1_554
C1 O11 1.300174 1_555
C1 O12 1.328176 1_555
O3 P0 1.574105 1_555
O4 P0 1.574105 1_555
O5 P0 1.582151 1_555
O6 P1 1.528701 1_555
O7 P0 1.528701 1_555
O8 P1 1.582151 1_555
O9 P1 1.574105 1_555
O10 P1 1.574105 1_555
