# generated using pymatgen
data_Li2TiV3O8
_symmetry_space_group_name_H-M   'P 1'
_cell_length_a   5.93375249
_cell_length_b   6.02797870
_cell_length_c   8.58545928
_cell_angle_alpha   89.25127853
_cell_angle_beta   89.82130444
_cell_angle_gamma   90.70397715
_symmetry_Int_Tables_number   1
_chemical_formula_structural   Li2TiV3O8
_chemical_formula_sum   'Li4 Ti2 V6 O16'
_cell_volume   307.03824061
_cell_formula_units_Z   2
loop_
 _symmetry_equiv_pos_site_id
 _symmetry_equiv_pos_as_xyz
  1  'x, y, z'
loop_
 _atom_site_type_symbol
 _atom_site_label
 _atom_site_symmetry_multiplicity
 _atom_site_fract_x
 _atom_site_fract_y
 _atom_site_fract_z
 _atom_site_occupancy
  Li  Li0  1  0.74938300  0.74949600  0.74966200  1
  Li  Li1  1  0.24965600  0.25024800  0.24945800  1
  Li  Li2  1  0.25054900  0.75122400  0.74879700  1
  Li  Li3  1  0.74955200  0.24810700  0.25142400  1
  Ti  Ti0  1  0.00047800  0.99670500  0.00024700  1
  Ti  Ti1  1  0.49912500  0.49867600  0.50028300  1
  V  V0  1  0.99975700  0.50150800  0.49931100  1
  V  V1  1  0.25067200  0.74973600  0.24967600  1
  V  V2  1  0.25056800  0.25014500  0.75146100  1
  V  V3  1  0.50085200  0.00340200  0.99951200  1
  V  V4  1  0.75078500  0.24925400  0.74906300  1
  V  V5  1  0.75051700  0.74946000  0.25143500  1
  O  O0  1  0.00108600  0.51534700  0.26819400  1
  O  O1  1  0.49947300  0.01517900  0.76825400  1
  O  O2  1  0.00107700  0.48396200  0.73035300  1
  O  O3  1  0.50007000  0.98436400  0.23051700  1
  O  O4  1  0.49824400  0.51361300  0.27096500  1
  O  O5  1  0.99732800  0.01348000  0.77094000  1
  O  O6  1  0.50387100  0.48529300  0.72938500  1
  O  O7  1  0.00223700  0.98563600  0.22966000  1
  O  O8  1  0.25439200  0.78817500  0.00687300  1
  O  O9  1  0.75585100  0.28805500  0.50619400  1
  O  O10  1  0.74867900  0.78476900  0.01157500  1
  O  O11  1  0.24988000  0.28429400  0.51145800  1
  O  O12  1  0.24856100  0.21684200  0.99069500  1
  O  O13  1  0.74866300  0.71722200  0.49037100  1
  O  O14  1  0.74425800  0.21287500  0.99186000  1
  O  O15  1  0.24442700  0.71294400  0.49242700  1
loop_
_geom_bond_atom_site_label_1
_geom_bond_atom_site_label_2
_geom_bond_distance
_geom_bond_site_symmetry_2
Li0 O6 2.154256 1_555
Li0 O5 2.163765 1_565
Li0 O1 2.202941 1_565
Li0 O2 2.210012 1_655
Li0 O13 2.237161 1_555
Li0 O10 2.261434 1_556
Li1 O7 2.163248 1_545
Li1 O4 2.163806 1_555
Li1 O0 2.195030 1_555
Li1 O3 2.206114 1_545
Li1 O12 2.233348 1_554
Li1 O11 2.261405 1_555
Li2 O1 2.166097 1_565
Li2 O2 2.182060 1_555
Li2 O5 2.203952 1_465
Li2 O15 2.216477 1_555
Li2 O6 2.218459 1_555
Li2 O8 2.229922 1_556
Li3 O3 2.168539 1_545
Li3 O0 2.189014 1_655
Li3 O7 2.202398 1_645
Li3 O9 2.204041 1_555
Li3 O4 2.208486 1_555
Li3 O14 2.241615 1_554
O0 V0 1.984896 1_455
O0 V1 2.038649 1_555
O0 V5 2.066512 1_455
O1 V3 1.985844 1_555
O1 V4 2.045116 1_555
O1 V2 2.062920 1_555
O2 V0 1.985084 1_455
O2 V4 2.043080 1_455
O2 V2 2.063318 1_555
O3 V3 1.985091 1_564
O3 V1 2.039207 1_555
O3 V5 2.071833 1_555
O4 Ti1 1.969709 1_555
O4 V5 2.056693 1_555
O4 V1 2.064855 1_555
O5 Ti0 1.970140 1_646
O5 V4 2.059413 1_555
O5 V2 2.064148 1_655
O6 Ti1 1.967849 1_555
O6 V2 2.059880 1_555
O6 V4 2.060605 1_555
O7 Ti0 1.969939 1_555
O7 V5 2.057132 1_455
O7 V1 2.066747 1_555
O8 V3 1.943339 1_564
O8 Ti0 1.974477 1_555
O8 V1 2.094420 1_555
O9 V0 1.924941 1_555
O9 Ti1 1.995350 1_555
O9 V4 2.095260 1_555
O10 Ti0 1.955223 1_655
O10 V3 1.988751 1_564
O10 V5 2.067586 1_555
O11 Ti1 1.953317 1_555
O11 V0 1.993291 1_455
O11 V2 2.068136 1_555
O12 Ti0 1.970527 1_546
O12 V3 1.986881 1_555
O12 V2 2.061092 1_555
O13 Ti1 1.970678 1_555
O13 V0 1.990559 1_555
O13 V5 2.058012 1_555
O14 V3 1.907140 1_555
O14 Ti0 2.015325 1_646
O14 V4 2.093363 1_555
O15 V0 1.920340 1_455
O15 Ti1 2.000796 1_555
O15 V1 2.093177 1_555
