# generated using pymatgen
data_Li5SbS
_symmetry_space_group_name_H-M   'P 1'
_cell_length_a   6.15884200
_cell_length_b   8.18470800
_cell_length_c   9.74956300
_cell_angle_alpha   90.00000000
_cell_angle_beta   90.00000000
_cell_angle_gamma   90.00000000
_symmetry_Int_Tables_number   1
_chemical_formula_structural   Li5SbS
_chemical_formula_sum   'Li20 Sb4 S4'
_cell_volume   491.45912460
_cell_formula_units_Z   4
loop_
 _symmetry_equiv_pos_site_id
 _symmetry_equiv_pos_as_xyz
  1  'x, y, z'
loop_
 _atom_site_type_symbol
 _atom_site_label
 _atom_site_symmetry_multiplicity
 _atom_site_fract_x
 _atom_site_fract_y
 _atom_site_fract_z
 _atom_site_occupancy
  Li  Li0  1  0.75000000  0.32513800  0.81473600  1
  Li  Li1  1  0.50249300  0.95132300  0.12951600  1
  Li  Li2  1  0.49750700  0.45132300  0.37048400  1
  Li  Li3  1  0.48562000  0.33799700  0.08339500  1
  Li  Li4  1  0.51438000  0.83799700  0.41660500  1
  Li  Li5  1  0.48562000  0.16200300  0.58339500  1
  Li  Li6  1  0.51438000  0.66200300  0.91660500  1
  Li  Li7  1  0.49750700  0.04867700  0.87048400  1
  Li  Li8  1  0.50249300  0.54867700  0.62951600  1
  Li  Li9  1  0.25000000  0.82513800  0.68526400  1
  Li  Li10  1  0.25000000  0.67486200  0.18526400  1
  Li  Li11  1  0.99750700  0.95132300  0.12951600  1
  Li  Li12  1  0.00249300  0.45132300  0.37048400  1
  Li  Li13  1  0.98562000  0.83799700  0.41660500  1
  Li  Li14  1  0.01438000  0.33799700  0.08339500  1
  Li  Li15  1  0.98562000  0.66200300  0.91660500  1
  Li  Li16  1  0.01438000  0.16200300  0.58339500  1
  Li  Li17  1  0.00249300  0.04867700  0.87048400  1
  Li  Li18  1  0.99750700  0.54867700  0.62951600  1
  Li  Li19  1  0.75000000  0.17486200  0.31473600  1
  Sb  Sb0  1  0.75000000  0.86694000  0.67341500  1
  Sb  Sb1  1  0.25000000  0.13306000  0.32658500  1
  Sb  Sb2  1  0.25000000  0.36694000  0.82658500  1
  Sb  Sb3  1  0.75000000  0.63306000  0.17341500  1
  S  S0  1  0.75000000  0.14278200  0.03706300  1
  S  S1  1  0.25000000  0.64278200  0.46293700  1
  S  S2  1  0.25000000  0.85721800  0.96293700  1
  S  S3  1  0.75000000  0.35721800  0.53706300  1
loop_
_geom_bond_atom_site_label_1
_geom_bond_atom_site_label_2
_geom_bond_distance
_geom_bond_site_symmetry_2
Li0 S0 2.631748 1_556
Li0 S3 2.719893 1_555
Li0 Sb2 3.100522 1_655
Li0 Sb2 3.100522 1_555
Li1 S0 2.364687 1_565
Li1 S2 2.376779 1_554
Li1 Sb1 2.884841 1_565
Li1 Sb3 3.048326 1_555
Li2 S1 2.364687 1_555
Li2 S3 2.376779 1_555
Li2 Sb3 2.884841 1_555
Li2 Sb1 3.048326 1_555
Li3 S0 2.325558 1_555
Li3 Sb2 2.903598 1_554
Li3 Sb3 3.042007 1_555
Li3 Sb1 3.246683 1_555
Li4 S1 2.325558 1_555
Li4 Sb0 2.903598 1_555
Li4 Sb1 3.042007 1_565
Li4 Sb3 3.246683 1_555
Li5 S3 2.325558 1_555
Li5 Sb1 2.903598 1_555
Li5 Sb0 3.042007 1_545
Li5 Sb2 3.246683 1_555
Li6 S2 2.325558 1_555
Li6 Sb3 2.903598 1_556
Li6 Sb2 3.042007 1_555
Li6 Sb0 3.246683 1_555
Li7 S2 2.364687 1_545
Li7 S0 2.376779 1_556
Li7 Sb0 2.884841 1_545
Li7 Sb2 3.048326 1_555
Li8 S3 2.364687 1_555
Li8 S1 2.376779 1_555
Li8 Sb2 2.884841 1_555
Li8 Sb0 3.048326 1_555
Li9 S1 2.631748 1_555
Li9 S2 2.719893 1_555
Li9 Sb0 3.100522 1_455
Li9 Sb0 3.100522 1_555
Li10 S2 2.631748 1_554
Li10 S1 2.719893 1_555
Li10 Sb3 3.100522 1_455
Li10 Sb3 3.100522 1_555
Li11 S0 2.364687 1_565
Li11 S2 2.376779 1_654
Li11 Sb1 2.884841 1_665
Li11 Sb3 3.048326 1_555
Li12 S1 2.364687 1_555
Li12 S3 2.376779 1_455
Li12 Sb3 2.884841 1_455
Li12 Sb1 3.048326 1_555
Li13 S1 2.325558 1_655
Li13 Sb0 2.903598 1_555
Li13 Sb1 3.042007 1_665
Li13 Sb3 3.246683 1_555
Li14 S0 2.325558 1_455
Li14 Sb2 2.903598 1_554
Li14 Sb3 3.042007 1_455
Li14 Sb1 3.246683 1_555
Li15 S2 2.325558 1_655
Li15 Sb3 2.903598 1_556
Li15 Sb2 3.042007 1_655
Li15 Sb0 3.246683 1_555
Li16 S3 2.325558 1_455
Li16 Sb1 2.903598 1_555
Li16 Sb0 3.042007 1_445
Li16 Sb2 3.246683 1_555
Li17 S2 2.364687 1_545
Li17 S0 2.376779 1_456
Li17 Sb0 2.884841 1_445
Li17 Sb2 3.048326 1_555
Li18 S3 2.364687 1_555
Li18 S1 2.376779 1_655
Li18 Sb2 2.884841 1_655
Li18 Sb0 3.048326 1_555
Li19 S3 2.631748 1_555
Li19 S0 2.719893 1_555
Li19 Sb1 3.100522 1_655
Li19 Sb1 3.100522 1_555
