# generated using pymatgen
data_Li3Fe2(SiO4)2
_symmetry_space_group_name_H-M   'P 1'
_cell_length_a   11.08150900
_cell_length_b   5.06885200
_cell_length_c   6.18676286
_cell_angle_alpha   89.91470591
_cell_angle_beta   90.00000000
_cell_angle_gamma   90.00000000
_symmetry_Int_Tables_number   1
_chemical_formula_structural   Li3Fe2(SiO4)2
_chemical_formula_sum   'Li6 Fe4 Si4 O16'
_cell_volume   347.51335767
_cell_formula_units_Z   2
loop_
 _symmetry_equiv_pos_site_id
 _symmetry_equiv_pos_as_xyz
  1  'x, y, z'
loop_
 _atom_site_type_symbol
 _atom_site_label
 _atom_site_symmetry_multiplicity
 _atom_site_fract_x
 _atom_site_fract_y
 _atom_site_fract_z
 _atom_site_occupancy
  Li  Li0  1  0.08763400  0.56991400  0.76038500  1
  Li  Li1  1  0.58763400  0.43008600  0.23961500  1
  Li  Li2  1  0.92075300  0.91893000  0.24651800  1
  Li  Li3  1  0.41463800  0.06368200  0.24786800  1
  Li  Li4  1  0.42075300  0.08107000  0.75348200  1
  Li  Li5  1  0.91463800  0.93631800  0.75213200  1
  Fe  Fe0  1  0.16452900  0.08868400  0.01701600  1
  Fe  Fe1  1  0.66452900  0.91131600  0.98298400  1
  Fe  Fe2  1  0.32903600  0.56958800  0.50145100  1
  Fe  Fe3  1  0.82903600  0.43041200  0.49854900  1
  Si  Si0  1  0.83407400  0.41431600  0.00388900  1
  Si  Si1  1  0.33407400  0.58568400  0.99611100  1
  Si  Si2  1  0.66088500  0.92952800  0.49301800  1
  Si  Si3  1  0.16088500  0.07047200  0.50698200  1
  O  O0  1  0.90361900  0.52626200  0.77546700  1
  O  O1  1  0.40131700  0.47551500  0.77152400  1
  O  O2  1  0.33936700  0.90953400  0.99803400  1
  O  O3  1  0.83936700  0.09046600  0.00196600  1
  O  O4  1  0.69622000  0.52412000  0.00625400  1
  O  O5  1  0.19622000  0.47588000  0.99374600  1
  O  O6  1  0.90131700  0.52448500  0.22847600  1
  O  O7  1  0.40361900  0.47373800  0.22453300  1
  O  O8  1  0.59073800  0.03895300  0.27681900  1
  O  O9  1  0.08648800  0.99226500  0.29151300  1
  O  O10  1  0.67917700  0.60495900  0.47653800  1
  O  O11  1  0.17917700  0.39504100  0.52346200  1
  O  O12  1  0.30346200  0.94740200  0.49824500  1
  O  O13  1  0.80346200  0.05259800  0.50175500  1
  O  O14  1  0.58648800  0.00773500  0.70848700  1
  O  O15  1  0.09073800  0.96104700  0.72318100  1
loop_
_geom_bond_atom_site_label_1
_geom_bond_atom_site_label_2
_geom_bond_distance
_geom_bond_site_symmetry_2
Li0 O5 1.938421 1_555
Li0 O11 1.991781 1_555
Li0 O15 1.995868 1_555
Li0 O0 2.053240 1_455
Li1 O4 1.938421 1_555
Li1 O10 1.991781 1_555
Li1 O8 1.995868 1_555
Li1 O7 2.053240 1_555
Li2 O9 1.894480 1_655
Li2 O3 1.963316 1_565
Li2 O6 2.014211 1_555
Li2 O13 2.155263 1_565
Li3 O2 1.923262 1_544
Li3 O8 1.963644 1_555
Li3 O12 2.064455 1_545
Li3 O7 2.086882 1_555
Li4 O14 1.894480 1_555
Li4 O2 1.963316 1_545
Li4 O1 2.014211 1_555
Li4 O12 2.155263 1_545
Li5 O3 1.923262 1_566
Li5 O15 1.963644 1_655
Li5 O13 2.064455 1_565
Li5 O0 2.086882 1_555
Fe0 O9 1.966808 1_545
Fe0 O5 1.998792 1_554
Fe0 O15 2.096533 1_544
Fe0 O2 2.143015 1_544
Fe1 O14 1.966808 1_565
Fe1 O4 1.998792 1_556
Fe1 O8 2.096533 1_566
Fe1 O3 2.143015 1_566
Fe2 O11 1.886472 1_555
Fe2 O1 1.912697 1_555
Fe2 O12 1.936011 1_555
Fe2 O7 1.963864 1_555
Fe3 O10 1.886472 1_555
Fe3 O6 1.912697 1_555
Fe3 O13 1.936011 1_555
Fe3 O0 1.963864 1_555
O0 Si0 1.706058 1_556
O1 Si1 1.673328 1_555
O2 Si1 1.642656 1_555
O3 Si0 1.642656 1_555
O4 Si0 1.625938 1_555
O5 Si1 1.625938 1_555
O6 Si0 1.673328 1_555
O7 Si1 1.706058 1_554
O8 Si2 1.642798 1_545
O9 Si3 1.617234 1_565
O10 Si2 1.660916 1_555
O11 Si3 1.660916 1_555
O12 Si3 1.699552 1_565
O13 Si2 1.699552 1_545
O14 Si2 1.617234 1_545
O15 Si3 1.642798 1_565
