# generated using pymatgen
data_Li7Fe3(SiO6)2
_symmetry_space_group_name_H-M   'P 1'
_cell_length_a   4.98041874
_cell_length_b   4.98041874
_cell_length_c   9.86122926
_cell_angle_alpha   85.17853873
_cell_angle_beta   85.17853873
_cell_angle_gamma   119.99456334
_symmetry_Int_Tables_number   1
_chemical_formula_structural   Li7Fe3(SiO6)2
_chemical_formula_sum   'Li7 Fe3 Si2 O12'
_cell_volume   208.83036202
_cell_formula_units_Z   1
loop_
 _symmetry_equiv_pos_site_id
 _symmetry_equiv_pos_as_xyz
  1  'x, y, z'
loop_
 _atom_site_type_symbol
 _atom_site_label
 _atom_site_symmetry_multiplicity
 _atom_site_fract_x
 _atom_site_fract_y
 _atom_site_fract_z
 _atom_site_occupancy
  Li  Li0  1  0.74716800  0.74716800  0.74339700  1
  Li  Li1  1  0.90924100  0.58124800  0.25660800  1
  Li  Li2  1  0.50000000  0.50000000  0.50000000  1
  Li  Li3  1  0.41875200  0.09075900  0.74339200  1
  Li  Li4  1  0.25283200  0.25283200  0.25660300  1
  Li  Li5  1  0.58124800  0.90924100  0.25660800  1
  Li  Li6  1  0.09075900  0.41875200  0.74339200  1
  Fe  Fe0  1  0.00000000  0.00000000  0.00000000  1
  Fe  Fe1  1  0.66711900  0.33288100  0.00000000  1
  Fe  Fe2  1  0.33288100  0.66711900  0.00000000  1
  Si  Si0  1  0.83330400  0.16669600  0.50000000  1
  Si  Si1  1  0.16669600  0.83330400  0.50000000  1
  O  O0  1  0.90835300  0.90835300  0.39761400  1
  O  O1  1  0.84020900  0.46585200  0.60241400  1
  O  O2  1  0.03890400  0.70609100  0.88143800  1
  O  O3  1  0.62583700  0.62583700  0.12133600  1
  O  O4  1  0.96109600  0.29390900  0.11856200  1
  O  O5  1  0.53414800  0.15979100  0.39758600  1
  O  O6  1  0.37416300  0.37416300  0.87866400  1
  O  O7  1  0.09164700  0.09164700  0.60238600  1
  O  O8  1  0.70609100  0.03890400  0.88143800  1
  O  O9  1  0.46585200  0.84020900  0.60241400  1
  O  O10  1  0.29390900  0.96109600  0.11856200  1
  O  O11  1  0.15979100  0.53414800  0.39758600  1
loop_
_geom_bond_atom_site_label_1
_geom_bond_atom_site_label_2
_geom_bond_distance
_geom_bond_site_symmetry_2
Li0 O7 2.018779 1_665
Li0 O6 2.097108 1_555
Li0 O2 2.142160 1_655
Li0 O8 2.142160 1_565
Li0 O9 2.231330 1_555
Li0 O1 2.231330 1_555
Li1 O11 2.018492 1_655
Li1 O3 2.097877 1_555
Li1 O4 2.146092 1_555
Li1 O10 2.146467 1_655
Li1 O0 2.230356 1_555
Li1 O5 2.231769 1_555
Li2 O0 2.113275 1_555
Li2 O7 2.113275 1_555
Li2 O1 2.113461 1_555
Li2 O5 2.113461 1_555
Li2 O11 2.113461 1_555
Li2 O9 2.113461 1_555
Li3 O9 2.018492 1_545
Li3 O6 2.097877 1_555
Li3 O8 2.146092 1_555
Li3 O2 2.146467 1_545
Li3 O7 2.230356 1_555
Li3 O1 2.231769 1_555
Li4 O0 2.018779 1_445
Li4 O3 2.097108 1_555
Li4 O4 2.142160 1_455
Li4 O10 2.142160 1_545
Li4 O5 2.231330 1_555
Li4 O11 2.231330 1_555
Li5 O5 2.018492 1_565
Li5 O3 2.097877 1_555
Li5 O10 2.146092 1_555
Li5 O4 2.146467 1_565
Li5 O0 2.230356 1_555
Li5 O11 2.231769 1_555
Li6 O1 2.018492 1_455
Li6 O6 2.097877 1_555
Li6 O2 2.146092 1_555
Li6 O8 2.146467 1_455
Li6 O7 2.230356 1_555
Li6 O9 2.231769 1_555
Fe0 O2 2.019990 1_544
Fe0 O8 2.019990 1_454
Fe0 O10 2.019990 1_545
Fe0 O4 2.019990 1_455
Fe0 O6 2.038428 1_554
Fe0 O3 2.038428 1_445
Fe1 O2 2.019916 1_654
Fe1 O10 2.019916 1_545
Fe1 O8 2.020407 1_554
Fe1 O4 2.020407 1_555
Fe1 O3 2.038331 1_555
Fe1 O6 2.038331 1_554
Fe2 O4 2.019916 1_455
Fe2 O8 2.019916 1_564
Fe2 O2 2.020407 1_554
Fe2 O10 2.020407 1_555
Fe2 O6 2.038331 1_554
Fe2 O3 2.038331 1_555
O0 Si0 1.857517 1_565
O0 Si1 1.857517 1_655
O1 Si0 1.857030 1_555
O1 Si1 1.857709 1_655
O5 Si0 1.857030 1_555
O5 Si1 1.857709 1_545
O7 Si0 1.857517 1_455
O7 Si1 1.857517 1_545
O9 Si1 1.857030 1_555
O9 Si0 1.857709 1_565
O11 Si1 1.857030 1_555
O11 Si0 1.857709 1_455
