# generated using pymatgen
data_K2S2NO6
_symmetry_space_group_name_H-M   'P 1'
_cell_length_a   7.40909227
_cell_length_b   7.40909227
_cell_length_c   7.37199620
_cell_angle_alpha   88.66118730
_cell_angle_beta   88.66118730
_cell_angle_gamma   61.89642893
_symmetry_Int_Tables_number   1
_chemical_formula_structural   K2S2NO6
_chemical_formula_sum   'K4 S4 N2 O12'
_cell_volume   356.83749395
_cell_formula_units_Z   2
loop_
 _symmetry_equiv_pos_site_id
 _symmetry_equiv_pos_as_xyz
  1  'x, y, z'
loop_
 _atom_site_type_symbol
 _atom_site_label
 _atom_site_symmetry_multiplicity
 _atom_site_fract_x
 _atom_site_fract_y
 _atom_site_fract_z
 _atom_site_occupancy
  K  K0  1  0.29665600  0.00553100  0.64503600  1
  K  K1  1  0.99446900  0.70334400  0.85496400  1
  K  K2  1  0.70334400  0.99446900  0.35496400  1
  K  K3  1  0.00553100  0.29665600  0.14503600  1
  S  S0  1  0.77930200  0.42144200  0.64205400  1
  S  S1  1  0.57855800  0.22069800  0.85794600  1
  S  S2  1  0.22069800  0.57855800  0.35794600  1
  S  S3  1  0.42144200  0.77930200  0.14205400  1
  N  N0  1  0.57614200  0.42385800  0.75000000  1
  N  N1  1  0.42385800  0.57614200  0.25000000  1
  O  O0  1  0.82869200  0.28334500  0.48743700  1
  O  O1  1  0.71665500  0.17130800  0.01256300  1
  O  O2  1  0.17130800  0.71665500  0.51256300  1
  O  O3  1  0.28334500  0.82869200  0.98743700  1
  O  O4  1  0.70635000  0.63566000  0.59076800  1
  O  O5  1  0.36434000  0.29365000  0.90923200  1
  O  O6  1  0.29365000  0.36434000  0.40923200  1
  O  O7  1  0.63566000  0.70635000  0.09076800  1
  O  O8  1  0.94726500  0.34761100  0.77363100  1
  O  O9  1  0.65238900  0.05273500  0.72636900  1
  O  O10  1  0.05273500  0.65238900  0.22636900  1
  O  O11  1  0.34761100  0.94726500  0.27363100  1
loop_
_geom_bond_atom_site_label_1
_geom_bond_atom_site_label_2
_geom_bond_distance
_geom_bond_site_symmetry_2
K0 O11 2.771083 1_545
K0 O8 2.799981 1_455
K0 O3 2.837858 1_545
K0 O9 2.894929 1_555
K0 O2 2.899988 1_545
K0 O4 3.006883 1_545
K0 O6 3.133652 1_555
K0 O5 3.138511 1_555
K0 O0 3.310709 1_455
K1 O10 2.771083 1_656
K1 O9 2.799981 1_565
K1 O2 2.837858 1_655
K1 O8 2.894929 1_555
K1 O3 2.899988 1_655
K1 O5 3.006883 1_655
K1 O7 3.133652 1_556
K1 O4 3.138511 1_555
K1 O1 3.310709 1_566
K2 O9 2.771083 1_565
K2 O10 2.799981 1_655
K2 O1 2.837858 1_565
K2 O11 2.894929 1_555
K2 O0 2.899988 1_565
K2 O6 3.006883 1_565
K2 O4 3.133652 1_555
K2 O7 3.138511 1_555
K2 O2 3.310709 1_655
K3 O8 2.771083 1_454
K3 O11 2.799981 1_545
K3 O0 2.837858 1_455
K3 O10 2.894929 1_555
K3 O1 2.899988 1_455
K3 O7 3.006883 1_455
K3 O5 3.133652 1_554
K3 O6 3.138511 1_555
K3 O3 3.310709 1_544
N0 S1 1.678872 1_555
N0 S0 1.678872 1_555
N1 S2 1.678872 1_555
N1 S3 1.678872 1_555
O0 S0 1.470468 1_555
O1 S1 1.470468 1_554
O2 S2 1.470468 1_555
O3 S3 1.470468 1_556
O4 S0 1.458578 1_555
O5 S1 1.458578 1_555
O6 S2 1.458578 1_555
O7 S3 1.458578 1_555
O8 S0 1.476154 1_555
O9 S1 1.476154 1_555
O10 S2 1.476154 1_555
O11 S3 1.476154 1_555
