# generated using pymatgen
data_Y(BO2)3
_symmetry_space_group_name_H-M   'P 1'
_cell_length_a   4.26953200
_cell_length_b   4.44450500
_cell_length_c   18.39919600
_cell_angle_alpha   90.00000000
_cell_angle_beta   90.00000000
_cell_angle_gamma   90.00000000
_symmetry_Int_Tables_number   1
_chemical_formula_structural   Y(BO2)3
_chemical_formula_sum   'Y4 B12 O24'
_cell_volume   349.14233965
_cell_formula_units_Z   4
loop_
 _symmetry_equiv_pos_site_id
 _symmetry_equiv_pos_as_xyz
  1  'x, y, z'
loop_
 _atom_site_type_symbol
 _atom_site_label
 _atom_site_symmetry_multiplicity
 _atom_site_fract_x
 _atom_site_fract_y
 _atom_site_fract_z
 _atom_site_occupancy
  Y  Y0  1  0.60086600  0.82137900  0.16534800  1
  Y  Y1  1  0.10086600  0.82137900  0.33465200  1
  Y  Y2  1  0.60086600  0.17862100  0.66534800  1
  Y  Y3  1  0.10086600  0.17862100  0.83465200  1
  B  B0  1  0.69698900  0.17487900  0.00126600  1
  B  B1  1  0.16909100  0.32945800  0.07368400  1
  B  B2  1  0.12598100  0.35477900  0.21258900  1
  B  B3  1  0.62598100  0.35477900  0.28741100  1
  B  B4  1  0.66909100  0.32945800  0.42631600  1
  B  B5  1  0.19698900  0.17487900  0.49873400  1
  B  B6  1  0.69698900  0.82512100  0.50126600  1
  B  B7  1  0.16909100  0.67054200  0.57368400  1
  B  B8  1  0.12598100  0.64522100  0.71258900  1
  B  B9  1  0.62598100  0.64522100  0.78741100  1
  B  B10  1  0.66909100  0.67054200  0.92631600  1
  B  B11  1  0.19698900  0.82512100  0.99873400  1
  O  O0  1  0.33916500  0.13396000  0.01596700  1
  O  O1  1  0.25523200  0.64428200  0.06269900  1
  O  O2  1  0.83427500  0.26901100  0.06861400  1
  O  O3  1  0.27544700  0.23544800  0.14584200  1
  O  O4  1  0.11775700  0.68176800  0.20958700  1
  O  O5  1  0.80663800  0.24054300  0.22328000  1
  O  O6  1  0.30663800  0.24054300  0.27672000  1
  O  O7  1  0.61775700  0.68176800  0.29041300  1
  O  O8  1  0.77544700  0.23544800  0.35415800  1
  O  O9  1  0.33427500  0.26901100  0.43138600  1
  O  O10  1  0.75523200  0.64428200  0.43730100  1
  O  O11  1  0.83916500  0.13396000  0.48403300  1
  O  O12  1  0.33916500  0.86604000  0.51596700  1
  O  O13  1  0.25523200  0.35571800  0.56269900  1
  O  O14  1  0.83427500  0.73098900  0.56861400  1
  O  O15  1  0.27544700  0.76455200  0.64584200  1
  O  O16  1  0.11775700  0.31823200  0.70958700  1
  O  O17  1  0.80663800  0.75945700  0.72328000  1
  O  O18  1  0.30663800  0.75945700  0.77672000  1
  O  O19  1  0.61775700  0.31823200  0.79041300  1
  O  O20  1  0.77544700  0.76455200  0.85415800  1
  O  O21  1  0.33427500  0.73098900  0.93138600  1
  O  O22  1  0.75523200  0.35571800  0.93730100  1
  O  O23  1  0.83916500  0.86604000  0.98403300  1
loop_
_geom_bond_atom_site_label_1
_geom_bond_atom_site_label_2
_geom_bond_distance
_geom_bond_site_symmetry_2
B0 O2 1.433210 1_555
B0 O22 1.446699 1_554
B0 O23 1.533997 1_544
B0 O0 1.562124 1_555
B1 O2 1.457522 1_455
B1 O1 1.460814 1_555
B1 O3 1.464046 1_555
B1 O0 1.552410 1_555
B2 O4 1.454777 1_555
B2 O5 1.468148 1_455
B2 O3 1.482138 1_555
B2 O6 1.498339 1_555
B3 O7 1.454777 1_555
B3 O6 1.468148 1_555
B3 O8 1.482138 1_555
B3 O5 1.498339 1_555
B4 O9 1.457522 1_555
B4 O10 1.460814 1_555
B4 O8 1.464046 1_555
B4 O11 1.552410 1_555
B5 O9 1.433210 1_555
B5 O13 1.446699 1_555
B5 O12 1.533997 1_545
B5 O11 1.562124 1_455
B6 O14 1.433210 1_555
B6 O10 1.446699 1_555
B6 O11 1.533997 1_565
B6 O12 1.562124 1_555
B7 O14 1.457522 1_455
B7 O13 1.460814 1_555
B7 O15 1.464046 1_555
B7 O12 1.552410 1_555
B8 O16 1.454777 1_555
B8 O17 1.468148 1_455
B8 O15 1.482138 1_555
B8 O18 1.498339 1_555
B9 O19 1.454777 1_555
B9 O18 1.468148 1_555
B9 O20 1.482138 1_555
B9 O17 1.498339 1_555
B10 O21 1.457522 1_555
B10 O22 1.460814 1_555
B10 O20 1.464046 1_555
B10 O23 1.552410 1_555
B11 O21 1.433210 1_555
B11 O1 1.446699 1_556
B11 O0 1.533997 1_566
B11 O23 1.562124 1_455
O1 Y0 2.522746 1_555
O3 Y0 2.333671 1_545
O4 Y0 2.302624 1_555
O4 Y1 2.384379 1_555
O4 Y0 2.432671 1_455
O5 Y0 2.319198 1_545
O6 Y1 2.319198 1_545
O7 Y1 2.302624 1_655
O7 Y0 2.384379 1_555
O7 Y1 2.432671 1_555
O8 Y1 2.333671 1_645
O10 Y1 2.522746 1_655
O13 Y2 2.522746 1_555
O15 Y2 2.333671 1_565
O16 Y2 2.302624 1_555
O16 Y3 2.384379 1_555
O16 Y2 2.432671 1_455
O17 Y2 2.319198 1_565
O18 Y3 2.319198 1_565
O19 Y3 2.302624 1_655
O19 Y2 2.384379 1_555
O19 Y3 2.432671 1_555
O20 Y3 2.333671 1_665
O22 Y3 2.522746 1_655
