# generated using pymatgen
data_SnF2
_symmetry_space_group_name_H-M   'P 1'
_cell_length_a   4.90167501
_cell_length_b   5.16349989
_cell_length_c   8.42762987
_cell_angle_alpha   90.00000000
_cell_angle_beta   90.00000000
_cell_angle_gamma   90.00000000
_symmetry_Int_Tables_number   1
_chemical_formula_structural   SnF2
_chemical_formula_sum   'Sn4 F8'
_cell_volume   213.30161279
_cell_formula_units_Z   4
loop_
 _symmetry_equiv_pos_site_id
 _symmetry_equiv_pos_as_xyz
  1  'x, y, z'
loop_
 _atom_site_type_symbol
 _atom_site_label
 _atom_site_symmetry_multiplicity
 _atom_site_fract_x
 _atom_site_fract_y
 _atom_site_fract_z
 _atom_site_occupancy
  Sn  Sn0  1  0.26489988  0.00536333  0.62291843  1
  Sn  Sn1  1  0.76489988  0.49463667  0.37708157  1
  Sn  Sn2  1  0.73510012  0.50536333  0.87708157  1
  Sn  Sn3  1  0.23510012  0.99463667  0.12291843  1
  F  F0  1  0.10104852  0.74618090  0.78950950  1
  F  F1  1  0.60104852  0.75381910  0.21049050  1
  F  F2  1  0.89895148  0.24618090  0.71049050  1
  F  F3  1  0.39895148  0.25381910  0.28950950  1
  F  F4  1  0.53492983  0.12338155  0.96405165  1
  F  F5  1  0.03492983  0.37661845  0.03594835  1
  F  F6  1  0.46507017  0.62338155  0.53594835  1
  F  F7  1  0.96507017  0.87661845  0.46405165  1
loop_
_geom_bond_atom_site_label_1
_geom_bond_atom_site_label_2
_geom_bond_distance
_geom_bond_site_symmetry_2
F0 Sn0 2.099330 1_565
F0 Sn2 2.304008 1_455
F1 Sn1 2.099330 1_555
F1 Sn3 2.304008 1_555
F2 Sn2 2.099330 1_555
F2 Sn0 2.304008 1_655
F3 Sn3 2.099330 1_545
F3 Sn1 2.304008 1_555
F4 Sn3 2.096288 1_546
F4 Sn2 2.321665 1_555
F5 Sn2 2.096288 1_454
F5 Sn3 2.321665 1_545
F6 Sn1 2.096288 1_555
F6 Sn0 2.321665 1_565
F7 Sn0 2.096288 1_665
F7 Sn1 2.321665 1_555
