# generated using pymatgen
data_Li4Ti2V5O12
_symmetry_space_group_name_H-M   'P 1'
_cell_length_a   5.13011689
_cell_length_b   9.07716525
_cell_length_c   9.99241372
_cell_angle_alpha   90.00000064
_cell_angle_beta   101.54424129
_cell_angle_gamma   90.00000621
_symmetry_Int_Tables_number   1
_chemical_formula_structural   Li4Ti2V5O12
_chemical_formula_sum   'Li8 Ti4 V10 O24'
_cell_volume   455.90279555
_cell_formula_units_Z   2
loop_
 _symmetry_equiv_pos_site_id
 _symmetry_equiv_pos_as_xyz
  1  'x, y, z'
loop_
 _atom_site_type_symbol
 _atom_site_label
 _atom_site_symmetry_multiplicity
 _atom_site_fract_x
 _atom_site_fract_y
 _atom_site_fract_z
 _atom_site_occupancy
  Li  Li0  1  0.75549000  0.08224600  0.50790600  1
  Li  Li1  1  0.25710200  0.41242700  0.99743000  1
  Li  Li2  1  0.50209300  0.41809400  0.74715100  1
  Li  Li3  1  0.74249100  0.42139300  0.50956400  1
  Li  Li4  1  0.74451000  0.58224600  0.99209400  1
  Li  Li5  1  0.99790700  0.91809400  0.75284900  1
  Li  Li6  1  0.24289800  0.91242700  0.50257000  1
  Li  Li7  1  0.75750900  0.92139300  0.99043600  1
  Ti  Ti0  1  0.01138200  0.24519000  0.75960100  1
  Ti  Ti1  1  0.49493000  0.24810800  0.25163900  1
  Ti  Ti2  1  0.00507000  0.74810800  0.24836100  1
  Ti  Ti3  1  0.48861800  0.74519000  0.74039900  1
  V  V0  1  0.00266300  0.08377100  0.24497400  1
  V  V1  1  0.49565400  0.07781000  0.74851300  1
  V  V2  1  0.25328100  0.25908200  0.50761800  1
  V  V3  1  0.75047400  0.24925000  0.00178000  1
  V  V4  1  0.99928400  0.42475200  0.25603700  1
  V  V5  1  0.00434600  0.57781000  0.75148700  1
  V  V6  1  0.49733700  0.58377200  0.25502600  1
  V  V7  1  0.24671900  0.75908200  0.99238200  1
  V  V8  1  0.74952600  0.74925000  0.49822000  1
  V  V9  1  0.50071600  0.92475200  0.24396300  1
  O  O0  1  0.12322300  0.09319400  0.63559600  1
  O  O1  1  0.38337600  0.09379000  0.37182100  1
  O  O2  1  0.37799600  0.24852700  0.86725700  1
  O  O3  1  0.85860200  0.09370100  0.86717000  1
  O  O4  1  0.62306900  0.09840000  0.12682700  1
  O  O5  1  0.12425100  0.25852400  0.13403000  1
  O  O6  1  0.10004600  0.40410500  0.64365100  1
  O  O7  1  0.63727200  0.24024100  0.63867200  1
  O  O8  1  0.86704000  0.24883700  0.36815700  1
  O  O9  1  0.39554700  0.40400100  0.36922700  1
  O  O10  1  0.61088600  0.40954000  0.13050500  1
  O  O11  1  0.88801300  0.40151100  0.87555500  1
  O  O12  1  0.37677700  0.59319400  0.86440400  1
  O  O13  1  0.11662400  0.59379000  0.12817900  1
  O  O14  1  0.12200400  0.74852700  0.63274300  1
  O  O15  1  0.64139800  0.59370100  0.63283000  1
  O  O16  1  0.37574900  0.75852400  0.36597000  1
  O  O17  1  0.87693100  0.59840000  0.37317300  1
  O  O18  1  0.86272800  0.74024100  0.86132800  1
  O  O19  1  0.10445300  0.90400100  0.13077300  1
  O  O20  1  0.39995400  0.90410500  0.85634900  1
  O  O21  1  0.63296000  0.74883700  0.13184300  1
  O  O22  1  0.61198700  0.90151100  0.62444500  1
  O  O23  1  0.88911400  0.90954000  0.36949500  1
loop_
_geom_bond_atom_site_label_1
_geom_bond_atom_site_label_2
_geom_bond_distance
_geom_bond_site_symmetry_2
Li0 O0 2.057519 1_655
Li0 O7 2.109300 1_555
Li0 O1 2.113131 1_555
Li0 O8 2.209983 1_555
Li0 O22 2.220950 1_545
Li0 O23 2.284704 1_545
Li1 O10 2.024101 1_556
Li1 O11 2.038432 1_455
Li1 O2 2.147757 1_555
Li1 O5 2.156753 1_556
Li1 O12 2.272195 1_555
Li1 O13 2.305067 1_556
Li2 O6 2.118030 1_555
Li2 O2 2.126163 1_555
Li2 O7 2.136134 1_555
Li2 O11 2.138190 1_555
Li2 O12 2.147965 1_555
Li2 O15 2.164095 1_555
Li3 O9 2.039684 1_555
Li3 O6 2.049584 1_655
Li3 O15 2.118513 1_555
Li3 O7 2.222235 1_555
Li3 O8 2.284630 1_555
Li3 O17 2.300191 1_555
Li4 O12 2.057519 1_555
Li4 O18 2.109300 1_555
Li4 O13 2.113131 1_656
Li4 O21 2.209983 1_556
Li4 O11 2.220950 1_555
Li4 O10 2.284704 1_556
Li5 O20 2.118030 1_655
Li5 O14 2.126163 1_655
Li5 O18 2.136134 1_555
Li5 O22 2.138190 1_555
Li5 O0 2.147965 1_665
Li5 O3 2.164095 1_565
Li6 O23 2.024101 1_455
Li6 O22 2.038432 1_555
Li6 O14 2.147757 1_555
Li6 O16 2.156753 1_555
Li6 O0 2.272196 1_565
Li6 O1 2.305067 1_565
Li7 O19 2.039684 1_656
Li7 O20 2.049584 1_555
Li7 O3 2.118513 1_565
Li7 O18 2.222235 1_555
Li7 O21 2.284630 1_556
Li7 O4 2.300191 1_566
O0 Ti0 2.013131 1_555
O0 V1 2.019949 1_555
O0 V2 2.165513 1_555
O1 Ti1 2.001730 1_555
O1 V0 2.106801 1_555
O1 V9 2.157966 1_545
O1 V2 2.213670 1_555
O2 Ti0 1.971206 1_555
O2 V3 2.104813 1_556
O2 V1 2.111920 1_555
O3 Ti0 1.999433 1_655
O3 V1 2.002477 1_555
O3 V3 2.099801 1_556
O4 Ti1 2.040195 1_555
O4 V3 2.047031 1_555
O4 V0 2.069645 1_655
O4 V9 2.131327 1_545
O5 Ti1 2.027743 1_555
O5 V0 2.100254 1_555
O5 V3 2.101450 1_455
O5 V4 2.118221 1_455
O6 Ti0 1.959854 1_555
O6 V5 2.024848 1_555
O6 V2 2.150874 1_555
O7 Ti0 2.053627 1_655
O7 V1 2.055616 1_555
O7 V2 2.142946 1_555
O8 Ti1 2.027361 1_555
O8 V4 2.137631 1_555
O8 V0 2.141720 1_655
O8 V2 2.184406 1_655
O9 Ti1 1.970464 1_555
O9 V6 2.115706 1_555
O9 V4 2.127684 1_455
O9 V2 2.139941 1_555
O10 Ti1 2.062624 1_555
O10 V4 2.135955 1_555
O10 V3 2.157067 1_555
O10 V6 2.163071 1_555
O11 Ti0 2.012457 1_655
O11 V3 2.086892 1_556
O11 V5 2.179496 1_655
O12 Ti3 2.013131 1_555
O12 V5 2.019949 1_555
O12 V7 2.165513 1_555
O13 Ti2 2.001730 1_555
O13 V6 2.106800 1_555
O13 V4 2.157966 1_455
O13 V7 2.213670 1_554
O14 Ti3 1.971206 1_555
O14 V8 2.104813 1_455
O14 V5 2.111920 1_555
O15 Ti3 1.999433 1_555
O15 V5 2.002477 1_655
O15 V8 2.099800 1_555
O16 Ti2 2.027743 1_555
O16 V6 2.100247 1_555
O16 V8 2.101450 1_555
O16 V9 2.118221 1_555
O17 Ti2 2.040194 1_655
O17 V8 2.047031 1_555
O17 V6 2.069644 1_555
O17 V4 2.131327 1_555
O18 Ti3 2.053627 1_555
O18 V5 2.055616 1_655
O18 V7 2.142946 1_655
O19 Ti2 1.970464 1_555
O19 V0 2.115699 1_565
O19 V9 2.127684 1_555
O19 V7 2.139941 1_554
O20 Ti3 1.959854 1_555
O20 V1 2.024848 1_565
O20 V7 2.150874 1_555
O21 Ti2 2.027361 1_655
O21 V9 2.137631 1_555
O21 V6 2.141713 1_555
O21 V7 2.184406 1_554
O22 Ti3 2.012457 1_555
O22 V8 2.086892 1_555
O22 V1 2.179497 1_565
O23 Ti2 2.062624 1_655
O23 V9 2.135955 1_555
O23 V8 2.157067 1_555
O23 V0 2.163064 1_665
