# generated using pymatgen
data_Co2O3F
_symmetry_space_group_name_H-M   'P 1'
_cell_length_a   4.37610455
_cell_length_b   4.37610455
_cell_length_c   14.75506400
_cell_angle_alpha   90.00000000
_cell_angle_beta   90.00000000
_cell_angle_gamma   92.53426695
_symmetry_Int_Tables_number   1
_chemical_formula_structural   Co2O3F
_chemical_formula_sum   'Co10 O15 F5'
_cell_volume   282.28740961
_cell_formula_units_Z   5
loop_
 _symmetry_equiv_pos_site_id
 _symmetry_equiv_pos_as_xyz
  1  'x, y, z'
loop_
 _atom_site_type_symbol
 _atom_site_label
 _atom_site_symmetry_multiplicity
 _atom_site_fract_x
 _atom_site_fract_y
 _atom_site_fract_z
 _atom_site_occupancy
  Co  Co0  1  0.99852700  0.00147300  0.80022100  1
  Co  Co1  1  0.99882600  0.00117400  0.59998400  1
  Co  Co2  1  0.99882600  0.00117400  0.40001600  1
  Co  Co3  1  0.99852700  0.00147300  0.19977900  1
  Co  Co4  1  0.98794600  0.01205400  0.00000000  1
  Co  Co5  1  0.47320800  0.52679200  0.70016000  1
  Co  Co6  1  0.47320800  0.52679200  0.29984000  1
  Co  Co7  1  0.52433200  0.47566800  0.50000000  1
  Co  Co8  1  0.52243200  0.47756800  0.89988100  1
  Co  Co9  1  0.52243200  0.47756800  0.10011900  1
  O  O0  1  0.80784000  0.19216000  0.50000000  1
  O  O1  1  0.80441000  0.19559000  0.10086000  1
  O  O2  1  0.80441000  0.19559000  0.89914000  1
  O  O3  1  0.30278700  0.31044600  0.80016200  1
  O  O4  1  0.30536100  0.30637000  0.60003800  1
  O  O5  1  0.30278700  0.31044600  0.19983800  1
  O  O6  1  0.31453500  0.29428000  0.00000000  1
  O  O7  1  0.30536100  0.30637000  0.39996200  1
  O  O8  1  0.68955400  0.69721300  0.80016200  1
  O  O9  1  0.69363000  0.69463900  0.60003800  1
  O  O10  1  0.69363000  0.69463900  0.39996200  1
  O  O11  1  0.68955400  0.69721300  0.19983800  1
  O  O12  1  0.70572000  0.68546500  0.00000000  1
  O  O13  1  0.19059200  0.80940800  0.70008000  1
  O  O14  1  0.19059200  0.80940800  0.29992000  1
  F  F0  1  0.77973100  0.22026900  0.70049200  1
  F  F1  1  0.77973100  0.22026900  0.29950800  1
  F  F2  1  0.21854900  0.78145100  0.50000000  1
  F  F3  1  0.21148100  0.78851900  0.90279100  1
  F  F4  1  0.21148100  0.78851900  0.09720900  1
loop_
_geom_bond_atom_site_label_1
_geom_bond_atom_site_label_2
_geom_bond_distance
_geom_bond_site_symmetry_2
Co0 O8 1.855205 1_545
Co0 O3 1.855205 1_655
Co0 O2 1.907181 1_555
Co0 O13 1.912748 1_645
Co0 F0 2.019881 1_555
Co0 F3 2.025875 1_645
Co1 O9 1.850606 1_545
Co1 O4 1.850606 1_655
Co1 O0 1.906629 1_555
Co1 O13 1.911034 1_645
Co1 F2 2.026639 1_645
Co1 F0 2.029561 1_555
Co2 O10 1.850606 1_545
Co2 O7 1.850606 1_655
Co2 O0 1.906629 1_555
Co2 O14 1.911034 1_645
Co2 F2 2.026639 1_645
Co2 F1 2.029561 1_555
Co3 O11 1.855205 1_545
Co3 O5 1.855205 1_655
Co3 O1 1.907181 1_555
Co3 O14 1.912748 1_645
Co3 F1 2.019881 1_555
Co3 F4 2.025875 1_645
Co4 O12 1.847114 1_545
Co4 O6 1.847114 1_655
Co4 O2 1.887312 1_554
Co4 O1 1.887312 1_555
Co4 F4 2.013879 1_645
Co4 F3 2.013879 1_644
Co5 O13 1.787289 1_555
Co5 O3 1.888728 1_555
Co5 O8 1.888728 1_555
Co5 O4 1.894657 1_555
Co5 O9 1.894657 1_555
Co5 F0 1.938485 1_555
Co6 O14 1.787289 1_555
Co6 O5 1.888728 1_555
Co6 O11 1.888728 1_555
Co6 O7 1.894657 1_555
Co6 O10 1.894657 1_555
Co6 F1 1.938485 1_555
Co7 O0 1.792930 1_555
Co7 O4 1.892907 1_555
Co7 O9 1.892907 1_555
Co7 O7 1.892907 1_555
Co7 O10 1.892907 1_555
Co7 F2 1.933799 1_555
Co8 O2 1.783288 1_555
Co8 O3 1.887189 1_555
Co8 O8 1.887189 1_555
Co8 O6 1.894416 1_556
Co8 O12 1.894416 1_556
Co8 F3 1.966951 1_555
Co9 O1 1.783288 1_555
Co9 O11 1.887189 1_555
Co9 O5 1.887189 1_555
Co9 O6 1.894416 1_555
Co9 O12 1.894416 1_555
Co9 F4 1.966951 1_555
