# generated using pymatgen
data_NiH24C2S2(N3O7)2
_symmetry_space_group_name_H-M   'P 1'
_cell_length_a   7.65575700
_cell_length_b   10.06196800
_cell_length_c   12.05139606
_cell_angle_alpha   82.94997892
_cell_angle_beta   90.00000000
_cell_angle_gamma   90.00000000
_symmetry_Int_Tables_number   1
_chemical_formula_structural   NiH24C2S2(N3O7)2
_chemical_formula_sum   'Ni2 H48 C4 S4 N12 O28'
_cell_volume   921.32407307
_cell_formula_units_Z   2
loop_
 _symmetry_equiv_pos_site_id
 _symmetry_equiv_pos_as_xyz
  1  'x, y, z'
loop_
 _atom_site_type_symbol
 _atom_site_label
 _atom_site_symmetry_multiplicity
 _atom_site_fract_x
 _atom_site_fract_y
 _atom_site_fract_z
 _atom_site_occupancy
  Ni  Ni0  1  0.50000000  0.50000000  0.50000000  1
  Ni  Ni1  1  0.00000000  0.50000000  0.00000000  1
  H  H0  1  0.80614000  0.39416500  0.46156100  1
  H  H1  1  0.30614000  0.60583500  0.03843900  1
  H  H2  1  0.19386000  0.60583500  0.53843900  1
  H  H3  1  0.69386000  0.39416500  0.96156100  1
  H  H4  1  0.83146200  0.51448000  0.53653200  1
  H  H5  1  0.33146200  0.48552000  0.96346800  1
  H  H6  1  0.16853800  0.48552000  0.46346800  1
  H  H7  1  0.66853800  0.51448000  0.03653200  1
  H  H8  1  0.48790700  0.48371600  0.72765000  1
  H  H9  1  0.98790700  0.51628400  0.77235000  1
  H  H10  1  0.51209300  0.51628400  0.27235000  1
  H  H11  1  0.01209300  0.48371600  0.22765000  1
  H  H12  1  0.62874800  0.74016000  0.48900200  1
  H  H13  1  0.12874800  0.25984000  0.01099800  1
  H  H14  1  0.37125200  0.25984000  0.51099800  1
  H  H15  1  0.87125200  0.74016000  0.98900200  1
  H  H16  1  0.54083800  0.73018800  0.37136400  1
  H  H17  1  0.04083800  0.26981200  0.12863600  1
  H  H18  1  0.45916200  0.26981200  0.62863600  1
  H  H19  1  0.95916200  0.73018800  0.87136400  1
  H  H20  1  0.66172400  0.55956000  0.67947500  1
  H  H21  1  0.16172400  0.44044000  0.82052500  1
  H  H22  1  0.33827600  0.44044000  0.32052500  1
  H  H23  1  0.83827600  0.55956000  0.17947500  1
  H  H24  1  0.71576400  0.87450900  0.77810400  1
  H  H25  1  0.21576400  0.12549100  0.72189600  1
  H  H26  1  0.28423600  0.12549100  0.22189600  1
  H  H27  1  0.78423600  0.87450900  0.27810400  1
  H  H28  1  0.61067100  0.86827800  0.90704100  1
  H  H29  1  0.11067100  0.13172200  0.59295900  1
  H  H30  1  0.38932900  0.13172200  0.09295900  1
  H  H31  1  0.88932900  0.86827800  0.40704100  1
  H  H32  1  0.33017100  0.85173700  0.62226900  1
  H  H33  1  0.83017100  0.14826300  0.87773100  1
  H  H34  1  0.66982900  0.14826300  0.37773100  1
  H  H35  1  0.16982900  0.85173700  0.12226900  1
  H  H36  1  0.55491800  0.87770200  0.61599700  1
  H  H37  1  0.05491800  0.12229800  0.88400300  1
  H  H38  1  0.44508200  0.12229800  0.38400300  1
  H  H39  1  0.94508200  0.87770200  0.11599700  1
  H  H40  1  0.30996400  0.83539600  0.91498300  1
  H  H41  1  0.80996400  0.16460400  0.58501700  1
  H  H42  1  0.69003600  0.16460400  0.08501700  1
  H  H43  1  0.19003600  0.83539600  0.41498300  1
  H  H44  1  0.18379800  0.84824200  0.79160600  1
  H  H45  1  0.68379800  0.15175800  0.70839400  1
  H  H46  1  0.81620200  0.15175800  0.20839400  1
  H  H47  1  0.31620200  0.84824200  0.29160600  1
  C  C0  1  0.44840800  0.87063800  0.77033200  1
  C  C1  1  0.94840800  0.12936200  0.72966800  1
  C  C2  1  0.55159200  0.12936200  0.22966800  1
  C  C3  1  0.05159200  0.87063800  0.27033200  1
  S  S0  1  0.06285700  0.24903800  0.37103300  1
  S  S1  1  0.56285700  0.75096200  0.12896700  1
  S  S2  1  0.93714300  0.75096200  0.62896700  1
  S  S3  1  0.43714300  0.24903800  0.87103300  1
  N  N0  1  0.60191400  0.87696200  0.82185700  1
  N  N1  1  0.10191400  0.12303800  0.67814300  1
  N  N2  1  0.39808600  0.12303800  0.17814300  1
  N  N3  1  0.89808600  0.87696200  0.32185700  1
  N  N4  1  0.44036500  0.88485000  0.65813300  1
  N  N5  1  0.94036500  0.11515000  0.84186700  1
  N  N6  1  0.55963500  0.11515000  0.34186700  1
  N  N7  1  0.05963500  0.88485000  0.15813300  1
  N  N8  1  0.30143100  0.85605500  0.83034400  1
  N  N9  1  0.80143100  0.14394500  0.66965600  1
  N  N10  1  0.69856900  0.14394500  0.16965600  1
  N  N11  1  0.19856900  0.85605500  0.33034400  1
  O  O0  1  0.76506600  0.48450500  0.47396400  1
  O  O1  1  0.26506600  0.51549500  0.02603600  1
  O  O2  1  0.23493400  0.51549500  0.52603600  1
  O  O3  1  0.73493400  0.48450500  0.97396400  1
  O  O4  1  0.53813800  0.54205100  0.66319400  1
  O  O5  1  0.03813800  0.45794900  0.83680600  1
  O  O6  1  0.46186200  0.45794900  0.33680600  1
  O  O7  1  0.96186200  0.54205100  0.16319400  1
  O  O8  1  0.52477200  0.70561700  0.45295200  1
  O  O9  1  0.02477200  0.29438300  0.04704800  1
  O  O10  1  0.47522800  0.29438300  0.54704800  1
  O  O11  1  0.97522800  0.70561700  0.95295200  1
  O  O12  1  0.89190800  0.23743500  0.43097500  1
  O  O13  1  0.39190800  0.76256500  0.06902500  1
  O  O14  1  0.10809200  0.76256500  0.56902500  1
  O  O15  1  0.60809200  0.23743500  0.93097500  1
  O  O16  1  0.04885300  0.18954600  0.26402600  1
  O  O17  1  0.54885300  0.81045400  0.23597400  1
  O  O18  1  0.95114700  0.81045400  0.73597400  1
  O  O19  1  0.45114700  0.18954600  0.76402600  1
  O  O20  1  0.20215600  0.17841300  0.44225500  1
  O  O21  1  0.70215600  0.82158700  0.05774500  1
  O  O22  1  0.79784400  0.82158700  0.55774500  1
  O  O23  1  0.29784400  0.17841300  0.94225500  1
  O  O24  1  0.11044700  0.39502700  0.34519600  1
  O  O25  1  0.61044700  0.60497300  0.15480400  1
  O  O26  1  0.88955300  0.60497300  0.65480400  1
  O  O27  1  0.38955300  0.39502700  0.84519600  1
loop_
_geom_bond_atom_site_label_1
_geom_bond_atom_site_label_2
_geom_bond_distance
_geom_bond_site_symmetry_2
Ni0 O0 2.062219 1_555
Ni0 O2 2.062219 1_555
Ni0 O4 2.082430 1_555
Ni0 O6 2.082430 1_555
Ni0 O8 2.085639 1_555
Ni0 O10 2.085639 1_555
Ni1 O1 2.062219 1_555
Ni1 O3 2.062219 1_454
Ni1 O7 2.082430 1_455
Ni1 O5 2.082430 1_554
Ni1 O11 2.085639 1_454
Ni1 O9 2.085639 1_555
H0 O0 0.990380 1_555
H1 O1 0.990380 1_555
H2 O2 0.990380 1_555
H3 O3 0.990380 1_555
H4 O0 0.986781 1_555
H5 O1 0.986781 1_556
H6 O2 0.986781 1_555
H7 O3 0.986781 1_554
H8 O4 0.991909 1_555
H9 O5 0.991909 1_655
H10 O6 0.991909 1_555
H11 O7 0.991909 1_455
H12 O8 0.990081 1_555
H13 O9 0.990081 1_555
H14 O10 0.990081 1_555
H15 O11 0.990081 1_555
H16 O8 0.991645 1_555
H17 O9 0.991645 1_555
H18 O10 0.991645 1_555
H19 O11 0.991645 1_555
H20 O4 0.986514 1_555
H21 O5 0.986514 1_555
H22 O6 0.986514 1_555
H23 O7 0.986514 1_555
H24 N0 1.020555 1_555
H25 N1 1.020555 1_555
H26 N2 1.020555 1_555
H27 N3 1.020555 1_555
H28 N0 1.021758 1_555
H29 N1 1.021758 1_555
H30 N2 1.021758 1_555
H31 N3 1.021758 1_555
H32 N4 1.022183 1_555
H33 N5 1.022183 1_555
H34 N6 1.022183 1_555
H35 N7 1.022183 1_555
H36 N4 1.020347 1_555
H37 N5 1.020347 1_455
H38 N6 1.020347 1_555
H39 N7 1.020347 1_655
H40 N8 1.017775 1_555
H41 N9 1.017775 1_555
H42 N10 1.017775 1_555
H43 N11 1.017775 1_555
H44 N8 1.021842 1_555
H45 N9 1.021842 1_555
H46 N10 1.021842 1_555
H47 N11 1.021842 1_555
C0 N0 1.334328 1_555
C0 N8 1.335912 1_555
C0 N4 1.343540 1_555
C1 N1 1.334328 1_655
C1 N9 1.335912 1_555
C1 N5 1.343540 1_555
C2 N2 1.334328 1_555
C2 N10 1.335912 1_555
C2 N6 1.343540 1_555
C3 N3 1.334328 1_455
C3 N11 1.335912 1_555
C3 N7 1.343540 1_555
O12 S0 1.492507 1_655
O13 S1 1.492507 1_555
O14 S2 1.492507 1_455
O15 S3 1.492507 1_555
O16 S0 1.490752 1_555
O17 S1 1.490752 1_555
O18 S2 1.490752 1_555
O19 S3 1.490752 1_555
O20 S0 1.493077 1_555
O21 S1 1.493077 1_555
O22 S2 1.493077 1_555
O23 S3 1.493077 1_555
O24 S0 1.508375 1_555
O25 S1 1.508375 1_555
O26 S2 1.508375 1_555
O27 S3 1.508375 1_555
