# generated using pymatgen
data_TiCrO3
_symmetry_space_group_name_H-M   'P 1'
_cell_length_a   5.11803400
_cell_length_b   5.39320400
_cell_length_c   7.61414500
_cell_angle_alpha   90.00000000
_cell_angle_beta   90.00000000
_cell_angle_gamma   90.00000000
_symmetry_Int_Tables_number   1
_chemical_formula_structural   TiCrO3
_chemical_formula_sum   'Ti4 Cr4 O12'
_cell_volume   210.17020975
_cell_formula_units_Z   4
loop_
 _symmetry_equiv_pos_site_id
 _symmetry_equiv_pos_as_xyz
  1  'x, y, z'
loop_
 _atom_site_type_symbol
 _atom_site_label
 _atom_site_symmetry_multiplicity
 _atom_site_fract_x
 _atom_site_fract_y
 _atom_site_fract_z
 _atom_site_occupancy
  Ti  Ti0  1  0.50000000  0.50000000  0.00000000  1
  Ti  Ti1  1  0.50000000  0.50000000  0.50000000  1
  Ti  Ti2  1  0.00000000  0.00000000  0.00000000  1
  Ti  Ti3  1  0.00000000  0.00000000  0.50000000  1
  Cr  Cr0  1  0.51086500  0.92238000  0.75000000  1
  Cr  Cr1  1  0.98913500  0.42238000  0.75000000  1
  Cr  Cr2  1  0.01086500  0.57762000  0.25000000  1
  Cr  Cr3  1  0.48913500  0.07762000  0.25000000  1
  O  O0  1  0.63183700  0.44609500  0.25000000  1
  O  O1  1  0.69695500  0.20528800  0.57011500  1
  O  O2  1  0.69695500  0.20528800  0.92988500  1
  O  O3  1  0.80304500  0.70528800  0.57011500  1
  O  O4  1  0.80304500  0.70528800  0.92988500  1
  O  O5  1  0.86816300  0.94609500  0.25000000  1
  O  O6  1  0.13183700  0.05390500  0.75000000  1
  O  O7  1  0.19695500  0.29471200  0.07011500  1
  O  O8  1  0.19695500  0.29471200  0.42988500  1
  O  O9  1  0.30304500  0.79471200  0.07011500  1
  O  O10  1  0.30304500  0.79471200  0.42988500  1
  O  O11  1  0.36816300  0.55390500  0.75000000  1
loop_
_geom_bond_atom_site_label_1
_geom_bond_atom_site_label_2
_geom_bond_distance
_geom_bond_site_symmetry_2
Cr0 O6 2.065500 1_565
Cr0 O11 2.117220 1_555
Cr0 O2 2.260774 1_565
Cr0 O1 2.260774 1_565
Cr0 O3 2.341581 1_555
Cr0 O4 2.341581 1_555
Cr1 O11 2.065500 1_655
Cr1 O6 2.117220 1_655
Cr1 O3 2.260774 1_555
Cr1 O4 2.260774 1_555
Cr1 O2 2.341581 1_555
Cr1 O1 2.341581 1_555
Cr2 O0 2.065500 1_455
Cr2 O5 2.117220 1_455
Cr2 O7 2.260774 1_555
Cr2 O8 2.260774 1_555
Cr2 O9 2.341581 1_555
Cr2 O10 2.341581 1_555
Cr3 O5 2.065500 1_545
Cr3 O0 2.117220 1_555
Cr3 O9 2.260774 1_545
Cr3 O10 2.260774 1_545
Cr3 O7 2.341581 1_555
Cr3 O8 2.341581 1_555
O0 Ti0 2.040405 1_555
O0 Ti1 2.040405 1_555
O1 Ti1 1.956386 1_555
O1 Ti3 1.978990 1_655
O2 Ti0 1.956386 1_556
O2 Ti2 1.978990 1_656
O3 Ti3 1.956386 1_665
O3 Ti1 1.978990 1_555
O4 Ti2 1.956386 1_666
O4 Ti0 1.978990 1_556
O5 Ti2 2.040405 1_665
O5 Ti3 2.040405 1_665
O6 Ti2 2.040405 1_556
O6 Ti3 2.040405 1_555
O7 Ti2 1.956386 1_555
O7 Ti0 1.978990 1_555
O8 Ti3 1.956386 1_555
O8 Ti1 1.978990 1_555
O9 Ti0 1.956386 1_555
O9 Ti2 1.978990 1_565
O10 Ti1 1.956386 1_555
O10 Ti3 1.978990 1_565
O11 Ti0 2.040405 1_556
O11 Ti1 2.040405 1_555
