# generated using pymatgen
data_Ga3P3H6C2NO13
_symmetry_space_group_name_H-M   'P 1'
_cell_length_a   18.07160300
_cell_length_b   8.95039700
_cell_length_c   10.58664201
_cell_angle_alpha   56.76304011
_cell_angle_beta   90.00000000
_cell_angle_gamma   90.00000000
_symmetry_Int_Tables_number   1
_chemical_formula_structural   Ga3P3H6C2NO13
_chemical_formula_sum   'Ga12 P12 H24 C8 N4 O52'
_cell_volume   1432.24362908
_cell_formula_units_Z   4
loop_
 _symmetry_equiv_pos_site_id
 _symmetry_equiv_pos_as_xyz
  1  'x, y, z'
loop_
 _atom_site_type_symbol
 _atom_site_label
 _atom_site_symmetry_multiplicity
 _atom_site_fract_x
 _atom_site_fract_y
 _atom_site_fract_z
 _atom_site_occupancy
  Ga  Ga0  1  0.78964600  0.24070900  0.17354100  1
  Ga  Ga1  1  0.71035400  0.24070900  0.67354100  1
  Ga  Ga2  1  0.21035400  0.75929100  0.82645900  1
  Ga  Ga3  1  0.28964600  0.75929100  0.32645900  1
  Ga  Ga4  1  0.60633800  0.02100900  0.34008200  1
  Ga  Ga5  1  0.89366200  0.02100900  0.84008200  1
  Ga  Ga6  1  0.39366200  0.97899100  0.65991800  1
  Ga  Ga7  1  0.10633800  0.97899100  0.15991800  1
  Ga  Ga8  1  0.83087500  0.68606700  0.30767600  1
  Ga  Ga9  1  0.66912500  0.68606700  0.80767600  1
  Ga  Ga10  1  0.16912500  0.31393300  0.69232400  1
  Ga  Ga11  1  0.33087500  0.31393300  0.19232400  1
  P  P0  1  0.92701900  0.03107700  0.12667400  1
  P  P1  1  0.57298100  0.03107700  0.62667400  1
  P  P2  1  0.07298100  0.96892300  0.87332600  1
  P  P3  1  0.42701900  0.96892300  0.37332600  1
  P  P4  1  0.71095600  0.67698000  0.52188600  1
  P  P5  1  0.78904400  0.67698000  0.02188600  1
  P  P6  1  0.28904400  0.32302000  0.47811400  1
  P  P7  1  0.21095600  0.32302000  0.97811400  1
  P  P8  1  0.65316900  0.26898000  0.99690800  1
  P  P9  1  0.84683100  0.26898000  0.49690800  1
  P  P10  1  0.34683100  0.73102000  0.00309200  1
  P  P11  1  0.15316900  0.73102000  0.50309200  1
  H  H0  1  0.72100900  0.16899200  0.39415400  1
  H  H1  1  0.77899100  0.16899200  0.89415400  1
  H  H2  1  0.27899100  0.83100800  0.60584600  1
  H  H3  1  0.22100900  0.83100800  0.10584600  1
  H  H4  1  0.96694000  0.52108900  0.10590000  1
  H  H5  1  0.53306000  0.52108900  0.60590000  1
  H  H6  1  0.03306000  0.47891100  0.89410000  1
  H  H7  1  0.46694000  0.47891100  0.39410000  1
  H  H8  1  0.06568300  0.52954600  0.11328300  1
  H  H9  1  0.43431700  0.52954600  0.61328300  1
  H  H10  1  0.93431700  0.47045400  0.88671700  1
  H  H11  1  0.56568300  0.47045400  0.38671700  1
  H  H12  1  0.01094600  0.53558600  0.25094000  1
  H  H13  1  0.48905400  0.53558600  0.75094000  1
  H  H14  1  0.98905400  0.46441400  0.74906000  1
  H  H15  1  0.51094600  0.46441400  0.24906000  1
  H  H16  1  0.01033000  0.21453700  0.22790200  1
  H  H17  1  0.48967000  0.21453700  0.72790200  1
  H  H18  1  0.98967000  0.78546300  0.77209800  1
  H  H19  1  0.51033000  0.78546300  0.27209800  1
  H  H20  1  0.91626800  0.23031700  0.34737800  1
  H  H21  1  0.58373200  0.23031700  0.84737800  1
  H  H22  1  0.08373200  0.76968300  0.65262200  1
  H  H23  1  0.41626800  0.76968300  0.15262200  1
  C  C0  1  0.04400900  0.19569200  0.41929400  1
  C  C1  1  0.45599100  0.19569200  0.91929400  1
  C  C2  1  0.95599100  0.80430800  0.58070600  1
  C  C3  1  0.54400900  0.80430800  0.08070600  1
  C  C4  1  0.01502300  0.48033100  0.18107800  1
  C  C5  1  0.48497700  0.48033100  0.68107800  1
  C  C6  1  0.98497700  0.51966900  0.81892200  1
  C  C7  1  0.51502300  0.51966900  0.31892200  1
  N  N0  1  0.01911900  0.28224400  0.28190100  1
  N  N1  1  0.48088100  0.28224400  0.78190100  1
  N  N2  1  0.98088100  0.71775600  0.71809900  1
  N  N3  1  0.51911900  0.71775600  0.21809900  1
  O  O0  1  0.71334600  0.14619200  0.31378700  1
  O  O1  1  0.78665400  0.14619200  0.81378700  1
  O  O2  1  0.28665400  0.85380800  0.68621300  1
  O  O3  1  0.21334600  0.85380800  0.18621300  1
  O  O4  1  0.87356400  0.12205700  0.17870400  1
  O  O5  1  0.62643600  0.12205700  0.67870400  1
  O  O6  1  0.12643600  0.87794300  0.82129600  1
  O  O7  1  0.37356400  0.87794300  0.32129600  1
  O  O8  1  0.73697400  0.23043100  0.02040600  1
  O  O9  1  0.76302600  0.23043100  0.52040600  1
  O  O10  1  0.26302600  0.76956900  0.97959400  1
  O  O11  1  0.23697400  0.76956900  0.47959400  1
  O  O12  1  0.80483900  0.48607500  0.06214700  1
  O  O13  1  0.69516100  0.48607500  0.56214700  1
  O  O14  1  0.19516100  0.51392500  0.93785300  1
  O  O15  1  0.30483900  0.51392500  0.43785300  1
  O  O16  1  0.86286300  0.24533600  0.36020800  1
  O  O17  1  0.63713700  0.24533600  0.86020800  1
  O  O18  1  0.13713700  0.75466400  0.63979200  1
  O  O19  1  0.36286300  0.75466400  0.13979200  1
  O  O20  1  0.91187100  0.82673800  0.21485000  1
  O  O21  1  0.58812900  0.82673800  0.71485000  1
  O  O22  1  0.08812900  0.17326200  0.78515000  1
  O  O23  1  0.41187100  0.17326200  0.28515000  1
  O  O24  1  0.77919800  0.75644500  0.41595800  1
  O  O25  1  0.72080200  0.75644500  0.91595800  1
  O  O26  1  0.22080200  0.24355500  0.58404200  1
  O  O27  1  0.27919800  0.24355500  0.08404200  1
  O  O28  1  0.86721800  0.46030800  0.44796900  1
  O  O29  1  0.63278200  0.46030800  0.94796900  1
  O  O30  1  0.13278200  0.53969200  0.55203100  1
  O  O31  1  0.36721800  0.53969200  0.05203100  1
  O  O32  1  0.77268900  0.67852200  0.16551700  1
  O  O33  1  0.72731100  0.67852200  0.66551700  1
  O  O34  1  0.22731100  0.32147800  0.83448300  1
  O  O35  1  0.27268900  0.32147800  0.33448300  1
  O  O36  1  0.60507900  0.13742400  0.12983600  1
  O  O37  1  0.89492100  0.13742400  0.62983600  1
  O  O38  1  0.39492100  0.86257600  0.87016400  1
  O  O39  1  0.10507900  0.86257600  0.37016400  1
  O  O40  1  0.58356100  0.11440800  0.45500000  1
  O  O41  1  0.91643900  0.11440800  0.95500000  1
  O  O42  1  0.41643900  0.88559200  0.54500000  1
  O  O43  1  0.08356100  0.88559200  0.04500000  1
  O  O44  1  0.00585500  0.06581700  0.15766100  1
  O  O45  1  0.49414500  0.06581700  0.65766100  1
  O  O46  1  0.99414500  0.93418300  0.84233900  1
  O  O47  1  0.50585500  0.93418300  0.34233900  1
  O  O48  1  0.64170700  0.78834400  0.43941100  1
  O  O49  1  0.85829300  0.78834400  0.93941100  1
  O  O50  1  0.35829300  0.21165600  0.56058900  1
  O  O51  1  0.14170700  0.21165600  0.06058900  1
loop_
_geom_bond_atom_site_label_1
_geom_bond_atom_site_label_2
_geom_bond_distance
_geom_bond_site_symmetry_2
Ga0 O4 1.834948 1_555
Ga0 O0 1.855933 1_555
Ga0 O12 1.857428 1_555
Ga0 O8 1.925160 1_555
Ga0 O16 2.397379 1_555
Ga1 O5 1.834948 1_555
Ga1 O1 1.855933 1_555
Ga1 O13 1.857428 1_555
Ga1 O9 1.925160 1_555
Ga1 O17 2.397379 1_555
Ga2 O6 1.834948 1_555
Ga2 O2 1.855933 1_555
Ga2 O14 1.857428 1_555
Ga2 O10 1.925160 1_555
Ga2 O18 2.397379 1_555
Ga3 O7 1.834948 1_555
Ga3 O3 1.855933 1_555
Ga3 O15 1.857428 1_555
Ga3 O11 1.925160 1_555
Ga3 O19 2.397379 1_555
Ga4 O48 1.857527 1_545
Ga4 O40 1.860975 1_555
Ga4 O36 1.870312 1_555
Ga4 O47 1.970176 1_545
Ga4 O0 2.174987 1_555
Ga5 O49 1.857527 1_545
Ga5 O41 1.860975 1_555
Ga5 O37 1.870312 1_555
Ga5 O46 1.970176 1_545
Ga5 O1 2.174987 1_555
Ga6 O50 1.857527 1_565
Ga6 O42 1.860975 1_555
Ga6 O38 1.870312 1_555
Ga6 O45 1.970176 1_565
Ga6 O2 2.174987 1_555
Ga7 O51 1.857527 1_565
Ga7 O43 1.860975 1_555
Ga7 O39 1.870312 1_555
Ga7 O44 1.970176 1_565
Ga7 O3 2.174987 1_555
Ga8 O20 1.826781 1_555
Ga8 O24 1.837008 1_555
Ga8 O28 1.852132 1_555
Ga8 O32 1.867254 1_555
Ga9 O21 1.826781 1_555
Ga9 O25 1.837008 1_555
Ga9 O29 1.852132 1_555
Ga9 O33 1.867254 1_555
Ga10 O22 1.826781 1_555
Ga10 O26 1.837008 1_555
Ga10 O30 1.852132 1_555
Ga10 O34 1.867254 1_555
Ga11 O23 1.826781 1_555
Ga11 O27 1.837008 1_555
Ga11 O31 1.852132 1_555
Ga11 O35 1.867254 1_555
H0 O0 0.987441 1_555
H1 O1 0.987441 1_555
H2 O2 0.987441 1_555
H3 O3 0.987441 1_555
H16 N0 1.048349 1_555
H17 N1 1.048349 1_555
H18 N2 1.048349 1_555
H19 N3 1.048349 1_555
H20 O16 0.993972 1_555
H21 O17 0.993972 1_555
H22 O18 0.993972 1_555
H23 O19 0.993972 1_555
C0 N0 1.297270 1_555
C1 N1 1.297270 1_555
C2 N2 1.297270 1_555
C3 N3 1.297270 1_555
C4 H12 1.094527 1_555
C4 H8 1.095785 1_555
C4 H4 1.096945 1_455
C4 N0 1.487843 1_555
C5 H13 1.094527 1_555
C5 H9 1.095785 1_555
C5 H5 1.096945 1_555
C5 N1 1.487843 1_555
C6 H14 1.094527 1_555
C6 H10 1.095785 1_555
C6 H6 1.096945 1_655
C6 N2 1.487843 1_555
C7 H15 1.094527 1_555
C7 H11 1.095785 1_555
C7 H7 1.096945 1_555
C7 N3 1.487843 1_555
O4 P0 1.546410 1_555
O5 P1 1.546410 1_555
O6 P2 1.546410 1_555
O7 P3 1.546410 1_555
O8 P8 1.542894 1_554
O9 P9 1.542894 1_555
O10 P10 1.542894 1_556
O11 P11 1.542894 1_555
O12 P5 1.544140 1_555
O13 P4 1.544140 1_555
O14 P7 1.544140 1_555
O15 P6 1.544140 1_555
O16 P9 1.599631 1_555
O17 P8 1.599631 1_555
O18 P11 1.599631 1_555
O19 P10 1.599631 1_555
O20 P0 1.555554 1_565
O21 P1 1.555554 1_565
O22 P2 1.555554 1_545
O23 P3 1.555554 1_545
O24 P4 1.552418 1_555
O25 P5 1.552418 1_556
O26 P6 1.552418 1_555
O27 P7 1.552418 1_554
O28 P9 1.537565 1_555
O29 P8 1.537565 1_555
O30 P11 1.537565 1_555
O31 P10 1.537565 1_555
O32 P5 1.556498 1_555
O33 P4 1.556498 1_555
O34 P7 1.556498 1_555
O35 P6 1.556498 1_555
O36 P8 1.518445 1_554
O37 P9 1.518445 1_555
O38 P10 1.518445 1_556
O39 P11 1.518445 1_555
O40 P1 1.552425 1_555
O41 P0 1.552425 1_556
O42 P3 1.552425 1_555
O43 P2 1.552425 1_554
O44 P0 1.531621 1_455
O45 P1 1.531621 1_555
O46 P2 1.531621 1_655
O47 P3 1.531621 1_555
O48 P4 1.538816 1_555
O49 P5 1.538816 1_556
O50 P6 1.538816 1_555
O51 P7 1.538816 1_554
