# generated using pymatgen
data_Si6Bi9O26
_symmetry_space_group_name_H-M   'P 1'
_cell_length_a   9.76722167
_cell_length_b   9.76722167
_cell_length_c   14.09803500
_cell_angle_alpha   90.00000000
_cell_angle_beta   90.00000000
_cell_angle_gamma   119.99999779
_symmetry_Int_Tables_number   1
_chemical_formula_structural   Si6Bi9O26
_chemical_formula_sum   'Si12 Bi18 O52'
_cell_volume   1164.74623339
_cell_formula_units_Z   2
loop_
 _symmetry_equiv_pos_site_id
 _symmetry_equiv_pos_as_xyz
  1  'x, y, z'
loop_
 _atom_site_type_symbol
 _atom_site_label
 _atom_site_symmetry_multiplicity
 _atom_site_fract_x
 _atom_site_fract_y
 _atom_site_fract_z
 _atom_site_occupancy
  Si  Si0  1  0.39894500  0.37437300  0.62501800  1
  Si  Si1  1  0.40066400  0.37448300  0.12768200  1
  Si  Si2  1  0.02457200  0.39894500  0.37498200  1
  Si  Si3  1  0.02618200  0.40066400  0.87231800  1
  Si  Si4  1  0.37448300  0.97381800  0.87231800  1
  Si  Si5  1  0.37437300  0.97542800  0.37498200  1
  Si  Si6  1  0.62562700  0.02457200  0.62501800  1
  Si  Si7  1  0.62551700  0.02618200  0.12768200  1
  Si  Si8  1  0.97381800  0.59933600  0.12768200  1
  Si  Si9  1  0.97542800  0.60105500  0.62501800  1
  Si  Si10  1  0.59933600  0.62551700  0.87231800  1
  Si  Si11  1  0.60105500  0.62562700  0.37498200  1
  Bi  Bi0  1  0.01217100  0.76680900  0.37395100  1
  Bi  Bi1  1  0.01530000  0.77317800  0.87332500  1
  Bi  Bi2  1  0.24212200  0.01530000  0.12667500  1
  Bi  Bi3  1  0.24536200  0.01217100  0.62604900  1
  Bi  Bi4  1  0.76680900  0.75463800  0.62604900  1
  Bi  Bi5  1  0.77317800  0.75787800  0.12667500  1
  Bi  Bi6  1  0.33333300  0.66666700  0.24046100  1
  Bi  Bi7  1  0.66666700  0.33333300  0.02102000  1
  Bi  Bi8  1  0.66666700  0.33333300  0.47080900  1
  Bi  Bi9  1  0.33333300  0.66666700  0.97898000  1
  Bi  Bi10  1  0.33333300  0.66666700  0.52919100  1
  Bi  Bi11  1  0.66666700  0.33333300  0.75953900  1
  Bi  Bi12  1  0.22682200  0.24212200  0.87332500  1
  Bi  Bi13  1  0.23319100  0.24536200  0.37395100  1
  Bi  Bi14  1  0.75463800  0.98782900  0.37395100  1
  Bi  Bi15  1  0.75787800  0.98470000  0.87332500  1
  Bi  Bi16  1  0.98470000  0.22682200  0.12667500  1
  Bi  Bi17  1  0.98782900  0.23319100  0.62604900  1
  O  O0  1  0.31639500  0.24230700  0.21385100  1
  O  O1  1  0.33769500  0.24842200  0.71562900  1
  O  O2  1  0.34152700  0.24822000  0.53448300  1
  O  O3  1  0.34341900  0.24979800  0.03575500  1
  O  O4  1  0.24230700  0.92591200  0.78614900  1
  O  O5  1  0.24842200  0.91072700  0.28437100  1
  O  O6  1  0.24822000  0.90669300  0.46551700  1
  O  O7  1  0.24979800  0.90638000  0.96424500  1
  O  O8  1  0.11432500  0.59303200  0.36980100  1
  O  O9  1  0.16396700  0.66485800  0.12736400  1
  O  O10  1  0.16678300  0.68563600  0.62332700  1
  O  O11  1  0.12258100  0.59476300  0.87807100  1
  O  O12  1  0.59303200  0.47870700  0.63019900  1
  O  O13  1  0.59476300  0.47218200  0.12192900  1
  O  O14  1  0.48114700  0.16678300  0.37667300  1
  O  O15  1  0.66485800  0.50089100  0.87263600  1
  O  O16  1  0.49910900  0.16396700  0.87263600  1
  O  O17  1  0.09330700  0.34152700  0.46551700  1
  O  O18  1  0.07408800  0.31639500  0.78614900  1
  O  O19  1  0.08927300  0.33769500  0.28437100  1
  O  O20  1  0.68563600  0.51885300  0.37667300  1
  O  O21  1  0.09362000  0.34341900  0.96424500  1
  O  O22  1  0.52129300  0.11432500  0.63019900  1
  O  O23  1  0.52781800  0.12258100  0.12192900  1
  O  O24  1  0.00000000  0.00000000  0.12108300  1
  O  O25  1  0.00000000  0.00000000  0.37307500  1
  O  O26  1  0.00000000  0.00000000  0.62692500  1
  O  O27  1  0.00000000  0.00000000  0.87891700  1
  O  O28  1  0.47218200  0.87741900  0.87807100  1
  O  O29  1  0.47870700  0.88567500  0.36980100  1
  O  O30  1  0.90638000  0.65658100  0.03575500  1
  O  O31  1  0.31436400  0.48114700  0.62332700  1
  O  O32  1  0.91072700  0.66230500  0.71562900  1
  O  O33  1  0.92591200  0.68360500  0.21385100  1
  O  O34  1  0.90669300  0.65847300  0.53448300  1
  O  O35  1  0.50089100  0.83603300  0.12736400  1
  O  O36  1  0.33514200  0.49910900  0.12736400  1
  O  O37  1  0.51885300  0.83321700  0.62332700  1
  O  O38  1  0.40523700  0.52781800  0.87807100  1
  O  O39  1  0.40696800  0.52129300  0.36980100  1
  O  O40  1  0.87741900  0.40523700  0.12192900  1
  O  O41  1  0.83321700  0.31436400  0.37667300  1
  O  O42  1  0.83603300  0.33514200  0.87263600  1
  O  O43  1  0.88567500  0.40696800  0.63019900  1
  O  O44  1  0.75020200  0.09362000  0.03575500  1
  O  O45  1  0.75178000  0.09330700  0.53448300  1
  O  O46  1  0.75157800  0.08927300  0.71562900  1
  O  O47  1  0.75769300  0.07408800  0.21385100  1
  O  O48  1  0.65658100  0.75020200  0.96424500  1
  O  O49  1  0.65847300  0.75178000  0.46551700  1
  O  O50  1  0.66230500  0.75157800  0.28437100  1
  O  O51  1  0.68360500  0.75769300  0.78614900  1
loop_
_geom_bond_atom_site_label_1
_geom_bond_atom_site_label_2
_geom_bond_distance
_geom_bond_site_symmetry_2
Bi0 O25 2.339366 1_565
Bi0 O8 2.360796 1_555
Bi0 O5 2.377364 1_555
Bi0 O6 2.387186 1_555
Bi0 O33 2.404174 1_455
Bi0 O34 2.492572 1_455
Bi1 O27 2.295148 1_565
Bi1 O4 2.311788 1_555
Bi1 O7 2.366791 1_555
Bi1 O11 2.442364 1_555
Bi1 O32 2.460184 1_455
Bi1 O30 2.541850 1_456
Bi2 O24 2.295148 1_555
Bi2 O0 2.311788 1_555
Bi2 O3 2.366791 1_555
Bi2 O23 2.442364 1_555
Bi2 O5 2.460184 1_545
Bi2 O7 2.541848 1_544
Bi3 O26 2.339366 1_555
Bi3 O22 2.360796 1_555
Bi3 O1 2.377364 1_555
Bi3 O2 2.387186 1_555
Bi3 O4 2.404174 1_545
Bi3 O6 2.492572 1_545
Bi4 O26 2.339366 1_665
Bi4 O12 2.360796 1_555
Bi4 O32 2.377364 1_555
Bi4 O34 2.387186 1_555
Bi4 O51 2.404174 1_555
Bi4 O49 2.492572 1_555
Bi5 O24 2.295148 1_665
Bi5 O33 2.311788 1_555
Bi5 O30 2.366798 1_555
Bi5 O13 2.442364 1_555
Bi5 O50 2.460184 1_555
Bi5 O48 2.541852 1_554
Bi6 O9 2.291252 1_555
Bi6 O35 2.291255 1_555
Bi6 O36 2.291259 1_555
Bi6 O8 2.622877 1_555
Bi6 O29 2.622878 1_555
Bi6 O39 2.622883 1_555
Bi7 O40 2.304056 1_555
Bi7 O23 2.304057 1_555
Bi7 O13 2.304063 1_555
Bi7 O42 2.661526 1_554
Bi7 O16 2.661529 1_554
Bi7 O15 2.661532 1_554
Bi8 O41 2.177901 1_555
Bi8 O14 2.177905 1_555
Bi8 O20 2.177909 1_555
Bi9 O11 2.304056 1_555
Bi9 O28 2.304057 1_555
Bi9 O38 2.304063 1_555
Bi9 O9 2.661526 1_556
Bi9 O35 2.661529 1_556
Bi9 O36 2.661532 1_556
Bi10 O10 2.177901 1_555
Bi10 O37 2.177905 1_555
Bi10 O31 2.177909 1_555
Bi11 O42 2.291252 1_555
Bi11 O16 2.291255 1_555
Bi11 O15 2.291259 1_555
Bi11 O43 2.622877 1_555
Bi11 O22 2.622878 1_555
Bi11 O12 2.622883 1_555
Bi12 O27 2.295148 1_555
Bi12 O18 2.311788 1_555
Bi12 O21 2.366798 1_555
Bi12 O38 2.442364 1_555
Bi12 O1 2.460184 1_555
Bi12 O3 2.541852 1_556
Bi13 O25 2.339366 1_555
Bi13 O39 2.360796 1_555
Bi13 O19 2.377364 1_555
Bi13 O17 2.387186 1_555
Bi13 O0 2.404174 1_555
Bi13 O2 2.492572 1_555
Bi14 O25 2.339366 1_665
Bi14 O29 2.360796 1_555
Bi14 O50 2.377364 1_555
Bi14 O49 2.387186 1_555
Bi14 O47 2.404174 1_565
Bi14 O45 2.492572 1_565
Bi15 O27 2.295148 1_665
Bi15 O51 2.311788 1_555
Bi15 O48 2.366791 1_555
Bi15 O28 2.442364 1_555
Bi15 O46 2.460184 1_565
Bi15 O44 2.541848 1_566
Bi16 O24 2.295148 1_655
Bi16 O47 2.311788 1_555
Bi16 O44 2.366791 1_555
Bi16 O40 2.442364 1_555
Bi16 O19 2.460184 1_655
Bi16 O21 2.541850 1_654
Bi17 O26 2.339366 1_655
Bi17 O43 2.360796 1_555
Bi17 O46 2.377364 1_555
Bi17 O45 2.387186 1_555
Bi17 O18 2.404174 1_655
Bi17 O17 2.492572 1_655
O0 Si1 1.660513 1_555
O1 Si0 1.663478 1_555
O2 Si0 1.664583 1_555
O3 Si1 1.671644 1_555
O4 Si4 1.660514 1_555
O5 Si5 1.663478 1_555
O6 Si5 1.664583 1_555
O7 Si4 1.671644 1_555
O8 Si2 1.644882 1_555
O9 Si8 1.634107 1_455
O10 Si9 1.622407 1_455
O11 Si3 1.643832 1_555
O12 Si0 1.644882 1_555
O13 Si1 1.643832 1_555
O14 Si5 1.622407 1_545
O15 Si10 1.634098 1_555
O16 Si4 1.634106 1_545
O17 Si2 1.664583 1_555
O18 Si3 1.660507 1_555
O19 Si2 1.663478 1_555
O20 Si11 1.622407 1_555
O21 Si3 1.671633 1_555
O22 Si6 1.644882 1_555
O23 Si7 1.643824 1_555
O28 Si4 1.643824 1_555
O29 Si5 1.644882 1_555
O30 Si8 1.671633 1_555
O31 Si0 1.622407 1_555
O32 Si9 1.663478 1_555
O33 Si8 1.660507 1_555
O34 Si9 1.664583 1_555
O35 Si7 1.634106 1_565
O36 Si1 1.634098 1_555
O37 Si6 1.622407 1_565
O38 Si10 1.643832 1_555
O39 Si11 1.644882 1_555
O40 Si8 1.643832 1_555
O41 Si2 1.622407 1_655
O42 Si3 1.634107 1_655
O43 Si9 1.644882 1_555
O44 Si7 1.671644 1_555
O45 Si6 1.664583 1_555
O46 Si6 1.663478 1_555
O47 Si7 1.660514 1_555
O48 Si10 1.671644 1_555
O49 Si11 1.664583 1_555
O50 Si11 1.663478 1_555
O51 Si10 1.660513 1_555
