# generated using pymatgen
data_GeWO4
_symmetry_space_group_name_H-M   'P 1'
_cell_length_a   6.04224500
_cell_length_b   5.09685700
_cell_length_c   5.16984472
_cell_angle_alpha   88.88339277
_cell_angle_beta   90.00000000
_cell_angle_gamma   90.00000000
_symmetry_Int_Tables_number   1
_chemical_formula_structural   GeWO4
_chemical_formula_sum   'Ge2 W2 O8'
_cell_volume   159.18267603
_cell_formula_units_Z   2
loop_
 _symmetry_equiv_pos_site_id
 _symmetry_equiv_pos_as_xyz
  1  'x, y, z'
loop_
 _atom_site_type_symbol
 _atom_site_label
 _atom_site_symmetry_multiplicity
 _atom_site_fract_x
 _atom_site_fract_y
 _atom_site_fract_z
 _atom_site_occupancy
  Ge  Ge0  1  0.30838000  0.50000000  0.75000000  1
  Ge  Ge1  1  0.69162000  0.50000000  0.25000000  1
  W  W0  1  0.82982400  0.00000000  0.75000000  1
  W  W1  1  0.17017600  0.00000000  0.25000000  1
  O  O0  1  0.09780400  0.20434900  0.55746200  1
  O  O1  1  0.90219600  0.20434900  0.05746200  1
  O  O2  1  0.63596700  0.24224100  0.61333700  1
  O  O3  1  0.36403300  0.24224100  0.11333700  1
  O  O4  1  0.63596700  0.75775900  0.88666300  1
  O  O5  1  0.36403300  0.75775900  0.38666300  1
  O  O6  1  0.09780400  0.79565100  0.94253800  1
  O  O7  1  0.90219600  0.79565100  0.44253800  1
loop_
_geom_bond_atom_site_label_1
_geom_bond_atom_site_label_2
_geom_bond_distance
_geom_bond_site_symmetry_2
Ge0 O0 2.222355 1_555
Ge0 O6 2.222355 1_555
Ge0 O3 2.295917 1_556
Ge0 O5 2.295917 1_555
Ge0 O2 2.485798 1_555
Ge0 O4 2.485798 1_555
Ge1 O7 2.222355 1_555
Ge1 O1 2.222355 1_555
Ge1 O2 2.295917 1_555
Ge1 O4 2.295917 1_554
Ge1 O3 2.485798 1_555
Ge1 O5 2.485798 1_555
O0 W1 1.966508 1_555
O0 W0 2.158011 1_455
O1 W0 1.966508 1_554
O1 W1 2.158011 1_655
O2 W0 1.833468 1_555
O3 W1 1.833468 1_555
O4 W0 1.833468 1_565
O5 W1 1.833468 1_565
O6 W1 1.966508 1_566
O6 W0 2.158011 1_465
O7 W0 1.966508 1_565
O7 W1 2.158011 1_665
