# generated using pymatgen
data_Li2FeO2F
_symmetry_space_group_name_H-M   'P 1'
_cell_length_a   2.96740400
_cell_length_b   2.96740429
_cell_length_c   14.49110000
_cell_angle_alpha   89.99989096
_cell_angle_beta   89.99989463
_cell_angle_gamma   59.99994227
_symmetry_Int_Tables_number   1
_chemical_formula_structural   Li2FeO2F
_chemical_formula_sum   'Li4 Fe2 O4 F2'
_cell_volume   110.50581448
_cell_formula_units_Z   2
loop_
 _symmetry_equiv_pos_site_id
 _symmetry_equiv_pos_as_xyz
  1  'x, y, z'
loop_
 _atom_site_type_symbol
 _atom_site_label
 _atom_site_symmetry_multiplicity
 _atom_site_fract_x
 _atom_site_fract_y
 _atom_site_fract_z
 _atom_site_occupancy
  Li  Li0  1  0.66666700  0.66666700  0.66667200  1
  Li  Li1  1  0.66666700  0.66666700  0.16666500  1
  Li  Li2  1  0.00000000  0.00000000  0.00554100  1
  Li  Li3  1  0.33333300  0.33333300  0.32779300  1
  Fe  Fe0  1  0.33333100  0.33333400  0.83546600  1
  Fe  Fe1  1  0.00000300  0.99999800  0.49785900  1
  O  O0  1  0.00000000  0.00000000  0.75759200  1
  O  O1  1  0.33333300  0.33333300  0.57573000  1
  O  O2  1  0.66666700  0.66666700  0.42001400  1
  O  O3  1  0.66666700  0.66666700  0.91331900  1
  F  F0  1  0.00000000  0.00000000  0.24755600  1
  F  F1  1  0.33333300  0.33333300  0.08579400  1
loop_
_geom_bond_atom_site_label_1
_geom_bond_atom_site_label_2
_geom_bond_distance
_geom_bond_site_symmetry_2
Li0 O0 2.161260 1_565
Li0 O0 2.161260 1_655
Li0 O0 2.161262 1_665
Li0 O1 2.161452 1_655
Li0 O1 2.161452 1_565
Li0 O1 2.161461 1_555
Li2 O3 2.172813 1_544
Li2 O3 2.172813 1_454
Li2 O3 2.172816 1_444
Li3 O2 2.172802 1_455
Li3 O2 2.172802 1_545
Li3 O2 2.172811 1_555
Fe0 O3 2.051319 1_455
Fe0 O3 2.051326 1_545
Fe0 O3 2.051335 1_555
Fe0 O0 2.051491 1_565
Fe0 O0 2.051493 1_555
Fe0 O0 2.051498 1_655
Fe1 O2 2.051256 1_555
Fe1 O2 2.051266 1_455
Fe1 O2 2.051266 1_465
Fe1 O1 2.051465 1_555
Fe1 O1 2.051469 1_565
Fe1 O1 2.051476 1_465
F0 Li3 2.070527 1_455
F0 Li3 2.070527 1_545
F0 Li3 2.070529 1_555
F0 Li1 2.075864 1_545
F0 Li1 2.075864 1_455
F0 Li1 2.075866 1_445
F1 Li2 2.070657 1_655
F1 Li2 2.070657 1_565
F1 Li2 2.070659 1_555
F1 Li1 2.075698 1_455
F1 Li1 2.075698 1_545
F1 Li1 2.075706 1_555
