# generated using pymatgen
data_Ho2B4O9
_symmetry_space_group_name_H-M   'P 1'
_cell_length_a   6.18562600
_cell_length_b   6.44568217
_cell_length_c   7.48688203
_cell_angle_alpha   102.51358905
_cell_angle_beta   97.13334251
_cell_angle_gamma   102.41791505
_symmetry_Int_Tables_number   1
_chemical_formula_structural   Ho2B4O9
_chemical_formula_sum   'Ho4 B8 O18'
_cell_volume   279.99494231
_cell_formula_units_Z   2
loop_
 _symmetry_equiv_pos_site_id
 _symmetry_equiv_pos_as_xyz
  1  'x, y, z'
loop_
 _atom_site_type_symbol
 _atom_site_label
 _atom_site_symmetry_multiplicity
 _atom_site_fract_x
 _atom_site_fract_y
 _atom_site_fract_z
 _atom_site_occupancy
  Ho  Ho0  1  0.11275900  0.32286400  0.64045800  1
  Ho  Ho1  1  0.45056800  0.90902200  0.71269200  1
  Ho  Ho2  1  0.54943200  0.09097800  0.28730800  1
  Ho  Ho3  1  0.88724100  0.67713600  0.35954200  1
  B  B0  1  0.00562800  0.85436300  0.81038600  1
  B  B1  1  0.26891200  0.66624100  0.01861500  1
  B  B2  1  0.37364100  0.64329300  0.34905900  1
  B  B3  1  0.33846400  0.31792300  0.07283300  1
  B  B4  1  0.66153600  0.68207700  0.92716700  1
  B  B5  1  0.62635900  0.35670700  0.65094100  1
  B  B6  1  0.73108800  0.33375900  0.98138500  1
  B  B7  1  0.99437200  0.14563700  0.18961400  1
  O  O0  1  0.06948900  0.95568700  0.67488800  1
  O  O1  1  0.13972200  0.71759600  0.85642300  1
  O  O2  1  0.22613300  0.42822100  0.95756000  1
  O  O3  1  0.21917100  0.59489800  0.47804200  1
  O  O4  1  0.23613700  0.73687100  0.21143000  1
  O  O5  1  0.18762600  0.13173300  0.12076100  1
  O  O6  1  0.42015700  0.18213700  0.55469800  1
  O  O7  1  0.49520200  0.20903300  0.97944600  1
  O  O8  1  0.53954600  0.53767600  0.74769000  1
  O  O9  1  0.46045400  0.46232400  0.25231000  1
  O  O10  1  0.50479800  0.79096700  0.02055400  1
  O  O11  1  0.57984300  0.81786300  0.44530200  1
  O  O12  1  0.81237400  0.86826700  0.87923900  1
  O  O13  1  0.76386300  0.26312900  0.78857000  1
  O  O14  1  0.78082900  0.40510200  0.52195800  1
  O  O15  1  0.77386700  0.57177900  0.04244000  1
  O  O16  1  0.86027800  0.28240400  0.14357700  1
  O  O17  1  0.93051100  0.04431300  0.32511200  1
loop_
_geom_bond_atom_site_label_1
_geom_bond_atom_site_label_2
_geom_bond_distance
_geom_bond_site_symmetry_2
Ho0 O2 2.296166 1_555
Ho0 O14 2.345886 1_455
Ho0 O3 2.369139 1_555
Ho0 O6 2.375539 1_555
Ho0 O0 2.397593 1_545
Ho0 O13 2.541156 1_455
Ho0 O17 2.588467 1_455
Ho0 O8 2.636443 1_555
Ho0 O1 2.661490 1_555
Ho1 O11 2.254391 1_555
Ho1 O6 2.350145 1_565
Ho1 O7 2.400873 1_565
Ho1 O3 2.412942 1_555
Ho1 O0 2.429642 1_555
Ho1 O12 2.516777 1_555
Ho1 O1 2.538976 1_555
Ho1 O13 2.559345 1_565
Ho1 O10 2.584967 1_556
Ho1 O8 2.627422 1_555
Ho2 O6 2.254391 1_555
Ho2 O11 2.350145 1_545
Ho2 O10 2.400873 1_545
Ho2 O14 2.412942 1_555
Ho2 O17 2.429642 1_555
Ho2 O5 2.516777 1_555
Ho2 O16 2.538976 1_555
Ho2 O4 2.559345 1_545
Ho2 O7 2.584967 1_554
Ho2 O9 2.627422 1_555
Ho3 O15 2.296166 1_555
Ho3 O3 2.345886 1_655
Ho3 O14 2.369139 1_555
Ho3 O11 2.375539 1_555
Ho3 O17 2.397593 1_565
Ho3 O4 2.541156 1_655
Ho3 O0 2.588467 1_655
Ho3 O9 2.636443 1_555
Ho3 O16 2.661490 1_555
B0 O12 1.371801 1_455
B0 O0 1.373821 1_555
B0 O1 1.399674 1_555
B1 O2 1.457464 1_554
B1 O4 1.469653 1_555
B1 O10 1.503562 1_555
B1 O1 1.506543 1_554
B2 O9 1.474296 1_555
B2 O3 1.474558 1_555
B2 O11 1.488402 1_555
B2 O4 1.556056 1_555
B3 O2 1.436135 1_554
B3 O9 1.464735 1_555
B3 O7 1.473026 1_554
B3 O5 1.492573 1_555
B4 O15 1.436135 1_556
B4 O8 1.464735 1_555
B4 O10 1.473026 1_556
B4 O12 1.492573 1_555
B5 O8 1.474296 1_555
B5 O14 1.474558 1_555
B5 O6 1.488402 1_555
B5 O13 1.556056 1_555
B6 O15 1.457464 1_556
B6 O13 1.469653 1_555
B6 O7 1.503562 1_555
B6 O16 1.506543 1_556
B7 O5 1.371801 1_655
B7 O17 1.373821 1_555
B7 O16 1.399674 1_555
