# generated using pymatgen
data_Li2MnVP2(O4F)2
_symmetry_space_group_name_H-M   'P 1'
_cell_length_a   5.19811623
_cell_length_b   10.50719468
_cell_length_c   10.47878742
_cell_angle_alpha   78.26475244
_cell_angle_beta   80.56238972
_cell_angle_gamma   82.72835081
_symmetry_Int_Tables_number   1
_chemical_formula_structural   Li2MnVP2(O4F)2
_chemical_formula_sum   'Li6 Mn3 V3 P6 O24 F6'
_cell_volume   550.19802119
_cell_formula_units_Z   3
loop_
 _symmetry_equiv_pos_site_id
 _symmetry_equiv_pos_as_xyz
  1  'x, y, z'
loop_
 _atom_site_type_symbol
 _atom_site_label
 _atom_site_symmetry_multiplicity
 _atom_site_fract_x
 _atom_site_fract_y
 _atom_site_fract_z
 _atom_site_occupancy
  Li  Li0  1  0.00112500  0.26800800  0.08175900  1
  Li  Li1  1  0.33247700  0.39929100  0.58639800  1
  Li  Li2  1  0.66647200  0.06387300  0.25515400  1
  Li  Li3  1  0.33172200  0.93519400  0.74558900  1
  Li  Li4  1  0.66827500  0.60265200  0.41182600  1
  Li  Li5  1  0.99921500  0.73128900  0.91927100  1
  Mn  Mn0  1  0.00034600  0.99970000  0.99991500  1
  Mn  Mn1  1  0.49944200  0.50042200  0.00061700  1
  Mn  Mn2  1  0.33150500  0.66741000  0.66724900  1
  V  V0  1  0.16646200  0.83319900  0.33354600  1
  V  V1  1  0.66889400  0.33257800  0.33341000  1
  V  V2  1  0.83466600  0.16648900  0.66528200  1
  P  P0  1  0.18708700  0.13420500  0.37190800  1
  P  P1  1  0.15029800  0.53166600  0.29341400  1
  P  P2  1  0.52104900  0.80225800  0.03904100  1
  P  P3  1  0.48011000  0.19782100  0.96007600  1
  P  P4  1  0.85192100  0.47043500  0.70771000  1
  P  P5  1  0.81005800  0.86364500  0.62761300  1
  O  O0  1  0.25346400  0.11085800  0.02557600  1
  O  O1  1  0.02575500  0.66750400  0.32137200  1
  O  O2  1  0.11861700  0.13341600  0.51950900  1
  O  O3  1  0.21957300  0.53264600  0.14508800  1
  O  O4  1  0.07665200  0.55805000  0.64188500  1
  O  O5  1  0.05557400  0.81556800  0.70149800  1
  O  O6  1  0.40938700  0.22233100  0.30706300  1
  O  O7  1  0.39203800  0.48352800  0.36849500  1
  O  O8  1  0.31030000  0.99847100  0.34330900  1
  O  O9  1  0.45539000  0.80061800  0.18596500  1
  O  O10  1  0.36233300  0.33301000  0.99371300  1
  O  O11  1  0.72469300  0.14692900  0.03461800  1
  O  O12  1  0.27633600  0.85324700  0.96460200  1
  O  O13  1  0.63877000  0.66678400  0.00624200  1
  O  O14  1  0.54711800  0.20012900  0.81274900  1
  O  O15  1  0.69032500  0.99927400  0.65837400  1
  O  O16  1  0.60817200  0.51905600  0.63270800  1
  O  O17  1  0.58636900  0.77551800  0.69397500  1
  O  O18  1  0.94395100  0.18177700  0.29771500  1
  O  O19  1  0.92737000  0.44385700  0.35866000  1
  O  O20  1  0.78195300  0.46765000  0.85604200  1
  O  O21  1  0.87690100  0.86563000  0.48039900  1
  O  O22  1  0.97259600  0.33486000  0.67724400  1
  O  O23  1  0.74771200  0.88906800  0.97298000  1
  F  F0  1  0.07035400  0.06586000  0.79305500  1
  F  F1  1  0.25304300  0.60405700  0.86972600  1
  F  F2  1  0.40281600  0.73206300  0.45956900  1
  F  F3  1  0.60040700  0.27034300  0.53292900  1
  F  F4  1  0.74071900  0.39348400  0.13846400  1
  F  F5  1  0.93019300  0.93427700  0.20670100  1
loop_
_geom_bond_atom_site_label_1
_geom_bond_atom_site_label_2
_geom_bond_distance
_geom_bond_site_symmetry_2
Li0 O10 2.084054 1_554
Li0 O0 2.094638 1_555
Li0 O11 2.208722 1_455
Li0 O18 2.245838 1_455
Li1 O22 2.082904 1_455
Li1 O4 2.113876 1_555
Li1 O16 2.192215 1_555
Li1 O7 2.260180 1_555
Li2 O8 2.063081 1_545
Li2 O6 2.102509 1_555
Li2 O18 2.168434 1_555
Li2 O11 2.282716 1_555
Li3 O15 2.066884 1_555
Li3 O17 2.105146 1_555
Li3 O5 2.182735 1_555
Li3 O12 2.265722 1_555
Li4 O1 2.072661 1_655
Li4 O19 2.114549 1_555
Li4 O7 2.175922 1_555
Li4 O16 2.287293 1_555
Li5 O13 2.076213 1_556
Li5 O23 2.088977 1_555
Li5 O12 2.209542 1_655
Li5 O5 2.258744 1_655
Mn0 O23 1.948567 1_455
Mn0 O0 1.949460 1_566
Mn0 O12 2.015366 1_555
Mn0 O11 2.018735 1_466
Mn1 O3 1.970899 1_555
Mn1 O20 1.981126 1_554
Mn1 O13 1.989947 1_555
Mn1 O10 1.998353 1_554
Mn2 O17 1.938012 1_555
Mn2 O4 1.941912 1_555
Mn2 O5 2.025508 1_555
Mn2 O16 2.029873 1_555
O0 P3 1.564039 1_554
O1 P1 1.554362 1_555
O1 V0 2.006384 1_555
O2 P0 1.527731 1_555
O2 V2 1.994837 1_455
O3 P1 1.535067 1_555
O4 P4 1.561277 1_455
O5 P5 1.576417 1_455
O6 P0 1.553001 1_555
O6 V1 1.971177 1_555
O7 P1 1.566938 1_555
O7 V1 2.051271 1_555
O8 P0 1.553608 1_565
O8 V0 2.002780 1_555
O9 P2 1.518381 1_555
O9 V0 2.021859 1_555
O10 P3 1.558685 1_555
O11 P3 1.579913 1_554
O12 P2 1.580021 1_556
O13 P2 1.558309 1_555
O14 P3 1.521781 1_555
O14 V2 2.019388 1_555
O15 P5 1.555203 1_555
O15 V2 2.014537 1_565
O16 P4 1.575893 1_555
O17 P5 1.561557 1_555
O18 P0 1.567109 1_655
O18 V1 2.046215 1_555
O19 P1 1.554267 1_655
O19 V1 1.970393 1_555
O20 P4 1.532288 1_555
O21 P5 1.521124 1_555
O21 V0 2.018306 1_655
O22 P4 1.554912 1_555
O22 V2 2.024914 1_555
O23 P2 1.564325 1_556
F0 Li3 1.887369 1_545
F0 V2 2.011399 1_455
F0 Mn0 2.122907 1_545
F1 Li5 1.846282 1_455
F1 Mn2 2.078833 1_555
F1 Mn1 2.079171 1_556
F2 Li4 1.891727 1_555
F2 V0 2.003327 1_555
F2 Mn2 2.129015 1_555
F3 Li1 1.914297 1_555
F3 V1 2.045520 1_555
F3 V2 2.049120 1_555
F4 Li0 1.877942 1_655
F4 V1 2.000134 1_555
F4 Mn1 2.121121 1_555
F5 Li2 1.889883 1_565
F5 V0 2.008471 1_655
F5 Mn0 2.121140 1_654
