# generated using pymatgen
data_Li3Fe4(BO3)4
_symmetry_space_group_name_H-M   'P 1'
_cell_length_a   5.21698285
_cell_length_b   9.12637421
_cell_length_c   11.43367759
_cell_angle_alpha   67.91252328
_cell_angle_beta   77.23465628
_cell_angle_gamma   89.79590899
_symmetry_Int_Tables_number   1
_chemical_formula_structural   Li3Fe4(BO3)4
_chemical_formula_sum   'Li6 Fe8 B8 O24'
_cell_volume   490.05377037
_cell_formula_units_Z   2
loop_
 _symmetry_equiv_pos_site_id
 _symmetry_equiv_pos_as_xyz
  1  'x, y, z'
loop_
 _atom_site_type_symbol
 _atom_site_label
 _atom_site_symmetry_multiplicity
 _atom_site_fract_x
 _atom_site_fract_y
 _atom_site_fract_z
 _atom_site_occupancy
  Li  Li0  1  0.97096100  0.95365300  0.42443000  1
  Li  Li1  1  0.70739400  0.71648800  0.90940400  1
  Li  Li2  1  0.51400400  0.49989300  0.65925300  1
  Li  Li3  1  0.73298300  0.75000000  0.16847600  1
  Li  Li4  1  0.21075700  0.21873100  0.90889400  1
  Li  Li5  1  0.23214600  0.25383300  0.16218300  1
  Fe  Fe0  1  0.98425800  0.63585400  0.38458700  1
  Fe  Fe1  1  0.73217500  0.06529300  0.87438500  1
  Fe  Fe2  1  0.51527800  0.84978600  0.63380800  1
  Fe  Fe3  1  0.75110800  0.43524800  0.13003400  1
  Fe  Fe4  1  0.23401900  0.56339500  0.87960800  1
  Fe  Fe5  1  0.47902500  0.14969700  0.38784700  1
  Fe  Fe6  1  0.03275100  0.34206400  0.62181400  1
  Fe  Fe7  1  0.26197800  0.92670100  0.13755800  1
  B  B0  1  0.97951600  0.30757800  0.37463600  1
  B  B1  1  0.72558200  0.39244000  0.87906100  1
  B  B2  1  0.52532100  0.18768000  0.63413000  1
  B  B3  1  0.76729000  0.10822300  0.12166900  1
  B  B4  1  0.48131200  0.82773000  0.37115300  1
  B  B5  1  0.22880400  0.89828800  0.88093900  1
  B  B6  1  0.01659600  0.67952900  0.62833500  1
  B  B7  1  0.26831800  0.60513000  0.12397300  1
  O  O0  1  0.96314300  0.89813900  0.88372400  1
  O  O1  1  0.87963500  0.27388600  0.85729300  1
  O  O2  1  0.83116500  0.50222000  0.91671600  1
  O  O3  1  0.89754100  0.81760800  0.61509200  1
  O  O4  1  0.90163500  0.56283500  0.59878100  1
  O  O5  1  0.74694900  0.15218400  0.68646000  1
  O  O6  1  0.74278300  0.32198100  0.33577900  1
  O  O7  1  0.47116600  0.39514000  0.86363400  1
  O  O8  1  0.38131200  0.78893300  0.84771700  1
  O  O9  1  0.57798200  0.93715800  0.41589500  1
  O  O10  1  0.63678600  0.71723800  0.35094800  1
  O  O11  1  0.34716800  0.01064400  0.91372400  1
  O  O12  1  0.65850400  0.99855500  0.08135100  1
  O  O13  1  0.39553400  0.31512600  0.63937700  1
  O  O14  1  0.44734100  0.09042900  0.57658500  1
  O  O15  1  0.59667200  0.20223500  0.16990200  1
  O  O16  1  0.53935900  0.62352900  0.10890600  1
  O  O17  1  0.25552100  0.65717200  0.66727900  1
  O  O18  1  0.23104000  0.84403900  0.34477200  1
  O  O19  1  0.06686300  0.41072100  0.42034700  1
  O  O20  1  0.12675900  0.18338400  0.36230700  1
  O  O21  1  0.16178000  0.48523300  0.09592700  1
  O  O22  1  0.10566400  0.70807600  0.16261300  1
  O  O23  1  0.03351600  0.12126400  0.11173900  1
loop_
_geom_bond_atom_site_label_1
_geom_bond_atom_site_label_2
_geom_bond_distance
_geom_bond_site_symmetry_2
Li0 O18 1.949537 1_655
Li0 O3 2.009829 1_555
Li0 O20 2.048900 1_665
Li0 O9 2.082552 1_555
Li1 O8 2.000020 1_555
Li1 O0 2.022701 1_555
Li1 O2 2.034646 1_555
Li1 O16 2.087502 1_556
Li2 O13 1.906508 1_555
Li2 O17 1.979343 1_555
Li2 O4 1.997315 1_555
Li2 O7 2.124925 1_555
Li3 O16 1.928746 1_555
Li3 O10 1.939910 1_555
Li3 O22 1.971666 1_655
Li3 O12 2.180449 1_555
Li4 O7 1.945201 1_555
Li4 O1 1.951008 1_455
Li4 O11 2.011187 1_555
Li4 O23 2.128825 1_556
Li5 O23 1.915227 1_555
Li5 O15 1.970441 1_555
Li5 O21 2.020583 1_555
Li5 O20 2.071595 1_555
Fe0 O19 2.003559 1_655
Fe0 O10 2.017266 1_555
Fe0 O18 2.140711 1_655
Fe0 O4 2.221665 1_555
Fe0 O22 2.304667 1_655
Fe1 O0 1.926594 1_545
Fe1 O5 1.974192 1_555
Fe1 O1 1.979466 1_555
Fe1 O11 1.981065 1_555
Fe1 O12 2.152737 1_546
Fe2 O3 1.990880 1_555
Fe2 O17 2.086827 1_555
Fe2 O14 2.096017 1_565
Fe2 O8 2.237084 1_555
Fe2 O9 2.257922 1_555
Fe3 O16 2.005884 1_555
Fe3 O21 2.110523 1_655
Fe3 O15 2.121343 1_555
Fe3 O6 2.175027 1_555
Fe3 O2 2.219758 1_554
Fe4 O7 2.004860 1_555
Fe4 O8 2.069595 1_555
Fe4 O2 2.084453 1_455
Fe4 O17 2.226337 1_555
Fe4 O21 2.243069 1_556
Fe5 O6 1.915598 1_555
Fe5 O20 1.929454 1_555
Fe5 O9 1.931337 1_545
Fe5 O14 1.985425 1_555
Fe5 O15 2.289953 1_555
Fe6 O13 1.952008 1_555
Fe6 O4 2.065810 1_455
Fe6 O5 2.083408 1_455
Fe6 O19 2.112962 1_555
Fe6 O1 2.463222 1_455
Fe7 O22 2.051005 1_555
Fe7 O12 2.056126 1_555
Fe7 O23 2.099258 1_565
Fe7 O18 2.167045 1_555
Fe7 O11 2.315053 1_564
B0 O19 1.358377 1_655
B0 O6 1.391894 1_555
B0 O20 1.400264 1_655
B1 O7 1.375994 1_555
B1 O2 1.387690 1_555
B1 O1 1.409414 1_555
B2 O13 1.357874 1_555
B2 O14 1.395052 1_555
B2 O5 1.398959 1_555
B3 O23 1.370189 1_655
B3 O15 1.402157 1_555
B3 O12 1.415270 1_545
B4 O10 1.347098 1_555
B4 O18 1.398853 1_555
B4 O9 1.419585 1_555
B5 O0 1.379256 1_455
B5 O8 1.385363 1_555
B5 O11 1.403263 1_565
B6 O3 1.374480 1_455
B6 O17 1.403110 1_555
B6 O4 1.404580 1_455
B7 O16 1.389102 1_555
B7 O22 1.392392 1_555
B7 O21 1.398590 1_555
