# generated using pymatgen
data_NaLi2FePCO7
_symmetry_space_group_name_H-M   'P 1'
_cell_length_a   6.64051000
_cell_length_b   8.65227667
_cell_length_c   10.05756986
_cell_angle_alpha   91.76971570
_cell_angle_beta   90.06388372
_cell_angle_gamma   90.21632291
_symmetry_Int_Tables_number   1
_chemical_formula_structural   NaLi2FePCO7
_chemical_formula_sum   'Na4 Li8 Fe4 P4 C4 O28'
_cell_volume   577.58282172
_cell_formula_units_Z   4
loop_
 _symmetry_equiv_pos_site_id
 _symmetry_equiv_pos_as_xyz
  1  'x, y, z'
loop_
 _atom_site_type_symbol
 _atom_site_label
 _atom_site_symmetry_multiplicity
 _atom_site_fract_x
 _atom_site_fract_y
 _atom_site_fract_z
 _atom_site_occupancy
  Na  Na0  1  0.25891300  0.08561900  0.12114400  1
  Na  Na1  1  0.25075700  0.08457400  0.62268700  1
  Na  Na2  1  0.99636700  0.25367800  0.37700100  1
  Na  Na3  1  0.50167300  0.74607000  0.62375900  1
  Li  Li0  1  0.47571200  0.27678900  0.39209300  1
  Li  Li1  1  0.02019300  0.27379000  0.88840600  1
  Li  Li2  1  0.47946200  0.27577900  0.88882300  1
  Li  Li3  1  0.51696800  0.72953900  0.11287400  1
  Li  Li4  1  0.98284100  0.72773100  0.11250800  1
  Li  Li5  1  0.97937300  0.72724200  0.61099800  1
  Li  Li6  1  0.74293400  0.90573400  0.37126900  1
  Li  Li7  1  0.76140900  0.90536600  0.87611000  1
  Fe  Fe0  1  0.74965800  0.35112500  0.11102700  1
  Fe  Fe1  1  0.74348900  0.35571900  0.61509700  1
  Fe  Fe2  1  0.24555500  0.64789400  0.38443500  1
  Fe  Fe3  1  0.24965700  0.65050100  0.88826200  1
  P  P0  1  0.25591000  0.41726400  0.14377900  1
  P  P1  1  0.24110600  0.41441400  0.64857900  1
  P  P2  1  0.74399000  0.59210400  0.35041900  1
  P  P3  1  0.75548300  0.58920000  0.85558700  1
  C  C0  1  0.74947900  0.03986700  0.13217100  1
  C  C1  1  0.75806400  0.04493900  0.63729700  1
  C  C2  1  0.25828700  0.94696700  0.36359100  1
  C  C3  1  0.24909100  0.95174900  0.86699800  1
  O  O0  1  0.27973300  0.09567800  0.35693800  1
  O  O1  1  0.24608400  0.10180300  0.86153000  1
  O  O2  1  0.75216600  0.07968700  0.00885100  1
  O  O3  1  0.75310600  0.07778800  0.51189700  1
  O  O4  1  0.74784500  0.14896000  0.22569500  1
  O  O5  1  0.73706100  0.15564800  0.72748000  1
  O  O6  1  0.06677100  0.32304300  0.09895200  1
  O  O7  1  0.43698000  0.32374700  0.08632300  1
  O  O8  1  0.05728600  0.31388800  0.60776200  1
  O  O9  1  0.42832300  0.32646000  0.59342100  1
  O  O10  1  0.26924500  0.42582900  0.29979800  1
  O  O11  1  0.72886400  0.42803000  0.40854600  1
  O  O12  1  0.25362100  0.42668700  0.80549200  1
  O  O13  1  0.75239000  0.42124000  0.90765800  1
  O  O14  1  0.25339200  0.58506300  0.09467900  1
  O  O15  1  0.75542300  0.57498400  0.19466000  1
  O  O16  1  0.22776200  0.57953300  0.59455600  1
  O  O17  1  0.76896000  0.57674900  0.70026700  1
  O  O18  1  0.56192900  0.69581200  0.38928500  1
  O  O19  1  0.92938200  0.68446900  0.40442900  1
  O  O20  1  0.56812200  0.68550500  0.89874200  1
  O  O21  1  0.93471200  0.68622200  0.91191500  1
  O  O22  1  0.24125700  0.85941600  0.25727700  1
  O  O23  1  0.24833900  0.86432600  0.75939400  1
  O  O24  1  0.25210700  0.88148700  0.47864600  1
  O  O25  1  0.25283600  0.88364600  0.98009400  1
  O  O26  1  0.74779600  0.89642000  0.16554300  1
  O  O27  1  0.78213800  0.90422600  0.67525500  1
loop_
_geom_bond_atom_site_label_1
_geom_bond_atom_site_label_2
_geom_bond_distance
_geom_bond_site_symmetry_2
Na0 O25 2.216795 1_544
Na0 O0 2.374279 1_555
Na0 O7 2.406862 1_555
Na0 O22 2.425494 1_545
Na0 O6 2.438287 1_555
Na0 O1 2.620460 1_554
Na1 O24 2.242625 1_545
Na1 O8 2.376326 1_555
Na1 O23 2.384085 1_545
Na1 O1 2.402444 1_555
Na1 O9 2.424305 1_555
Na1 O0 2.684571 1_555
Na2 O0 2.335290 1_655
Na2 O11 2.350261 1_555
Na2 O8 2.396504 1_655
Na2 O4 2.399623 1_555
Na2 O10 2.481780 1_655
Na2 O3 2.622980 1_555
Na2 O6 2.916098 1_655
Na3 O16 2.328913 1_555
Na3 O27 2.354627 1_555
Na3 O23 2.381126 1_555
Na3 O18 2.418794 1_555
Na3 O17 2.444367 1_555
Na3 O24 2.522745 1_555
Na3 O20 2.864739 1_555
Li0 O0 2.055133 1_555
Li0 O9 2.081471 1_555
Li0 O10 2.118676 1_555
Li0 O11 2.129581 1_555
Li1 O1 2.128487 1_555
Li1 O6 2.168693 1_556
Li1 O13 2.197787 1_455
Li1 O12 2.214449 1_555
Li2 O7 2.036839 1_556
Li2 O1 2.167690 1_555
Li2 O12 2.176222 1_555
Li2 O13 2.207236 1_555
Li2 O5 2.560300 1_555
Li3 O14 2.151329 1_555
Li3 O26 2.156203 1_555
Li3 O20 2.202424 1_554
Li3 O15 2.247942 1_555
Li3 O22 2.577749 1_555
Li3 O25 2.600026 1_554
Li4 O21 2.062593 1_554
Li4 O15 2.182914 1_555
Li4 O14 2.188026 1_655
Li4 O26 2.195886 1_555
Li4 O22 2.498016 1_655
Li4 O25 2.627923 1_654
Li5 O16 2.093984 1_655
Li5 O27 2.105687 1_555
Li5 O19 2.124513 1_555
Li5 O17 2.124889 1_555
Li5 O23 2.587111 1_655
Li6 O3 2.022401 1_565
Li6 O26 2.068477 1_555
Li6 O18 2.186513 1_555
Li6 O19 2.316390 1_555
Li7 O2 1.984321 1_566
Li7 O27 2.024673 1_555
Li7 O21 2.259860 1_555
Li7 O20 2.308017 1_555
Fe0 O15 2.087887 1_555
Fe0 O7 2.102508 1_555
Fe0 O6 2.123854 1_655
Fe0 O4 2.124695 1_555
Fe0 O13 2.151430 1_554
Fe0 O2 2.534425 1_555
Fe1 O17 2.077439 1_555
Fe1 O5 2.096760 1_555
Fe1 O8 2.117294 1_655
Fe1 O9 2.117372 1_555
Fe1 O11 2.190150 1_555
Fe1 O3 2.590617 1_555
Fe2 O10 2.083885 1_555
Fe2 O19 2.133242 1_455
Fe2 O18 2.140078 1_555
Fe2 O24 2.205802 1_555
Fe2 O16 2.215199 1_555
Fe2 O22 2.265109 1_555
Fe3 O12 2.084368 1_555
Fe3 O21 2.127792 1_455
Fe3 O20 2.137237 1_555
Fe3 O14 2.168818 1_556
Fe3 O25 2.192554 1_555
Fe3 O23 2.291489 1_555
C0 O26 1.295704 1_545
C0 O2 1.297598 1_555
C0 O4 1.311909 1_555
C1 O27 1.297544 1_545
C1 O3 1.301790 1_555
C1 O5 1.306642 1_555
C2 O22 1.295759 1_555
C2 O0 1.297799 1_565
C2 O24 1.304660 1_555
C3 O25 1.297349 1_555
C3 O23 1.301080 1_555
C3 O1 1.301396 1_565
O6 P0 1.553592 1_555
O7 P0 1.553836 1_555
O8 P1 1.543976 1_555
O9 P1 1.554050 1_555
O10 P0 1.571016 1_555
O11 P2 1.554826 1_555
O12 P1 1.580529 1_555
O13 P3 1.559934 1_555
O14 P0 1.548044 1_555
O15 P2 1.570931 1_555
O16 P1 1.546906 1_555
O17 P3 1.565213 1_555
O18 P2 1.551507 1_555
O19 P2 1.553581 1_555
O20 P3 1.554787 1_555
O21 P3 1.550397 1_555
