# generated using pymatgen
data_SrV2(PO5)2
_symmetry_space_group_name_H-M   'P 1'
_cell_length_a   10.09306592
_cell_length_b   8.90573030
_cell_length_c   7.04206910
_cell_angle_alpha   77.55386256
_cell_angle_beta   59.49952162
_cell_angle_gamma   42.94661581
_symmetry_Int_Tables_number   1
_chemical_formula_structural   SrV2(PO5)2
_chemical_formula_sum   'Sr2 V4 P4 O20'
_cell_volume   358.22689744
_cell_formula_units_Z   2
loop_
 _symmetry_equiv_pos_site_id
 _symmetry_equiv_pos_as_xyz
  1  'x, y, z'
loop_
 _atom_site_type_symbol
 _atom_site_label
 _atom_site_symmetry_multiplicity
 _atom_site_fract_x
 _atom_site_fract_y
 _atom_site_fract_z
 _atom_site_occupancy
  Sr  Sr0  1  0.99565200  0.99964700  0.00222800  1
  Sr  Sr1  1  0.24484300  0.25154400  0.25180700  1
  V  V0  1  0.64885800  0.08493200  0.62200300  1
  V  V1  1  0.63079600  0.60863100  0.59133400  1
  V  V2  1  0.63704700  0.62623300  0.08284600  1
  V  V3  1  0.15886200  0.60390100  0.60619700  1
  P  P0  1  0.79445200  0.78074600  0.20606800  1
  P  P1  1  0.05601800  0.02791400  0.44428700  1
  P  P2  1  0.22191100  0.19491800  0.78633700  1
  P  P3  1  0.46833500  0.45417900  0.02518900  1
  O  O0  1  0.29224700  0.90556000  0.23568400  1
  O  O1  1  0.18177500  0.34617300  0.61338400  1
  O  O2  1  0.69303300  0.99531200  0.33146600  1
  O  O3  1  0.67811600  0.64750500  0.82196300  1
  O  O4  1  0.62330700  0.84248500  0.17181700  1
  O  O5  1  0.90267300  0.05938800  0.39717600  1
  O  O6  1  0.59547900  0.57827500  0.41114100  1
  O  O7  1  0.32846300  0.97224600  0.68853400  1
  O  O8  1  0.57152500  0.23096600  0.90941400  1
  O  O9  1  0.85417900  0.60727600  0.34759900  1
  O  O10  1  0.83623700  0.83415100  0.65740700  1
  O  O11  1  0.36549500  0.17014900  0.84616800  1
  O  O12  1  0.08972500  0.88302400  0.61661800  1
  O  O13  1  0.40325700  0.62434400  0.89165700  1
  O  O14  1  0.42047300  0.40750200  0.57003500  1
  O  O15  1  0.63499700  0.39725000  0.07503800  1
  O  O16  1  0.25846300  0.54507500  0.27598200  1
  O  O17  1  0.00981800  0.68907600  0.97276200  1
  O  O18  1  0.98120600  0.32123600  0.99075500  1
  O  O19  1  0.92748900  0.26721900  0.54291700  1
loop_
_geom_bond_atom_site_label_1
_geom_bond_atom_site_label_2
_geom_bond_distance
_geom_bond_site_symmetry_2
O0 P1 1.536627 1_565
O0 V2 2.033661 1_555
O0 Sr1 2.770067 1_565
O1 P2 1.567417 1_555
O1 V3 2.123432 1_555
O1 Sr1 2.468425 1_555
O2 P0 1.557318 1_555
O2 V0 2.068519 1_565
O2 Sr0 2.766169 1_555
O3 V2 1.665766 1_556
O3 V1 2.063369 1_555
O4 P0 1.523040 1_555
O4 V2 2.040030 1_555
O4 Sr1 2.551085 1_565
O5 P1 1.558877 1_655
O5 V0 2.075103 1_555
O5 Sr0 2.481239 1_545
O6 V1 1.599507 1_555
O6 V2 2.134324 1_555
O7 P2 1.509348 1_565
O7 V1 2.152974 1_555
O7 Sr0 2.779004 1_456
O8 P3 1.583269 1_556
O8 V0 2.107603 1_555
O8 Sr1 2.820406 1_556
O9 P0 1.525189 1_555
O9 V1 2.017511 1_555
O9 Sr1 2.443885 1_655
O10 V0 1.637659 1_565
O10 V3 2.071151 1_655
O11 P2 1.561450 1_555
O11 V0 2.000857 1_555
O11 Sr1 2.497476 1_556
O12 P1 1.534580 1_565
O12 V3 2.039296 1_555
O12 Sr0 2.551255 1_456
O13 P3 1.472319 1_556
O13 V1 2.119758 1_555
O13 Sr0 2.538174 1_456
O14 V3 1.686532 1_555
O14 V0 2.099707 1_555
O15 P3 1.576072 1_555
O15 V2 2.067195 1_555
O15 Sr0 2.463691 1_545
O16 P3 1.603066 1_555
O16 V3 2.018334 1_555
O16 Sr1 2.760998 1_555
O17 P0 1.563902 1_456
O17 V3 2.175671 1_555
O17 Sr0 2.711423 1_456
O18 P2 1.544961 1_655
O18 V2 2.127031 1_556
O18 Sr0 2.744282 1_546
O19 P1 1.543769 1_655
O19 V1 2.099828 1_555
O19 Sr1 2.699082 1_655
