# generated using pymatgen
data_Li7V3P8O29
_symmetry_space_group_name_H-M   'P 1'
_cell_length_a   9.83734100
_cell_length_b   9.88239147
_cell_length_c   13.90502295
_cell_angle_alpha   90.05132314
_cell_angle_beta   90.15795169
_cell_angle_gamma   119.69415643
_symmetry_Int_Tables_number   1
_chemical_formula_structural   Li7V3P8O29
_chemical_formula_sum   'Li14 V6 P16 O58'
_cell_volume   1174.27336759
_cell_formula_units_Z   2
loop_
 _symmetry_equiv_pos_site_id
 _symmetry_equiv_pos_as_xyz
  1  'x, y, z'
loop_
 _atom_site_type_symbol
 _atom_site_label
 _atom_site_symmetry_multiplicity
 _atom_site_fract_x
 _atom_site_fract_y
 _atom_site_fract_z
 _atom_site_occupancy
  Li  Li0  1  0.31073900  0.08827100  0.93999100  1
  Li  Li1  1  0.65835400  0.33266300  0.61190200  1
  Li  Li2  1  0.66189700  0.32668500  0.11710000  1
  Li  Li3  1  0.91180800  0.22615300  0.94042100  1
  Li  Li4  1  0.77275300  0.68422500  0.93746300  1
  Li  Li5  1  0.09886900  0.33056200  0.56044100  1
  Li  Li6  1  0.90637200  0.67357900  0.43741900  1
  Li  Li7  1  0.22782300  0.32137000  0.06207800  1
  Li  Li8  1  0.09278900  0.77598300  0.06048300  1
  Li  Li9  1  0.33762100  0.67253200  0.38336200  1
  Li  Li10  1  0.23302900  0.90541200  0.55949300  1
  Li  Li11  1  0.67418700  0.77240700  0.56147300  1
  Li  Li12  1  0.67897600  0.90660200  0.06431500  1
  Li  Li13  1  0.02051500  0.04184300  0.49065800  1
  V  V0  1  0.00126600  0.43037000  0.75069900  1
  V  V1  1  0.00067700  0.56456800  0.24946000  1
  V  V2  1  0.43539400  0.43152100  0.25329800  1
  V  V3  1  0.56489200  0.56699300  0.74898900  1
  V  V4  1  0.43150700  0.99713900  0.74998200  1
  V  V5  1  0.56852800  0.00144800  0.25391900  1
  P  P0  1  0.32070300  0.08965700  0.15908200  1
  P  P1  1  0.31109300  0.22244100  0.65895400  1
  P  P2  1  0.77629600  0.08880600  0.65841600  1
  P  P3  1  0.66755900  0.33177500  0.87364000  1
  P  P4  1  0.67353100  0.33968600  0.37298900  1
  P  P5  1  0.91016300  0.23107100  0.15817400  1
  P  P6  1  0.09137700  0.31697500  0.34358000  1
  P  P7  1  0.76795400  0.67664000  0.15608100  1
  P  P8  1  0.23531400  0.32213100  0.84427900  1
  P  P9  1  0.91028600  0.68078600  0.65546200  1
  P  P10  1  0.08659600  0.76498100  0.84042500  1
  P  P11  1  0.33050700  0.66638300  0.62449200  1
  P  P12  1  0.33389100  0.66338600  0.12683300  1
  P  P13  1  0.22407800  0.90786400  0.34494700  1
  P  P14  1  0.68241000  0.77074000  0.34276000  1
  P  P15  1  0.68367300  0.91707500  0.84464000  1
  O  O0  1  0.21425600  0.98923200  0.43384200  1
  O  O1  1  0.33517500  0.07661000  0.66154900  1
  O  O2  1  0.24202600  0.24321400  0.93559300  1
  O  O3  1  0.32878700  0.24979400  0.15870100  1
  O  O4  1  0.48716100  0.11596900  0.17318500  1
  O  O5  1  0.51423300  0.18412500  0.83410300  1
  O  O6  1  0.62645300  0.10229300  0.66694800  1
  O  O7  1  0.75055600  0.00612600  0.93652400  1
  O  O8  1  0.75172400  0.08202500  0.15489900  1
  O  O9  1  0.52842300  0.34705200  0.32841400  1
  O  O10  1  0.47377000  0.36745900  0.66366200  1
  O  O11  1  0.67160900  0.19531400  0.33369500  1
  O  O12  1  0.66908300  0.32682400  0.98186900  1
  O  O13  1  0.67713000  0.35683500  0.47997700  1
  O  O14  1  0.81498700  0.32473300  0.83401400  1
  O  O15  1  0.62600400  0.51168500  0.16997000  1
  O  O16  1  0.67303900  0.48317200  0.83637400  1
  O  O17  1  0.91909100  0.25846800  0.65922000  1
  O  O18  1  0.99852300  0.21445100  0.25092100  1
  O  O19  1  0.01167100  0.23195600  0.43385700  1
  O  O20  1  0.00776600  0.25467800  0.06978400  1
  O  O21  1  0.88420300  0.37282200  0.17489700  1
  O  O22  1  0.82263000  0.49093400  0.33193000  1
  O  O23  1  0.08056300  0.32960600  0.83954500  1
  O  O24  1  0.89162000  0.51731700  0.67095900  1
  O  O25  1  0.74910800  0.66834200  0.65480900  1
  O  O26  1  0.21841500  0.20625100  0.75742200  1
  O  O27  1  0.20381200  0.20769500  0.57771600  1
  O  O28  1  0.76855800  0.76250700  0.43129100  1
  O  O29  1  0.25643200  0.34027500  0.33691400  1
  O  O30  1  0.10185000  0.47901000  0.33241800  1
  O  O31  1  0.91917100  0.66544400  0.15435200  1
  O  O32  1  0.18725500  0.51258200  0.66457000  1
  O  O33  1  0.09602200  0.61567100  0.82045200  1
  O  O34  1  0.99830500  0.75229200  0.93094900  1
  O  O35  1  0.00473800  0.76549300  0.56795400  1
  O  O36  1  0.99801700  0.78594000  0.74957700  1
  O  O37  1  0.07499300  0.74521300  0.33809300  1
  O  O38  1  0.33826000  0.51667500  0.16965500  1
  O  O39  1  0.37575500  0.48117900  0.82639300  1
  O  O40  1  0.18125800  0.65878500  0.17324900  1
  O  O41  1  0.31521400  0.65235900  0.02045700  1
  O  O42  1  0.32110600  0.66448900  0.51619300  1
  O  O43  1  0.32219300  0.81145400  0.66422600  1
  O  O44  1  0.51767700  0.62372700  0.33096400  1
  O  O45  1  0.48575200  0.67667700  0.65954500  1
  O  O46  1  0.25058800  0.91200200  0.84132100  1
  O  O47  1  0.21590300  0.99968200  0.25083800  1
  O  O48  1  0.24118200  0.99622200  0.06974700  1
  O  O49  1  0.36866600  0.88767300  0.33523800  1
  O  O50  1  0.48036700  0.81221200  0.16425700  1
  O  O51  1  0.52370300  0.90610100  0.81926400  1
  O  O52  1  0.66919800  0.75670000  0.84354700  1
  O  O53  1  0.75377700  0.75676400  0.06769200  1
  O  O54  1  0.78464200  0.77953200  0.24943000  1
  O  O55  1  0.66709000  0.91522500  0.34119500  1
  O  O56  1  0.78797900  0.99722300  0.57659400  1
  O  O57  1  0.79688000  0.01498600  0.75749600  1
loop_
_geom_bond_atom_site_label_1
_geom_bond_atom_site_label_2
_geom_bond_distance
_geom_bond_site_symmetry_2
Li0 O2 1.957199 1_555
Li0 O48 1.985980 1_546
Li0 O46 2.058396 1_545
Li0 O5 2.283111 1_555
Li1 O13 1.848030 1_555
Li1 O10 2.135138 1_555
Li1 O24 2.260156 1_555
Li1 O6 2.272421 1_555
Li2 O12 1.881889 1_554
Li2 O4 2.088827 1_555
Li2 O21 2.153621 1_555
Li2 O15 2.155501 1_555
Li3 O7 1.956853 1_555
Li3 O20 1.983004 1_656
Li3 O23 2.025482 1_655
Li3 O14 2.227008 1_555
Li4 O34 1.976463 1_555
Li4 O53 1.989970 1_556
Li4 O52 1.993323 1_555
Li4 O16 2.223110 1_555
Li5 O27 1.959300 1_555
Li5 O19 1.985947 1_555
Li5 O17 2.070916 1_455
Li5 O32 2.127668 1_555
Li6 O28 1.948712 1_555
Li6 O37 2.002799 1_655
Li6 O35 2.042679 1_655
Li6 O22 2.145594 1_555
Li7 O20 1.928725 1_555
Li7 O2 1.953256 1_554
Li7 O3 1.995573 1_555
Li7 O38 2.247559 1_555
Li8 O48 1.932705 1_555
Li8 O34 1.984282 1_454
Li8 O31 1.995104 1_455
Li8 O40 2.356243 1_555
Li9 O42 1.852920 1_555
Li9 O49 2.102798 1_555
Li9 O44 2.180311 1_555
Li9 O30 2.265532 1_555
Li10 O35 1.973448 1_555
Li10 O0 1.981229 1_555
Li10 O1 2.046805 1_565
Li10 O43 2.134168 1_555
Li11 O56 1.940929 1_555
Li11 O25 2.008303 1_555
Li11 O28 2.060855 1_555
Li11 O45 2.114159 1_555
Li12 O53 1.953398 1_555
Li12 O8 1.966215 1_565
Li12 O7 1.986092 1_564
Li12 O50 2.197799 1_555
Li13 O19 2.079756 1_555
Li13 O27 2.111760 1_555
Li13 O0 2.348662 1_545
Li13 O56 2.423181 1_445
O0 P13 1.503228 1_555
O1 P1 1.572471 1_555
O1 V4 1.938962 1_545
O2 P8 1.509011 1_555
O3 P0 1.544702 1_555
O3 V2 2.043888 1_555
O4 P0 1.537458 1_555
O4 V5 2.019060 1_555
O5 P3 1.587410 1_555
O5 V4 1.986481 1_545
O6 P2 1.549280 1_555
O6 V4 2.032403 1_545
O7 P15 1.503144 1_545
O8 P5 1.525090 1_555
O8 V5 2.090823 1_555
O9 P4 1.589123 1_555
O9 V2 1.838054 1_555
O10 P1 1.531721 1_555
O10 V3 2.082850 1_555
O11 P4 1.518651 1_555
O11 V5 1.998633 1_555
O12 P3 1.506040 1_555
O13 P4 1.495477 1_555
O14 P3 1.586236 1_555
O14 V0 1.976999 1_655
O15 P7 1.546422 1_555
O15 V2 2.006993 1_555
O16 P3 1.559347 1_555
O16 V3 2.040155 1_555
O17 P2 1.565573 1_555
O17 V0 1.946108 1_655
O18 P5 1.606665 1_555
O18 P6 1.610965 1_655
O19 P6 1.500380 1_555
O20 P5 1.507322 1_455
O21 P5 1.560709 1_555
O21 V1 1.953801 1_655
O22 P4 1.595464 1_555
O22 V1 1.913678 1_655
O23 P8 1.561466 1_555
O23 V0 1.973023 1_555
O24 P9 1.548170 1_555
O24 V0 2.011088 1_655
O25 P9 1.528382 1_555
O25 V3 2.054114 1_555
O26 P1 1.610674 1_555
O26 P8 1.614160 1_555
O27 P1 1.500605 1_555
O28 P14 1.517559 1_555
O29 P6 1.525935 1_555
O29 V2 1.924760 1_555
O30 P6 1.560747 1_555
O30 V1 1.966025 1_555
O31 P7 1.545624 1_555
O31 V1 2.043053 1_655
O32 P11 1.578102 1_555
O32 V0 1.995759 1_555
O33 P10 1.548519 1_555
O33 V0 1.861093 1_555
O34 P10 1.500976 1_655
O35 P9 1.510676 1_455
O36 P10 1.603498 1_655
O36 P9 1.624848 1_555
O37 P13 1.551474 1_555
O37 V1 1.984541 1_555
O38 P12 1.587961 1_555
O38 V2 1.940674 1_555
O39 P8 1.514017 1_555
O39 V3 1.946503 1_555
O40 P12 1.615827 1_555
O40 V1 1.875925 1_555
O41 P12 1.487254 1_555
O42 P11 1.508014 1_555
O43 P11 1.575530 1_555
O43 V4 1.994884 1_555
O44 P14 1.558625 1_555
O44 V2 1.974248 1_555
O45 P11 1.556322 1_555
O45 V3 2.039856 1_555
O46 P10 1.546394 1_555
O46 V4 2.004830 1_555
O47 P0 1.606988 1_565
O47 P13 1.617422 1_555
O48 P0 1.511482 1_565
O49 P13 1.537318 1_555
O49 V5 2.057364 1_565
O50 P12 1.550828 1_555
O50 V5 2.046175 1_565
O51 P15 1.562216 1_555
O51 V4 1.834454 1_555
O52 P15 1.519451 1_555
O52 V3 2.092522 1_555
O53 P7 1.505721 1_555
O54 P7 1.605244 1_555
O54 P14 1.619864 1_555
O55 P14 1.508376 1_555
O55 V5 1.988168 1_565
O56 P2 1.492889 1_565
O57 P15 1.608332 1_545
O57 P2 1.617992 1_555
