# generated using pymatgen
data_Li2VCrO4
_symmetry_space_group_name_H-M   'P 1'
_cell_length_a   5.16929200
_cell_length_b   5.99799515
_cell_length_c   7.87453437
_cell_angle_alpha   79.17740436
_cell_angle_beta   77.10467804
_cell_angle_gamma   73.28698467
_symmetry_Int_Tables_number   1
_chemical_formula_structural   Li2VCrO4
_chemical_formula_sum   'Li6 V3 Cr3 O12'
_cell_volume   225.93563596
_cell_formula_units_Z   3
loop_
 _symmetry_equiv_pos_site_id
 _symmetry_equiv_pos_as_xyz
  1  'x, y, z'
loop_
 _atom_site_type_symbol
 _atom_site_label
 _atom_site_symmetry_multiplicity
 _atom_site_fract_x
 _atom_site_fract_y
 _atom_site_fract_z
 _atom_site_occupancy
  Li  Li0  1  0.00000000  0.00000000  0.00000000  1
  Li  Li1  1  0.00275500  0.16210400  0.33574200  1
  Li  Li2  1  0.00000000  0.50000000  0.00000000  1
  Li  Li3  1  0.00266300  0.32739000  0.66746100  1
  Li  Li4  1  0.99733700  0.67261000  0.33253900  1
  Li  Li5  1  0.99724500  0.83789600  0.66425800  1
  V  V0  1  0.49962000  0.33641000  0.16660700  1
  V  V1  1  0.50000000  0.50000000  0.50000000  1
  V  V2  1  0.50038000  0.66359000  0.83339300  1
  Cr  Cr0  1  0.50000000  0.00000000  0.50000000  1
  Cr  Cr1  1  0.50085700  0.16263600  0.83303200  1
  Cr  Cr2  1  0.49914300  0.83736400  0.16696800  1
  O  O0  1  0.72387700  0.00866600  0.25238500  1
  O  O1  1  0.27401400  0.16097300  0.07999000  1
  O  O2  1  0.27437600  0.32732400  0.41628900  1
  O  O3  1  0.72739300  0.16518500  0.58708300  1
  O  O4  1  0.27304400  0.66443600  0.08236500  1
  O  O5  1  0.72660000  0.51273800  0.25222000  1
  O  O6  1  0.27340000  0.48726200  0.74778000  1
  O  O7  1  0.72695600  0.33556400  0.91763500  1
  O  O8  1  0.27260700  0.83481500  0.41291700  1
  O  O9  1  0.72562400  0.67267600  0.58371100  1
  O  O10  1  0.72598600  0.83902700  0.92001000  1
  O  O11  1  0.27612300  0.99133400  0.74761500  1
loop_
_geom_bond_atom_site_label_1
_geom_bond_atom_site_label_2
_geom_bond_distance
_geom_bond_site_symmetry_2
Li0 O0 2.172518 1_455
Li0 O11 2.172518 1_544
Li0 O7 2.179057 1_454
Li0 O4 2.179057 1_545
Li0 O1 2.179113 1_555
Li0 O10 2.179113 1_444
Li1 O8 2.127023 1_545
Li1 O3 2.164451 1_455
Li1 O1 2.182057 1_555
Li1 O0 2.183658 1_455
Li1 O2 2.188529 1_555
Li1 O5 2.250843 1_455
Li2 O6 2.165615 1_554
Li2 O5 2.165615 1_455
Li2 O10 2.190600 1_454
Li2 O1 2.190600 1_555
Li2 O4 2.198885 1_555
Li2 O7 2.198885 1_454
Li3 O2 2.155171 1_555
Li3 O7 2.158112 1_455
Li3 O6 2.161689 1_555
Li3 O11 2.177426 1_545
Li3 O3 2.191218 1_455
Li3 O9 2.231085 1_455
Li4 O9 2.155171 1_555
Li4 O4 2.158112 1_655
Li4 O5 2.161689 1_555
Li4 O0 2.177426 1_565
Li4 O8 2.191218 1_655
Li4 O2 2.231085 1_655
Li5 O3 2.127023 1_565
Li5 O8 2.164451 1_655
Li5 O10 2.182057 1_555
Li5 O11 2.183658 1_655
Li5 O9 2.188529 1_555
Li5 O6 2.250843 1_655
Cr0 O3 2.029372 1_555
Cr0 O8 2.029372 1_545
Cr0 O11 2.033049 1_545
Cr0 O0 2.033049 1_555
Cr0 O2 2.046818 1_555
Cr0 O9 2.046818 1_545
Cr1 O3 2.027159 1_555
Cr1 O1 2.034338 1_556
Cr1 O10 2.036728 1_545
Cr1 O11 2.037771 1_545
Cr1 O6 2.041826 1_555
Cr1 O7 2.046944 1_555
Cr2 O8 2.027159 1_555
Cr2 O10 2.034338 1_554
Cr2 O1 2.036728 1_565
Cr2 O0 2.037771 1_565
Cr2 O5 2.041826 1_555
Cr2 O4 2.046944 1_555
O0 V0 2.050525 1_555
O1 V0 2.064693 1_555
O2 V1 2.040055 1_555
O2 V0 2.049101 1_555
O3 V1 2.090408 1_555
O4 V2 2.048587 1_554
O4 V0 2.052841 1_555
O5 V1 2.039680 1_555
O5 V0 2.069851 1_555
O6 V1 2.039680 1_555
O6 V2 2.069851 1_555
O7 V0 2.048587 1_556
O7 V2 2.052841 1_555
O8 V1 2.090408 1_555
O9 V1 2.040055 1_555
O9 V2 2.049101 1_555
O10 V2 2.064693 1_555
O11 V2 2.050525 1_555
