# generated using pymatgen
data_TiVO3
_symmetry_space_group_name_H-M   'P 1'
_cell_length_a   5.15066700
_cell_length_b   5.55205471
_cell_length_c   7.62171065
_cell_angle_alpha   83.97212827
_cell_angle_beta   89.78397071
_cell_angle_gamma   89.88745281
_symmetry_Int_Tables_number   1
_chemical_formula_structural   TiVO3
_chemical_formula_sum   'Ti4 V4 O12'
_cell_volume   216.74951415
_cell_formula_units_Z   4
loop_
 _symmetry_equiv_pos_site_id
 _symmetry_equiv_pos_as_xyz
  1  'x, y, z'
loop_
 _atom_site_type_symbol
 _atom_site_label
 _atom_site_symmetry_multiplicity
 _atom_site_fract_x
 _atom_site_fract_y
 _atom_site_fract_z
 _atom_site_occupancy
  Ti  Ti0  1  0.50105300  0.79742400  0.14539000  1
  Ti  Ti1  1  0.49591300  0.18868200  0.34947400  1
  Ti  Ti2  1  0.99928800  0.30385000  0.64661200  1
  Ti  Ti3  1  0.50329200  0.20495000  0.85651600  1
  V  V0  1  0.00060900  0.30269900  0.15508700  1
  V  V1  1  0.99970800  0.69494100  0.34958900  1
  V  V2  1  0.49886600  0.80814200  0.64765200  1
  V  V3  1  0.99984400  0.69811500  0.84783300  1
  O  O0  1  0.32190100  0.49876600  0.24875900  1
  O  O1  1  0.83256300  0.66090200  0.10352300  1
  O  O2  1  0.65633200  0.85317800  0.39425700  1
  O  O3  1  0.20171300  0.99285000  0.25619600  1
  O  O4  1  0.63678400  0.15785900  0.09293900  1
  O  O5  1  0.14712400  0.64150800  0.59220200  1
  O  O6  1  0.83721700  0.33937000  0.41305200  1
  O  O7  1  0.36316100  0.84946700  0.91239500  1
  O  O8  1  0.33515200  0.16042000  0.59198300  1
  O  O9  1  0.17044000  0.33981300  0.89667400  1
  O  O10  1  0.69154000  0.48372700  0.75290600  1
  O  O11  1  0.80749900  0.02333800  0.74696100  1
loop_
_geom_bond_atom_site_label_1
_geom_bond_atom_site_label_2
_geom_bond_distance
_geom_bond_site_symmetry_2
O0 Ti0 1.986919 1_555
O0 Ti1 2.019417 1_555
O0 V0 2.147675 1_555
O0 V1 2.165626 1_455
O1 Ti0 1.906176 1_555
O1 V1 2.093185 1_555
O1 V3 2.118097 1_554
O1 V0 2.165746 1_655
O2 V1 2.016906 1_555
O2 Ti1 2.032621 1_565
O2 V2 2.082745 1_555
O2 Ti0 2.114009 1_555
O3 V1 2.019624 1_455
O3 Ti1 2.039790 1_565
O3 V0 2.084898 1_565
O3 Ti0 2.108009 1_555
O4 Ti3 1.922971 1_554
O4 Ti1 2.106605 1_555
O4 V0 2.115493 1_655
O4 Ti0 2.118620 1_545
O5 V1 1.994565 1_455
O5 Ti2 2.026380 1_455
O5 V2 2.100307 1_555
O5 V3 2.141683 1_455
O6 Ti2 1.959954 1_555
O6 Ti1 2.030386 1_555
O6 V1 2.152808 1_555
O6 V0 2.164790 1_655
O7 Ti0 1.908507 1_556
O7 Ti3 2.103428 1_565
O7 V3 2.133093 1_455
O7 V2 2.167640 1_555
O8 Ti2 1.964417 1_455
O8 Ti1 2.013614 1_555
O8 V2 2.130355 1_545
O8 Ti3 2.234922 1_555
O9 Ti3 1.905955 1_555
O9 Ti2 2.131369 1_455
O9 V0 2.142251 1_556
O9 V3 2.169813 1_455
O10 Ti3 1.924263 1_555
O10 Ti2 2.078532 1_555
O10 V2 2.137319 1_555
O10 V3 2.158442 1_555
O11 Ti2 1.933008 1_555
O11 Ti3 2.080808 1_555
O11 V3 2.130757 1_545
O11 V2 2.175755 1_545
