# generated using pymatgen
data_Li5AuO4
_symmetry_space_group_name_H-M   'P 1'
_cell_length_a   10.09039249
_cell_length_b   9.85370308
_cell_length_c   4.68004024
_cell_angle_alpha   79.27561433
_cell_angle_beta   73.63446859
_cell_angle_gamma   27.10737147
_symmetry_Int_Tables_number   1
_chemical_formula_structural   Li5AuO4
_chemical_formula_sum   'Li10 Au2 O8'
_cell_volume   201.19735292
_cell_formula_units_Z   2
loop_
 _symmetry_equiv_pos_site_id
 _symmetry_equiv_pos_as_xyz
  1  'x, y, z'
loop_
 _atom_site_type_symbol
 _atom_site_label
 _atom_site_symmetry_multiplicity
 _atom_site_fract_x
 _atom_site_fract_y
 _atom_site_fract_z
 _atom_site_occupancy
  Li  Li0  1  0.24999594  0.24995651  0.25005536  1
  Li  Li1  1  0.64618238  0.64553053  0.35377304  1
  Li  Li2  1  0.35377745  0.35449945  0.64641136  1
  Li  Li3  1  0.39040257  0.39067254  0.10998541  1
  Li  Li4  1  0.89621961  0.89555705  0.60358096  1
  Li  Li5  1  0.10960453  0.10933623  0.39014829  1
  Li  Li6  1  0.60380635  0.60443640  0.89623459  1
  Li  Li7  1  0.99999069  0.00006101  0.99993875  1
  Li  Li8  1  0.85958210  0.85934948  0.14000330  1
  Li  Li9  1  0.14039270  0.14067080  0.85984343  1
  Au  Au0  1  0.50006209  0.49998821  0.49999370  1
  Au  Au1  1  0.74998238  0.74997265  0.75001343  1
  O  O0  1  0.18044128  0.67163430  0.82422817  1
  O  O1  1  0.82421481  0.32371916  0.18039550  1
  O  O2  1  0.42582702  0.92623643  0.06961938  1
  O  O3  1  0.06951892  0.57840006  0.42574343  1
  O  O4  1  0.57829961  0.06964331  0.92630459  1
  O  O5  1  0.92630293  0.42571227  0.57841637  1
  O  O6  1  0.67166020  0.18036908  0.32372226  1
  O  O7  1  0.32373845  0.82425349  0.67158969  1
loop_
_geom_bond_atom_site_label_1
_geom_bond_atom_site_label_2
_geom_bond_distance
_geom_bond_site_symmetry_2
Li0 O2 2.029447 1_545
Li0 O5 2.029892 1_455
Li0 O3 2.029902 1_555
Li0 O4 2.030114 1_554
Li1 O2 1.926467 1_555
Li1 O5 1.927094 1_555
Li1 O1 1.983839 1_555
Li1 O7 1.986568 1_555
Li2 O4 1.926120 1_555
Li2 O3 1.927785 1_555
Li2 O0 1.983450 1_555
Li2 O6 1.987381 1_555
Li3 O6 1.925428 1_555
Li3 O0 1.928259 1_554
Li3 O3 1.935777 1_555
Li3 O4 1.938142 1_554
Li4 O6 1.925904 1_565
Li4 O0 1.927422 1_655
Li4 O3 1.983922 1_655
Li4 O4 1.987882 1_565
Li5 O1 1.926127 1_455
Li5 O7 1.927577 1_545
Li5 O2 1.935872 1_545
Li5 O5 1.937666 1_455
Li6 O1 1.926562 1_556
Li6 O7 1.926773 1_555
Li6 O2 1.984096 1_556
Li6 O5 1.986905 1_555
Li7 O1 2.029318 1_556
Li7 O0 2.029974 1_645
Li7 O7 2.029994 1_645
Li7 O6 2.030379 1_556
Li8 O4 1.925494 1_564
Li8 O3 1.928157 1_655
Li8 O0 1.935713 1_654
Li8 O6 1.937996 1_565
Li9 O2 1.926337 1_546
Li9 O5 1.927385 1_455
Li9 O1 1.935853 1_456
Li9 O7 1.937707 1_545
Au0 O1 2.012006 1_555
Au0 O7 2.012168 1_555
Au0 O0 2.012634 1_555
Au0 O6 2.012744 1_555
Au1 O2 2.012063 1_556
Au1 O5 2.012148 1_555
Au1 O3 2.012487 1_655
Au1 O4 2.012677 1_565
