# generated using pymatgen
data_RbF3
_symmetry_space_group_name_H-M   'P 1'
_cell_length_a   6.88777400
_cell_length_b   4.64284200
_cell_length_c   9.66344021
_cell_angle_alpha   88.91481565
_cell_angle_beta   90.00000000
_cell_angle_gamma   90.00000000
_symmetry_Int_Tables_number   1
_chemical_formula_structural   RbF3
_chemical_formula_sum   'Rb4 F12'
_cell_volume   308.97024425
_cell_formula_units_Z   4
loop_
 _symmetry_equiv_pos_site_id
 _symmetry_equiv_pos_as_xyz
  1  'x, y, z'
loop_
 _atom_site_type_symbol
 _atom_site_label
 _atom_site_symmetry_multiplicity
 _atom_site_fract_x
 _atom_site_fract_y
 _atom_site_fract_z
 _atom_site_occupancy
  Rb  Rb0  1  0.23224700  0.07129900  0.37072500  1
  Rb  Rb1  1  0.26307100  0.39667400  0.87610900  1
  Rb  Rb2  1  0.73224700  0.92870100  0.62927500  1
  Rb  Rb3  1  0.76307100  0.60332600  0.12389100  1
  F  F0  1  0.04290500  0.03605000  0.07196900  1
  F  F1  1  0.46267700  0.47984700  0.59026100  1
  F  F2  1  0.54290500  0.96395000  0.92803100  1
  F  F3  1  0.96267700  0.52015300  0.40973900  1
  F  F4  1  0.63323600  0.98243100  0.33190600  1
  F  F5  1  0.86308800  0.50889900  0.83001100  1
  F  F6  1  0.13323600  0.01756900  0.66809400  1
  F  F7  1  0.36308800  0.49110100  0.16998900  1
  F  F8  1  0.20201400  0.76206000  0.11942900  1
  F  F9  1  0.29955000  0.75025800  0.62923300  1
  F  F10  1  0.70201400  0.23794000  0.88057100  1
  F  F11  1  0.79955000  0.24974200  0.37076700  1
loop_
_geom_bond_atom_site_label_1
_geom_bond_atom_site_label_2
_geom_bond_distance
_geom_bond_site_symmetry_2
F0 F8 1.734206 1_545
F0 Rb3 2.822220 1_445
F0 Rb1 2.926635 1_554
F0 Rb0 3.174950 1_555
F0 Rb3 3.309617 1_455
F1 F9 1.731587 1_555
F1 Rb2 2.821746 1_555
F1 Rb1 3.103074 1_555
F1 Rb2 3.178200 1_545
F1 Rb0 3.281776 1_555
F2 Rb1 2.822220 1_565
F2 Rb3 2.926635 1_556
F2 Rb2 3.174950 1_555
F2 Rb1 3.309617 1_555
F3 Rb0 2.821746 1_655
F3 Rb3 3.103074 1_555
F3 Rb0 3.178200 1_665
F3 Rb2 3.281776 1_555
F4 Rb0 2.818693 1_565
F4 Rb3 2.841205 1_555
F4 Rb2 2.959354 1_555
F5 Rb1 2.837449 1_655
F5 Rb2 2.868915 1_555
F5 Rb3 2.962925 1_556
F6 F9 1.735284 1_545
F6 Rb2 2.818693 1_445
F6 Rb1 2.841205 1_555
F6 Rb0 2.959354 1_555
F7 F8 1.740375 1_555
F7 Rb3 2.837449 1_555
F7 Rb0 2.868915 1_555
F7 Rb1 2.962925 1_554
F8 Rb0 2.851990 1_565
F8 Rb1 2.955414 1_554
F8 Rb3 3.111973 1_455
F9 Rb1 2.881177 1_555
F9 Rb0 2.921637 1_565
F9 Rb2 3.093331 1_555
F10 F2 1.734206 1_545
F10 F5 1.740375 1_555
F10 Rb2 2.851990 1_545
F10 Rb3 2.955414 1_556
F10 Rb1 3.111973 1_555
F11 F3 1.731587 1_555
F11 F4 1.735284 1_545
F11 Rb3 2.881177 1_555
F11 Rb2 2.921637 1_545
F11 Rb0 3.093331 1_655
