# generated using pymatgen
data_Fe5O3F7
_symmetry_space_group_name_H-M   'P 1'
_cell_length_a   4.82201127
_cell_length_b   4.82201127
_cell_length_c   15.70924211
_cell_angle_alpha   89.97928348
_cell_angle_beta   89.97928348
_cell_angle_gamma   91.55484293
_symmetry_Int_Tables_number   1
_chemical_formula_structural   Fe5O3F7
_chemical_formula_sum   'Fe10 O6 F14'
_cell_volume   365.13350360
_cell_formula_units_Z   2
loop_
 _symmetry_equiv_pos_site_id
 _symmetry_equiv_pos_as_xyz
  1  'x, y, z'
loop_
 _atom_site_type_symbol
 _atom_site_label
 _atom_site_symmetry_multiplicity
 _atom_site_fract_x
 _atom_site_fract_y
 _atom_site_fract_z
 _atom_site_occupancy
  Fe  Fe0  1  0.96898400  0.99125900  0.19298300  1
  Fe  Fe1  1  0.98010200  0.97860400  0.39915000  1
  Fe  Fe2  1  0.02139600  0.01989800  0.60085000  1
  Fe  Fe3  1  0.00874100  0.03101600  0.80701700  1
  Fe  Fe4  1  0.97426400  0.02573600  0.00000000  1
  Fe  Fe5  1  0.52023600  0.52767500  0.30146900  1
  Fe  Fe6  1  0.47232500  0.47976400  0.69853100  1
  Fe  Fe7  1  0.50050100  0.49949900  0.50000000  1
  Fe  Fe8  1  0.50905300  0.47707000  0.89474400  1
  Fe  Fe9  1  0.52293000  0.49094700  0.10525600  1
  O  O0  1  0.81460500  0.18192700  0.90039000  1
  O  O1  1  0.81807300  0.18539500  0.09961000  1
  O  O2  1  0.32222300  0.32403800  0.59679000  1
  O  O3  1  0.30320000  0.30263900  0.79328900  1
  O  O4  1  0.69736100  0.69680000  0.20671100  1
  O  O5  1  0.67596200  0.67777700  0.40321000  1
  F  F0  1  0.79550200  0.19713100  0.29650600  1
  F  F1  1  0.79696400  0.20303600  0.50000000  1
  F  F2  1  0.80286900  0.20449800  0.70349400  1
  F  F3  1  0.29322900  0.29133000  0.21082500  1
  F  F4  1  0.29732100  0.29829600  0.39946100  1
  F  F5  1  0.30635100  0.29714800  0.00206200  1
  F  F6  1  0.70170400  0.70267900  0.60053900  1
  F  F7  1  0.70867000  0.70677100  0.78917500  1
  F  F8  1  0.70285200  0.69364900  0.99793800  1
  F  F9  1  0.19376800  0.79907600  0.29515000  1
  F  F10  1  0.20092400  0.80623200  0.70485000  1
  F  F11  1  0.20381700  0.79618300  0.50000000  1
  F  F12  1  0.19027100  0.80419900  0.09831200  1
  F  F13  1  0.19580100  0.80972900  0.90168800  1
loop_
_geom_bond_atom_site_label_1
_geom_bond_atom_site_label_2
_geom_bond_distance
_geom_bond_site_symmetry_2
Fe0 O1 1.895831 1_565
Fe0 O4 1.917479 1_555
Fe1 O5 2.035563 1_555
Fe2 O2 2.035563 1_555
Fe3 O0 1.895831 1_455
Fe3 O3 1.917479 1_555
Fe4 O1 1.907886 1_555
Fe4 O0 1.907886 1_554
Fe5 O4 1.889663 1_555
Fe5 O5 1.901167 1_555
Fe6 O3 1.889663 1_555
Fe6 O2 1.901167 1_555
Fe7 O2 1.930135 1_555
Fe7 O5 1.930135 1_555
Fe8 O3 2.046879 1_555
Fe8 O0 2.077967 1_555
Fe9 O4 2.046879 1_555
Fe9 O1 2.077967 1_555
F0 Fe0 2.091715 1_545
F0 Fe5 2.103140 1_555
F0 Fe1 2.133884 1_545
F1 Fe7 2.048931 1_555
F1 Fe1 2.124398 1_545
F1 Fe2 2.124398 1_655
F2 Fe3 2.091715 1_655
F2 Fe6 2.103140 1_555
F2 Fe2 2.133884 1_655
F3 Fe5 2.111698 1_555
F3 Fe0 2.120053 1_445
F3 Fe9 2.200754 1_555
F4 Fe7 2.084778 1_555
F4 Fe1 2.142021 1_445
F4 Fe5 2.163686 1_555
F5 Fe4 2.040703 1_455
F5 Fe8 2.121795 1_554
F5 Fe9 2.131026 1_555
F6 Fe7 2.084778 1_555
F6 Fe2 2.142021 1_665
F6 Fe6 2.163686 1_555
F7 Fe6 2.111698 1_555
F7 Fe3 2.120053 1_665
F7 Fe8 2.200754 1_555
F8 Fe4 2.040703 1_566
F8 Fe9 2.121795 1_556
F8 Fe8 2.131026 1_555
F9 Fe5 2.076674 1_555
F9 Fe1 2.127983 1_455
F9 Fe0 2.159690 1_455
F10 Fe6 2.076674 1_555
F10 Fe2 2.127983 1_565
F10 Fe3 2.159690 1_565
F11 Fe7 2.050458 1_555
F11 Fe1 2.121116 1_455
F11 Fe2 2.121116 1_565
F12 Fe0 2.053303 1_455
F12 Fe4 2.161393 1_465
F12 Fe9 2.235645 1_555
F13 Fe3 2.053303 1_565
F13 Fe4 2.161393 1_466
F13 Fe8 2.235645 1_555
