# generated using pymatgen
data_Li2Mn3O6
_symmetry_space_group_name_H-M   'P 1'
_cell_length_a   5.21465691
_cell_length_b   5.21465691
_cell_length_c   10.83270831
_cell_angle_alpha   71.15836626
_cell_angle_beta   71.15836626
_cell_angle_gamma   57.57434498
_symmetry_Int_Tables_number   1
_chemical_formula_structural   Li2Mn3O6
_chemical_formula_sum   'Li4 Mn6 O12'
_cell_volume   231.14601019
_cell_formula_units_Z   2
loop_
 _symmetry_equiv_pos_site_id
 _symmetry_equiv_pos_as_xyz
  1  'x, y, z'
loop_
 _atom_site_type_symbol
 _atom_site_label
 _atom_site_symmetry_multiplicity
 _atom_site_fract_x
 _atom_site_fract_y
 _atom_site_fract_z
 _atom_site_occupancy
  Li  Li0  1  0.23383000  0.40697300  0.24166200  1
  Li  Li1  1  0.58009700  0.72235500  0.24004200  1
  Li  Li2  1  0.40697300  0.23383000  0.74166200  1
  Li  Li3  1  0.72235500  0.58009700  0.74004200  1
  Mn  Mn0  1  0.33108800  0.17822700  0.00295600  1
  Mn  Mn1  1  0.17822700  0.33108800  0.50295600  1
  Mn  Mn2  1  0.00258800  0.84877400  0.98921300  1
  Mn  Mn3  1  0.51421600  0.66633800  0.50581800  1
  Mn  Mn4  1  0.84877400  0.00258800  0.48921300  1
  Mn  Mn5  1  0.66633800  0.51421600  0.00581800  1
  O  O0  1  0.98284300  0.48122000  0.10756000  1
  O  O1  1  0.79590700  0.32178300  0.61227400  1
  O  O2  1  0.23097600  0.04226900  0.40250100  1
  O  O3  1  0.04226900  0.23097600  0.90250100  1
  O  O4  1  0.61452400  0.12665900  0.09930500  1
  O  O5  1  0.36479800  0.54140100  0.89148300  1
  O  O6  1  0.48122000  0.98284300  0.60756000  1
  O  O7  1  0.54140100  0.36479800  0.39148300  1
  O  O8  1  0.90221100  0.66440500  0.39025400  1
  O  O9  1  0.66440500  0.90221100  0.89025400  1
  O  O10  1  0.32178300  0.79590700  0.11227400  1
  O  O11  1  0.12665900  0.61452400  0.59930500  1
loop_
_geom_bond_atom_site_label_1
_geom_bond_atom_site_label_2
_geom_bond_distance
_geom_bond_site_symmetry_2
Li0 O0 2.072327 1_455
Li0 O8 2.119377 1_455
Li0 O2 2.127470 1_555
Li0 O4 2.196004 1_555
Li0 O10 2.243777 1_555
Li0 O7 2.515414 1_555
Li1 O10 2.045604 1_555
Li1 O7 2.102967 1_555
Li1 O0 2.106720 1_555
Li1 O4 2.225869 1_565
Li1 O2 2.400919 1_565
Li1 O8 2.542441 1_555
Li2 O6 2.072327 1_545
Li2 O9 2.119377 1_545
Li2 O3 2.127470 1_555
Li2 O11 2.196004 1_555
Li2 O1 2.243777 1_555
Li2 O5 2.515414 1_555
Li3 O1 2.045604 1_555
Li3 O5 2.102967 1_555
Li3 O6 2.106720 1_555
Li3 O11 2.225869 1_655
Li3 O3 2.400919 1_655
Li3 O9 2.542441 1_555
Mn0 O9 1.914359 1_544
Mn0 O4 1.932640 1_555
Mn0 O5 1.954087 1_554
Mn0 O0 1.956651 1_455
Mn0 O10 1.980180 1_545
Mn0 O3 1.987243 1_554
Mn1 O8 1.914359 1_455
Mn1 O11 1.932640 1_555
Mn1 O7 1.954087 1_555
Mn1 O6 1.956651 1_545
Mn1 O1 1.980180 1_455
Mn1 O2 1.987243 1_555
Mn2 O5 1.953273 1_555
Mn2 O0 1.966479 1_456
Mn2 O3 2.001228 1_565
Mn2 O4 2.007450 1_466
Mn2 O9 2.199525 1_455
Mn2 O10 2.308112 1_556
Mn3 O1 1.908226 1_555
Mn3 O2 1.955149 1_565
Mn3 O8 2.002786 1_555
Mn3 O11 2.066358 1_555
Mn3 O6 2.171694 1_555
Mn3 O7 2.220839 1_555
Mn4 O7 1.953273 1_555
Mn4 O6 1.966479 1_545
Mn4 O2 2.001228 1_655
Mn4 O11 2.007450 1_645
Mn4 O8 2.199525 1_545
Mn4 O1 2.308112 1_555
Mn5 O10 1.908226 1_555
Mn5 O3 1.955149 1_654
Mn5 O9 2.002786 1_554
Mn5 O4 2.066358 1_555
Mn5 O0 2.171694 1_555
Mn5 O5 2.220839 1_554
