# generated using pymatgen
data_K2P2H2O7
_symmetry_space_group_name_H-M   'P 1'
_cell_length_a   8.24622800
_cell_length_b   8.31573051
_cell_length_c   11.28488774
_cell_angle_alpha   82.78483957
_cell_angle_beta   84.64635457
_cell_angle_gamma   88.89999144
_symmetry_Int_Tables_number   1
_chemical_formula_structural   K2P2H2O7
_chemical_formula_sum   'K8 P8 H8 O28'
_cell_volume   764.34469699
_cell_formula_units_Z   4
loop_
 _symmetry_equiv_pos_site_id
 _symmetry_equiv_pos_as_xyz
  1  'x, y, z'
loop_
 _atom_site_type_symbol
 _atom_site_label
 _atom_site_symmetry_multiplicity
 _atom_site_fract_x
 _atom_site_fract_y
 _atom_site_fract_z
 _atom_site_occupancy
  K  K0  1  0.24606900  0.70567600  0.94765700  1
  K  K1  1  0.75393100  0.29432400  0.05234300  1
  K  K2  1  0.71330200  0.88110100  0.92518100  1
  K  K3  1  0.28669800  0.11889900  0.07481900  1
  K  K4  1  0.60890900  0.70144900  0.57055100  1
  K  K5  1  0.39109100  0.29855100  0.42944900  1
  K  K6  1  0.81987600  0.22242000  0.54883500  1
  K  K7  1  0.18012400  0.77758000  0.45116500  1
  P  P0  1  0.37244700  0.99604300  0.70378400  1
  P  P1  1  0.62755300  0.00395700  0.29621600  1
  P  P2  1  0.05753100  0.13883800  0.80166200  1
  P  P3  1  0.94246900  0.86116200  0.19833800  1
  P  P4  1  0.21394100  0.45488400  0.71425600  1
  P  P5  1  0.78605900  0.54511600  0.28574400  1
  P  P6  1  0.51803000  0.28695000  0.78285400  1
  P  P7  1  0.48197000  0.71305000  0.21714600  1
  H  H0  1  0.72541900  0.52215500  0.82652400  1
  H  H1  1  0.27458100  0.47784500  0.17347600  1
  H  H2  1  0.89665700  0.55589200  0.86156800  1
  H  H3  1  0.10334300  0.44410800  0.13843200  1
  H  H4  1  0.93785000  0.88110100  0.65720400  1
  H  H5  1  0.06215000  0.11889900  0.34279600  1
  H  H6  1  0.97184800  0.69977200  0.67553000  1
  H  H7  1  0.02815200  0.30022800  0.32447000  1
  O  O0  1  0.22617100  0.03037400  0.80659800  1
  O  O1  1  0.77382900  0.96962600  0.19340200  1
  O  O2  1  0.31129800  0.98325400  0.58507000  1
  O  O3  1  0.68870200  0.01674600  0.41493000  1
  O  O4  1  0.47280700  0.86209000  0.76315800  1
  O  O5  1  0.52719300  0.13791000  0.23684200  1
  O  O6  1  0.93261300  0.04932000  0.74713700  1
  O  O7  1  0.06738700  0.95068000  0.25286300  1
  O  O8  1  0.02135900  0.18931900  0.92387700  1
  O  O9  1  0.97864100  0.81068100  0.07612300  1
  O  O10  1  0.11275400  0.29211900  0.70090000  1
  O  O11  1  0.88724600  0.70788100  0.29910000  1
  O  O12  1  0.29605500  0.51292700  0.59291100  1
  O  O13  1  0.70394500  0.48707300  0.40708900  1
  O  O14  1  0.10336100  0.56988300  0.77760700  1
  O  O15  1  0.89663900  0.43011700  0.22239300  1
  O  O16  1  0.64393300  0.40259500  0.71866300  1
  O  O17  1  0.35606700  0.59740500  0.28133700  1
  O  O18  1  0.54853600  0.19078000  0.90038600  1
  O  O19  1  0.45146400  0.80922000  0.09961400  1
  O  O20  1  0.47468200  0.16824900  0.68533300  1
  O  O21  1  0.52531800  0.83175100  0.31466700  1
  O  O22  1  0.34614700  0.38560000  0.80731800  1
  O  O23  1  0.65385300  0.61440000  0.19268200  1
  O  O24  1  0.78064400  0.56705000  0.88930500  1
  O  O25  1  0.21935600  0.43295000  0.11069500  1
  O  O26  1  0.91917800  0.78171100  0.62075000  1
  O  O27  1  0.08082200  0.21828900  0.37925000  1
loop_
_geom_bond_atom_site_label_1
_geom_bond_atom_site_label_2
_geom_bond_distance
_geom_bond_site_symmetry_2
K0 O14 2.712802 1_555
K0 O9 2.715668 1_456
K0 O25 2.733585 1_556
K0 O19 2.742190 1_556
K0 O4 2.865194 1_555
K0 O0 2.967067 1_565
K1 O15 2.712802 1_555
K1 O8 2.715668 1_654
K1 O24 2.733585 1_554
K1 O18 2.742190 1_554
K1 O5 2.865194 1_555
K1 O1 2.967067 1_545
K2 O24 2.731392 1_555
K2 O19 2.802683 1_556
K2 O6 2.824436 1_565
K2 O4 2.839429 1_555
K2 O18 2.882993 1_565
K2 O9 2.903041 1_556
K3 O25 2.731392 1_555
K3 O18 2.802683 1_554
K3 O7 2.824436 1_545
K3 O5 2.839429 1_555
K3 O19 2.882993 1_545
K3 O8 2.903041 1_554
K4 O13 2.774441 1_555
K4 O26 2.782726 1_555
K4 O4 2.825772 1_555
K4 O16 2.841192 1_555
K4 O3 3.014224 1_565
K4 O12 3.018526 1_555
K4 O21 3.089402 1_555
K5 O12 2.774441 1_555
K5 O27 2.782726 1_555
K5 O5 2.825772 1_555
K5 O17 2.841192 1_555
K5 O2 3.014224 1_545
K5 O13 3.018526 1_555
K5 O20 3.089402 1_555
K6 O3 2.721022 1_555
K6 O6 2.733458 1_555
K6 O27 2.745754 1_655
K6 O13 2.763394 1_555
K6 O16 2.853377 1_555
K6 O20 3.120129 1_555
K6 O10 3.192268 1_655
K7 O2 2.721022 1_555
K7 O7 2.733458 1_555
K7 O26 2.745754 1_455
K7 O12 2.763394 1_555
K7 O17 2.853377 1_555
K7 O21 3.120129 1_555
K7 O11 3.192268 1_455
H0 O24 0.990898 1_555
H1 O25 0.990898 1_555
H2 O24 0.984789 1_555
H3 O25 0.984789 1_555
H4 O26 0.989018 1_555
H5 O27 0.989018 1_555
H6 O26 0.983875 1_555
H7 O27 0.983875 1_555
O0 P0 1.640571 1_545
O0 P2 1.644444 1_555
O1 P1 1.640571 1_565
O1 P3 1.644444 1_555
O2 P0 1.491378 1_555
O3 P1 1.491378 1_555
O4 P0 1.501752 1_555
O5 P1 1.501752 1_555
O6 P2 1.502209 1_655
O7 P3 1.502209 1_455
O8 P2 1.493718 1_555
O9 P3 1.493718 1_555
O10 P4 1.633714 1_555
O10 P2 1.639099 1_555
O11 P5 1.633714 1_555
O11 P3 1.639099 1_555
O12 P4 1.496707 1_555
O13 P5 1.496707 1_555
O14 P4 1.507883 1_555
O15 P5 1.507883 1_555
O16 P6 1.500157 1_555
O17 P7 1.500157 1_555
O18 P6 1.500035 1_555
O19 P7 1.500035 1_555
O20 P6 1.634952 1_555
O20 P0 1.656342 1_545
O21 P7 1.634952 1_555
O21 P1 1.656342 1_565
O22 P4 1.631238 1_555
O22 P6 1.642375 1_555
O23 P5 1.631238 1_555
O23 P7 1.642375 1_555
