# generated using pymatgen
data_Li4Sn(BO3)2
_symmetry_space_group_name_H-M   'P 1'
_cell_length_a   3.55526500
_cell_length_b   8.50192100
_cell_length_c   9.46257400
_cell_angle_alpha   90.00000000
_cell_angle_beta   90.00000000
_cell_angle_gamma   90.00000000
_symmetry_Int_Tables_number   1
_chemical_formula_structural   Li4Sn(BO3)2
_chemical_formula_sum   'Li8 Sn2 B4 O12'
_cell_volume   286.02127049
_cell_formula_units_Z   2
loop_
 _symmetry_equiv_pos_site_id
 _symmetry_equiv_pos_as_xyz
  1  'x, y, z'
loop_
 _atom_site_type_symbol
 _atom_site_label
 _atom_site_symmetry_multiplicity
 _atom_site_fract_x
 _atom_site_fract_y
 _atom_site_fract_z
 _atom_site_occupancy
  Li  Li0  1  0.50000000  0.17305000  0.04497600  1
  Li  Li1  1  0.00000000  0.01564300  0.20108000  1
  Li  Li2  1  0.50000000  0.51564300  0.29892000  1
  Li  Li3  1  0.00000000  0.67305000  0.45502400  1
  Li  Li4  1  0.00000000  0.32695000  0.54497600  1
  Li  Li5  1  0.50000000  0.48435700  0.70108000  1
  Li  Li6  1  0.00000000  0.98435700  0.79892000  1
  Li  Li7  1  0.50000000  0.82695000  0.95502400  1
  Sn  Sn0  1  0.00000000  0.50000000  0.00000000  1
  Sn  Sn1  1  0.50000000  0.00000000  0.50000000  1
  B  B0  1  0.50000000  0.77322900  0.21217500  1
  B  B1  1  0.00000000  0.27322900  0.28782500  1
  B  B2  1  0.00000000  0.72677100  0.71217500  1
  B  B3  1  0.50000000  0.22677100  0.78782500  1
  O  O0  1  0.50000000  0.64308000  0.12052000  1
  O  O1  1  0.00000000  0.23981400  0.14279500  1
  O  O2  1  0.50000000  0.92287500  0.15499500  1
  O  O3  1  0.00000000  0.42287500  0.34500500  1
  O  O4  1  0.50000000  0.73981400  0.35720500  1
  O  O5  1  0.00000000  0.14308000  0.37948000  1
  O  O6  1  0.00000000  0.85692000  0.62052000  1
  O  O7  1  0.50000000  0.26018600  0.64279500  1
  O  O8  1  0.00000000  0.57712500  0.65499500  1
  O  O9  1  0.50000000  0.07712500  0.84500500  1
  O  O10  1  0.00000000  0.76018600  0.85720500  1
  O  O11  1  0.50000000  0.35692000  0.87948000  1
loop_
_geom_bond_atom_site_label_1
_geom_bond_atom_site_label_2
_geom_bond_distance
_geom_bond_site_symmetry_2
Li0 O9 2.060507 1_554
Li0 O1 2.083013 1_655
Li0 O1 2.083013 1_555
Li0 O11 2.212726 1_554
Li0 O2 2.368081 1_545
Li1 O1 1.984080 1_555
Li1 O2 1.993039 1_445
Li1 O2 1.993039 1_545
Li1 O5 2.005902 1_555
Li2 O4 1.984080 1_555
Li2 O3 1.993039 1_655
Li2 O3 1.993039 1_555
Li2 O0 2.005902 1_555
Li3 O8 2.060507 1_555
Li3 O4 2.083013 1_555
Li3 O4 2.083013 1_455
Li3 O6 2.212726 1_555
Li3 O3 2.368081 1_555
Li4 O3 2.060507 1_555
Li4 O7 2.083013 1_555
Li4 O7 2.083013 1_455
Li4 O5 2.212726 1_555
Li4 O8 2.368081 1_555
Li5 O7 1.984080 1_555
Li5 O8 1.993039 1_555
Li5 O8 1.993039 1_655
Li5 O11 2.005902 1_555
Li6 O10 1.984080 1_555
Li6 O9 1.993039 1_465
Li6 O9 1.993039 1_565
Li6 O6 2.005902 1_555
Li7 O2 2.060507 1_556
Li7 O10 2.083013 1_555
Li7 O10 2.083013 1_655
Li7 O0 2.212726 1_556
Li7 O9 2.368081 1_565
B0 O2 1.382552 1_555
B0 O4 1.401454 1_555
B0 O0 1.405907 1_555
B1 O3 1.382552 1_555
B1 O1 1.401454 1_555
B1 O5 1.405907 1_555
B2 O8 1.382552 1_555
B2 O10 1.401454 1_555
B2 O6 1.405907 1_555
B3 O9 1.382552 1_555
B3 O7 1.401454 1_555
B3 O11 1.405907 1_555
O0 Sn0 2.437277 1_655
O0 Sn0 2.437277 1_555
O1 Sn0 2.592116 1_555
O4 Sn1 2.592116 1_565
O5 Sn1 2.437277 1_555
O5 Sn1 2.437277 1_455
O6 Sn1 2.437277 1_565
O6 Sn1 2.437277 1_465
O7 Sn1 2.592116 1_555
O10 Sn0 2.592116 1_556
O11 Sn0 2.437277 1_656
O11 Sn0 2.437277 1_556
