# generated using pymatgen
data_La11Mn12O36
_symmetry_space_group_name_H-M   'P 1'
_cell_length_a   9.66066570
_cell_length_b   9.66066570
_cell_length_c   9.53453524
_cell_angle_alpha   80.27643468
_cell_angle_beta   80.27643468
_cell_angle_gamma   120.00206610
_symmetry_Int_Tables_number   1
_chemical_formula_structural   La11Mn12O36
_chemical_formula_sum   'La11 Mn12 O36'
_cell_volume   725.31288361
_cell_formula_units_Z   1
loop_
 _symmetry_equiv_pos_site_id
 _symmetry_equiv_pos_as_xyz
  1  'x, y, z'
loop_
 _atom_site_type_symbol
 _atom_site_label
 _atom_site_symmetry_multiplicity
 _atom_site_fract_x
 _atom_site_fract_y
 _atom_site_fract_z
 _atom_site_occupancy
  La  La0  1  0.20632700  0.28137300  0.25947500  1
  La  La1  1  0.04558900  0.46923000  0.74110600  1
  La  La2  1  0.79162700  0.20837300  0.50000000  1
  La  La3  1  0.87943400  0.63028100  0.25704000  1
  La  La4  1  0.53077000  0.95441100  0.25889400  1
  La  La5  1  0.95870400  0.04129600  0.00000000  1
  La  La6  1  0.71862700  0.79367300  0.74052500  1
  La  La7  1  0.45846200  0.54153800  0.50000000  1
  La  La8  1  0.29113000  0.70887000  0.00000000  1
  La  La9  1  0.62512100  0.37487900  0.00000000  1
  La  La10  1  0.36971900  0.12056600  0.74296000  1
  Mn  Mn0  1  0.16768500  0.58597200  0.37523000  1
  Mn  Mn1  1  0.08437400  0.16492700  0.62474700  1
  Mn  Mn2  1  0.83507300  0.91562600  0.37525300  1
  Mn  Mn3  1  0.91629800  0.33301100  0.12567800  1
  Mn  Mn4  1  0.00136700  0.75108900  0.87157800  1
  Mn  Mn5  1  0.66698900  0.08370200  0.87432200  1
  Mn  Mn6  1  0.75241600  0.50325400  0.62425900  1
  Mn  Mn7  1  0.41402800  0.83231500  0.62477000  1
  Mn  Mn8  1  0.49674600  0.24758400  0.37574100  1
  Mn  Mn9  1  0.58402300  0.66741100  0.12332600  1
  Mn  Mn10  1  0.33258900  0.41597700  0.87667400  1
  Mn  Mn11  1  0.24891100  0.99863300  0.12842200  1
  O  O0  1  0.17481500  0.76468100  0.23448300  1
  O  O1  1  0.06184900  0.43255800  0.25199400  1
  O  O2  1  0.23531900  0.82518500  0.76551700  1
  O  O3  1  0.16242800  0.39365700  0.49965200  1
  O  O4  1  0.05357100  0.00241300  0.23462700  1
  O  O5  1  0.73294800  0.33649200  0.25165100  1
  O  O6  1  0.93700900  0.49810800  0.49961300  1
  O  O7  1  0.82812700  0.10440700  0.25256400  1
  O  O8  1  0.22785100  0.27219500  0.75148700  1
  O  O9  1  0.87820300  0.58886700  0.76478800  1
  O  O10  1  0.93664400  0.06335600  0.50000000  1
  O  O11  1  0.41113300  0.12179700  0.23521200  1
  O  O12  1  0.72780500  0.77214900  0.24851300  1
  O  O13  1  0.99804700  0.55925700  0.00199400  1
  O  O14  1  0.89559300  0.17187300  0.74743600  1
  O  O15  1  0.80784600  0.71660600  0.49987800  1
  O  O16  1  0.50189200  0.06299100  0.50038700  1
  O  O17  1  0.39655500  0.66490400  0.24931400  1
  O  O18  1  0.10283500  0.33371100  0.00106400  1
  O  O19  1  0.99758700  0.94642900  0.76537300  1
  O  O20  1  0.66350800  0.26705200  0.74834900  1
  O  O21  1  0.60634300  0.83757200  0.50034800  1
  O  O22  1  0.50304700  0.43968200  0.24874700  1
  O  O23  1  0.77087200  0.22912800  0.00000000  1
  O  O24  1  0.10574000  0.89426000  0.00000000  1
  O  O25  1  0.56744200  0.93815100  0.74800600  1
  O  O26  1  0.60670000  0.39330000  0.50000000  1
  O  O27  1  0.28348700  0.71651300  0.50000000  1
  O  O28  1  0.66628900  0.89716500  0.99893600  1
  O  O29  1  0.56031800  0.49695300  0.75125300  1
  O  O30  1  0.44074300  0.00195300  0.99800600  1
  O  O31  1  0.77138700  0.66882900  0.00078700  1
  O  O32  1  0.33509600  0.60344500  0.75068600  1
  O  O33  1  0.28339400  0.19215400  0.50012200  1
  O  O34  1  0.43847300  0.56152700  0.00000000  1
  O  O35  1  0.33117100  0.22861300  0.99921300  1
loop_
_geom_bond_atom_site_label_1
_geom_bond_atom_site_label_2
_geom_bond_distance
_geom_bond_site_symmetry_2
La0 O4 2.419322 1_555
La0 O22 2.455650 1_555
La0 O1 2.474580 1_555
La0 O33 2.666928 1_555
La0 O10 2.710259 1_455
La0 O3 2.751652 1_555
La0 O35 2.811262 1_554
La0 O18 2.870983 1_555
La0 O34 2.875606 1_555
La0 O11 3.059576 1_555
La0 O17 3.181819 1_555
La0 O7 3.185752 1_455
La1 O9 2.415692 1_455
La1 O32 2.451831 1_555
La1 O14 2.470749 1_455
La1 O27 2.672669 1_555
La1 O6 2.715008 1_455
La1 O3 2.760635 1_555
La1 O13 2.810531 1_456
La1 O23 2.865939 1_456
La1 O18 2.873012 1_556
La1 O2 3.057767 1_555
La1 O8 3.174970 1_555
La1 O20 3.178476 1_455
La2 O6 2.422910 1_555
La2 O16 2.422910 1_555
La2 O10 2.426560 1_555
La2 O14 2.751811 1_555
La2 O7 2.751811 1_555
La2 O20 2.761397 1_555
La2 O5 2.761397 1_555
La2 O1 2.761820 1_655
La2 O25 2.761820 1_545
La3 O0 2.422406 1_655
La3 O12 2.457858 1_555
La3 O5 2.473409 1_555
La3 O15 2.687517 1_555
La3 O6 2.726935 1_555
La3 O26 2.768408 1_555
La3 O24 2.791544 1_655
La3 O13 2.847078 1_555
La3 O31 2.853165 1_555
La3 O4 3.061189 1_665
La3 O22 3.173146 1_555
La3 O1 3.182014 1_655
La4 O11 2.415692 1_565
La4 O17 2.451831 1_555
La4 O7 2.470749 1_565
La4 O27 2.672669 1_555
La4 O16 2.715008 1_565
La4 O21 2.760635 1_555
La4 O30 2.810531 1_564
La4 O23 2.865939 1_565
La4 O28 2.873012 1_554
La4 O0 3.057767 1_555
La4 O12 3.174970 1_555
La4 O5 3.178476 1_565
La5 O18 2.449460 1_655
La5 O28 2.449460 1_544
La5 O24 2.460344 1_645
La5 O19 2.595851 1_544
La5 O4 2.595851 1_655
La5 O12 2.772006 1_545
La5 O8 2.772006 1_654
La5 O14 2.828578 1_554
La5 O7 2.828578 1_555
La6 O19 2.419322 1_555
La6 O29 2.455650 1_555
La6 O25 2.474580 1_555
La6 O15 2.666928 1_555
La6 O10 2.710259 1_565
La6 O21 2.751652 1_555
La6 O31 2.811262 1_556
La6 O28 2.870983 1_555
La6 O34 2.875606 1_556
La6 O9 3.059576 1_555
La6 O32 3.181819 1_555
La6 O14 3.185752 1_565
La7 O21 2.477655 1_555
La7 O3 2.477655 1_555
La7 O26 2.480457 1_555
La7 O32 2.779288 1_555
La7 O17 2.779288 1_555
La7 O29 2.786421 1_555
La7 O22 2.786421 1_555
La7 O12 2.788208 1_555
La7 O8 2.788208 1_555
La7 O33 2.922681 1_555
La7 O15 2.922681 1_555
La7 O27 2.927846 1_555
La8 O30 2.446639 1_564
La8 O13 2.446639 1_455
La8 O34 2.465481 1_555
La8 O0 2.591551 1_555
La8 O2 2.591551 1_554
La8 O17 2.788840 1_555
La8 O32 2.788840 1_554
La8 O25 2.815550 1_554
La8 O1 2.815550 1_555
La9 O23 2.438842 1_555
La9 O35 2.461459 1_554
La9 O31 2.461459 1_555
La9 O11 2.609198 1_555
La9 O9 2.609198 1_554
La9 O22 2.775376 1_555
La9 O29 2.775376 1_554
La9 O5 2.812411 1_555
La9 O20 2.812411 1_554
La10 O2 2.422406 1_545
La10 O8 2.457858 1_555
La10 O20 2.473409 1_555
La10 O33 2.687517 1_555
La10 O16 2.726935 1_555
La10 O26 2.768408 1_555
La10 O24 2.791544 1_546
La10 O30 2.847078 1_555
La10 O35 2.853165 1_555
La10 O19 3.061189 1_445
La10 O29 3.173146 1_555
La10 O25 3.182014 1_545
Mn0 O27 1.950013 1_555
Mn0 O0 1.963026 1_555
Mn0 O6 1.992138 1_455
Mn0 O3 2.000612 1_555
Mn0 O17 2.004865 1_555
Mn0 O1 2.025140 1_555
Mn1 O33 1.948001 1_555
Mn1 O19 1.962322 1_445
Mn1 O10 1.995363 1_455
Mn1 O8 2.001916 1_555
Mn1 O3 2.003374 1_555
Mn1 O14 2.031557 1_455
Mn2 O15 1.948001 1_555
Mn2 O4 1.962322 1_665
Mn2 O10 1.995363 1_565
Mn2 O12 2.001916 1_555
Mn2 O21 2.003374 1_555
Mn2 O7 2.031557 1_565
Mn3 O13 1.969798 1_555
Mn3 O18 1.980159 1_655
Mn3 O7 1.983588 1_555
Mn3 O5 1.983879 1_555
Mn3 O1 1.990843 1_655
Mn3 O23 1.995414 1_555
Mn4 O9 1.997975 1_455
Mn4 O2 2.002177 1_555
Mn4 O24 2.005841 1_556
Mn4 O19 2.005952 1_455
Mn4 O31 2.016052 1_456
Mn4 O13 2.032323 1_456
Mn5 O30 1.969798 1_555
Mn5 O28 1.980159 1_545
Mn5 O14 1.983588 1_555
Mn5 O20 1.983879 1_555
Mn5 O25 1.990843 1_545
Mn5 O23 1.995414 1_556
Mn6 O15 1.948695 1_555
Mn6 O9 1.968557 1_555
Mn6 O6 1.996928 1_555
Mn6 O26 2.001669 1_555
Mn6 O29 2.004217 1_555
Mn6 O20 2.032046 1_555
Mn7 O27 1.950013 1_555
Mn7 O2 1.963026 1_555
Mn7 O16 1.992138 1_565
Mn7 O21 2.000612 1_555
Mn7 O32 2.004865 1_555
Mn7 O25 2.025140 1_555
Mn8 O33 1.948695 1_555
Mn8 O11 1.968557 1_555
Mn8 O16 1.996928 1_555
Mn8 O26 2.001669 1_555
Mn8 O22 2.004217 1_555
Mn8 O5 2.032046 1_555
Mn9 O31 1.974082 1_555
Mn9 O34 1.983053 1_555
Mn9 O17 1.983672 1_555
Mn9 O12 1.985028 1_555
Mn9 O22 1.989028 1_555
Mn9 O28 1.998259 1_554
Mn10 O35 1.974082 1_555
Mn10 O34 1.983053 1_556
Mn10 O32 1.983672 1_555
Mn10 O8 1.985028 1_555
Mn10 O29 1.989028 1_555
Mn10 O18 1.998259 1_556
Mn11 O11 1.997975 1_565
Mn11 O0 2.002177 1_555
Mn11 O24 2.005841 1_555
Mn11 O4 2.005952 1_565
Mn11 O35 2.016052 1_564
Mn11 O30 2.032323 1_564
