# generated using pymatgen
data_Li2VO2F
_symmetry_space_group_name_H-M   'P 1'
_cell_length_a   3.00901404
_cell_length_b   10.05449577
_cell_length_c   7.97535253
_cell_angle_alpha   70.84852463
_cell_angle_beta   79.14416333
_cell_angle_gamma   90.00668765
_symmetry_Int_Tables_number   1
_chemical_formula_structural   Li2VO2F
_chemical_formula_sum   'Li8 V4 O8 F4'
_cell_volume   223.35517709
_cell_formula_units_Z   4
loop_
 _symmetry_equiv_pos_site_id
 _symmetry_equiv_pos_as_xyz
  1  'x, y, z'
loop_
 _atom_site_type_symbol
 _atom_site_label
 _atom_site_symmetry_multiplicity
 _atom_site_fract_x
 _atom_site_fract_y
 _atom_site_fract_z
 _atom_site_occupancy
  Li  Li0  1  0.93785500  0.29517700  0.12481000  1
  Li  Li1  1  0.92093000  0.79063700  0.15806800  1
  Li  Li2  1  0.57798700  0.95743400  0.84380500  1
  Li  Li3  1  0.57269000  0.44228300  0.85448500  1
  Li  Li4  1  0.07687900  0.70076600  0.84609700  1
  Li  Li5  1  0.42058300  0.53747800  0.15925100  1
  Li  Li6  1  0.43783200  0.05673600  0.12464300  1
  Li  Li7  1  0.06516200  0.21928700  0.86936800  1
  V  V0  1  0.74746700  0.85931600  0.50513000  1
  V  V1  1  0.74773300  0.37088500  0.50434900  1
  V  V2  1  0.25104200  0.63029200  0.49785200  1
  V  V3  1  0.24317700  0.13726300  0.51359400  1
  O  O0  1  0.67031400  0.16503900  0.65957100  1
  O  O1  1  0.66923100  0.66490900  0.66174700  1
  O  O2  1  0.82197000  0.58041100  0.35568500  1
  O  O3  1  0.18324300  0.92571200  0.63383700  1
  O  O4  1  0.32825300  0.83233500  0.34338100  1
  O  O5  1  0.17984700  0.42450800  0.64037700  1
  O  O6  1  0.32429400  0.33221400  0.35097900  1
  O  O7  1  0.49878800  0.25017900  0.00249300  1
  F  F0  1  0.82529900  0.07998500  0.34926400  1
  F  F1  1  0.50132800  0.75027500  0.99729500  1
  F  F2  1  0.99794200  0.50899300  0.00449300  1
  F  F3  1  0.00023700  0.98788800  0.99942900  1
loop_
_geom_bond_atom_site_label_1
_geom_bond_atom_site_label_2
_geom_bond_distance
_geom_bond_site_symmetry_2
Li0 O7 1.916963 1_655
Li0 O7 1.917476 1_555
Li0 O6 2.444396 1_655
Li0 O6 2.446893 1_555
Li1 O2 2.162801 1_555
Li1 O4 2.225089 1_655
Li1 O4 2.225851 1_555
Li2 O0 2.104026 1_565
Li2 O3 2.327302 1_555
Li2 O3 2.329070 1_655
Li3 O7 1.891721 1_556
Li3 O1 2.243141 1_555
Li3 O5 2.303386 1_555
Li3 O5 2.304501 1_655
Li4 O1 2.196185 1_455
Li4 O1 2.197588 1_555
Li4 O3 2.316704 1_555
Li5 O6 2.108038 1_555
Li5 O2 2.292537 1_555
Li5 O2 2.294795 1_455
Li6 O7 1.858760 1_555
Li6 O4 2.333077 1_545
Li7 O7 1.913909 1_456
Li7 O7 1.914233 1_556
Li7 O5 2.236492 1_555
Li7 O0 2.419952 1_455
Li7 O0 2.421616 1_555
O0 V3 1.965241 1_555
O0 V3 1.965259 1_655
O0 V1 2.020024 1_555
O1 V0 1.929634 1_555
O1 V2 2.081125 1_555
O1 V2 2.081169 1_655
O2 V2 2.031746 1_555
O2 V2 2.031839 1_655
O2 V1 2.038383 1_555
O3 V3 2.018131 1_565
O3 V0 2.043316 1_455
O3 V0 2.043319 1_555
O4 V2 1.987072 1_555
O4 V0 2.042393 1_555
O4 V0 2.042629 1_455
O5 V2 1.995989 1_555
O5 V1 2.018217 1_455
O5 V1 2.018232 1_555
O6 V3 1.948425 1_555
O6 V1 2.041997 1_555
O6 V1 2.042066 1_455
F0 V0 2.145548 1_545
F0 V3 2.178570 1_655
F0 V3 2.179038 1_555
F0 Li0 2.287070 1_555
F0 Li6 2.384242 1_555
F0 Li6 2.385813 1_655
F1 Li2 2.027478 1_555
F1 Li4 2.075301 1_555
F1 Li4 2.075711 1_655
F1 Li1 2.086629 1_556
F1 Li1 2.087313 1_456
F1 Li5 2.091301 1_556
F2 Li4 1.912797 1_654
F2 Li5 2.011418 1_655
F2 Li5 2.011943 1_555
F2 Li0 2.038671 1_555
F2 Li3 2.149306 1_654
F2 Li3 2.149762 1_554
F3 Li1 1.957237 1_456
F3 Li2 2.022823 1_455
F3 Li2 2.023163 1_555
F3 Li6 2.039005 1_466
F3 Li6 2.039332 1_566
F3 Li7 2.206191 1_565
