# generated using pymatgen
data_Li7Cr7(P4O17)2
_symmetry_space_group_name_H-M   'P 1'
_cell_length_a   20.23719400
_cell_length_b   7.97331200
_cell_length_c   9.93075351
_cell_angle_alpha   67.90100518
_cell_angle_beta   90.00000000
_cell_angle_gamma   90.00000000
_symmetry_Int_Tables_number   1
_chemical_formula_structural   Li7Cr7(P4O17)2
_chemical_formula_sum   'Li14 Cr14 P16 O68'
_cell_volume   1484.68114770
_cell_formula_units_Z   2
loop_
 _symmetry_equiv_pos_site_id
 _symmetry_equiv_pos_as_xyz
  1  'x, y, z'
loop_
 _atom_site_type_symbol
 _atom_site_label
 _atom_site_symmetry_multiplicity
 _atom_site_fract_x
 _atom_site_fract_y
 _atom_site_fract_z
 _atom_site_occupancy
  Li  Li0  1  0.00000000  0.00000000  0.50000000  1
  Li  Li1  1  0.35579000  0.77676100  0.82623600  1
  Li  Li2  1  0.50000000  0.00000000  0.00000000  1
  Li  Li3  1  0.14421000  0.77676100  0.32623600  1
  Li  Li4  1  0.94894000  0.54988400  0.82173700  1
  Li  Li5  1  0.23936300  0.64523900  0.69960800  1
  Li  Li6  1  0.73936300  0.35476100  0.80039200  1
  Li  Li7  1  0.55106000  0.54988400  0.32173700  1
  Li  Li8  1  0.44894000  0.45011600  0.67826300  1
  Li  Li9  1  0.26063700  0.64523900  0.19960800  1
  Li  Li10  1  0.76063700  0.35476100  0.30039200  1
  Li  Li11  1  0.05106000  0.45011600  0.17826300  1
  Li  Li12  1  0.85579000  0.22323900  0.67376400  1
  Li  Li13  1  0.64421000  0.22323900  0.17376400  1
  Cr  Cr0  1  0.66116100  0.98242300  0.95143600  1
  Cr  Cr1  1  0.07997700  0.89892700  0.89139400  1
  Cr  Cr2  1  0.83883900  0.98242300  0.45143600  1
  Cr  Cr3  1  0.42002300  0.89892700  0.39139400  1
  Cr  Cr4  1  0.63856000  0.71814200  0.80127100  1
  Cr  Cr5  1  0.86144000  0.71814200  0.30127100  1
  Cr  Cr6  1  0.00000000  0.50000000  0.50000000  1
  Cr  Cr7  1  0.13856000  0.28185800  0.69872900  1
  Cr  Cr8  1  0.50000000  0.50000000  0.00000000  1
  Cr  Cr9  1  0.36144000  0.28185800  0.19872900  1
  Cr  Cr10  1  0.57997700  0.10107300  0.60860600  1
  Cr  Cr11  1  0.16116100  0.01757700  0.54856400  1
  Cr  Cr12  1  0.92002300  0.10107300  0.10860600  1
  Cr  Cr13  1  0.33883900  0.01757700  0.04856400  1
  P  P0  1  0.72510900  0.04492900  0.65061800  1
  P  P1  1  0.49321800  0.81971700  0.68581000  1
  P  P2  1  0.77489100  0.04492900  0.15061800  1
  P  P3  1  0.08493200  0.65507100  0.69923100  1
  P  P4  1  0.85288000  0.61632300  0.59773900  1
  P  P5  1  0.00678200  0.81971700  0.18581000  1
  P  P6  1  0.41506800  0.65507100  0.19923100  1
  P  P7  1  0.35288000  0.38367700  0.90226100  1
  P  P8  1  0.64712000  0.61632300  0.09773900  1
  P  P9  1  0.58493200  0.34492900  0.80076900  1
  P  P10  1  0.99321800  0.18028300  0.81419000  1
  P  P11  1  0.14712000  0.38367700  0.40226100  1
  P  P12  1  0.91506800  0.34492900  0.30076900  1
  P  P13  1  0.22510900  0.95507100  0.84938200  1
  P  P14  1  0.50678200  0.18028300  0.31419000  1
  P  P15  1  0.27489100  0.95507100  0.34938200  1
  O  O0  1  0.29514700  0.90198300  0.91688900  1
  O  O1  1  0.17258500  0.84684500  0.96086000  1
  O  O2  1  0.60576800  0.93982700  0.81130200  1
  O  O3  1  0.22418600  0.89657700  0.71294500  1
  O  O4  1  0.48509000  0.02658100  0.64249900  1
  O  O5  1  0.20485300  0.90198300  0.41688900  1
  O  O6  1  0.32741500  0.84684500  0.46086000  1
  O  O7  1  0.69788300  0.72694000  0.97618900  1
  O  O8  1  0.89423200  0.93982700  0.31130200  1
  O  O9  1  0.88380800  0.75142300  0.65679600  1
  O  O10  1  0.27581400  0.89657700  0.21294500  1
  O  O11  1  0.01491000  0.02658100  0.14249900  1
  O  O12  1  0.71547700  0.84028000  0.68664500  1
  O  O13  1  0.09099300  0.83697400  0.56460900  1
  O  O14  1  0.07266800  0.68028300  0.84391200  1
  O  O15  1  0.47452800  0.73555900  0.84890200  1
  O  O16  1  0.56749100  0.79376400  0.64667600  1
  O  O17  1  0.44667700  0.74012100  0.60082000  1
  O  O18  1  0.59447700  0.56880400  0.99789500  1
  O  O19  1  0.80211700  0.72694000  0.47618900  1
  O  O20  1  0.01999700  0.56882700  0.67131900  1
  O  O21  1  0.61619200  0.75142300  0.15679600  1
  O  O22  1  0.78452300  0.84028000  0.18664500  1
  O  O23  1  0.40900700  0.83697400  0.06460900  1
  O  O24  1  0.42733200  0.68028300  0.34391300  1
  O  O25  1  0.02547200  0.73555900  0.34890200  1
  O  O26  1  0.93250900  0.79376400  0.14667600  1
  O  O27  1  0.05332300  0.74012100  0.10082000  1
  O  O28  1  0.90552300  0.56880400  0.49789500  1
  O  O29  1  0.32427600  0.55753300  0.79333700  1
  O  O30  1  0.64810100  0.46127600  0.79040200  1
  O  O31  1  0.14810100  0.53872400  0.70959800  1
  O  O32  1  0.82427600  0.44246700  0.70666300  1
  O  O33  1  0.51999700  0.43117300  0.82868100  1
  O  O34  1  0.48000300  0.56882700  0.17132000  1
  O  O35  1  0.17572400  0.55753300  0.29333700  1
  O  O36  1  0.85189900  0.46127600  0.29040200  1
  O  O37  1  0.35189900  0.53872400  0.20959800  1
  O  O38  1  0.67572400  0.44246700  0.20666300  1
  O  O39  1  0.09447700  0.43119600  0.50210500  1
  O  O40  1  0.94667700  0.25987900  0.89918000  1
  O  O41  1  0.06749100  0.20623600  0.85332400  1
  O  O42  1  0.97452800  0.26444100  0.65109800  1
  O  O43  1  0.57266800  0.31971700  0.65608800  1
  O  O44  1  0.59099300  0.16302600  0.93539100  1
  O  O45  1  0.21547700  0.15972000  0.81335500  1
  O  O46  1  0.38380800  0.24857700  0.84320400  1
  O  O47  1  0.98000300  0.43117300  0.32868100  1
  O  O48  1  0.19788300  0.27306000  0.52381100  1
  O  O49  1  0.40552300  0.43119600  0.00210500  1
  O  O50  1  0.55332300  0.25987900  0.39918000  1
  O  O51  1  0.43250900  0.20623600  0.35332400  1
  O  O52  1  0.52547200  0.26444100  0.15109800  1
  O  O53  1  0.92733200  0.31971700  0.15608800  1
  O  O54  1  0.90900700  0.16302600  0.43539100  1
  O  O55  1  0.28452300  0.15972000  0.31335500  1
  O  O56  1  0.98509000  0.97341900  0.85750100  1
  O  O57  1  0.72418600  0.10342300  0.78705500  1
  O  O58  1  0.11619200  0.24857700  0.34320400  1
  O  O59  1  0.10576800  0.06017300  0.68869800  1
  O  O60  1  0.30211700  0.27306000  0.02381100  1
  O  O61  1  0.67258500  0.15315500  0.53914000  1
  O  O62  1  0.79514700  0.09801700  0.58311100  1
  O  O63  1  0.51491000  0.97341900  0.35750100  1
  O  O64  1  0.77581400  0.10342300  0.28705500  1
  O  O65  1  0.39423200  0.06017300  0.18869800  1
  O  O66  1  0.82741500  0.15315500  0.03914000  1
  O  O67  1  0.70485300  0.09801700  0.08311100  1
loop_
_geom_bond_atom_site_label_1
_geom_bond_atom_site_label_2
_geom_bond_distance
_geom_bond_site_symmetry_2
Li0 O13 2.205604 1_545
Li0 O54 2.205604 1_455
Li1 O0 1.997438 1_555
Li1 O29 1.999644 1_555
Li1 O15 2.424251 1_555
Li2 O44 2.205604 1_554
Li2 O23 2.205604 1_545
Li3 O5 1.997438 1_555
Li3 O35 1.999644 1_555
Li3 O25 2.424251 1_555
Li4 O20 2.037698 1_655
Li4 O40 2.145288 1_555
Li4 O9 2.241012 1_555
Li5 O29 1.954114 1_555
Li5 O31 2.019582 1_555
Li5 O3 2.080285 1_555
Li6 O32 1.954114 1_555
Li6 O30 2.019582 1_555
Li6 O57 2.080285 1_555
Li7 O34 2.037691 1_555
Li7 O50 2.145288 1_555
Li7 O21 2.241012 1_555
Li8 O33 2.037698 1_555
Li8 O17 2.145288 1_555
Li8 O46 2.241012 1_555
Li9 O35 1.954114 1_555
Li9 O37 2.019582 1_555
Li9 O10 2.080285 1_555
Li10 O38 1.954114 1_555
Li10 O36 2.019582 1_555
Li10 O64 2.080285 1_555
Li11 O47 2.037698 1_455
Li11 O27 2.145288 1_555
Li11 O58 2.241012 1_555
Li12 O62 1.997438 1_555
Li12 O32 1.999644 1_555
Li12 O42 2.424251 1_555
Li13 O67 1.997438 1_555
Li13 O38 1.999644 1_555
Li13 O52 2.424251 1_555
Cr0 O2 1.914227 1_555
Cr0 O44 1.985641 1_565
Cr0 O57 2.009323 1_565
Cr0 O67 2.061068 1_566
Cr0 O7 2.094156 1_555
Cr0 O21 2.356562 1_556
Cr1 O14 1.975318 1_555
Cr1 O1 1.986238 1_555
Cr1 O56 2.000748 1_455
Cr1 O59 2.007487 1_565
Cr1 O27 2.058693 1_556
Cr1 O41 2.348105 1_565
Cr2 O8 1.914227 1_555
Cr2 O54 1.985641 1_565
Cr2 O64 2.009323 1_565
Cr2 O62 2.061068 1_565
Cr2 O19 2.094156 1_555
Cr2 O9 2.356562 1_555
Cr3 O24 1.975313 1_555
Cr3 O6 1.986238 1_555
Cr3 O63 2.000748 1_555
Cr3 O65 2.007487 1_565
Cr3 O17 2.058693 1_555
Cr3 O51 2.348105 1_565
Cr4 O2 1.925377 1_555
Cr4 O12 1.957809 1_555
Cr4 O16 2.023007 1_555
Cr4 O18 2.068100 1_555
Cr4 O30 2.099968 1_555
Cr4 O7 2.134311 1_555
Cr5 O8 1.925377 1_555
Cr5 O22 1.957809 1_555
Cr5 O26 2.023007 1_555
Cr5 O28 2.068100 1_555
Cr5 O36 2.099968 1_555
Cr5 O19 2.134311 1_555
Cr6 O25 1.980999 1_555
Cr6 O42 1.980999 1_455
Cr6 O39 1.987037 1_555
Cr6 O28 1.987037 1_455
Cr6 O20 2.015424 1_555
Cr6 O47 2.015424 1_455
Cr7 O59 1.925377 1_555
Cr7 O45 1.957809 1_555
Cr7 O41 2.023007 1_555
Cr7 O39 2.068100 1_555
Cr7 O31 2.099968 1_555
Cr7 O48 2.134311 1_555
Cr8 O52 1.980999 1_555
Cr8 O15 1.980999 1_554
Cr8 O18 1.987037 1_554
Cr8 O49 1.987037 1_555
Cr8 O33 2.015424 1_554
Cr8 O34 2.015434 1_555
Cr9 O65 1.925377 1_555
Cr9 O55 1.957809 1_555
Cr9 O51 2.023007 1_555
Cr9 O49 2.068100 1_555
Cr9 O37 2.099968 1_555
Cr9 O60 2.134311 1_555
Cr10 O43 1.975318 1_555
Cr10 O61 1.986238 1_555
Cr10 O4 2.000748 1_555
Cr10 O2 2.007487 1_545
Cr10 O50 2.058693 1_555
Cr10 O16 2.348105 1_545
Cr11 O59 1.914227 1_555
Cr11 O13 1.985641 1_545
Cr11 O3 2.009323 1_545
Cr11 O5 2.061068 1_545
Cr11 O48 2.094156 1_555
Cr11 O58 2.356562 1_555
Cr12 O53 1.975318 1_555
Cr12 O66 1.986238 1_555
Cr12 O11 2.000748 1_655
Cr12 O8 2.007487 1_545
Cr12 O40 2.058693 1_554
Cr12 O26 2.348105 1_545
Cr13 O65 1.914227 1_555
Cr13 O23 1.985641 1_545
Cr13 O10 2.009323 1_545
Cr13 O0 2.061068 1_544
Cr13 O60 2.094156 1_555
Cr13 O46 2.356562 1_554
O0 P13 1.556931 1_555
O1 P13 1.543135 1_555
O3 P13 1.590331 1_555
O4 P1 1.548794 1_545
O5 P15 1.556931 1_555
O6 P15 1.543135 1_555
O7 P8 1.577735 1_556
O9 P4 1.539933 1_555
O10 P15 1.590331 1_555
O11 P5 1.548794 1_545
O12 P0 1.545732 1_565
O13 P3 1.564283 1_555
O14 P3 1.543922 1_555
O15 P1 1.548803 1_555
O16 P1 1.585435 1_555
O17 P1 1.550891 1_555
O18 P8 1.595087 1_556
O19 P4 1.577735 1_555
O20 P3 1.555627 1_555
O21 P8 1.539933 1_555
O22 P2 1.545732 1_565
O23 P6 1.564283 1_555
O24 P6 1.543932 1_555
O25 P5 1.548803 1_555
O26 P5 1.585435 1_655
O27 P5 1.550891 1_555
O28 P4 1.595087 1_555
O29 P7 1.516084 1_555
O30 P9 1.559976 1_555
O31 P3 1.559976 1_555
O32 P4 1.516084 1_555
O33 P9 1.555627 1_555
O34 P6 1.555624 1_555
O35 P11 1.516084 1_555
O36 P12 1.559976 1_555
O37 P6 1.559976 1_555
O38 P8 1.516084 1_555
O39 P11 1.595087 1_555
O40 P10 1.550891 1_555
O41 P10 1.585435 1_455
O42 P10 1.548803 1_555
O43 P9 1.543922 1_555
O44 P9 1.564283 1_555
O45 P13 1.545732 1_545
O46 P7 1.539933 1_555
O47 P12 1.555627 1_555
O48 P11 1.577735 1_555
O49 P7 1.595087 1_554
O50 P14 1.550891 1_555
O51 P14 1.585435 1_555
O52 P14 1.548803 1_555
O53 P12 1.543922 1_555
O54 P12 1.564283 1_555
O55 P15 1.545732 1_545
O56 P10 1.548794 1_565
O57 P0 1.590331 1_555
O58 P11 1.539933 1_555
O60 P7 1.577735 1_554
O61 P0 1.543135 1_555
O62 P0 1.556931 1_555
O63 P14 1.548794 1_565
O64 P2 1.590331 1_555
O66 P2 1.543135 1_555
O67 P2 1.556931 1_555
