# generated using pymatgen
data_Sb17S27
_symmetry_space_group_name_H-M   'P 1'
_cell_length_a   8.77609500
_cell_length_b   8.79109864
_cell_length_c   15.38668102
_cell_angle_alpha   103.69268788
_cell_angle_beta   95.38762489
_cell_angle_gamma   96.58438630
_symmetry_Int_Tables_number   1
_chemical_formula_structural   Sb17S27
_chemical_formula_sum   'Sb17 S27'
_cell_volume   1136.71496349
_cell_formula_units_Z   1
loop_
 _symmetry_equiv_pos_site_id
 _symmetry_equiv_pos_as_xyz
  1  'x, y, z'
loop_
 _atom_site_type_symbol
 _atom_site_label
 _atom_site_symmetry_multiplicity
 _atom_site_fract_x
 _atom_site_fract_y
 _atom_site_fract_z
 _atom_site_occupancy
  Sb  Sb0  1  0.61918200  0.33642400  0.92235400  1
  Sb  Sb1  1  0.12129700  0.59735500  0.61192100  1
  Sb  Sb2  1  0.87937900  0.00864600  0.80143500  1
  Sb  Sb3  1  0.54428800  0.05404500  0.39119400  1
  Sb  Sb4  1  0.05241600  0.32931300  0.06593000  1
  Sb  Sb5  1  0.80807200  0.28287700  0.61155400  1
  Sb  Sb6  1  0.28048900  0.99778700  0.92250500  1
  Sb  Sb7  1  0.52663300  0.65797400  0.80135700  1
  Sb  Sb8  1  0.47389300  0.32097600  0.19404400  1
  Sb  Sb9  1  0.71190300  0.99955600  0.06906600  1
  Sb  Sb10  1  0.21281900  0.71887500  0.39204000  1
  Sb  Sb11  1  0.95481300  0.66619800  0.92952000  1
  Sb  Sb12  1  0.44940300  0.95287500  0.60813500  1
  Sb  Sb13  1  0.13967600  0.99407400  0.19627200  1
  Sb  Sb14  1  0.87556200  0.38553200  0.38851500  1
  Sb  Sb15  1  0.38076900  0.65786800  0.06612600  1
  Sb  Sb16  1  0.80262700  0.65685500  0.19693800  1
  S  S0  1  0.15529000  0.01608200  0.77434300  1
  S  S1  1  0.09688200  0.33414500  0.65050600  1
  S  S2  1  0.22009400  0.01804500  0.35545800  1
  S  S3  1  0.56267900  0.02318200  0.87560100  1
  S  S4  1  0.17126900  0.30455900  0.22267500  1
  S  S5  1  0.18008000  0.46487300  0.46032700  1
  S  S6  1  0.48194500  0.20006800  0.53803800  1
  S  S7  1  0.50310400  0.36532600  0.77449200  1
  S  S8  1  0.23708200  0.69036700  0.88287000  1
  S  S9  1  0.09810400  0.64740300  0.12196800  1
  S  S10  1  0.84326000  0.12801800  0.45985800  1
  S  S11  1  0.43852300  0.64201400  0.64278700  1
  S  S12  1  0.55612600  0.35000400  0.35698700  1
  S  S13  1  0.15778300  0.87607700  0.53771600  1
  S  S14  1  0.89972300  0.35431300  0.88197300  1
  S  S15  1  0.32365800  0.34614200  0.00553300  1
  S  S16  1  0.76145600  0.31683800  0.12799100  1
  S  S17  1  0.50716700  0.63880800  0.22368700  1
  S  S18  1  0.51328700  0.79596200  0.46396500  1
  S  S19  1  0.81920300  0.53677400  0.53672900  1
  S  S20  1  0.82670300  0.69469000  0.77585900  1
  S  S21  1  0.43224700  0.98672000  0.12720300  1
  S  S22  1  0.78653000  0.98932300  0.64281300  1
  S  S23  1  0.88795700  0.68367900  0.35772600  1
  S  S24  1  0.66593700  0.67189800  0.00143400  1
  S  S25  1  0.83821900  0.97214000  0.22244800  1
  S  S26  1  0.99514400  0.00163600  0.00092700  1
loop_
_geom_bond_atom_site_label_1
_geom_bond_atom_site_label_2
_geom_bond_distance
_geom_bond_site_symmetry_2
S0 Sb6 2.484753 1_545
S0 Sb2 2.491480 1_455
S1 Sb5 2.512276 1_455
S1 Sb1 2.512589 1_555
S2 Sb13 2.436945 1_545
S2 Sb10 2.811952 1_545
S2 Sb3 2.813318 1_555
S3 Sb6 2.643669 1_545
S3 Sb0 2.651130 1_555
S3 Sb2 3.106707 1_555
S3 Sb7 3.110585 1_545
S4 Sb4 2.603877 1_555
S4 Sb13 2.640536 1_545
S4 Sb8 2.725873 1_555
S5 Sb1 2.478085 1_555
S5 Sb10 2.681968 1_555
S5 Sb14 2.739101 1_455
S6 Sb3 2.464219 1_555
S6 Sb12 2.644306 1_545
S6 Sb5 2.919860 1_555
S7 Sb0 2.485203 1_555
S7 Sb7 2.488162 1_555
S8 Sb6 2.600163 1_555
S8 Sb11 2.642420 1_455
S8 Sb7 2.950735 1_555
S8 Sb15 3.069006 1_556
S9 Sb4 2.694495 1_555
S9 Sb15 2.699245 1_555
S9 Sb16 2.937288 1_455
S9 Sb13 2.957247 1_555
S9 Sb11 3.155477 1_454
S10 Sb5 2.474701 1_555
S10 Sb3 2.680735 1_555
S10 Sb14 2.738262 1_555
S11 Sb7 2.455469 1_555
S11 Sb1 2.746480 1_555
S11 Sb12 2.898480 1_555
S12 Sb8 2.487338 1_555
S12 Sb3 2.766551 1_555
S12 Sb14 2.768397 1_555
S13 Sb10 2.461139 1_555
S13 Sb12 2.629912 1_555
S13 Sb1 2.936530 1_555
S14 Sb0 2.591761 1_555
S14 Sb11 2.639401 1_555
S14 Sb2 2.975402 1_555
S14 Sb4 3.083094 1_656
S15 Sb4 2.636620 1_555
S15 Sb15 2.649146 1_555
S15 Sb6 2.990798 1_544
S15 Sb0 2.999029 1_554
S15 Sb8 3.138966 1_555
S16 Sb9 2.691028 1_545
S16 Sb4 2.808462 1_655
S16 Sb8 2.808635 1_555
S16 Sb16 2.893079 1_555
S17 Sb15 2.620294 1_555
S17 Sb16 2.656147 1_555
S17 Sb8 2.699035 1_555
S18 Sb12 2.469867 1_555
S18 Sb10 2.706390 1_555
S18 Sb3 2.755669 1_565
S19 Sb14 2.477971 1_555
S19 Sb1 2.731218 1_655
S19 Sb5 2.739478 1_555
S20 Sb11 2.600508 1_555
S20 Sb2 2.673067 1_565
S20 Sb7 2.692984 1_555
S21 Sb9 2.689425 1_555
S21 Sb15 2.789175 1_555
S21 Sb8 2.842240 1_565
S21 Sb13 2.871287 1_555
S22 Sb2 2.459308 1_565
S22 Sb5 2.723915 1_565
S22 Sb12 2.923394 1_555
S23 Sb16 2.464233 1_555
S23 Sb14 2.763739 1_555
S23 Sb10 2.817889 1_655
S24 Sb15 2.779294 1_555
S24 Sb9 2.788970 1_555
S24 Sb11 2.860738 1_554
S24 Sb0 2.876879 1_554
S24 Sb7 3.172918 1_554
S25 Sb9 2.587673 1_555
S25 Sb16 2.682785 1_555
S25 Sb13 2.705282 1_655
S26 Sb4 2.785787 1_655
S26 Sb9 2.786853 1_545
S26 Sb11 2.860419 1_544
S26 Sb6 2.880242 1_644
S26 Sb2 3.158517 1_554
S26 Sb13 3.169483 1_645
