# generated using pymatgen
data_Li3TiMn3O8
_symmetry_space_group_name_H-M   'P 1'
_cell_length_a   5.90700000
_cell_length_b   6.11218904
_cell_length_c   14.66390074
_cell_angle_alpha   94.81862959
_cell_angle_beta   90.76505785
_cell_angle_gamma   118.20706710
_symmetry_Int_Tables_number   1
_chemical_formula_structural   Li3TiMn3O8
_chemical_formula_sum   'Li9 Ti3 Mn9 O24'
_cell_volume   464.06429148
_cell_formula_units_Z   3
loop_
 _symmetry_equiv_pos_site_id
 _symmetry_equiv_pos_as_xyz
  1  'x, y, z'
loop_
 _atom_site_type_symbol
 _atom_site_label
 _atom_site_symmetry_multiplicity
 _atom_site_fract_x
 _atom_site_fract_y
 _atom_site_fract_z
 _atom_site_occupancy
  Li  Li0  1  0.34186600  0.17429000  0.33556100  1
  Li  Li1  1  0.16754200  0.83422600  0.16850900  1
  Li  Li2  1  0.00000000  0.50000000  0.00000000  1
  Li  Li3  1  0.83245800  0.16577400  0.83149100  1
  Li  Li4  1  0.17130500  0.34371300  0.66876000  1
  Li  Li5  1  0.65813400  0.82571000  0.66443900  1
  Li  Li6  1  0.00000000  0.00000000  0.50000000  1
  Li  Li7  1  0.82869500  0.65628700  0.33124000  1
  Li  Li8  1  0.50000000  0.00000000  0.00000000  1
  Ti  Ti0  1  0.66263300  0.34265700  0.66327100  1
  Ti  Ti1  1  0.33736700  0.65734300  0.33672900  1
  Ti  Ti2  1  0.00000000  0.00000000  0.00000000  1
  Mn  Mn0  1  0.83321900  0.66620900  0.83319000  1
  Mn  Mn1  1  0.50000000  0.00000000  0.50000000  1
  Mn  Mn2  1  0.82976600  0.16874600  0.32992400  1
  Mn  Mn3  1  0.66543900  0.83442200  0.16615500  1
  Mn  Mn4  1  0.16678100  0.33379100  0.16681000  1
  Mn  Mn5  1  0.50000000  0.50000000  0.00000000  1
  Mn  Mn6  1  0.33456100  0.16557800  0.83384500  1
  Mn  Mn7  1  0.17023400  0.83125400  0.67007600  1
  Mn  Mn8  1  0.00000000  0.50000000  0.50000000  1
  O  O0  1  0.13610300  0.82588500  0.92009400  1
  O  O1  1  0.69911400  0.33625300  0.41288200  1
  O  O2  1  0.95956200  0.48336200  0.75058000  1
  O  O3  1  0.50146800  0.96097600  0.25740700  1
  O  O4  1  0.80855700  0.15801500  0.58338400  1
  O  O5  1  0.35975200  0.66966300  0.08186200  1
  O  O6  1  0.15134200  0.35718900  0.40810300  1
  O  O7  1  0.65075700  0.84388100  0.41609700  1
  O  O8  1  0.69982700  0.84330700  0.91475500  1
  O  O9  1  0.17500400  0.30006500  0.92494200  1
  O  O10  1  0.97178200  0.99570200  0.24920500  1
  O  O11  1  0.46989800  0.49267100  0.25599800  1
  O  O12  1  0.53010200  0.50732900  0.74400200  1
  O  O13  1  0.02821800  0.00429800  0.75079500  1
  O  O14  1  0.82499600  0.69993500  0.07505800  1
  O  O15  1  0.30017300  0.15669300  0.08524500  1
  O  O16  1  0.34924300  0.15611900  0.58390300  1
  O  O17  1  0.84865800  0.64281100  0.59189700  1
  O  O18  1  0.64024800  0.33033700  0.91813800  1
  O  O19  1  0.19144300  0.84198500  0.41661600  1
  O  O20  1  0.49853200  0.03902400  0.74259300  1
  O  O21  1  0.04043800  0.51663800  0.24942000  1
  O  O22  1  0.30088600  0.66374700  0.58711800  1
  O  O23  1  0.86389700  0.17411500  0.07990600  1
loop_
_geom_bond_atom_site_label_1
_geom_bond_atom_site_label_2
_geom_bond_distance
_geom_bond_site_symmetry_2
Li0 O1 2.119313 1_555
Li0 O6 2.160877 1_555
Li0 O11 2.175740 1_555
Li0 O3 2.200446 1_545
Li0 O10 2.238776 1_445
Li0 O19 2.248420 1_545
Li1 O3 2.123061 1_555
Li1 O10 2.151911 1_455
Li1 O21 2.184606 1_555
Li1 O14 2.193806 1_455
Li1 O5 2.195126 1_555
Li1 O15 2.226983 1_565
Li2 O5 2.161431 1_555
Li2 O18 2.161431 1_454
Li2 O14 2.184503 1_455
Li2 O9 2.184503 1_554
Li2 O23 2.211404 1_455
Li2 O0 2.211404 1_554
Li3 O20 2.123061 1_555
Li3 O13 2.151911 1_655
Li3 O2 2.184606 1_555
Li3 O9 2.193806 1_655
Li3 O18 2.195126 1_555
Li3 O8 2.226983 1_545
Li4 O12 2.111382 1_555
Li4 O2 2.147033 1_455
Li4 O4 2.199449 1_455
Li4 O22 2.201822 1_555
Li4 O16 2.214126 1_555
Li4 O13 2.292197 1_555
Li5 O22 2.119313 1_555
Li5 O17 2.160877 1_555
Li5 O12 2.175740 1_555
Li5 O20 2.200446 1_565
Li5 O13 2.238776 1_665
Li5 O4 2.248420 1_565
Li6 O16 2.134068 1_555
Li6 O7 2.134068 1_445
Li6 O4 2.139559 1_455
Li6 O19 2.139559 1_545
Li6 O17 2.462307 1_445
Li6 O6 2.462307 1_555
Li7 O11 2.111382 1_555
Li7 O21 2.147033 1_655
Li7 O19 2.199449 1_655
Li7 O1 2.201822 1_555
Li7 O7 2.214126 1_555
Li7 O10 2.292197 1_555
Li8 O23 2.164900 1_555
Li8 O0 2.164900 1_544
Li8 O15 2.186335 1_555
Li8 O8 2.186335 1_544
Li8 O5 2.248674 1_545
Li8 O18 2.248674 1_554
Mn0 O8 1.958844 1_555
Mn0 O0 1.963924 1_655
Mn0 O2 1.964333 1_555
Mn0 O12 1.984900 1_555
Mn0 O13 2.294208 1_665
Mn0 O18 2.306707 1_555
Mn1 O19 1.956507 1_545
Mn1 O4 1.956507 1_555
Mn1 O7 1.962815 1_545
Mn1 O16 1.962815 1_555
Mn1 O22 2.331409 1_545
Mn1 O1 2.331409 1_555
Mn2 O1 1.920018 1_555
Mn2 O10 1.969366 1_545
Mn2 O3 1.973377 1_545
Mn2 O6 1.975077 1_655
Mn2 O7 2.264958 1_545
Mn2 O21 2.328779 1_655
Mn3 O10 1.944888 1_555
Mn3 O5 1.953154 1_555
Mn3 O3 1.973824 1_555
Mn3 O14 1.982423 1_555
Mn3 O23 2.337650 1_565
Mn3 O11 2.378083 1_555
Mn4 O15 1.958844 1_555
Mn4 O23 1.963924 1_455
Mn4 O21 1.964333 1_555
Mn4 O11 1.984900 1_555
Mn4 O10 2.294208 1_445
Mn4 O5 2.306707 1_555
Mn5 O5 1.957617 1_555
Mn5 O18 1.957617 1_554
Mn5 O14 1.972338 1_555
Mn5 O9 1.972338 1_554
Mn5 O8 2.344699 1_554
Mn5 O15 2.344699 1_555
Mn6 O13 1.944888 1_555
Mn6 O18 1.953154 1_555
Mn6 O20 1.973824 1_555
Mn6 O9 1.982423 1_555
Mn6 O0 2.337650 1_545
Mn6 O12 2.378083 1_555
Mn7 O22 1.920018 1_555
Mn7 O13 1.969366 1_565
Mn7 O20 1.973377 1_565
Mn7 O17 1.975077 1_455
Mn7 O16 2.264958 1_565
Mn7 O2 2.328779 1_455
Mn8 O22 1.958464 1_555
Mn8 O1 1.958464 1_455
Mn8 O6 1.987283 1_555
Mn8 O17 1.987283 1_455
Mn8 O4 2.318393 1_455
Mn8 O19 2.318393 1_555
O0 Ti2 1.943284 1_566
O2 Ti0 1.945313 1_555
O3 Ti1 2.104518 1_555
O4 Ti0 2.028157 1_555
O6 Ti1 2.028848 1_555
O7 Ti1 1.950821 1_555
O8 Ti2 1.938591 1_666
O9 Ti2 2.054520 1_556
O11 Ti1 1.896528 1_555
O12 Ti0 1.896528 1_555
O14 Ti2 2.054520 1_665
O15 Ti2 1.938591 1_555
O16 Ti0 1.950821 1_555
O17 Ti0 2.028848 1_555
O19 Ti1 2.028157 1_555
O20 Ti0 2.104518 1_555
O21 Ti1 1.945313 1_555
O23 Ti2 1.943284 1_655
