# generated using pymatgen
data_Cs3DyO3
_symmetry_space_group_name_H-M   'P 1'
_cell_length_a   7.49952019
_cell_length_b   7.49952019
_cell_length_c   7.61471212
_cell_angle_alpha   84.14027989
_cell_angle_beta   84.14027989
_cell_angle_gamma   116.03695096
_symmetry_Int_Tables_number   1
_chemical_formula_structural   Cs3DyO3
_chemical_formula_sum   'Cs6 Dy2 O6'
_cell_volume   377.59131757
_cell_formula_units_Z   2
loop_
 _symmetry_equiv_pos_site_id
 _symmetry_equiv_pos_as_xyz
  1  'x, y, z'
loop_
 _atom_site_type_symbol
 _atom_site_label
 _atom_site_symmetry_multiplicity
 _atom_site_fract_x
 _atom_site_fract_y
 _atom_site_fract_z
 _atom_site_occupancy
  Cs  Cs0  1  0.64388665  0.64388665  0.64654574  1
  Cs  Cs1  1  0.79032980  0.20967020  0.50000000  1
  Cs  Cs2  1  0.20967020  0.79032980  0.50000000  1
  Cs  Cs3  1  0.73718703  0.26281297  -0.00000000  1
  Cs  Cs4  1  0.26281297  0.73718703  -0.00000000  1
  Cs  Cs5  1  0.35611335  0.35611335  0.35345426  1
  Dy  Dy0  1  0.82764441  0.82764441  0.15134092  1
  Dy  Dy1  1  0.17235559  0.17235559  0.84865908  1
  O  O0  1  0.89661418  0.89661418  0.85882096  1
  O  O1  1  0.83631930  0.56391786  0.26743327  1
  O  O2  1  0.56391786  0.83631930  0.26743327  1
  O  O3  1  0.43608214  0.16368070  0.73256673  1
  O  O4  1  0.16368070  0.43608214  0.73256673  1
  O  O5  1  0.10338582  0.10338582  0.14117904  1
loop_
_geom_bond_atom_site_label_1
_geom_bond_atom_site_label_2
_geom_bond_distance
_geom_bond_site_symmetry_2
Cs0 O0 2.809772 1_555
Cs0 O3 3.195308 1_555
Cs0 O4 3.195308 1_555
Cs0 O1 3.322473 1_555
Cs0 O2 3.322473 1_555
Cs1 O1 2.902300 1_555
Cs1 O3 2.902300 1_555
Cs1 O4 3.363293 1_655
Cs1 O2 3.363293 1_545
Cs2 O2 2.902300 1_555
Cs2 O4 2.902300 1_555
Cs2 O1 3.363293 1_455
Cs2 O3 3.363293 1_565
Cs3 O3 3.094062 1_554
Cs3 O1 3.094062 1_555
Cs3 O4 3.247599 1_654
Cs3 O2 3.247599 1_545
Cs4 O4 3.094062 1_554
Cs4 O2 3.094062 1_555
Cs4 O1 3.247599 1_455
Cs4 O3 3.247599 1_564
Cs5 O5 2.809772 1_555
Cs5 O2 3.195308 1_555
Cs5 O1 3.195308 1_555
Cs5 O3 3.322473 1_555
Cs5 O4 3.322473 1_555
Dy0 O1 2.113100 1_555
Dy0 O2 2.113100 1_555
Dy0 O5 2.176948 1_665
Dy0 O0 2.188895 1_554
Dy1 O3 2.113100 1_555
Dy1 O4 2.113100 1_555
Dy1 O0 2.176948 1_445
Dy1 O5 2.188895 1_556
