# generated using pymatgen
data_CaPbI4
_symmetry_space_group_name_H-M   'P 1'
_cell_length_a   7.91114400
_cell_length_b   9.35560600
_cell_length_c   16.33129080
_cell_angle_alpha   87.85879457
_cell_angle_beta   90.00000000
_cell_angle_gamma   90.00000000
_symmetry_Int_Tables_number   1
_chemical_formula_structural   CaPbI4
_chemical_formula_sum   'Ca4 Pb4 I16'
_cell_volume   1207.89278566
_cell_formula_units_Z   4
loop_
 _symmetry_equiv_pos_site_id
 _symmetry_equiv_pos_as_xyz
  1  'x, y, z'
loop_
 _atom_site_type_symbol
 _atom_site_label
 _atom_site_symmetry_multiplicity
 _atom_site_fract_x
 _atom_site_fract_y
 _atom_site_fract_z
 _atom_site_occupancy
  Ca  Ca0  1  0.81669800  0.68617100  0.60668000  1
  Ca  Ca1  1  0.68330200  0.68617100  0.10668000  1
  Ca  Ca2  1  0.31669800  0.31382900  0.89332000  1
  Ca  Ca3  1  0.18330200  0.31382900  0.39332000  1
  Pb  Pb0  1  0.50624400  0.85653200  0.87230200  1
  Pb  Pb1  1  0.99375600  0.85653200  0.37230200  1
  Pb  Pb2  1  0.00624400  0.14346800  0.62769800  1
  Pb  Pb3  1  0.49375600  0.14346800  0.12769800  1
  I  I0  1  0.66579300  0.94069800  0.68916700  1
  I  I1  1  0.83420700  0.94069800  0.18916700  1
  I  I2  1  0.15158600  0.82408800  0.55628900  1
  I  I3  1  0.34841400  0.82408800  0.05628900  1
  I  I4  1  0.81976100  0.68077900  0.93594300  1
  I  I5  1  0.68023900  0.68077900  0.43594300  1
  I  I6  1  0.31970300  0.59369300  0.79792700  1
  I  I7  1  0.18029700  0.59369300  0.29792700  1
  I  I8  1  0.81970300  0.40630700  0.70207300  1
  I  I9  1  0.68029700  0.40630700  0.20207300  1
  I  I10  1  0.31976100  0.31922100  0.56405700  1
  I  I11  1  0.18023900  0.31922100  0.06405700  1
  I  I12  1  0.65158600  0.17591200  0.94371100  1
  I  I13  1  0.84841400  0.17591200  0.44371100  1
  I  I14  1  0.16579300  0.05930200  0.81083300  1
  I  I15  1  0.33420700  0.05930200  0.31083300  1
loop_
_geom_bond_atom_site_label_1
_geom_bond_atom_site_label_2
_geom_bond_distance
_geom_bond_site_symmetry_2
Ca0 I5 2.992224 1_555
Ca0 I8 2.996375 1_555
Ca0 I0 3.024903 1_555
Ca0 I2 3.046606 1_655
Ca1 I4 2.992224 1_554
Ca1 I9 2.996375 1_555
Ca1 I1 3.024903 1_555
Ca1 I3 3.046606 1_555
Ca2 I11 2.992224 1_556
Ca2 I6 2.996375 1_555
Ca2 I14 3.024903 1_555
Ca2 I12 3.046606 1_555
Ca3 I10 2.992224 1_555
Ca3 I7 2.996375 1_555
Ca3 I15 3.024903 1_555
Ca3 I13 3.046606 1_455
I0 Pb0 3.313957 1_555
I0 Pb2 3.423210 1_665
I1 Pb1 3.313957 1_555
I1 Pb3 3.423210 1_565
I2 Pb1 3.257532 1_455
I2 Pb2 3.445374 1_565
I3 Pb0 3.257532 1_554
I3 Pb3 3.445374 1_565
I4 Pb0 3.131764 1_555
I5 Pb1 3.131764 1_555
I6 Pb0 3.150104 1_555
I7 Pb1 3.150104 1_455
I8 Pb2 3.150104 1_655
I9 Pb3 3.150104 1_555
I10 Pb2 3.131764 1_555
I11 Pb3 3.131764 1_555
I12 Pb3 3.257532 1_556
I12 Pb0 3.445374 1_545
I13 Pb2 3.257532 1_655
I13 Pb1 3.445374 1_545
I14 Pb2 3.313957 1_555
I14 Pb0 3.423210 1_545
I15 Pb3 3.313957 1_555
I15 Pb1 3.423210 1_445
