# generated using pymatgen
data_Na4NiO4
_symmetry_space_group_name_H-M   'P 1'
_cell_length_a   5.70572200
_cell_length_b   5.71073752
_cell_length_c   8.67682600
_cell_angle_alpha   71.67222028
_cell_angle_beta   80.66237459
_cell_angle_gamma   68.22671184
_symmetry_Int_Tables_number   1
_chemical_formula_structural   Na4NiO4
_chemical_formula_sum   'Na8 Ni2 O8'
_cell_volume   248.90236846
_cell_formula_units_Z   2
loop_
 _symmetry_equiv_pos_site_id
 _symmetry_equiv_pos_as_xyz
  1  'x, y, z'
loop_
 _atom_site_type_symbol
 _atom_site_label
 _atom_site_symmetry_multiplicity
 _atom_site_fract_x
 _atom_site_fract_y
 _atom_site_fract_z
 _atom_site_occupancy
  Na  Na0  1  0.76567600  0.02053600  0.92765400  1
  Na  Na1  1  0.25695100  0.54979300  0.89803600  1
  Na  Na2  1  0.23432400  0.97946400  0.07234600  1
  Na  Na3  1  0.74304900  0.45020700  0.10196400  1
  Na  Na4  1  0.75091300  0.90500900  0.32091700  1
  Na  Na5  1  0.24646800  0.74005000  0.48293600  1
  Na  Na6  1  0.75353200  0.25995000  0.51706400  1
  Na  Na7  1  0.24908700  0.09499100  0.67908300  1
  Ni  Ni0  1  0.21864800  0.34896900  0.25542200  1
  Ni  Ni1  1  0.78135200  0.65103100  0.74457800  1
  O  O0  1  0.52347600  0.79254400  0.88414200  1
  O  O1  1  0.97840900  0.33156700  0.86083300  1
  O  O2  1  0.02159100  0.66843300  0.13916700  1
  O  O3  1  0.47652400  0.20745600  0.11585800  1
  O  O4  1  0.02464300  0.13494600  0.30340500  1
  O  O5  1  0.35649700  0.34184600  0.42925600  1
  O  O6  1  0.97535700  0.86505400  0.69659500  1
  O  O7  1  0.64350300  0.65815400  0.57074400  1
loop_
_geom_bond_atom_site_label_1
_geom_bond_atom_site_label_2
_geom_bond_distance
_geom_bond_site_symmetry_2
Na0 O3 2.333152 1_556
Na0 O0 2.358124 1_545
Na0 O1 2.384912 1_555
Na0 O6 2.406720 1_545
Na0 O2 2.431887 1_646
Na1 O3 2.364583 1_556
Na1 O0 2.376612 1_555
Na1 O6 2.379946 1_455
Na1 O2 2.438175 1_556
Na1 O1 2.464134 1_455
Na2 O0 2.333152 1_554
Na2 O3 2.358124 1_565
Na2 O2 2.384912 1_555
Na2 O4 2.406720 1_565
Na2 O1 2.431887 1_464
Na3 O0 2.364583 1_554
Na3 O3 2.376612 1_555
Na3 O4 2.379946 1_655
Na3 O1 2.438175 1_554
Na3 O2 2.464134 1_655
Na4 O7 2.312974 1_555
Na4 O4 2.346406 1_665
Na4 O3 2.359066 1_565
Na4 O2 2.387277 1_655
Na5 O5 2.300966 1_555
Na5 O6 2.328481 1_455
Na5 O4 2.329633 1_565
Na5 O7 2.341177 1_555
Na6 O7 2.300966 1_555
Na6 O4 2.328481 1_655
Na6 O6 2.329633 1_545
Na6 O5 2.341177 1_555
Na7 O5 2.312974 1_555
Na7 O6 2.346406 1_445
Na7 O0 2.359066 1_545
Na7 O1 2.387277 1_455
Ni0 O5 1.793874 1_555
Ni0 O2 1.816302 1_555
Ni0 O4 1.851113 1_555
Ni0 O3 1.854619 1_555
Ni1 O7 1.793874 1_555
Ni1 O1 1.816302 1_555
Ni1 O6 1.851113 1_555
Ni1 O0 1.854619 1_555
