# generated using pymatgen
data_Li2Fe2NiO6
_symmetry_space_group_name_H-M   'P 1'
_cell_length_a   5.04917329
_cell_length_b   5.04917329
_cell_length_c   10.15864300
_cell_angle_alpha   90.00000000
_cell_angle_beta   90.00000000
_cell_angle_gamma   120.01673570
_symmetry_Int_Tables_number   1
_chemical_formula_structural   Li2Fe2NiO6
_chemical_formula_sum   'Li4 Fe4 Ni2 O12'
_cell_volume   224.25060259
_cell_formula_units_Z   2
loop_
 _symmetry_equiv_pos_site_id
 _symmetry_equiv_pos_as_xyz
  1  'x, y, z'
loop_
 _atom_site_type_symbol
 _atom_site_label
 _atom_site_symmetry_multiplicity
 _atom_site_fract_x
 _atom_site_fract_y
 _atom_site_fract_z
 _atom_site_occupancy
  Li  Li0  1  0.15880400  0.65880400  0.25000000  1
  Li  Li1  1  0.34119600  0.84119600  0.75000000  1
  Li  Li2  1  0.65880400  0.15880400  0.25000000  1
  Li  Li3  1  0.84119600  0.34119600  0.75000000  1
  Fe  Fe0  1  0.33577000  0.66423000  0.00000000  1
  Fe  Fe1  1  0.16423000  0.83577000  0.50000000  1
  Fe  Fe2  1  0.83577000  0.16423000  0.50000000  1
  Fe  Fe3  1  0.66423000  0.33577000  0.00000000  1
  Ni  Ni0  1  0.50000000  0.50000000  0.50000000  1
  Ni  Ni1  1  0.00000000  0.00000000  0.00000000  1
  O  O0  1  0.14433100  0.50739200  0.60456200  1
  O  O1  1  0.85566900  0.49260800  0.39543800  1
  O  O2  1  0.00739200  0.64433100  0.89543800  1
  O  O3  1  0.35566900  0.99260800  0.10456200  1
  O  O4  1  0.64864300  0.64864300  0.09809900  1
  O  O5  1  0.85135700  0.85135700  0.59809900  1
  O  O6  1  0.14864300  0.14864300  0.40190100  1
  O  O7  1  0.49260800  0.85566900  0.39543800  1
  O  O8  1  0.35135700  0.35135700  0.90190100  1
  O  O9  1  0.64433100  0.00739200  0.89543800  1
  O  O10  1  0.99260800  0.35566900  0.10456200  1
  O  O11  1  0.50739200  0.14433100  0.60456200  1
loop_
_geom_bond_atom_site_label_1
_geom_bond_atom_site_label_2
_geom_bond_distance
_geom_bond_site_symmetry_2
Li0 O1 1.986122 1_455
Li0 O10 1.986122 1_455
Li0 O7 2.082168 1_555
Li0 O3 2.082168 1_555
Li1 O9 1.986122 1_565
Li1 O11 1.986122 1_565
Li1 O2 2.082168 1_555
Li1 O0 2.082168 1_555
Li2 O7 1.986122 1_545
Li2 O3 1.986122 1_545
Li2 O1 2.082168 1_555
Li2 O10 2.082168 1_555
Li3 O2 1.986122 1_655
Li3 O0 1.986122 1_655
Li3 O9 2.082168 1_555
Li3 O11 2.082168 1_555
Fe0 O4 1.902449 1_555
Fe0 O8 1.902449 1_554
Fe0 O3 1.928936 1_555
Fe0 O2 1.928936 1_554
Fe0 O9 1.963906 1_564
Fe0 O10 1.963906 1_455
Fe1 O5 1.902449 1_455
Fe1 O6 1.902449 1_565
Fe1 O0 1.928936 1_555
Fe1 O7 1.928936 1_555
Fe1 O11 1.963906 1_565
Fe1 O1 1.963906 1_455
Fe2 O5 1.902449 1_545
Fe2 O6 1.902449 1_655
Fe2 O11 1.928936 1_555
Fe2 O1 1.928936 1_555
Fe2 O0 1.963906 1_655
Fe2 O7 1.963906 1_545
Fe3 O4 1.902449 1_555
Fe3 O8 1.902449 1_554
Fe3 O10 1.928936 1_555
Fe3 O9 1.928936 1_554
Fe3 O2 1.963906 1_654
Fe3 O3 1.963906 1_545
Ni0 O5 2.034410 1_555
Ni0 O6 2.034410 1_555
Ni0 O11 2.102798 1_555
Ni0 O0 2.102798 1_555
Ni0 O1 2.102798 1_555
Ni0 O7 2.102798 1_555
Ni1 O4 2.034410 1_445
Ni1 O8 2.034410 1_554
Ni1 O2 2.102798 1_544
Ni1 O3 2.102798 1_545
Ni1 O10 2.102798 1_455
Ni1 O9 2.102798 1_454
