# generated using pymatgen
data_K2OsO5
_symmetry_space_group_name_H-M   'P 1'
_cell_length_a   10.92034955
_cell_length_b   10.92034955
_cell_length_c   8.29805400
_cell_angle_alpha   90.00000000
_cell_angle_beta   90.00000000
_cell_angle_gamma   119.99999728
_symmetry_Int_Tables_number   1
_chemical_formula_structural   K2OsO5
_chemical_formula_sum   'K12 Os6 O30'
_cell_volume   856.99833916
_cell_formula_units_Z   6
loop_
 _symmetry_equiv_pos_site_id
 _symmetry_equiv_pos_as_xyz
  1  'x, y, z'
loop_
 _atom_site_type_symbol
 _atom_site_label
 _atom_site_symmetry_multiplicity
 _atom_site_fract_x
 _atom_site_fract_y
 _atom_site_fract_z
 _atom_site_occupancy
  K  K0  1  0.29493300  0.96479600  0.50000000  1
  K  K1  1  0.03520400  0.33013700  0.50000000  1
  K  K2  1  0.33333300  0.66666700  0.75807300  1
  K  K3  1  0.00000000  0.00000000  0.75308400  1
  K  K4  1  0.00000000  0.00000000  0.24691600  1
  K  K5  1  0.33333300  0.66666700  0.24192700  1
  K  K6  1  0.36437200  0.33102000  0.00000000  1
  K  K7  1  0.66986300  0.70506700  0.50000000  1
  K  K8  1  0.66666700  0.33333300  0.25851100  1
  K  K9  1  0.66666700  0.33333300  0.74148900  1
  K  K10  1  0.96664800  0.63562800  0.00000000  1
  K  K11  1  0.66898000  0.03335200  0.00000000  1
  Os  Os0  1  0.30120400  0.96745900  0.00000000  1
  Os  Os1  1  0.03254100  0.33374600  0.00000000  1
  Os  Os2  1  0.36318400  0.32081000  0.50000000  1
  Os  Os3  1  0.66625400  0.69879600  0.00000000  1
  Os  Os4  1  0.67919000  0.04237400  0.50000000  1
  Os  Os5  1  0.95762600  0.63681600  0.50000000  1
  O  O0  1  0.01785500  0.82620100  0.50000000  1
  O  O1  1  0.21584600  0.88059900  0.81591900  1
  O  O2  1  0.21584600  0.88059900  0.18408100  1
  O  O3  1  0.13416900  0.66429000  0.50000000  1
  O  O4  1  0.13105600  0.52809500  0.00000000  1
  O  O5  1  0.11940100  0.33524700  0.18408100  1
  O  O6  1  0.11940100  0.33524700  0.81591900  1
  O  O7  1  0.39703900  0.86894400  0.00000000  1
  O  O8  1  0.17379900  0.19165400  0.50000000  1
  O  O9  1  0.33571000  0.46987900  0.50000000  1
  O  O10  1  0.53012100  0.86583100  0.50000000  1
  O  O11  1  0.47190500  0.60296100  0.00000000  1
  O  O12  1  0.20149700  0.06064900  0.00000000  1
  O  O13  1  0.37795400  0.24854900  0.31188900  1
  O  O14  1  0.37795400  0.24854900  0.68811100  1
  O  O15  1  0.66475300  0.78415400  0.18408100  1
  O  O16  1  0.66475300  0.78415400  0.81591900  1
  O  O17  1  0.80834600  0.98214500  0.50000000  1
  O  O18  1  0.55586700  0.43457100  0.50000000  1
  O  O19  1  0.46612500  0.13157300  0.00000000  1
  O  O20  1  0.66544800  0.53387500  0.00000000  1
  O  O21  1  0.85915100  0.79850300  0.00000000  1
  O  O22  1  0.56542900  0.12129600  0.50000000  1
  O  O23  1  0.87059500  0.62204600  0.31188900  1
  O  O24  1  0.87059500  0.62204600  0.68811100  1
  O  O25  1  0.87870400  0.44413300  0.50000000  1
  O  O26  1  0.75145100  0.12940500  0.31188900  1
  O  O27  1  0.75145100  0.12940500  0.68811100  1
  O  O28  1  0.86842700  0.33455200  0.00000000  1
  O  O29  1  0.93935100  0.14084900  0.00000000  1
loop_
_geom_bond_atom_site_label_1
_geom_bond_atom_site_label_2
_geom_bond_distance
_geom_bond_site_symmetry_2
K0 O22 2.568668 1_565
K0 O0 2.620410 1_555
K0 O1 2.769394 1_555
K0 O2 2.769394 1_555
K0 O3 2.844293 1_555
K0 O14 3.170339 1_565
K0 O13 3.170339 1_565
K0 O10 3.246538 1_555
K0 O8 3.341310 1_565
K1 O25 2.568667 1_455
K1 O8 2.620410 1_555
K1 O6 2.769394 1_555
K1 O5 2.769394 1_555
K1 O9 2.844293 1_555
K1 O27 3.170339 1_455
K1 O26 3.170339 1_455
K1 O3 3.246538 1_555
K1 O17 3.341310 1_445
K2 O7 2.802997 1_556
K2 O4 2.802999 1_556
K2 O11 2.803005 1_556
K2 O3 3.043127 1_555
K2 O10 3.043131 1_555
K2 O9 3.043135 1_555
K2 O1 3.214303 1_555
K2 O6 3.214311 1_555
K2 O16 3.214313 1_555
K3 O12 2.832176 1_556
K3 O21 2.832177 1_446
K3 O29 2.832183 1_456
K3 O0 2.901848 1_545
K3 O17 2.901848 1_445
K3 O8 2.901848 1_555
K3 O1 3.255987 1_545
K3 O6 3.255987 1_555
K3 O16 3.255987 1_445
K4 O12 2.832176 1_555
K4 O21 2.832177 1_445
K4 O29 2.832183 1_455
K4 O0 2.901848 1_545
K4 O17 2.901848 1_445
K4 O8 2.901848 1_555
K4 O2 3.255987 1_545
K4 O5 3.255987 1_555
K4 O15 3.255987 1_445
K5 O7 2.802997 1_555
K5 O4 2.802999 1_555
K5 O11 2.803005 1_555
K5 O3 3.043127 1_555
K5 O10 3.043131 1_555
K5 O9 3.043135 1_555
K5 O2 3.214303 1_555
K5 O5 3.214311 1_555
K5 O15 3.214313 1_555
K6 O12 2.574797 1_555
K6 O11 2.590509 1_555
K6 O13 2.768537 1_555
K6 O14 2.768537 1_554
K6 O19 2.898054 1_555
K6 O20 2.904118 1_555
K6 O6 3.100878 1_554
K6 O5 3.100878 1_555
K7 O18 2.568668 1_555
K7 O17 2.620410 1_555
K7 O16 2.769394 1_555
K7 O15 2.769394 1_555
K7 O10 2.844292 1_555
K7 O24 3.170338 1_555
K7 O23 3.170338 1_555
K7 O9 3.246538 1_555
K7 O0 3.341310 1_655
K8 O22 2.835404 1_555
K8 O25 2.835404 1_555
K8 O18 2.835410 1_555
K8 O26 2.841599 1_555
K8 O23 2.841607 1_555
K8 O13 2.841609 1_555
K8 O28 3.070334 1_555
K8 O19 3.070338 1_555
K8 O20 3.070342 1_555
K9 O22 2.835404 1_555
K9 O25 2.835404 1_555
K9 O18 2.835410 1_555
K9 O27 2.841599 1_555
K9 O24 2.841607 1_555
K9 O14 2.841609 1_555
K9 O28 3.070334 1_556
K9 O19 3.070338 1_556
K9 O20 3.070342 1_556
K10 O21 2.574805 1_555
K10 O4 2.590509 1_655
K10 O23 2.768537 1_555
K10 O24 2.768537 1_554
K10 O20 2.898054 1_555
K10 O28 2.904118 1_555
K10 O2 3.100878 1_655
K10 O1 3.100878 1_654
K11 O29 2.574796 1_555
K11 O7 2.590509 1_545
K11 O26 2.768537 1_555
K11 O27 2.768537 1_554
K11 O28 2.898054 1_555
K11 O19 2.904118 1_555
K11 O15 3.100878 1_545
K11 O16 3.100878 1_544
O0 Os5 1.830185 1_455
O1 Os0 1.793806 1_556
O2 Os0 1.793806 1_555
O3 Os5 1.796784 1_455
O4 Os1 1.838075 1_555
O5 Os1 1.793809 1_555
O6 Os1 1.793809 1_556
O7 Os0 1.838085 1_555
O8 Os2 1.830185 1_555
O9 Os2 1.796784 1_555
O10 Os4 1.796785 1_565
O11 Os3 1.838075 1_555
O12 Os0 1.824632 1_545
O13 Os2 1.792367 1_555
O14 Os2 1.792367 1_555
O15 Os3 1.793803 1_555
O16 Os3 1.793803 1_556
O17 Os4 1.830185 1_565
O18 Os2 1.832163 1_555
O19 Os0 1.796605 1_545
O20 Os3 1.796610 1_555
O21 Os3 1.824632 1_555
O22 Os4 1.832163 1_555
O23 Os5 1.792367 1_555
O24 Os5 1.792367 1_555
O25 Os5 1.832163 1_555
O26 Os4 1.792367 1_555
O27 Os4 1.792367 1_555
O28 Os1 1.796599 1_655
O29 Os1 1.824632 1_655
