# generated using pymatgen
data_LiCrPH2O5
_symmetry_space_group_name_H-M   'P 1'
_cell_length_a   7.29328300
_cell_length_b   6.05726400
_cell_length_c   9.86694005
_cell_angle_alpha   85.79531231
_cell_angle_beta   90.00000000
_cell_angle_gamma   90.00000000
_symmetry_Int_Tables_number   1
_chemical_formula_structural   LiCrPH2O5
_chemical_formula_sum   'Li4 Cr4 P4 H8 O20'
_cell_volume   434.72195101
_cell_formula_units_Z   4
loop_
 _symmetry_equiv_pos_site_id
 _symmetry_equiv_pos_as_xyz
  1  'x, y, z'
loop_
 _atom_site_type_symbol
 _atom_site_label
 _atom_site_symmetry_multiplicity
 _atom_site_fract_x
 _atom_site_fract_y
 _atom_site_fract_z
 _atom_site_occupancy
  Li  Li0  1  0.44033900  0.42124500  0.35064500  1
  Li  Li1  1  0.05966100  0.92124500  0.35064500  1
  Li  Li2  1  0.94033900  0.07875500  0.64935500  1
  Li  Li3  1  0.55966100  0.57875500  0.64935500  1
  Cr  Cr0  1  0.19443600  0.20840100  0.01265300  1
  Cr  Cr1  1  0.30556400  0.70840100  0.01265300  1
  Cr  Cr2  1  0.69443600  0.29159900  0.98734700  1
  Cr  Cr3  1  0.80556400  0.79159900  0.98734700  1
  P  P0  1  0.52838900  0.00398600  0.20176000  1
  P  P1  1  0.97161100  0.50398600  0.20176000  1
  P  P2  1  0.02838900  0.49601400  0.79824000  1
  P  P3  1  0.47161100  0.99601400  0.79824000  1
  H  H0  1  0.73301800  0.14435800  0.41561700  1
  H  H1  1  0.89585600  0.31013600  0.44202800  1
  H  H2  1  0.76698200  0.64435800  0.41561700  1
  H  H3  1  0.60414400  0.81013600  0.44202800  1
  H  H4  1  0.39585600  0.18986400  0.55797200  1
  H  H5  1  0.23301800  0.35564200  0.58438300  1
  H  H6  1  0.10414400  0.68986400  0.55797200  1
  H  H7  1  0.26698200  0.85564200  0.58438300  1
  O  O0  1  0.45510000  0.19183800  0.09212100  1
  O  O1  1  0.04490000  0.69183800  0.09212100  1
  O  O2  1  0.77423200  0.45353700  0.15339500  1
  O  O3  1  0.72576800  0.95353700  0.15339500  1
  O  O4  1  0.10306900  0.30243100  0.19761300  1
  O  O5  1  0.39693100  0.80243100  0.19761300  1
  O  O6  1  0.52915100  0.09559600  0.34167200  1
  O  O7  1  0.97084900  0.59559600  0.34167200  1
  O  O8  1  0.85578600  0.15527600  0.45992400  1
  O  O9  1  0.64421400  0.65527600  0.45992400  1
  O  O10  1  0.35578600  0.34472400  0.54007600  1
  O  O11  1  0.14421400  0.84472400  0.54007600  1
  O  O12  1  0.02915100  0.40440400  0.65832800  1
  O  O13  1  0.47084900  0.90440400  0.65832800  1
  O  O14  1  0.60306900  0.19756900  0.80238700  1
  O  O15  1  0.89693100  0.69756900  0.80238700  1
  O  O16  1  0.27423200  0.04646300  0.84660500  1
  O  O17  1  0.22576800  0.54646300  0.84660500  1
  O  O18  1  0.95510000  0.30816200  0.90787900  1
  O  O19  1  0.54490000  0.80816200  0.90787900  1
loop_
_geom_bond_atom_site_label_1
_geom_bond_atom_site_label_2
_geom_bond_distance
_geom_bond_site_symmetry_2
Li0 O10 1.990385 1_555
Li0 O6 2.084209 1_555
Li0 O9 2.367962 1_555
Li1 O11 1.990385 1_555
Li1 O7 2.084209 1_455
Li1 O8 2.367962 1_465
Li2 O8 1.990385 1_555
Li2 O12 2.084209 1_655
Li2 O11 2.367962 1_645
Li3 O9 1.990385 1_555
Li3 O13 2.084209 1_555
Li3 O10 2.367962 1_555
Cr0 O16 2.054467 1_554
Cr0 O0 2.056093 1_555
Cr0 O4 2.061906 1_555
Cr0 O18 2.095045 1_454
Cr0 O17 2.537273 1_554
Cr1 O17 2.054467 1_554
Cr1 O1 2.056093 1_555
Cr1 O5 2.061906 1_555
Cr1 O19 2.095045 1_554
Cr1 O16 2.537273 1_564
Cr2 O2 2.054467 1_556
Cr2 O18 2.056093 1_555
Cr2 O14 2.061906 1_555
Cr2 O0 2.095045 1_556
Cr2 O3 2.537273 1_546
Cr3 O3 2.054467 1_556
Cr3 O19 2.056093 1_555
Cr3 O15 2.061906 1_555
Cr3 O1 2.095045 1_656
Cr3 O2 2.537273 1_556
H0 O8 1.000721 1_555
H0 O6 1.691722 1_555
H1 O8 0.985998 1_555
H2 O9 1.000721 1_555
H2 O7 1.691722 1_555
H3 O9 0.985998 1_555
H4 O10 0.985998 1_555
H5 O10 1.000721 1_555
H5 O12 1.691722 1_555
H6 O11 0.985998 1_555
H7 O11 1.000721 1_555
H7 O13 1.691722 1_555
O0 P0 1.603198 1_555
O1 P1 1.603198 1_455
O2 P1 1.553955 1_555
O3 P0 1.553955 1_565
O4 P1 1.555233 1_455
O5 P0 1.555233 1_565
O6 P0 1.525147 1_555
O7 P1 1.525147 1_555
O12 P2 1.525147 1_555
O13 P3 1.525147 1_555
O14 P3 1.555233 1_545
O15 P2 1.555233 1_655
O16 P3 1.553955 1_545
O17 P2 1.553955 1_555
O18 P2 1.603198 1_655
O19 P3 1.603198 1_555
