# generated using pymatgen
data_Er2Bi2O7
_symmetry_space_group_name_H-M   'P 1'
_cell_length_a   7.32961800
_cell_length_b   7.32961800
_cell_length_c   13.11885100
_cell_angle_alpha   90.00000000
_cell_angle_beta   90.00000000
_cell_angle_gamma   90.00000000
_symmetry_Int_Tables_number   1
_chemical_formula_structural   Er2Bi2O7
_chemical_formula_sum   'Er8 Bi8 O28'
_cell_volume   704.78796827
_cell_formula_units_Z   4
loop_
 _symmetry_equiv_pos_site_id
 _symmetry_equiv_pos_as_xyz
  1  'x, y, z'
loop_
 _atom_site_type_symbol
 _atom_site_label
 _atom_site_symmetry_multiplicity
 _atom_site_fract_x
 _atom_site_fract_y
 _atom_site_fract_z
 _atom_site_occupancy
  Er  Er0  1  0.15061200  0.12011800  0.64036100  1
  Er  Er1  1  0.12011800  0.84938800  0.39036100  1
  Er  Er2  1  0.37700300  0.35053800  0.85969900  1
  Er  Er3  1  0.35053800  0.62299700  0.60969900  1
  Er  Er4  1  0.64946200  0.37700300  0.10969900  1
  Er  Er5  1  0.62299700  0.64946200  0.35969900  1
  Er  Er6  1  0.87988200  0.15061200  0.89036100  1
  Er  Er7  1  0.84938800  0.87988200  0.14036100  1
  Bi  Bi0  1  0.12298500  0.38061800  0.09754900  1
  Bi  Bi1  1  0.12449400  0.38018600  0.40871700  1
  Bi  Bi2  1  0.38061800  0.87701500  0.84754900  1
  Bi  Bi3  1  0.38018600  0.87550600  0.15871700  1
  Bi  Bi4  1  0.61981400  0.12449400  0.65871700  1
  Bi  Bi5  1  0.61938200  0.12298500  0.34754900  1
  Bi  Bi6  1  0.87550600  0.61981400  0.90871700  1
  Bi  Bi7  1  0.87701500  0.61938200  0.59754900  1
  O  O0  1  0.07483800  0.40512200  0.91356000  1
  O  O1  1  0.09183300  0.81976100  0.57367500  1
  O  O2  1  0.10830200  0.41570100  0.57930100  1
  O  O3  1  0.16820700  0.11315900  0.46684700  1
  O  O4  1  0.18023900  0.09183300  0.82367500  1
  O  O5  1  0.11315900  0.83179300  0.21684700  1
  O  O6  1  0.17872200  0.31490400  0.25782100  1
  O  O7  1  0.31490400  0.82127800  0.00782100  1
  O  O8  1  0.39077300  0.32382800  0.02915500  1
  O  O9  1  0.31826000  0.58892900  0.42416800  1
  O  O10  1  0.32382800  0.60922700  0.77915500  1
  O  O11  1  0.40512200  0.92516200  0.66356000  1
  O  O12  1  0.41107100  0.31826000  0.67416800  1
  O  O13  1  0.41570100  0.89169800  0.32930100  1
  O  O14  1  0.58429900  0.10830200  0.82930100  1
  O  O15  1  0.58892900  0.68174000  0.17416800  1
  O  O16  1  0.59487800  0.07483800  0.16356000  1
  O  O17  1  0.67617200  0.39077300  0.27915500  1
  O  O18  1  0.68174000  0.41107100  0.92416800  1
  O  O19  1  0.60922700  0.67617200  0.52915500  1
  O  O20  1  0.68509600  0.17872200  0.50782100  1
  O  O21  1  0.82127800  0.68509600  0.75782100  1
  O  O22  1  0.88684100  0.16820700  0.71684700  1
  O  O23  1  0.81976100  0.90816700  0.32367500  1
  O  O24  1  0.83179300  0.88684100  0.96684700  1
  O  O25  1  0.89169800  0.58429900  0.07930100  1
  O  O26  1  0.90816700  0.18023900  0.07367500  1
  O  O27  1  0.92516200  0.59487800  0.41356000  1
loop_
_geom_bond_atom_site_label_1
_geom_bond_atom_site_label_2
_geom_bond_distance
_geom_bond_site_symmetry_2
Er0 O22 2.206552 1_455
Er0 O3 2.280525 1_555
Er0 O2 2.330579 1_555
Er0 O11 2.369489 1_545
Er0 O1 2.407815 1_545
Er0 O4 2.423537 1_555
Er0 O12 2.439348 1_555
Er1 O3 2.206552 1_565
Er1 O5 2.280525 1_555
Er1 O13 2.330579 1_555
Er1 O27 2.369489 1_455
Er1 O23 2.407815 1_455
Er1 O1 2.423537 1_555
Er1 O9 2.439348 1_555
Er2 O10 2.205350 1_555
Er2 O8 2.233953 1_556
Er2 O0 2.358914 1_555
Er2 O14 2.370654 1_555
Er2 O4 2.428767 1_555
Er2 O18 2.429230 1_555
Er2 O12 2.458141 1_555
Er3 O19 2.205350 1_555
Er3 O10 2.233953 1_555
Er3 O11 2.358914 1_555
Er3 O2 2.370654 1_555
Er3 O1 2.428767 1_555
Er3 O12 2.429230 1_555
Er3 O9 2.458141 1_555
Er4 O8 2.205350 1_555
Er4 O17 2.233953 1_555
Er4 O16 2.358914 1_555
Er4 O25 2.370654 1_555
Er4 O26 2.428767 1_555
Er4 O15 2.429230 1_555
Er4 O18 2.458141 1_554
Er5 O17 2.205350 1_555
Er5 O19 2.233953 1_555
Er5 O27 2.358914 1_555
Er5 O13 2.370654 1_555
Er5 O23 2.428767 1_555
Er5 O9 2.429230 1_555
Er5 O15 2.458141 1_555
Er6 O24 2.206552 1_545
Er6 O22 2.280525 1_555
Er6 O14 2.330579 1_555
Er6 O0 2.369489 1_655
Er6 O4 2.407815 1_655
Er6 O26 2.423537 1_556
Er6 O18 2.439348 1_555
Er7 O5 2.206552 1_655
Er7 O24 2.280525 1_554
Er7 O25 2.330579 1_555
Er7 O16 2.369489 1_565
Er7 O26 2.407815 1_565
Er7 O23 2.423537 1_555
Er7 O15 2.439348 1_555
Bi0 O26 2.175853 1_455
Bi0 O6 2.195394 1_555
Bi0 O8 2.197918 1_555
Bi0 O25 2.271547 1_455
Bi0 O0 2.445989 1_554
Bi1 O6 2.075014 1_555
Bi1 O9 2.097394 1_555
Bi1 O3 2.124822 1_555
Bi1 O27 2.148229 1_455
Bi1 O2 2.256079 1_555
Bi2 O4 2.175853 1_565
Bi2 O7 2.195394 1_556
Bi2 O10 2.197918 1_555
Bi2 O14 2.271547 1_565
Bi2 O11 2.445989 1_555
Bi3 O7 2.075014 1_555
Bi3 O15 2.097394 1_555
Bi3 O5 2.124822 1_555
Bi3 O16 2.148229 1_565
Bi3 O13 2.256079 1_555
Bi4 O20 2.075014 1_555
Bi4 O12 2.097394 1_555
Bi4 O22 2.124822 1_555
Bi4 O11 2.148229 1_545
Bi4 O14 2.256079 1_555
Bi5 O23 2.175853 1_545
Bi5 O20 2.195394 1_555
Bi5 O17 2.197918 1_555
Bi5 O13 2.271547 1_545
Bi5 O16 2.445989 1_555
Bi6 O21 2.075014 1_555
Bi6 O18 2.097394 1_555
Bi6 O24 2.124822 1_555
Bi6 O0 2.148229 1_655
Bi6 O25 2.256079 1_556
Bi7 O1 2.175853 1_655
Bi7 O21 2.195394 1_555
Bi7 O19 2.197918 1_555
Bi7 O2 2.271547 1_655
Bi7 O27 2.445989 1_555
