# generated using pymatgen
data_NaCu3O2
_symmetry_space_group_name_H-M   'P 1'
_cell_length_a   7.45815200
_cell_length_b   7.48683600
_cell_length_c   14.34357700
_cell_angle_alpha   90.00000000
_cell_angle_beta   90.00000000
_cell_angle_gamma   90.00000000
_symmetry_Int_Tables_number   1
_chemical_formula_structural   NaCu3O2
_chemical_formula_sum   'Na8 Cu24 O16'
_cell_volume   800.91609151
_cell_formula_units_Z   8
loop_
 _symmetry_equiv_pos_site_id
 _symmetry_equiv_pos_as_xyz
  1  'x, y, z'
loop_
 _atom_site_type_symbol
 _atom_site_label
 _atom_site_symmetry_multiplicity
 _atom_site_fract_x
 _atom_site_fract_y
 _atom_site_fract_z
 _atom_site_occupancy
  Na  Na0  1  0.81869600  0.88527600  0.07331700  1
  Na  Na1  1  0.31869600  0.61472400  0.07331700  1
  Na  Na2  1  0.81869600  0.38527600  0.42668300  1
  Na  Na3  1  0.31869600  0.11472400  0.42668300  1
  Na  Na4  1  0.68130400  0.88527600  0.57331700  1
  Na  Na5  1  0.18130400  0.61472400  0.57331700  1
  Na  Na6  1  0.68130400  0.38527600  0.92668300  1
  Na  Na7  1  0.18130400  0.11472400  0.92668300  1
  Cu  Cu0  1  0.86550100  0.49757300  0.12059700  1
  Cu  Cu1  1  0.36550100  0.00242700  0.12059700  1
  Cu  Cu2  1  0.09662800  0.20040300  0.12235100  1
  Cu  Cu3  1  0.59662800  0.29959700  0.12235100  1
  Cu  Cu4  1  0.10859400  0.93827400  0.23697700  1
  Cu  Cu5  1  0.60859400  0.56172600  0.23697700  1
  Cu  Cu6  1  0.60859400  0.06172600  0.26302300  1
  Cu  Cu7  1  0.10859400  0.43827400  0.26302300  1
  Cu  Cu8  1  0.09662800  0.70040300  0.37764900  1
  Cu  Cu9  1  0.59662800  0.79959700  0.37764900  1
  Cu  Cu10  1  0.86550100  0.99757300  0.37940300  1
  Cu  Cu11  1  0.36550100  0.50242700  0.37940300  1
  Cu  Cu12  1  0.63449900  0.49757300  0.62059700  1
  Cu  Cu13  1  0.13449900  0.00242700  0.62059700  1
  Cu  Cu14  1  0.90337200  0.29959700  0.62235100  1
  Cu  Cu15  1  0.40337200  0.20040300  0.62235100  1
  Cu  Cu16  1  0.39140600  0.93827400  0.73697700  1
  Cu  Cu17  1  0.89140600  0.56172600  0.73697700  1
  Cu  Cu18  1  0.39140600  0.43827400  0.76302300  1
  Cu  Cu19  1  0.89140600  0.06172600  0.76302300  1
  Cu  Cu20  1  0.90337200  0.79959700  0.87764900  1
  Cu  Cu21  1  0.40337200  0.70040300  0.87764900  1
  Cu  Cu22  1  0.63449900  0.99757300  0.87940300  1
  Cu  Cu23  1  0.13449900  0.50242700  0.87940300  1
  O  O0  1  0.10323600  0.44464000  0.13382900  1
  O  O1  1  0.60323600  0.05536000  0.13382900  1
  O  O2  1  0.12167600  0.95198000  0.10651000  1
  O  O3  1  0.62167600  0.54802000  0.10651000  1
  O  O4  1  0.62167600  0.04802000  0.39349000  1
  O  O5  1  0.12167600  0.45198000  0.39349000  1
  O  O6  1  0.10323600  0.94464000  0.36617100  1
  O  O7  1  0.60323600  0.55536000  0.36617100  1
  O  O8  1  0.39676400  0.44464000  0.63382900  1
  O  O9  1  0.89676400  0.05536000  0.63382900  1
  O  O10  1  0.37832400  0.95198000  0.60651000  1
  O  O11  1  0.87832400  0.54802000  0.60651000  1
  O  O12  1  0.37832400  0.45198000  0.89349000  1
  O  O13  1  0.87832400  0.04802000  0.89349000  1
  O  O14  1  0.39676400  0.94464000  0.86617100  1
  O  O15  1  0.89676400  0.55536000  0.86617100  1
loop_
_geom_bond_atom_site_label_1
_geom_bond_atom_site_label_2
_geom_bond_distance
_geom_bond_site_symmetry_2
Na0 O1 2.226457 1_565
Na0 O2 2.362666 1_655
Na1 O0 2.226457 1_555
Na1 O3 2.362666 1_555
Na2 O7 2.226457 1_555
Na2 O5 2.362666 1_655
Na3 O6 2.226457 1_545
Na3 O4 2.362666 1_555
Na4 O9 2.226457 1_565
Na4 O10 2.362666 1_555
Na5 O8 2.226457 1_555
Na5 O11 2.362666 1_455
Na6 O15 2.226457 1_555
Na6 O12 2.362666 1_555
Na7 O14 2.226457 1_545
Na7 O13 2.362666 1_455
Cu0 O0 1.826700 1_655
Cu0 O3 1.868250 1_555
Cu1 O1 1.826700 1_555
Cu1 O2 1.868250 1_545
Cu2 O0 1.836620 1_555
Cu2 O2 1.883020 1_545
Cu3 O1 1.836620 1_555
Cu3 O3 1.883020 1_555
Cu4 O6 1.854148 1_555
Cu4 O2 1.876713 1_555
Cu5 O7 1.854148 1_555
Cu5 O3 1.876713 1_555
Cu6 O1 1.854148 1_555
Cu6 O4 1.876713 1_555
Cu7 O0 1.854148 1_555
Cu7 O5 1.876713 1_555
Cu8 O6 1.836620 1_555
Cu8 O5 1.883020 1_555
Cu9 O7 1.836620 1_555
Cu9 O4 1.883020 1_565
Cu10 O6 1.826700 1_655
Cu10 O4 1.868250 1_565
Cu11 O7 1.826700 1_555
Cu11 O5 1.868250 1_555
Cu12 O8 1.826700 1_555
Cu12 O11 1.868250 1_555
Cu13 O9 1.826700 1_455
Cu13 O10 1.868250 1_545
Cu14 O9 1.836620 1_555
Cu14 O11 1.883020 1_555
Cu15 O8 1.836620 1_555
Cu15 O10 1.883020 1_545
Cu16 O14 1.854148 1_555
Cu16 O10 1.876713 1_555
Cu17 O15 1.854148 1_555
Cu17 O11 1.876713 1_555
Cu18 O8 1.854148 1_555
Cu18 O12 1.876713 1_555
Cu19 O9 1.854148 1_555
Cu19 O13 1.876713 1_555
Cu20 O15 1.836620 1_555
Cu20 O13 1.883020 1_565
Cu21 O14 1.836620 1_555
Cu21 O12 1.883020 1_555
Cu22 O14 1.826700 1_555
Cu22 O13 1.868250 1_565
Cu23 O15 1.826700 1_455
Cu23 O12 1.868250 1_555
