# generated using pymatgen
data_Li(CoO2)3
_symmetry_space_group_name_H-M   'P 1'
_cell_length_a   4.83527309
_cell_length_b   4.79828810
_cell_length_c   5.07394831
_cell_angle_alpha   99.19112665
_cell_angle_beta   108.46889926
_cell_angle_gamma   59.73068241
_symmetry_Int_Tables_number   1
_chemical_formula_structural   Li(CoO2)3
_chemical_formula_sum   'Li1 Co3 O6'
_cell_volume   96.43493257
_cell_formula_units_Z   1
loop_
 _symmetry_equiv_pos_site_id
 _symmetry_equiv_pos_as_xyz
  1  'x, y, z'
loop_
 _atom_site_type_symbol
 _atom_site_label
 _atom_site_symmetry_multiplicity
 _atom_site_fract_x
 _atom_site_fract_y
 _atom_site_fract_z
 _atom_site_occupancy
  Li  Li0  1  0.66666700  0.66666700  -0.00000000  1
  Co  Co0  1  0.49751782  0.00487043  0.50003687  1
  Co  Co1  1  0.16666700  0.66666700  0.50000000  1
  Co  Co2  1  0.83581618  0.32846257  0.49996313  1
  O  O0  1  0.24176558  0.99290525  0.70199334  1
  O  O1  1  0.09156842  0.34042775  0.29800666  1
  O  O2  1  0.76525616  0.99295545  0.29809368  1
  O  O3  1  0.56807684  0.34037755  0.70190632  1
  O  O4  1  0.43946152  0.66663626  0.30208664  1
  O  O5  1  0.89387148  0.66669774  0.69791336  1
loop_
_geom_bond_atom_site_label_1
_geom_bond_atom_site_label_2
_geom_bond_distance
_geom_bond_site_symmetry_2
Li0 O0 2.122133 1_554
Li0 O1 2.122135 1_655
Li0 O2 2.122552 1_555
Li0 O3 2.122558 1_554
Li0 O5 2.150214 1_554
Li0 O4 2.150218 1_555
Co0 O0 1.864360 1_545
Co0 O2 1.864469 1_545
Co0 O5 1.865530 1_545
Co0 O4 1.865870 1_545
Co0 O1 1.887436 1_555
Co0 O3 1.887517 1_555
Co1 O3 1.859303 1_555
Co1 O2 1.859304 1_455
Co1 O0 1.859419 1_555
Co1 O1 1.859424 1_555
Co1 O4 1.894007 1_555
Co1 O5 1.894011 1_455
Co2 O1 1.864360 1_655
Co2 O3 1.864474 1_555
Co2 O4 1.865534 1_555
Co2 O5 1.865872 1_555
Co2 O0 1.887436 1_645
Co2 O2 1.887519 1_545
