# generated using pymatgen
data_LiCrSnO4
_symmetry_space_group_name_H-M   'P 1'
_cell_length_a   5.93697079
_cell_length_b   6.22117005
_cell_length_c   8.53263922
_cell_angle_alpha   89.99999553
_cell_angle_beta   90.00010214
_cell_angle_gamma   89.99998099
_symmetry_Int_Tables_number   1
_chemical_formula_structural   LiCrSnO4
_chemical_formula_sum   'Li4 Cr4 Sn4 O16'
_cell_volume   315.15221784
_cell_formula_units_Z   4
loop_
 _symmetry_equiv_pos_site_id
 _symmetry_equiv_pos_as_xyz
  1  'x, y, z'
loop_
 _atom_site_type_symbol
 _atom_site_label
 _atom_site_symmetry_multiplicity
 _atom_site_fract_x
 _atom_site_fract_y
 _atom_site_fract_z
 _atom_site_occupancy
  Li  Li0  1  0.00000588  0.25000078  0.12659410  1
  Li  Li1  1  0.49998643  0.75000079  0.62660953  1
  Li  Li2  1  0.99999603  0.75000144  0.87339037  1
  Li  Li3  1  0.50000401  0.25000071  0.37340475  1
  Cr  Cr0  1  0.75000156  0.24999848  0.74999999  1
  Cr  Cr1  1  0.25000041  0.24999645  0.74999910  1
  Cr  Cr2  1  0.25000024  0.74999926  0.24999830  1
  Cr  Cr3  1  0.74999870  0.74999667  0.24999982  1
  Sn  Sn0  1  0.00000190  0.49997954  0.50001386  1
  Sn  Sn1  1  0.50000226  0.00002158  -0.00000552  1
  Sn  Sn2  1  0.99999830  0.00002365  0.50000676  1
  Sn  Sn3  1  0.49999847  0.49998142  -0.00001342  1
  O  O0  1  0.00000052  0.53216495  0.25957485  1
  O  O1  1  0.50000253  0.03215356  0.75958846  1
  O  O2  1  0.99999864  0.96783369  0.25956905  1
  O  O3  1  0.50000035  0.46784331  0.75958170  1
  O  O4  1  0.00000060  0.03215353  0.74041220  1
  O  O5  1  0.49999770  0.53216509  0.24042422  1
  O  O6  1  0.00000240  0.46784360  0.74041784  1
  O  O7  1  0.49999991  0.96783422  0.24043094  1
  O  O8  1  0.23392474  0.75000224  0.48711573  1
  O  O9  1  0.73390264  0.25000215  0.98712185  1
  O  O10  1  0.76607416  0.74999990  0.48711723  1
  O  O11  1  0.26609778  0.25000012  0.98712090  1
  O  O12  1  0.76609998  0.25000201  0.51287959  1
  O  O13  1  0.26607555  0.75000229  0.01288285  1
  O  O14  1  0.23390235  0.24999997  0.51287890  1
  O  O15  1  0.73392494  0.74999960  0.01288407  1
loop_
_geom_bond_atom_site_label_1
_geom_bond_atom_site_label_2
_geom_bond_distance
_geom_bond_site_symmetry_2
Li0 O11 1.977875 1_554
Li0 O9 1.977920 1_454
Li0 O2 2.090177 1_445
Li0 O0 2.090189 1_555
Li1 O8 1.977834 1_555
Li1 O10 1.977953 1_555
Li1 O3 2.090114 1_555
Li1 O1 2.090121 1_565
Li2 O15 1.977881 1_556
Li2 O13 1.977912 1_656
Li2 O4 2.090114 1_665
Li2 O6 2.090118 1_655
Li3 O12 1.977899 1_555
Li3 O14 1.977926 1_555
Li3 O7 2.090169 1_545
Li3 O5 2.090189 1_555
Cr0 O4 2.011555 1_655
Cr0 O1 2.011556 1_555
Cr0 O3 2.011562 1_555
Cr0 O6 2.011563 1_655
Cr0 O12 2.025519 1_555
Cr0 O9 2.025532 1_555
Cr1 O4 2.011550 1_555
Cr1 O6 2.011558 1_555
Cr1 O1 2.011561 1_555
Cr1 O3 2.011566 1_555
Cr1 O14 2.025517 1_555
Cr1 O11 2.025530 1_555
Cr2 O5 2.011499 1_555
Cr2 O7 2.011510 1_555
Cr2 O0 2.011511 1_555
Cr2 O2 2.011517 1_455
Cr2 O13 2.025471 1_555
Cr2 O8 2.025487 1_555
Cr3 O5 2.011504 1_555
Cr3 O0 2.011507 1_655
Cr3 O7 2.011517 1_555
Cr3 O2 2.011520 1_555
Cr3 O15 2.025472 1_555
Cr3 O10 2.025487 1_555
O0 Sn0 2.061327 1_555
O1 Sn1 2.061015 1_556
O2 Sn2 2.061319 1_565
O3 Sn3 2.061009 1_556
O4 Sn2 2.061009 1_455
O5 Sn3 2.061315 1_555
O6 Sn0 2.061000 1_555
O7 Sn1 2.061307 1_565
O8 Sn0 2.088117 1_555
O8 Sn2 2.088122 1_465
O9 Sn1 2.087822 1_556
O9 Sn3 2.087827 1_556
O10 Sn2 2.088123 1_565
O10 Sn0 2.088124 1_655
O11 Sn3 2.087823 1_556
O11 Sn1 2.087828 1_556
O12 Sn2 2.087803 1_555
O12 Sn0 2.087811 1_655
O13 Sn3 2.088108 1_555
O13 Sn1 2.088113 1_565
O14 Sn0 2.087813 1_555
O14 Sn2 2.087816 1_455
O15 Sn1 2.088109 1_565
O15 Sn3 2.088110 1_555
