# generated using pymatgen
data_Rb3FeO3
_symmetry_space_group_name_H-M   'P 1'
_cell_length_a   6.82104567
_cell_length_b   7.64044812
_cell_length_c   10.94860285
_cell_angle_alpha   84.84529027
_cell_angle_beta   90.00000000
_cell_angle_gamma   90.00000000
_symmetry_Int_Tables_number   1
_chemical_formula_structural   Rb3FeO3
_chemical_formula_sum   'Rb12 Fe4 O12'
_cell_volume   568.28805193
_cell_formula_units_Z   4
loop_
 _symmetry_equiv_pos_site_id
 _symmetry_equiv_pos_as_xyz
  1  'x, y, z'
loop_
 _atom_site_type_symbol
 _atom_site_label
 _atom_site_symmetry_multiplicity
 _atom_site_fract_x
 _atom_site_fract_y
 _atom_site_fract_z
 _atom_site_occupancy
  Rb  Rb0  1  0.31874396  0.36115743  0.07004881  1
  Rb  Rb1  1  0.62215692  0.95469973  0.15195891  1
  Rb  Rb2  1  0.81386930  0.36261429  0.19679282  1
  Rb  Rb3  1  0.31386930  0.63738571  0.30320718  1
  Rb  Rb4  1  0.12215692  0.04530027  0.34804109  1
  Rb  Rb5  1  0.81874396  0.63884257  0.42995119  1
  Rb  Rb6  1  0.18125604  0.36115743  0.57004881  1
  Rb  Rb7  1  0.87784308  0.95469973  0.65195891  1
  Rb  Rb8  1  0.68613070  0.36261429  0.69679282  1
  Rb  Rb9  1  0.18613070  0.63738571  0.80320718  1
  Rb  Rb10  1  0.37784308  0.04530027  0.84804109  1
  Rb  Rb11  1  0.68125604  0.63884257  0.92995119  1
  Fe  Fe0  1  0.07925002  0.84608449  0.06350340  1
  Fe  Fe1  1  0.57925002  0.15391551  0.43649660  1
  Fe  Fe2  1  0.42074998  0.84608449  0.56350340  1
  Fe  Fe3  1  0.92074998  0.15391551  0.93649660  1
  O  O0  1  0.32850426  0.75594702  0.03920768  1
  O  O1  1  0.05266162  0.09582198  0.09388246  1
  O  O2  1  0.93849848  0.70473221  0.17813263  1
  O  O3  1  0.43849848  0.29526779  0.32186737  1
  O  O4  1  0.55266162  0.90417802  0.40611754  1
  O  O5  1  0.82850426  0.24405298  0.46079232  1
  O  O6  1  0.17149574  0.75594702  0.53920768  1
  O  O7  1  0.44733838  0.09582198  0.59388246  1
  O  O8  1  0.56150152  0.70473221  0.67813263  1
  O  O9  1  0.06150152  0.29526779  0.82186737  1
  O  O10  1  0.94733838  0.90417802  0.90611754  1
  O  O11  1  0.67149574  0.24405298  0.96079232  1
loop_
_geom_bond_atom_site_label_1
_geom_bond_atom_site_label_2
_geom_bond_distance
_geom_bond_site_symmetry_2
Fe0 O2 1.849235 1_455
Fe0 O0 1.862408 1_555
Fe0 O10 1.959193 1_454
Fe0 O1 1.974444 1_565
Fe1 O3 1.849235 1_555
Fe1 O5 1.862408 1_555
Fe1 O7 1.959193 1_555
Fe1 O4 1.974444 1_545
Fe2 O8 1.849235 1_555
Fe2 O6 1.862408 1_555
Fe2 O4 1.959193 1_555
Fe2 O7 1.974444 1_565
Fe3 O9 1.849235 1_655
Fe3 O11 1.862408 1_555
Fe3 O1 1.959193 1_656
Fe3 O10 1.974444 1_545
O0 Rb1 2.859872 1_555
O0 Rb11 2.865879 1_554
O0 Rb10 2.924049 1_564
O0 Rb3 2.952054 1_555
O0 Rb9 2.976692 1_554
O0 Rb0 3.005647 1_555
O1 Rb0 2.716060 1_555
O1 Rb4 2.814962 1_555
O1 Rb2 2.913824 1_455
O1 Rb1 3.172806 1_445
O2 Rb2 2.738814 1_555
O2 Rb5 2.876224 1_555
O2 Rb1 2.878779 1_555
O2 Rb3 2.927310 1_655
O2 Rb11 3.310812 1_554
O3 Rb3 2.738814 1_555
O3 Rb0 2.876224 1_555
O3 Rb4 2.878779 1_555
O3 Rb2 2.927310 1_555
O3 Rb6 3.310812 1_555
O4 Rb5 2.716060 1_555
O4 Rb1 2.814962 1_555
O4 Rb3 2.913824 1_555
O4 Rb4 3.172806 1_565
O5 Rb4 2.859872 1_655
O5 Rb6 2.865879 1_655
O5 Rb7 2.924049 1_545
O5 Rb2 2.952054 1_555
O5 Rb8 2.976692 1_555
O5 Rb5 3.005647 1_555
O6 Rb7 2.859872 1_455
O6 Rb5 2.865879 1_455
O6 Rb4 2.924049 1_565
O6 Rb9 2.952054 1_555
O6 Rb3 2.976692 1_555
O6 Rb6 3.005647 1_555
O7 Rb6 2.716060 1_555
O7 Rb10 2.814962 1_555
O7 Rb8 2.913824 1_555
O7 Rb7 3.172806 1_545
O8 Rb8 2.738814 1_555
O8 Rb11 2.876224 1_555
O8 Rb7 2.878779 1_555
O8 Rb9 2.927310 1_555
O8 Rb5 3.310812 1_555
O9 Rb9 2.738814 1_555
O9 Rb6 2.876224 1_555
O9 Rb10 2.878779 1_555
O9 Rb8 2.927310 1_455
O9 Rb0 3.310812 1_556
O10 Rb11 2.716060 1_555
O10 Rb7 2.814962 1_555
O10 Rb9 2.913824 1_655
O10 Rb10 3.172806 1_665
O11 Rb10 2.859872 1_555
O11 Rb0 2.865879 1_556
O11 Rb1 2.924049 1_546
O11 Rb8 2.952054 1_555
O11 Rb2 2.976692 1_556
O11 Rb11 3.005647 1_555
