# generated using pymatgen
data_Li3Mn(PO4)2
_symmetry_space_group_name_H-M   'P 1'
_cell_length_a   8.08794100
_cell_length_b   8.47310535
_cell_length_c   10.41390328
_cell_angle_alpha   90.04006806
_cell_angle_beta   90.01954259
_cell_angle_gamma   107.44543523
_symmetry_Int_Tables_number   1
_chemical_formula_structural   Li3Mn(PO4)2
_chemical_formula_sum   'Li12 Mn4 P8 O32'
_cell_volume   680.83775790
_cell_formula_units_Z   4
loop_
 _symmetry_equiv_pos_site_id
 _symmetry_equiv_pos_as_xyz
  1  'x, y, z'
loop_
 _atom_site_type_symbol
 _atom_site_label
 _atom_site_symmetry_multiplicity
 _atom_site_fract_x
 _atom_site_fract_y
 _atom_site_fract_z
 _atom_site_occupancy
  Li  Li0  1  0.63686200  0.12836000  0.14325000  1
  Li  Li1  1  0.46961200  0.22946700  0.43971200  1
  Li  Li2  1  0.82363700  0.35306300  0.83489000  1
  Li  Li3  1  0.51497600  0.26738800  0.92861200  1
  Li  Li4  1  0.38572600  0.39497300  0.17111700  1
  Li  Li5  1  0.38525200  0.39324700  0.66621800  1
  Li  Li6  1  0.64257800  0.64214500  0.35445500  1
  Li  Li7  1  0.81431600  0.84687300  0.66813500  1
  Li  Li8  1  0.18696800  0.65435200  0.15353400  1
  Li  Li9  1  0.51189600  0.77576600  0.58273600  1
  Li  Li10  1  0.35275100  0.83374000  0.85318600  1
  Li  Li11  1  0.39233700  0.90122000  0.33242600  1
  Mn  Mn0  1  0.89158500  0.35335100  0.33586500  1
  Mn  Mn1  1  0.11488600  0.13355900  0.84147100  1
  Mn  Mn2  1  0.10738000  0.63342700  0.65760500  1
  Mn  Mn3  1  0.88137900  0.85838000  0.15476300  1
  P  P0  1  0.78729200  0.04465100  0.41920600  1
  P  P1  1  0.27111000  0.02194200  0.08862800  1
  P  P2  1  0.71643100  0.48136100  0.58293700  1
  P  P3  1  0.79374900  0.54284800  0.08488300  1
  P  P4  1  0.21079500  0.44744300  0.91725600  1
  P  P5  1  0.28892600  0.52389300  0.41107100  1
  P  P6  1  0.71397900  0.98194300  0.90196900  1
  P  P7  1  0.21202400  0.94943700  0.58628400  1
  O  O0  1  0.67647400  0.14258900  0.34105900  1
  O  O1  1  0.95768400  0.19266300  0.43753200  1
  O  O2  1  0.66521200  0.13986700  0.87451700  1
  O  O3  1  0.09630800  0.03317900  0.14697300  1
  O  O4  1  0.20081300  0.09346500  0.67039700  1
  O  O5  1  0.41321000  0.19105400  0.10736400  1
  O  O6  1  0.57470300  0.31768700  0.60719300  1
  O  O7  1  0.81170000  0.39603000  0.16697300  1
  O  O8  1  0.87992200  0.47883600  0.66860000  1
  O  O9  1  0.32174300  0.34350900  0.85018000  1
  O  O10  1  0.71540800  0.47644900  0.95713000  1
  O  O11  1  0.77196700  0.49752000  0.43932500  1
  O  O12  1  0.02975500  0.30935800  0.91518900  1
  O  O13  1  0.37890600  0.40079100  0.35946400  1
  O  O14  1  0.68928000  0.64144600  0.16355100  1
  O  O15  1  0.97249300  0.68403600  0.07617500  1
  O  O16  1  0.65211400  0.62801500  0.62047900  1
  O  O17  1  0.23788000  0.49372000  0.55559000  1
  O  O18  1  0.27373800  0.50519000  0.05020800  1
  O  O19  1  0.12354300  0.51656000  0.32705800  1
  O  O20  1  0.20058500  0.59139100  0.83030400  1
  O  O21  1  0.41679000  0.70062600  0.39722600  1
  O  O22  1  0.58384800  0.82584700  0.85064000  1
  O  O23  1  0.81010500  0.90591800  0.33099500  1
  O  O24  1  0.89006100  0.98168300  0.82925800  1
  O  O25  1  0.31048700  0.83676800  0.65837100  1
  O  O26  1  0.70640600  0.97170300  0.54440600  1
  O  O27  1  0.74661800  0.97951000  0.04999700  1
  O  O28  1  0.02900200  0.81205400  0.57975100  1
  O  O29  1  0.33099400  0.88608000  0.15413200  1
  O  O30  1  0.29407300  0.00951000  0.45816900  1
  O  O31  1  0.24548600  0.99107600  0.94060000  1
loop_
_geom_bond_atom_site_label_1
_geom_bond_atom_site_label_2
_geom_bond_distance
_geom_bond_site_symmetry_2
Li0 O27 1.997987 1_545
Li0 O5 2.066369 1_555
Li0 O0 2.082468 1_555
Li0 O7 2.297926 1_555
Li1 O6 1.984794 1_555
Li1 O30 1.985002 1_555
Li1 O13 1.995919 1_555
Li1 O0 2.266088 1_555
Li2 O2 1.920642 1_555
Li2 O12 1.996289 1_655
Li2 O10 2.006829 1_555
Li2 O8 2.013465 1_555
Li3 O2 1.936009 1_555
Li3 O9 2.032221 1_555
Li3 O10 2.032511 1_555
Li3 O5 2.060225 1_556
Li4 O5 1.924675 1_555
Li4 O18 1.945760 1_555
Li4 O13 1.963222 1_555
Li5 O6 1.929732 1_555
Li5 O9 1.995896 1_555
Li5 O17 2.020290 1_555
Li5 O16 2.504014 1_555
Li5 O4 2.531293 1_555
Li6 O14 2.024083 1_555
Li6 O11 2.036604 1_555
Li6 O21 2.078847 1_555
Li6 O23 2.252985 1_555
Li6 O13 2.473451 1_555
Li7 O16 1.986392 1_555
Li7 O24 2.018047 1_555
Li7 O26 2.023692 1_555
Li7 O28 2.063263 1_655
Li8 O18 1.943742 1_555
Li8 O29 1.959777 1_555
Li8 O15 1.995556 1_455
Li8 O19 2.129839 1_555
Li9 O26 1.955973 1_555
Li9 O16 1.964576 1_555
Li9 O25 2.011543 1_555
Li9 O21 2.105429 1_555
Li10 O22 1.890420 1_555
Li10 O31 2.012675 1_555
Li10 O25 2.058721 1_555
Li10 O20 2.066858 1_555
Li11 O21 1.893776 1_555
Li11 O30 1.903821 1_565
Li11 O29 1.915974 1_555
Li11 O0 2.579427 1_565
Mn0 O1 1.923167 1_555
Mn0 O7 1.944710 1_555
Mn0 O19 1.971070 1_655
Mn0 O11 2.072803 1_555
Mn0 O0 2.087161 1_555
Mn1 O24 1.890828 1_445
Mn1 O12 1.973815 1_555
Mn1 O4 1.978351 1_555
Mn1 O9 2.046225 1_555
Mn1 O31 2.098702 1_545
Mn2 O8 1.915394 1_455
Mn2 O28 1.981564 1_555
Mn2 O25 1.992490 1_555
Mn2 O20 2.022520 1_555
Mn2 O17 2.095732 1_555
Mn3 O3 1.917953 1_665
Mn3 O23 2.000413 1_555
Mn3 O15 2.011596 1_555
Mn3 O14 2.022110 1_555
Mn3 O27 2.025631 1_555
O0 P0 1.612661 1_555
O1 P0 1.572147 1_555
O2 P6 1.531255 1_545
O3 P1 1.567883 1_555
O4 P7 1.526335 1_545
O5 P1 1.556981 1_555
O6 P2 1.532508 1_555
O7 P3 1.552140 1_555
O8 P2 1.600298 1_555
O9 P4 1.594390 1_555
O10 P3 1.507520 1_556
O11 P2 1.555981 1_555
O12 P4 1.576743 1_555
O13 P5 1.536571 1_555
O14 P3 1.582967 1_555
O15 P3 1.578794 1_555
O16 P2 1.534463 1_555
O17 P5 1.561580 1_555
O18 P4 1.504914 1_554
O19 P5 1.583605 1_555
O20 P4 1.541521 1_555
O21 P5 1.550665 1_555
O22 P6 1.518799 1_555
O23 P0 1.545432 1_565
O24 P6 1.613740 1_555
O25 P7 1.601737 1_555
O26 P0 1.506396 1_565
O27 P6 1.565093 1_554
O28 P7 1.586667 1_555
O29 P1 1.536325 1_565
O30 P7 1.509474 1_545
O31 P1 1.566666 1_566
