# generated using pymatgen
data_Ba2IrO4
_symmetry_space_group_name_H-M   'P 1'
_cell_length_a   7.29859779
_cell_length_b   7.29859779
_cell_length_c   7.29859779
_cell_angle_alpha   147.92202657
_cell_angle_beta   147.92202657
_cell_angle_gamma   46.00048389
_symmetry_Int_Tables_number   1
_chemical_formula_structural   Ba2IrO4
_chemical_formula_sum   'Ba2 Ir1 O4'
_cell_volume   109.27938909
_cell_formula_units_Z   1
loop_
 _symmetry_equiv_pos_site_id
 _symmetry_equiv_pos_as_xyz
  1  'x, y, z'
loop_
 _atom_site_type_symbol
 _atom_site_label
 _atom_site_symmetry_multiplicity
 _atom_site_fract_x
 _atom_site_fract_y
 _atom_site_fract_z
 _atom_site_occupancy
  Ba  Ba0  1  0.35490688  0.35490688  0.00000000  1
  Ba  Ba1  1  0.64509312  0.64509312  -0.00000000  1
  Ir  Ir0  1  -0.00000000  -0.00000000  -0.00000000  1
  O  O0  1  0.50000000  -0.00000000  0.50000000  1
  O  O1  1  0.15420584  0.15420584  0.00000000  1
  O  O2  1  0.84579416  0.84579416  -0.00000000  1
  O  O3  1  -0.00000000  0.50000000  0.50000000  1
loop_
_geom_bond_atom_site_label_1
_geom_bond_atom_site_label_2
_geom_bond_distance
_geom_bond_site_symmetry_2
Ba0 O1 2.696773 1_555
Ba0 O3 2.804871 1_554
Ba0 O0 2.804871 1_554
Ba0 O3 2.804871 1_655
Ba0 O0 2.804871 1_565
Ba0 O2 2.854445 1_556
Ba0 O2 2.854445 1_444
Ba0 O2 2.854445 1_545
Ba0 O2 2.854445 1_455
Ba1 O2 2.696773 1_555
Ba1 O0 2.804871 1_554
Ba1 O3 2.804871 1_655
Ba1 O3 2.804871 1_554
Ba1 O0 2.804871 1_565
Ba1 O1 2.854445 1_655
Ba1 O1 2.854445 1_565
Ba1 O1 2.854445 1_554
Ba1 O1 2.854445 1_666
Ir0 O0 2.016540 1_555
Ir0 O0 2.016540 1_454
Ir0 O3 2.016540 1_544
Ir0 O3 2.016540 1_555
Ir0 O2 2.072028 1_445
Ir0 O1 2.072028 1_555
