# generated using pymatgen
data_Na2SiSbCO7
_symmetry_space_group_name_H-M   'P 1'
_cell_length_a   6.76295500
_cell_length_b   5.32930300
_cell_length_c   9.30492597
_cell_angle_alpha   88.39622874
_cell_angle_beta   90.00000000
_cell_angle_gamma   90.00000000
_symmetry_Int_Tables_number   1
_chemical_formula_structural   Na2SiSbCO7
_chemical_formula_sum   'Na4 Si2 Sb2 C2 O14'
_cell_volume   335.23524784
_cell_formula_units_Z   2
loop_
 _symmetry_equiv_pos_site_id
 _symmetry_equiv_pos_as_xyz
  1  'x, y, z'
loop_
 _atom_site_type_symbol
 _atom_site_label
 _atom_site_symmetry_multiplicity
 _atom_site_fract_x
 _atom_site_fract_y
 _atom_site_fract_z
 _atom_site_occupancy
  Na  Na0  1  0.49232200  0.23648300  0.77227200  1
  Na  Na1  1  0.00767800  0.23648300  0.77227200  1
  Na  Na2  1  0.50767800  0.76351700  0.22772800  1
  Na  Na3  1  0.99232200  0.76351700  0.22772800  1
  Si  Si0  1  0.25000000  0.71104600  0.57838400  1
  Si  Si1  1  0.75000000  0.28895400  0.42161600  1
  Sb  Sb0  1  0.75000000  0.78186900  0.64184600  1
  Sb  Sb1  1  0.25000000  0.21813100  0.35815400  1
  C  C0  1  0.75000000  0.72662100  0.93065700  1
  C  C1  1  0.25000000  0.27337900  0.06934300  1
  O  O0  1  0.25000000  0.28631700  0.93529800  1
  O  O1  1  0.75000000  0.94389700  0.85609700  1
  O  O2  1  0.75000000  0.52684600  0.84906600  1
  O  O3  1  0.05721300  0.80780900  0.66930300  1
  O  O4  1  0.44278700  0.80780900  0.66930300  1
  O  O5  1  0.75000000  0.16276500  0.58744000  1
  O  O6  1  0.25000000  0.40119600  0.56883400  1
  O  O7  1  0.75000000  0.59880400  0.43116600  1
  O  O8  1  0.25000000  0.83723500  0.41256000  1
  O  O9  1  0.55721300  0.19219100  0.33069700  1
  O  O10  1  0.94278700  0.19219100  0.33069700  1
  O  O11  1  0.25000000  0.47315400  0.15093400  1
  O  O12  1  0.25000000  0.05610300  0.14390300  1
  O  O13  1  0.75000000  0.71368300  0.06470200  1
loop_
_geom_bond_atom_site_label_1
_geom_bond_atom_site_label_2
_geom_bond_distance
_geom_bond_site_symmetry_2
Na0 O0 2.253866 1_555
Na0 O2 2.450290 1_555
Na0 O1 2.451231 1_545
Na0 O5 2.487352 1_555
Na0 O4 2.524249 1_545
Na0 O6 2.635639 1_555
Na1 O0 2.253866 1_555
Na1 O2 2.450290 1_455
Na1 O1 2.451231 1_445
Na1 O5 2.487352 1_455
Na1 O3 2.524249 1_545
Na1 O6 2.635639 1_555
Na2 O13 2.253866 1_555
Na2 O11 2.450290 1_555
Na2 O12 2.451231 1_565
Na2 O8 2.487352 1_555
Na2 O9 2.524249 1_565
Na2 O7 2.635639 1_555
Na3 O13 2.253866 1_555
Na3 O11 2.450290 1_655
Na3 O12 2.451231 1_665
Na3 O8 2.487352 1_655
Na3 O10 2.524249 1_565
Na3 O7 2.635639 1_555
C0 O13 1.247255 1_556
C0 O2 1.324813 1_555
C0 O1 1.333101 1_555
C1 O0 1.247255 1_554
C1 O11 1.324813 1_555
C1 O12 1.333101 1_555
O1 Sb0 2.194626 1_555
O2 Sb0 2.327720 1_555
O3 Si0 1.644984 1_555
O3 Sb0 2.098348 1_455
O4 Si0 1.644984 1_555
O4 Sb0 2.098348 1_555
O5 Si1 1.665821 1_555
O5 Sb0 2.078292 1_545
O6 Si0 1.656155 1_555
O6 Sb1 2.214020 1_555
O7 Si1 1.656155 1_555
O7 Sb0 2.214020 1_555
O8 Si0 1.665821 1_555
O8 Sb1 2.078292 1_565
O9 Si1 1.644984 1_555
O9 Sb1 2.098348 1_555
O10 Si1 1.644984 1_555
O10 Sb1 2.098348 1_655
O11 Sb1 2.327720 1_555
O12 Sb1 2.194626 1_555
