# generated using pymatgen
data_MnNi(PO4)2
_symmetry_space_group_name_H-M   'P 1'
_cell_length_a   8.55945124
_cell_length_b   8.55945124
_cell_length_c   8.55945166
_cell_angle_alpha   60.60071969
_cell_angle_beta   60.60071969
_cell_angle_gamma   60.60071954
_symmetry_Int_Tables_number   1
_chemical_formula_structural   MnNi(PO4)2
_chemical_formula_sum   'Mn3 Ni3 P6 O24'
_cell_volume   449.44375949
_cell_formula_units_Z   3
loop_
 _symmetry_equiv_pos_site_id
 _symmetry_equiv_pos_as_xyz
  1  'x, y, z'
loop_
 _atom_site_type_symbol
 _atom_site_label
 _atom_site_symmetry_multiplicity
 _atom_site_fract_x
 _atom_site_fract_y
 _atom_site_fract_z
 _atom_site_occupancy
  Mn  Mn0  1  0.00199400  0.00199400  0.00199400  1
  Mn  Mn1  1  0.85749000  0.85749000  0.85749000  1
  Mn  Mn2  1  0.49989200  0.49989200  0.49989200  1
  Ni  Ni0  1  0.35747800  0.35747800  0.35747800  1
  Ni  Ni1  1  0.14298700  0.14298700  0.14298700  1
  Ni  Ni2  1  0.64240900  0.64240900  0.64240900  1
  P  P0  1  0.46082100  0.74978500  0.04286500  1
  P  P1  1  0.74978500  0.04286500  0.46082100  1
  P  P2  1  0.04286500  0.46082100  0.74978500  1
  P  P3  1  0.95526100  0.54137800  0.24921100  1
  P  P4  1  0.24921100  0.95526100  0.54137800  1
  P  P5  1  0.54137800  0.24921100  0.95526100  1
  O  O0  1  0.68471900  0.89074700  0.49000500  1
  O  O1  1  0.89074700  0.49000500  0.68471900  1
  O  O2  1  0.49000500  0.68471900  0.89074700  1
  O  O3  1  0.26448800  0.91304200  0.05396800  1
  O  O4  1  0.62157800  0.81249500  0.00341700  1
  O  O5  1  0.44674800  0.59227700  0.24220400  1
  O  O6  1  0.91304200  0.05396800  0.26448800  1
  O  O7  1  0.59227700  0.24220400  0.44674800  1
  O  O8  1  0.98515100  0.38608400  0.18942800  1
  O  O9  1  0.24220400  0.44674800  0.59227700  1
  O  O10  1  0.93960000  0.74256900  0.08352500  1
  O  O11  1  0.18942800  0.98515100  0.38608400  1
  O  O12  1  0.81249500  0.00341700  0.62157800  1
  O  O13  1  0.05396800  0.26448800  0.91304200  1
  O  O14  1  0.75437500  0.56116200  0.40753800  1
  O  O15  1  0.00341700  0.62157800  0.81249500  1
  O  O16  1  0.40753700  0.75437500  0.56116200  1
  O  O17  1  0.08352500  0.93960000  0.74256900  1
  O  O18  1  0.56116200  0.40753800  0.75437500  1
  O  O19  1  0.38608400  0.18942800  0.98515100  1
  O  O20  1  0.74256900  0.08352500  0.93960000  1
  O  O21  1  0.51506900  0.30968500  0.10855900  1
  O  O22  1  0.10855900  0.51506900  0.30968500  1
  O  O23  1  0.30968500  0.10855900  0.51506900  1
loop_
_geom_bond_atom_site_label_1
_geom_bond_atom_site_label_2
_geom_bond_distance
_geom_bond_site_symmetry_2
Mn0 O13 2.189751 1_554
Mn0 O3 2.189751 1_545
Mn0 O6 2.189751 1_455
Mn0 O10 2.231590 1_445
Mn0 O20 2.231590 1_454
Mn0 O17 2.231590 1_544
Mn1 O4 1.897612 1_556
Mn1 O15 1.897612 1_655
Mn1 O12 1.897612 1_565
Mn1 O17 1.998134 1_655
Mn1 O20 1.998134 1_565
Mn1 O10 1.998134 1_556
Mn2 O9 2.148650 1_555
Mn2 O7 2.148650 1_555
Mn2 O5 2.148650 1_555
Mn2 O16 2.160698 1_555
Mn2 O14 2.160700 1_555
Mn2 O18 2.160700 1_555
Ni0 O23 2.004670 1_555
Ni0 O22 2.004670 1_555
Ni0 O21 2.004670 1_555
Ni0 O5 2.101693 1_555
Ni0 O7 2.101693 1_555
Ni0 O9 2.101694 1_555
Ni1 O8 1.959012 1_455
Ni1 O19 1.959012 1_554
Ni1 O11 1.959012 1_545
Ni1 O6 2.054440 1_455
Ni1 O3 2.054441 1_545
Ni1 O13 2.054441 1_554
Ni2 O0 1.980095 1_555
Ni2 O1 1.980095 1_555
Ni2 O2 1.980095 1_555
Ni2 O18 2.066484 1_555
Ni2 O14 2.066484 1_555
Ni2 O16 2.066491 1_555
O0 P1 1.524442 1_565
O1 P2 1.524442 1_655
O2 P0 1.524442 1_556
O3 P0 1.566480 1_555
O4 P0 1.544837 1_555
O5 P0 1.562875 1_555
O6 P1 1.566480 1_555
O7 P1 1.562874 1_555
O8 P3 1.516423 1_555
O9 P2 1.562874 1_555
O10 P3 1.599075 1_555
O11 P4 1.516423 1_555
O12 P1 1.544837 1_555
O13 P2 1.566480 1_555
O14 P3 1.572728 1_555
O15 P2 1.544837 1_555
O16 P4 1.572725 1_555
O17 P4 1.599075 1_555
O18 P5 1.572728 1_555
O19 P5 1.516423 1_555
O20 P5 1.599075 1_555
O21 P5 1.517452 1_554
O22 P3 1.517452 1_455
O23 P4 1.517452 1_545
