# generated using pymatgen
data_RbFe3O5
_symmetry_space_group_name_H-M   'P 1'
_cell_length_a   3.11323700
_cell_length_b   9.57926300
_cell_length_c   15.53296100
_cell_angle_alpha   90.00000000
_cell_angle_beta   90.00000000
_cell_angle_gamma   90.00000000
_symmetry_Int_Tables_number   1
_chemical_formula_structural   RbFe3O5
_chemical_formula_sum   'Rb4 Fe12 O20'
_cell_volume   463.23197802
_cell_formula_units_Z   4
loop_
 _symmetry_equiv_pos_site_id
 _symmetry_equiv_pos_as_xyz
  1  'x, y, z'
loop_
 _atom_site_type_symbol
 _atom_site_label
 _atom_site_symmetry_multiplicity
 _atom_site_fract_x
 _atom_site_fract_y
 _atom_site_fract_z
 _atom_site_occupancy
  Rb  Rb0  1  0.00000000  0.72101600  0.37794300  1
  Rb  Rb1  1  0.50000000  0.27898400  0.87794300  1
  Rb  Rb2  1  0.00000000  0.21924100  0.12049400  1
  Rb  Rb3  1  0.50000000  0.78075900  0.62049400  1
  Fe  Fe0  1  0.00000000  0.64136700  0.83556100  1
  Fe  Fe1  1  0.50000000  0.60709700  0.01027600  1
  Fe  Fe2  1  0.00000000  0.57226200  0.17991700  1
  Fe  Fe3  1  0.50000000  0.42773800  0.67991700  1
  Fe  Fe4  1  0.00000000  0.39290300  0.51027600  1
  Fe  Fe5  1  0.50000000  0.35863300  0.33556100  1
  Fe  Fe6  1  0.00000000  0.14021600  0.66421800  1
  Fe  Fe7  1  0.50000000  0.10457500  0.48955800  1
  Fe  Fe8  1  0.00000000  0.07113000  0.31987300  1
  Fe  Fe9  1  0.50000000  0.92887000  0.81987300  1
  Fe  Fe10  1  0.00000000  0.89542500  0.98955800  1
  Fe  Fe11  1  0.50000000  0.85978400  0.16421800  1
  O  O0  1  0.00000000  0.73212200  0.07529700  1
  O  O1  1  0.50000000  0.68657800  0.22694500  1
  O  O2  1  0.50000000  0.55654500  0.78034800  1
  O  O3  1  0.00000000  0.52857500  0.94439700  1
  O  O4  1  0.00000000  0.51938400  0.61065400  1
  O  O5  1  0.50000000  0.48061600  0.11065400  1
  O  O6  1  0.50000000  0.47142500  0.44439700  1
  O  O7  1  0.00000000  0.44345500  0.28034800  1
  O  O8  1  0.00000000  0.31342200  0.72694500  1
  O  O9  1  0.50000000  0.26787800  0.57529700  1
  O  O10  1  0.00000000  0.22786000  0.42292600  1
  O  O11  1  0.50000000  0.18538000  0.27146800  1
  O  O12  1  0.50000000  0.05696300  0.72107800  1
  O  O13  1  0.00000000  0.02551600  0.55545300  1
  O  O14  1  0.00000000  0.01592500  0.89315300  1
  O  O15  1  0.50000000  0.98407500  0.39315300  1
  O  O16  1  0.50000000  0.97448400  0.05545300  1
  O  O17  1  0.00000000  0.94303700  0.22107800  1
  O  O18  1  0.00000000  0.81462000  0.77146800  1
  O  O19  1  0.50000000  0.77214000  0.92292600  1
loop_
_geom_bond_atom_site_label_1
_geom_bond_atom_site_label_2
_geom_bond_distance
_geom_bond_site_symmetry_2
Fe0 O18 1.935335 1_555
Fe0 O2 1.954171 1_555
Fe0 O2 1.954171 1_455
Fe0 O3 2.006327 1_555
Fe0 O19 2.415345 1_455
Fe0 O19 2.415345 1_555
Fe1 O5 1.974580 1_555
Fe1 O3 2.008974 1_654
Fe1 O3 2.008974 1_554
Fe1 O19 2.083374 1_554
Fe1 O0 2.208497 1_555
Fe1 O0 2.208497 1_655
Fe2 O7 1.988975 1_555
Fe2 O1 2.038586 1_455
Fe2 O1 2.038586 1_555
Fe2 O5 2.085964 1_455
Fe2 O5 2.085964 1_555
Fe2 O0 2.232895 1_555
Fe3 O2 1.988975 1_555
Fe3 O8 2.038586 1_555
Fe3 O8 2.038586 1_655
Fe3 O4 2.085964 1_555
Fe3 O4 2.085964 1_655
Fe3 O9 2.232895 1_555
Fe4 O4 1.974580 1_555
Fe4 O6 2.008974 1_455
Fe4 O6 2.008974 1_555
Fe4 O10 2.083374 1_555
Fe4 O9 2.208497 1_555
Fe4 O9 2.208497 1_455
Fe5 O11 1.935335 1_555
Fe5 O7 1.954171 1_655
Fe5 O7 1.954171 1_555
Fe5 O6 2.006327 1_555
Fe5 O10 2.415345 1_555
Fe5 O10 2.415345 1_655
Fe6 O8 1.924118 1_555
Fe6 O12 1.959367 1_455
Fe6 O12 1.959367 1_555
Fe6 O13 2.015304 1_555
Fe6 O9 2.413772 1_555
Fe6 O9 2.413772 1_455
Fe7 O15 1.890710 1_545
Fe7 O13 2.011032 1_655
Fe7 O13 2.011032 1_555
Fe7 O9 2.054445 1_555
Fe7 O10 2.211104 1_555
Fe7 O10 2.211104 1_655
Fe8 O17 1.964828 1_545
Fe8 O11 2.046009 1_455
Fe8 O11 2.046009 1_555
Fe8 O15 2.100979 1_545
Fe8 O15 2.100979 1_445
Fe8 O10 2.194624 1_555
Fe9 O12 1.964828 1_565
Fe9 O18 2.046009 1_655
Fe9 O18 2.046009 1_555
Fe9 O14 2.100979 1_565
Fe9 O14 2.100979 1_665
Fe9 O19 2.194624 1_555
Fe10 O14 1.890710 1_565
Fe10 O16 2.011032 1_556
Fe10 O16 2.011032 1_456
Fe10 O0 2.054445 1_556
Fe10 O19 2.211104 1_555
Fe10 O19 2.211104 1_455
Fe11 O1 1.924118 1_555
Fe11 O17 1.959367 1_655
Fe11 O17 1.959367 1_555
Fe11 O16 2.015304 1_555
Fe11 O0 2.413772 1_555
Fe11 O0 2.413772 1_655
O1 Rb0 2.834256 1_555
O1 Rb0 2.834256 1_655
O2 Rb1 3.060629 1_555
O2 Rb3 3.283045 1_555
O3 Rb1 3.033966 1_555
O3 Rb1 3.033966 1_455
O4 Rb3 2.952175 1_455
O4 Rb3 2.952175 1_555
O5 Rb2 2.952175 1_655
O5 Rb2 2.952175 1_555
O6 Rb0 3.033966 1_655
O6 Rb0 3.033966 1_555
O7 Rb0 3.060629 1_555
O7 Rb2 3.283045 1_555
O8 Rb1 2.834256 1_455
O8 Rb1 2.834256 1_555
O11 Rb2 2.833309 1_555
O11 Rb2 2.833309 1_655
O12 Rb3 3.072688 1_545
O12 Rb1 3.234220 1_555
O13 Rb3 2.990123 1_545
O13 Rb3 2.990123 1_445
O14 Rb1 2.971335 1_555
O14 Rb1 2.971335 1_455
O15 Rb0 2.971335 1_655
O15 Rb0 2.971335 1_555
O16 Rb2 2.990123 1_565
O16 Rb2 2.990123 1_665
O17 Rb2 3.072688 1_565
O17 Rb0 3.234220 1_555
O18 Rb3 2.833309 1_555
O18 Rb3 2.833309 1_455
