# generated using pymatgen
data_Cu3OF5
_symmetry_space_group_name_H-M   'P 1'
_cell_length_a   5.53355400
_cell_length_b   5.87940589
_cell_length_c   6.97849742
_cell_angle_alpha   76.31030106
_cell_angle_beta   73.18834134
_cell_angle_gamma   72.54601082
_symmetry_Int_Tables_number   1
_chemical_formula_structural   Cu3OF5
_chemical_formula_sum   'Cu6 O2 F10'
_cell_volume   204.51568326
_cell_formula_units_Z   2
loop_
 _symmetry_equiv_pos_site_id
 _symmetry_equiv_pos_as_xyz
  1  'x, y, z'
loop_
 _atom_site_type_symbol
 _atom_site_label
 _atom_site_symmetry_multiplicity
 _atom_site_fract_x
 _atom_site_fract_y
 _atom_site_fract_z
 _atom_site_occupancy
  Cu  Cu0  1  0.99572100  0.99976000  0.99673100  1
  Cu  Cu1  1  0.98227000  0.98041200  0.49932700  1
  Cu  Cu2  1  0.67569100  0.67286500  0.34128300  1
  Cu  Cu3  1  0.65397000  0.65260100  0.82101800  1
  Cu  Cu4  1  0.33639800  0.33744200  0.15487800  1
  Cu  Cu5  1  0.33945100  0.33687000  0.67668000  1
  O  O0  1  0.76384200  0.75741300  0.53956100  1
  O  O1  1  0.43153400  0.43407200  0.87363800  1
  F  F0  1  0.89527400  0.89397600  0.79932600  1
  F  F1  1  0.58482900  0.58597800  0.12784800  1
  F  F2  1  0.35275200  0.94992800  0.84513500  1
  F  F3  1  0.31642200  0.72551800  0.48432900  1
  F  F4  1  0.98320500  0.38005700  0.82256100  1
  F  F5  1  0.03087300  0.61600500  0.18091600  1
  F  F6  1  0.69065100  0.28008800  0.51922600  1
  F  F7  1  0.63645000  0.05900000  0.15116100  1
  F  F8  1  0.24282300  0.24752300  0.45830400  1
  F  F9  1  0.08784400  0.09049000  0.20807600  1
loop_
_geom_bond_atom_site_label_1
_geom_bond_atom_site_label_2
_geom_bond_distance
_geom_bond_site_symmetry_2
Cu0 F0 1.910330 1_555
Cu0 F9 1.920959 1_666
Cu0 F2 1.923197 1_655
Cu0 F7 1.938558 1_566
Cu0 F4 2.269562 1_565
Cu0 F5 2.299843 1_656
Cu1 F9 1.951544 1_665
Cu1 O0 1.959291 1_555
Cu1 F0 1.983208 1_555
Cu1 F3 1.993946 1_655
Cu1 F6 2.002060 1_565
Cu1 F8 2.352391 1_665
Cu2 O0 1.805840 1_555
Cu2 F3 1.916696 1_555
Cu2 F1 1.918242 1_555
Cu2 F5 1.933304 1_655
Cu2 F7 2.325231 1_565
Cu2 F6 2.338624 1_555
Cu3 O0 1.889004 1_555
Cu3 O1 1.940240 1_555
Cu3 F2 2.022752 1_555
Cu3 F1 2.025743 1_556
Cu3 F4 2.034413 1_555
Cu3 F0 2.176683 1_555
Cu4 O1 1.872382 1_554
Cu4 F7 1.949897 1_555
Cu4 F5 1.968697 1_555
Cu4 F8 2.007826 1_555
Cu4 F9 2.187479 1_555
Cu4 F1 2.232755 1_555
Cu5 O1 1.851220 1_555
Cu5 F6 1.909125 1_555
Cu5 F4 1.910006 1_455
Cu5 F8 1.975598 1_555
Cu5 F2 2.290564 1_545
Cu5 F3 2.347732 1_555
