# generated using pymatgen
data_Li13Nb14ZnO42
_symmetry_space_group_name_H-M   'P 1'
_cell_length_a   9.06565600
_cell_length_b   9.27378803
_cell_length_c   9.88988074
_cell_angle_alpha   103.60887673
_cell_angle_beta   98.74570848
_cell_angle_gamma   99.38205665
_symmetry_Int_Tables_number   1
_chemical_formula_structural   Li13Nb14ZnO42
_chemical_formula_sum   'Li13 Nb14 Zn1 O42'
_cell_volume   781.44164055
_cell_formula_units_Z   1
loop_
 _symmetry_equiv_pos_site_id
 _symmetry_equiv_pos_as_xyz
  1  'x, y, z'
loop_
 _atom_site_type_symbol
 _atom_site_label
 _atom_site_symmetry_multiplicity
 _atom_site_fract_x
 _atom_site_fract_y
 _atom_site_fract_z
 _atom_site_occupancy
  Li  Li0  1  0.10317400  0.69187700  0.92623400  1
  Li  Li1  1  0.74595700  0.76392000  0.71173200  1
  Li  Li2  1  0.38799900  0.83394500  0.49683500  1
  Li  Li3  1  0.03132000  0.90563100  0.28272800  1
  Li  Li4  1  0.67441300  0.97645700  0.06886500  1
  Li  Li5  1  0.81753200  0.54842200  0.35412400  1
  Li  Li6  1  0.53077500  0.40627900  0.78326000  1
  Li  Li7  1  0.17433300  0.47673400  0.56873400  1
  Li  Li8  1  0.88876200  0.33404400  0.99768300  1
  Li  Li9  1  0.45981000  0.62046100  0.13968200  1
  Li  Li10  1  0.60358200  0.19127400  0.42577100  1
  Li  Li11  1  0.31599700  0.04838700  0.85472300  1
  Li  Li12  1  0.24532400  0.26230800  0.21129000  1
  Nb  Nb0  1  0.35614200  0.92772300  0.21483200  1
  Nb  Nb1  1  0.71088500  0.85414900  0.42834000  1
  Nb  Nb2  1  0.06987600  0.77877900  0.64392700  1
  Nb  Nb3  1  0.42870400  0.71471500  0.85877700  1
  Nb  Nb4  1  0.85414600  0.43170300  0.71995700  1
  Nb  Nb5  1  0.49824100  0.50008000  0.50107100  1
  Nb  Nb6  1  0.78539400  0.64154300  0.07295100  1
  Nb  Nb7  1  0.21884100  0.35790400  0.93295300  1
  Nb  Nb8  1  0.14296100  0.57193800  0.28663700  1
  Nb  Nb9  1  0.63962600  0.07175400  0.79207700  1
  Nb  Nb10  1  0.57252900  0.28622200  0.14760800  1
  Nb  Nb11  1  0.29014000  0.14165200  0.57277900  1
  Nb  Nb12  1  0.92825800  0.21520400  0.35756600  1
  Nb  Nb13  1  0.99949600  0.99942800  0.00137600  1
  Zn  Zn0  1  0.95986100  0.11935600  0.64194700  1
  O  O0  1  0.12755000  0.99702700  0.65285200  1
  O  O1  1  0.75849700  0.99027100  0.65008100  1
  O  O2  1  0.88165600  0.99492000  0.40365200  1
  O  O3  1  0.59555800  0.85198800  0.82896500  1
  O  O4  1  0.25435400  0.98787500  0.39758200  1
  O  O5  1  0.96816300  0.84529900  0.82667300  1
  O  O6  1  0.26692800  0.81393100  0.81093900  1
  O  O7  1  0.55208100  0.95632500  0.38274200  1
  O  O8  1  0.87358400  0.74174400  0.52537200  1
  O  O9  1  0.58793500  0.59850400  0.95361600  1
  O  O10  1  0.15892900  0.88381500  0.09646600  1
  O  O11  1  0.56034600  0.71137100  0.50948300  1
  O  O12  1  0.84572800  0.85263500  0.08061000  1
  O  O13  1  0.27285000  0.56699400  0.93740600  1
  O  O14  1  0.89845400  0.55823900  0.93242300  1
  O  O15  1  0.18385900  0.70280000  0.50481200  1
  O  O16  1  0.46889300  0.84463100  0.07645600  1
  O  O17  1  0.02455400  0.56772300  0.68627400  1
  O  O18  1  0.31048900  0.70951100  0.25908600  1
  O  O19  1  0.68199500  0.70143100  0.25434400  1
  O  O20  1  0.39745500  0.55874300  0.68374800  1
  O  O21  1  0.69439200  0.52869800  0.66761700  1
  O  O22  1  0.98011600  0.67025800  0.23949900  1
  O  O23  1  0.30156000  0.45535000  0.38184100  1
  O  O24  1  0.01616400  0.30873200  0.80901900  1
  O  O25  1  0.70231100  0.28054500  0.79197500  1
  O  O26  1  0.98785900  0.42470400  0.36616900  1
  O  O27  1  0.61146300  0.41712800  0.36246700  1
  O  O28  1  0.32533900  0.27407400  0.79099900  1
  O  O29  1  0.45384700  0.28195800  0.54450100  1
  O  O30  1  0.73815800  0.42424900  0.11575700  1
  O  O31  1  0.16661000  0.13784600  0.97341800  1
  O  O32  1  0.82747100  0.27211600  0.54181300  1
  O  O33  1  0.54070200  0.13156200  0.96829700  1
  O  O34  1  0.11065500  0.41652900  0.11205300  1
  O  O35  1  0.40854900  0.38453800  0.09595900  1
  O  O36  1  0.83755200  0.09909300  0.95320200  1
  O  O37  1  0.12302000  0.24056400  0.52652900  1
  O  O38  1  0.72978800  0.16929500  0.23831300  1
  O  O39  1  0.44288900  0.02660800  0.66713800  1
  O  O40  1  0.41679100  0.13803700  0.22281100  1
  O  O41  1  0.04055100  0.13126900  0.22011400  1
loop_
_geom_bond_atom_site_label_1
_geom_bond_atom_site_label_2
_geom_bond_distance
_geom_bond_site_symmetry_2
Li0 O10 2.072665 1_556
Li0 O14 2.074720 1_455
Li0 O13 2.075809 1_555
Li0 O5 2.313555 1_455
Li0 O6 2.315061 1_555
Li0 O17 2.323332 1_555
Li1 O3 2.066038 1_555
Li1 O5 2.079425 1_555
Li1 O21 2.079668 1_555
Li1 O11 2.306559 1_555
Li1 O8 2.307732 1_555
Li1 O1 2.310109 1_555
Li2 O15 2.065445 1_555
Li2 O39 2.077467 1_565
Li2 O11 2.082196 1_555
Li2 O18 2.304430 1_555
Li2 O4 2.308874 1_555
Li2 O7 2.310107 1_555
Li3 O22 2.081589 1_455
Li3 O2 2.085794 1_455
Li3 O4 2.085986 1_555
Li3 O12 2.305087 1_455
Li3 O10 2.306859 1_555
Li3 O41 2.310313 1_565
Li4 O38 2.073571 1_565
Li4 O16 2.077189 1_555
Li4 O12 2.081708 1_555
Li4 O36 2.316797 1_564
Li4 O3 2.323575 1_554
Li4 O33 2.324377 1_564
Li5 O26 2.073857 1_555
Li5 O27 2.081314 1_555
Li5 O8 2.086431 1_555
Li5 O22 2.302633 1_555
Li5 O30 2.310365 1_555
Li5 O19 2.314245 1_555
Li6 O9 2.074825 1_555
Li6 O28 2.078619 1_555
Li6 O25 2.093579 1_555
Li6 O20 2.297565 1_555
Li6 O29 2.312420 1_555
Li6 O21 2.318395 1_555
Li7 O17 2.073411 1_555
Li7 O20 2.086967 1_555
Li7 O37 2.089528 1_555
Li7 O23 2.310071 1_555
Li7 O26 2.313723 1_455
Li7 O15 2.320268 1_555
Li8 O34 2.076130 1_656
Li8 O36 2.076927 1_555
Li8 O30 2.079674 1_556
Li8 O14 2.310033 1_555
Li8 O24 2.325546 1_655
Li8 O25 2.334100 1_555
Li9 O18 2.073804 1_555
Li9 O19 2.078115 1_555
Li9 O35 2.086153 1_555
Li9 O16 2.300261 1_555
Li9 O9 2.308166 1_554
Li9 O13 2.312717 1_554
Li10 O7 2.078007 1_545
Li10 O29 2.078684 1_555
Li10 O32 2.095104 1_555
Li10 O38 2.308882 1_555
Li10 O27 2.316460 1_555
Li10 O40 2.316846 1_555
Li11 O31 2.071677 1_555
Li11 O6 2.072671 1_545
Li11 O33 2.095367 1_555
Li11 O39 2.313930 1_555
Li11 O28 2.316042 1_555
Li11 O0 2.319786 1_545
Li12 O41 2.072264 1_555
Li12 O23 2.080824 1_555
Li12 O40 2.085548 1_555
Li12 O31 2.306294 1_554
Li12 O35 2.313082 1_555
Li12 O34 2.316183 1_555
Nb0 O10 1.906439 1_555
Nb0 O40 1.917647 1_565
Nb0 O16 1.922860 1_555
Nb0 O4 2.151709 1_555
Nb0 O18 2.157967 1_555
Nb0 O7 2.173790 1_555
Nb1 O7 1.903229 1_555
Nb1 O19 1.905443 1_555
Nb1 O2 1.940792 1_555
Nb1 O11 2.122179 1_555
Nb1 O8 2.173635 1_555
Nb1 O1 2.195641 1_555
Nb2 O8 1.906861 1_455
Nb2 O15 1.915902 1_555
Nb2 O0 1.983571 1_555
Nb2 O17 2.085924 1_555
Nb2 O5 2.159829 1_455
Nb2 O6 2.164527 1_555
Nb3 O6 1.911851 1_555
Nb3 O3 1.918350 1_555
Nb3 O20 1.925591 1_555
Nb3 O16 2.148658 1_556
Nb3 O13 2.163824 1_555
Nb3 O9 2.167065 1_555
Nb4 O21 1.894846 1_555
Nb4 O17 1.951316 1_655
Nb4 O32 1.969657 1_555
Nb4 O14 2.093557 1_555
Nb4 O25 2.122723 1_555
Nb4 O24 2.204341 1_655
Nb5 O23 1.905533 1_555
Nb5 O11 1.926859 1_555
Nb5 O27 1.927033 1_555
Nb5 O20 2.143902 1_555
Nb5 O29 2.152731 1_555
Nb5 O21 2.166862 1_555
Nb6 O9 1.912996 1_554
Nb6 O12 1.925023 1_555
Nb6 O14 1.940367 1_554
Nb6 O30 2.144440 1_555
Nb6 O19 2.148875 1_555
Nb6 O22 2.157849 1_555
Nb7 O13 1.909275 1_555
Nb7 O28 1.910700 1_555
Nb7 O24 1.966024 1_555
Nb7 O35 2.109195 1_556
Nb7 O34 2.154970 1_556
Nb7 O31 2.162409 1_555
Nb8 O22 1.912530 1_455
Nb8 O18 1.914749 1_555
Nb8 O34 1.918774 1_555
Nb8 O15 2.154944 1_555
Nb8 O26 2.162392 1_455
Nb8 O23 2.167270 1_555
Nb9 O25 1.927298 1_555
Nb9 O39 1.930296 1_555
Nb9 O1 1.982621 1_545
Nb9 O33 2.081302 1_555
Nb9 O3 2.138960 1_545
Nb9 O36 2.148305 1_555
Nb10 O30 1.923346 1_555
Nb10 O35 1.931923 1_555
Nb10 O33 1.948790 1_554
Nb10 O27 2.128840 1_555
Nb10 O38 2.141473 1_555
Nb10 O40 2.145409 1_555
Nb11 O29 1.908324 1_555
Nb11 O4 1.912221 1_545
Nb11 O37 1.945722 1_555
Nb11 O39 2.117532 1_555
Nb11 O28 2.164078 1_555
Nb11 O0 2.192914 1_545
Nb12 O26 1.907841 1_555
Nb12 O41 1.916092 1_655
Nb12 O38 1.917869 1_555
Nb12 O32 2.155158 1_555
Nb12 O37 2.178896 1_655
Nb12 O2 2.185147 1_545
Nb13 O5 1.914477 1_554
Nb13 O36 1.916664 1_564
Nb13 O31 1.918284 1_664
Nb13 O12 2.150812 1_555
Nb13 O41 2.162260 1_665
Nb13 O10 2.165508 1_655
O0 Zn0 2.044421 1_465
O1 Zn0 2.037023 1_565
O2 Zn0 2.309494 1_565
O24 Zn0 2.039790 1_455
O32 Zn0 2.298097 1_555
O37 Zn0 2.308568 1_455
