# generated using pymatgen
data_CoP4O11
_symmetry_space_group_name_H-M   'P 1'
_cell_length_a   9.32579000
_cell_length_b   9.36114406
_cell_length_c   10.78346887
_cell_angle_alpha   109.00343524
_cell_angle_beta   108.70193972
_cell_angle_gamma   90.28531275
_symmetry_Int_Tables_number   1
_chemical_formula_structural   CoP4O11
_chemical_formula_sum   'Co4 P16 O44'
_cell_volume   836.78037815
_cell_formula_units_Z   4
loop_
 _symmetry_equiv_pos_site_id
 _symmetry_equiv_pos_as_xyz
  1  'x, y, z'
loop_
 _atom_site_type_symbol
 _atom_site_label
 _atom_site_symmetry_multiplicity
 _atom_site_fract_x
 _atom_site_fract_y
 _atom_site_fract_z
 _atom_site_occupancy
  Co  Co0  1  0.22666200  0.76752100  0.49696400  1
  Co  Co1  1  0.74460700  0.72808700  0.97920600  1
  Co  Co2  1  0.25539300  0.27191300  0.02079400  1
  Co  Co3  1  0.77333800  0.23247900  0.50303600  1
  P  P0  1  0.43375800  0.74765900  0.07640400  1
  P  P1  1  0.76480700  0.92236100  0.60759300  1
  P  P2  1  0.08977200  0.94675100  0.75227800  1
  P  P3  1  0.55616200  0.91712600  0.76506600  1
  P  P4  1  0.89885000  0.59315300  0.23609200  1
  P  P5  1  0.41104100  0.59721400  0.28003400  1
  P  P6  1  0.73788500  0.58291800  0.44073500  1
  P  P7  1  0.09823600  0.73094300  0.91253300  1
  P  P8  1  0.90176400  0.26905700  0.08746700  1
  P  P9  1  0.26211500  0.41708200  0.55926500  1
  P  P10  1  0.58895900  0.40278600  0.71996600  1
  P  P11  1  0.10115000  0.40684700  0.76390800  1
  P  P12  1  0.44383800  0.08287400  0.23493400  1
  P  P13  1  0.91022800  0.05324900  0.24772200  1
  P  P14  1  0.23519300  0.07763900  0.39240700  1
  P  P15  1  0.56624200  0.25234100  0.92359600  1
  O  O0  1  0.49523800  0.91894000  0.16633000  1
  O  O1  1  0.81731700  0.90152600  0.17878700  1
  O  O2  1  0.76634100  0.98988400  0.50211200  1
  O  O3  1  0.25241200  0.73723700  0.03596500  1
  O  O4  1  0.63134000  0.96816600  0.66536400  1
  O  O5  1  0.91198900  0.96781400  0.74341200  1
  O  O6  1  0.08505400  0.83526500  0.61542000  1
  O  O7  1  0.47882000  0.65850400  0.18098900  1
  O  O8  1  0.38043800  0.72965100  0.38637900  1
  O  O9  1  0.05190500  0.68334500  0.30430400  1
  O  O10  1  0.41267600  0.81338400  0.67741000  1
  O  O11  1  0.67927200  0.87863200  0.87292600  1
  O  O12  1  0.79121900  0.59231500  0.09947100  1
  O  O13  1  0.13703000  0.86755600  0.87142200  1
  O  O14  1  0.74186200  0.74018500  0.55949900  1
  O  O15  1  0.81127100  0.63692200  0.34952400  1
  O  O16  1  0.56416000  0.53072900  0.35311300  1
  O  O17  1  0.29484600  0.46234900  0.19412700  1
  O  O18  1  0.96930900  0.74007900  0.96378900  1
  O  O19  1  0.19287100  0.53283600  0.50201400  1
  O  O20  1  0.49557800  0.69398300  0.96131200  1
  O  O21  1  0.90982800  0.41217800  0.21823500  1
  O  O22  1  0.09017200  0.58782200  0.78176500  1
  O  O23  1  0.50442200  0.30601700  0.03868800  1
  O  O24  1  0.80712900  0.46716400  0.49798600  1
  O  O25  1  0.03069100  0.25992100  0.03621100  1
  O  O26  1  0.70515400  0.53765100  0.80587200  1
  O  O27  1  0.43584000  0.46927100  0.64688700  1
  O  O28  1  0.18872900  0.36307800  0.65047600  1
  O  O29  1  0.25813800  0.25981500  0.44050100  1
  O  O30  1  0.86297000  0.13244400  0.12857800  1
  O  O31  1  0.20878100  0.40768500  0.90052900  1
  O  O32  1  0.32072800  0.12136800  0.12707400  1
  O  O33  1  0.58732400  0.18661600  0.32259000  1
  O  O34  1  0.94809500  0.31665500  0.69569600  1
  O  O35  1  0.61956200  0.27034900  0.61362100  1
  O  O36  1  0.52118000  0.34149600  0.81901100  1
  O  O37  1  0.91494600  0.16473500  0.38458000  1
  O  O38  1  0.08801100  0.03218600  0.25658800  1
  O  O39  1  0.36866000  0.03183400  0.33463600  1
  O  O40  1  0.74758800  0.26276300  0.96403500  1
  O  O41  1  0.23365900  0.01011600  0.49788800  1
  O  O42  1  0.18268300  0.09847400  0.82121300  1
  O  O43  1  0.50476200  0.08106000  0.83367000  1
loop_
_geom_bond_atom_site_label_1
_geom_bond_atom_site_label_2
_geom_bond_distance
_geom_bond_site_symmetry_2
Co0 O10 2.064880 1_555
Co0 O6 2.083365 1_555
Co0 O9 2.083968 1_555
Co0 O8 2.104932 1_555
Co0 O19 2.238471 1_555
Co0 O41 2.268263 1_565
Co1 O26 2.046822 1_555
Co1 O12 2.050285 1_556
Co1 O11 2.069627 1_555
Co1 O1 2.122553 1_556
Co1 O18 2.159788 1_555
Co1 O20 2.279864 1_555
Co2 O17 2.046816 1_555
Co2 O31 2.050285 1_554
Co2 O32 2.069627 1_555
Co2 O42 2.122553 1_554
Co2 O25 2.159788 1_555
Co2 O23 2.279864 1_555
Co3 O33 2.064880 1_555
Co3 O37 2.083365 1_555
Co3 O34 2.083968 1_555
Co3 O35 2.104932 1_555
Co3 O24 2.238471 1_555
Co3 O2 2.268263 1_545
O0 P0 1.568961 1_555
O0 P12 1.620947 1_565
O1 P13 1.485837 1_565
O2 P1 1.473811 1_555
O3 P0 1.599227 1_555
O3 P7 1.601003 1_554
O4 P1 1.565185 1_555
O4 P3 1.640220 1_555
O5 P1 1.584063 1_555
O5 P2 1.646436 1_655
O6 P2 1.491293 1_555
O7 P0 1.567673 1_555
O7 P5 1.642515 1_555
O8 P5 1.490319 1_555
O9 P4 1.483745 1_455
O10 P3 1.485013 1_555
O11 P3 1.490474 1_555
O12 P4 1.490672 1_555
O13 P7 1.558959 1_555
O13 P2 1.629404 1_555
O14 P6 1.596878 1_555
O14 P1 1.603829 1_555
O15 P6 1.563143 1_555
O15 P4 1.627499 1_555
O16 P6 1.570368 1_555
O16 P5 1.629125 1_555
O17 P5 1.485675 1_555
O18 P7 1.467944 1_655
O19 P9 1.469449 1_555
O20 P0 1.476743 1_556
O21 P8 1.577891 1_555
O21 P4 1.649110 1_555
O22 P7 1.577891 1_555
O22 P11 1.649110 1_555
O23 P15 1.476743 1_554
O24 P6 1.469449 1_555
O25 P8 1.467944 1_455
O26 P10 1.485674 1_555
O27 P9 1.570368 1_555
O27 P10 1.629125 1_555
O28 P9 1.563143 1_555
O28 P11 1.627499 1_555
O29 P9 1.596878 1_555
O29 P14 1.603829 1_555
O30 P8 1.558959 1_555
O30 P13 1.629404 1_555
O31 P11 1.490672 1_555
O32 P12 1.490474 1_555
O33 P12 1.485013 1_555
O34 P11 1.483745 1_655
O35 P10 1.490319 1_555
O36 P15 1.567673 1_555
O36 P10 1.642515 1_555
O37 P13 1.491293 1_555
O38 P14 1.584063 1_555
O38 P13 1.646436 1_455
O39 P14 1.565185 1_555
O39 P12 1.640220 1_555
O40 P15 1.599227 1_555
O40 P8 1.601003 1_556
O41 P14 1.473811 1_555
O42 P2 1.485837 1_545
O43 P15 1.568961 1_555
O43 P3 1.620947 1_545
