# generated using pymatgen
data_Li2NiH8(CO5)2
_symmetry_space_group_name_H-M   'P 1'
_cell_length_a   5.89107000
_cell_length_b   6.05957700
_cell_length_c   12.08555650
_cell_angle_alpha   67.92470981
_cell_angle_beta   90.00000000
_cell_angle_gamma   90.00000000
_symmetry_Int_Tables_number   1
_chemical_formula_structural   Li2NiH8(CO5)2
_chemical_formula_sum   'Li4 Ni2 H16 C4 O20'
_cell_volume   399.79558642
_cell_formula_units_Z   2
loop_
 _symmetry_equiv_pos_site_id
 _symmetry_equiv_pos_as_xyz
  1  'x, y, z'
loop_
 _atom_site_type_symbol
 _atom_site_label
 _atom_site_symmetry_multiplicity
 _atom_site_fract_x
 _atom_site_fract_y
 _atom_site_fract_z
 _atom_site_occupancy
  Li  Li0  1  0.27707200  0.77835000  0.81544500  1
  Li  Li1  1  0.77707200  0.22165000  0.68455500  1
  Li  Li2  1  0.22292800  0.77835000  0.31544500  1
  Li  Li3  1  0.72292800  0.22165000  0.18455500  1
  Ni  Ni0  1  0.00000000  0.00000000  0.00000000  1
  Ni  Ni1  1  0.50000000  0.00000000  0.50000000  1
  H  H0  1  0.68787200  0.76528800  0.98380300  1
  H  H1  1  0.67286000  0.32926900  0.92858000  1
  H  H2  1  0.91025200  0.44958000  0.89639100  1
  H  H3  1  0.83561700  0.80962100  0.86341400  1
  H  H4  1  0.41025200  0.55042000  0.60360900  1
  H  H5  1  0.17286000  0.67073100  0.57142000  1
  H  H6  1  0.33561700  0.19037900  0.63658600  1
  H  H7  1  0.18787200  0.23471200  0.51619700  1
  H  H8  1  0.81212800  0.76528800  0.48380300  1
  H  H9  1  0.66438300  0.80962100  0.36341400  1
  H  H10  1  0.82714000  0.32926900  0.42858000  1
  H  H11  1  0.58974800  0.44958000  0.39639100  1
  H  H12  1  0.16438300  0.19037900  0.13658600  1
  H  H13  1  0.08974800  0.55042000  0.10360900  1
  H  H14  1  0.32714000  0.67073100  0.07142000  1
  H  H15  1  0.31212800  0.23471200  0.01619700  1
  C  C0  1  0.35644100  0.26459500  0.81521900  1
  C  C1  1  0.85644100  0.73540500  0.68478100  1
  C  C2  1  0.14355900  0.26459500  0.31521900  1
  C  C3  1  0.64355900  0.73540500  0.18478100  1
  O  O0  1  0.82974700  0.31945700  0.96135000  1
  O  O1  1  0.39759700  0.39259300  0.87837700  1
  O  O2  1  0.75208700  0.89219600  0.90995000  1
  O  O3  1  0.20483100  0.09813000  0.84638600  1
  O  O4  1  0.97157100  0.69737600  0.78242300  1
  O  O5  1  0.47157100  0.30262400  0.71757700  1
  O  O6  1  0.70483100  0.90187000  0.65361400  1
  O  O7  1  0.89759700  0.60740700  0.62162300  1
  O  O8  1  0.32974700  0.68054300  0.53865000  1
  O  O9  1  0.25208700  0.10780400  0.59005000  1
  O  O10  1  0.74791300  0.89219600  0.40995000  1
  O  O11  1  0.67025300  0.31945700  0.46135000  1
  O  O12  1  0.10240300  0.39259300  0.37837700  1
  O  O13  1  0.29516900  0.09813000  0.34638600  1
  O  O14  1  0.52842900  0.69737600  0.28242300  1
  O  O15  1  0.02842900  0.30262400  0.21757700  1
  O  O16  1  0.79516900  0.90187000  0.15361400  1
  O  O17  1  0.24791300  0.10780400  0.09005000  1
  O  O18  1  0.60240300  0.60740700  0.12162300  1
  O  O19  1  0.17025300  0.68054300  0.03865000  1
loop_
_geom_bond_atom_site_label_1
_geom_bond_atom_site_label_2
_geom_bond_distance
_geom_bond_site_symmetry_2
Li0 O4 1.945825 1_455
Li0 O3 2.149509 1_565
Li0 O1 2.282607 1_555
Li1 O5 1.945825 1_555
Li1 O6 2.149509 1_545
Li1 O7 2.282607 1_555
Li2 O14 1.945825 1_555
Li2 O13 2.149509 1_565
Li2 O12 2.282607 1_555
Li3 O15 1.945825 1_655
Li3 O16 2.149509 1_545
Li3 O18 2.282607 1_555
Ni0 O17 2.068451 1_555
Ni0 O2 2.068451 1_444
Ni0 O19 2.071645 1_545
Ni0 O0 2.071645 1_454
Ni0 O16 2.103926 1_445
Ni0 O3 2.103926 1_554
Ni1 O9 2.068451 1_555
Ni1 O10 2.068451 1_545
Ni1 O11 2.071645 1_555
Ni1 O8 2.071645 1_545
Ni1 O13 2.103926 1_555
Ni1 O6 2.103926 1_545
H0 O2 1.007580 1_555
H0 O18 1.656911 1_556
H1 O0 0.998445 1_555
H1 O1 1.723349 1_555
H2 O0 0.998842 1_555
H2 O4 1.651578 1_555
H3 O2 1.010122 1_555
H3 O4 1.600806 1_555
H4 O8 0.998842 1_555
H4 O5 1.651578 1_555
H5 O8 0.998445 1_555
H5 O7 1.723349 1_455
H6 O9 1.010122 1_555
H6 O5 1.600806 1_555
H7 O9 1.007580 1_555
H7 O12 1.656911 1_555
H8 O10 1.007580 1_555
H8 O7 1.656911 1_555
H9 O10 1.010122 1_555
H9 O14 1.600806 1_555
H10 O11 0.998445 1_555
H10 O12 1.723349 1_655
H11 O11 0.998842 1_555
H11 O14 1.651578 1_555
H12 O17 1.010122 1_555
H12 O15 1.600806 1_555
H13 O19 0.998842 1_555
H13 O15 1.651578 1_555
H14 O19 0.998445 1_555
H14 O18 1.723349 1_555
H15 O17 1.007580 1_555
H15 O1 1.656911 1_554
C0 O3 1.292861 1_555
C0 O1 1.299224 1_555
C0 O5 1.304320 1_555
C1 O6 1.292861 1_555
C1 O7 1.299224 1_555
C1 O4 1.304320 1_555
C2 O13 1.292861 1_555
C2 O12 1.299224 1_555
C2 O15 1.304320 1_555
C3 O16 1.292861 1_555
C3 O18 1.299224 1_555
C3 O14 1.304320 1_555
