# generated using pymatgen
data_Li4Nb2Cr3Fe3O16
_symmetry_space_group_name_H-M   'P 1'
_cell_length_a   5.99735046
_cell_length_b   5.99735046
_cell_length_c   9.70454648
_cell_angle_alpha   89.50973178
_cell_angle_beta   89.50973178
_cell_angle_gamma   59.95247716
_symmetry_Int_Tables_number   1
_chemical_formula_structural   Li4Nb2Cr3Fe3O16
_chemical_formula_sum   'Li4 Nb2 Cr3 Fe3 O16'
_cell_volume   302.13105798
_cell_formula_units_Z   1
loop_
 _symmetry_equiv_pos_site_id
 _symmetry_equiv_pos_as_xyz
  1  'x, y, z'
loop_
 _atom_site_type_symbol
 _atom_site_label
 _atom_site_symmetry_multiplicity
 _atom_site_fract_x
 _atom_site_fract_y
 _atom_site_fract_z
 _atom_site_occupancy
  Li  Li0  1  0.66617500  0.66617500  0.09699900  1
  Li  Li1  1  0.00007600  0.00007600  0.00863900  1
  Li  Li2  1  0.00033900  0.00033900  0.50871400  1
  Li  Li3  1  0.33281700  0.33281700  0.59950200  1
  Nb  Nb0  1  0.66550700  0.66550700  0.50765400  1
  Nb  Nb1  1  0.33171700  0.33171700  0.00539800  1
  Cr  Cr0  1  0.34062400  0.83003400  0.78562700  1
  Cr  Cr1  1  0.83003400  0.34062400  0.78562700  1
  Cr  Cr2  1  0.17080800  0.17080800  0.28638400  1
  Fe  Fe0  1  0.82903500  0.82903500  0.78094900  1
  Fe  Fe1  1  0.17160000  0.65795200  0.28220400  1
  Fe  Fe2  1  0.65795200  0.17160000  0.28220400  1
  O  O0  1  0.33508400  0.83501600  0.40710900  1
  O  O1  1  0.51989100  0.51989100  0.66105100  1
  O  O2  1  0.66893300  0.66893300  0.89140200  1
  O  O3  1  0.99922700  0.99922700  0.69419000  1
  O  O4  1  0.99990700  0.99990700  0.19502100  1
  O  O5  1  0.83501600  0.33508400  0.40710900  1
  O  O6  1  0.51562500  0.96197900  0.65702700  1
  O  O7  1  0.96197900  0.51562500  0.65702700  1
  O  O8  1  0.16680700  0.16680700  0.90472000  1
  O  O9  1  0.83234300  0.83234300  0.41049300  1
  O  O10  1  0.03836800  0.47799900  0.15743900  1
  O  O11  1  0.47799900  0.03836800  0.15743900  1
  O  O12  1  0.33545200  0.33545200  0.39220300  1
  O  O13  1  0.17002100  0.66489700  0.90806800  1
  O  O14  1  0.48108500  0.48108500  0.15392000  1
  O  O15  1  0.66489700  0.17002100  0.90806800  1
loop_
_geom_bond_atom_site_label_1
_geom_bond_atom_site_label_2
_geom_bond_distance
_geom_bond_site_symmetry_2
Li0 O2 1.995148 1_554
Li0 O14 1.995633 1_555
Li0 O11 2.022026 1_565
Li0 O10 2.022026 1_655
Li1 O4 1.808736 1_445
Li1 O8 1.995904 1_554
Li1 O13 1.999253 1_544
Li1 O15 1.999253 1_454
Li2 O3 1.799883 1_445
Li2 O0 1.993789 1_545
Li2 O5 1.993789 1_455
Li2 O9 1.997062 1_445
Li3 O7 2.001849 1_455
Li3 O6 2.001849 1_545
Li3 O12 2.011659 1_555
Li3 O1 2.039074 1_555
Nb0 O9 1.965110 1_555
Nb0 O5 1.977676 1_555
Nb0 O0 1.977676 1_555
Nb0 O1 2.112033 1_555
Nb0 O7 2.119441 1_555
Nb0 O6 2.119441 1_555
Nb1 O15 1.966777 1_554
Nb1 O13 1.966777 1_554
Nb1 O8 1.980801 1_554
Nb1 O10 2.115179 1_555
Nb1 O11 2.115179 1_555
Nb1 O14 2.128436 1_555
Cr0 O3 1.986027 1_455
Cr0 O2 1.994139 1_555
Cr0 O6 2.019318 1_555
Cr0 O1 2.022571 1_555
Cr0 O8 2.100628 1_565
Cr0 O13 2.100826 1_555
Cr1 O3 1.986027 1_545
Cr1 O2 1.994139 1_555
Cr1 O7 2.019318 1_555
Cr1 O1 2.022571 1_555
Cr1 O8 2.100628 1_655
Cr1 O15 2.100826 1_555
Cr2 O4 1.992567 1_445
Cr2 O12 2.003927 1_555
Cr2 O10 2.025605 1_555
Cr2 O11 2.025605 1_555
Cr2 O5 2.095550 1_455
Cr2 O0 2.095550 1_545
Fe0 O3 1.951017 1_555
Fe0 O2 1.970010 1_555
Fe0 O6 2.033826 1_555
Fe0 O7 2.033826 1_555
Fe0 O13 2.163182 1_655
Fe0 O15 2.163182 1_565
Fe1 O4 1.962765 1_455
Fe1 O12 1.981251 1_555
Fe1 O14 2.032611 1_555
Fe1 O10 2.042485 1_555
Fe1 O9 2.152095 1_455
Fe1 O0 2.154837 1_555
Fe2 O4 1.962765 1_545
Fe2 O12 1.981251 1_555
Fe2 O14 2.032611 1_555
Fe2 O11 2.042485 1_555
Fe2 O9 2.152095 1_545
Fe2 O5 2.154837 1_555
