# generated using pymatgen
data_Li3Ag2F5
_symmetry_space_group_name_H-M   'P 1'
_cell_length_a   5.75753400
_cell_length_b   8.16435494
_cell_length_c   11.94921889
_cell_angle_alpha   90.15139475
_cell_angle_beta   97.84943056
_cell_angle_gamma   98.98155164
_symmetry_Int_Tables_number   1
_chemical_formula_structural   Li3Ag2F5
_chemical_formula_sum   'Li12 Ag8 F20'
_cell_volume   549.44133126
_cell_formula_units_Z   4
loop_
 _symmetry_equiv_pos_site_id
 _symmetry_equiv_pos_as_xyz
  1  'x, y, z'
loop_
 _atom_site_type_symbol
 _atom_site_label
 _atom_site_symmetry_multiplicity
 _atom_site_fract_x
 _atom_site_fract_y
 _atom_site_fract_z
 _atom_site_occupancy
  Li  Li0  1  0.02118000  0.71338000  0.40300900  1
  Li  Li1  1  0.00724300  0.41806800  0.56241800  1
  Li  Li2  1  0.36449900  0.63484300  0.75795300  1
  Li  Li3  1  0.15945200  0.50658500  0.00907300  1
  Li  Li4  1  0.56889800  0.98584600  0.77010000  1
  Li  Li5  1  0.50672800  0.68592900  0.24288000  1
  Li  Li6  1  0.57056100  0.37328600  0.71100800  1
  Li  Li7  1  0.49417900  0.07306300  0.21307600  1
  Li  Li8  1  0.63396500  0.39848200  0.20769400  1
  Li  Li9  1  0.99776200  0.83758800  0.60467800  1
  Li  Li10  1  0.91312600  0.12308100  0.41103700  1
  Li  Li11  1  0.92305500  0.15236300  0.03652600  1
  Ag  Ag0  1  0.06749400  0.16746100  0.76638600  1
  Ag  Ag1  1  0.37334600  0.97046300  0.98947600  1
  Ag  Ag2  1  0.10218500  0.40967400  0.25922700  1
  Ag  Ag3  1  0.56746900  0.40159200  0.95384100  1
  Ag  Ag4  1  0.51915400  0.49664700  0.47178500  1
  Ag  Ag5  1  0.44720700  0.06322300  0.51850600  1
  Ag  Ag6  1  0.96987700  0.79638800  0.86335500  1
  Ag  Ag7  1  0.96883800  0.81695000  0.12192800  1
  F  F0  1  0.05176200  0.94106400  0.46002100  1
  F  F1  1  0.10622700  0.29258300  0.94673000  1
  F  F2  1  0.28110800  0.65807500  0.90681500  1
  F  F3  1  0.28780100  0.84644900  0.70496700  1
  F  F4  1  0.12735400  0.31449200  0.44091500  1
  F  F5  1  0.26639300  0.43444000  0.67150300  1
  F  F6  1  0.31041500  0.68698300  0.35574800  1
  F  F7  1  0.16409900  0.07704900  0.14940600  1
  F  F8  1  0.38255800  0.49710600  0.14119600  1
  F  F9  1  0.49072000  0.19162900  0.80355900  1
  F  F10  1  0.75018500  0.97754500  0.92616700  1
  F  F11  1  0.57833000  0.87657200  0.16667700  1
  F  F12  1  0.67732700  0.57455500  0.79494600  1
  F  F13  1  0.79454500  0.95341700  0.67461500  1
  F  F14  1  0.62312400  0.17754100  0.34864200  1
  F  F15  1  0.72172700  0.29124300  0.59793100  1
  F  F16  1  0.77370000  0.58307400  0.30289500  1
  F  F17  1  0.68606500  0.22085900  0.11813800  1
  F  F18  1  0.91661000  0.62554400  0.53774700  1
  F  F19  1  0.90274500  0.55108600  0.07870300  1
loop_
_geom_bond_atom_site_label_1
_geom_bond_atom_site_label_2
_geom_bond_distance
_geom_bond_site_symmetry_2
Ag0 F13 2.321147 1_445
Ag0 F1 2.350137 1_555
Ag0 F9 2.393262 1_555
Ag0 F5 2.633690 1_555
Ag1 F10 2.385884 1_555
Ag1 F11 2.464227 1_556
Ag1 F7 2.609243 1_566
Ag1 F2 2.680099 1_555
Ag2 F4 2.301390 1_555
Ag2 F8 2.317744 1_555
Ag2 F6 2.579629 1_555
Ag2 F16 2.637232 1_455
Ag2 F19 2.656166 1_455
Ag2 Li8 2.669121 1_455
Ag3 F9 2.426725 1_555
Ag3 F19 2.431073 1_556
Ag3 F12 2.462204 1_555
Ag3 F17 2.541954 1_556
Ag3 F1 2.655487 1_555
Ag4 F18 2.390895 1_555
Ag4 F6 2.433327 1_555
Ag4 F4 2.481684 1_555
Ag4 F15 2.566819 1_555
Ag4 F16 2.685329 1_555
Ag5 F0 2.349377 1_545
Ag5 F15 2.350914 1_555
Ag5 F14 2.508626 1_555
Ag6 F2 2.266402 1_655
Ag6 F10 2.277798 1_555
Ag6 F12 2.334322 1_555
Ag7 F19 2.192171 1_555
Ag7 F7 2.243033 1_665
Ag7 F11 2.499347 1_555
F0 Li10 1.853489 1_465
F0 Li0 1.951649 1_555
F0 Li9 1.967413 1_455
F1 Li3 1.861483 1_556
F1 Li11 1.874225 1_456
F2 Li3 1.866721 1_556
F2 Li2 1.921067 1_555
F3 Li4 1.896429 1_555
F3 Li9 1.909228 1_455
F3 Li2 1.936022 1_555
F4 Li10 1.834642 1_455
F4 Li1 1.936900 1_555
F5 Li1 1.829964 1_555
F5 Li6 1.894063 1_555
F5 Li2 1.899031 1_555
F6 Li0 1.872649 1_555
F6 Li5 1.875074 1_555
F7 Li7 1.953484 1_555
F7 Li11 1.970532 1_455
F8 Li8 1.851508 1_555
F8 Li3 1.904284 1_555
F8 Li5 1.942354 1_555
F9 Li4 1.861950 1_545
F9 Li6 1.889082 1_555
F10 Li11 1.988651 1_566
F10 Li4 2.015664 1_555
F11 Li5 1.825206 1_555
F11 Li7 1.851221 1_565
F12 Li6 1.895144 1_555
F12 Li2 1.934473 1_555
F13 Li9 1.889447 1_555
F13 Li4 1.889561 1_555
F14 Li7 1.835580 1_555
F14 Li10 1.853371 1_555
F14 Li8 2.470616 1_555
F15 Li6 1.878913 1_555
F15 Li1 1.901557 1_655
F16 Li8 1.890768 1_555
F16 Li0 1.909858 1_655
F16 Li5 1.920221 1_555
F17 Li8 1.885063 1_555
F17 Li11 1.929862 1_555
F17 Li7 1.974045 1_555
F18 Li1 1.861488 1_655
F18 Li9 1.868974 1_555
F18 Li0 1.898671 1_655
F19 Li3 1.873688 1_655
F19 Li8 2.526355 1_555
