# generated using pymatgen
data_La2Cd2O5
_symmetry_space_group_name_H-M   'P 1'
_cell_length_a   6.02277000
_cell_length_b   6.22144400
_cell_length_c   16.04817400
_cell_angle_alpha   90.00000000
_cell_angle_beta   90.00000000
_cell_angle_gamma   90.00000000
_symmetry_Int_Tables_number   1
_chemical_formula_structural   La2Cd2O5
_chemical_formula_sum   'La8 Cd8 O20'
_cell_volume   601.33031598
_cell_formula_units_Z   4
loop_
 _symmetry_equiv_pos_site_id
 _symmetry_equiv_pos_as_xyz
  1  'x, y, z'
loop_
 _atom_site_type_symbol
 _atom_site_label
 _atom_site_symmetry_multiplicity
 _atom_site_fract_x
 _atom_site_fract_y
 _atom_site_fract_z
 _atom_site_occupancy
  La  La0  1  0.49268100  0.93793100  0.11582400  1
  La  La1  1  0.49268100  0.93793100  0.38417600  1
  La  La2  1  0.99268100  0.56206900  0.61582400  1
  La  La3  1  0.99268100  0.56206900  0.88417600  1
  La  La4  1  0.00731900  0.43793100  0.11582400  1
  La  La5  1  0.00731900  0.43793100  0.38417600  1
  La  La6  1  0.50731900  0.06206900  0.61582400  1
  La  La7  1  0.50731900  0.06206900  0.88417600  1
  Cd  Cd0  1  0.00000000  0.00000000  0.00000000  1
  Cd  Cd1  1  0.00000000  0.00000000  0.50000000  1
  Cd  Cd2  1  0.02357900  0.07228100  0.75000000  1
  Cd  Cd3  1  0.52357900  0.42771900  0.25000000  1
  Cd  Cd4  1  0.50000000  0.50000000  0.00000000  1
  Cd  Cd5  1  0.50000000  0.50000000  0.50000000  1
  Cd  Cd6  1  0.47642100  0.57228100  0.75000000  1
  Cd  Cd7  1  0.97642100  0.92771900  0.25000000  1
  O  O0  1  0.13525700  0.07349800  0.14025600  1
  O  O1  1  0.13525700  0.07349800  0.35974400  1
  O  O2  1  0.62139900  0.07231000  0.25000000  1
  O  O3  1  0.18351000  0.31254500  0.53518700  1
  O  O4  1  0.18351000  0.31254500  0.96481300  1
  O  O5  1  0.68351000  0.18745500  0.46481300  1
  O  O6  1  0.68351000  0.18745500  0.03518700  1
  O  O7  1  0.12139900  0.42769000  0.75000000  1
  O  O8  1  0.63525700  0.42650200  0.64025600  1
  O  O9  1  0.63525700  0.42650200  0.85974400  1
  O  O10  1  0.36474300  0.57349800  0.14025600  1
  O  O11  1  0.36474300  0.57349800  0.35974400  1
  O  O12  1  0.87860100  0.57231000  0.25000000  1
  O  O13  1  0.31649000  0.81254500  0.96481300  1
  O  O14  1  0.31649000  0.81254500  0.53518700  1
  O  O15  1  0.81649000  0.68745500  0.03518700  1
  O  O16  1  0.81649000  0.68745500  0.46481300  1
  O  O17  1  0.37860100  0.92769000  0.75000000  1
  O  O18  1  0.86474300  0.92650200  0.64025600  1
  O  O19  1  0.86474300  0.92650200  0.85974400  1
loop_
_geom_bond_atom_site_label_1
_geom_bond_atom_site_label_2
_geom_bond_distance
_geom_bond_site_symmetry_2
La0 O6 2.324976 1_565
La0 O0 2.345024 1_565
La0 O10 2.426544 1_555
La0 O2 2.436505 1_565
La0 O13 2.758206 1_554
La0 O15 2.811830 1_555
La1 O5 2.324976 1_565
La1 O1 2.345024 1_565
La1 O11 2.426544 1_555
La1 O2 2.436505 1_565
La1 O14 2.758206 1_555
La1 O16 2.811830 1_555
La2 O3 2.324976 1_655
La2 O8 2.345024 1_555
La2 O18 2.426544 1_555
La2 O7 2.436505 1_655
La2 O16 2.758206 1_555
La2 O14 2.811830 1_655
La3 O4 2.324976 1_655
La3 O9 2.345024 1_555
La3 O19 2.426544 1_555
La3 O7 2.436505 1_655
La3 O15 2.758206 1_556
La3 O13 2.811830 1_655
La4 O15 2.324976 1_455
La4 O10 2.345024 1_555
La4 O0 2.426544 1_555
La4 O12 2.436505 1_455
La4 O4 2.758206 1_554
La4 O6 2.811830 1_455
La5 O16 2.324976 1_455
La5 O11 2.345024 1_555
La5 O1 2.426544 1_555
La5 O12 2.436505 1_455
La5 O3 2.758206 1_555
La5 O5 2.811830 1_455
La6 O14 2.324976 1_545
La6 O18 2.345024 1_545
La6 O8 2.426544 1_555
La6 O17 2.436505 1_545
La6 O5 2.758206 1_555
La6 O3 2.811830 1_555
La7 O13 2.324976 1_545
La7 O19 2.345024 1_545
La7 O9 2.426544 1_555
La7 O17 2.436505 1_545
La7 O6 2.758206 1_556
La7 O4 2.811830 1_555
Cd0 O13 2.304861 1_544
Cd0 O6 2.304861 1_455
Cd0 O15 2.306823 1_445
Cd0 O4 2.306823 1_554
Cd0 O0 2.437014 1_555
Cd0 O19 2.437014 1_444
Cd1 O14 2.304861 1_545
Cd1 O5 2.304861 1_455
Cd1 O16 2.306823 1_445
Cd1 O3 2.306823 1_555
Cd1 O1 2.437014 1_555
Cd1 O18 2.437014 1_445
Cd2 O18 2.199888 1_445
Cd2 O19 2.199888 1_445
Cd2 O7 2.288299 1_555
Cd2 O17 2.319738 1_545
Cd3 O11 2.199888 1_555
Cd3 O10 2.199888 1_555
Cd3 O2 2.288299 1_555
Cd3 O12 2.319738 1_555
Cd4 O4 2.304861 1_554
Cd4 O15 2.304861 1_555
Cd4 O6 2.306823 1_555
Cd4 O13 2.306823 1_554
Cd4 O10 2.437014 1_555
Cd4 O9 2.437014 1_554
Cd5 O3 2.304861 1_555
Cd5 O16 2.304861 1_555
Cd5 O5 2.306823 1_555
Cd5 O14 2.306823 1_555
Cd5 O11 2.437014 1_555
Cd5 O8 2.437014 1_555
Cd6 O9 2.199888 1_555
Cd6 O8 2.199888 1_555
Cd6 O17 2.288299 1_555
Cd6 O7 2.319738 1_555
Cd7 O1 2.199888 1_665
Cd7 O0 2.199888 1_665
Cd7 O12 2.288299 1_555
Cd7 O2 2.319738 1_565
