# generated using pymatgen
data_Li4V2Cr3Co3O16
_symmetry_space_group_name_H-M   'P 1'
_cell_length_a   5.82385402
_cell_length_b   5.82385402
_cell_length_c   9.30407798
_cell_angle_alpha   89.75770773
_cell_angle_beta   89.75770773
_cell_angle_gamma   60.05399028
_symmetry_Int_Tables_number   1
_chemical_formula_structural   Li4V2Cr3Co3O16
_chemical_formula_sum   'Li4 V2 Cr3 Co3 O16'
_cell_volume   273.43604942
_cell_formula_units_Z   1
loop_
 _symmetry_equiv_pos_site_id
 _symmetry_equiv_pos_as_xyz
  1  'x, y, z'
loop_
 _atom_site_type_symbol
 _atom_site_label
 _atom_site_symmetry_multiplicity
 _atom_site_fract_x
 _atom_site_fract_y
 _atom_site_fract_z
 _atom_site_occupancy
  Li  Li0  1  0.33090600  0.33090600  0.10651600  1
  Li  Li1  1  0.00567700  0.00567700  0.00766800  1
  Li  Li2  1  0.00532700  0.00532700  0.50226900  1
  Li  Li3  1  0.66421400  0.66421400  0.60070000  1
  V  V0  1  0.33343200  0.33343200  0.50169400  1
  V  V1  1  0.66685200  0.66685200  0.00679900  1
  Cr  Cr0  1  0.65603200  0.17148200  0.78513100  1
  Cr  Cr1  1  0.17148200  0.65603200  0.78513100  1
  Cr  Cr2  1  0.82824300  0.82824300  0.28430200  1
  Co  Co0  1  0.17294200  0.17294200  0.78189000  1
  Co  Co1  1  0.82784500  0.34505200  0.28498700  1
  Co  Co2  1  0.34505200  0.82784500  0.28498700  1
  O  O0  1  0.65378500  0.17621700  0.40694300  1
  O  O1  1  0.47726700  0.47726700  0.65341700  1
  O  O2  1  0.33157800  0.33157800  0.89934600  1
  O  O3  1  0.00146000  0.00146000  0.69139200  1
  O  O4  1  0.00581100  0.00581100  0.19499800  1
  O  O5  1  0.17621700  0.65378500  0.40694300  1
  O  O6  1  0.47797500  0.04096600  0.65213900  1
  O  O7  1  0.04096600  0.47797500  0.65213900  1
  O  O8  1  0.82764700  0.82764700  0.91189100  1
  O  O9  1  0.17495000  0.17495000  0.40205500  1
  O  O10  1  0.95321500  0.51478400  0.15705400  1
  O  O11  1  0.51478400  0.95321500  0.15705400  1
  O  O12  1  0.66095500  0.66095500  0.39098900  1
  O  O13  1  0.82167900  0.34990800  0.90968500  1
  O  O14  1  0.52290900  0.52290900  0.16442900  1
  O  O15  1  0.34990800  0.82167900  0.90968500  1
loop_
_geom_bond_atom_site_label_1
_geom_bond_atom_site_label_2
_geom_bond_distance
_geom_bond_site_symmetry_2
Li0 O2 1.927505 1_554
Li0 O11 1.962149 1_545
Li0 O10 1.962149 1_455
Li0 O14 2.012357 1_555
Li1 O4 1.742940 1_555
Li1 O15 1.961240 1_544
Li1 O13 1.961240 1_454
Li1 O8 2.008222 1_444
Li2 O3 1.759857 1_555
Li2 O9 1.944169 1_555
Li2 O5 1.985528 1_545
Li2 O0 1.985528 1_455
Li3 O1 1.945700 1_555
Li3 O12 1.951605 1_555
Li3 O6 1.961708 1_565
Li3 O7 1.961708 1_655
Cr0 O3 1.947277 1_655
Cr0 O2 1.949756 1_555
Cr0 O1 1.974442 1_555
Cr0 O6 1.997473 1_555
Cr0 O13 2.091375 1_555
Cr0 O8 2.095603 1_545
Cr1 O3 1.947277 1_565
Cr1 O2 1.949756 1_555
Cr1 O1 1.974442 1_555
Cr1 O7 1.997473 1_555
Cr1 O15 2.091375 1_555
Cr1 O8 2.095603 1_455
Cr2 O12 1.953189 1_555
Cr2 O4 1.970374 1_665
Cr2 O11 1.987081 1_555
Cr2 O10 1.987081 1_555
Cr2 O5 2.096502 1_655
Cr2 O0 2.096502 1_565
Co0 O3 1.927092 1_555
Co0 O2 1.941794 1_555
Co0 O7 1.957164 1_555
Co0 O6 1.957164 1_555
Co0 O13 2.132072 1_455
Co0 O15 2.132072 1_545
Co1 O12 1.877267 1_555
Co1 O10 1.905331 1_555
Co1 O4 1.908109 1_655
Co1 O14 1.911917 1_555
Co1 O0 2.063462 1_555
Co1 O9 2.065033 1_655
Co2 O12 1.877267 1_555
Co2 O11 1.905331 1_555
Co2 O4 1.908109 1_565
Co2 O14 1.911917 1_555
Co2 O5 2.063462 1_555
Co2 O9 2.065033 1_565
O0 V0 1.839502 1_555
O1 V0 2.028962 1_555
O5 V0 1.839502 1_555
O6 V0 2.031604 1_555
O7 V0 2.031604 1_555
O8 V1 1.842586 1_556
O9 V0 1.851528 1_555
O10 V1 2.013630 1_555
O11 V1 2.013630 1_555
O13 V1 1.839056 1_556
O14 V1 2.058454 1_555
O15 V1 1.839056 1_556
