# generated using pymatgen
data_BaLaBr5
_symmetry_space_group_name_H-M   'P 1'
_cell_length_a   7.69273500
_cell_length_b   15.71730700
_cell_length_c   16.23097600
_cell_angle_alpha   90.00000000
_cell_angle_beta   90.00000000
_cell_angle_gamma   90.00000000
_symmetry_Int_Tables_number   1
_chemical_formula_structural   BaLaBr5
_chemical_formula_sum   'Ba8 La8 Br40'
_cell_volume   1962.47233776
_cell_formula_units_Z   8
loop_
 _symmetry_equiv_pos_site_id
 _symmetry_equiv_pos_as_xyz
  1  'x, y, z'
loop_
 _atom_site_type_symbol
 _atom_site_label
 _atom_site_symmetry_multiplicity
 _atom_site_fract_x
 _atom_site_fract_y
 _atom_site_fract_z
 _atom_site_occupancy
  Ba  Ba0  1  0.75000000  0.52140000  0.10512800  1
  Ba  Ba1  1  0.25000000  0.81099300  0.09284500  1
  Ba  Ba2  1  0.75000000  0.31099300  0.40715500  1
  Ba  Ba3  1  0.25000000  0.02140000  0.39487200  1
  Ba  Ba4  1  0.75000000  0.97860000  0.60512800  1
  Ba  Ba5  1  0.25000000  0.68900700  0.59284500  1
  Ba  Ba6  1  0.75000000  0.18900700  0.90715500  1
  Ba  Ba7  1  0.25000000  0.47860000  0.89487200  1
  La  La0  1  0.25000000  0.21050400  0.10248500  1
  La  La1  1  0.75000000  0.03714800  0.22120300  1
  La  La2  1  0.25000000  0.53714800  0.27879700  1
  La  La3  1  0.75000000  0.71050400  0.39751400  1
  La  La4  1  0.25000000  0.28949600  0.60248600  1
  La  La5  1  0.75000000  0.46285200  0.72120300  1
  La  La6  1  0.25000000  0.96285200  0.77879700  1
  La  La7  1  0.75000000  0.78949600  0.89751400  1
  Br  Br0  1  0.99035600  0.32640700  0.02777900  1
  Br  Br1  1  0.50964400  0.32640700  0.02777900  1
  Br  Br2  1  0.75000000  0.83871100  0.07566600  1
  Br  Br3  1  0.97901500  0.07797600  0.07636100  1
  Br  Br4  1  0.52098500  0.07797600  0.07636100  1
  Br  Br5  1  0.25000000  0.51891500  0.09349300  1
  Br  Br6  1  0.98715800  0.67269900  0.22264300  1
  Br  Br7  1  0.51284200  0.67269900  0.22264300  1
  Br  Br8  1  0.97589300  0.40951100  0.24824800  1
  Br  Br9  1  0.52410700  0.40951100  0.24824800  1
  Br  Br10  1  0.47589300  0.90951100  0.25175200  1
  Br  Br11  1  0.02410700  0.90951100  0.25175200  1
  Br  Br12  1  0.48715800  0.17269900  0.27735700  1
  Br  Br13  1  0.01284200  0.17269900  0.27735700  1
  Br  Br14  1  0.75000000  0.01891500  0.40650600  1
  Br  Br15  1  0.47901500  0.57797600  0.42363900  1
  Br  Br16  1  0.02098500  0.57797600  0.42363900  1
  Br  Br17  1  0.25000000  0.33871100  0.42433400  1
  Br  Br18  1  0.49035600  0.82640700  0.47222100  1
  Br  Br19  1  0.00964400  0.82640700  0.47222100  1
  Br  Br20  1  0.99035600  0.17359300  0.52777900  1
  Br  Br21  1  0.50964400  0.17359300  0.52777900  1
  Br  Br22  1  0.75000000  0.66128900  0.57566600  1
  Br  Br23  1  0.97901500  0.42202400  0.57636100  1
  Br  Br24  1  0.52098500  0.42202400  0.57636100  1
  Br  Br25  1  0.25000000  0.98108500  0.59349400  1
  Br  Br26  1  0.98715800  0.82730100  0.72264300  1
  Br  Br27  1  0.51284200  0.82730100  0.72264300  1
  Br  Br28  1  0.97589300  0.09048900  0.74824800  1
  Br  Br29  1  0.52410700  0.09048900  0.74824800  1
  Br  Br30  1  0.47589300  0.59048900  0.75175200  1
  Br  Br31  1  0.02410700  0.59048900  0.75175200  1
  Br  Br32  1  0.48715800  0.32730100  0.77735700  1
  Br  Br33  1  0.01284200  0.32730100  0.77735700  1
  Br  Br34  1  0.75000000  0.48108500  0.90650600  1
  Br  Br35  1  0.47901500  0.92202400  0.92363900  1
  Br  Br36  1  0.02098500  0.92202400  0.92363900  1
  Br  Br37  1  0.25000000  0.16128900  0.92433400  1
  Br  Br38  1  0.49035600  0.67359300  0.97222100  1
  Br  Br39  1  0.00964400  0.67359300  0.97222100  1
loop_
_geom_bond_atom_site_label_1
_geom_bond_atom_site_label_2
_geom_bond_distance
_geom_bond_site_symmetry_2
Ba0 Br34 3.285510 1_554
Ba0 Br8 3.392433 1_555
Ba0 Br9 3.392433 1_555
Ba0 Br6 3.552670 1_555
Ba0 Br7 3.552670 1_555
Ba0 Br38 3.790122 1_554
Ba0 Br39 3.790122 1_654
Ba0 Br0 3.793115 1_555
Ba0 Br1 3.793115 1_555
Ba0 Br5 3.851199 1_655
Ba0 Br5 3.851199 1_555
Ba1 Br38 3.451903 1_554
Ba1 Br39 3.451903 1_554
Ba1 Br10 3.474153 1_555
Ba1 Br11 3.474153 1_555
Ba1 Br7 3.640239 1_555
Ba1 Br6 3.640239 1_455
Ba1 Br36 3.700239 1_554
Ba1 Br35 3.700239 1_554
Ba1 Br2 3.880990 1_555
Ba1 Br2 3.880990 1_455
Ba2 Br21 3.451903 1_555
Ba2 Br20 3.451903 1_555
Ba2 Br9 3.474153 1_555
Ba2 Br8 3.474153 1_555
Ba2 Br12 3.640239 1_555
Ba2 Br13 3.640239 1_655
Ba2 Br23 3.700239 1_555
Ba2 Br24 3.700239 1_555
Ba2 Br17 3.880990 1_555
Ba2 Br17 3.880990 1_655
Ba3 Br25 3.285510 1_545
Ba3 Br10 3.392433 1_545
Ba3 Br11 3.392433 1_545
Ba3 Br12 3.552670 1_555
Ba3 Br13 3.552670 1_555
Ba3 Br21 3.790122 1_555
Ba3 Br20 3.790122 1_455
Ba3 Br19 3.793115 1_545
Ba3 Br18 3.793115 1_545
Ba3 Br14 3.851198 1_555
Ba3 Br14 3.851198 1_455
Ba4 Br14 3.285510 1_565
Ba4 Br29 3.392433 1_565
Ba4 Br28 3.392433 1_565
Ba4 Br27 3.552670 1_555
Ba4 Br26 3.552670 1_555
Ba4 Br18 3.790122 1_555
Ba4 Br19 3.790122 1_655
Ba4 Br21 3.793115 1_565
Ba4 Br20 3.793115 1_565
Ba4 Br25 3.851198 1_655
Ba4 Br25 3.851198 1_555
Ba5 Br18 3.451903 1_555
Ba5 Br19 3.451903 1_555
Ba5 Br30 3.474153 1_555
Ba5 Br31 3.474153 1_555
Ba5 Br26 3.640239 1_455
Ba5 Br27 3.640239 1_555
Ba5 Br16 3.700239 1_555
Ba5 Br15 3.700239 1_555
Ba5 Br22 3.880990 1_455
Ba5 Br22 3.880990 1_555
Ba6 Br1 3.451903 1_556
Ba6 Br0 3.451903 1_556
Ba6 Br28 3.474153 1_555
Ba6 Br29 3.474153 1_555
Ba6 Br32 3.640239 1_555
Ba6 Br33 3.640239 1_655
Ba6 Br3 3.700239 1_556
Ba6 Br4 3.700239 1_556
Ba6 Br37 3.880990 1_555
Ba6 Br37 3.880990 1_655
Ba7 Br5 3.285494 1_556
Ba7 Br31 3.392433 1_555
Ba7 Br30 3.392433 1_555
Ba7 Br32 3.552670 1_555
Ba7 Br33 3.552670 1_555
Ba7 Br0 3.790122 1_456
Ba7 Br1 3.790122 1_556
Ba7 Br39 3.793115 1_555
Ba7 Br38 3.793115 1_555
Ba7 Br34 3.851198 1_455
Ba7 Br34 3.851198 1_555
Br0 La0 2.962821 1_655
Br1 La0 2.962821 1_555
Br2 La7 2.993256 1_554
Br3 La0 2.977286 1_655
Br3 La1 3.007061 1_555
Br4 La0 2.977286 1_555
Br4 La1 3.007061 1_555
Br5 La2 3.021286 1_555
Br6 La2 3.075404 1_655
Br6 La3 3.426015 1_555
Br7 La2 3.075404 1_555
Br7 La3 3.426015 1_555
Br8 La2 2.952400 1_655
Br9 La2 2.952400 1_555
Br10 La1 2.952400 1_565
Br11 La1 2.952400 1_465
Br12 La1 3.075404 1_555
Br12 La0 3.426028 1_555
Br13 La1 3.075404 1_455
Br13 La0 3.426028 1_555
Br14 La1 3.021270 1_555
Br15 La3 2.977289 1_555
Br15 La2 3.007061 1_555
Br16 La3 2.977289 1_455
Br16 La2 3.007061 1_555
Br17 La4 2.993256 1_555
Br18 La3 2.962827 1_555
Br19 La3 2.962827 1_455
Br20 La4 2.962827 1_655
Br21 La4 2.962827 1_555
Br22 La3 2.993256 1_555
Br23 La4 2.977289 1_655
Br23 La5 3.007061 1_555
Br24 La4 2.977289 1_555
Br24 La5 3.007061 1_555
Br25 La6 3.021270 1_555
Br26 La6 3.075404 1_655
Br26 La7 3.426015 1_555
Br27 La6 3.075404 1_555
Br27 La7 3.426015 1_555
Br28 La6 2.952400 1_645
Br29 La6 2.952400 1_545
Br30 La5 2.952400 1_555
Br31 La5 2.952400 1_455
Br32 La5 3.075404 1_555
Br32 La4 3.426015 1_555
Br33 La5 3.075404 1_455
Br33 La4 3.426015 1_555
Br34 La5 3.021270 1_555
Br35 La7 2.977289 1_555
Br35 La6 3.007061 1_555
Br36 La7 2.977289 1_455
Br36 La6 3.007061 1_555
Br37 La0 2.993241 1_556
Br38 La7 2.962827 1_555
Br39 La7 2.962827 1_455
