# generated using pymatgen
data_Li2Ti7Nb6O30
_symmetry_space_group_name_H-M   'P 1'
_cell_length_a   5.20402624
_cell_length_b   5.20402624
_cell_length_c   24.02098800
_cell_angle_alpha   90.00000000
_cell_angle_beta   90.00000000
_cell_angle_gamma   120.00000311
_symmetry_Int_Tables_number   1
_chemical_formula_structural   Li2Ti7Nb6O30
_chemical_formula_sum   'Li2 Ti7 Nb6 O30'
_cell_volume   563.37872230
_cell_formula_units_Z   1
loop_
 _symmetry_equiv_pos_site_id
 _symmetry_equiv_pos_as_xyz
  1  'x, y, z'
loop_
 _atom_site_type_symbol
 _atom_site_label
 _atom_site_symmetry_multiplicity
 _atom_site_fract_x
 _atom_site_fract_y
 _atom_site_fract_z
 _atom_site_occupancy
  Li  Li0  1  0.33333300  0.66666700  0.20771300  1
  Li  Li1  1  0.33333300  0.66666700  0.47486000  1
  Ti  Ti0  1  0.00000000  0.00000000  0.28601800  1
  Ti  Ti1  1  0.00000000  0.00000000  0.88446000  1
  Ti  Ti2  1  0.00000000  0.00000000  0.00553800  1
  Ti  Ti3  1  0.00000000  0.00000000  0.69695700  1
  Ti  Ti4  1  0.33333300  0.66666700  0.97829500  1
  Ti  Ti5  1  0.33333300  0.66666700  0.71843500  1
  Ti  Ti6  1  0.33333300  0.66666700  0.31456700  1
  Nb  Nb0  1  0.00000000  0.00000000  0.41298200  1
  Nb  Nb1  1  0.66666700  0.33333300  0.19784300  1
  Nb  Nb2  1  0.66666700  0.33333300  0.50536900  1
  Nb  Nb3  1  0.66666700  0.33333300  0.80400500  1
  Nb  Nb4  1  0.33333300  0.66666700  0.09942500  1
  Nb  Nb5  1  0.33333300  0.66666700  0.59786500  1
  O  O0  1  0.59153200  0.99569100  0.15347900  1
  O  O1  1  0.68743600  0.93173900  0.34687900  1
  O  O2  1  0.67038500  0.00370100  0.74652700  1
  O  O3  1  0.96759900  0.30391900  0.45086600  1
  O  O4  1  0.65080300  0.72796000  0.04592800  1
  O  O5  1  0.07715700  0.34919700  0.04592800  1
  O  O6  1  0.69608100  0.66368000  0.45086600  1
  O  O7  1  0.99629900  0.66668400  0.74652700  1
  O  O8  1  0.24430400  0.31256400  0.34687900  1
  O  O9  1  0.00430900  0.59584200  0.15347900  1
  O  O10  1  0.33331600  0.32961500  0.74652700  1
  O  O11  1  0.06826100  0.75569600  0.34687900  1
  O  O12  1  0.00707300  0.61137800  0.54807000  1
  O  O13  1  0.40415800  0.40846800  0.15347900  1
  O  O14  1  0.06101500  0.75179400  0.94783200  1
  O  O15  1  0.27204000  0.92284300  0.04592800  1
  O  O16  1  0.94457700  0.27705300  0.84555200  1
  O  O17  1  0.33632000  0.03240100  0.45086600  1
  O  O18  1  0.25436300  0.90822800  0.65505100  1
  O  O19  1  0.00631000  0.33933200  0.25298300  1
  O  O20  1  0.33247600  0.05542300  0.84555200  1
  O  O21  1  0.09177200  0.34613400  0.65505100  1
  O  O22  1  0.33302200  0.99369000  0.25298300  1
  O  O23  1  0.60430400  0.99292700  0.54807000  1
  O  O24  1  0.24820600  0.30922200  0.94783200  1
  O  O25  1  0.69077800  0.93898500  0.94783200  1
  O  O26  1  0.38862200  0.39569600  0.54807000  1
  O  O27  1  0.66066800  0.66697800  0.25298300  1
  O  O28  1  0.65386600  0.74563700  0.65505100  1
  O  O29  1  0.72294700  0.66752400  0.84555200  1
loop_
_geom_bond_atom_site_label_1
_geom_bond_atom_site_label_2
_geom_bond_distance
_geom_bond_site_symmetry_2
Li0 O22 2.020274 1_555
Li0 O19 2.020276 1_555
Li0 O27 2.020279 1_555
Li0 O0 2.033156 1_555
Li0 O9 2.033156 1_555
Li0 O13 2.033156 1_555
Li1 O17 1.981251 1_565
Li1 O3 1.981254 1_455
Li1 O6 1.981256 1_555
Li1 O23 2.360001 1_555
Li1 O12 2.360001 1_555
Li1 O26 2.360001 1_555
Nb0 O6 1.903865 1_445
Nb0 O17 1.903865 1_555
Nb0 O3 1.903865 1_455
Nb0 O1 2.171513 1_445
Nb0 O8 2.171514 1_555
Nb0 O11 2.171517 1_545
Nb1 O0 1.920648 1_545
Nb1 O9 1.920651 1_655
Nb1 O13 1.920657 1_555
Nb1 O19 2.196414 1_655
Nb1 O22 2.196416 1_545
Nb1 O27 2.196419 1_555
Nb2 O23 1.928901 1_545
Nb2 O12 1.928904 1_655
Nb2 O26 1.928910 1_555
Nb2 O3 2.104693 1_555
Nb2 O17 2.104695 1_555
Nb2 O6 2.104697 1_555
Nb3 O16 1.896578 1_555
Nb3 O20 1.896581 1_555
Nb3 O29 1.896582 1_555
Nb3 O2 2.209634 1_555
Nb3 O7 2.209636 1_555
Nb3 O10 2.209638 1_555
Nb4 O15 1.988872 1_555
Nb4 O5 1.988875 1_555
Nb4 O4 1.988876 1_555
Nb4 O0 2.030388 1_555
Nb4 O9 2.030388 1_555
Nb4 O13 2.030388 1_555
Nb5 O23 1.976798 1_555
Nb5 O12 1.976798 1_555
Nb5 O26 1.976798 1_555
Nb5 O18 2.037826 1_555
Nb5 O21 2.037831 1_555
Nb5 O28 2.037833 1_555
O1 Ti6 1.832779 1_555
O1 Ti0 2.081212 1_665
O2 Ti5 1.879308 1_545
O2 Ti3 2.096083 1_655
O4 Ti2 1.917077 1_665
O4 Ti4 2.223428 1_554
O5 Ti2 1.917077 1_555
O5 Ti4 2.223427 1_554
O7 Ti5 1.879306 1_655
O7 Ti3 2.096083 1_665
O8 Ti6 1.832782 1_555
O8 Ti0 2.081213 1_555
O10 Ti5 1.879311 1_555
O10 Ti3 2.096083 1_555
O11 Ti6 1.832773 1_555
O11 Ti0 2.081216 1_565
O14 Ti4 1.835164 1_555
O14 Ti2 2.025042 1_566
O14 Ti1 2.120528 1_565
O15 Ti2 1.917077 1_565
O15 Ti4 2.223425 1_554
O16 Ti1 1.857764 1_655
O18 Ti3 1.904146 1_565
O18 Ti5 2.141011 1_555
O19 Ti0 1.921240 1_555
O19 Ti6 2.255519 1_555
O20 Ti1 1.857764 1_555
O21 Ti3 1.904142 1_555
O21 Ti5 2.141016 1_555
O22 Ti0 1.921240 1_565
O22 Ti6 2.255517 1_555
O24 Ti4 1.835164 1_555
O24 Ti2 2.025045 1_556
O24 Ti1 2.120530 1_555
O25 Ti4 1.835164 1_555
O25 Ti2 2.025046 1_666
O25 Ti1 2.120532 1_665
O27 Ti0 1.921240 1_665
O27 Ti6 2.255521 1_555
O28 Ti3 1.904143 1_665
O28 Ti5 2.141018 1_555
O29 Ti1 1.857764 1_665
