# generated using pymatgen
data_Nb(BO2)5
_symmetry_space_group_name_H-M   'P 1'
_cell_length_a   15.10292200
_cell_length_b   7.44391800
_cell_length_c   7.44449209
_cell_angle_alpha   88.43410359
_cell_angle_beta   90.00000000
_cell_angle_gamma   90.00000000
_symmetry_Int_Tables_number   1
_chemical_formula_structural   Nb(BO2)5
_chemical_formula_sum   'Nb4 B20 O40'
_cell_volume   836.63382364
_cell_formula_units_Z   4
loop_
 _symmetry_equiv_pos_site_id
 _symmetry_equiv_pos_as_xyz
  1  'x, y, z'
loop_
 _atom_site_type_symbol
 _atom_site_label
 _atom_site_symmetry_multiplicity
 _atom_site_fract_x
 _atom_site_fract_y
 _atom_site_fract_z
 _atom_site_occupancy
  Nb  Nb0  1  0.87540000  0.46025900  0.14687000  1
  Nb  Nb1  1  0.62460000  0.96025900  0.14687000  1
  Nb  Nb2  1  0.37540000  0.03974100  0.85313000  1
  Nb  Nb3  1  0.12460000  0.53974100  0.85313000  1
  B  B0  1  0.97429600  0.08494600  0.20214700  1
  B  B1  1  0.52570400  0.58494600  0.20214700  1
  B  B2  1  0.22324900  0.47861700  0.22390100  1
  B  B3  1  0.27675100  0.97861700  0.22390100  1
  B  B4  1  0.49673200  0.27624600  0.24433100  1
  B  B5  1  0.00326800  0.77624600  0.24433100  1
  B  B6  1  0.37994900  0.49325500  0.31718000  1
  B  B7  1  0.12005100  0.99325500  0.31718000  1
  B  B8  1  0.74276200  0.49971300  0.46921400  1
  B  B9  1  0.75723800  0.99971300  0.46921400  1
  B  B10  1  0.24276200  0.00028700  0.53078600  1
  B  B11  1  0.25723800  0.50028700  0.53078600  1
  B  B12  1  0.87994900  0.00674500  0.68282000  1
  B  B13  1  0.62005100  0.50674500  0.68282000  1
  B  B14  1  0.99673200  0.22375400  0.75566900  1
  B  B15  1  0.50326800  0.72375400  0.75566900  1
  B  B16  1  0.72324900  0.02138300  0.77609900  1
  B  B17  1  0.77675100  0.52138300  0.77609900  1
  B  B18  1  0.47429600  0.41505400  0.79785300  1
  B  B19  1  0.02570400  0.91505400  0.79785300  1
  O  O0  1  0.15867700  0.47233300  0.08650100  1
  O  O1  1  0.34132300  0.97233300  0.08650100  1
  O  O2  1  0.91325800  0.22115600  0.15056300  1
  O  O3  1  0.58674200  0.72115600  0.15056300  1
  O  O4  1  0.19125800  0.00430000  0.17911100  1
  O  O5  1  0.55089500  0.40980400  0.16982100  1
  O  O6  1  0.30874200  0.50430000  0.17911100  1
  O  O7  1  0.94910500  0.90980400  0.16982100  1
  O  O8  1  0.53053400  0.09961000  0.23024800  1
  O  O9  1  0.96946600  0.59961000  0.23024800  1
  O  O10  1  0.77556000  0.48307400  0.29305500  1
  O  O11  1  0.05217400  0.12937600  0.27554500  1
  O  O12  1  0.72444000  0.98307400  0.29305500  1
  O  O13  1  0.44782600  0.62937600  0.27554500  1
  O  O14  1  0.41777400  0.30743700  0.31821400  1
  O  O15  1  0.08222600  0.80743700  0.31821400  1
  O  O16  1  0.19480200  0.46164700  0.40061900  1
  O  O17  1  0.30519800  0.96164700  0.40061900  1
  O  O18  1  0.65619400  0.47613100  0.50159700  1
  O  O19  1  0.15619400  0.02386900  0.49840300  1
  O  O20  1  0.84380600  0.97613100  0.50159700  1
  O  O21  1  0.34380600  0.52386900  0.49840300  1
  O  O22  1  0.69480200  0.03835300  0.59938100  1
  O  O23  1  0.80519800  0.53835300  0.59938100  1
  O  O24  1  0.91777400  0.19256300  0.68178600  1
  O  O25  1  0.58222600  0.69256300  0.68178600  1
  O  O26  1  0.55217400  0.37062400  0.72445500  1
  O  O27  1  0.27556000  0.01692600  0.70694500  1
  O  O28  1  0.94782600  0.87062400  0.72445500  1
  O  O29  1  0.22444000  0.51692600  0.70694500  1
  O  O30  1  0.03053400  0.40039000  0.76975200  1
  O  O31  1  0.46946600  0.90039000  0.76975200  1
  O  O32  1  0.05089500  0.09019600  0.83017900  1
  O  O33  1  0.69125800  0.49570000  0.82088900  1
  O  O34  1  0.44910500  0.59019600  0.83017900  1
  O  O35  1  0.80874200  0.99570000  0.82088900  1
  O  O36  1  0.41325800  0.27884400  0.84943700  1
  O  O37  1  0.08674200  0.77884400  0.84943700  1
  O  O38  1  0.65867700  0.02766700  0.91349900  1
  O  O39  1  0.84132300  0.52766700  0.91349900  1
loop_
_geom_bond_atom_site_label_1
_geom_bond_atom_site_label_2
_geom_bond_distance
_geom_bond_site_symmetry_2
Nb0 O39 1.867438 1_554
Nb0 O2 1.868933 1_555
Nb0 O10 1.870019 1_555
Nb0 O9 1.874780 1_555
Nb1 O38 1.867438 1_564
Nb1 O3 1.868933 1_555
Nb1 O12 1.870019 1_555
Nb1 O8 1.874780 1_565
Nb2 O1 1.867438 1_546
Nb2 O36 1.868933 1_555
Nb2 O27 1.870019 1_555
Nb2 O31 1.874780 1_545
Nb3 O0 1.867438 1_556
Nb3 O37 1.868933 1_555
Nb3 O29 1.870019 1_555
Nb3 O30 1.874780 1_555
B0 O11 1.342102 1_655
B0 O7 1.385479 1_545
B0 O2 1.415650 1_555
B1 O13 1.342102 1_555
B1 O5 1.385479 1_555
B1 O3 1.415650 1_555
B2 O6 1.345894 1_555
B2 O16 1.386434 1_555
B2 O0 1.414969 1_555
B3 O4 1.345894 1_565
B3 O17 1.386434 1_555
B3 O1 1.414969 1_555
B4 O14 1.336211 1_555
B4 O5 1.391086 1_555
B4 O8 1.417043 1_555
B5 O15 1.336211 1_555
B5 O7 1.391086 1_455
B5 O9 1.417043 1_455
B6 O13 1.468517 1_555
B6 O21 1.478787 1_555
B6 O6 1.488349 1_555
B6 O14 1.496364 1_555
B7 O11 1.468517 1_565
B7 O19 1.478787 1_565
B7 O4 1.488349 1_565
B7 O15 1.496364 1_555
B8 O18 1.340146 1_555
B8 O23 1.387863 1_555
B8 O10 1.410459 1_555
B9 O20 1.340146 1_555
B9 O22 1.387863 1_565
B9 O12 1.410459 1_555
B10 O19 1.340146 1_555
B10 O17 1.387863 1_545
B10 O27 1.410459 1_555
B11 O21 1.340146 1_555
B11 O16 1.387863 1_555
B11 O29 1.410459 1_555
B12 O28 1.468517 1_545
B12 O20 1.478787 1_545
B12 O35 1.488349 1_545
B12 O24 1.496364 1_555
B13 O26 1.468517 1_555
B13 O18 1.478787 1_555
B13 O33 1.488349 1_555
B13 O25 1.496364 1_555
B14 O24 1.336211 1_555
B14 O32 1.391086 1_655
B14 O30 1.417043 1_655
B15 O25 1.336211 1_555
B15 O34 1.391086 1_555
B15 O31 1.417043 1_555
B16 O35 1.345894 1_545
B16 O22 1.386434 1_555
B16 O38 1.414969 1_555
B17 O33 1.345894 1_555
B17 O23 1.386434 1_555
B17 O39 1.414969 1_555
B18 O26 1.342102 1_555
B18 O34 1.385479 1_555
B18 O36 1.415650 1_555
B19 O28 1.342102 1_455
B19 O32 1.385479 1_565
B19 O37 1.415650 1_555
