# generated using pymatgen
data_Li2Ni4OF8
_symmetry_space_group_name_H-M   'P 1'
_cell_length_a   5.15700251
_cell_length_b   5.15700251
_cell_length_c   14.05720032
_cell_angle_alpha   89.58235347
_cell_angle_beta   89.58235347
_cell_angle_gamma   59.47323688
_symmetry_Int_Tables_number   1
_chemical_formula_structural   Li2Ni4OF8
_chemical_formula_sum   'Li4 Ni8 O2 F16'
_cell_volume   322.01718296
_cell_formula_units_Z   2
loop_
 _symmetry_equiv_pos_site_id
 _symmetry_equiv_pos_as_xyz
  1  'x, y, z'
loop_
 _atom_site_type_symbol
 _atom_site_label
 _atom_site_symmetry_multiplicity
 _atom_site_fract_x
 _atom_site_fract_y
 _atom_site_fract_z
 _atom_site_occupancy
  Li  Li0  1  0.00542700  0.99730600  0.84641600  1
  Li  Li1  1  0.99817500  0.02154500  0.64507000  1
  Li  Li2  1  0.99730600  0.00542700  0.34641600  1
  Li  Li3  1  0.02154500  0.99817500  0.14507000  1
  Ni  Ni0  1  0.68740100  0.65352100  0.68055500  1
  Ni  Ni1  1  0.65474300  0.66930900  0.98763400  1
  Ni  Ni2  1  0.65352100  0.68740100  0.18055500  1
  Ni  Ni3  1  0.66930900  0.65474300  0.48763400  1
  Ni  Ni4  1  0.33601700  0.32934700  0.81865700  1
  Ni  Ni5  1  0.34177200  0.30543700  0.02431100  1
  Ni  Ni6  1  0.32934700  0.33601700  0.31865700  1
  Ni  Ni7  1  0.30543700  0.34177200  0.52431100  1
  O  O0  1  0.37633600  0.95223200  0.08176900  1
  O  O1  1  0.95223200  0.37633600  0.58176900  1
  F  F0  1  0.30850900  0.68877500  0.25271300  1
  F  F1  1  0.34815900  0.67725100  0.58306800  1
  F  F2  1  0.68877500  0.30850900  0.75271300  1
  F  F3  1  0.67725100  0.34815900  0.08306800  1
  F  F4  1  0.99323900  0.32417500  0.25266100  1
  F  F5  1  0.02311700  0.33353400  0.91566200  1
  F  F6  1  0.65910500  0.98492900  0.58497900  1
  F  F7  1  0.32417500  0.99323900  0.75266100  1
  F  F8  1  0.33353400  0.02311700  0.41566200  1
  F  F9  1  0.98492900  0.65910500  0.08497900  1
  F  F10  1  0.00908000  0.68693900  0.75207800  1
  F  F11  1  0.02349900  0.64637500  0.41457600  1
  F  F12  1  0.33105400  0.62769200  0.91747200  1
  F  F13  1  0.64637500  0.02349900  0.91457600  1
  F  F14  1  0.68693900  0.00908000  0.25207800  1
  F  F15  1  0.62769200  0.33105400  0.41747200  1
loop_
_geom_bond_atom_site_label_1
_geom_bond_atom_site_label_2
_geom_bond_distance
_geom_bond_site_symmetry_2
Li1 O1 1.932497 1_555
Li3 O0 1.932497 1_555
Ni0 O1 1.963402 1_555
Ni1 O0 1.952839 1_556
Ni2 O0 1.963402 1_555
Ni3 O1 1.952839 1_555
Ni5 O0 1.911219 1_545
Ni7 O1 1.911219 1_455
F0 Ni6 1.989603 1_555
F0 Ni2 2.038522 1_555
F0 Li2 2.077366 1_465
F0 Li3 2.150404 1_555
F1 Li1 1.978339 1_465
F1 Ni7 2.033366 1_555
F1 Ni3 2.081029 1_555
F1 Ni0 2.183717 1_555
F2 Ni4 1.989603 1_555
F2 Ni0 2.038522 1_555
F2 Li0 2.077366 1_645
F2 Li1 2.150404 1_555
F3 Li3 1.978339 1_645
F3 Ni5 2.033366 1_555
F3 Ni1 2.081029 1_554
F3 Ni2 2.183717 1_555
F4 Ni6 2.000139 1_655
F4 Ni2 2.066355 1_555
F4 Li2 2.091222 1_555
F4 Li3 2.218032 1_645
F5 Li0 2.036895 1_545
F5 Ni1 2.070421 1_455
F5 Ni4 2.096823 1_555
F5 Ni5 2.201265 1_556
F6 Ni7 2.007590 1_565
F6 Li1 2.041085 1_565
F6 Ni0 2.112658 1_555
F6 Ni3 2.171774 1_555
F7 Ni4 2.000139 1_565
F7 Ni0 2.066355 1_555
F7 Li0 2.091222 1_555
F7 Li1 2.218032 1_465
F8 Li2 2.036895 1_455
F8 Ni3 2.070421 1_545
F8 Ni6 2.096823 1_555
F8 Ni7 2.201265 1_555
F9 Ni5 2.007590 1_655
F9 Li3 2.041085 1_655
F9 Ni2 2.112658 1_555
F9 Ni1 2.171774 1_554
F10 Ni4 1.989617 1_555
F10 Ni0 2.027258 1_455
F10 Li0 2.078635 1_555
F10 Li1 2.260146 1_465
F11 Li2 2.021572 1_465
F11 Ni3 2.070293 1_455
F11 Ni6 2.074462 1_555
F11 Ni7 2.153648 1_555
F12 Li0 2.048378 1_555
F12 Ni1 2.048485 1_555
F12 Ni4 2.070741 1_555
F12 Ni5 2.211775 1_556
F13 Li0 2.021572 1_645
F13 Ni1 2.070293 1_545
F13 Ni4 2.074462 1_555
F13 Ni5 2.153648 1_556
F14 Ni6 1.989617 1_555
F14 Ni2 2.027258 1_545
F14 Li2 2.078635 1_555
F14 Li3 2.260146 1_645
F15 Li2 2.048378 1_555
F15 Ni3 2.048485 1_555
F15 Ni6 2.070741 1_555
F15 Ni7 2.211775 1_555
