# generated using pymatgen
data_Li5V3P8O29
_symmetry_space_group_name_H-M   'P 1'
_cell_length_a   9.80117300
_cell_length_b   9.80249665
_cell_length_c   13.88706174
_cell_angle_alpha   90.11790798
_cell_angle_beta   90.01722125
_cell_angle_gamma   119.97484655
_symmetry_Int_Tables_number   1
_chemical_formula_structural   Li5V3P8O29
_chemical_formula_sum   'Li10 V6 P16 O58'
_cell_volume   1155.75118335
_cell_formula_units_Z   2
loop_
 _symmetry_equiv_pos_site_id
 _symmetry_equiv_pos_as_xyz
  1  'x, y, z'
loop_
 _atom_site_type_symbol
 _atom_site_label
 _atom_site_symmetry_multiplicity
 _atom_site_fract_x
 _atom_site_fract_y
 _atom_site_fract_z
 _atom_site_occupancy
  Li  Li0  1  0.67478500  0.90343000  0.56112200  1
  Li  Li1  1  0.22775800  0.32360600  0.56081000  1
  Li  Li2  1  0.08930300  0.31862000  0.05995100  1
  Li  Li3  1  0.22747900  0.90363000  0.05952800  1
  Li  Li4  1  0.90446400  0.22961900  0.43869900  1
  Li  Li5  1  0.09587000  0.77134700  0.56111000  1
  Li  Li6  1  0.90333700  0.67850000  0.94207000  1
  Li  Li7  1  0.77145600  0.67594900  0.43803800  1
  Li  Li8  1  0.32307800  0.09529700  0.43993800  1
  Li  Li9  1  0.32391000  0.23030100  0.93971800  1
  V  V0  1  0.99976100  0.43236600  0.24814600  1
  V  V1  1  0.99998100  0.56665700  0.75153100  1
  V  V2  1  0.57167500  0.00153000  0.75587400  1
  V  V3  1  0.43849300  0.00153000  0.24810200  1
  V  V4  1  0.56796400  0.57007200  0.24588000  1
  V  V5  1  0.43293800  0.43518300  0.74995500  1
  P  P0  1  0.68399600  0.76908300  0.84333100  1
  P  P1  1  0.68394600  0.91372500  0.34201300  1
  P  P2  1  0.23277400  0.32046600  0.34207700  1
  P  P3  1  0.33323600  0.66631400  0.12669500  1
  P  P4  1  0.33442800  0.66979800  0.62661200  1
  P  P5  1  0.08743700  0.31823500  0.84331100  1
  P  P6  1  0.91150400  0.23087000  0.65856600  1
  P  P7  1  0.23104000  0.91318400  0.84203400  1
  P  P8  1  0.77241100  0.08310800  0.15378700  1
  P  P9  1  0.09030000  0.76957600  0.34212500  1
  P  P10  1  0.91179400  0.68177200  0.15857100  1
  P  P11  1  0.66724600  0.33428800  0.37289200  1
  P  P12  1  0.66493800  0.33402700  0.87382300  1
  P  P13  1  0.76803800  0.68077100  0.65727600  1
  P  P14  1  0.32086000  0.08789800  0.65796400  1
  P  P15  1  0.31910000  0.23070900  0.15822700  1
  O  O0  1  0.75900300  0.75776300  0.56566300  1
  O  O1  1  0.66527000  0.74869600  0.34203700  1
  O  O2  1  0.75826100  0.99331700  0.06592700  1
  O  O3  1  0.65930800  0.91458600  0.83606400  1
  O  O4  1  0.52312700  0.61992100  0.82577100  1
  O  O5  1  0.48100400  0.67157300  0.17150900  1
  O  O6  1  0.38322900  0.47830900  0.32511400  1
  O  O7  1  0.23994200  0.23918700  0.06767900  1
  O  O8  1  0.25472500  0.33755400  0.83888400  1
  O  O9  1  0.48868600  0.81775300  0.66978600  1
  O  O10  1  0.52221800  0.90395100  0.32246300  1
  O  O11  1  0.32665200  0.51514200  0.66657100  1
  O  O12  1  0.32661200  0.67025100  0.01962900  1
  O  O13  1  0.33973100  0.67321900  0.51894100  1
  O  O14  1  0.18544300  0.51289800  0.16697000  1
  O  O15  1  0.38179600  0.90269200  0.82359000  1
  O  O16  1  0.32880000  0.81748400  0.16990400  1
  O  O17  1  0.08390000  0.33762300  0.34099800  1
  O  O18  1  0.00013200  0.20903100  0.75032400  1
  O  O19  1  0.99817900  0.23688700  0.56769600  1
  O  O20  1  0.00558300  0.24615300  0.93474600  1
  O  O21  1  0.09787000  0.47927900  0.82203900  1
  O  O22  1  0.18820400  0.67693800  0.66649700  1
  O  O23  1  0.91589300  0.25243800  0.15921500  1
  O  O24  1  0.10058800  0.62123100  0.32495000  1
  O  O25  1  0.25662400  0.91946100  0.34029500  1
  O  O26  1  0.79448200  0.00457400  0.25244600  1
  O  O27  1  0.75567600  0.00231300  0.43395800  1
  O  O28  1  0.24182200  0.99873900  0.56744800  1
  O  O29  1  0.74502500  0.08069100  0.66059000  1
  O  O30  1  0.89930800  0.37836700  0.67474500  1
  O  O31  1  0.08358100  0.74827100  0.84270600  1
  O  O32  1  0.81198900  0.32491100  0.33352300  1
  O  O33  1  0.90328400  0.52166300  0.17647100  1
  O  O34  1  0.00236300  0.75798900  0.06842100  1
  O  O35  1  0.00207200  0.76239200  0.43256100  1
  O  O36  1  0.00178700  0.79271400  0.25035900  1
  O  O37  1  0.91711500  0.66335300  0.65992900  1
  O  O38  1  0.66659400  0.18464700  0.82616300  1
  O  O39  1  0.61838700  0.09291400  0.17753800  1
  O  O40  1  0.81343400  0.48540600  0.83408800  1
  O  O41  1  0.66334200  0.32699100  0.98087000  1
  O  O42  1  0.65832300  0.32536000  0.48046900  1
  O  O43  1  0.67174400  0.48608000  0.33330700  1
  O  O44  1  0.47833500  0.09441500  0.67738100  1
  O  O45  1  0.51156900  0.18317500  0.32921600  1
  O  O46  1  0.74602400  0.66009400  0.16147000  1
  O  O47  1  0.78922700  0.79324100  0.74677900  1
  O  O48  1  0.77053500  0.76473400  0.92915500  1
  O  O49  1  0.61935900  0.52082700  0.67496800  1
  O  O50  1  0.51179900  0.32575700  0.83296900  1
  O  O51  1  0.47989600  0.37617800  0.17598700  1
  O  O52  1  0.33427800  0.07967100  0.15990300  1
  O  O53  1  0.24601900  0.00353100  0.93265500  1
  O  O54  1  0.20860600  0.00009400  0.74996400  1
  O  O55  1  0.33729400  0.25307600  0.65823100  1
  O  O56  1  0.24069100  0.24028400  0.43260700  1
  O  O57  1  0.20822000  0.20827900  0.25007500  1
loop_
_geom_bond_atom_site_label_1
_geom_bond_atom_site_label_2
_geom_bond_distance
_geom_bond_site_symmetry_2
Li0 O0 1.975424 1_555
Li0 O27 1.981571 1_565
Li0 O29 2.048285 1_565
Li0 O9 2.187600 1_555
Li1 O19 1.970800 1_455
Li1 O56 1.987578 1_555
Li1 O55 2.050741 1_555
Li1 O11 2.188849 1_555
Li2 O20 1.900714 1_554
Li2 O7 1.986621 1_555
Li2 O23 2.028080 1_455
Li2 O14 2.217608 1_555
Li3 O34 1.942924 1_555
Li3 O53 1.981352 1_564
Li3 O52 2.049586 1_565
Li3 O16 2.211583 1_555
Li4 O27 1.961676 1_555
Li4 O19 1.997729 1_555
Li4 O17 2.049759 1_655
Li4 O32 2.162905 1_555
Li5 O28 1.958444 1_555
Li5 O35 1.989329 1_555
Li5 O37 2.056101 1_455
Li5 O22 2.158464 1_555
Li6 O48 1.881709 1_555
Li6 O34 1.966110 1_656
Li6 O31 2.071409 1_655
Li6 O40 2.220076 1_555
Li7 O0 1.972647 1_555
Li7 O35 1.979729 1_655
Li7 O1 2.028223 1_555
Li7 O43 2.169075 1_555
Li8 O56 1.956940 1_555
Li8 O28 1.979942 1_545
Li8 O25 2.043952 1_545
Li8 O45 2.221763 1_555
Li9 O53 1.958852 1_555
Li9 O7 1.978510 1_556
Li9 O8 2.060050 1_555
Li9 O50 2.179430 1_555
O0 P13 1.505551 1_555
O1 P1 1.534458 1_555
O1 V4 2.019784 1_555
O2 P8 1.468377 1_565
O3 P0 1.564763 1_555
O3 V2 1.854451 1_565
O4 P0 1.542088 1_555
O4 V5 1.887138 1_555
O5 P3 1.553142 1_555
O5 V4 1.906337 1_555
O6 P2 1.531616 1_555
O6 V4 1.917295 1_555
O7 P15 1.501425 1_555
O8 P5 1.554939 1_555
O8 V5 1.956470 1_555
O9 P4 1.597990 1_555
O9 V2 1.965329 1_565
O10 P1 1.563133 1_555
O10 V3 1.855418 1_565
O11 P4 1.581162 1_555
O11 V5 1.964509 1_555
O12 P3 1.489650 1_555
O13 P4 1.496015 1_555
O14 P3 1.581105 1_555
O14 V0 1.943025 1_455
O15 P7 1.552872 1_555
O15 V2 1.868032 1_565
O16 P3 1.618190 1_555
O16 V3 1.908675 1_565
O17 P2 1.550100 1_555
O17 V0 1.993697 1_455
O18 P6 1.615668 1_455
O18 P5 1.619866 1_555
O19 P6 1.506146 1_555
O20 P5 1.480898 1_555
O21 P5 1.558987 1_555
O21 V1 1.853887 1_455
O22 P4 1.570415 1_555
O22 V1 1.995040 1_455
O23 P8 1.550941 1_555
O23 V0 1.963009 1_555
O24 P9 1.525357 1_555
O24 V0 1.924775 1_455
O25 P9 1.556813 1_555
O25 V3 2.009088 1_565
O26 P1 1.598495 1_545
O26 P8 1.639246 1_555
O27 P1 1.504507 1_545
O28 P14 1.504116 1_565
O29 P6 1.558952 1_555
O29 V2 1.981898 1_555
O30 P6 1.525318 1_555
O30 V1 1.920621 1_555
O31 P7 1.538714 1_555
O31 V1 1.994086 1_455
O32 P11 1.565402 1_555
O32 V0 1.992899 1_555
O33 P10 1.550093 1_555
O33 V0 1.865790 1_555
O34 P10 1.501760 1_455
O35 P9 1.506705 1_555
O36 P10 1.618815 1_455
O36 P9 1.620243 1_555
O37 P13 1.553926 1_555
O37 V1 1.987429 1_555
O38 P12 1.613149 1_555
O38 V2 1.834095 1_555
O39 P8 1.594408 1_555
O39 V3 1.816010 1_555
O40 P12 1.571782 1_555
O40 V1 1.960004 1_555
O41 P12 1.488034 1_555
O42 P11 1.496696 1_555
O43 P11 1.567143 1_555
O43 V4 2.006676 1_555
O44 P14 1.536278 1_555
O44 V2 1.920925 1_555
O45 P11 1.620956 1_555
O45 V3 1.915520 1_555
O46 P10 1.530242 1_555
O46 V4 1.914447 1_555
O47 P13 1.602782 1_555
O47 P0 1.635765 1_555
O48 P0 1.475621 1_555
O49 P13 1.536508 1_555
O49 V5 1.897272 1_555
O50 P12 1.568117 1_555
O50 V5 1.977371 1_555
O51 P15 1.526651 1_555
O51 V4 1.911064 1_555
O52 P15 1.560423 1_555
O52 V3 1.978671 1_555
O53 P7 1.501662 1_545
O54 P7 1.612578 1_545
O54 P14 1.625640 1_555
O55 P14 1.544991 1_555
O55 V5 2.001415 1_555
O56 P2 1.506414 1_555
O57 P15 1.618487 1_555
O57 P2 1.621487 1_555
