# generated using pymatgen
data_Li3VS4
_symmetry_space_group_name_H-M   'P 1'
_cell_length_a   12.67818200
_cell_length_b   12.67818200
_cell_length_c   7.41486500
_cell_angle_alpha   90.00000000
_cell_angle_beta   90.00000000
_cell_angle_gamma   90.00000000
_symmetry_Int_Tables_number   1
_chemical_formula_structural   Li3VS4
_chemical_formula_sum   'Li24 V8 S32'
_cell_volume   1191.83795639
_cell_formula_units_Z   8
loop_
 _symmetry_equiv_pos_site_id
 _symmetry_equiv_pos_as_xyz
  1  'x, y, z'
loop_
 _atom_site_type_symbol
 _atom_site_label
 _atom_site_symmetry_multiplicity
 _atom_site_fract_x
 _atom_site_fract_y
 _atom_site_fract_z
 _atom_site_occupancy
  Li  Li0  1  0.00000000  0.00000000  0.20879100  1
  Li  Li1  1  0.00000000  0.00000000  0.79120900  1
  Li  Li2  1  0.50000000  0.00000000  0.08324600  1
  Li  Li3  1  0.50000000  0.00000000  0.58324600  1
  Li  Li4  1  0.25422000  0.04801300  0.36082200  1
  Li  Li5  1  0.74692800  0.19994500  0.06933200  1
  Li  Li6  1  0.45198700  0.24578000  0.86082200  1
  Li  Li7  1  0.19994500  0.25307200  0.93066800  1
  Li  Li8  1  0.69994500  0.24692800  0.56933200  1
  Li  Li9  1  0.95198700  0.25422000  0.63917800  1
  Li  Li10  1  0.24692800  0.30005500  0.43066800  1
  Li  Li11  1  0.75422000  0.45198700  0.13917800  1
  Li  Li12  1  0.50000000  0.50000000  0.29120900  1
  Li  Li13  1  0.50000000  0.50000000  0.70879100  1
  Li  Li14  1  0.00000000  0.50000000  0.41675400  1
  Li  Li15  1  0.00000000  0.50000000  0.91675400  1
  Li  Li16  1  0.24578000  0.54801300  0.13917800  1
  Li  Li17  1  0.75307200  0.69994500  0.43066800  1
  Li  Li18  1  0.04801300  0.74578000  0.63917800  1
  Li  Li19  1  0.30005500  0.75307200  0.56933200  1
  Li  Li20  1  0.80005500  0.74692800  0.93066800  1
  Li  Li21  1  0.54801300  0.75422000  0.86082200  1
  Li  Li22  1  0.25307200  0.80005500  0.06933200  1
  Li  Li23  1  0.74578000  0.95198700  0.36082200  1
  V  V0  1  0.73694000  0.01149300  0.78244600  1
  V  V1  1  0.51149300  0.23694000  0.28244600  1
  V  V2  1  0.01149300  0.26306000  0.21755400  1
  V  V3  1  0.23694000  0.48850700  0.71755400  1
  V  V4  1  0.76306000  0.51149300  0.71755400  1
  V  V5  1  0.98850700  0.73694000  0.21755400  1
  V  V6  1  0.48850700  0.76306000  0.28244600  1
  V  V7  1  0.26306000  0.98850700  0.78244600  1
  S  S0  1  0.18308300  0.99981800  0.03584900  1
  S  S1  1  0.84609200  0.08201900  0.59611900  1
  S  S2  1  0.60059000  0.11145500  0.82284200  1
  S  S3  1  0.61145500  0.10059000  0.32284200  1
  S  S4  1  0.30967600  0.14061400  0.67517900  1
  S  S5  1  0.08201900  0.15390800  0.40388100  1
  S  S6  1  0.00018200  0.18308300  0.96415100  1
  S  S7  1  0.35938600  0.19032400  0.17517900  1
  S  S8  1  0.85938600  0.30967600  0.32482100  1
  S  S9  1  0.50018200  0.31691700  0.53584900  1
  S  S10  1  0.58201900  0.34609200  0.09611900  1
  S  S11  1  0.80967600  0.35938600  0.82482100  1
  S  S12  1  0.11145500  0.39941000  0.17715800  1
  S  S13  1  0.10059000  0.38854500  0.67715800  1
  S  S14  1  0.34609200  0.41798100  0.90388100  1
  S  S15  1  0.68308300  0.50018200  0.46415100  1
  S  S16  1  0.31691700  0.49981800  0.46415100  1
  S  S17  1  0.65390800  0.58201900  0.90388100  1
  S  S18  1  0.89941000  0.61145500  0.67715800  1
  S  S19  1  0.88854500  0.60059000  0.17715800  1
  S  S20  1  0.19032400  0.64061400  0.82482100  1
  S  S21  1  0.41798100  0.65390800  0.09611900  1
  S  S22  1  0.49981800  0.68308300  0.53584900  1
  S  S23  1  0.14061400  0.69032400  0.32482100  1
  S  S24  1  0.64061400  0.80967600  0.17517900  1
  S  S25  1  0.99981800  0.81691700  0.96415100  1
  S  S26  1  0.91798100  0.84609200  0.40388100  1
  S  S27  1  0.69032400  0.85938600  0.67517900  1
  S  S28  1  0.38854500  0.89941000  0.32284200  1
  S  S29  1  0.39941000  0.88854500  0.82284200  1
  S  S30  1  0.15390800  0.91798100  0.59611900  1
  S  S31  1  0.81691700  0.00018200  0.03584900  1
loop_
_geom_bond_atom_site_label_1
_geom_bond_atom_site_label_2
_geom_bond_distance
_geom_bond_site_symmetry_2
Li0 S5 2.642218 1_555
Li0 S26 2.642218 1_445
Li0 S0 2.651827 1_545
Li0 S31 2.651827 1_455
Li0 S25 2.945893 1_444
Li0 S6 2.945893 1_554
Li1 S1 2.642218 1_455
Li1 S30 2.642218 1_545
Li1 S6 2.651827 1_555
Li1 S25 2.651827 1_445
Li1 S0 2.945893 1_546
Li1 S31 2.945893 1_456
Li2 S28 2.603708 1_545
Li2 S3 2.603708 1_555
Li2 S2 2.711330 1_554
Li2 S29 2.711330 1_544
Li3 S2 2.603708 1_555
Li3 S29 2.603708 1_545
Li3 S3 2.711330 1_555
Li3 S28 2.711330 1_545
Li4 S28 2.555195 1_545
Li4 S5 2.582777 1_555
Li4 S7 2.632076 1_555
Li4 S0 2.644442 1_545
Li4 S4 2.702923 1_555
Li4 S30 2.716459 1_545
Li5 S31 2.695037 1_555
Li5 S8 2.749004 1_555
Li5 S10 2.800684 1_555
Li5 S11 2.829495 1_554
Li5 S2 2.835706 1_554
Li5 S3 2.840794 1_555
Li6 S2 2.555195 1_555
Li6 S14 2.582777 1_555
Li6 S4 2.632076 1_555
Li6 S9 2.644442 1_555
Li6 S7 2.702923 1_556
Li6 S10 2.716459 1_556
Li7 S6 2.695037 1_555
Li7 S4 2.749004 1_555
Li7 S14 2.800684 1_555
Li7 S7 2.829495 1_556
Li7 S12 2.835706 1_556
Li7 S13 2.840794 1_555
Li8 S9 2.695037 1_555
Li8 S11 2.749004 1_555
Li8 S1 2.800684 1_555
Li8 S8 2.829495 1_555
Li8 S3 2.835706 1_555
Li8 S2 2.840794 1_555
Li9 S13 2.555195 1_655
Li9 S1 2.582777 1_555
Li9 S11 2.632076 1_555
Li9 S6 2.644442 1_655
Li9 S8 2.702923 1_555
Li9 S5 2.716459 1_655
Li10 S16 2.695037 1_555
Li10 S7 2.749004 1_555
Li10 S5 2.800684 1_555
Li10 S4 2.829495 1_555
Li10 S13 2.835706 1_555
Li10 S12 2.840794 1_555
Li11 S19 2.555195 1_555
Li11 S10 2.582777 1_555
Li11 S8 2.632076 1_555
Li11 S15 2.644442 1_555
Li11 S11 2.702923 1_554
Li11 S17 2.716459 1_554
Li12 S21 2.642218 1_555
Li12 S10 2.642218 1_555
Li12 S16 2.651827 1_555
Li12 S15 2.651827 1_555
Li12 S22 2.945893 1_555
Li12 S9 2.945893 1_555
Li13 S17 2.642218 1_555
Li13 S14 2.642218 1_555
Li13 S22 2.651827 1_555
Li13 S9 2.651827 1_555
Li13 S16 2.945893 1_555
Li13 S15 2.945893 1_555
Li14 S12 2.603708 1_555
Li14 S19 2.603708 1_455
Li14 S18 2.711330 1_455
Li14 S13 2.711330 1_555
Li15 S18 2.603708 1_455
Li15 S13 2.603708 1_555
Li15 S12 2.711330 1_556
Li15 S19 2.711330 1_456
Li16 S12 2.555195 1_555
Li16 S21 2.582777 1_555
Li16 S23 2.632076 1_555
Li16 S16 2.644442 1_555
Li16 S20 2.702923 1_554
Li16 S14 2.716459 1_554
Li17 S15 2.695037 1_555
Li17 S24 2.749004 1_555
Li17 S26 2.800684 1_555
Li17 S27 2.829495 1_555
Li17 S18 2.835706 1_555
Li17 S19 2.840794 1_555
Li18 S18 2.555195 1_455
Li18 S30 2.582777 1_555
Li18 S20 2.632076 1_555
Li18 S25 2.644442 1_455
Li18 S23 2.702923 1_555
Li18 S26 2.716459 1_455
Li19 S22 2.695037 1_555
Li19 S20 2.749004 1_555
Li19 S30 2.800684 1_555
Li19 S23 2.829495 1_555
Li19 S28 2.835706 1_555
Li19 S29 2.840794 1_555
Li20 S25 2.695037 1_555
Li20 S27 2.749004 1_555
Li20 S17 2.800684 1_555
Li20 S24 2.829495 1_556
Li20 S19 2.835706 1_556
Li20 S18 2.840794 1_555
Li21 S29 2.555195 1_555
Li21 S17 2.582777 1_555
Li21 S27 2.632076 1_555
Li21 S22 2.644442 1_555
Li21 S24 2.702923 1_556
Li21 S21 2.716459 1_556
Li22 S0 2.695037 1_555
Li22 S23 2.749004 1_555
Li22 S21 2.800684 1_555
Li22 S20 2.829495 1_554
Li22 S29 2.835706 1_554
Li22 S28 2.840794 1_555
Li23 S3 2.555195 1_565
Li23 S26 2.582777 1_555
Li23 S24 2.632076 1_555
Li23 S31 2.644442 1_565
Li23 S27 2.702923 1_555
Li23 S1 2.716459 1_565
S0 V7 2.139891 1_554
S1 V0 2.150190 1_555
S2 V0 2.164292 1_555
S3 V1 2.164292 1_555
S4 V7 2.168129 1_545
S5 V2 2.150190 1_555
S6 V2 2.139891 1_556
S7 V1 2.168129 1_555
S8 V2 2.168129 1_655
S9 V1 2.139891 1_555
S10 V1 2.150190 1_555
S11 V4 2.168129 1_555
S12 V2 2.164292 1_555
S13 V3 2.164292 1_555
S14 V3 2.150190 1_555
S15 V4 2.139891 1_555
S16 V3 2.139891 1_555
S17 V4 2.150190 1_555
S18 V4 2.164292 1_555
S19 V5 2.164292 1_555
S20 V3 2.168129 1_555
S21 V6 2.150190 1_555
S22 V6 2.139891 1_555
S23 V5 2.168129 1_455
S24 V6 2.168129 1_555
S25 V5 2.139891 1_556
S26 V5 2.150190 1_555
S27 V0 2.168129 1_565
S28 V6 2.164292 1_555
S29 V7 2.164292 1_555
S30 V7 2.150190 1_555
S31 V0 2.139891 1_554
