# generated using pymatgen
data_Lu3AlO6
_symmetry_space_group_name_H-M   'P 1'
_cell_length_a   6.94820727
_cell_length_b   6.94820727
_cell_length_c   5.27533100
_cell_angle_alpha   90.00000000
_cell_angle_beta   90.00000000
_cell_angle_gamma   102.89412447
_symmetry_Int_Tables_number   1
_chemical_formula_structural   Lu3AlO6
_chemical_formula_sum   'Lu6 Al2 O12'
_cell_volume   248.25824130
_cell_formula_units_Z   2
loop_
 _symmetry_equiv_pos_site_id
 _symmetry_equiv_pos_as_xyz
  1  'x, y, z'
loop_
 _atom_site_type_symbol
 _atom_site_label
 _atom_site_symmetry_multiplicity
 _atom_site_fract_x
 _atom_site_fract_y
 _atom_site_fract_z
 _atom_site_occupancy
  Lu  Lu0  1  0.08730100  0.29886300  0.47581800  1
  Lu  Lu1  1  0.29886300  0.08730100  0.97581800  1
  Lu  Lu2  1  0.60148500  0.39851500  0.42763300  1
  Lu  Lu3  1  0.39851500  0.60148500  0.92763300  1
  Lu  Lu4  1  0.91269900  0.70113700  0.97581800  1
  Lu  Lu5  1  0.70113700  0.91269900  0.47581800  1
  Al  Al0  1  0.80510400  0.19489600  0.01237100  1
  Al  Al1  1  0.19489600  0.80510400  0.51237100  1
  O  O0  1  0.32170900  0.35652600  0.20174700  1
  O  O1  1  0.35652600  0.32170900  0.70174700  1
  O  O2  1  0.57979200  0.10855800  0.18212900  1
  O  O3  1  0.10855800  0.57979200  0.68212900  1
  O  O4  1  0.95624200  0.04375800  0.14814700  1
  O  O5  1  0.78647600  0.21352400  0.67782000  1
  O  O6  1  0.21352400  0.78647600  0.17782000  1
  O  O7  1  0.04375800  0.95624200  0.64814700  1
  O  O8  1  0.89144200  0.42020800  0.18212900  1
  O  O9  1  0.42020800  0.89144200  0.68212900  1
  O  O10  1  0.64347400  0.67829100  0.20174700  1
  O  O11  1  0.67829100  0.64347400  0.70174700  1
loop_
_geom_bond_atom_site_label_1
_geom_bond_atom_site_label_2
_geom_bond_distance
_geom_bond_site_symmetry_2
Lu0 O0 2.147646 1_555
Lu0 O1 2.193728 1_555
Lu0 O3 2.210835 1_555
Lu0 O5 2.302809 1_455
Lu0 O8 2.339928 1_455
Lu0 O4 2.497732 1_455
Lu0 O7 2.502759 1_545
Lu1 O1 2.147646 1_555
Lu1 O0 2.193728 1_556
Lu1 O2 2.210835 1_556
Lu1 O6 2.302809 1_546
Lu1 O9 2.339928 1_545
Lu1 O7 2.497732 1_545
Lu1 O4 2.502759 1_456
Lu2 O11 2.206207 1_555
Lu2 O1 2.206207 1_555
Lu2 O10 2.242962 1_555
Lu2 O0 2.242962 1_555
Lu2 O8 2.371383 1_555
Lu2 O2 2.371383 1_555
Lu2 O5 2.404902 1_555
Lu3 O10 2.206207 1_556
Lu3 O0 2.206207 1_556
Lu3 O11 2.242962 1_555
Lu3 O1 2.242962 1_555
Lu3 O9 2.371383 1_555
Lu3 O3 2.371383 1_555
Lu3 O6 2.404902 1_556
Lu4 O11 2.147646 1_555
Lu4 O10 2.193728 1_556
Lu4 O8 2.210835 1_556
Lu4 O6 2.302809 1_656
Lu4 O3 2.339928 1_655
Lu4 O7 2.497732 1_655
Lu4 O4 2.502759 1_566
Lu5 O10 2.147646 1_555
Lu5 O11 2.193728 1_555
Lu5 O9 2.210835 1_555
Lu5 O5 2.302809 1_565
Lu5 O2 2.339928 1_565
Lu5 O4 2.497732 1_565
Lu5 O7 2.502759 1_655
Al0 O5 1.776440 1_554
Al0 O8 1.787048 1_555
Al0 O2 1.787048 1_555
Al0 O4 1.791867 1_555
Al1 O6 1.776440 1_555
Al1 O9 1.787048 1_555
Al1 O3 1.787048 1_555
Al1 O7 1.791867 1_555
