# generated using pymatgen
data_Li2AgF5
_symmetry_space_group_name_H-M   'P 1'
_cell_length_a   3.65804000
_cell_length_b   5.01333221
_cell_length_c   5.96144184
_cell_angle_alpha   87.28670083
_cell_angle_beta   84.36885275
_cell_angle_gamma   79.39754937
_symmetry_Int_Tables_number   1
_chemical_formula_structural   Li2AgF5
_chemical_formula_sum   'Li2 Ag1 F5'
_cell_volume   106.89370502
_cell_formula_units_Z   1
loop_
 _symmetry_equiv_pos_site_id
 _symmetry_equiv_pos_as_xyz
  1  'x, y, z'
loop_
 _atom_site_type_symbol
 _atom_site_label
 _atom_site_symmetry_multiplicity
 _atom_site_fract_x
 _atom_site_fract_y
 _atom_site_fract_z
 _atom_site_occupancy
  Li  Li0  1  0.36495000  0.21156400  0.43347300  1
  Li  Li1  1  0.83016700  0.63308700  0.58896900  1
  Ag  Ag0  1  0.92525700  0.03673500  0.00640400  1
  F  F0  1  0.00297900  0.16640300  0.69055000  1
  F  F1  1  0.20493400  0.29356200  0.12063100  1
  F  F2  1  0.36462900  0.55634800  0.52480600  1
  F  F3  1  0.64846600  0.77533400  0.89449600  1
  F  F4  1  0.78861800  0.94166600  0.32601900  1
loop_
_geom_bond_atom_site_label_1
_geom_bond_atom_site_label_2
_geom_bond_distance
_geom_bond_site_symmetry_2
Ag0 F1 1.967904 1_655
Ag0 F3 1.972624 1_544
Ag0 F0 1.973821 1_654
Ag0 F4 1.980454 1_545
F0 Li0 1.957665 1_555
F0 Li1 2.374234 1_455
F1 Li0 2.010698 1_555
F2 Li0 1.836425 1_555
F2 Li1 1.891358 1_555
F2 Li1 1.925372 1_455
F3 Li1 1.994678 1_555
F4 Li0 1.938715 1_565
F4 Li1 2.145746 1_555
