# generated using pymatgen
data_K4LiH3(SO4)4
_symmetry_space_group_name_H-M   'P 1'
_cell_length_a   7.50842200
_cell_length_b   7.50842200
_cell_length_c   29.06765500
_cell_angle_alpha   90.00000000
_cell_angle_beta   90.00000000
_cell_angle_gamma   90.00000000
_symmetry_Int_Tables_number   1
_chemical_formula_structural   K4LiH3(SO4)4
_chemical_formula_sum   'K16 Li4 H12 S16 O64'
_cell_volume   1638.72977238
_cell_formula_units_Z   4
loop_
 _symmetry_equiv_pos_site_id
 _symmetry_equiv_pos_as_xyz
  1  'x, y, z'
loop_
 _atom_site_type_symbol
 _atom_site_label
 _atom_site_symmetry_multiplicity
 _atom_site_fract_x
 _atom_site_fract_y
 _atom_site_fract_z
 _atom_site_occupancy
  K  K0  1  0.01413500  0.49038700  0.77395200  1
  K  K1  1  0.98586500  0.50961300  0.27395200  1
  K  K2  1  0.49038700  0.98586500  0.52395200  1
  K  K3  1  0.50961300  0.01413500  0.02395200  1
  K  K4  1  0.40014900  0.37428000  0.64781600  1
  K  K5  1  0.59985100  0.62572000  0.14781600  1
  K  K6  1  0.37428000  0.59985100  0.39781600  1
  K  K7  1  0.62572000  0.40014900  0.89781600  1
  K  K8  1  0.92020300  0.90313600  0.88407600  1
  K  K9  1  0.07979700  0.09686400  0.38407600  1
  K  K10  1  0.90313600  0.07979700  0.63407600  1
  K  K11  1  0.09686400  0.92020300  0.13407600  1
  K  K12  1  0.50661300  0.78712500  0.78356900  1
  K  K13  1  0.49338700  0.21287500  0.28356900  1
  K  K14  1  0.78712500  0.49338700  0.53356900  1
  K  K15  1  0.21287500  0.50661300  0.03356900  1
  Li  Li0  1  0.26432000  0.14847700  0.83457300  1
  Li  Li1  1  0.73568000  0.85152300  0.33457300  1
  Li  Li2  1  0.14847700  0.73568000  0.58457300  1
  Li  Li3  1  0.85152300  0.26432000  0.08457300  1
  H  H0  1  0.70463900  0.69417600  0.69115300  1
  H  H1  1  0.29536100  0.30582400  0.19115300  1
  H  H2  1  0.69417600  0.29536100  0.44115300  1
  H  H3  1  0.30582400  0.70463900  0.94115300  1
  H  H4  1  0.21541000  0.94213900  0.70643700  1
  H  H5  1  0.78459000  0.05786100  0.20643700  1
  H  H6  1  0.94213900  0.78459000  0.45643700  1
  H  H7  1  0.05786100  0.21541000  0.95643700  1
  H  H8  1  0.72228200  0.18483700  0.72994800  1
  H  H9  1  0.27771800  0.81516300  0.22994800  1
  H  H10  1  0.18483700  0.27771800  0.47994800  1
  H  H11  1  0.81516300  0.72228200  0.97994800  1
  S  S0  1  0.89501300  0.54383500  0.64987900  1
  S  S1  1  0.10498700  0.45616500  0.14987900  1
  S  S2  1  0.54383500  0.10498700  0.39987900  1
  S  S3  1  0.45616500  0.89501300  0.89987900  1
  S  S4  1  0.42866100  0.89009800  0.65118800  1
  S  S5  1  0.57133900  0.10990200  0.15118800  1
  S  S6  1  0.89009800  0.57133900  0.40118800  1
  S  S7  1  0.10990200  0.42866100  0.90118800  1
  S  S8  1  0.99051000  0.98068800  0.76691200  1
  S  S9  1  0.00949000  0.01931200  0.26691200  1
  S  S10  1  0.98068800  0.00949000  0.51691200  1
  S  S11  1  0.01931200  0.99051000  0.01691200  1
  S  S12  1  0.52397000  0.32525700  0.77192500  1
  S  S13  1  0.47603000  0.67474300  0.27192500  1
  S  S14  1  0.32525700  0.47603000  0.52192500  1
  S  S15  1  0.67474300  0.52397000  0.02192500  1
  O  O0  1  0.81704900  0.62031500  0.69664000  1
  O  O1  1  0.18295100  0.37968500  0.19664000  1
  O  O2  1  0.62031500  0.18295100  0.44664000  1
  O  O3  1  0.37968500  0.81704900  0.94664000  1
  O  O4  1  0.75735900  0.43119900  0.62873300  1
  O  O5  1  0.24264100  0.56880100  0.12873300  1
  O  O6  1  0.43119900  0.24264100  0.37873300  1
  O  O7  1  0.56880100  0.75735900  0.87873300  1
  O  O8  1  0.05133700  0.44321500  0.66422600  1
  O  O9  1  0.94866300  0.55678500  0.16422600  1
  O  O10  1  0.44321500  0.94866300  0.41422600  1
  O  O11  1  0.55678500  0.05133700  0.91422600  1
  O  O12  1  0.93549600  0.69972400  0.62076600  1
  O  O13  1  0.06450400  0.30027600  0.12076600  1
  O  O14  1  0.69972400  0.06450400  0.37076600  1
  O  O15  1  0.30027600  0.93549600  0.87076600  1
  O  O16  1  0.26478300  0.98943500  0.67189900  1
  O  O17  1  0.73521700  0.01056500  0.17189900  1
  O  O18  1  0.98943500  0.73521700  0.42189900  1
  O  O19  1  0.01056500  0.26478300  0.92189900  1
  O  O20  1  0.36395900  0.74834400  0.62020400  1
  O  O21  1  0.63604100  0.25165600  0.12020400  1
  O  O22  1  0.74834400  0.63604100  0.37020400  1
  O  O23  1  0.25165600  0.36395900  0.87020400  1
  O  O24  1  0.52816600  0.81236500  0.69034800  1
  O  O25  1  0.47183400  0.18763500  0.19034800  1
  O  O26  1  0.81236500  0.47183400  0.44034800  1
  O  O27  1  0.18763500  0.52816600  0.94034800  1
  O  O28  1  0.53016700  0.02521700  0.62575800  1
  O  O29  1  0.46983300  0.97478300  0.12575800  1
  O  O30  1  0.02521700  0.46983300  0.37575800  1
  O  O31  1  0.97478300  0.53016700  0.87575800  1
  O  O32  1  0.04562300  0.11474700  0.80182100  1
  O  O33  1  0.95437700  0.88525300  0.30182100  1
  O  O34  1  0.11474700  0.95437700  0.55182100  1
  O  O35  1  0.88525300  0.04562300  0.05182100  1
  O  O36  1  0.87905400  0.84317200  0.78878800  1
  O  O37  1  0.12094600  0.15682800  0.28878800  1
  O  O38  1  0.84317200  0.12094600  0.53878800  1
  O  O39  1  0.15682800  0.87905400  0.03878800  1
  O  O40  1  0.89721400  0.07241400  0.72823600  1
  O  O41  1  0.10278600  0.92758600  0.22823600  1
  O  O42  1  0.07241400  0.10278600  0.47823600  1
  O  O43  1  0.92758600  0.89721400  0.97823600  1
  O  O44  1  0.15496100  0.88980800  0.74713500  1
  O  O45  1  0.84503900  0.11019200  0.24713500  1
  O  O46  1  0.88980800  0.84503900  0.49713500  1
  O  O47  1  0.11019200  0.15496100  0.99713500  1
  O  O48  1  0.65754500  0.43420500  0.79589900  1
  O  O49  1  0.34245500  0.56579500  0.29589900  1
  O  O50  1  0.43420500  0.34245500  0.54589900  1
  O  O51  1  0.56579500  0.65754500  0.04589900  1
  O  O52  1  0.60856300  0.25886300  0.72491900  1
  O  O53  1  0.39143700  0.74113700  0.22491900  1
  O  O54  1  0.25886300  0.39143700  0.47491900  1
  O  O55  1  0.74113700  0.60856300  0.97491900  1
  O  O56  1  0.47851000  0.16386700  0.79831000  1
  O  O57  1  0.52149000  0.83613300  0.29831000  1
  O  O58  1  0.16386700  0.52149000  0.54831000  1
  O  O59  1  0.83613300  0.47851000  0.04831000  1
  O  O60  1  0.36885200  0.42837200  0.75719200  1
  O  O61  1  0.63114800  0.57162800  0.25719200  1
  O  O62  1  0.42837200  0.63114800  0.50719200  1
  O  O63  1  0.57162800  0.36885200  0.00719200  1
loop_
_geom_bond_atom_site_label_1
_geom_bond_atom_site_label_2
_geom_bond_distance
_geom_bond_site_symmetry_2
K0 O60 2.747302 1_555
K0 O48 2.784519 1_455
K0 O0 2.862130 1_455
K0 O36 2.868993 1_455
K0 O32 2.944003 1_555
K0 O31 2.988937 1_455
K0 O8 3.221217 1_555
K0 O44 3.274113 1_555
K1 O61 2.747302 1_555
K1 O49 2.784519 1_655
K1 O1 2.862130 1_655
K1 O37 2.868993 1_655
K1 O33 2.944003 1_555
K1 O30 2.988937 1_655
K1 O9 3.221217 1_555
K1 O45 3.274113 1_555
K2 O62 2.747302 1_555
K2 O50 2.784519 1_565
K2 O2 2.862130 1_565
K2 O38 2.868993 1_565
K2 O34 2.944003 1_555
K2 O28 2.988937 1_565
K2 O10 3.221217 1_555
K2 O46 3.274113 1_555
K3 O63 2.747302 1_555
K3 O51 2.784519 1_545
K3 O3 2.862130 1_544
K3 O39 2.868993 1_545
K3 O35 2.944003 1_555
K3 O29 2.988937 1_545
K3 O11 3.221217 1_554
K3 O47 3.274113 1_554
K4 O8 2.711962 1_555
K4 O4 2.771986 1_555
K4 O52 2.867538 1_555
K4 O28 2.869375 1_555
K4 O20 2.933672 1_555
K4 O50 2.983089 1_555
K4 O16 3.142094 1_545
K4 O60 3.213744 1_555
K5 O9 2.711962 1_555
K5 O5 2.771986 1_555
K5 O53 2.867538 1_555
K5 O29 2.869375 1_555
K5 O21 2.933672 1_555
K5 O51 2.983089 1_555
K5 O17 3.142094 1_565
K5 O61 3.213744 1_555
K6 O10 2.711962 1_555
K6 O6 2.771986 1_555
K6 O54 2.867538 1_555
K6 O30 2.869375 1_555
K6 O22 2.933672 1_555
K6 O49 2.983089 1_555
K6 O18 3.142094 1_455
K6 O62 3.213744 1_555
K7 O11 2.711962 1_555
K7 O7 2.771986 1_555
K7 O55 2.867538 1_555
K7 O31 2.869375 1_555
K7 O23 2.933672 1_555
K7 O48 2.983089 1_555
K7 O19 3.142094 1_655
K7 O63 3.213744 1_556
K8 O43 2.737933 1_555
K8 O36 2.823111 1_555
K8 O31 2.840544 1_555
K8 O7 2.860720 1_555
K8 O15 2.890087 1_655
K8 O19 3.007067 1_665
K8 O32 3.021257 1_665
K8 O11 3.074421 1_565
K9 O42 2.737933 1_555
K9 O37 2.823111 1_555
K9 O30 2.840544 1_555
K9 O6 2.860720 1_555
K9 O14 2.890087 1_455
K9 O18 3.007067 1_445
K9 O33 3.021257 1_445
K9 O10 3.074421 1_545
K10 O40 2.737933 1_555
K10 O38 2.823111 1_555
K10 O28 2.840544 1_555
K10 O4 2.860720 1_555
K10 O12 2.890087 1_545
K10 O16 3.007067 1_645
K10 O34 3.021257 1_645
K10 O8 3.074421 1_655
K11 O41 2.737933 1_555
K11 O39 2.823111 1_555
K11 O29 2.840544 1_555
K11 O5 2.860720 1_555
K11 O13 2.890087 1_565
K11 O17 3.007067 1_465
K11 O35 3.021257 1_465
K11 O9 3.074421 1_455
K12 O24 2.721151 1_555
K12 O7 2.814215 1_555
K12 O36 2.831997 1_555
K12 O56 2.868777 1_565
K12 O48 2.904231 1_555
K12 O44 2.947451 1_555
K12 O60 2.985569 1_555
K12 O15 3.172625 1_555
K13 O25 2.721151 1_555
K13 O6 2.814215 1_555
K13 O37 2.831997 1_555
K13 O57 2.868777 1_545
K13 O49 2.904231 1_555
K13 O45 2.947451 1_555
K13 O61 2.985569 1_555
K13 O14 3.172625 1_555
K14 O26 2.721151 1_555
K14 O4 2.814215 1_555
K14 O38 2.831997 1_555
K14 O58 2.868777 1_655
K14 O50 2.904231 1_555
K14 O46 2.947451 1_555
K14 O62 2.985569 1_555
K14 O12 3.172625 1_555
K15 O27 2.721151 1_554
K15 O5 2.814215 1_555
K15 O39 2.831997 1_555
K15 O59 2.868777 1_455
K15 O51 2.904231 1_555
K15 O47 2.947451 1_554
K15 O63 2.985569 1_555
K15 O13 3.172625 1_555
Li0 O32 1.914910 1_555
Li0 O23 1.923391 1_555
Li0 O56 1.926354 1_555
Li0 O15 1.933124 1_545
Li1 O33 1.914910 1_555
Li1 O22 1.923391 1_555
Li1 O57 1.926354 1_555
Li1 O14 1.933124 1_565
Li2 O34 1.914910 1_555
Li2 O20 1.923391 1_555
Li2 O58 1.926354 1_555
Li2 O12 1.933124 1_455
Li3 O35 1.914910 1_555
Li3 O21 1.923391 1_555
Li3 O59 1.926354 1_555
Li3 O13 1.933124 1_655
H0 O0 1.022433 1_555
H0 O24 1.594918 1_555
H1 O1 1.022433 1_555
H1 O25 1.594918 1_555
H2 O2 1.022433 1_555
H2 O26 1.594918 1_555
H3 O3 1.022433 1_555
H3 O27 1.594918 1_555
H4 O16 1.127577 1_555
H4 O44 1.326601 1_555
H5 O17 1.127577 1_555
H5 O45 1.326601 1_555
H6 O18 1.127577 1_555
H6 O46 1.326601 1_555
H7 O19 1.127577 1_555
H7 O47 1.326601 1_555
H8 O52 1.029254 1_555
H8 O40 1.562114 1_555
H9 O53 1.029254 1_555
H9 O41 1.562114 1_555
H10 O54 1.029254 1_555
H10 O42 1.562114 1_555
H11 O55 1.029254 1_555
H11 O43 1.562114 1_555
O0 S0 1.587434 1_555
O1 S1 1.587434 1_555
O2 S2 1.587434 1_555
O3 S3 1.587434 1_555
O4 S0 1.470139 1_555
O5 S1 1.470139 1_555
O6 S2 1.470139 1_555
O7 S3 1.470139 1_555
O8 S0 1.456837 1_455
O9 S1 1.456837 1_655
O10 S2 1.456837 1_565
O11 S3 1.456837 1_545
O12 S0 1.475992 1_555
O13 S1 1.475992 1_555
O14 S2 1.475992 1_555
O15 S3 1.475992 1_555
O16 S4 1.559739 1_555
O17 S5 1.559739 1_555
O18 S6 1.559739 1_555
O19 S7 1.559739 1_555
O20 S4 1.476478 1_555
O21 S5 1.476478 1_555
O22 S6 1.476478 1_555
O23 S7 1.476478 1_555
O24 S4 1.481401 1_555
O25 S5 1.481401 1_555
O26 S6 1.481401 1_555
O27 S7 1.481401 1_555
O28 S4 1.468519 1_545
O29 S5 1.468519 1_565
O30 S6 1.468519 1_455
O31 S7 1.468519 1_655
O32 S8 1.487981 1_445
O33 S9 1.487981 1_665
O34 S10 1.487981 1_465
O35 S11 1.487981 1_645
O36 S8 1.473362 1_555
O37 S9 1.473362 1_555
O38 S10 1.473362 1_555
O39 S11 1.473362 1_555
O40 S8 1.492954 1_545
O41 S9 1.492954 1_565
O42 S10 1.492954 1_455
O43 S11 1.492954 1_656
O44 S8 1.523401 1_455
O45 S9 1.523401 1_655
O46 S10 1.523401 1_565
O47 S11 1.523401 1_546
O48 S12 1.469924 1_555
O49 S13 1.469924 1_555
O50 S14 1.469924 1_555
O51 S15 1.469924 1_555
O52 S12 1.587094 1_555
O53 S13 1.587094 1_555
O54 S14 1.587094 1_555
O55 S15 1.587094 1_556
O56 S12 1.474158 1_555
O57 S13 1.474158 1_555
O58 S14 1.474158 1_555
O59 S15 1.474158 1_555
O60 S12 1.462649 1_555
O61 S13 1.462649 1_555
O62 S14 1.462649 1_555
O63 S15 1.462649 1_555
