# generated using pymatgen
data_La2HfO5
_symmetry_space_group_name_H-M   'P 1'
_cell_length_a   3.90899800
_cell_length_b   7.82530300
_cell_length_c   16.48753200
_cell_angle_alpha   90.00000000
_cell_angle_beta   90.00000000
_cell_angle_gamma   90.00000000
_symmetry_Int_Tables_number   1
_chemical_formula_structural   La2HfO5
_chemical_formula_sum   'La8 Hf4 O20'
_cell_volume   504.33866249
_cell_formula_units_Z   4
loop_
 _symmetry_equiv_pos_site_id
 _symmetry_equiv_pos_as_xyz
  1  'x, y, z'
loop_
 _atom_site_type_symbol
 _atom_site_label
 _atom_site_symmetry_multiplicity
 _atom_site_fract_x
 _atom_site_fract_y
 _atom_site_fract_z
 _atom_site_occupancy
  La  La0  1  0.25000000  0.10603700  0.08332500  1
  La  La1  1  0.25000000  0.15334900  0.74212000  1
  La  La2  1  0.75000000  0.34665100  0.24212000  1
  La  La3  1  0.75000000  0.39396300  0.58332500  1
  La  La4  1  0.25000000  0.60603700  0.41667500  1
  La  La5  1  0.25000000  0.65334900  0.75788000  1
  La  La6  1  0.75000000  0.84665100  0.25788000  1
  La  La7  1  0.75000000  0.89396300  0.91667500  1
  Hf  Hf0  1  0.25000000  0.11016400  0.42771500  1
  Hf  Hf1  1  0.75000000  0.38983600  0.92771500  1
  Hf  Hf2  1  0.25000000  0.61016400  0.07228500  1
  Hf  Hf3  1  0.75000000  0.88983600  0.57228500  1
  O  O0  1  0.75000000  0.08475300  0.17244600  1
  O  O1  1  0.75000000  0.07597800  0.45978100  1
  O  O2  1  0.75000000  0.10899200  0.64879400  1
  O  O3  1  0.75000000  0.15872600  0.99576700  1
  O  O4  1  0.25000000  0.25919900  0.32720300  1
  O  O5  1  0.75000000  0.24080100  0.82720300  1
  O  O6  1  0.25000000  0.34127400  0.49576700  1
  O  O7  1  0.25000000  0.39100800  0.14879400  1
  O  O8  1  0.25000000  0.42402200  0.95978100  1
  O  O9  1  0.25000000  0.41524700  0.67244600  1
  O  O10  1  0.75000000  0.58475300  0.32755400  1
  O  O11  1  0.75000000  0.57597800  0.04021900  1
  O  O12  1  0.75000000  0.60899200  0.85120600  1
  O  O13  1  0.75000000  0.65872600  0.50423300  1
  O  O14  1  0.25000000  0.75919900  0.17279700  1
  O  O15  1  0.75000000  0.74080100  0.67279700  1
  O  O16  1  0.25000000  0.84127400  0.00423300  1
  O  O17  1  0.25000000  0.89100800  0.35120600  1
  O  O18  1  0.25000000  0.92402200  0.54021900  1
  O  O19  1  0.25000000  0.91524700  0.82755400  1
loop_
_geom_bond_atom_site_label_1
_geom_bond_atom_site_label_2
_geom_bond_distance
_geom_bond_site_symmetry_2
La0 O16 2.448074 1_545
La0 O0 2.450898 1_455
La0 O0 2.450898 1_555
La0 O3 2.464567 1_554
La0 O3 2.464567 1_454
La0 O7 2.477495 1_555
La1 O19 2.335751 1_545
La1 O9 2.349425 1_555
La1 O5 2.501251 1_455
La1 O5 2.501251 1_555
La1 O2 2.511612 1_455
La1 O2 2.511612 1_555
La2 O10 2.335751 1_555
La2 O0 2.349425 1_555
La2 O4 2.501251 1_555
La2 O4 2.501251 1_655
La2 O7 2.511612 1_655
La2 O7 2.511612 1_555
La3 O13 2.448074 1_555
La3 O9 2.450898 1_555
La3 O9 2.450898 1_655
La3 O6 2.464567 1_555
La3 O6 2.464567 1_655
La3 O2 2.477495 1_555
La4 O6 2.448074 1_555
La4 O10 2.450898 1_455
La4 O10 2.450898 1_555
La4 O13 2.464567 1_555
La4 O13 2.464567 1_455
La4 O17 2.477495 1_555
La5 O9 2.335751 1_555
La5 O19 2.349425 1_555
La5 O15 2.501251 1_455
La5 O15 2.501251 1_555
La5 O12 2.511612 1_555
La5 O12 2.511612 1_455
La6 O0 2.335751 1_565
La6 O10 2.349425 1_555
La6 O14 2.501251 1_655
La6 O14 2.501251 1_555
La6 O17 2.511612 1_655
La6 O17 2.511612 1_555
La7 O3 2.448074 1_565
La7 O19 2.450898 1_555
La7 O19 2.450898 1_655
La7 O16 2.464567 1_556
La7 O16 2.464567 1_656
La7 O12 2.477495 1_555
Hf0 O4 2.026430 1_555
Hf0 O1 2.042338 1_455
Hf0 O1 2.042338 1_555
Hf0 O6 2.128285 1_555
Hf0 O17 2.128929 1_545
Hf0 O18 2.358482 1_545
Hf1 O5 2.026430 1_555
Hf1 O8 2.042338 1_555
Hf1 O8 2.042338 1_655
Hf1 O3 2.128285 1_555
Hf1 O12 2.128929 1_555
Hf1 O11 2.358482 1_556
Hf2 O14 2.026430 1_555
Hf2 O11 2.042338 1_555
Hf2 O11 2.042338 1_455
Hf2 O16 2.128285 1_555
Hf2 O7 2.128929 1_555
Hf2 O8 2.358482 1_554
Hf3 O15 2.026430 1_555
Hf3 O18 2.042338 1_555
Hf3 O18 2.042338 1_655
Hf3 O13 2.128285 1_555
Hf3 O2 2.128929 1_565
Hf3 O1 2.358482 1_565
