# generated using pymatgen
data_Li4Mn3NbO8
_symmetry_space_group_name_H-M   'P 1'
_cell_length_a   6.21851928
_cell_length_b   6.21867498
_cell_length_c   10.47962905
_cell_angle_alpha   107.21580779
_cell_angle_beta   72.77984593
_cell_angle_gamma   119.97277528
_symmetry_Int_Tables_number   1
_chemical_formula_structural   Li4Mn3NbO8
_chemical_formula_sum   'Li8 Mn6 Nb2 O16'
_cell_volume   329.90989660
_cell_formula_units_Z   2
loop_
 _symmetry_equiv_pos_site_id
 _symmetry_equiv_pos_as_xyz
  1  'x, y, z'
loop_
 _atom_site_type_symbol
 _atom_site_label
 _atom_site_symmetry_multiplicity
 _atom_site_fract_x
 _atom_site_fract_y
 _atom_site_fract_z
 _atom_site_occupancy
  Li  Li0  1  0.25151200  0.74318200  0.24755200  1
  Li  Li1  1  0.75156500  0.24315000  0.74748100  1
  Li  Li2  1  0.75579500  0.75000800  0.74886600  1
  Li  Li3  1  0.25580700  0.25003200  0.24893700  1
  Li  Li4  1  0.24871700  0.24470500  0.74953600  1
  Li  Li5  1  0.74869700  0.74471400  0.24962300  1
  Li  Li6  1  0.75209800  0.24949400  0.25135700  1
  Li  Li7  1  0.25212800  0.74946200  0.75125800  1
  Mn  Mn0  1  0.49773800  0.99666600  0.49829600  1
  Mn  Mn1  1  0.99882900  0.49745600  0.49953400  1
  Mn  Mn2  1  0.99922800  0.99680900  0.49754800  1
  Mn  Mn3  1  0.99771200  0.49662900  0.99827100  1
  Mn  Mn4  1  0.49882200  0.99744300  0.99954100  1
  Mn  Mn5  1  0.49925200  0.49678700  0.99753000  1
  Nb  Nb0  1  0.49803600  0.49777700  0.50095400  1
  Nb  Nb1  1  0.99804000  0.99778900  0.00095900  1
  O  O0  1  0.36378100  0.63337900  0.89639100  1
  O  O1  1  0.86343300  0.13342800  0.39633700  1
  O  O2  1  0.13219100  0.86214100  0.60209600  1
  O  O3  1  0.63184700  0.36216600  0.10202600  1
  O  O4  1  0.84715700  0.61043000  0.38005700  1
  O  O5  1  0.34721900  0.11050700  0.88011600  1
  O  O6  1  0.38452100  0.14959700  0.37992500  1
  O  O7  1  0.88437600  0.64953300  0.87998200  1
  O  O8  1  0.88388500  0.11233800  0.87928800  1
  O  O9  1  0.38397200  0.61233900  0.37926400  1
  O  O10  1  0.64844100  0.88326700  0.11936500  1
  O  O11  1  0.14851500  0.38336500  0.61942900  1
  O  O12  1  0.11357600  0.34764700  0.11895700  1
  O  O13  1  0.61343800  0.84759100  0.61902100  1
  O  O14  1  0.61270100  0.38198500  0.61983800  1
  O  O15  1  0.11277800  0.88196400  0.11980900  1
loop_
_geom_bond_atom_site_label_1
_geom_bond_atom_site_label_2
_geom_bond_distance
_geom_bond_site_symmetry_2
Li0 O12 2.283892 1_555
Li0 O10 2.288456 1_555
Li0 O9 2.292034 1_555
Li0 O15 2.322263 1_555
Li0 O4 2.338698 1_455
Li0 O6 2.347629 1_565
Li1 O13 2.283472 1_545
Li1 O11 2.288024 1_655
Li1 O8 2.292085 1_555
Li1 O14 2.322257 1_555
Li1 O5 2.339182 1_555
Li1 O7 2.348003 1_555
Li2 O7 2.139074 1_555
Li2 O8 2.146590 1_565
Li2 O14 2.168799 1_555
Li2 O13 2.177675 1_555
Li2 O2 2.281010 1_655
Li2 O0 2.350421 1_555
Li3 O6 2.138369 1_555
Li3 O9 2.146076 1_555
Li3 O15 2.169411 1_545
Li3 O12 2.178406 1_555
Li3 O3 2.280201 1_555
Li3 O1 2.351386 1_455
Li4 O5 2.151117 1_555
Li4 O14 2.152668 1_555
Li4 O8 2.154910 1_455
Li4 O11 2.174094 1_555
Li4 O2 2.310153 1_545
Li4 O0 2.333365 1_555
Li5 O4 2.150050 1_555
Li5 O15 2.153591 1_655
Li5 O9 2.153960 1_555
Li5 O10 2.175149 1_555
Li5 O3 2.310834 1_555
Li5 O1 2.332914 1_565
Li6 O4 2.135611 1_555
Li6 O12 2.152748 1_655
Li6 O6 2.163154 1_555
Li6 O10 2.170697 1_545
Li6 O1 2.253871 1_555
Li6 O3 2.316161 1_555
Li7 O5 2.136757 1_565
Li7 O13 2.151296 1_555
Li7 O7 2.164582 1_455
Li7 O11 2.169424 1_555
Li7 O0 2.256639 1_555
Li7 O2 2.313349 1_555
Mn0 O1 2.050173 1_565
Mn0 O2 2.055457 1_555
Mn0 O6 2.196220 1_565
Mn0 O9 2.199309 1_555
Mn0 O13 2.208473 1_555
Mn0 O14 2.212685 1_565
Mn1 O1 2.046614 1_555
Mn1 O2 2.047396 1_655
Mn1 O11 2.197391 1_655
Mn1 O4 2.198371 1_555
Mn1 O9 2.207068 1_655
Mn1 O14 2.211633 1_555
Mn2 O1 2.083371 1_565
Mn2 O2 2.087282 1_655
Mn2 O6 2.198358 1_665
Mn2 O4 2.202591 1_555
Mn2 O13 2.214424 1_555
Mn2 O11 2.219595 1_665
Mn3 O0 2.051651 1_655
Mn3 O3 2.056777 1_556
Mn3 O7 2.195936 1_555
Mn3 O8 2.198944 1_555
Mn3 O12 2.208433 1_656
Mn3 O15 2.212714 1_656
Mn4 O0 2.046589 1_555
Mn4 O3 2.047304 1_566
Mn4 O10 2.196859 1_556
Mn4 O5 2.198009 1_565
Mn4 O8 2.206627 1_565
Mn4 O15 2.211106 1_556
Mn5 O0 2.081147 1_555
Mn5 O3 2.084927 1_556
Mn5 O7 2.197312 1_555
Mn5 O5 2.201849 1_555
Mn5 O12 2.213720 1_556
Mn5 O10 2.219051 1_556
Nb0 O14 2.036947 1_555
Nb0 O13 2.037352 1_555
Nb0 O11 2.037597 1_555
Nb0 O6 2.042664 1_555
Nb0 O4 2.046071 1_555
Nb0 O9 2.053110 1_555
Nb1 O15 2.037122 1_655
Nb1 O12 2.037259 1_665
Nb1 O10 2.037653 1_555
Nb1 O7 2.042773 1_554
Nb1 O5 2.046094 1_664
Nb1 O8 2.053286 1_564
