# generated using pymatgen
data_Al2Si3(HO4)3
_symmetry_space_group_name_H-M   'P 1'
_cell_length_a   6.63381200
_cell_length_b   12.45007000
_cell_length_c   12.88425385
_cell_angle_alpha   89.57958050
_cell_angle_beta   90.00000000
_cell_angle_gamma   90.00000000
_symmetry_Int_Tables_number   1
_chemical_formula_structural   Al2Si3(HO4)3
_chemical_formula_sum   'Al8 Si12 H12 O48'
_cell_volume   1064.10022281
_cell_formula_units_Z   4
loop_
 _symmetry_equiv_pos_site_id
 _symmetry_equiv_pos_as_xyz
  1  'x, y, z'
loop_
 _atom_site_type_symbol
 _atom_site_label
 _atom_site_symmetry_multiplicity
 _atom_site_fract_x
 _atom_site_fract_y
 _atom_site_fract_z
 _atom_site_occupancy
  Al  Al0  1  0.11787500  0.38134800  0.32444500  1
  Al  Al1  1  0.61787500  0.61865200  0.67555500  1
  Al  Al2  1  0.11153500  0.12504900  0.18223300  1
  Al  Al3  1  0.61153500  0.87495100  0.81776700  1
  Al  Al4  1  0.86118000  0.32640600  0.87957700  1
  Al  Al5  1  0.36118000  0.67359400  0.12042300  1
  Al  Al6  1  0.86302500  0.17166000  0.61908200  1
  Al  Al7  1  0.36302500  0.82834000  0.38091800  1
  Si  Si0  1  0.50145300  0.26618300  0.25585700  1
  Si  Si1  1  0.00145300  0.73381700  0.74414300  1
  Si  Si2  1  0.24557300  0.23795800  0.75340100  1
  Si  Si3  1  0.74557300  0.76204200  0.24659900  1
  Si  Si4  1  0.12149300  0.62259500  0.32300800  1
  Si  Si5  1  0.62149300  0.37740500  0.67699200  1
  Si  Si6  1  0.12213600  0.88508600  0.17545700  1
  Si  Si7  1  0.62213600  0.11491400  0.82454300  1
  Si  Si8  1  0.86724500  0.32252500  0.12153600  1
  Si  Si9  1  0.36724500  0.67747500  0.87846400  1
  Si  Si10  1  0.87108100  0.17207400  0.37967200  1
  Si  Si11  1  0.37108100  0.82792600  0.62032800  1
  H  H0  1  0.09773400  0.51062000  0.50732000  1
  H  H1  1  0.59773400  0.48938000  0.49268000  1
  H  H2  1  0.99827200  0.57407600  0.63103500  1
  H  H3  1  0.49827200  0.42592400  0.36896500  1
  H  H4  1  0.23444500  0.49200000  0.61134600  1
  H  H5  1  0.73444500  0.50800000  0.38865400  1
  H  H6  1  0.27281000  0.89910000  0.91549800  1
  H  H7  1  0.77281000  0.10090000  0.08450200  1
  H  H8  1  0.16427300  0.98603100  0.00551200  1
  H  H9  1  0.66427300  0.01396900  0.99448800  1
  H  H10  1  0.23870700  0.02813500  0.88344800  1
  H  H11  1  0.73870700  0.97186500  0.11655200  1
  O  O0  1  0.33405800  0.19390200  0.20122000  1
  O  O1  1  0.83405800  0.80609800  0.79878000  1
  O  O2  1  0.38928100  0.36183800  0.32653600  1
  O  O3  1  0.88928100  0.63816200  0.67346400  1
  O  O4  1  0.10718500  0.30110500  0.83596300  1
  O  O5  1  0.60718500  0.69889500  0.16403700  1
  O  O6  1  0.11111400  0.17962500  0.66538900  1
  O  O7  1  0.61111400  0.82037500  0.33461100  1
  O  O8  1  0.07635000  0.50798900  0.38429500  1
  O  O9  1  0.57635000  0.49201100  0.61570500  1
  O  O10  1  0.13520100  0.00148000  0.11236100  1
  O  O11  1  0.63520100  0.99852000  0.88763900  1
  O  O12  1  0.86654100  0.38151000  0.00624100  1
  O  O13  1  0.36654100  0.61849000  0.99375900  1
  O  O14  1  0.84861900  0.11172200  0.49432100  1
  O  O15  1  0.34861900  0.88827800  0.50567900  1
  O  O16  1  0.02621600  0.37939200  0.19770500  1
  O  O17  1  0.52621600  0.62060800  0.80229500  1
  O  O18  1  0.99080600  0.09486300  0.30043200  1
  O  O19  1  0.49080600  0.90513700  0.69956800  1
  O  O20  1  0.23021900  0.79544400  0.10556200  1
  O  O21  1  0.73021900  0.20455600  0.89443800  1
  O  O22  1  0.25216200  0.70129100  0.39594200  1
  O  O23  1  0.75216200  0.29870900  0.60405800  1
  O  O24  1  0.23355600  0.59691600  0.21411800  1
  O  O25  1  0.73355600  0.40308400  0.78588200  1
  O  O26  1  0.22170700  0.89862300  0.28875300  1
  O  O27  1  0.72170700  0.10137700  0.71124700  1
  O  O28  1  0.92600600  0.19457000  0.10622300  1
  O  O29  1  0.42600600  0.80543000  0.89377700  1
  O  O30  1  0.99441500  0.28295200  0.39845700  1
  O  O31  1  0.49441500  0.71704800  0.60154300  1
  O  O32  1  0.89874400  0.67693300  0.30253400  1
  O  O33  1  0.39874400  0.32306700  0.69746600  1
  O  O34  1  0.87581200  0.85699600  0.18378600  1
  O  O35  1  0.37581200  0.14300400  0.81621400  1
  O  O36  1  0.64303500  0.19674000  0.33543400  1
  O  O37  1  0.14303500  0.80326000  0.66456600  1
  O  O38  1  0.63788600  0.32963800  0.16927200  1
  O  O39  1  0.13788600  0.67036200  0.83072800  1
  O  O40  1  0.09790200  0.50606200  0.58652500  1
  O  O41  1  0.59790200  0.49393800  0.41347500  1
  O  O42  1  0.18136000  0.96648300  0.92390000  1
  O  O43  1  0.68136000  0.03351700  0.07610000  1
  O  O44  1  0.36648700  0.05263200  0.52201700  1
  O  O45  1  0.86648700  0.94736800  0.47798300  1
  O  O46  1  0.35590000  0.45047900  0.98876700  1
  O  O47  1  0.85590000  0.54952100  0.01123300  1
loop_
_geom_bond_atom_site_label_1
_geom_bond_atom_site_label_2
_geom_bond_distance
_geom_bond_site_symmetry_2
Al0 O16 1.742821 1_555
Al0 O30 1.750338 1_455
Al0 O8 1.781658 1_555
Al0 O2 1.816941 1_555
Al1 O17 1.742821 1_555
Al1 O31 1.750338 1_555
Al1 O9 1.781658 1_555
Al1 O3 1.816941 1_555
Al2 O0 1.725356 1_555
Al2 O18 1.758838 1_455
Al2 O28 1.791813 1_455
Al2 O10 1.795056 1_555
Al3 O1 1.725356 1_555
Al3 O19 1.758838 1_555
Al3 O29 1.791813 1_555
Al3 O11 1.795056 1_555
Al4 O25 1.751723 1_555
Al4 O4 1.755237 1_655
Al4 O21 1.757434 1_555
Al4 O12 1.775299 1_556
Al5 O24 1.751723 1_555
Al5 O5 1.755237 1_555
Al5 O20 1.757434 1_555
Al5 O13 1.775299 1_554
Al6 O27 1.743385 1_555
Al6 O6 1.753639 1_655
Al6 O23 1.753810 1_555
Al6 O14 1.779748 1_555
Al7 O26 1.743385 1_555
Al7 O7 1.753639 1_555
Al7 O22 1.753810 1_555
Al7 O15 1.779748 1_555
H0 O40 1.021659 1_555
H0 O8 1.591997 1_555
H1 O41 1.021659 1_555
H1 O9 1.591997 1_555
H2 O3 1.210213 1_555
H2 O40 1.220599 1_655
H3 O2 1.210213 1_555
H3 O41 1.220599 1_555
H4 O40 0.976000 1_555
H5 O41 0.976000 1_555
H6 O42 1.041577 1_555
H6 O29 1.573512 1_555
H7 O43 1.041577 1_555
H7 O28 1.573512 1_555
H8 O42 1.086972 1_554
H8 O10 1.404740 1_565
H9 O43 1.086972 1_556
H9 O11 1.404740 1_545
H10 O42 0.999832 1_545
H11 O43 0.999832 1_565
O0 Si0 1.596188 1_555
O1 Si1 1.596188 1_655
O2 Si0 1.678448 1_555
O3 Si1 1.678448 1_655
O4 Si2 1.613915 1_555
O5 Si3 1.613915 1_555
O6 Si2 1.618960 1_555
O7 Si3 1.618960 1_555
O8 Si4 1.653053 1_555
O9 Si5 1.653053 1_555
O10 Si6 1.658624 1_545
O11 Si7 1.658624 1_565
O12 Si8 1.652268 1_555
O12 O47 2.094399 1_555
O13 Si9 1.652268 1_555
O13 O46 2.094399 1_555
O14 Si10 1.659072 1_555
O14 O45 2.061964 1_545
O15 Si11 1.659072 1_555
O15 O44 2.061964 1_565
O16 Si8 1.608326 1_455
O17 Si9 1.608326 1_555
O18 Si10 1.616047 1_555
O19 Si11 1.616047 1_555
O20 Si6 1.607914 1_555
O21 Si7 1.607914 1_555
O22 Si4 1.614899 1_555
O23 Si5 1.614899 1_555
O24 Si4 1.621653 1_555
O25 Si5 1.621653 1_555
O26 Si6 1.612187 1_555
O27 Si7 1.612187 1_555
O28 Si8 1.653268 1_555
O29 Si9 1.653268 1_555
O30 Si10 1.624347 1_555
O31 Si11 1.624347 1_555
O32 Si3 1.632001 1_555
O32 Si4 1.645649 1_655
O33 Si2 1.632001 1_555
O33 Si5 1.645649 1_555
O34 Si3 1.668816 1_555
O34 Si6 1.674350 1_655
O35 Si2 1.668816 1_555
O35 Si7 1.674350 1_555
O36 Si0 1.633353 1_555
O36 Si10 1.644754 1_555
O37 Si1 1.633353 1_555
O37 Si11 1.644754 1_555
O38 Si0 1.635505 1_555
O38 Si8 1.643763 1_555
O39 Si1 1.635505 1_555
O39 Si9 1.643763 1_555
