# generated using pymatgen
data_LiCu(PO3)3
_symmetry_space_group_name_H-M   'P 1'
_cell_length_a   5.40906000
_cell_length_b   10.65827500
_cell_length_c   11.48774100
_cell_angle_alpha   90.00000000
_cell_angle_beta   90.00000000
_cell_angle_gamma   90.00000000
_symmetry_Int_Tables_number   1
_chemical_formula_structural   LiCu(PO3)3
_chemical_formula_sum   'Li4 Cu4 P12 O36'
_cell_volume   662.28261651
_cell_formula_units_Z   4
loop_
 _symmetry_equiv_pos_site_id
 _symmetry_equiv_pos_as_xyz
  1  'x, y, z'
loop_
 _atom_site_type_symbol
 _atom_site_label
 _atom_site_symmetry_multiplicity
 _atom_site_fract_x
 _atom_site_fract_y
 _atom_site_fract_z
 _atom_site_occupancy
  Li  Li0  1  0.08901400  0.11916700  0.07616200  1
  Li  Li1  1  0.58901400  0.38083300  0.92383800  1
  Li  Li2  1  0.91098600  0.61916700  0.42383800  1
  Li  Li3  1  0.41098600  0.88083300  0.57616200  1
  Cu  Cu0  1  0.59061600  0.03134500  0.85997400  1
  Cu  Cu1  1  0.09061600  0.46865500  0.14002600  1
  Cu  Cu2  1  0.40938400  0.53134500  0.64002600  1
  Cu  Cu3  1  0.90938400  0.96865500  0.35997400  1
  P  P0  1  0.87352700  0.07489300  0.62153700  1
  P  P1  1  0.37192400  0.14889900  0.36602000  1
  P  P2  1  0.06809800  0.19457900  0.82111100  1
  P  P3  1  0.56809800  0.30542100  0.17888900  1
  P  P4  1  0.87192400  0.35110100  0.63398000  1
  P  P5  1  0.37352700  0.42510700  0.37846300  1
  P  P6  1  0.12647300  0.57489300  0.87846300  1
  P  P7  1  0.62807600  0.64889900  0.13398000  1
  P  P8  1  0.93190200  0.69457900  0.67888900  1
  P  P9  1  0.43190200  0.80542100  0.32111100  1
  P  P10  1  0.12807600  0.85110100  0.86602000  1
  P  P11  1  0.62647300  0.92510700  0.12153700  1
  O  O0  1  0.51931200  0.01139300  0.03151900  1
  O  O1  1  0.63786100  0.03668300  0.68385700  1
  O  O2  1  0.50844100  0.05878100  0.44083300  1
  O  O3  1  0.08810800  0.09045800  0.71875400  1
  O  O4  1  0.11687500  0.11611200  0.32124600  1
  O  O5  1  0.82391500  0.17850600  0.88541900  1
  O  O6  1  0.30272000  0.19564100  0.88825700  1
  O  O7  1  0.54809500  0.17873600  0.25471100  1
  O  O8  1  0.85843100  0.21521500  0.57048100  1
  O  O9  1  0.35843100  0.28478500  0.42951900  1
  O  O10  1  0.04809500  0.32126400  0.74528900  1
  O  O11  1  0.80272000  0.30435900  0.11174300  1
  O  O12  1  0.32391500  0.32149400  0.11458100  1
  O  O13  1  0.61687500  0.38388800  0.67875400  1
  O  O14  1  0.58810800  0.40954200  0.28124600  1
  O  O15  1  0.00844100  0.44121900  0.55916700  1
  O  O16  1  0.13786100  0.46331700  0.31614300  1
  O  O17  1  0.01931200  0.48860700  0.96848100  1
  O  O18  1  0.48068800  0.51139300  0.46848100  1
  O  O19  1  0.36213900  0.53668300  0.81614300  1
  O  O20  1  0.49155900  0.55878100  0.05916700  1
  O  O21  1  0.91189200  0.59045800  0.78124600  1
  O  O22  1  0.88312500  0.61611200  0.17875400  1
  O  O23  1  0.17608500  0.67850600  0.61458100  1
  O  O24  1  0.69728000  0.69564100  0.61174300  1
  O  O25  1  0.45190500  0.67873600  0.24528900  1
  O  O26  1  0.14156900  0.71521500  0.92951900  1
  O  O27  1  0.64156900  0.78478500  0.07048100  1
  O  O28  1  0.95190500  0.82126400  0.75471100  1
  O  O29  1  0.19728000  0.80435900  0.38825700  1
  O  O30  1  0.67608500  0.82149400  0.38541900  1
  O  O31  1  0.38312500  0.88388800  0.82124600  1
  O  O32  1  0.41189200  0.90954200  0.21875400  1
  O  O33  1  0.99155900  0.94121900  0.94083300  1
  O  O34  1  0.86213900  0.96331700  0.18385700  1
  O  O35  1  0.98068800  0.98860700  0.53151900  1
loop_
_geom_bond_atom_site_label_1
_geom_bond_atom_site_label_2
_geom_bond_distance
_geom_bond_site_symmetry_2
Li0 O34 2.407446 1_445
Li0 O33 2.508365 1_444
Li0 O12 2.541555 1_555
Li0 O11 2.541883 1_455
Li0 O6 2.580726 1_554
Li0 O0 2.645710 1_555
Li0 O5 2.693985 1_454
Li1 O19 2.407446 1_555
Li1 O20 2.508365 1_556
Li1 O5 2.541555 1_555
Li1 O6 2.541883 1_555
Li1 O11 2.580726 1_556
Li1 O17 2.645710 1_655
Li1 O12 2.693985 1_556
Li2 O16 2.407446 1_655
Li2 O15 2.508365 1_655
Li2 O30 2.541555 1_555
Li2 O29 2.541883 1_655
Li2 O24 2.580726 1_555
Li2 O18 2.645710 1_555
Li2 O23 2.693985 1_655
Li3 O1 2.407446 1_565
Li3 O2 2.508365 1_565
Li3 O23 2.541555 1_555
Li3 O24 2.541883 1_555
Li3 O29 2.580726 1_555
Li3 O35 2.645710 1_455
Li3 O30 2.693985 1_555
Cu0 O31 1.981819 1_545
Cu0 O0 2.019281 1_556
Cu0 O5 2.034218 1_555
Cu0 O1 2.040056 1_555
Cu0 O6 2.365793 1_555
Cu0 O33 2.547337 1_545
Cu1 O22 1.981819 1_455
Cu1 O17 2.019281 1_554
Cu1 O12 2.034218 1_555
Cu1 O16 2.040056 1_555
Cu1 O11 2.365793 1_455
Cu1 O20 2.547337 1_555
Cu2 O13 1.981819 1_555
Cu2 O18 2.019281 1_555
Cu2 O23 2.034218 1_555
Cu2 O19 2.040056 1_555
Cu2 O24 2.365793 1_555
Cu2 O15 2.547337 1_555
Cu3 O4 1.981819 1_665
Cu3 O35 2.019281 1_555
Cu3 O30 2.034218 1_555
Cu3 O34 2.040056 1_555
Cu3 O29 2.365793 1_655
Cu3 O2 2.547337 1_565
O0 P11 1.500376 1_545
O1 P0 1.517673 1_555
O2 P1 1.485418 1_555
O3 P0 1.619245 1_455
O3 P2 1.620458 1_555
O4 P1 1.513243 1_555
O5 P2 1.523029 1_655
O6 P2 1.485158 1_555
O7 P3 1.610449 1_555
O7 P1 1.626109 1_555
O8 P0 1.608559 1_555
O8 P4 1.623281 1_555
O9 P5 1.608559 1_555
O9 P1 1.623281 1_555
O10 P2 1.610449 1_555
O10 P4 1.626109 1_455
O11 P3 1.485158 1_555
O12 P3 1.523029 1_555
O13 P4 1.513243 1_555
O14 P5 1.619245 1_555
O14 P3 1.620458 1_555
O15 P4 1.485418 1_455
O16 P5 1.517673 1_555
O17 P6 1.500376 1_555
O18 P5 1.500376 1_555
O19 P6 1.517673 1_555
O20 P7 1.485418 1_555
O21 P6 1.619245 1_655
O21 P8 1.620458 1_555
O22 P7 1.513243 1_555
O23 P8 1.523029 1_455
O24 P8 1.485158 1_555
O25 P9 1.610449 1_555
O25 P7 1.626109 1_555
O26 P6 1.608559 1_555
O26 P10 1.623281 1_555
O27 P11 1.608559 1_555
O27 P7 1.623281 1_555
O28 P8 1.610449 1_555
O28 P10 1.626109 1_655
O29 P9 1.485158 1_555
O30 P9 1.523029 1_555
O31 P10 1.513243 1_555
O32 P11 1.619245 1_555
O32 P9 1.620458 1_555
O33 P10 1.485418 1_655
O34 P11 1.517673 1_555
O35 P0 1.500376 1_565
