# generated using pymatgen
data_TiMn3(PO4)6
_symmetry_space_group_name_H-M   'P 1'
_cell_length_a   8.75742330
_cell_length_b   8.75742330
_cell_length_c   8.75742328
_cell_angle_alpha   58.25334099
_cell_angle_beta   58.25334099
_cell_angle_gamma   58.25333735
_symmetry_Int_Tables_number   1
_chemical_formula_structural   TiMn3(PO4)6
_chemical_formula_sum   'Ti1 Mn3 P6 O24'
_cell_volume   455.91115056
_cell_formula_units_Z   1
loop_
 _symmetry_equiv_pos_site_id
 _symmetry_equiv_pos_as_xyz
  1  'x, y, z'
loop_
 _atom_site_type_symbol
 _atom_site_label
 _atom_site_symmetry_multiplicity
 _atom_site_fract_x
 _atom_site_fract_y
 _atom_site_fract_z
 _atom_site_occupancy
  Ti  Ti0  1  0.13992100  0.13992100  0.13992100  1
  Mn  Mn0  1  0.85508400  0.85508400  0.85508400  1
  Mn  Mn1  1  0.64420000  0.64420000  0.64420000  1
  Mn  Mn2  1  0.35503800  0.35503800  0.35503800  1
  P  P0  1  0.24998700  0.53674500  0.96458200  1
  P  P1  1  0.96458200  0.24998700  0.53674500  1
  P  P2  1  0.53674500  0.96458200  0.24998700  1
  P  P3  1  0.47035200  0.03337800  0.74318000  1
  P  P4  1  0.03337800  0.74318000  0.47035200  1
  P  P5  1  0.74318000  0.47035200  0.03337800  1
  O  O0  1  0.72235000  0.49058500  0.85890100  1
  O  O1  1  0.49058500  0.85890100  0.72235000  1
  O  O2  1  0.07504100  0.72301600  0.93825200  1
  O  O3  1  0.85890100  0.72235000  0.49058500  1
  O  O4  1  0.42518000  0.56289200  0.77918100  1
  O  O5  1  0.22174800  0.36357800  0.99377400  1
  O  O6  1  0.93825200  0.07504100  0.72301600  1
  O  O7  1  0.77918100  0.42518000  0.56289200  1
  O  O8  1  0.56289200  0.77918100  0.42518000  1
  O  O9  1  0.64300900  0.01154600  0.76964600  1
  O  O10  1  0.28869200  0.06077300  0.91980000  1
  O  O11  1  0.01154600  0.76964600  0.64300900  1
  O  O12  1  0.99377400  0.22174800  0.36357800  1
  O  O13  1  0.72301600  0.93825200  0.07504100  1
  O  O14  1  0.36357800  0.99377400  0.22174800  1
  O  O15  1  0.44605200  0.21752700  0.56835700  1
  O  O16  1  0.21752700  0.56835700  0.44605200  1
  O  O17  1  0.06077300  0.91980000  0.28869200  1
  O  O18  1  0.76964600  0.64300900  0.01154600  1
  O  O19  1  0.56835700  0.44605200  0.21752700  1
  O  O20  1  0.13850100  0.27454700  0.51458500  1
  O  O21  1  0.91980000  0.28869200  0.06077300  1
  O  O22  1  0.51458500  0.13850100  0.27454700  1
  O  O23  1  0.27454700  0.51458500  0.13850100  1
loop_
_geom_bond_atom_site_label_1
_geom_bond_atom_site_label_2
_geom_bond_distance
_geom_bond_site_symmetry_2
Mn0 O9 1.895287 1_565
Mn0 O11 1.895287 1_655
Mn0 O18 1.895287 1_556
Mn0 O2 1.955527 1_655
Mn0 O13 1.955527 1_556
Mn0 O6 1.955527 1_565
Mn1 O1 1.880666 1_555
Mn1 O0 1.880666 1_555
Mn1 O3 1.880666 1_555
Mn1 O7 1.936176 1_555
Mn1 O8 1.936176 1_555
Mn1 O4 1.936176 1_555
Mn2 O22 1.904490 1_555
Mn2 O23 1.904490 1_555
Mn2 O20 1.904490 1_555
Mn2 O16 1.940313 1_555
Mn2 O15 1.940313 1_555
Mn2 O19 1.940313 1_555
O0 P5 1.540699 1_556
O1 P3 1.540699 1_565
O2 P0 1.551568 1_555
O3 P4 1.540699 1_655
O4 P0 1.549056 1_555
O5 P0 1.531805 1_555
O5 Ti0 1.965141 1_556
O6 P1 1.551568 1_555
O7 P1 1.549056 1_555
O8 P2 1.549056 1_555
O9 P3 1.547401 1_555
O10 P3 1.542809 1_555
O10 Ti0 1.925278 1_556
O11 P4 1.547401 1_555
O12 P1 1.531805 1_555
O12 Ti0 1.965141 1_655
O13 P2 1.551568 1_555
O14 P2 1.531805 1_555
O14 Ti0 1.965141 1_565
O15 P3 1.540605 1_555
O16 P4 1.540605 1_555
O17 P4 1.542809 1_555
O17 Ti0 1.925278 1_565
O18 P5 1.547401 1_555
O19 P5 1.540605 1_555
O20 P1 1.547082 1_455
O21 P5 1.542809 1_555
O21 Ti0 1.925278 1_655
O22 P2 1.547082 1_545
O23 P0 1.547082 1_554
