# generated using pymatgen
data_Li6CoOF6
_symmetry_space_group_name_H-M   'P 1'
_cell_length_a   2.90400675
_cell_length_b   14.76590252
_cell_length_c   5.80740967
_cell_angle_alpha   95.64594920
_cell_angle_beta   89.93172300
_cell_angle_gamma   84.28252726
_symmetry_Int_Tables_number   1
_chemical_formula_structural   Li6CoOF6
_chemical_formula_sum   'Li12 Co2 O2 F12'
_cell_volume   246.56728167
_cell_formula_units_Z   2
loop_
 _symmetry_equiv_pos_site_id
 _symmetry_equiv_pos_as_xyz
  1  'x, y, z'
loop_
 _atom_site_type_symbol
 _atom_site_label
 _atom_site_symmetry_multiplicity
 _atom_site_fract_x
 _atom_site_fract_y
 _atom_site_fract_z
 _atom_site_occupancy
  Li  Li0  1  0.00281600  0.99398700  0.49836800  1
  Li  Li1  1  0.00280700  0.99423900  0.99875600  1
  Li  Li2  1  0.85436800  0.29145300  0.57265900  1
  Li  Li3  1  0.85435900  0.29170500  0.07304800  1
  Li  Li4  1  0.28275400  0.43458000  0.35880500  1
  Li  Li5  1  0.28272200  0.43460200  0.85847100  1
  Li  Li6  1  0.57446500  0.85108900  0.71293900  1
  Li  Li7  1  0.57443200  0.85111200  0.21260400  1
  Li  Li8  1  0.71348800  0.57305600  0.64325700  1
  Li  Li9  1  0.71347600  0.57308000  0.14326200  1
  Li  Li10  1  0.14377100  0.71259200  0.42811700  1
  Li  Li11  1  0.14375900  0.71261600  0.92812200  1
  Co  Co0  1  0.42858400  0.14285300  0.28571900  1
  Co  Co1  1  0.42858300  0.14285300  0.78571800  1
  O  O0  1  0.92900000  0.14479700  0.53612400  1
  O  O1  1  0.92805500  0.14092300  0.03533500  1
  F  F0  1  0.50499700  0.98975600  0.74859900  1
  F  F1  1  0.50414300  0.98949000  0.24653300  1
  F  F2  1  0.35307200  0.29629600  0.32480700  1
  F  F3  1  0.35228500  0.29602900  0.82274000  1
  F  F4  1  0.78278800  0.43395100  0.60869600  1
  F  F5  1  0.78285300  0.43382000  0.10849600  1
  F  F6  1  0.07388000  0.85194800  0.46314000  1
  F  F7  1  0.07394900  0.85181900  0.96294500  1
  F  F8  1  0.21349800  0.57337000  0.39324800  1
  F  F9  1  0.21349800  0.57337100  0.89328200  1
  F  F10  1  0.64379800  0.71230500  0.67808500  1
  F  F11  1  0.64379800  0.71230600  0.17812000  1
loop_
_geom_bond_atom_site_label_1
_geom_bond_atom_site_label_2
_geom_bond_distance
_geom_bond_site_symmetry_2
Li0 O0 2.204898 1_465
Li1 O1 2.144562 1_466
Li2 O0 2.144152 1_555
Li3 O1 2.204490 1_555
Co0 O1 2.048806 1_555
Co0 O0 2.049098 1_455
Co0 O0 2.057302 1_555
Co0 O1 2.057446 1_455
Co0 F1 2.242224 1_545
Co0 F2 2.243393 1_555
Co1 O1 2.052072 1_556
Co1 O0 2.052208 1_455
Co1 O0 2.055521 1_555
Co1 O1 2.055812 1_456
Co1 F0 2.238335 1_545
Co1 F3 2.239493 1_555
F0 Li6 2.027359 1_555
F0 Li1 2.049030 1_555
F0 Li1 2.051814 1_655
F0 Li0 2.058273 1_655
F0 Li0 2.060870 1_555
F1 Li7 2.023129 1_555
F1 Li1 2.049286 1_554
F1 Li1 2.051257 1_654
F1 Li0 2.054122 1_555
F1 Li0 2.060480 1_655
F2 Li4 2.021754 1_555
F2 Li2 2.049557 1_555
F2 Li2 2.051887 1_455
F2 Li3 2.053578 1_555
F2 Li3 2.060296 1_455
F3 Li5 2.025986 1_555
F3 Li2 2.048350 1_555
F3 Li2 2.051769 1_455
F3 Li3 2.059042 1_456
F3 Li3 2.061008 1_556
F4 Li8 2.033758 1_555
F4 Li5 2.050000 1_555
F4 Li4 2.052917 1_655
F4 Li5 2.053531 1_655
F4 Li4 2.054194 1_555
F4 Li2 2.083363 1_555
F5 Li9 2.036023 1_555
F5 Li4 2.052042 1_555
F5 Li5 2.053596 1_654
F5 Li5 2.054953 1_554
F5 Li4 2.055665 1_655
F5 Li3 2.077762 1_555
F6 Li10 2.037425 1_555
F6 Li6 2.051902 1_455
F6 Li7 2.053752 1_555
F6 Li6 2.054963 1_555
F6 Li7 2.055675 1_455
F6 Li0 2.076653 1_555
F7 Li11 2.035188 1_555
F7 Li7 2.051210 1_456
F7 Li6 2.051714 1_555
F7 Li6 2.053561 1_455
F7 Li7 2.054168 1_556
F7 Li1 2.082223 1_555
F8 Li4 2.029152 1_555
F8 Li10 2.035466 1_555
F8 Li9 2.051414 1_555
F8 Li8 2.052824 1_455
F8 Li9 2.054555 1_455
F8 Li8 2.054577 1_555
F9 Li5 2.028844 1_555
F9 Li11 2.035802 1_555
F9 Li8 2.051548 1_555
F9 Li9 2.052682 1_456
F9 Li9 2.054433 1_556
F9 Li8 2.054692 1_455
F10 Li6 2.029063 1_555
F10 Li8 2.035861 1_555
F10 Li11 2.051706 1_555
F10 Li10 2.052524 1_655
F10 Li10 2.054484 1_555
F10 Li11 2.054640 1_655
F11 Li7 2.029385 1_555
F11 Li9 2.035525 1_555
F11 Li10 2.051568 1_555
F11 Li11 2.052670 1_654
F11 Li10 2.054499 1_655
F11 Li11 2.054632 1_554
