# generated using pymatgen
data_Li7Mn8(BO3)8
_symmetry_space_group_name_H-M   'P 1'
_cell_length_a   5.28573200
_cell_length_b   9.10311547
_cell_length_c   11.62823422
_cell_angle_alpha   112.84072600
_cell_angle_beta   101.67322097
_cell_angle_gamma   89.52984548
_symmetry_Int_Tables_number   1
_chemical_formula_structural   Li7Mn8(BO3)8
_chemical_formula_sum   'Li7 Mn8 B8 O24'
_cell_volume   503.43835563
_cell_formula_units_Z   1
loop_
 _symmetry_equiv_pos_site_id
 _symmetry_equiv_pos_as_xyz
  1  'x, y, z'
loop_
 _atom_site_type_symbol
 _atom_site_label
 _atom_site_symmetry_multiplicity
 _atom_site_fract_x
 _atom_site_fract_y
 _atom_site_fract_z
 _atom_site_occupancy
  Li  Li0  1  0.13130900  0.29727200  0.58522500  1
  Li  Li1  1  0.32817400  0.18380200  0.33469500  1
  Li  Li2  1  0.57288100  0.40087500  0.83700400  1
  Li  Li3  1  0.07441300  0.90171800  0.83270000  1
  Li  Li4  1  0.39092300  0.54580400  0.08494400  1
  Li  Li5  1  0.63811300  0.80110100  0.59306400  1
  Li  Li6  1  0.82927800  0.67786200  0.32633300  1
  Mn  Mn0  1  0.08786600  0.59842100  0.87187100  1
  Mn  Mn1  1  0.64525600  0.47423100  0.61973800  1
  Mn  Mn2  1  0.38515000  0.90264400  0.11511100  1
  Mn  Mn3  1  0.14661700  0.97604700  0.61695000  1
  Mn  Mn4  1  0.84564000  0.01773000  0.36093800  1
  Mn  Mn5  1  0.59731300  0.08680900  0.87224100  1
  Mn  Mn6  1  0.34690200  0.53521400  0.37333400  1
  Mn  Mn7  1  0.90873800  0.37418400  0.11996300  1
  B  B0  1  0.59388200  0.75849400  0.86870600  1
  B  B1  1  0.85312500  0.35350900  0.37015300  1
  B  B2  1  0.11462500  0.26385900  0.88214900  1
  B  B3  1  0.64793400  0.14386800  0.62666200  1
  B  B4  1  0.36065400  0.86293600  0.37720100  1
  B  B5  1  0.89443100  0.72457800  0.12444600  1
  B  B6  1  0.14329000  0.64268300  0.62528500  1
  B  B7  1  0.39328500  0.24963200  0.12943700  1
  O  O0  1  0.35407200  0.79042500  0.90478200  1
  O  O1  1  0.05375000  0.52269600  0.65793700  1
  O  O2  1  0.01350600  0.24432700  0.39272500  1
  O  O3  1  0.67782800  0.60339900  0.83521300  1
  O  O4  1  0.61511100  0.37354900  0.40561700  1
  O  O5  1  0.25558700  0.39502000  0.89085000  1
  O  O6  1  0.27924200  0.13348500  0.15043000  1
  O  O7  1  0.50638700  0.27652900  0.64282300  1
  O  O8  1  0.19088600  0.10961000  0.83330200  1
  O  O9  1  0.43626800  0.97926500  0.33877300  1
  O  O10  1  0.87936700  0.28619500  0.92743300  1
  O  O11  1  0.11504800  0.86102700  0.40636300  1
  O  O12  1  0.87697300  0.13259700  0.58304600  1
  O  O13  1  0.12846500  0.70579400  0.08280600  1
  O  O14  1  0.56052300  0.02444400  0.66099300  1
  O  O15  1  0.78580200  0.87050400  0.16020800  1
  O  O16  1  0.00745100  0.77575300  0.63798900  1
  O  O17  1  0.52550500  0.74840800  0.39156300  1
  O  O18  1  0.74174600  0.87651000  0.86264100  1
  O  O19  1  0.77195800  0.59619100  0.13465100  1
  O  O20  1  0.37193000  0.62704000  0.57925700  1
  O  O21  1  0.29288800  0.40292200  0.16065100  1
  O  O22  1  0.93383000  0.45390000  0.31312400  1
  O  O23  1  0.60848700  0.22704400  0.07464400  1
loop_
_geom_bond_atom_site_label_1
_geom_bond_atom_site_label_2
_geom_bond_distance
_geom_bond_site_symmetry_2
Li0 O1 1.968091 1_555
Li0 O7 1.992361 1_555
Li0 O12 2.011192 1_455
Li0 O2 2.057658 1_555
Li1 O2 1.917237 1_555
Li1 O9 1.958464 1_545
Li1 O6 1.970665 1_555
Li1 O4 2.096402 1_555
Li2 O5 1.913103 1_555
Li2 O3 1.938627 1_555
Li2 O7 2.050472 1_555
Li2 O10 2.226001 1_555
Li3 O18 1.892666 1_455
Li3 O8 1.991879 1_565
Li3 O0 2.011799 1_555
Li3 O16 2.057498 1_555
Li4 O21 1.954445 1_555
Li4 O19 1.984724 1_555
Li4 O13 2.006811 1_555
Li4 O5 2.108890 1_554
Li5 O14 1.948420 1_565
Li5 O16 1.952131 1_655
Li5 O20 2.064863 1_555
Li5 O17 2.154593 1_555
Li6 O17 1.914067 1_555
Li6 O19 2.014091 1_555
Li6 O11 2.048332 1_655
Li6 O22 2.063554 1_555
Mn0 O5 2.115212 1_555
Mn0 O0 2.117655 1_555
Mn0 O3 2.126194 1_455
Mn0 O13 2.224156 1_556
Mn0 O1 2.277155 1_555
Mn1 O7 2.079966 1_555
Mn1 O20 2.108073 1_555
Mn1 O1 2.128248 1_655
Mn1 O4 2.266053 1_555
Mn1 O3 2.287304 1_555
Mn2 O6 2.074015 1_565
Mn2 O13 2.122281 1_555
Mn2 O15 2.122490 1_555
Mn2 O0 2.225485 1_554
Mn2 O9 2.373616 1_555
Mn3 O16 2.089618 1_555
Mn3 O12 2.095987 1_465
Mn3 O14 2.151763 1_565
Mn3 O11 2.228802 1_555
Mn3 O8 2.292162 1_565
Mn4 O2 2.117596 1_655
Mn4 O9 2.141936 1_545
Mn4 O11 2.142183 1_645
Mn4 O15 2.150356 1_545
Mn4 O12 2.350408 1_555
Mn5 O18 2.026012 1_545
Mn5 O8 2.129593 1_555
Mn5 O10 2.163747 1_555
Mn5 O23 2.187455 1_556
Mn5 O14 2.262759 1_555
Mn6 O17 2.081420 1_555
Mn6 O4 2.120331 1_555
Mn6 O20 2.183959 1_555
Mn6 O22 2.193372 1_455
Mn6 O21 2.248526 1_555
Mn7 O23 1.933642 1_555
Mn7 O21 1.984729 1_655
Mn7 O10 2.036435 1_554
Mn7 O22 2.050583 1_555
Mn7 O19 2.096224 1_555
B0 O18 1.365606 1_555
B0 O3 1.405221 1_555
B0 O0 1.407719 1_555
B1 O2 1.368951 1_655
B1 O4 1.390637 1_555
B1 O22 1.431173 1_555
B2 O5 1.371596 1_555
B2 O8 1.385974 1_555
B2 O10 1.429210 1_455
B3 O7 1.385401 1_555
B3 O12 1.392634 1_555
B3 O14 1.405169 1_555
B4 O9 1.388301 1_555
B4 O17 1.391210 1_555
B4 O11 1.408447 1_555
B5 O15 1.386529 1_555
B5 O19 1.396509 1_555
B5 O13 1.403065 1_655
B6 O16 1.376392 1_555
B6 O1 1.401549 1_555
B6 O20 1.402512 1_555
B7 O6 1.345816 1_555
B7 O23 1.389198 1_555
B7 O21 1.425878 1_555
