# generated using pymatgen
data_Fe3(OF2)2
_symmetry_space_group_name_H-M   'P 1'
_cell_length_a   4.81172900
_cell_length_b   5.74945300
_cell_length_c   7.91761805
_cell_angle_alpha   86.55494639
_cell_angle_beta   90.00000000
_cell_angle_gamma   90.00000000
_symmetry_Int_Tables_number   1
_chemical_formula_structural   Fe3(OF2)2
_chemical_formula_sum   'Fe6 O4 F8'
_cell_volume   218.64356742
_cell_formula_units_Z   2
loop_
 _symmetry_equiv_pos_site_id
 _symmetry_equiv_pos_as_xyz
  1  'x, y, z'
loop_
 _atom_site_type_symbol
 _atom_site_label
 _atom_site_symmetry_multiplicity
 _atom_site_fract_x
 _atom_site_fract_y
 _atom_site_fract_z
 _atom_site_occupancy
  Fe  Fe0  1  0.48527600  0.21976500  0.00159500  1
  Fe  Fe1  1  0.49143400  0.56843900  0.64528400  1
  Fe  Fe2  1  0.52607900  0.90555700  0.32518800  1
  Fe  Fe3  1  0.98527600  0.78023500  0.99840500  1
  Fe  Fe4  1  0.99143400  0.43156100  0.35471600  1
  Fe  Fe5  1  0.02607900  0.09444300  0.67481200  1
  O  O0  1  0.20214800  0.03629200  0.90767800  1
  O  O1  1  0.19916800  0.38887100  0.56073100  1
  O  O2  1  0.70214800  0.96370800  0.09232200  1
  O  O3  1  0.69916800  0.61112900  0.43926900  1
  F  F0  1  0.18639900  0.71128300  0.22703500  1
  F  F1  1  0.30682300  0.87238000  0.56828700  1
  F  F2  1  0.30799300  0.54197200  0.90013700  1
  F  F3  1  0.29468100  0.23163900  0.22952900  1
  F  F4  1  0.68639900  0.28871700  0.77296500  1
  F  F5  1  0.80682300  0.12762000  0.43171300  1
  F  F6  1  0.80799300  0.45802800  0.09986300  1
  F  F7  1  0.79468100  0.76836100  0.77047100  1
loop_
_geom_bond_atom_site_label_1
_geom_bond_atom_site_label_2
_geom_bond_distance
_geom_bond_site_symmetry_2
Fe0 O0 1.901557 1_554
Fe0 O2 1.909243 1_545
Fe1 O1 1.890719 1_555
Fe1 O3 1.916218 1_555
Fe2 O2 2.038340 1_555
Fe2 O3 2.047272 1_555
Fe3 O2 1.901557 1_556
Fe3 O0 1.909243 1_665
Fe4 O3 1.890719 1_555
Fe4 O1 1.916218 1_655
Fe5 O0 2.038340 1_555
Fe5 O1 2.047272 1_555
F0 Fe3 2.069854 1_454
F0 Fe4 2.071983 1_455
F0 Fe2 2.151118 1_555
F1 Fe1 2.021492 1_555
F1 Fe5 2.072603 1_565
F1 Fe2 2.193173 1_555
F2 Fe0 2.150798 1_556
F2 Fe1 2.199316 1_555
F2 Fe3 2.240826 1_455
F3 Fe0 2.029149 1_555
F3 Fe4 2.137681 1_455
F3 Fe2 2.271024 1_545
F4 Fe0 2.069854 1_556
F4 Fe1 2.071983 1_555
F4 Fe5 2.151118 1_655
F5 Fe4 2.021492 1_555
F5 Fe2 2.072603 1_545
F5 Fe5 2.193173 1_655
F6 Fe3 2.150798 1_554
F6 Fe4 2.199316 1_555
F6 Fe0 2.240826 1_555
F7 Fe3 2.029149 1_555
F7 Fe1 2.137681 1_555
F7 Fe5 2.271024 1_665
