# generated using pymatgen
data_Li8Mn7Fe(BO3)8
_symmetry_space_group_name_H-M   'P 1'
_cell_length_a   5.24888000
_cell_length_b   9.11632203
_cell_length_c   10.51135577
_cell_angle_alpha   88.21803385
_cell_angle_beta   89.12985894
_cell_angle_gamma   89.85792190
_symmetry_Int_Tables_number   1
_chemical_formula_structural   Li8Mn7Fe(BO3)8
_chemical_formula_sum   'Li8 Mn7 Fe1 B8 O24'
_cell_volume   502.67119602
_cell_formula_units_Z   1
loop_
 _symmetry_equiv_pos_site_id
 _symmetry_equiv_pos_as_xyz
  1  'x, y, z'
loop_
 _atom_site_type_symbol
 _atom_site_label
 _atom_site_symmetry_multiplicity
 _atom_site_fract_x
 _atom_site_fract_y
 _atom_site_fract_z
 _atom_site_occupancy
  Li  Li0  1  0.14664500  0.17458800  0.66776300  1
  Li  Li1  1  0.18825100  0.16079200  0.16801100  1
  Li  Li2  1  0.32104000  0.33091600  0.41799100  1
  Li  Li3  1  0.33694200  0.32612400  0.91784800  1
  Li  Li4  1  0.64740800  0.67348400  0.66746500  1
  Li  Li5  1  0.68849100  0.66016600  0.16780800  1
  Li  Li6  1  0.82050500  0.83075100  0.41767000  1
  Li  Li7  1  0.83766900  0.82564500  0.91784700  1
  Mn  Mn0  1  0.17621600  0.49861200  0.13130500  1
  Mn  Mn1  1  0.15898300  0.83848400  0.63270900  1
  Mn  Mn2  1  0.33175000  0.66406800  0.38307400  1
  Mn  Mn3  1  0.33139300  0.99838700  0.88327700  1
  Mn  Mn4  1  0.65943200  0.33942500  0.63534700  1
  Mn  Mn5  1  0.67859000  0.99884500  0.13348000  1
  Mn  Mn6  1  0.83145400  0.16500000  0.38358300  1
  Fe  Fe0  1  0.82373200  0.49968900  0.88277900  1
  B  B0  1  0.17358800  0.82931100  0.12568900  1
  B  B1  1  0.15753400  0.50157600  0.62671900  1
  B  B2  1  0.33682800  0.99765400  0.37573200  1
  B  B3  1  0.32629900  0.66461300  0.87557500  1
  B  B4  1  0.67281400  0.32968500  0.12466600  1
  B  B5  1  0.65694100  0.00157400  0.62610400  1
  B  B6  1  0.83704700  0.49760900  0.37576100  1
  B  B7  1  0.83043800  0.16819500  0.87642100  1
  O  O0  1  0.09649400  0.48142000  0.34496100  1
  O  O1  1  0.09166300  0.17921000  0.86135200  1
  O  O2  1  0.17795100  0.78887200  0.84553600  1
  O  O3  1  0.19398400  0.87590500  0.41767900  1
  O  O4  1  0.22389200  0.13451000  0.36133600  1
  O  O5  1  0.21010100  0.53353700  0.91527200  1
  O  O6  1  0.26617700  0.36418300  0.61170500  1
  O  O7  1  0.28897700  0.96510500  0.09577500  1
  O  O8  1  0.30362200  0.62705600  0.59605200  1
  O  O9  1  0.32229900  0.71000200  0.16635500  1
  O  O10  1  0.41221600  0.31507400  0.11099900  1
  O  O11  1  0.40413700  0.01640500  0.66683600  1
  O  O12  1  0.59658300  0.98150600  0.34523100  1
  O  O13  1  0.59034100  0.67451000  0.86328500  1
  O  O14  1  0.67875100  0.29157600  0.84717400  1
  O  O15  1  0.69387500  0.37621400  0.41786200  1
  O  O16  1  0.72423500  0.63464600  0.36129500  1
  O  O17  1  0.71766600  0.03579200  0.91707800  1
  O  O18  1  0.78793600  0.46511400  0.09358700  1
  O  O19  1  0.76537300  0.86387700  0.61205600  1
  O  O20  1  0.80271500  0.12718100  0.59607700  1
  O  O21  1  0.82222800  0.21085500  0.16638700  1
  O  O22  1  0.91292500  0.81510500  0.11116200  1
  O  O23  1  0.90527600  0.51655600  0.66792300  1
loop_
_geom_bond_atom_site_label_1
_geom_bond_atom_site_label_2
_geom_bond_distance
_geom_bond_site_symmetry_2
Li0 O6 1.912867 1_555
Li0 O11 1.974101 1_555
Li0 O20 2.019634 1_455
Li0 O1 2.052619 1_555
Li1 O10 1.911456 1_555
Li1 O21 1.973777 1_455
Li1 O7 2.026300 1_545
Li1 O4 2.050100 1_555
Li2 O0 1.953169 1_555
Li2 O4 1.974998 1_555
Li2 O15 2.001035 1_555
Li2 O6 2.083545 1_555
Li3 O14 1.959892 1_555
Li3 O1 1.971081 1_555
Li3 O5 2.002598 1_555
Li3 O10 2.073580 1_556
Li4 O19 1.914866 1_555
Li4 O23 1.966935 1_555
Li4 O8 2.015810 1_555
Li4 O13 2.075814 1_555
Li5 O22 1.916248 1_555
Li5 O9 1.974140 1_555
Li5 O18 2.027871 1_555
Li5 O16 2.051257 1_555
Li6 O12 1.950404 1_555
Li6 O16 1.970284 1_555
Li6 O3 2.004099 1_655
Li6 O19 2.090415 1_555
Li7 O2 1.962628 1_655
Li7 O13 1.998295 1_555
Li7 O17 2.014991 1_565
Li7 O22 2.075174 1_556
Mn0 O10 2.093680 1_555
Mn0 O18 2.106938 1_455
Mn0 O9 2.120719 1_555
Mn0 O0 2.278868 1_555
Mn0 O5 2.287484 1_554
Mn1 O19 2.092187 1_455
Mn1 O8 2.114222 1_555
Mn1 O11 2.115629 1_565
Mn1 O2 2.272158 1_555
Mn1 O3 2.280051 1_555
Mn2 O16 2.086898 1_555
Mn2 O3 2.100813 1_555
Mn2 O0 2.127086 1_555
Mn2 O8 2.256235 1_555
Mn2 O9 2.304593 1_555
Mn3 O1 2.080557 1_565
Mn3 O17 2.094305 1_565
Mn3 O2 2.125706 1_555
Mn3 O7 2.252524 1_556
Mn3 O11 2.302061 1_565
Mn4 O6 2.093606 1_555
Mn4 O23 2.109043 1_555
Mn4 O20 2.124338 1_555
Mn4 O14 2.259312 1_555
Mn4 O15 2.304628 1_555
Mn5 O22 2.092634 1_555
Mn5 O7 2.114039 1_555
Mn5 O21 2.116677 1_565
Mn5 O12 2.261364 1_555
Mn5 O17 2.295256 1_564
Mn6 O4 2.088430 1_655
Mn6 O15 2.094562 1_555
Mn6 O12 2.132563 1_545
Mn6 O20 2.252270 1_555
Mn6 O21 2.309372 1_555
Fe0 O13 2.015019 1_555
Fe0 O5 2.086951 1_655
Fe0 O14 2.092511 1_555
Fe0 O18 2.233602 1_556
Fe0 O23 2.292751 1_555
B0 O22 1.385815 1_455
B0 O9 1.397144 1_555
B0 O7 1.404252 1_555
B1 O6 1.387414 1_555
B1 O23 1.394548 1_455
B1 O8 1.405114 1_555
B2 O4 1.384982 1_565
B2 O3 1.397177 1_555
B2 O12 1.404295 1_555
B3 O5 1.392422 1_555
B3 O13 1.392865 1_555
B3 O2 1.403589 1_555
B4 O10 1.384720 1_555
B4 O21 1.399138 1_555
B4 O18 1.403120 1_555
B5 O19 1.388135 1_545
B5 O11 1.395640 1_555
B5 O20 1.403852 1_555
B6 O16 1.386248 1_555
B6 O15 1.396022 1_555
B6 O0 1.403458 1_655
B7 O1 1.381409 1_655
B7 O17 1.397752 1_555
B7 O14 1.405362 1_555
