# generated using pymatgen
data_CsAu(SO4)2
_symmetry_space_group_name_H-M   'P 1'
_cell_length_a   9.30700500
_cell_length_b   9.24685600
_cell_length_c   10.55066449
_cell_angle_alpha   68.58945725
_cell_angle_beta   90.00000000
_cell_angle_gamma   90.00000000
_symmetry_Int_Tables_number   1
_chemical_formula_structural   CsAu(SO4)2
_chemical_formula_sum   'Cs4 Au4 S8 O32'
_cell_volume   845.33382226
_cell_formula_units_Z   4
loop_
 _symmetry_equiv_pos_site_id
 _symmetry_equiv_pos_as_xyz
  1  'x, y, z'
loop_
 _atom_site_type_symbol
 _atom_site_label
 _atom_site_symmetry_multiplicity
 _atom_site_fract_x
 _atom_site_fract_y
 _atom_site_fract_z
 _atom_site_occupancy
  Cs  Cs0  1  0.86166900  0.38245200  0.75835600  1
  Cs  Cs1  1  0.36409900  0.11399900  0.24530200  1
  Cs  Cs2  1  0.14528200  0.61508400  0.24262800  1
  Cs  Cs3  1  0.64232800  0.88662000  0.75199500  1
  Au  Au0  1  0.64727900  0.62877300  0.28834800  1
  Au  Au1  1  0.85037800  0.13141300  0.28960900  1
  Au  Au2  1  0.14231100  0.86166400  0.71338200  1
  Au  Au3  1  0.35574300  0.36138400  0.71423800  1
  S  S0  1  0.25440700  0.53577300  0.90097900  1
  S  S1  1  0.52390100  0.30326100  0.47596700  1
  S  S2  1  0.23943000  0.04186900  0.89772900  1
  S  S3  1  0.74434400  0.46072700  0.10259400  1
  S  S4  1  0.02891200  0.20095500  0.52311300  1
  S  S5  1  0.97556400  0.80690000  0.47511400  1
  S  S6  1  0.75453200  0.95515700  0.10133000  1
  S  S7  1  0.47002700  0.69741800  0.53000400  1
  O  O0  1  0.29068800  0.95796100  0.80374800  1
  O  O1  1  0.50358000  0.74290200  0.37538800  1
  O  O2  1  0.64876900  0.43480000  0.45083800  1
  O  O3  1  0.49611700  0.25647200  0.63117100  1
  O  O4  1  0.00676700  0.75062100  0.63370900  1
  O  O5  1  0.77145700  0.56654900  0.96102300  1
  O  O6  1  0.79137700  0.54092800  0.20215000  1
  O  O7  1  0.59863000  0.39311200  0.13914000  1
  O  O8  1  0.09658900  0.32987800  0.54241400  1
  O  O9  1  0.14138400  0.06921500  0.54252500  1
  O  O10  1  0.70616800  0.03298300  0.19866900  1
  O  O11  1  0.59418600  0.16353800  0.46701500  1
  O  O12  1  0.26640100  0.93206200  0.03731300  1
  O  O13  1  0.35059000  0.56565300  0.54868800  1
  O  O14  1  0.10157400  0.10585600  0.86050800  1
  O  O15  1  0.09940600  0.87005300  0.38580200  1
  O  O16  1  0.89680200  0.89747600  0.13764000  1
  O  O17  1  0.20772300  0.46185300  0.79589200  1
  O  O18  1  0.63810900  0.83118700  0.12449000  1
  O  O19  1  0.99543200  0.24323200  0.36884300  1
  O  O20  1  0.40055500  0.36798200  0.39057200  1
  O  O21  1  0.59122400  0.62820100  0.61282400  1
  O  O22  1  0.85226500  0.92889900  0.45903300  1
  O  O23  1  0.36100200  0.16934100  0.87513900  1
  O  O24  1  0.40415200  0.82966000  0.53452500  1
  O  O25  1  0.23746100  0.43375600  0.03817600  1
  O  O26  1  0.39615200  0.60954900  0.86286500  1
  O  O27  1  0.72904400  0.06319000  0.96244000  1
  O  O28  1  0.90677300  0.66215600  0.46288700  1
  O  O29  1  0.85915300  0.33710100  0.11629300  1
  O  O30  1  0.14514500  0.67061000  0.87969300  1
  O  O31  1  0.90557000  0.13221800  0.60714800  1
loop_
_geom_bond_atom_site_label_1
_geom_bond_atom_site_label_2
_geom_bond_distance
_geom_bond_site_symmetry_2
Cs0 O27 3.199107 1_555
Cs0 O14 3.267409 1_655
Cs0 O28 3.270648 1_555
Cs0 O31 3.280427 1_555
Cs0 O5 3.291290 1_555
Cs0 O8 3.319056 1_655
Cs0 O17 3.358760 1_655
Cs0 O21 3.362956 1_555
Cs0 O4 3.445923 1_655
Cs0 O29 3.644437 1_556
Cs0 O2 3.679778 1_555
Cs1 O25 3.192122 1_555
Cs1 O24 3.241272 1_545
Cs1 O7 3.251102 1_555
Cs1 O20 3.256991 1_555
Cs1 O15 3.303523 1_545
Cs1 O11 3.324124 1_555
Cs1 O12 3.341842 1_545
Cs1 O10 3.347826 1_555
Cs1 O1 3.450430 1_545
Cs1 O9 3.654283 1_555
Cs1 O23 3.749162 1_554
Cs2 O12 3.149388 1_555
Cs2 O15 3.259282 1_555
Cs2 O20 3.270766 1_555
Cs2 O25 3.292586 1_555
Cs2 O8 3.327855 1_555
Cs2 O28 3.354982 1_455
Cs2 O16 3.358857 1_455
Cs2 O6 3.422789 1_455
Cs2 O19 3.492619 1_455
Cs2 O13 3.634530 1_555
Cs2 O30 3.673012 1_554
Cs3 O11 3.190121 1_565
Cs3 O5 3.209692 1_555
Cs3 O21 3.264042 1_555
Cs3 O27 3.300566 1_565
Cs3 O31 3.310824 1_565
Cs3 O26 3.315676 1_555
Cs3 O24 3.367198 1_555
Cs3 O0 3.421545 1_555
Cs3 O3 3.462655 1_565
Cs3 O22 3.555586 1_555
Cs3 O18 3.773455 1_556
Au0 O6 1.955725 1_555
Au0 O2 1.977726 1_555
Au0 O18 2.033927 1_555
Au0 O1 2.110281 1_555
Au1 O10 2.046457 1_555
Au1 O19 2.054647 1_555
Au1 O22 2.063586 1_545
Au1 O29 2.104447 1_555
Au2 O30 1.984299 1_555
Au2 O4 1.995620 1_555
Au2 O0 2.056391 1_555
Au2 O9 2.099303 1_565
Au3 O23 1.958768 1_555
Au3 O3 2.009175 1_555
Au3 O17 2.021745 1_555
Au3 O13 2.052353 1_555
O0 S2 1.540931 1_565
O1 S7 1.560332 1_555
O2 S1 1.632445 1_555
O3 S1 1.555065 1_555
O4 S5 1.587223 1_455
O5 S3 1.478217 1_556
O6 S3 1.553583 1_555
O7 S3 1.484165 1_555
O8 S4 1.427104 1_555
O9 S4 1.561890 1_555
O10 S6 1.521448 1_545
O11 S1 1.481613 1_555
O12 S2 1.473466 1_564
O13 S7 1.607385 1_555
O14 S2 1.407415 1_555
O15 S5 1.468223 1_455
O16 S6 1.426647 1_555
O17 S0 1.561600 1_555
O18 S6 1.530803 1_555
O19 S4 1.560324 1_655
O20 S1 1.447103 1_555
O21 S7 1.427308 1_555
O22 S5 1.574335 1_555
O23 S2 1.587858 1_555
O24 S7 1.384213 1_555
O25 S0 1.418847 1_554
O26 S0 1.472126 1_555
O27 S6 1.460406 1_546
O28 S5 1.531010 1_555
O29 S3 1.532582 1_555
O30 S0 1.560335 1_555
O31 S4 1.447906 1_655
