# generated using pymatgen
data_Li4Fe3Co3(SnO8)2
_symmetry_space_group_name_H-M   'P 1'
_cell_length_a   5.94431180
_cell_length_b   5.94431180
_cell_length_c   9.79055969
_cell_angle_alpha   89.42100233
_cell_angle_beta   89.42100233
_cell_angle_gamma   60.31935315
_symmetry_Int_Tables_number   1
_chemical_formula_structural   Li4Fe3Co3(SnO8)2
_chemical_formula_sum   'Li4 Fe3 Co3 Sn2 O16'
_cell_volume   300.53858812
_cell_formula_units_Z   1
loop_
 _symmetry_equiv_pos_site_id
 _symmetry_equiv_pos_as_xyz
  1  'x, y, z'
loop_
 _atom_site_type_symbol
 _atom_site_label
 _atom_site_symmetry_multiplicity
 _atom_site_fract_x
 _atom_site_fract_y
 _atom_site_fract_z
 _atom_site_occupancy
  Li  Li0  1  0.66495400  0.66495400  0.10500900  1
  Li  Li1  1  0.00297900  0.00297900  0.00510000  1
  Li  Li2  1  0.00227500  0.00227500  0.50647400  1
  Li  Li3  1  0.33165500  0.33165500  0.60622500  1
  Fe  Fe0  1  0.83077900  0.83077900  0.78643100  1
  Fe  Fe1  1  0.17032800  0.66190100  0.28564100  1
  Fe  Fe2  1  0.66190100  0.17032800  0.28564100  1
  Co  Co0  1  0.33872600  0.83281000  0.78560200  1
  Co  Co1  1  0.83281000  0.33872600  0.78560200  1
  Co  Co2  1  0.16993200  0.16993200  0.28580200  1
  Sn  Sn0  1  0.66609300  0.66609300  0.51015200  1
  Sn  Sn1  1  0.33351300  0.33351300  0.00989700  1
  O  O0  1  0.32355400  0.84087100  0.39957300  1
  O  O1  1  0.51611600  0.51611600  0.66341200  1
  O  O2  1  0.66137400  0.66137400  0.89142700  1
  O  O3  1  0.00359700  0.00359700  0.69336000  1
  O  O4  1  0.00443000  0.00443000  0.19204200  1
  O  O5  1  0.84087100  0.32355400  0.39957300  1
  O  O6  1  0.51134200  0.96488100  0.66226400  1
  O  O7  1  0.96488100  0.51134200  0.66226400  1
  O  O8  1  0.16284900  0.16284900  0.89589900  1
  O  O9  1  0.83954400  0.83954400  0.40186200  1
  O  O10  1  0.03337000  0.47785500  0.16103100  1
  O  O11  1  0.47785500  0.03337000  0.16103100  1
  O  O12  1  0.32988400  0.32988400  0.39326200  1
  O  O13  1  0.16292200  0.67866600  0.89961900  1
  O  O14  1  0.48266300  0.48266300  0.15918300  1
  O  O15  1  0.67866600  0.16292200  0.89961900  1
loop_
_geom_bond_atom_site_label_1
_geom_bond_atom_site_label_2
_geom_bond_distance
_geom_bond_site_symmetry_2
Li0 O14 1.941459 1_555
Li0 O10 1.983341 1_655
Li0 O11 1.983341 1_565
Li0 O2 2.091841 1_554
Li1 O4 1.830502 1_555
Li1 O8 1.950017 1_554
Li1 O13 1.972855 1_544
Li1 O15 1.972855 1_454
Li2 O3 1.829928 1_555
Li2 O0 1.956656 1_545
Li2 O5 1.956656 1_455
Li2 O9 1.971586 1_445
Li3 O6 1.968935 1_545
Li3 O7 1.968935 1_455
Li3 O1 1.983322 1_555
Li3 O12 2.085319 1_555
Fe0 O3 1.987011 1_665
Fe0 O2 2.011765 1_555
Fe0 O13 2.049327 1_655
Fe0 O15 2.049327 1_565
Fe0 O7 2.060802 1_555
Fe0 O6 2.060802 1_555
Fe1 O4 1.987467 1_565
Fe1 O12 2.007317 1_555
Fe1 O14 2.033786 1_555
Fe1 O9 2.049120 1_455
Fe1 O0 2.051770 1_555
Fe1 O10 2.068139 1_555
Fe2 O4 1.987467 1_655
Fe2 O12 2.007317 1_555
Fe2 O14 2.033786 1_555
Fe2 O9 2.049120 1_545
Fe2 O5 2.051770 1_555
Fe2 O11 2.068139 1_555
Co0 O3 1.956968 1_565
Co0 O2 1.968152 1_555
Co0 O6 1.970004 1_555
Co0 O13 2.020348 1_555
Co0 O8 2.024048 1_565
Co0 O1 2.034973 1_555
Co1 O3 1.956968 1_655
Co1 O2 1.968152 1_555
Co1 O7 1.970004 1_555
Co1 O15 2.020348 1_555
Co1 O8 2.024048 1_655
Co1 O1 2.034973 1_555
Co2 O4 1.942514 1_555
Co2 O12 1.962315 1_555
Co2 O10 2.001229 1_555
Co2 O11 2.001229 1_555
Co2 O5 2.026895 1_455
Co2 O0 2.026895 1_545
O0 Sn0 2.079484 1_555
O1 Sn0 2.138719 1_555
O5 Sn0 2.079484 1_555
O6 Sn0 2.150896 1_555
O7 Sn0 2.150896 1_555
O8 Sn1 2.090219 1_556
O9 Sn0 2.063680 1_555
O10 Sn1 2.136613 1_555
O11 Sn1 2.136613 1_555
O13 Sn1 2.078563 1_556
O14 Sn1 2.130535 1_555
O15 Sn1 2.078563 1_556
