# generated using pymatgen
data_LiCoSiO4
_symmetry_space_group_name_H-M   'P 1'
_cell_length_a   8.51249886
_cell_length_b   8.51249886
_cell_length_c   8.51249912
_cell_angle_alpha   107.18574848
_cell_angle_beta   107.18574848
_cell_angle_gamma   107.18574315
_symmetry_Int_Tables_number   1
_chemical_formula_structural   LiCoSiO4
_chemical_formula_sum   'Li6 Co6 Si6 O24'
_cell_volume   511.08341809
_cell_formula_units_Z   6
loop_
 _symmetry_equiv_pos_site_id
 _symmetry_equiv_pos_as_xyz
  1  'x, y, z'
loop_
 _atom_site_type_symbol
 _atom_site_label
 _atom_site_symmetry_multiplicity
 _atom_site_fract_x
 _atom_site_fract_y
 _atom_site_fract_z
 _atom_site_occupancy
  Li  Li0  1  0.45605700  0.05477100  0.22838400  1
  Li  Li1  1  0.77161600  0.54394300  0.94522900  1
  Li  Li2  1  0.94522900  0.77161600  0.54394300  1
  Li  Li3  1  0.05477100  0.22838400  0.45605700  1
  Li  Li4  1  0.22838400  0.45605700  0.05477100  1
  Li  Li5  1  0.54394300  0.94522900  0.77161600  1
  Co  Co0  1  0.80054000  0.39561500  0.56841100  1
  Co  Co1  1  0.43158900  0.19946000  0.60438500  1
  Co  Co2  1  0.60438500  0.43158900  0.19946000  1
  Co  Co3  1  0.39561500  0.56841100  0.80054000  1
  Co  Co4  1  0.56841100  0.80054000  0.39561500  1
  Co  Co5  1  0.19946000  0.60438500  0.43158900  1
  Si  Si0  1  0.90476900  0.13301600  0.73043800  1
  Si  Si1  1  0.86698400  0.26956200  0.09523100  1
  Si  Si2  1  0.26956200  0.09523100  0.86698400  1
  Si  Si3  1  0.73043800  0.90476900  0.13301600  1
  Si  Si4  1  0.13301600  0.73043800  0.90476900  1
  Si  Si5  1  0.09523100  0.86698400  0.26956200  1
  O  O0  1  0.96049700  0.26276000  0.94656800  1
  O  O1  1  0.73724000  0.05343200  0.03950300  1
  O  O2  1  0.92845400  0.25114400  0.61379300  1
  O  O3  1  0.74885600  0.38620700  0.07154600  1
  O  O4  1  0.97309100  0.64137300  0.70048500  1
  O  O5  1  0.63766400  0.29839200  0.34142000  1
  O  O6  1  0.38620700  0.07154600  0.74885600  1
  O  O7  1  0.65858000  0.36233600  0.70160800  1
  O  O8  1  0.29951500  0.02690900  0.35862700  1
  O  O9  1  0.35862700  0.29951500  0.02690900  1
  O  O10  1  0.70160800  0.65858000  0.36233600  1
  O  O11  1  0.05343200  0.03950300  0.73724000  1
  O  O12  1  0.94656800  0.96049700  0.26276000  1
  O  O13  1  0.29839200  0.34142000  0.63766400  1
  O  O14  1  0.64137300  0.70048500  0.97309100  1
  O  O15  1  0.70048500  0.97309100  0.64137300  1
  O  O16  1  0.34142000  0.63766400  0.29839200  1
  O  O17  1  0.61379300  0.92845400  0.25114400  1
  O  O18  1  0.36233600  0.70160800  0.65858000  1
  O  O19  1  0.02690900  0.35862700  0.29951500  1
  O  O20  1  0.25114400  0.61379300  0.92845400  1
  O  O21  1  0.07154600  0.74885600  0.38620700  1
  O  O22  1  0.26276000  0.94656800  0.96049700  1
  O  O23  1  0.03950300  0.73724000  0.05343200  1
loop_
_geom_bond_atom_site_label_1
_geom_bond_atom_site_label_2
_geom_bond_distance
_geom_bond_site_symmetry_2
Li0 O5 1.914084 1_555
Li0 O17 1.954289 1_545
Li0 O8 1.975566 1_555
Li0 O22 2.098055 1_544
Li1 O7 1.914084 1_555
Li1 O3 1.954289 1_556
Li1 O14 1.975566 1_555
Li1 O23 2.098055 1_656
Li2 O10 1.914084 1_555
Li2 O21 1.954289 1_655
Li2 O4 1.975566 1_555
Li2 O11 2.098055 1_665
Li3 O13 1.914084 1_555
Li3 O2 1.954289 1_455
Li3 O19 1.975566 1_555
Li3 O12 2.098055 1_445
Li4 O16 1.914084 1_555
Li4 O20 1.954289 1_554
Li4 O9 1.975566 1_555
Li4 O0 2.098055 1_454
Li5 O18 1.914084 1_555
Li5 O6 1.954289 1_565
Li5 O15 1.975566 1_555
Li5 O1 2.098055 1_566
Co0 O5 1.770495 1_555
Co0 O4 1.901680 1_555
Co0 O7 1.903512 1_555
Co0 O2 1.915935 1_555
Co1 O7 1.770495 1_555
Co1 O8 1.901680 1_555
Co1 O13 1.903512 1_555
Co1 O6 1.915935 1_555
Co2 O10 1.770495 1_555
Co2 O9 1.901680 1_555
Co2 O5 1.903512 1_555
Co2 O3 1.915935 1_555
Co3 O13 1.770495 1_555
Co3 O14 1.901680 1_555
Co3 O18 1.903512 1_555
Co3 O20 1.915935 1_555
Co4 O16 1.770495 1_555
Co4 O15 1.901680 1_555
Co4 O10 1.903512 1_555
Co4 O17 1.915935 1_555
Co5 O18 1.770495 1_555
Co5 O19 1.901680 1_555
Co5 O16 1.903512 1_555
Co5 O21 1.915935 1_555
O0 Si0 1.674391 1_555
O0 Si1 1.678607 1_556
O1 Si1 1.674391 1_555
O1 Si3 1.678607 1_545
O2 Si0 1.620577 1_555
O3 Si1 1.620577 1_555
O4 Si4 1.632211 1_655
O6 Si2 1.620577 1_555
O8 Si5 1.632211 1_545
O9 Si2 1.632211 1_554
O11 Si2 1.674391 1_555
O11 Si0 1.678607 1_455
O12 Si3 1.674391 1_555
O12 Si5 1.678607 1_655
O14 Si3 1.632211 1_556
O15 Si0 1.632211 1_565
O17 Si3 1.620577 1_555
O19 Si1 1.632211 1_455
O20 Si4 1.620577 1_555
O21 Si5 1.620577 1_555
O22 Si4 1.674391 1_555
O22 Si2 1.678607 1_565
O23 Si5 1.674391 1_555
O23 Si4 1.678607 1_554
