# generated using pymatgen
data_Cr(PO3)2
_symmetry_space_group_name_H-M   'P 1'
_cell_length_a   5.68438059
_cell_length_b   5.68438059
_cell_length_c   16.51113385
_cell_angle_alpha   87.39548521
_cell_angle_beta   87.39548521
_cell_angle_gamma   89.88393917
_symmetry_Int_Tables_number   1
_chemical_formula_structural   Cr(PO3)2
_chemical_formula_sum   'Cr4 P8 O24'
_cell_volume   532.40910059
_cell_formula_units_Z   4
loop_
 _symmetry_equiv_pos_site_id
 _symmetry_equiv_pos_as_xyz
  1  'x, y, z'
loop_
 _atom_site_type_symbol
 _atom_site_label
 _atom_site_symmetry_multiplicity
 _atom_site_fract_x
 _atom_site_fract_y
 _atom_site_fract_z
 _atom_site_occupancy
  Cr  Cr0  1  0.06409400  0.85236100  0.90654700  1
  Cr  Cr1  1  0.85236100  0.06409400  0.40654700  1
  Cr  Cr2  1  0.67696700  0.06342500  0.61506900  1
  Cr  Cr3  1  0.06342500  0.67696700  0.11506900  1
  P  P0  1  0.00420900  0.56272400  0.65038600  1
  P  P1  1  0.56272400  0.00420900  0.15038600  1
  P  P2  1  0.56506400  0.52226200  0.87356700  1
  P  P3  1  0.27281300  0.79137300  0.51111200  1
  P  P4  1  0.52226200  0.56506400  0.37356700  1
  P  P5  1  0.79137300  0.27281300  0.01111200  1
  P  P6  1  0.29476900  0.25607100  0.75938100  1
  P  P7  1  0.25607100  0.29476900  0.25938100  1
  O  O0  1  0.88375700  0.79014500  0.66572900  1
  O  O1  1  0.79014500  0.88375700  0.16572900  1
  O  O2  1  0.77225000  0.67969200  0.85946000  1
  O  O3  1  0.67969200  0.77225000  0.35946000  1
  O  O4  1  0.50422300  0.91151800  0.52362000  1
  O  O5  1  0.91151800  0.50422300  0.02362000  1
  O  O6  1  0.86291700  0.36270500  0.62188800  1
  O  O7  1  0.36270500  0.86291700  0.12188800  1
  O  O8  1  0.33451700  0.62219600  0.90349200  1
  O  O9  1  0.62654800  0.30171400  0.93522600  1
  O  O10  1  0.05600600  0.93954300  0.49906800  1
  O  O11  1  0.62219600  0.33451700  0.40349200  1
  O  O12  1  0.52527900  0.38440600  0.79199400  1
  O  O13  1  0.30171400  0.62654800  0.43522600  1
  O  O14  1  0.93954300  0.05600600  0.99906800  1
  O  O15  1  0.38440600  0.52527900  0.29199400  1
  O  O16  1  0.22648000  0.60506100  0.58554300  1
  O  O17  1  0.60506100  0.22648000  0.08554300  1
  O  O18  1  0.13992200  0.48147100  0.73026000  1
  O  O19  1  0.48147100  0.13992200  0.23026000  1
  O  O20  1  0.37852300  0.12007200  0.68823500  1
  O  O21  1  0.12007200  0.37852300  0.18823500  1
  O  O22  1  0.15994700  0.13170500  0.82806900  1
  O  O23  1  0.13170500  0.15994700  0.32806900  1
loop_
_geom_bond_atom_site_label_1
_geom_bond_atom_site_label_2
_geom_bond_distance
_geom_bond_site_symmetry_2
Cr0 O8 2.016943 1_555
Cr0 O14 2.057676 1_465
Cr0 O22 2.061465 1_565
Cr0 O2 2.124408 1_455
Cr1 O11 2.016943 1_555
Cr1 O10 2.057676 1_645
Cr1 O23 2.061465 1_655
Cr1 O3 2.124408 1_545
Cr2 O6 2.014848 1_555
Cr2 O4 2.060679 1_545
Cr2 O20 2.070741 1_555
Cr2 O0 2.111492 1_545
Cr3 O7 2.014848 1_555
Cr3 O5 2.060679 1_455
Cr3 O21 2.070741 1_555
Cr3 O1 2.111492 1_455
O0 P0 1.488151 1_655
O1 P1 1.488151 1_565
O2 P2 1.484087 1_555
O3 P4 1.484087 1_555
O4 P3 1.510151 1_555
O5 P5 1.510151 1_555
O6 P0 1.498621 1_655
O7 P1 1.498621 1_565
O8 P2 1.499308 1_555
O9 P5 1.600657 1_556
O9 P2 1.626306 1_555
O10 P3 1.506860 1_555
O11 P4 1.499308 1_555
O12 P2 1.613560 1_555
O12 P6 1.625650 1_555
O13 P3 1.600657 1_555
O13 P4 1.626306 1_555
O14 P5 1.506860 1_556
O15 P4 1.613560 1_555
O15 P7 1.625650 1_555
O16 P3 1.598347 1_555
O16 P0 1.629542 1_555
O17 P5 1.598347 1_555
O17 P1 1.629542 1_555
O18 P0 1.607288 1_555
O18 P6 1.620336 1_555
O19 P1 1.607288 1_555
O19 P7 1.620336 1_555
O20 P6 1.494803 1_555
O21 P7 1.494803 1_555
O22 P6 1.491195 1_555
O23 P7 1.491195 1_555
