# generated using pymatgen
data_Li4Cr2Cu3Sb3O16
_symmetry_space_group_name_H-M   'P 1'
_cell_length_a   6.10457174
_cell_length_b   6.01675794
_cell_length_c   9.63337781
_cell_angle_alpha   89.99010580
_cell_angle_beta   88.29468716
_cell_angle_gamma   119.56662269
_symmetry_Int_Tables_number   1
_chemical_formula_structural   Li4Cr2Cu3Sb3O16
_chemical_formula_sum   'Li4 Cr2 Cu3 Sb3 O16'
_cell_volume   307.57512042
_cell_formula_units_Z   1
loop_
 _symmetry_equiv_pos_site_id
 _symmetry_equiv_pos_as_xyz
  1  'x, y, z'
loop_
 _atom_site_type_symbol
 _atom_site_label
 _atom_site_symmetry_multiplicity
 _atom_site_fract_x
 _atom_site_fract_y
 _atom_site_fract_z
 _atom_site_occupancy
  Li  Li0  1  0.33927600  0.66963100  0.90448600  1
  Li  Li1  1  0.01127300  0.00545500  0.00515800  1
  Li  Li2  1  0.06548500  0.03286900  0.48048400  1
  Li  Li3  1  0.67983600  0.33985800  0.38488100  1
  Cr  Cr0  1  0.31601500  0.65805500  0.47797100  1
  Cr  Cr1  1  0.64333700  0.32179800  0.99553100  1
  Cu  Cu0  1  0.16611500  0.82969000  0.21150900  1
  Cu  Cu1  1  0.16620200  0.33657200  0.21153800  1
  Cu  Cu2  1  0.33700300  0.16842100  0.71977000  1
  Sb  Sb0  1  0.65267000  0.82634600  0.21551800  1
  Sb  Sb1  1  0.83059600  0.66288700  0.71302400  1
  Sb  Sb2  1  0.83047800  0.16767100  0.71301700  1
  O  O0  1  0.15388200  0.83294100  0.60170700  1
  O  O1  1  0.04859600  0.52464200  0.34389700  1
  O  O2  1  0.33556700  0.66784000  0.10852300  1
  O  O3  1  0.98796000  0.99400400  0.30185300  1
  O  O4  1  0.97070700  0.98534000  0.82096900  1
  O  O5  1  0.15364800  0.32094200  0.60165800  1
  O  O6  1  0.49350600  0.96571900  0.35201900  1
  O  O7  1  0.49200700  0.52651400  0.35162400  1
  O  O8  1  0.32004800  0.15994100  0.09144100  1
  O  O9  1  0.68288600  0.84140400  0.59998200  1
  O  O10  1  0.52485200  0.48723600  0.83881000  1
  O  O11  1  0.52497200  0.03763800  0.83890300  1
  O  O12  1  0.69702900  0.34861900  0.59621200  1
  O  O13  1  0.80651000  0.66074700  0.09353800  1
  O  O14  1  0.96224100  0.48112000  0.84010400  1
  O  O15  1  0.80730300  0.14640400  0.09371600  1
loop_
_geom_bond_atom_site_label_1
_geom_bond_atom_site_label_2
_geom_bond_distance
_geom_bond_site_symmetry_2
Li0 O2 1.964988 1_556
Li0 O11 2.016617 1_565
Li0 O10 2.018043 1_555
Li0 O14 2.116028 1_455
Li1 O4 1.794710 1_444
Li1 O8 1.863417 1_555
Li1 O13 1.991610 1_445
Li1 O15 1.994121 1_455
Li2 O3 1.783051 1_445
Li2 O5 1.942676 1_555
Li2 O0 1.944109 1_545
Li2 O9 2.300340 1_445
Li3 O1 1.984072 1_655
Li3 O6 1.989034 1_545
Li3 O7 1.992786 1_555
Li3 O12 2.041004 1_555
Cr0 O1 1.951966 1_555
Cr0 O6 2.003621 1_555
Cr0 O7 2.005922 1_555
Cr0 O5 2.112134 1_555
Cr0 O0 2.113218 1_555
Cr0 O9 2.309366 1_555
Cr1 O8 1.921294 1_556
Cr1 O13 2.023499 1_556
Cr1 O15 2.026973 1_556
Cr1 O10 2.137366 1_555
Cr1 O11 2.137408 1_555
Cr1 O14 2.221497 1_555
Cu0 O3 1.980579 1_455
Cu0 O2 1.983935 1_555
Cu0 O1 2.038422 1_555
Cu0 O8 2.064228 1_565
Cu0 O6 2.245777 1_555
Cu0 O13 2.256234 1_455
Cu1 O3 1.979648 1_445
Cu1 O2 1.982684 1_555
Cu1 O1 2.041915 1_555
Cu1 O8 2.066570 1_555
Cu1 O7 2.236088 1_555
Cu1 O15 2.252140 1_455
Cu2 O10 2.053747 1_555
Cu2 O11 2.054784 1_555
Cu2 O0 2.113577 1_545
Cu2 O5 2.116300 1_555
Cu2 O4 2.145447 1_445
Cu2 O12 2.216954 1_555
O0 Sb1 1.993125 1_455
O2 Sb0 2.004084 1_555
O3 Sb0 1.990653 1_555
O4 Sb1 1.998244 1_555
O4 Sb2 1.999288 1_565
O5 Sb2 1.992869 1_455
O6 Sb0 2.026036 1_555
O7 Sb0 2.027826 1_555
O9 Sb2 2.040783 1_565
O9 Sb1 2.041191 1_555
O10 Sb1 1.996784 1_555
O11 Sb2 1.996506 1_555
O12 Sb1 2.010061 1_555
O12 Sb2 2.011098 1_555
O13 Sb0 2.028221 1_555
O14 Sb2 2.065185 1_555
O14 Sb1 2.065438 1_555
O15 Sb0 2.028689 1_545
