# generated using pymatgen
data_Li2VO2F
_symmetry_space_group_name_H-M   'P 1'
_cell_length_a   3.02449500
_cell_length_b   8.94934400
_cell_length_c   9.10033269
_cell_angle_alpha   70.35046869
_cell_angle_beta   90.00000000
_cell_angle_gamma   90.00000000
_symmetry_Int_Tables_number   1
_chemical_formula_structural   Li2VO2F
_chemical_formula_sum   'Li8 V4 O8 F4'
_cell_volume   231.97696427
_cell_formula_units_Z   4
loop_
 _symmetry_equiv_pos_site_id
 _symmetry_equiv_pos_as_xyz
  1  'x, y, z'
loop_
 _atom_site_type_symbol
 _atom_site_label
 _atom_site_symmetry_multiplicity
 _atom_site_fract_x
 _atom_site_fract_y
 _atom_site_fract_z
 _atom_site_occupancy
  Li  Li0  1  0.00000000  0.25566100  0.88037900  1
  Li  Li1  1  0.00000000  0.73611200  0.41694000  1
  Li  Li2  1  0.00000000  0.25602900  0.62145900  1
  Li  Li3  1  0.00000000  0.75022100  0.08464600  1
  Li  Li4  1  0.50000000  0.47349300  0.67194700  1
  Li  Li5  1  0.50000000  0.02699200  0.83593400  1
  Li  Li6  1  0.50000000  0.50604800  0.34060300  1
  Li  Li7  1  0.50000000  0.00230600  0.13657300  1
  V  V0  1  0.00000000  0.25704200  0.24508900  1
  V  V1  1  0.00000000  0.74700000  0.75213600  1
  V  V2  1  0.50000000  0.00223700  0.52068600  1
  V  V3  1  0.50000000  0.49892800  0.99717600  1
  O  O0  1  0.00000000  0.50940500  0.84117100  1
  O  O1  1  0.00000000  0.99114400  0.66251800  1
  O  O2  1  0.00000000  0.49648700  0.15707200  1
  O  O3  1  0.50000000  0.25436500  0.09587800  1
  O  O4  1  0.50000000  0.23270600  0.39855300  1
  O  O5  1  0.50000000  0.74093400  0.90834300  1
  O  O6  1  0.50000000  0.76479400  0.58757200  1
  O  O7  1  0.50000000  0.24959300  0.74997300  1
  F  F0  1  0.00000000  0.99739000  0.34328100  1
  F  F1  1  0.00000000  0.98769300  0.01121600  1
  F  F2  1  0.00000000  0.50767100  0.48836500  1
  F  F3  1  0.50000000  0.75574700  0.25248900  1
loop_
_geom_bond_atom_site_label_1
_geom_bond_atom_site_label_2
_geom_bond_distance
_geom_bond_site_symmetry_2
Li0 O7 1.934304 1_455
Li0 O7 1.934304 1_555
Li0 O0 2.176951 1_555
Li0 O3 2.473397 1_456
Li0 O3 2.473397 1_556
Li1 O6 2.243224 1_555
Li1 O6 2.243224 1_455
Li2 O7 1.900706 1_555
Li2 O7 1.900706 1_455
Li2 O1 2.272314 1_545
Li2 O4 2.594244 1_455
Li2 O4 2.594244 1_555
Li3 O2 2.141071 1_555
Li3 O5 2.226574 1_554
Li3 O5 2.226574 1_454
Li4 O7 1.887422 1_555
Li4 O0 2.257128 1_555
Li4 O0 2.257128 1_655
Li4 O6 2.457552 1_555
Li5 O7 1.879488 1_555
Li5 O1 2.284918 1_545
Li5 O1 2.284918 1_645
Li5 O5 2.419393 1_545
Li6 O2 2.275933 1_555
Li6 O2 2.275933 1_655
Li6 O4 2.322619 1_555
Li7 O3 2.159580 1_555
O0 V1 2.004761 1_555
O0 V3 2.054678 1_555
O0 V3 2.054678 1_455
O1 V2 1.968890 1_465
O1 V2 1.968890 1_565
O1 V1 2.059281 1_555
O2 V0 2.019691 1_555
O2 V3 2.093640 1_554
O2 V3 2.093640 1_454
O3 V0 2.037929 1_655
O3 V0 2.037929 1_555
O3 V3 2.067601 1_554
O4 V2 1.986881 1_555
O4 V0 2.019947 1_655
O4 V0 2.019947 1_555
O5 V3 2.041248 1_555
O5 V1 2.063663 1_555
O5 V1 2.063663 1_655
O6 V2 2.004015 1_565
O6 V1 2.096338 1_655
O6 V1 2.096338 1_555
F0 V0 2.191272 1_565
F0 Li1 2.205154 1_555
F0 V2 2.223129 1_565
F0 V2 2.223129 1_465
F0 Li7 2.402447 1_465
F0 Li7 2.402447 1_565
F1 Li7 1.925028 1_465
F1 Li7 1.925028 1_565
F1 Li3 2.001999 1_555
F1 Li5 2.139559 1_564
F1 Li5 2.139559 1_464
F1 Li0 2.290941 1_564
F2 Li1 1.925711 1_555
F2 Li6 2.026922 1_555
F2 Li6 2.026922 1_455
F2 Li2 2.168919 1_555
F2 Li4 2.197243 1_455
F2 Li4 2.197243 1_555
F3 Li1 2.092988 1_555
F3 Li1 2.092988 1_655
F3 Li7 2.101472 1_565
F3 Li6 2.105117 1_555
F3 Li3 2.161752 1_555
F3 Li3 2.161752 1_655
