# generated using pymatgen
data_CeMo12(NO27)2
_symmetry_space_group_name_H-M   'P 1'
_cell_length_a   10.53845597
_cell_length_b   10.53845597
_cell_length_c   10.53845636
_cell_angle_alpha   76.50065114
_cell_angle_beta   76.50065110
_cell_angle_gamma   76.50065218
_symmetry_Int_Tables_number   1
_chemical_formula_structural   CeMo12(NO27)2
_chemical_formula_sum   'Ce1 Mo12 N2 O54'
_cell_volume   1086.61565943
_cell_formula_units_Z   1
loop_
 _symmetry_equiv_pos_site_id
 _symmetry_equiv_pos_as_xyz
  1  'x, y, z'
loop_
 _atom_site_type_symbol
 _atom_site_label
 _atom_site_symmetry_multiplicity
 _atom_site_fract_x
 _atom_site_fract_y
 _atom_site_fract_z
 _atom_site_occupancy
  Ce  Ce0  1  0.00000000  0.00000000  0.00000000  1
  Mo  Mo0  1  0.14879734  0.06988121  0.65553856  1
  Mo  Mo1  1  0.06988121  0.65553856  0.14879734  1
  Mo  Mo2  1  0.65553856  0.14879734  0.06988121  1
  Mo  Mo3  1  0.85120266  0.93011879  0.34446144  1
  Mo  Mo4  1  0.93011879  0.34446144  0.85120266  1
  Mo  Mo5  1  0.34446144  0.85120266  0.93011879  1
  Mo  Mo6  1  0.83252373  0.06371108  0.71948435  1
  Mo  Mo7  1  0.06371108  0.71948435  0.83252373  1
  Mo  Mo8  1  0.71948435  0.83252373  0.06371108  1
  Mo  Mo9  1  0.16747627  0.93628892  0.28051565  1
  Mo  Mo10  1  0.93628892  0.28051565  0.16747627  1
  Mo  Mo11  1  0.28051565  0.16747627  0.93628892  1
  N  N0  1  0.63817488  0.63817488  0.63817488  1
  N  N1  1  0.36182512  0.36182512  0.36182512  1
  O  O0  1  0.21487114  0.20992815  0.57386159  1
  O  O1  1  0.20992815  0.57386159  0.21487114  1
  O  O2  1  0.57386159  0.21487114  0.20992815  1
  O  O3  1  0.78512886  0.79007185  0.42613841  1
  O  O4  1  0.79007185  0.42613841  0.78512886  1
  O  O5  1  0.42613841  0.78512886  0.79007185  1
  O  O6  1  0.96966305  0.17271087  0.79213242  1
  O  O7  1  0.17271087  0.79213242  0.96966305  1
  O  O8  1  0.79213242  0.96966305  0.17271087  1
  O  O9  1  0.03033695  0.82728913  0.20786758  1
  O  O10  1  0.82728913  0.20786758  0.03033695  1
  O  O11  1  0.20786758  0.03033695  0.82728913  1
  O  O12  1  0.25509112  0.93900739  0.58182879  1
  O  O13  1  0.93900739  0.58182879  0.25509112  1
  O  O14  1  0.58182879  0.25509112  0.93900739  1
  O  O15  1  0.74490888  0.06099261  0.41817121  1
  O  O16  1  0.06099261  0.41817121  0.74490888  1
  O  O17  1  0.41817121  0.74490888  0.06099261  1
  O  O18  1  0.02456179  0.91336359  0.78751341  1
  O  O19  1  0.91336359  0.78751341  0.02456179  1
  O  O20  1  0.78751341  0.02456179  0.91336359  1
  O  O21  1  0.97543821  0.08663641  0.21248659  1
  O  O22  1  0.08663641  0.21248659  0.97543821  1
  O  O23  1  0.21248659  0.97543821  0.08663641  1
  O  O24  1  0.99127639  0.09244147  0.57999590  1
  O  O25  1  0.09244147  0.57999590  0.99127639  1
  O  O26  1  0.57999590  0.99127639  0.09244147  1
  O  O27  1  0.00872361  0.90755853  0.42000410  1
  O  O28  1  0.90755853  0.42000410  0.00872361  1
  O  O29  1  0.42000410  0.00872361  0.90755853  1
  O  O30  1  0.72030186  0.20604423  0.67048579  1
  O  O31  1  0.20604423  0.67048579  0.72030186  1
  O  O32  1  0.67048579  0.72030186  0.20604423  1
  O  O33  1  0.27969814  0.79395577  0.32951421  1
  O  O34  1  0.79395577  0.32951421  0.27969814  1
  O  O35  1  0.32951421  0.27969814  0.79395577  1
  O  O36  1  0.77705365  0.93963279  0.67653174  1
  O  O37  1  0.93963279  0.67653174  0.77705365  1
  O  O38  1  0.67653174  0.77705365  0.93963279  1
  O  O39  1  0.22294635  0.06036721  0.32346826  1
  O  O40  1  0.06036721  0.32346826  0.22294635  1
  O  O41  1  0.32346826  0.22294635  0.06036721  1
  O  O42  1  0.88773729  0.48618825  0.46369852  1
  O  O43  1  0.48618825  0.46369852  0.88773729  1
  O  O44  1  0.46369852  0.88773729  0.48618825  1
  O  O45  1  0.11226271  0.51381175  0.53630148  1
  O  O46  1  0.51381175  0.53630148  0.11226271  1
  O  O47  1  0.53630148  0.11226271  0.51381175  1
  O  O48  1  0.49932601  0.49037597  0.76936774  1
  O  O49  1  0.49037597  0.76936773  0.49932601  1
  O  O50  1  0.76936773  0.49932601  0.49037597  1
  O  O51  1  0.50067399  0.50962403  0.23063226  1
  O  O52  1  0.50962403  0.23063227  0.50067399  1
  O  O53  1  0.23063227  0.50067399  0.50962403  1
loop_
_geom_bond_atom_site_label_1
_geom_bond_atom_site_label_2
_geom_bond_distance
_geom_bond_site_symmetry_2
Ce0 O8 2.531319 1_445
Ce0 O11 2.531319 1_554
Ce0 O7 2.531319 1_544
Ce0 O10 2.531319 1_455
Ce0 O6 2.531319 1_454
Ce0 O9 2.531319 1_545
Ce0 O22 2.547261 1_554
Ce0 O19 2.547261 1_445
Ce0 O23 2.547261 1_545
Ce0 O20 2.547261 1_454
Ce0 O18 2.547261 1_544
Ce0 O21 2.547261 1_455
Mo0 O0 1.735178 1_555
Mo0 O12 1.770043 1_545
Mo0 O24 1.946885 1_455
Mo0 O11 1.972309 1_555
Mo0 O6 2.305370 1_455
Mo0 O18 2.335862 1_545
Mo1 O1 1.735178 1_555
Mo1 O13 1.770043 1_455
Mo1 O25 1.946885 1_554
Mo1 O9 1.972309 1_555
Mo1 O7 2.305370 1_554
Mo1 O19 2.335863 1_455
Mo2 O2 1.735178 1_555
Mo2 O14 1.770043 1_554
Mo2 O26 1.946885 1_545
Mo2 O10 1.972309 1_555
Mo2 O8 2.305370 1_545
Mo2 O20 2.335863 1_554
Mo3 O3 1.735178 1_555
Mo3 O15 1.770043 1_565
Mo3 O27 1.946885 1_655
Mo3 O8 1.972309 1_555
Mo3 O9 2.305370 1_655
Mo3 O21 2.335862 1_565
Mo4 O4 1.735178 1_555
Mo4 O16 1.770043 1_655
Mo4 O28 1.946885 1_556
Mo4 O6 1.972309 1_555
Mo4 O10 2.305370 1_556
Mo4 O22 2.335863 1_655
Mo5 O5 1.735178 1_555
Mo5 O17 1.770043 1_556
Mo5 O29 1.946885 1_565
Mo5 O7 1.972309 1_555
Mo5 O11 2.305370 1_565
Mo5 O23 2.335863 1_556
Mo6 O30 1.735081 1_555
Mo6 O36 1.735844 1_545
Mo6 O20 1.953246 1_555
Mo6 O24 1.982935 1_555
Mo6 O6 2.386746 1_555
Mo6 O18 2.402107 1_645
Mo7 O31 1.735081 1_555
Mo7 O37 1.735844 1_455
Mo7 O18 1.953246 1_555
Mo7 O25 1.982935 1_555
Mo7 O7 2.386746 1_555
Mo7 O19 2.402107 1_456
Mo8 O32 1.735081 1_555
Mo8 O38 1.735844 1_554
Mo8 O19 1.953246 1_555
Mo8 O26 1.982935 1_555
Mo8 O8 2.386746 1_555
Mo8 O20 2.402107 1_564
Mo9 O33 1.735081 1_555
Mo9 O39 1.735844 1_565
Mo9 O23 1.953246 1_555
Mo9 O27 1.982935 1_555
Mo9 O9 2.386746 1_555
Mo9 O21 2.402107 1_465
Mo10 O34 1.735081 1_555
Mo10 O40 1.735844 1_655
Mo10 O21 1.953246 1_555
Mo10 O28 1.982935 1_555
Mo10 O10 2.386746 1_555
Mo10 O22 2.402107 1_654
Mo11 O35 1.735081 1_555
Mo11 O41 1.735844 1_556
Mo11 O22 1.953246 1_555
Mo11 O29 1.982935 1_555
Mo11 O11 2.386746 1_555
Mo11 O23 2.402107 1_546
O42 O50 1.195033 1_555
O43 O48 1.195033 1_555
O44 O49 1.195033 1_555
O45 O53 1.195033 1_555
O46 O51 1.195033 1_555
O47 O52 1.195033 1_555
