# generated using pymatgen
data_Li11V12(CuO4)12
_symmetry_space_group_name_H-M   'P 1'
_cell_length_a   10.22335744
_cell_length_b   10.22335744
_cell_length_c   10.65759702
_cell_angle_alpha   77.31742558
_cell_angle_beta   77.31742558
_cell_angle_gamma   117.54338539
_symmetry_Int_Tables_number   1
_chemical_formula_structural   Li11V12(CuO4)12
_chemical_formula_sum   'Li11 V12 Cu12 O48'
_cell_volume   894.72248502
_cell_formula_units_Z   1
loop_
 _symmetry_equiv_pos_site_id
 _symmetry_equiv_pos_as_xyz
  1  'x, y, z'
loop_
 _atom_site_type_symbol
 _atom_site_label
 _atom_site_symmetry_multiplicity
 _atom_site_fract_x
 _atom_site_fract_y
 _atom_site_fract_z
 _atom_site_occupancy
  Li  Li0  1  0.66670400  0.33329600  0.00000000  1
  Li  Li1  1  0.58368800  0.91645700  0.75073800  1
  Li  Li2  1  0.24160900  0.24160900  0.75562800  1
  Li  Li3  1  0.91645700  0.58368800  0.75073800  1
  Li  Li4  1  0.50000000  0.50000000  0.50000000  1
  Li  Li5  1  0.33329600  0.66670400  0.00000000  1
  Li  Li6  1  0.41631200  0.08354300  0.24926200  1
  Li  Li7  1  0.08354300  0.41631200  0.24926200  1
  Li  Li8  1  0.75839100  0.75839100  0.24437200  1
  Li  Li9  1  0.16636000  0.83364000  0.50000000  1
  Li  Li10  1  0.83364000  0.16636000  0.50000000  1
  V  V0  1  0.60810300  0.27514400  0.69323700  1
  V  V1  1  0.55560200  0.55560200  0.80788100  1
  V  V2  1  0.27514400  0.60810300  0.69323700  1
  V  V3  1  0.94171600  0.94171600  0.69126600  1
  V  V4  1  0.88978700  0.22616900  0.80660000  1
  V  V5  1  0.44439800  0.44439800  0.19211900  1
  V  V6  1  0.22616900  0.88978700  0.80660000  1
  V  V7  1  0.72485600  0.39189700  0.30676300  1
  V  V8  1  0.77383100  0.11021300  0.19340000  1
  V  V9  1  0.05828400  0.05828400  0.30873400  1
  V  V10  1  0.39189700  0.72485600  0.30676300  1
  V  V11  1  0.11021300  0.77383100  0.19340000  1
  Cu  Cu0  1  0.16212000  0.32805500  0.99862900  1
  Cu  Cu1  1  0.00000000  0.50000000  0.00000000  1
  Cu  Cu2  1  0.67194500  0.83788000  0.00137100  1
  Cu  Cu3  1  0.50000000  0.00000000  0.00000000  1
  Cu  Cu4  1  0.32805500  0.16212000  0.99862900  1
  Cu  Cu5  1  0.33291700  0.16633300  0.49975300  1
  Cu  Cu6  1  0.66708300  0.83366700  0.50024700  1
  Cu  Cu7  1  0.83788000  0.67194500  0.00137100  1
  Cu  Cu8  1  0.50000000  0.00000000  0.50000000  1
  Cu  Cu9  1  0.00000000  0.50000000  0.50000000  1
  Cu  Cu10  1  0.16633300  0.33291700  0.49975300  1
  Cu  Cu11  1  0.83366700  0.66708300  0.50024700  1
  O  O0  1  0.80029100  0.46706900  0.61662800  1
  O  O1  1  0.63320900  0.63320900  0.61633800  1
  O  O2  1  0.80757200  0.96650700  0.63616100  1
  O  O3  1  0.14165900  0.63297500  0.63727200  1
  O  O4  1  0.47538300  0.30034800  0.63667800  1
  O  O5  1  0.30034800  0.47538300  0.63667800  1
  O  O6  1  0.63297500  0.14165900  0.63727200  1
  O  O7  1  0.69046600  0.53236300  0.86230000  1
  O  O8  1  0.46706900  0.80029100  0.61662800  1
  O  O9  1  0.13453000  0.13453000  0.61754600  1
  O  O10  1  0.30055500  0.96640200  0.61485600  1
  O  O11  1  0.80004400  0.46757300  0.11670400  1
  O  O12  1  0.63558300  0.63558300  0.11619600  1
  O  O13  1  0.96640200  0.30055500  0.61485600  1
  O  O14  1  0.19995600  0.53242700  0.88329600  1
  O  O15  1  0.53242700  0.19995600  0.88329600  1
  O  O16  1  0.69881000  0.03168400  0.88390300  1
  O  O17  1  0.36441700  0.36441700  0.88380400  1
  O  O18  1  0.96650700  0.80757200  0.63616100  1
  O  O19  1  0.30953400  0.46763700  0.13770000  1
  O  O20  1  0.20870600  0.02594400  0.85802700  1
  O  O21  1  0.02594400  0.20870600  0.85802700  1
  O  O22  1  0.86569200  0.36028000  0.86269000  1
  O  O23  1  0.53236300  0.69046600  0.86230000  1
  O  O24  1  0.36028000  0.86569200  0.86269000  1
  O  O25  1  0.69965200  0.52461700  0.36332200  1
  O  O26  1  0.63972000  0.13430800  0.13731000  1
  O  O27  1  0.79129400  0.97405600  0.14197300  1
  O  O28  1  0.46763700  0.30953400  0.13770000  1
  O  O29  1  0.13430800  0.63972000  0.13731000  1
  O  O30  1  0.30119000  0.96831600  0.11609700  1
  O  O31  1  0.96831600  0.30119000  0.11609700  1
  O  O32  1  0.13798800  0.13798800  0.12136900  1
  O  O33  1  0.46757300  0.80004400  0.11670400  1
  O  O34  1  0.69944500  0.03359800  0.38514400  1
  O  O35  1  0.86201200  0.86201200  0.87863100  1
  O  O36  1  0.36679100  0.36679100  0.38366200  1
  O  O37  1  0.03168400  0.69881000  0.88390300  1
  O  O38  1  0.53293100  0.19970900  0.38337200  1
  O  O39  1  0.19970900  0.53293100  0.38337200  1
  O  O40  1  0.03349300  0.19242800  0.36383900  1
  O  O41  1  0.52461700  0.69965200  0.36332200  1
  O  O42  1  0.36702500  0.85834100  0.36272800  1
  O  O43  1  0.97405600  0.79129400  0.14197300  1
  O  O44  1  0.85834100  0.36702500  0.36272800  1
  O  O45  1  0.19242800  0.03349300  0.36383900  1
  O  O46  1  0.03359800  0.69944500  0.38514400  1
  O  O47  1  0.86547000  0.86547000  0.38245400  1
loop_
_geom_bond_atom_site_label_1
_geom_bond_atom_site_label_2
_geom_bond_distance
_geom_bond_site_symmetry_2
Li0 O26 2.086291 1_555
Li0 O22 2.086291 1_554
Li0 O28 2.104584 1_555
Li0 O7 2.104584 1_554
Li0 O11 2.247951 1_555
Li0 O15 2.247951 1_554
Li1 O24 2.084402 1_555
Li1 O2 2.099288 1_555
Li1 O23 2.103702 1_555
Li1 O6 2.110439 1_565
Li1 O16 2.229881 1_565
Li1 O8 2.249180 1_555
Li2 O21 2.064394 1_555
Li2 O20 2.064394 1_555
Li2 O4 2.165094 1_555
Li2 O5 2.165094 1_555
Li2 O9 2.206558 1_555
Li2 O17 2.251012 1_555
Li3 O22 2.084402 1_555
Li3 O18 2.099288 1_555
Li3 O7 2.103702 1_555
Li3 O3 2.110439 1_655
Li3 O37 2.229881 1_655
Li3 O0 2.249180 1_555
Li4 O4 2.099943 1_555
Li4 O5 2.099943 1_555
Li4 O41 2.099943 1_555
Li4 O25 2.099943 1_555
Li4 O36 2.239237 1_555
Li4 O1 2.239237 1_555
Li5 O29 2.086291 1_555
Li5 O24 2.086291 1_554
Li5 O19 2.104584 1_555
Li5 O23 2.104584 1_554
Li5 O33 2.247951 1_555
Li5 O14 2.247951 1_554
Li6 O26 2.084402 1_555
Li6 O45 2.099288 1_555
Li6 O28 2.103702 1_555
Li6 O42 2.110439 1_545
Li6 O30 2.229881 1_545
Li6 O38 2.249180 1_555
Li7 O29 2.084402 1_555
Li7 O40 2.099288 1_555
Li7 O19 2.103702 1_555
Li7 O44 2.110439 1_455
Li7 O31 2.229881 1_455
Li7 O39 2.249180 1_555
Li8 O27 2.064394 1_555
Li8 O43 2.064394 1_555
Li8 O41 2.165094 1_555
Li8 O25 2.165094 1_555
Li8 O47 2.206558 1_555
Li8 O12 2.251012 1_555
Li9 O18 2.091911 1_455
Li9 O45 2.091911 1_565
Li9 O42 2.110318 1_555
Li9 O3 2.110318 1_555
Li9 O10 2.228805 1_555
Li9 O46 2.228805 1_555
Li10 O2 2.091911 1_545
Li10 O40 2.091911 1_655
Li10 O44 2.110318 1_555
Li10 O6 2.110318 1_555
Li10 O13 2.228805 1_555
Li10 O34 2.228805 1_555
Cu0 O31 1.955757 1_456
Cu0 O32 1.961269 1_556
Cu0 O17 1.972543 1_555
Cu0 O14 1.985456 1_555
Cu0 O21 2.412514 1_555
Cu0 O19 2.534752 1_556
Cu1 O31 1.969217 1_455
Cu1 O37 1.969217 1_554
Cu1 O14 1.977750 1_554
Cu1 O11 1.977750 1_455
Cu1 O22 2.460382 1_454
Cu1 O29 2.460382 1_555
Cu2 O16 1.955757 1_564
Cu2 O35 1.961269 1_554
Cu2 O12 1.972543 1_555
Cu2 O33 1.985456 1_555
Cu2 O27 2.412514 1_555
Cu2 O23 2.534752 1_554
Cu3 O30 1.969217 1_545
Cu3 O16 1.969217 1_554
Cu3 O15 1.977750 1_554
Cu3 O33 1.977750 1_545
Cu3 O26 2.460382 1_555
Cu3 O24 2.460382 1_544
Cu4 O30 1.955757 1_546
Cu4 O32 1.961269 1_556
Cu4 O17 1.972543 1_555
Cu4 O15 1.985456 1_555
Cu4 O20 2.412514 1_555
Cu4 O28 2.534752 1_556
Cu5 O10 1.971671 1_545
Cu5 O9 1.971833 1_555
Cu5 O38 1.972651 1_555
Cu5 O36 1.972993 1_555
Cu5 O45 2.445157 1_555
Cu5 O4 2.468535 1_555
Cu6 O34 1.971671 1_565
Cu6 O47 1.971833 1_555
Cu6 O8 1.972651 1_555
Cu6 O1 1.972993 1_555
Cu6 O2 2.445157 1_555
Cu6 O41 2.468535 1_555
Cu7 O37 1.955757 1_654
Cu7 O35 1.961269 1_554
Cu7 O12 1.972543 1_555
Cu7 O11 1.985456 1_555
Cu7 O43 2.412514 1_555
Cu7 O7 2.534752 1_554
Cu8 O10 1.961017 1_545
Cu8 O34 1.961017 1_555
Cu8 O38 1.973085 1_555
Cu8 O8 1.973085 1_545
Cu8 O6 2.463461 1_555
Cu8 O42 2.463461 1_545
Cu9 O13 1.961017 1_455
Cu9 O46 1.961017 1_555
Cu9 O39 1.973085 1_555
Cu9 O0 1.973085 1_455
Cu9 O3 2.463461 1_555
Cu9 O44 2.463461 1_455
Cu10 O13 1.971671 1_455
Cu10 O9 1.971833 1_555
Cu10 O39 1.972651 1_555
Cu10 O36 1.972993 1_555
Cu10 O40 2.445157 1_555
Cu10 O5 2.468535 1_555
Cu11 O46 1.971671 1_655
Cu11 O47 1.971833 1_555
Cu11 O0 1.972651 1_555
Cu11 O1 1.972993 1_555
Cu11 O18 2.445157 1_555
Cu11 O25 2.468535 1_555
O0 V0 1.844918 1_555
O1 V1 1.849783 1_555
O2 V3 1.702831 1_555
O3 V2 1.701310 1_555
O4 V0 1.698540 1_555
O5 V2 1.698540 1_555
O6 V0 1.701310 1_555
O7 V1 1.699227 1_555
O8 V2 1.844918 1_555
O9 V3 1.853347 1_445
O10 V6 1.852496 1_555
O11 V7 1.835910 1_555
O12 V5 1.836637 1_555
O13 V4 1.852496 1_555
O14 V2 1.835910 1_555
O15 V0 1.835910 1_555
O16 V4 1.851543 1_555
O17 V1 1.836637 1_555
O18 V3 1.702831 1_555
O19 V5 1.699227 1_555
O20 V6 1.670855 1_545
O21 V4 1.670855 1_455
O22 V4 1.704530 1_555
O23 V1 1.699227 1_555
O24 V6 1.704530 1_555
O25 V7 1.698540 1_555
O26 V8 1.704530 1_555
O27 V8 1.670855 1_565
O28 V5 1.699227 1_555
O29 V11 1.704530 1_555
O30 V11 1.851543 1_555
O31 V8 1.851543 1_555
O32 V9 1.808973 1_555
O33 V10 1.835910 1_555
O34 V8 1.852496 1_555
O35 V3 1.808973 1_555
O36 V5 1.849783 1_555
O37 V6 1.851543 1_555
O38 V7 1.844918 1_555
O39 V10 1.844918 1_555
O40 V9 1.702831 1_555
O41 V10 1.698540 1_555
O42 V10 1.701310 1_555
O43 V11 1.670855 1_655
O44 V7 1.701310 1_555
O45 V9 1.702831 1_555
O46 V11 1.852496 1_555
O47 V9 1.853347 1_665
