# generated using pymatgen
data_MnOF
_symmetry_space_group_name_H-M   'P 1'
_cell_length_a   3.07511800
_cell_length_b   4.79737200
_cell_length_c   18.97702672
_cell_angle_alpha   84.48090401
_cell_angle_beta   90.00000000
_cell_angle_gamma   90.00000000
_symmetry_Int_Tables_number   1
_chemical_formula_structural   MnOF
_chemical_formula_sum   'Mn8 O8 F8'
_cell_volume   278.66047086
_cell_formula_units_Z   8
loop_
 _symmetry_equiv_pos_site_id
 _symmetry_equiv_pos_as_xyz
  1  'x, y, z'
loop_
 _atom_site_type_symbol
 _atom_site_label
 _atom_site_symmetry_multiplicity
 _atom_site_fract_x
 _atom_site_fract_y
 _atom_site_fract_z
 _atom_site_occupancy
  Mn  Mn0  1  0.00000000  0.09065700  0.87649900  1
  Mn  Mn1  1  0.00000000  0.90934300  0.12350100  1
  Mn  Mn2  1  0.00000000  0.97746000  0.37580600  1
  Mn  Mn3  1  0.00000000  0.02254000  0.62419400  1
  Mn  Mn4  1  0.50000000  0.50000000  0.00000000  1
  Mn  Mn5  1  0.50000000  0.44779900  0.25075300  1
  Mn  Mn6  1  0.50000000  0.50000000  0.50000000  1
  Mn  Mn7  1  0.50000000  0.55220100  0.74924700  1
  O  O0  1  0.50000000  0.75664100  0.07703300  1
  O  O1  1  0.00000000  0.68650500  0.45090000  1
  O  O2  1  0.00000000  0.63804200  0.20165200  1
  O  O3  1  0.00000000  0.73194300  0.69945400  1
  O  O4  1  0.00000000  0.26805700  0.30054600  1
  O  O5  1  0.00000000  0.31349500  0.54910000  1
  O  O6  1  0.00000000  0.36195800  0.79834800  1
  O  O7  1  0.50000000  0.24335900  0.92296700  1
  F  F0  1  0.50000000  0.78665900  0.32756400  1
  F  F1  1  0.50000000  0.82763600  0.57750900  1
  F  F2  1  0.50000000  0.87697100  0.83189900  1
  F  F3  1  0.00000000  0.73908700  0.95049300  1
  F  F4  1  0.00000000  0.26091300  0.04950700  1
  F  F5  1  0.50000000  0.12302900  0.16810100  1
  F  F6  1  0.50000000  0.17236400  0.42249100  1
  F  F7  1  0.50000000  0.21334100  0.67243600  1
loop_
_geom_bond_atom_site_label_1
_geom_bond_atom_site_label_2
_geom_bond_distance
_geom_bond_site_symmetry_2
Mn0 O6 1.876751 1_555
Mn0 O7 1.950031 1_455
Mn0 O7 1.950031 1_555
Mn1 O2 1.876751 1_555
Mn1 O0 1.950031 1_455
Mn1 O0 1.950031 1_555
Mn2 O1 1.896442 1_555
Mn2 O4 1.897449 1_565
Mn3 O5 1.896442 1_555
Mn3 O3 1.897449 1_545
Mn4 O0 1.999774 1_555
Mn4 O7 1.999774 1_554
Mn5 O4 1.960556 1_555
Mn5 O4 1.960556 1_655
Mn5 O2 1.975272 1_555
Mn5 O2 1.975272 1_655
Mn6 O1 1.967860 1_555
Mn6 O1 1.967860 1_655
Mn6 O5 1.967860 1_655
Mn6 O5 1.967860 1_555
Mn7 O3 1.960556 1_555
Mn7 O3 1.960556 1_655
Mn7 O6 1.975272 1_555
Mn7 O6 1.975272 1_655
F0 Mn2 2.049696 1_655
F0 Mn2 2.049696 1_555
F0 Mn5 2.285438 1_555
F1 Mn3 2.045141 1_665
F1 Mn3 2.045141 1_565
F1 Mn6 2.253610 1_555
F2 Mn0 2.073217 1_665
F2 Mn0 2.073217 1_565
F2 Mn7 2.314676 1_555
F3 Mn4 2.086874 1_556
F3 Mn4 2.086874 1_456
F3 Mn0 2.088263 1_565
F4 Mn4 2.086874 1_455
F4 Mn4 2.086874 1_555
F4 Mn1 2.088263 1_545
F5 Mn1 2.073217 1_545
F5 Mn1 2.073217 1_645
F5 Mn5 2.314676 1_555
F6 Mn2 2.045141 1_645
F6 Mn2 2.045141 1_545
F6 Mn6 2.253610 1_555
F7 Mn3 2.049696 1_655
F7 Mn3 2.049696 1_555
F7 Mn7 2.285438 1_555
