# generated using pymatgen
data_Fe4O7F
_symmetry_space_group_name_H-M   'P 1'
_cell_length_a   7.56669329
_cell_length_b   7.56669329
_cell_length_c   4.60446505
_cell_angle_alpha   88.82962150
_cell_angle_beta   88.82962150
_cell_angle_gamma   105.02569182
_symmetry_Int_Tables_number   1
_chemical_formula_structural   Fe4O7F
_chemical_formula_sum   'Fe8 O14 F2'
_cell_volume   254.47097431
_cell_formula_units_Z   2
loop_
 _symmetry_equiv_pos_site_id
 _symmetry_equiv_pos_as_xyz
  1  'x, y, z'
loop_
 _atom_site_type_symbol
 _atom_site_label
 _atom_site_symmetry_multiplicity
 _atom_site_fract_x
 _atom_site_fract_y
 _atom_site_fract_z
 _atom_site_occupancy
  Fe  Fe0  1  0.62912500  0.37719300  0.50148900  1
  Fe  Fe1  1  0.86672400  0.11327300  0.48418100  1
  Fe  Fe2  1  0.37719300  0.62912500  0.50148900  1
  Fe  Fe3  1  0.11327300  0.86672400  0.48418100  1
  Fe  Fe4  1  0.74605600  0.74605600  0.99359600  1
  Fe  Fe5  1  0.50906300  0.99707500  0.00674300  1
  Fe  Fe6  1  0.26626800  0.26626800  0.03016800  1
  Fe  Fe7  1  0.99707500  0.50906300  0.00674300  1
  O  O0  1  0.96107400  0.72380000  0.18562300  1
  O  O1  1  0.48015800  0.21619100  0.19530600  1
  O  O2  1  0.72380000  0.96107400  0.18562300  1
  O  O3  1  0.21619100  0.48015800  0.19530600  1
  O  O4  1  0.59555100  0.59555100  0.29665500  1
  O  O5  1  0.84963500  0.34433100  0.30826300  1
  O  O6  1  0.09776200  0.09776200  0.31161400  1
  O  O7  1  0.34433100  0.84963500  0.30826300  1
  O  O8  1  0.89867000  0.89867000  0.69300700  1
  O  O9  1  0.65612800  0.15115600  0.69412200  1
  O  O10  1  0.15115600  0.65612800  0.69412200  1
  O  O11  1  0.40548000  0.40548000  0.69213500  1
  O  O12  1  0.52955400  0.77877500  0.80817300  1
  O  O13  1  0.77877500  0.52955400  0.80817300  1
  F  F0  1  0.02975000  0.27720700  0.80751400  1
  F  F1  1  0.27720700  0.02975000  0.80751400  1
loop_
_geom_bond_atom_site_label_1
_geom_bond_atom_site_label_2
_geom_bond_distance
_geom_bond_site_symmetry_2
Fe0 O5 1.949594 1_555
Fe0 O11 1.953178 1_555
Fe0 O4 1.961572 1_555
Fe0 O9 1.969874 1_555
Fe0 O13 2.015031 1_555
Fe0 O1 2.040912 1_555
Fe1 O9 1.934202 1_555
Fe1 O6 1.937721 1_655
Fe1 O8 1.941404 1_545
Fe1 O5 1.947612 1_555
Fe1 O2 1.966030 1_545
Fe2 O7 1.949594 1_555
Fe2 O11 1.953178 1_555
Fe2 O4 1.961572 1_555
Fe2 O10 1.969874 1_555
Fe2 O12 2.015031 1_555
Fe2 O3 2.040912 1_555
Fe3 O10 1.934202 1_555
Fe3 O6 1.937721 1_565
Fe3 O8 1.941404 1_455
Fe3 O7 1.947612 1_555
Fe3 O0 1.966030 1_455
Fe4 O2 1.911003 1_556
Fe4 O0 1.911003 1_556
Fe4 O12 1.932028 1_555
Fe4 O13 1.932028 1_555
Fe4 O4 1.933587 1_556
Fe4 O8 1.939234 1_555
Fe5 O2 1.915135 1_555
Fe5 O12 1.943495 1_554
Fe5 O1 1.946701 1_565
Fe5 O9 1.965433 1_564
Fe5 O7 1.967440 1_555
Fe6 O1 1.922907 1_555
Fe6 O3 1.922907 1_555
Fe6 O11 1.983049 1_554
Fe6 O6 1.988180 1_555
Fe7 O0 1.915135 1_555
Fe7 O13 1.943495 1_554
Fe7 O3 1.946701 1_655
Fe7 O10 1.965433 1_654
Fe7 O5 1.967440 1_555
F0 Fe7 2.064435 1_456
F0 Fe6 2.099777 1_556
F0 Fe1 2.152649 1_455
F1 Fe5 2.064435 1_546
F1 Fe6 2.099777 1_556
F1 Fe3 2.152649 1_545
