# generated using pymatgen
data_LiFe4(PO4)3
_symmetry_space_group_name_H-M   'P 1'
_cell_length_a   9.03534977
_cell_length_b   9.03534977
_cell_length_c   10.34205363
_cell_angle_alpha   64.61397806
_cell_angle_beta   64.61397806
_cell_angle_gamma   59.56263870
_symmetry_Int_Tables_number   1
_chemical_formula_structural   LiFe4(PO4)3
_chemical_formula_sum   'Li2 Fe8 P6 O24'
_cell_volume   632.93707642
_cell_formula_units_Z   2
loop_
 _symmetry_equiv_pos_site_id
 _symmetry_equiv_pos_as_xyz
  1  'x, y, z'
loop_
 _atom_site_type_symbol
 _atom_site_label
 _atom_site_symmetry_multiplicity
 _atom_site_fract_x
 _atom_site_fract_y
 _atom_site_fract_z
 _atom_site_occupancy
  Li  Li0  1  0.99301900  0.49057500  0.03279300  1
  Li  Li1  1  0.49057500  0.99301900  0.53279300  1
  Fe  Fe0  1  0.96630800  0.85455400  0.99308400  1
  Fe  Fe1  1  0.35229800  0.18841300  0.99207400  1
  Fe  Fe2  1  0.84330000  0.34923000  0.45896600  1
  Fe  Fe3  1  0.46525900  0.69404900  0.49032500  1
  Fe  Fe4  1  0.69404900  0.46525900  0.99032500  1
  Fe  Fe5  1  0.85455400  0.96630800  0.49308400  1
  Fe  Fe6  1  0.18841300  0.35229800  0.49207400  1
  Fe  Fe7  1  0.34923000  0.84330000  0.95896600  1
  P  P0  1  0.35716000  0.56359600  0.86022300  1
  P  P1  1  0.85470500  0.71811600  0.36044300  1
  P  P2  1  0.21682000  0.06896100  0.35777200  1
  P  P3  1  0.71811600  0.85470500  0.86044300  1
  P  P4  1  0.06896100  0.21682000  0.85777200  1
  P  P5  1  0.56359600  0.35716000  0.36022300  1
  O  O0  1  0.81173100  0.95507600  0.86273500  1
  O  O1  1  0.45540900  0.36673000  0.86006900  1
  O  O2  1  0.93950800  0.50920100  0.44356100  1
  O  O3  1  0.87770000  0.73082500  0.20062000  1
  O  O4  1  0.15793500  0.61067600  0.94816500  1
  O  O5  1  0.87311000  0.31598300  0.85378600  1
  O  O6  1  0.65536400  0.78737700  0.44821800  1
  O  O7  1  0.37991900  0.68746700  0.70167600  1
  O  O8  1  0.31598300  0.87311000  0.35378600  1
  O  O9  1  0.44313700  0.60068200  0.94554700  1
  O  O10  1  0.00951900  0.10685000  0.44390700  1
  O  O11  1  0.95507600  0.81173100  0.36273500  1
  O  O12  1  0.78737700  0.65536400  0.94821800  1
  O  O13  1  0.73082500  0.87770000  0.70062000  1
  O  O14  1  0.22319300  0.19628400  0.20037100  1
  O  O15  1  0.28655800  0.10908800  0.44703900  1
  O  O16  1  0.10685000  0.00951900  0.94390700  1
  O  O17  1  0.50920100  0.93950800  0.94356100  1
  O  O18  1  0.61067600  0.15793500  0.44816500  1
  O  O19  1  0.19628400  0.22319300  0.70037100  1
  O  O20  1  0.68746700  0.37991900  0.20167600  1
  O  O21  1  0.36673000  0.45540900  0.36006900  1
  O  O22  1  0.10908800  0.28655800  0.94703900  1
  O  O23  1  0.60068200  0.44313700  0.44554700  1
loop_
_geom_bond_atom_site_label_1
_geom_bond_atom_site_label_2
_geom_bond_distance
_geom_bond_site_symmetry_2
Li0 O4 1.967136 1_654
Li0 O12 1.976903 1_554
Li0 O22 1.982409 1_654
Li1 O18 1.967136 1_565
Li1 O6 1.976903 1_555
Li1 O15 1.982409 1_565
Fe0 O0 1.967783 1_555
Fe0 O3 1.968151 1_556
Fe0 O4 2.095622 1_655
Fe0 O16 2.113939 1_665
Fe1 O1 1.967708 1_555
Fe1 O14 1.974618 1_556
Fe1 O22 2.093155 1_555
Fe1 O17 2.108685 1_545
Fe2 O23 1.954485 1_555
Fe2 O2 1.956273 1_555
Fe2 O10 1.958398 1_655
Fe3 O7 1.966140 1_555
Fe3 O8 1.973306 1_555
Fe3 O6 2.088636 1_555
Fe3 O23 2.110697 1_555
Fe4 O20 1.966140 1_556
Fe4 O5 1.973306 1_555
Fe4 O12 2.088636 1_555
Fe4 O9 2.110697 1_555
Fe5 O11 1.967783 1_555
Fe5 O13 1.968151 1_555
Fe5 O18 2.095622 1_565
Fe5 O10 2.113939 1_665
Fe6 O21 1.967708 1_555
Fe6 O19 1.974618 1_555
Fe6 O15 2.093155 1_555
Fe6 O2 2.108685 1_455
Fe7 O9 1.954485 1_555
Fe7 O17 1.956273 1_555
Fe7 O16 1.958398 1_565
O0 P3 1.533391 1_555
O1 P0 1.534068 1_555
O2 P1 1.611579 1_555
O3 P1 1.534731 1_555
O4 P0 1.549368 1_555
O5 P4 1.536344 1_655
O6 P1 1.550122 1_555
O7 P0 1.534306 1_555
O8 P2 1.536344 1_565
O9 P0 1.612284 1_555
O10 P2 1.612506 1_555
O11 P1 1.533391 1_555
O12 P3 1.550122 1_555
O13 P3 1.534731 1_555
O14 P2 1.535478 1_555
O15 P2 1.548560 1_555
O16 P4 1.612506 1_555
O17 P3 1.611579 1_555
O18 P5 1.549368 1_555
O19 P4 1.535478 1_555
O20 P5 1.534306 1_555
O21 P5 1.534068 1_555
O22 P4 1.548560 1_555
O23 P5 1.612284 1_555
