# generated using pymatgen
data_U4BiO10
_symmetry_space_group_name_H-M   'P 1'
_cell_length_a   6.66679079
_cell_length_b   6.66679079
_cell_length_c   6.66679079
_cell_angle_alpha   99.59008372
_cell_angle_beta   99.59008372
_cell_angle_gamma   131.82085784
_symmetry_Int_Tables_number   1
_chemical_formula_structural   U4BiO10
_chemical_formula_sum   'U4 Bi1 O10'
_cell_volume   201.59046275
_cell_formula_units_Z   1
loop_
 _symmetry_equiv_pos_site_id
 _symmetry_equiv_pos_as_xyz
  1  'x, y, z'
loop_
 _atom_site_type_symbol
 _atom_site_label
 _atom_site_symmetry_multiplicity
 _atom_site_fract_x
 _atom_site_fract_y
 _atom_site_fract_z
 _atom_site_occupancy
  U  U0  1  0.60061400  0.19910800  0.79972200  1
  U  U1  1  0.39938600  0.80089200  0.20027800  1
  U  U2  1  0.80089200  0.60061400  0.40150700  1
  U  U3  1  0.19910800  0.39938600  0.59849300  1
  Bi  Bi0  1  0.00000000  0.00000000  0.00000000  1
  O  O0  1  0.95069200  0.64165800  0.10604500  1
  O  O1  1  0.46438600  0.15535300  0.10604500  1
  O  O2  1  0.53561400  0.84464700  0.89395500  1
  O  O3  1  0.75000000  0.25000000  0.50000000  1
  O  O4  1  0.25000000  0.75000000  0.50000000  1
  O  O5  1  0.15535300  0.04930800  0.69096600  1
  O  O6  1  0.64165800  0.53561400  0.69096600  1
  O  O7  1  0.04930800  0.35834200  0.89395500  1
  O  O8  1  0.35834200  0.46438600  0.30903400  1
  O  O9  1  0.84464700  0.95069200  0.30903400  1
loop_
_geom_bond_atom_site_label_1
_geom_bond_atom_site_label_2
_geom_bond_distance
_geom_bond_site_symmetry_2
Bi0 O1 2.430640 1_555
Bi0 O2 2.430640 1_444
Bi0 O8 2.430643 1_555
Bi0 O6 2.430643 1_444
Bi0 O5 2.430646 1_554
Bi0 O0 2.430646 1_445
Bi0 O9 2.430646 1_445
Bi0 O7 2.430646 1_554
O0 U1 2.320878 1_655
O0 U2 2.328714 1_555
O0 U0 2.354491 1_554
O1 U1 2.320881 1_545
O1 U2 2.328711 1_555
O1 U0 2.354494 1_554
O2 U0 2.320881 1_565
O2 U3 2.328711 1_555
O2 U1 2.354494 1_556
O3 U2 2.353304 1_555
O3 U0 2.353308 1_555
O3 U1 2.353308 1_545
O3 U3 2.353308 1_655
O4 U3 2.353304 1_555
O4 U0 2.353308 1_565
O4 U1 2.353308 1_555
O4 U2 2.353308 1_455
O5 U2 2.320875 1_445
O5 U0 2.328708 1_555
O5 U3 2.354494 1_555
O6 U2 2.320871 1_555
O6 U0 2.328714 1_555
O6 U3 2.354487 1_555
O7 U0 2.320878 1_455
O7 U3 2.328714 1_555
O7 U1 2.354491 1_556
O8 U3 2.320871 1_555
O8 U1 2.328714 1_555
O8 U2 2.354487 1_555
O9 U3 2.320875 1_665
O9 U1 2.328708 1_555
O9 U2 2.354494 1_555
