# generated using pymatgen
data_LiMn2F6
_symmetry_space_group_name_H-M   'P 1'
_cell_length_a   4.73814400
_cell_length_b   4.73814400
_cell_length_c   9.60560600
_cell_angle_alpha   90.00000000
_cell_angle_beta   90.00000000
_cell_angle_gamma   90.00000000
_symmetry_Int_Tables_number   1
_chemical_formula_structural   LiMn2F6
_chemical_formula_sum   'Li2 Mn4 F12'
_cell_volume   215.64593697
_cell_formula_units_Z   2
loop_
 _symmetry_equiv_pos_site_id
 _symmetry_equiv_pos_as_xyz
  1  'x, y, z'
loop_
 _atom_site_type_symbol
 _atom_site_label
 _atom_site_symmetry_multiplicity
 _atom_site_fract_x
 _atom_site_fract_y
 _atom_site_fract_z
 _atom_site_occupancy
  Li  Li0  1  0.00000000  0.00000000  0.00000000  1
  Li  Li1  1  0.50000000  0.50000000  0.50000000  1
  Mn  Mn0  1  0.50000000  0.50000000  0.16591700  1
  Mn  Mn1  1  0.00000000  0.00000000  0.33408300  1
  Mn  Mn2  1  0.00000000  0.00000000  0.66591700  1
  Mn  Mn3  1  0.50000000  0.50000000  0.83408300  1
  F  F0  1  0.30325900  0.69674100  0.00000000  1
  F  F1  1  0.20260700  0.20260700  0.16733400  1
  F  F2  1  0.79739300  0.79739300  0.16733400  1
  F  F3  1  0.29739300  0.70260700  0.33266600  1
  F  F4  1  0.70260700  0.29739300  0.33266600  1
  F  F5  1  0.19674100  0.19674100  0.50000000  1
  F  F6  1  0.80325900  0.80325900  0.50000000  1
  F  F7  1  0.29739300  0.70260700  0.66733400  1
  F  F8  1  0.70260700  0.29739300  0.66733400  1
  F  F9  1  0.20260700  0.20260700  0.83266600  1
  F  F10  1  0.79739300  0.79739300  0.83266600  1
  F  F11  1  0.69674100  0.30325900  0.00000000  1
loop_
_geom_bond_atom_site_label_1
_geom_bond_atom_site_label_2
_geom_bond_distance
_geom_bond_site_symmetry_2
F0 Li0 2.032062 1_565
F0 Mn3 2.068316 1_554
F0 Mn0 2.068316 1_555
F1 Mn0 1.992802 1_555
F1 Mn1 2.099679 1_555
F1 Li0 2.103969 1_555
F2 Mn0 1.992802 1_555
F2 Mn1 2.099679 1_665
F2 Li0 2.103969 1_665
F3 Mn1 1.992802 1_565
F3 Mn0 2.099679 1_555
F3 Li1 2.103969 1_555
F4 Mn1 1.992802 1_655
F4 Mn0 2.099679 1_555
F4 Li1 2.103969 1_555
F5 Li1 2.032062 1_555
F5 Mn1 2.068316 1_555
F5 Mn2 2.068316 1_555
F6 Li1 2.032062 1_555
F6 Mn2 2.068316 1_665
F6 Mn1 2.068316 1_665
F7 Mn2 1.992802 1_565
F7 Mn3 2.099679 1_555
F7 Li1 2.103969 1_555
F8 Mn2 1.992802 1_655
F8 Mn3 2.099679 1_555
F8 Li1 2.103969 1_555
F9 Mn3 1.992802 1_555
F9 Mn2 2.099679 1_555
F9 Li0 2.103969 1_556
F10 Mn3 1.992802 1_555
F10 Mn2 2.099679 1_665
F10 Li0 2.103969 1_666
F11 Li0 2.032062 1_655
F11 Mn3 2.068316 1_554
F11 Mn0 2.068316 1_555
