# generated using pymatgen
data_Li2VCrO4
_symmetry_space_group_name_H-M   'P 1'
_cell_length_a   2.96773701
_cell_length_b   5.17641200
_cell_length_c   5.14394077
_cell_angle_alpha   81.06165141
_cell_angle_beta   90.00407438
_cell_angle_gamma   73.35106976
_symmetry_Int_Tables_number   1
_chemical_formula_structural   Li2VCrO4
_chemical_formula_sum   'Li2 V1 Cr1 O4'
_cell_volume   74.70719471
_cell_formula_units_Z   1
loop_
 _symmetry_equiv_pos_site_id
 _symmetry_equiv_pos_as_xyz
  1  'x, y, z'
loop_
 _atom_site_type_symbol
 _atom_site_label
 _atom_site_symmetry_multiplicity
 _atom_site_fract_x
 _atom_site_fract_y
 _atom_site_fract_z
 _atom_site_occupancy
  Li  Li0  1  0.50104600  0.99788300  0.50741700  1
  Li  Li1  1  0.99896300  0.00211400  0.99256300  1
  V  V0  1  0.74999800  0.50000100  0.25000400  1
  Cr  Cr0  1  0.25000000  0.50000000  0.75000300  1
  O  O0  1  0.13642000  0.72732900  0.38106600  1
  O  O1  1  0.36357900  0.27267000  0.11894100  1
  O  O2  1  0.63566000  0.72885900  0.87394300  1
  O  O3  1  0.86433400  0.27114200  0.62606400  1
loop_
_geom_bond_atom_site_label_1
_geom_bond_atom_site_label_2
_geom_bond_distance
_geom_bond_site_symmetry_2
Li0 O2 2.125746 1_555
Li0 O3 2.162804 1_565
Li0 O3 2.163496 1_465
Li0 O0 2.169319 1_555
Li0 O0 2.170069 1_655
Li0 O1 2.228675 1_565
Li1 O3 2.125647 1_555
Li1 O2 2.162764 1_545
Li1 O2 2.163403 1_645
Li1 O1 2.169363 1_656
Li1 O1 2.170150 1_556
Li1 O0 2.228781 1_646
Cr0 O3 2.032511 1_555
Cr0 O2 2.032528 1_455
Cr0 O2 2.032585 1_555
Cr0 O3 2.032592 1_455
Cr0 O0 2.044169 1_555
Cr0 O1 2.044175 1_556
O0 V0 2.043015 1_555
O0 V0 2.043055 1_455
O1 V0 2.043029 1_455
O1 V0 2.043062 1_555
O2 V0 2.077993 1_556
O3 V0 2.077991 1_555
