# generated using pymatgen
data_VOF2
_symmetry_space_group_name_H-M   'P 1'
_cell_length_a   3.73186612
_cell_length_b   9.67251416
_cell_length_c   6.17027439
_cell_angle_alpha   89.27706622
_cell_angle_beta   90.01123524
_cell_angle_gamma   89.97178432
_symmetry_Int_Tables_number   1
_chemical_formula_structural   VOF2
_chemical_formula_sum   'V4 O4 F8'
_cell_volume   222.70772076
_cell_formula_units_Z   4
loop_
 _symmetry_equiv_pos_site_id
 _symmetry_equiv_pos_as_xyz
  1  'x, y, z'
loop_
 _atom_site_type_symbol
 _atom_site_label
 _atom_site_symmetry_multiplicity
 _atom_site_fract_x
 _atom_site_fract_y
 _atom_site_fract_z
 _atom_site_occupancy
  V  V0  1  0.53437500  0.49673300  0.24676100  1
  V  V1  1  0.03436600  0.99673300  0.99676600  1
  V  V2  1  0.53443900  0.49673300  0.74676400  1
  V  V3  1  0.03443400  0.99673300  0.49676200  1
  O  O0  1  0.98498600  0.49663800  0.74687600  1
  O  O1  1  0.98505100  0.49663800  0.24687600  1
  O  O2  1  0.48505400  0.99663800  0.99687600  1
  O  O3  1  0.48499100  0.99663800  0.49687600  1
  F  F0  1  0.98053800  0.12572600  0.24420600  1
  F  F1  1  0.98053800  0.12572400  0.74414500  1
  F  F2  1  0.48053800  0.62572100  0.49420500  1
  F  F3  1  0.48053800  0.62572200  0.99414600  1
  F  F4  1  0.48079800  0.36774600  0.49933900  1
  F  F5  1  0.48079900  0.36774500  0.99928000  1
  F  F6  1  0.98079900  0.86774300  0.74927900  1
  F  F7  1  0.98079900  0.86774100  0.24934000  1
loop_
_geom_bond_atom_site_label_1
_geom_bond_atom_site_label_2
_geom_bond_distance
_geom_bond_site_symmetry_2
O0 V2 1.681381 1_555
O0 V2 2.050486 1_655
O1 V0 1.681862 1_555
O1 V0 2.050005 1_655
O2 V1 1.681907 1_555
O2 V1 2.049960 1_655
O3 V3 1.681418 1_555
O3 V3 2.050449 1_655
F0 V1 1.994004 1_644
F0 V3 1.994032 1_645
F1 V3 1.993745 1_645
F1 V1 1.994305 1_645
F2 V0 1.993996 1_555
F2 V2 1.994019 1_555
F3 V2 1.993730 1_555
F3 V0 1.994268 1_556
F4 V2 1.993889 1_555
F4 V0 1.994167 1_555
F5 V2 1.993901 1_555
F5 V0 1.994138 1_556
F6 V3 1.993916 1_655
F6 V1 1.994175 1_655
F7 V3 1.993903 1_655
F7 V1 1.994174 1_654
