# generated using pymatgen
data_VO2F
_symmetry_space_group_name_H-M   'P 1'
_cell_length_a   5.06342800
_cell_length_b   5.11344300
_cell_length_c   8.42538200
_cell_angle_alpha   90.00000000
_cell_angle_beta   90.00000000
_cell_angle_gamma   90.00000000
_symmetry_Int_Tables_number   1
_chemical_formula_structural   VO2F
_chemical_formula_sum   'V4 O8 F4'
_cell_volume   218.14620322
_cell_formula_units_Z   4
loop_
 _symmetry_equiv_pos_site_id
 _symmetry_equiv_pos_as_xyz
  1  'x, y, z'
loop_
 _atom_site_type_symbol
 _atom_site_label
 _atom_site_symmetry_multiplicity
 _atom_site_fract_x
 _atom_site_fract_y
 _atom_site_fract_z
 _atom_site_occupancy
  V  V0  1  0.13045900  0.62220500  0.13095300  1
  V  V1  1  0.36954100  0.37779500  0.63095300  1
  V  V2  1  0.63045900  0.87779500  0.86904700  1
  V  V3  1  0.86954100  0.12220500  0.36904700  1
  O  O0  1  0.07976400  0.89690900  0.25500500  1
  O  O1  1  0.95676300  0.66024400  0.96523200  1
  O  O2  1  0.54323700  0.33975600  0.46523200  1
  O  O3  1  0.42023600  0.10309100  0.75500500  1
  O  O4  1  0.57976400  0.60309100  0.74499500  1
  O  O5  1  0.45676300  0.83975600  0.03476800  1
  O  O6  1  0.04323700  0.16024300  0.53476800  1
  O  O7  1  0.92023600  0.39690900  0.24499500  1
  F  F0  1  0.12053800  0.62540900  0.61502100  1
  F  F1  1  0.37946200  0.37459100  0.11502100  1
  F  F2  1  0.62053800  0.87459100  0.38497900  1
  F  F3  1  0.87946200  0.12540900  0.88497900  1
loop_
_geom_bond_atom_site_label_1
_geom_bond_atom_site_label_2
_geom_bond_distance
_geom_bond_site_symmetry_2
O0 V0 1.769587 1_555
O0 V3 1.839422 1_465
O1 V0 1.661595 1_656
O1 V2 2.150366 1_555
O2 V1 1.661595 1_555
O2 V3 2.150366 1_555
O3 V1 1.769587 1_555
O3 V2 1.839422 1_545
O4 V2 1.769587 1_555
O4 V1 1.839422 1_555
O5 V2 1.661595 1_554
O5 V0 2.150366 1_555
O6 V3 1.661595 1_455
O6 V1 2.150368 1_555
O7 V3 1.769587 1_555
O7 V0 1.839422 1_655
F0 V1 1.791876 1_555
F1 V0 1.791876 1_555
F2 V3 1.791876 1_565
F3 V2 1.791876 1_545
