# generated using pymatgen
data_Rb2Fe2O3
_symmetry_space_group_name_H-M   'P 1'
_cell_length_a   6.37125900
_cell_length_b   8.23166600
_cell_length_c   12.09719300
_cell_angle_alpha   90.00000000
_cell_angle_beta   90.00000000
_cell_angle_gamma   90.00000000
_symmetry_Int_Tables_number   1
_chemical_formula_structural   Rb2Fe2O3
_chemical_formula_sum   'Rb8 Fe8 O12'
_cell_volume   634.45030452
_cell_formula_units_Z   4
loop_
 _symmetry_equiv_pos_site_id
 _symmetry_equiv_pos_as_xyz
  1  'x, y, z'
loop_
 _atom_site_type_symbol
 _atom_site_label
 _atom_site_symmetry_multiplicity
 _atom_site_fract_x
 _atom_site_fract_y
 _atom_site_fract_z
 _atom_site_occupancy
  Rb  Rb0  1  0.25000000  0.87719700  0.05844600  1
  Rb  Rb1  1  0.75000000  0.50324100  0.12077200  1
  Rb  Rb2  1  0.25000000  0.00324100  0.37922800  1
  Rb  Rb3  1  0.75000000  0.37719700  0.44155400  1
  Rb  Rb4  1  0.25000000  0.62280300  0.55844600  1
  Rb  Rb5  1  0.75000000  0.99675900  0.62077200  1
  Rb  Rb6  1  0.25000000  0.49675900  0.87922800  1
  Rb  Rb7  1  0.75000000  0.12280300  0.94155400  1
  Fe  Fe0  1  0.25000000  0.28038500  0.14530200  1
  Fe  Fe1  1  0.75000000  0.09836000  0.22683500  1
  Fe  Fe2  1  0.25000000  0.59836000  0.27316500  1
  Fe  Fe3  1  0.75000000  0.78038500  0.35469800  1
  Fe  Fe4  1  0.25000000  0.21961500  0.64530200  1
  Fe  Fe5  1  0.75000000  0.40164000  0.72683500  1
  Fe  Fe6  1  0.25000000  0.90164000  0.77316500  1
  Fe  Fe7  1  0.75000000  0.71961500  0.85469800  1
  O  O0  1  0.25000000  0.51368100  0.12383200  1
  O  O1  1  0.99935300  0.15185700  0.14597500  1
  O  O2  1  0.50064700  0.15185700  0.14597500  1
  O  O3  1  0.00064700  0.65185700  0.35402500  1
  O  O4  1  0.49935300  0.65185700  0.35402500  1
  O  O5  1  0.75000000  0.01368100  0.37616800  1
  O  O6  1  0.25000000  0.98631900  0.62383200  1
  O  O7  1  0.99935300  0.34814300  0.64597500  1
  O  O8  1  0.50064700  0.34814300  0.64597500  1
  O  O9  1  0.49935300  0.84814300  0.85402500  1
  O  O10  1  0.00064700  0.84814300  0.85402500  1
  O  O11  1  0.75000000  0.48631900  0.87616800  1
loop_
_geom_bond_atom_site_label_1
_geom_bond_atom_site_label_2
_geom_bond_distance
_geom_bond_site_symmetry_2
Fe0 O2 1.915630 1_555
Fe0 O1 1.915630 1_455
Fe0 O0 1.937899 1_555
Fe1 O2 1.916952 1_555
Fe1 O1 1.916952 1_555
Fe1 O5 1.936326 1_555
Fe2 O4 1.916952 1_555
Fe2 O3 1.916952 1_555
Fe2 O0 1.936326 1_555
Fe3 O4 1.915630 1_555
Fe3 O3 1.915630 1_655
Fe3 O5 1.937899 1_565
Fe4 O7 1.915630 1_455
Fe4 O8 1.915630 1_555
Fe4 O6 1.937899 1_545
Fe5 O7 1.916952 1_555
Fe5 O8 1.916952 1_555
Fe5 O11 1.936326 1_555
Fe6 O9 1.916952 1_555
Fe6 O10 1.916952 1_555
Fe6 O6 1.936326 1_555
Fe7 O9 1.915630 1_555
Fe7 O10 1.915630 1_655
Fe7 O11 1.937899 1_555
O0 Rb6 2.962299 1_554
O0 Rb0 3.095121 1_555
O0 Rb1 3.187003 1_555
O0 Rb1 3.187003 1_455
O1 Rb7 2.948979 1_554
O1 Rb0 2.963628 1_645
O1 Rb1 3.314108 1_555
O1 Rb2 3.465377 1_655
O2 Rb7 2.948979 1_554
O2 Rb0 2.963628 1_545
O2 Rb1 3.314108 1_555
O2 Rb2 3.465377 1_555
O3 Rb4 2.948979 1_555
O3 Rb3 2.963628 1_455
O3 Rb2 3.314108 1_565
O3 Rb1 3.465377 1_455
O4 Rb4 2.948979 1_555
O4 Rb3 2.963628 1_555
O4 Rb2 3.314108 1_565
O4 Rb1 3.465377 1_555
O5 Rb5 2.962299 1_545
O5 Rb3 3.095121 1_555
O5 Rb2 3.187003 1_555
O5 Rb2 3.187003 1_655
O6 Rb2 2.962299 1_565
O6 Rb4 3.095121 1_555
O6 Rb5 3.187003 1_455
O6 Rb5 3.187003 1_555
O7 Rb3 2.948979 1_555
O7 Rb4 2.963628 1_655
O7 Rb5 3.314108 1_545
O7 Rb6 3.465377 1_655
O8 Rb3 2.948979 1_555
O8 Rb4 2.963628 1_555
O8 Rb5 3.314108 1_545
O8 Rb6 3.465377 1_555
O9 Rb0 2.948979 1_556
O9 Rb7 2.963628 1_565
O9 Rb6 3.314108 1_555
O9 Rb5 3.465377 1_555
O10 Rb0 2.948979 1_556
O10 Rb7 2.963628 1_465
O10 Rb6 3.314108 1_555
O10 Rb5 3.465377 1_455
O11 Rb1 2.962299 1_556
O11 Rb7 3.095121 1_555
O11 Rb6 3.187003 1_655
O11 Rb6 3.187003 1_555
