# generated using pymatgen
data_SrCu(C2O5)2
_symmetry_space_group_name_H-M   'P 1'
_cell_length_a   7.49038400
_cell_length_b   17.64956100
_cell_length_c   18.65231800
_cell_angle_alpha   90.00000000
_cell_angle_beta   90.00000000
_cell_angle_gamma   90.00000000
_symmetry_Int_Tables_number   1
_chemical_formula_structural   SrCu(C2O5)2
_chemical_formula_sum   'Sr8 Cu8 C32 O80'
_cell_volume   2465.87354506
_cell_formula_units_Z   8
loop_
 _symmetry_equiv_pos_site_id
 _symmetry_equiv_pos_as_xyz
  1  'x, y, z'
loop_
 _atom_site_type_symbol
 _atom_site_label
 _atom_site_symmetry_multiplicity
 _atom_site_fract_x
 _atom_site_fract_y
 _atom_site_fract_z
 _atom_site_occupancy
  Sr  Sr0  1  0.79702000  0.94365500  0.04125500  1
  Sr  Sr1  1  0.70298000  0.44365500  0.95874500  1
  Sr  Sr2  1  0.29702000  0.05634500  0.45874500  1
  Sr  Sr3  1  0.20298000  0.55634500  0.54125500  1
  Sr  Sr4  1  0.20298000  0.05634500  0.95874500  1
  Sr  Sr5  1  0.29702000  0.55634500  0.04125500  1
  Sr  Sr6  1  0.70298000  0.94365500  0.54125500  1
  Sr  Sr7  1  0.79702000  0.44365500  0.45874500  1
  Cu  Cu0  1  0.64014400  0.79582400  0.16741700  1
  Cu  Cu1  1  0.85985600  0.29582400  0.83258300  1
  Cu  Cu2  1  0.14014400  0.20417600  0.33258300  1
  Cu  Cu3  1  0.35985600  0.70417600  0.66741700  1
  Cu  Cu4  1  0.35985600  0.20417600  0.83258300  1
  Cu  Cu5  1  0.14014400  0.70417600  0.16741700  1
  Cu  Cu6  1  0.85985600  0.79582400  0.66741700  1
  Cu  Cu7  1  0.64014400  0.29582400  0.33258300  1
  C  C0  1  0.51177300  0.83124200  0.95121100  1
  C  C1  1  0.98822700  0.33124200  0.04878900  1
  C  C2  1  0.01177300  0.16875800  0.54878900  1
  C  C3  1  0.48822700  0.66875800  0.45121100  1
  C  C4  1  0.48822700  0.16875800  0.04878900  1
  C  C5  1  0.01177300  0.66875800  0.95121100  1
  C  C6  1  0.98822700  0.83124200  0.45121100  1
  C  C7  1  0.51177300  0.33124200  0.54878900  1
  C  C8  1  0.27201900  0.91589400  0.10913100  1
  C  C9  1  0.22798100  0.41589400  0.89086900  1
  C  C10  1  0.77201900  0.08410600  0.39086900  1
  C  C11  1  0.72798100  0.58410600  0.60913100  1
  C  C12  1  0.72798100  0.08410600  0.89086900  1
  C  C13  1  0.77201900  0.58410600  0.10913100  1
  C  C14  1  0.22798100  0.91589400  0.60913100  1
  C  C15  1  0.27201900  0.41589400  0.39086900  1
  C  C16  1  0.34416500  0.71533600  0.24058600  1
  C  C17  1  0.15583500  0.21533600  0.75941400  1
  C  C18  1  0.84416500  0.28466400  0.25941400  1
  C  C19  1  0.65583500  0.78466400  0.74058600  1
  C  C20  1  0.65583500  0.28466400  0.75941400  1
  C  C21  1  0.84416500  0.78466400  0.24058600  1
  C  C22  1  0.15583500  0.71533600  0.74058600  1
  C  C23  1  0.34416500  0.21533600  0.25941400  1
  C  C24  1  0.88829700  0.03409900  0.20069500  1
  C  C25  1  0.61170300  0.53409900  0.79930500  1
  C  C26  1  0.38829700  0.96590100  0.29930500  1
  C  C27  1  0.11170300  0.46590100  0.70069500  1
  C  C28  1  0.11170300  0.96590100  0.79930500  1
  C  C29  1  0.38829700  0.46590100  0.20069500  1
  C  C30  1  0.61170300  0.03409900  0.70069500  1
  C  C31  1  0.88829700  0.53409900  0.29930500  1
  O  O0  1  0.50354300  0.89809300  0.95784400  1
  O  O1  1  0.99645700  0.39809300  0.04215600  1
  O  O2  1  0.00354300  0.10190700  0.54215600  1
  O  O3  1  0.49645700  0.60190700  0.45784400  1
  O  O4  1  0.49645700  0.10190700  0.04215600  1
  O  O5  1  0.00354300  0.60190700  0.95784400  1
  O  O6  1  0.99645700  0.89809300  0.45784400  1
  O  O7  1  0.50354300  0.39809300  0.54215600  1
  O  O8  1  0.51911200  0.76579900  0.94459500  1
  O  O9  1  0.98088800  0.26579900  0.05540500  1
  O  O10  1  0.01911200  0.23420100  0.55540500  1
  O  O11  1  0.48088800  0.73420100  0.44459500  1
  O  O12  1  0.48088800  0.23420100  0.05540500  1
  O  O13  1  0.01911200  0.73420100  0.94459500  1
  O  O14  1  0.98088800  0.76579900  0.44459500  1
  O  O15  1  0.51911200  0.26579900  0.55540500  1
  O  O16  1  0.41674500  0.94109500  0.11423400  1
  O  O17  1  0.08325500  0.44109500  0.88576600  1
  O  O18  1  0.91674500  0.05890500  0.38576600  1
  O  O19  1  0.58325500  0.55890500  0.61423400  1
  O  O20  1  0.58325500  0.05890500  0.88576600  1
  O  O21  1  0.91674500  0.55890500  0.11423400  1
  O  O22  1  0.08325500  0.94109500  0.61423400  1
  O  O23  1  0.41674500  0.44109500  0.38576600  1
  O  O24  1  0.12829100  0.88972600  0.10430100  1
  O  O25  1  0.37170900  0.38972600  0.89569900  1
  O  O26  1  0.62829100  0.11027400  0.39569900  1
  O  O27  1  0.87170900  0.61027400  0.60430100  1
  O  O28  1  0.87170900  0.11027400  0.89569900  1
  O  O29  1  0.62829100  0.61027400  0.10430100  1
  O  O30  1  0.37170900  0.88972600  0.60430100  1
  O  O31  1  0.12829100  0.38972600  0.39569900  1
  O  O32  1  0.43605300  0.77029100  0.22084900  1
  O  O33  1  0.06394700  0.27029100  0.77915100  1
  O  O34  1  0.93605300  0.22970900  0.27915100  1
  O  O35  1  0.56394700  0.72970900  0.72084900  1
  O  O36  1  0.56394700  0.22970900  0.77915100  1
  O  O37  1  0.93605300  0.72970900  0.22084900  1
  O  O38  1  0.06394700  0.77029100  0.72084900  1
  O  O39  1  0.43605300  0.27029100  0.27915100  1
  O  O40  1  0.32958100  0.67287000  0.29087900  1
  O  O41  1  0.17041900  0.17287000  0.70912100  1
  O  O42  1  0.82958100  0.32713000  0.20912100  1
  O  O43  1  0.67041900  0.82713000  0.79087900  1
  O  O44  1  0.67041900  0.32713000  0.70912100  1
  O  O45  1  0.82958100  0.82713000  0.29087900  1
  O  O46  1  0.17041900  0.67287000  0.79087900  1
  O  O47  1  0.32958100  0.17287000  0.20912100  1
  O  O48  1  0.78099300  0.98947100  0.18154000  1
  O  O49  1  0.71900700  0.48947100  0.81846000  1
  O  O50  1  0.28099300  0.01052900  0.31846000  1
  O  O51  1  0.21900700  0.51052900  0.68154000  1
  O  O52  1  0.21900700  0.01052900  0.81846000  1
  O  O53  1  0.28099300  0.51052900  0.18154000  1
  O  O54  1  0.71900700  0.98947100  0.68154000  1
  O  O55  1  0.78099300  0.48947100  0.31846000  1
  O  O56  1  0.99094100  0.07762700  0.22374100  1
  O  O57  1  0.50905900  0.57762700  0.77625900  1
  O  O58  1  0.49094100  0.92237300  0.27625900  1
  O  O59  1  0.00905900  0.42237300  0.72374100  1
  O  O60  1  0.00905900  0.92237300  0.77625900  1
  O  O61  1  0.49094100  0.42237300  0.22374100  1
  O  O62  1  0.50905900  0.07762700  0.72374100  1
  O  O63  1  0.99094100  0.57762700  0.27625900  1
  O  O64  1  0.00576600  0.95276900  0.94833800  1
  O  O65  1  0.49423400  0.45276900  0.05166200  1
  O  O66  1  0.50576600  0.04723100  0.55166200  1
  O  O67  1  0.99423400  0.54723100  0.44833800  1
  O  O68  1  0.99423400  0.04723100  0.05166200  1
  O  O69  1  0.50576600  0.54723100  0.94833800  1
  O  O70  1  0.49423400  0.95276900  0.44833800  1
  O  O71  1  0.00576600  0.45276900  0.55166200  1
  O  O72  1  0.76553100  0.82581800  0.09553300  1
  O  O73  1  0.73446900  0.32581800  0.90446700  1
  O  O74  1  0.26553100  0.17418200  0.40446700  1
  O  O75  1  0.23446900  0.67418200  0.59553300  1
  O  O76  1  0.23446900  0.17418200  0.90446700  1
  O  O77  1  0.26553100  0.67418200  0.09553300  1
  O  O78  1  0.73446900  0.82581800  0.59553300  1
  O  O79  1  0.76553100  0.32581800  0.40446700  1
loop_
_geom_bond_atom_site_label_1
_geom_bond_atom_site_label_2
_geom_bond_distance
_geom_bond_site_symmetry_2
Cu0 O72 1.720491 1_555
Cu0 O32 1.879718 1_555
Cu1 O73 1.720491 1_555
Cu1 O33 1.879718 1_655
Cu2 O74 1.720491 1_555
Cu2 O34 1.879718 1_455
Cu3 O75 1.720491 1_555
Cu3 O35 1.879718 1_555
Cu4 O76 1.720491 1_555
Cu4 O36 1.879718 1_555
Cu5 O77 1.720491 1_555
Cu5 O37 1.879718 1_455
Cu6 O78 1.720491 1_555
Cu6 O38 1.879718 1_655
Cu7 O79 1.720491 1_555
Cu7 O39 1.879718 1_555
C0 O8 1.162914 1_555
C0 O0 1.187960 1_555
C1 O9 1.162914 1_555
C1 O1 1.187960 1_555
C2 O10 1.162914 1_555
C2 O2 1.187960 1_555
C3 O11 1.162914 1_555
C3 O3 1.187960 1_555
C4 O12 1.162914 1_555
C4 O4 1.187960 1_555
C5 O13 1.162914 1_555
C5 O5 1.187960 1_555
C6 O14 1.162914 1_555
C6 O6 1.187960 1_555
C7 O15 1.162914 1_555
C7 O7 1.187960 1_555
C8 O24 1.174923 1_555
C8 O16 1.175613 1_555
C9 O25 1.174923 1_555
C9 O17 1.175613 1_555
C10 O26 1.174923 1_555
C10 O18 1.175613 1_555
C11 O27 1.174923 1_555
C11 O19 1.175613 1_555
C12 O28 1.174923 1_555
C12 O20 1.175613 1_555
C13 O29 1.174923 1_555
C13 O21 1.175613 1_555
C14 O30 1.174923 1_555
C14 O22 1.175613 1_555
C15 O31 1.174923 1_555
C15 O23 1.175613 1_555
C16 O40 1.205690 1_555
C16 O32 1.244998 1_555
C16 Cu5 2.058344 1_555
C17 O41 1.205690 1_555
C17 O33 1.244998 1_555
C17 Cu4 2.058344 1_555
C18 O42 1.205690 1_555
C18 O34 1.244998 1_555
C18 Cu7 2.058344 1_555
C19 O43 1.205690 1_555
C19 O35 1.244998 1_555
C19 Cu6 2.058344 1_555
C20 O44 1.205690 1_555
C20 O36 1.244998 1_555
C20 Cu1 2.058344 1_555
C21 O45 1.205690 1_555
C21 O37 1.244998 1_555
C21 Cu0 2.058344 1_555
C22 O46 1.205690 1_555
C22 O38 1.244998 1_555
C22 Cu3 2.058344 1_555
C23 O47 1.205690 1_555
C23 O39 1.244998 1_555
C23 Cu2 2.058344 1_555
C24 O56 1.168806 1_555
C24 O48 1.180711 1_545
C25 O57 1.168806 1_555
C25 O49 1.180711 1_555
C26 O58 1.168806 1_555
C26 O50 1.180711 1_565
C27 O59 1.168806 1_555
C27 O51 1.180711 1_555
C28 O60 1.168806 1_555
C28 O52 1.180711 1_565
C29 O61 1.168806 1_555
C29 O53 1.180711 1_555
C30 O62 1.168806 1_555
C30 O54 1.180711 1_545
C31 O63 1.168806 1_555
C31 O55 1.180711 1_555
O0 Sr0 2.810609 1_556
O1 Sr1 2.810609 1_554
O2 Sr2 2.810609 1_555
O3 Sr3 2.810609 1_555
O4 Sr4 2.810609 1_554
O5 Sr5 2.810609 1_556
O6 Sr6 2.810609 1_555
O7 Sr7 2.810609 1_555
O16 Sr0 3.157277 1_555
O17 Sr1 3.157277 1_455
O18 Sr2 3.157277 1_655
O19 Sr3 3.157277 1_555
O20 Sr4 3.157277 1_555
O21 Sr5 3.157277 1_655
O22 Sr6 3.157277 1_455
O23 Sr7 3.157277 1_555
O24 Sr0 2.906186 1_455
O25 Sr1 2.906186 1_555
O26 Sr2 2.906186 1_555
O27 Sr3 2.906186 1_655
O28 Sr4 2.906186 1_655
O29 Sr5 2.906186 1_555
O30 Sr6 2.906186 1_555
O31 Sr7 2.906186 1_455
O48 Sr0 2.741369 1_555
O49 Sr1 2.741369 1_555
O50 Sr2 2.741369 1_555
O51 Sr3 2.741369 1_555
O52 Sr4 2.741369 1_555
O53 Sr5 2.741369 1_555
O54 Sr6 2.741369 1_555
O55 Sr7 2.741369 1_555
O64 Sr0 2.339739 1_456
O64 Sr4 2.358319 1_565
O65 Sr1 2.339739 1_554
O65 Sr5 2.358319 1_555
O66 Sr2 2.339739 1_555
O66 Sr6 2.358319 1_545
O67 Sr3 2.339739 1_655
O67 Sr7 2.358319 1_555
O68 Sr4 2.339739 1_654
O68 Sr0 2.358319 1_545
O69 Sr5 2.339739 1_556
O69 Sr1 2.358319 1_555
O70 Sr6 2.339739 1_555
O70 Sr2 2.358319 1_565
O71 Sr7 2.339739 1_455
O71 Sr3 2.358319 1_555
O72 Sr0 2.325093 1_555
O73 Sr1 2.325093 1_555
O74 Sr2 2.325093 1_555
O75 Sr3 2.325093 1_555
O76 Sr4 2.325093 1_555
O77 Sr5 2.325093 1_555
O78 Sr6 2.325093 1_555
O79 Sr7 2.325093 1_555
