# generated using pymatgen
data_Li4VFe(WO6)2
_symmetry_space_group_name_H-M   'P 1'
_cell_length_a   5.13266400
_cell_length_b   5.37366621
_cell_length_c   7.39987370
_cell_angle_alpha   86.50626314
_cell_angle_beta   89.94114693
_cell_angle_gamma   89.98411313
_symmetry_Int_Tables_number   1
_chemical_formula_structural   Li4VFe(WO6)2
_chemical_formula_sum   'Li4 V1 Fe1 W2 O12'
_cell_volume   203.71813289
_cell_formula_units_Z   1
loop_
 _symmetry_equiv_pos_site_id
 _symmetry_equiv_pos_as_xyz
  1  'x, y, z'
loop_
 _atom_site_type_symbol
 _atom_site_label
 _atom_site_symmetry_multiplicity
 _atom_site_fract_x
 _atom_site_fract_y
 _atom_site_fract_z
 _atom_site_occupancy
  Li  Li0  1  0.99989400  0.54080900  0.25731600  1
  Li  Li1  1  0.50211000  0.06359700  0.79827800  1
  Li  Li2  1  0.00414300  0.56074700  0.79152400  1
  Li  Li3  1  0.49555800  0.98917800  0.23416200  1
  V  V0  1  0.50132700  0.46841600  0.49162400  1
  Fe  Fe0  1  0.99993800  0.01004300  0.00255700  1
  W  W0  1  0.99181900  0.97724700  0.50243200  1
  W  W1  1  0.50454300  0.50746200  0.99120000  1
  O  O0  1  0.68929600  0.80642500  0.43887300  1
  O  O1  1  0.88945800  0.00376400  0.74760900  1
  O  O2  1  0.68783800  0.19880900  0.05372700  1
  O  O3  1  0.80075800  0.31419600  0.44047100  1
  O  O4  1  0.20139300  0.31038200  0.94328200  1
  O  O5  1  0.61679400  0.49999300  0.74352400  1
  O  O6  1  0.38700900  0.50130600  0.25901800  1
  O  O7  1  0.80529300  0.69681700  0.05422400  1
  O  O8  1  0.19068900  0.68851300  0.55925000  1
  O  O9  1  0.30274700  0.80588800  0.94688200  1
  O  O10  1  0.11310200  0.00087500  0.25764500  1
  O  O11  1  0.31629200  0.19793400  0.55760200  1
loop_
_geom_bond_atom_site_label_1
_geom_bond_atom_site_label_2
_geom_bond_distance
_geom_bond_site_symmetry_2
Li0 O7 1.951432 1_555
Li0 O6 1.998151 1_655
Li0 O3 2.039896 1_555
Li0 O10 2.539910 1_665
Li0 O0 2.571338 1_555
Li1 O9 1.996737 1_545
Li1 O1 2.051686 1_555
Li1 O11 2.109268 1_555
Li1 O2 2.276257 1_556
Li1 O4 2.336926 1_555
Li1 O5 2.427833 1_555
Li2 O4 1.978277 1_555
Li2 O8 2.048309 1_555
Li2 O5 2.049722 1_455
Li2 O7 2.350321 1_456
Li2 O9 2.365423 1_555
Li2 O1 2.454548 1_465
Li3 O2 1.959669 1_565
Li3 O10 1.971839 1_565
Li3 O0 2.017229 1_555
Li3 O9 2.593976 1_554
Fe0 O4 1.944225 1_654
Fe0 O2 1.945013 1_555
Fe0 O9 1.960023 1_644
Fe0 O1 1.972778 1_554
Fe0 O10 1.973272 1_655
Fe0 O7 1.974602 1_545
O0 W0 1.878766 1_555
O0 V0 2.072699 1_555
O1 W0 1.901959 1_545
O2 W1 1.938200 1_554
O3 V0 1.796774 1_555
O3 W0 2.085454 1_545
O4 W1 1.927732 1_555
O5 W1 1.923380 1_555
O5 V0 1.973704 1_555
O6 V0 1.817465 1_555
O6 W1 2.069346 1_554
O7 W1 1.922474 1_554
O8 W0 1.883217 1_455
O8 V0 2.064179 1_555
O9 W1 1.920332 1_555
O10 W0 1.911668 1_445
O11 V0 1.779401 1_555
O11 W0 2.099551 1_445
