# generated using pymatgen
data_NaSeO3
_symmetry_space_group_name_H-M   'P 1'
_cell_length_a   11.80637855
_cell_length_b   11.80637855
_cell_length_c   10.87838634
_cell_angle_alpha   89.19880081
_cell_angle_beta   89.19880081
_cell_angle_gamma   31.88170065
_symmetry_Int_Tables_number   1
_chemical_formula_structural   NaSeO3
_chemical_formula_sum   'Na8 Se8 O24'
_cell_volume   800.79869008
_cell_formula_units_Z   8
loop_
 _symmetry_equiv_pos_site_id
 _symmetry_equiv_pos_as_xyz
  1  'x, y, z'
loop_
 _atom_site_type_symbol
 _atom_site_label
 _atom_site_symmetry_multiplicity
 _atom_site_fract_x
 _atom_site_fract_y
 _atom_site_fract_z
 _atom_site_occupancy
  Na  Na0  1  0.21692900  0.23231900  0.35234600  1
  Na  Na1  1  0.76768100  0.78307200  0.14765400  1
  Na  Na2  1  0.78307200  0.76768100  0.64765400  1
  Na  Na3  1  0.23231900  0.21692900  0.85234600  1
  Na  Na4  1  0.35874500  0.90744900  0.12891400  1
  Na  Na5  1  0.09255100  0.64125500  0.37108600  1
  Na  Na6  1  0.64125500  0.09255100  0.87108600  1
  Na  Na7  1  0.90744900  0.35874500  0.62891400  1
  Se  Se0  1  0.60831300  0.73231800  0.41743300  1
  Se  Se1  1  0.26768200  0.39168700  0.08256700  1
  Se  Se2  1  0.39168700  0.26768200  0.58256700  1
  Se  Se3  1  0.73231800  0.60831300  0.91743300  1
  Se  Se4  1  0.16109000  0.96436600  0.38924900  1
  Se  Se5  1  0.03563400  0.83891000  0.11075100  1
  Se  Se6  1  0.83891000  0.03563400  0.61075100  1
  Se  Se7  1  0.96436600  0.16109000  0.88924900  1
  O  O0  1  0.49229700  0.88751400  0.53902000  1
  O  O1  1  0.11248600  0.50770300  0.96098000  1
  O  O2  1  0.50770300  0.11248600  0.46098000  1
  O  O3  1  0.88751400  0.49229700  0.03902000  1
  O  O4  1  0.86950000  0.49680400  0.44387900  1
  O  O5  1  0.50319600  0.13050000  0.05612100  1
  O  O6  1  0.13050000  0.50319600  0.55612100  1
  O  O7  1  0.49680400  0.86950000  0.94387900  1
  O  O8  1  0.55800200  0.84781400  0.28694700  1
  O  O9  1  0.15218600  0.44199800  0.21305300  1
  O  O10  1  0.44199800  0.15218600  0.71305300  1
  O  O11  1  0.84781400  0.55800200  0.78694700  1
  O  O12  1  0.05817400  0.08195900  0.52541300  1
  O  O13  1  0.91804100  0.94182600  0.97458700  1
  O  O14  1  0.94182600  0.91804100  0.47458700  1
  O  O15  1  0.08195900  0.05817400  0.02541300  1
  O  O16  1  0.12723500  0.10522700  0.29685400  1
  O  O17  1  0.89477300  0.87276500  0.20314600  1
  O  O18  1  0.87276500  0.89477300  0.70314600  1
  O  O19  1  0.10522700  0.12723500  0.79685400  1
  O  O20  1  0.50178100  0.68763700  0.39823000  1
  O  O21  1  0.31236300  0.49821900  0.10177000  1
  O  O22  1  0.49821900  0.31236300  0.60177000  1
  O  O23  1  0.68763700  0.50178100  0.89823000  1
loop_
_geom_bond_atom_site_label_1
_geom_bond_atom_site_label_2
_geom_bond_distance
_geom_bond_site_symmetry_2
Na0 O9 2.392196 1_555
Na0 O4 2.405778 1_455
Na0 O8 2.508942 1_545
Na0 O16 2.545392 1_555
Na0 O2 2.646094 1_555
Na0 O0 2.956776 1_545
Na1 O8 2.392202 1_555
Na1 O5 2.405771 1_565
Na1 O9 2.508943 1_655
Na1 O17 2.545381 1_555
Na1 O3 2.646104 1_555
Na1 O1 2.956775 1_654
Na2 O11 2.392202 1_555
Na2 O6 2.405771 1_655
Na2 O10 2.508943 1_565
Na2 O18 2.545381 1_555
Na2 O0 2.646104 1_555
Na2 O2 2.956775 1_565
Na3 O10 2.392196 1_555
Na3 O7 2.405778 1_545
Na3 O11 2.508942 1_455
Na3 O19 2.545392 1_555
Na3 O1 2.646094 1_555
Na3 O3 2.956776 1_456
Na4 O15 2.298745 1_565
Na4 O16 2.324126 1_565
Na4 O7 2.366956 1_554
Na4 O8 2.500356 1_555
Na5 O14 2.298745 1_455
Na5 O17 2.324126 1_455
Na5 O6 2.366956 1_555
Na5 O9 2.500356 1_555
Na6 O13 2.298745 1_545
Na6 O18 2.324126 1_545
Na6 O5 2.366956 1_556
Na6 O10 2.500356 1_555
Na7 O12 2.298745 1_655
Na7 O19 2.324126 1_655
Na7 O4 2.366956 1_555
Na7 O11 2.500356 1_555
O0 Se0 1.654625 1_555
O1 Se1 1.654625 1_556
O2 Se2 1.654625 1_555
O3 Se3 1.654625 1_554
O4 Se0 1.662566 1_555
O5 Se1 1.662566 1_555
O6 Se2 1.662566 1_555
O7 Se3 1.662566 1_555
O8 Se0 1.679591 1_555
O9 Se1 1.679591 1_555
O10 Se2 1.679591 1_555
O11 Se3 1.679591 1_555
O12 Se4 1.655376 1_545
O13 Se5 1.655376 1_656
O14 Se6 1.655376 1_565
O15 Se7 1.655376 1_454
O16 Se4 1.664739 1_545
O17 Se5 1.664739 1_655
O18 Se6 1.664739 1_565
O19 Se7 1.664739 1_455
O20 Se0 1.743874 1_555
O20 Se4 2.132358 1_555
O21 Se1 1.743874 1_555
O21 Se5 2.132358 1_555
O22 Se2 1.743874 1_555
O22 Se6 2.132358 1_555
O23 Se3 1.743874 1_555
O23 Se7 2.132358 1_555
