# generated using pymatgen
data_CsMnH4(OF2)2
_symmetry_space_group_name_H-M   'P 1'
_cell_length_a   6.72360906
_cell_length_b   12.05099934
_cell_length_c   8.72478312
_cell_angle_alpha   83.92371200
_cell_angle_beta   112.65010360
_cell_angle_gamma   90.00648224
_symmetry_Int_Tables_number   1
_chemical_formula_structural   CsMnH4(OF2)2
_chemical_formula_sum   'Cs4 Mn4 H16 O8 F16'
_cell_volume   648.11063558
_cell_formula_units_Z   4
loop_
 _symmetry_equiv_pos_site_id
 _symmetry_equiv_pos_as_xyz
  1  'x, y, z'
loop_
 _atom_site_type_symbol
 _atom_site_label
 _atom_site_symmetry_multiplicity
 _atom_site_fract_x
 _atom_site_fract_y
 _atom_site_fract_z
 _atom_site_occupancy
  Cs  Cs0  1  0.22197700  0.24999000  0.49982700  1
  Cs  Cs1  1  0.72181800  0.75001300  0.49994600  1
  Cs  Cs2  1  0.02388600  0.00003200  0.00000200  1
  Cs  Cs3  1  0.52384500  0.49998400  0.99990000  1
  Mn  Mn0  1  0.37272800  0.87477300  0.75016300  1
  Mn  Mn1  1  0.62263000  0.12496500  0.24976100  1
  Mn  Mn2  1  0.87305200  0.37505600  0.74977500  1
  Mn  Mn3  1  0.12240400  0.62496900  0.25016500  1
  H  H0  1  0.55364600  0.46137900  0.42603800  1
  H  H1  1  0.05385500  0.96135500  0.42625400  1
  H  H2  1  0.61807500  0.21142300  0.92592400  1
  H  H3  1  0.11796200  0.71124700  0.92628900  1
  H  H4  1  0.19184600  0.28876300  0.07380700  1
  H  H5  1  0.69197600  0.78867400  0.07418800  1
  H  H6  1  0.62756200  0.03871900  0.57388300  1
  H  H7  1  0.12763400  0.53868700  0.57402900  1
  H  H8  1  0.08143800  0.40048800  0.09677700  1
  H  H9  1  0.58177500  0.90049300  0.09709300  1
  H  H10  1  0.66394500  0.34968300  0.40273100  1
  H  H11  1  0.16392700  0.84958200  0.40303700  1
  H  H12  1  0.76093800  0.15045600  0.59699400  1
  H  H13  1  0.26103100  0.65043500  0.59716300  1
  H  H14  1  0.48496700  0.09955700  0.90303900  1
  H  H15  1  0.98481300  0.59945200  0.90312200  1
  O  O0  1  0.63254100  0.38975100  0.48513900  1
  O  O1  1  0.13255900  0.88970000  0.48541800  1
  O  O2  1  0.11302300  0.36036500  0.01450000  1
  O  O3  1  0.61325200  0.86028500  0.01483300  1
  O  O4  1  0.59866900  0.13978300  0.98525800  1
  O  O5  1  0.09846100  0.63959900  0.98551600  1
  O  O6  1  0.64712500  0.11035100  0.51466000  1
  O  O7  1  0.14712200  0.61036700  0.51484600  1
  F  F0  1  0.03480400  0.47597600  0.22969000  1
  F  F1  1  0.53484700  0.97604700  0.22949200  1
  F  F2  1  0.71044500  0.27397200  0.27015700  1
  F  F3  1  0.21015200  0.77395600  0.27036100  1
  F  F4  1  0.94017200  0.22597700  0.72953600  1
  F  F5  1  0.44015800  0.72590200  0.72989500  1
  F  F6  1  0.30569900  0.02387000  0.77060900  1
  F  F7  1  0.80577500  0.52397300  0.77015200  1
  F  F8  1  0.09874600  0.42436600  0.68264500  1
  F  F9  1  0.59834000  0.92434000  0.68297300  1
  F  F10  1  0.64687600  0.32565500  0.81666000  1
  F  F11  1  0.14668400  0.82551900  0.81710500  1
  F  F12  1  0.32998200  0.17452800  0.18303500  1
  F  F13  1  0.82961600  0.67438000  0.18331000  1
  F  F14  1  0.91553800  0.07560500  0.31710100  1
  F  F15  1  0.41524200  0.57555900  0.31720500  1
loop_
_geom_bond_atom_site_label_1
_geom_bond_atom_site_label_2
_geom_bond_distance
_geom_bond_site_symmetry_2
Cs0 F8 3.061777 1_555
Cs0 F14 3.062923 1_455
Cs0 F4 3.239185 1_455
Cs0 F2 3.239969 1_455
Cs0 O6 3.269522 1_555
Cs0 O0 3.270944 1_555
Cs0 F0 3.303449 1_555
Cs0 F6 3.307108 1_555
Cs0 F12 3.327444 1_555
Cs0 F10 3.329413 1_555
Cs1 F9 3.063395 1_555
Cs1 F15 3.064018 1_555
Cs1 F5 3.240159 1_555
Cs1 F3 3.240551 1_555
Cs1 O7 3.270261 1_655
Cs1 O1 3.271079 1_655
Cs1 F7 3.303402 1_555
Cs1 F1 3.305065 1_555
Cs1 F13 3.326156 1_555
Cs1 F11 3.330106 1_655
Cs2 F11 3.062111 1_544
Cs2 F12 3.063724 1_555
Cs2 F1 3.236494 1_545
Cs2 F6 3.236879 1_554
Cs2 O4 3.270883 1_454
Cs2 O3 3.271649 1_445
Cs2 F4 3.303987 1_454
Cs2 F3 3.304549 1_545
Cs2 F14 3.331696 1_455
Cs2 F9 3.332777 1_444
Cs3 F13 3.062907 1_556
Cs3 F10 3.063294 1_555
Cs3 F0 3.237015 1_656
Cs3 F7 3.240154 1_555
Cs3 O2 3.271323 1_556
Cs3 O5 3.272117 1_555
Cs3 F5 3.301506 1_555
Cs3 F2 3.303779 1_556
Cs3 F8 3.331880 1_555
Cs3 F15 3.334324 1_556
Mn0 O1 2.239331 1_555
Mn0 O3 2.239776 1_556
Mn1 O4 2.238276 1_554
Mn1 O6 2.240622 1_555
Mn2 O2 2.238853 1_656
Mn2 O0 2.239450 1_555
Mn3 O7 2.238249 1_555
Mn3 O5 2.239650 1_554
H0 O0 0.993767 1_555
H1 O1 0.993725 1_555
H2 O4 0.993851 1_555
H3 O5 0.993694 1_555
H4 O2 0.993750 1_555
H5 O3 0.993711 1_555
H6 O6 0.993659 1_555
H7 O7 0.993795 1_555
H8 O2 0.992532 1_555
H9 O3 0.992626 1_555
H10 O0 0.992540 1_555
H11 O1 0.992558 1_555
H12 O6 0.992583 1_555
H13 O7 0.992579 1_555
H14 O4 0.992559 1_555
H15 O5 0.992574 1_655
F0 Mn3 1.894550 1_555
F1 Mn1 1.893889 1_565
F2 Mn1 1.895057 1_555
F3 Mn3 1.894574 1_555
F4 Mn2 1.895035 1_555
F5 Mn0 1.893280 1_555
F6 Mn0 1.895591 1_545
F7 Mn2 1.893799 1_555
F8 Mn2 1.899881 1_455
F9 Mn0 1.900550 1_555
F10 Mn2 1.901918 1_555
F11 Mn0 1.900897 1_555
F12 Mn1 1.900446 1_555
F13 Mn3 1.900653 1_655
F14 Mn1 1.900696 1_555
F15 Mn3 1.900757 1_555
