# generated using pymatgen
data_Na5Fe2P2(CO7)2
_symmetry_space_group_name_H-M   'P 1'
_cell_length_a   8.99452067
_cell_length_b   5.27275991
_cell_length_c   6.62254132
_cell_angle_alpha   89.70059490
_cell_angle_beta   88.04933799
_cell_angle_gamma   89.16464163
_symmetry_Int_Tables_number   1
_chemical_formula_structural   Na5Fe2P2(CO7)2
_chemical_formula_sum   'Na5 Fe2 P2 C2 O14'
_cell_volume   313.86141648
_cell_formula_units_Z   1
loop_
 _symmetry_equiv_pos_site_id
 _symmetry_equiv_pos_as_xyz
  1  'x, y, z'
loop_
 _atom_site_type_symbol
 _atom_site_label
 _atom_site_symmetry_multiplicity
 _atom_site_fract_x
 _atom_site_fract_y
 _atom_site_fract_z
 _atom_site_occupancy
  Na  Na0  1  0.08717800  0.76846500  0.23446200  1
  Na  Na1  1  0.26658200  0.24296400  0.48638200  1
  Na  Na2  1  0.74156500  0.74839500  0.48893400  1
  Na  Na3  1  0.73621000  0.74834100  0.99493900  1
  Na  Na4  1  0.92515800  0.24370100  0.76333700  1
  Fe  Fe0  1  0.34528700  0.78235400  0.76770700  1
  Fe  Fe1  1  0.64786100  0.22405500  0.24513000  1
  P  P0  1  0.41754500  0.70504000  0.25785400  1
  P  P1  1  0.57822600  0.28147400  0.74570100  1
  C  C0  1  0.06455300  0.73034600  0.74682400  1
  C  C1  1  0.93777900  0.27794500  0.25270400  1
  O  O0  1  0.07454000  0.30497200  0.28899800  1
  O  O1  1  0.12521200  0.95340500  0.75766600  1
  O  O2  1  0.15596900  0.53649500  0.74959500  1
  O  O3  1  0.32574700  0.77086500  0.06654700  1
  O  O4  1  0.31715900  0.79047500  0.44450500  1
  O  O5  1  0.43563200  0.12148200  0.74059900  1
  O  O6  1  0.44604100  0.41694800  0.27189300  1
  O  O7  1  0.53322400  0.57175900  0.74795600  1
  O  O8  1  0.56698500  0.84634300  0.25060500  1
  O  O9  1  0.68372300  0.23137500  0.55958700  1
  O  O10  1  0.67346200  0.21921000  0.93034800  1
  O  O11  1  0.84910400  0.47689500  0.23193100  1
  O  O12  1  0.87913000  0.05230700  0.23529200  1
  O  O13  1  0.92264900  0.70481000  0.73804400  1
loop_
_geom_bond_atom_site_label_1
_geom_bond_atom_site_label_2
_geom_bond_distance
_geom_bond_site_symmetry_2
Na0 O12 2.378947 1_465
Na0 O3 2.383164 1_555
Na0 O0 2.472252 1_555
Na0 O4 2.536130 1_555
Na0 O11 2.654797 1_455
Na0 O0 2.853838 1_565
Na1 O0 2.220825 1_555
Na1 O6 2.310461 1_555
Na1 O5 2.385640 1_555
Na1 O4 2.437806 1_545
Na1 O2 2.507797 1_555
Na1 O1 2.654816 1_545
Na2 O8 2.315207 1_555
Na2 O13 2.365456 1_555
Na2 O11 2.398917 1_555
Na2 O12 2.609332 1_565
Na2 O9 2.632910 1_565
Na2 O7 2.671504 1_555
Na2 O9 2.816523 1_555
Na3 O8 2.293764 1_556
Na3 O13 2.357504 1_555
Na3 O11 2.363380 1_556
Na3 O10 2.574914 1_565
Na3 O12 2.642154 1_566
Na3 O7 2.672912 1_555
Na3 O10 2.891423 1_555
Na4 O1 2.344745 1_645
Na4 O13 2.436036 1_555
Na4 O10 2.490329 1_555
Na4 O9 2.597167 1_555
Na4 O2 2.603986 1_655
Na4 O13 2.847712 1_545
Fe0 O5 1.979670 1_565
Fe0 O3 1.981589 1_556
Fe0 O7 2.009809 1_555
Fe0 O2 2.162044 1_555
Fe0 O4 2.163984 1_555
Fe0 O1 2.166204 1_555
Fe1 O6 2.070562 1_555
Fe1 O10 2.089779 1_554
Fe1 O9 2.118795 1_555
Fe1 O8 2.129927 1_545
Fe1 O12 2.255623 1_555
Fe1 O11 2.262686 1_555
C0 O13 1.288700 1_455
C0 O2 1.302880 1_555
C0 O1 1.307054 1_555
C1 O0 1.271544 1_655
C1 O12 1.315644 1_555
C1 O11 1.317981 1_555
O3 P0 1.570225 1_555
O4 P0 1.569756 1_555
O5 P1 1.546794 1_555
O6 P0 1.539680 1_555
O7 P1 1.577521 1_555
O8 P0 1.545498 1_555
O9 P1 1.551073 1_555
O10 P1 1.547832 1_555
