# generated using pymatgen
data_Li2CoOF3
_symmetry_space_group_name_H-M   'P 1'
_cell_length_a   5.35423586
_cell_length_b   5.35422563
_cell_length_c   6.03193741
_cell_angle_alpha   87.31725796
_cell_angle_beta   92.68262855
_cell_angle_gamma   118.84957873
_symmetry_Int_Tables_number   1
_chemical_formula_structural   Li2CoOF3
_chemical_formula_sum   'Li4 Co2 O2 F6'
_cell_volume   151.23684553
_cell_formula_units_Z   2
loop_
 _symmetry_equiv_pos_site_id
 _symmetry_equiv_pos_as_xyz
  1  'x, y, z'
loop_
 _atom_site_type_symbol
 _atom_site_label
 _atom_site_symmetry_multiplicity
 _atom_site_fract_x
 _atom_site_fract_y
 _atom_site_fract_z
 _atom_site_occupancy
  Li  Li0  1  0.27646700  0.68813100  0.68326700  1
  Li  Li1  1  0.31186900  0.72353300  0.18326800  1
  Li  Li2  1  0.66403400  0.35970900  0.83795400  1
  Li  Li3  1  0.64029300  0.33596400  0.33795600  1
  Co  Co0  1  0.91294000  0.95161600  0.02636000  1
  Co  Co1  1  0.04838500  0.08705500  0.52636100  1
  O  O0  1  0.97318900  0.18363700  0.79465500  1
  O  O1  1  0.81636100  0.02681200  0.29465400  1
  F  F0  1  0.49873000  0.69820700  0.93707600  1
  F  F1  1  0.30179300  0.50127000  0.43707400  1
  F  F2  1  0.41955500  0.09962100  0.59894100  1
  F  F3  1  0.90037900  0.58046100  0.09894300  1
  F  F4  1  0.90142400  0.66541200  0.62174100  1
  F  F5  1  0.33458300  0.09857400  0.12174800  1
loop_
_geom_bond_atom_site_label_1
_geom_bond_atom_site_label_2
_geom_bond_distance
_geom_bond_site_symmetry_2
Li0 O0 2.466576 1_455
Li1 O1 2.466571 1_565
Li2 O0 2.294855 1_555
Li3 O1 2.294825 1_555
Co0 O0 1.758881 1_564
Co0 O1 1.840854 1_565
Co0 F3 1.984362 1_555
Co0 F0 2.025403 1_554
Co0 F5 2.062374 1_665
Co1 O1 1.758907 1_455
Co1 O0 1.840861 1_455
Co1 F2 1.984430 1_555
Co1 F1 2.025422 1_555
Co1 F4 2.062355 1_445
F0 Li1 1.874434 1_556
F0 Li0 1.881009 1_555
F0 Li2 2.474792 1_555
F1 Li0 1.874439 1_555
F1 Li1 1.880992 1_555
F1 Li3 2.474804 1_555
F2 Li2 1.995854 1_555
F2 Li0 2.000620 1_545
F2 Li3 2.005197 1_555
F3 Li3 1.995873 1_555
F3 Li1 2.000636 1_655
F3 Li2 2.005247 1_554
F4 Li0 1.970688 1_655
F4 Li2 1.985756 1_555
F4 Li3 2.382249 1_555
F5 Li1 1.970679 1_545
F5 Li3 1.985759 1_555
F5 Li2 2.382297 1_554
