# generated using pymatgen
data_K2Zr2Cu(OF2)6
_symmetry_space_group_name_H-M   'P 1'
_cell_length_a   9.48472000
_cell_length_b   7.19325300
_cell_length_c   12.29310479
_cell_angle_alpha   63.95721312
_cell_angle_beta   90.00000000
_cell_angle_gamma   90.00000000
_symmetry_Int_Tables_number   1
_chemical_formula_structural   K2Zr2Cu(OF2)6
_chemical_formula_sum   'K4 Zr4 Cu2 O12 F24'
_cell_volume   753.55210901
_cell_formula_units_Z   2
loop_
 _symmetry_equiv_pos_site_id
 _symmetry_equiv_pos_as_xyz
  1  'x, y, z'
loop_
 _atom_site_type_symbol
 _atom_site_label
 _atom_site_symmetry_multiplicity
 _atom_site_fract_x
 _atom_site_fract_y
 _atom_site_fract_z
 _atom_site_occupancy
  K  K0  1  0.68797700  0.58205200  0.91890900  1
  K  K1  1  0.18797700  0.41794800  0.58109100  1
  K  K2  1  0.31202300  0.41794800  0.08109100  1
  K  K3  1  0.81202300  0.58205200  0.41890900  1
  Zr  Zr0  1  0.98849800  0.80259600  0.66412900  1
  Zr  Zr1  1  0.48849800  0.19740400  0.83587100  1
  Zr  Zr2  1  0.01150200  0.19740400  0.33587100  1
  Zr  Zr3  1  0.51150200  0.80259600  0.16412900  1
  Cu  Cu0  1  0.50000000  0.00000000  0.50000000  1
  Cu  Cu1  1  0.00000000  0.00000000  0.00000000  1
  O  O0  1  0.60349800  0.76371200  0.54710900  1
  O  O1  1  0.10349800  0.23628800  0.95289100  1
  O  O2  1  0.39650200  0.23628800  0.45289100  1
  O  O3  1  0.89650200  0.76371200  0.04710900  1
  O  O4  1  0.87329100  0.03269900  0.88125200  1
  O  O5  1  0.37329100  0.96730100  0.61874800  1
  O  O6  1  0.12670900  0.96730100  0.11874800  1
  O  O7  1  0.62670900  0.03269900  0.38125200  1
  O  O8  1  0.65622300  0.08342600  0.59409500  1
  O  O9  1  0.15622300  0.91657400  0.90590500  1
  O  O10  1  0.34377700  0.91657400  0.40590500  1
  O  O11  1  0.84377700  0.08342600  0.09409500  1
  F  F0  1  0.52637700  0.95090300  0.79728800  1
  F  F1  1  0.02637700  0.04909700  0.70271200  1
  F  F2  1  0.47362300  0.04909700  0.20271200  1
  F  F3  1  0.97362300  0.95090300  0.29728800  1
  F  F4  1  0.95303100  0.62089300  0.84126400  1
  F  F5  1  0.45303100  0.37910700  0.65873600  1
  F  F6  1  0.04696900  0.37910700  0.15873600  1
  F  F7  1  0.54696900  0.62089300  0.34126400  1
  F  F8  1  0.94257700  0.59603600  0.59940400  1
  F  F9  1  0.44257700  0.40396400  0.90059600  1
  F  F10  1  0.05742300  0.40396400  0.40059600  1
  F  F11  1  0.55742300  0.59603600  0.09940400  1
  F  F12  1  0.87889800  0.03475200  0.50042600  1
  F  F13  1  0.37889800  0.96524800  0.99957400  1
  F  F14  1  0.12110200  0.96524800  0.49957400  1
  F  F15  1  0.62110200  0.03475200  0.00042600  1
  F  F16  1  0.68028000  0.32649800  0.79463100  1
  F  F17  1  0.18028000  0.67350200  0.70536900  1
  F  F18  1  0.31972000  0.67350200  0.20536900  1
  F  F19  1  0.81972000  0.32649800  0.29463100  1
  F  F20  1  0.75823200  0.81130900  0.69490500  1
  F  F21  1  0.25823200  0.18869100  0.80509500  1
  F  F22  1  0.24176800  0.18869100  0.30509500  1
  F  F23  1  0.74176800  0.81130900  0.19490500  1
loop_
_geom_bond_atom_site_label_1
_geom_bond_atom_site_label_2
_geom_bond_distance
_geom_bond_site_symmetry_2
K0 O3 3.148211 1_556
K1 O2 3.148211 1_555
K2 O1 3.148211 1_554
K3 O0 3.148211 1_555
Cu0 O0 1.823078 1_545
Cu0 O2 1.823078 1_555
Cu0 O5 1.824585 1_545
Cu0 O7 1.824585 1_555
Cu0 O8 2.122069 1_555
Cu0 O10 2.122069 1_545
Cu1 O1 1.823078 1_554
Cu1 O3 1.823078 1_445
Cu1 O6 1.824585 1_545
Cu1 O4 1.824585 1_454
Cu1 O11 2.122069 1_455
Cu1 O9 2.122069 1_544
F0 Zr1 2.058290 1_565
F0 K0 2.853248 1_555
F1 Zr0 2.058290 1_445
F1 K1 2.853248 1_555
F2 Zr3 2.058290 1_545
F2 K2 2.853248 1_555
F3 Zr2 2.058290 1_665
F3 K3 2.853248 1_555
F4 Zr0 2.015948 1_555
F4 K0 2.659881 1_555
F5 Zr1 2.015948 1_555
F5 K1 2.659881 1_555
F6 Zr2 2.015948 1_555
F6 K2 2.659881 1_555
F7 Zr3 2.015948 1_555
F7 K3 2.659881 1_555
F8 Zr0 2.017081 1_555
F8 K3 2.581216 1_555
F8 K1 2.713383 1_655
F9 Zr1 2.017081 1_555
F9 K2 2.581216 1_556
F9 K0 2.713383 1_555
F10 Zr2 2.017081 1_555
F10 K1 2.581216 1_555
F10 K3 2.713383 1_455
F11 Zr3 2.017081 1_555
F11 K0 2.581216 1_554
F11 K2 2.713383 1_555
F12 Zr2 2.228137 1_655
F12 Zr0 2.228959 1_545
F13 Zr3 2.228137 1_556
F13 Zr1 2.228959 1_565
F14 Zr0 2.228137 1_455
F14 Zr2 2.228959 1_565
F15 Zr1 2.228137 1_554
F15 Zr3 2.228959 1_545
F16 Zr1 2.003672 1_555
F16 K0 2.860882 1_555
F17 Zr0 2.003672 1_455
F17 K1 2.860882 1_555
F18 Zr3 2.003672 1_555
F18 K2 2.860882 1_555
F19 Zr2 2.003672 1_655
F19 K3 2.860882 1_555
F20 Zr0 2.222111 1_555
F20 K0 2.599797 1_555
F21 Zr1 2.222111 1_555
F21 K1 2.599797 1_555
F22 Zr2 2.222111 1_555
F22 K2 2.599797 1_555
F23 Zr3 2.222111 1_555
F23 K3 2.599797 1_555
