# generated using pymatgen
data_La2WO6
_symmetry_space_group_name_H-M   'P 1'
_cell_length_a   5.80745300
_cell_length_b   11.21715200
_cell_length_c   16.78811900
_cell_angle_alpha   90.00000000
_cell_angle_beta   90.00000000
_cell_angle_gamma   90.00000000
_symmetry_Int_Tables_number   1
_chemical_formula_structural   La2WO6
_chemical_formula_sum   'La16 W8 O48'
_cell_volume   1093.62983000
_cell_formula_units_Z   8
loop_
 _symmetry_equiv_pos_site_id
 _symmetry_equiv_pos_as_xyz
  1  'x, y, z'
loop_
 _atom_site_type_symbol
 _atom_site_label
 _atom_site_symmetry_multiplicity
 _atom_site_fract_x
 _atom_site_fract_y
 _atom_site_fract_z
 _atom_site_occupancy
  La  La0  1  0.89970100  0.63834700  0.06207600  1
  La  La1  1  0.39970100  0.86165300  0.06207600  1
  La  La2  1  0.93661600  0.86073200  0.23328600  1
  La  La3  1  0.43661600  0.63926800  0.23328600  1
  La  La4  1  0.93661600  0.36073200  0.26671400  1
  La  La5  1  0.43661600  0.13926800  0.26671400  1
  La  La6  1  0.39970100  0.36165300  0.43792400  1
  La  La7  1  0.89970100  0.13834700  0.43792400  1
  La  La8  1  0.10029900  0.86165300  0.56207600  1
  La  La9  1  0.60029900  0.63834700  0.56207600  1
  La  La10  1  0.56338400  0.86073200  0.73328600  1
  La  La11  1  0.06338400  0.63926800  0.73328600  1
  La  La12  1  0.56338400  0.36073200  0.76671400  1
  La  La13  1  0.06338400  0.13926800  0.76671400  1
  La  La14  1  0.10029900  0.36165300  0.93792400  1
  La  La15  1  0.60029900  0.13834700  0.93792400  1
  W  W0  1  0.39227200  0.37344300  0.12044600  1
  W  W1  1  0.89227200  0.12655700  0.12044600  1
  W  W2  1  0.39227200  0.87344300  0.37955400  1
  W  W3  1  0.89227200  0.62655700  0.37955400  1
  W  W4  1  0.10772800  0.37344300  0.62044600  1
  W  W5  1  0.60772800  0.12655700  0.62044600  1
  W  W6  1  0.10772800  0.87344300  0.87955400  1
  W  W7  1  0.60772800  0.62655700  0.87955400  1
  O  O0  1  0.91988000  0.21150500  0.02355700  1
  O  O1  1  0.41988000  0.28849500  0.02355700  1
  O  O2  1  0.13028600  0.45311800  0.07767400  1
  O  O3  1  0.63028600  0.04688200  0.07767400  1
  O  O4  1  0.09015100  0.99871400  0.10846000  1
  O  O5  1  0.59015100  0.50128600  0.10846000  1
  O  O6  1  0.67113000  0.76522600  0.14806000  1
  O  O7  1  0.17113000  0.73477400  0.14806000  1
  O  O8  1  0.65159900  0.26560500  0.16551300  1
  O  O9  1  0.15159900  0.23439500  0.16551300  1
  O  O10  1  0.83009800  0.07213700  0.22995000  1
  O  O11  1  0.33009800  0.42786300  0.22995000  1
  O  O12  1  0.33009800  0.92786300  0.27005000  1
  O  O13  1  0.83009800  0.57213700  0.27005000  1
  O  O14  1  0.65159900  0.76560500  0.33448700  1
  O  O15  1  0.15159900  0.73439500  0.33448700  1
  O  O16  1  0.67113000  0.26522600  0.35194000  1
  O  O17  1  0.17113000  0.23477400  0.35194000  1
  O  O18  1  0.09015100  0.49871400  0.39154000  1
  O  O19  1  0.59015100  0.00128600  0.39154000  1
  O  O20  1  0.13028600  0.95311800  0.42232600  1
  O  O21  1  0.63028600  0.54688200  0.42232600  1
  O  O22  1  0.41988000  0.78849500  0.47644300  1
  O  O23  1  0.91988000  0.71150500  0.47644300  1
  O  O24  1  0.08012000  0.28849500  0.52355700  1
  O  O25  1  0.58012000  0.21150500  0.52355700  1
  O  O26  1  0.36971400  0.45311800  0.57767400  1
  O  O27  1  0.86971400  0.04688200  0.57767400  1
  O  O28  1  0.40984900  0.99871400  0.60846000  1
  O  O29  1  0.90984900  0.50128600  0.60846000  1
  O  O30  1  0.82887000  0.76522600  0.64806000  1
  O  O31  1  0.32887000  0.73477400  0.64806000  1
  O  O32  1  0.84840100  0.26560500  0.66551300  1
  O  O33  1  0.34840100  0.23439500  0.66551300  1
  O  O34  1  0.16990200  0.42786300  0.72995000  1
  O  O35  1  0.66990200  0.07213700  0.72995000  1
  O  O36  1  0.16990200  0.92786300  0.77005000  1
  O  O37  1  0.66990200  0.57213700  0.77005000  1
  O  O38  1  0.84840100  0.76560500  0.83448700  1
  O  O39  1  0.34840100  0.73439500  0.83448700  1
  O  O40  1  0.82887000  0.26522600  0.85194000  1
  O  O41  1  0.32887000  0.23477400  0.85194000  1
  O  O42  1  0.40984900  0.49871400  0.89154000  1
  O  O43  1  0.90984900  0.00128600  0.89154000  1
  O  O44  1  0.36971400  0.95311800  0.92232600  1
  O  O45  1  0.86971400  0.54688200  0.92232600  1
  O  O46  1  0.08012000  0.78849500  0.97644300  1
  O  O47  1  0.58012000  0.71150500  0.97644300  1
loop_
_geom_bond_atom_site_label_1
_geom_bond_atom_site_label_2
_geom_bond_distance
_geom_bond_site_symmetry_2
La0 O7 2.395499 1_655
La0 O6 2.423079 1_555
La0 O46 2.449738 1_654
La0 O2 2.485720 1_655
La0 O47 2.486910 1_554
La0 O5 2.490340 1_555
La0 O45 2.566579 1_554
La1 O6 2.395499 1_555
La1 O7 2.423079 1_555
La1 O47 2.449738 1_554
La1 O3 2.485720 1_565
La1 O46 2.486910 1_554
La1 O4 2.490340 1_555
La1 O44 2.566579 1_554
La2 O6 2.360504 1_555
La2 O7 2.428632 1_655
La2 O10 2.451358 1_565
La2 O12 2.483905 1_655
La2 O15 2.540387 1_655
La2 O14 2.600938 1_555
La2 O4 2.753566 1_655
La3 O7 2.360504 1_555
La3 O6 2.428632 1_555
La3 O11 2.451358 1_555
La3 O13 2.483905 1_555
La3 O14 2.540387 1_555
La3 O15 2.600938 1_555
La3 O5 2.753566 1_555
La4 O16 2.360504 1_555
La4 O17 2.428632 1_655
La4 O13 2.451358 1_555
La4 O11 2.483905 1_655
La4 O9 2.540387 1_655
La4 O8 2.600938 1_555
La4 O18 2.753566 1_655
La5 O17 2.360504 1_555
La5 O16 2.428632 1_555
La5 O12 2.451358 1_545
La5 O10 2.483905 1_555
La5 O8 2.540387 1_555
La5 O9 2.600938 1_555
La5 O19 2.753566 1_555
La6 O16 2.395499 1_555
La6 O17 2.423079 1_555
La6 O25 2.449738 1_555
La6 O21 2.485720 1_555
La6 O24 2.486910 1_555
La6 O18 2.490340 1_555
La6 O26 2.566579 1_555
La7 O17 2.395499 1_655
La7 O16 2.423079 1_555
La7 O24 2.449738 1_655
La7 O20 2.485720 1_645
La7 O25 2.486910 1_555
La7 O19 2.490340 1_555
La7 O27 2.566579 1_555
La8 O30 2.395499 1_455
La8 O31 2.423079 1_555
La8 O23 2.449738 1_455
La8 O27 2.485720 1_465
La8 O22 2.486910 1_555
La8 O28 2.490340 1_555
La8 O20 2.566579 1_555
La9 O31 2.395499 1_555
La9 O30 2.423079 1_555
La9 O22 2.449738 1_555
La9 O26 2.485720 1_555
La9 O23 2.486910 1_555
La9 O29 2.490340 1_555
La9 O21 2.566579 1_555
La10 O30 2.360504 1_555
La10 O31 2.428632 1_555
La10 O35 2.451358 1_565
La10 O36 2.483905 1_555
La10 O39 2.540387 1_555
La10 O38 2.600938 1_555
La10 O28 2.753566 1_555
La11 O31 2.360504 1_555
La11 O30 2.428632 1_455
La11 O34 2.451358 1_555
La11 O37 2.483905 1_455
La11 O38 2.540387 1_455
La11 O39 2.600938 1_555
La11 O29 2.753566 1_455
La12 O40 2.360504 1_555
La12 O41 2.428632 1_555
La12 O37 2.451358 1_555
La12 O34 2.483905 1_555
La12 O33 2.540387 1_555
La12 O32 2.600938 1_555
La12 O42 2.753566 1_555
La13 O41 2.360504 1_555
La13 O40 2.428632 1_455
La13 O36 2.451358 1_545
La13 O35 2.483905 1_455
La13 O32 2.540387 1_455
La13 O33 2.600938 1_555
La13 O43 2.753566 1_455
La14 O40 2.395499 1_455
La14 O41 2.423079 1_555
La14 O0 2.449738 1_456
La14 O45 2.485720 1_455
La14 O1 2.486910 1_556
La14 O42 2.490340 1_555
La14 O2 2.566579 1_556
La15 O41 2.395499 1_555
La15 O40 2.423079 1_555
La15 O1 2.449738 1_556
La15 O44 2.485720 1_545
La15 O0 2.486910 1_556
La15 O43 2.490340 1_555
La15 O3 2.566579 1_556
O0 W1 1.891944 1_555
O1 W0 1.891944 1_555
O2 W0 1.905055 1_555
O3 W1 1.905055 1_555
O4 W1 1.848660 1_465
O5 W0 1.848660 1_555
O8 W0 2.074553 1_555
O8 W1 2.226818 1_555
O9 W1 2.074553 1_455
O9 W0 2.226818 1_555
O10 W1 1.970431 1_555
O11 W0 1.970431 1_555
O12 W2 1.970431 1_555
O13 W3 1.970431 1_555
O14 W2 2.074553 1_555
O14 W3 2.226818 1_555
O15 W3 2.074553 1_455
O15 W2 2.226818 1_555
O18 W3 1.848660 1_455
O19 W2 1.848660 1_545
O20 W2 1.905055 1_555
O21 W3 1.905055 1_555
O22 W2 1.891944 1_555
O23 W3 1.891944 1_555
O24 W4 1.891944 1_555
O25 W5 1.891944 1_555
O26 W4 1.905055 1_555
O27 W5 1.905055 1_555
O28 W5 1.848660 1_565
O29 W4 1.848660 1_655
O32 W4 2.074553 1_655
O32 W5 2.226818 1_555
O33 W5 2.074553 1_555
O33 W4 2.226818 1_555
O34 W4 1.970431 1_555
O35 W5 1.970431 1_555
O36 W6 1.970431 1_555
O37 W7 1.970431 1_555
O38 W6 2.074553 1_655
O38 W7 2.226818 1_555
O39 W7 2.074553 1_555
O39 W6 2.226818 1_555
O42 W7 1.848660 1_555
O43 W6 1.848660 1_645
O44 W6 1.905055 1_555
O45 W7 1.905055 1_555
O46 W6 1.891944 1_555
O47 W7 1.891944 1_555
