# generated using pymatgen
data_Li3TiV3O8
_symmetry_space_group_name_H-M   'P 1'
_cell_length_a   4.08211627
_cell_length_b   6.51164104
_cell_length_c   13.00043072
_cell_angle_alpha   102.12223000
_cell_angle_beta   99.02423052
_cell_angle_gamma   71.75153237
_symmetry_Int_Tables_number   1
_chemical_formula_structural   Li3TiV3O8
_chemical_formula_sum   'Li6 Ti2 V6 O16'
_cell_volume   319.32268752
_cell_formula_units_Z   2
loop_
 _symmetry_equiv_pos_site_id
 _symmetry_equiv_pos_as_xyz
  1  'x, y, z'
loop_
 _atom_site_type_symbol
 _atom_site_label
 _atom_site_symmetry_multiplicity
 _atom_site_fract_x
 _atom_site_fract_y
 _atom_site_fract_z
 _atom_site_occupancy
  Li  Li0  1  0.93906800  0.43830300  0.32051900  1
  Li  Li1  1  0.93915800  0.93818000  0.82053000  1
  Li  Li2  1  0.17520400  0.64860200  0.00219200  1
  Li  Li3  1  0.17514800  0.14885900  0.50230500  1
  Li  Li4  1  0.06044800  0.05568300  0.17985600  1
  Li  Li5  1  0.06048800  0.55566900  0.67989700  1
  Ti  Ti0  1  0.29590200  0.76104200  0.35665400  1
  Ti  Ti1  1  0.29564300  0.26103400  0.85655900  1
  V  V0  1  0.39046500  0.87057000  0.65440300  1
  V  V1  1  0.71000500  0.72573000  0.14924600  1
  V  V2  1  0.60964900  0.62437100  0.84765500  1
  V  V3  1  0.39071000  0.37049500  0.15442500  1
  V  V4  1  0.71010500  0.22563500  0.64929300  1
  V  V5  1  0.60971800  0.12441200  0.34773100  1
  O  O0  1  0.33888500  0.81205300  0.49428800  1
  O  O1  1  0.33901400  0.31167200  0.99412800  1
  O  O2  1  0.43454800  0.44912100  0.32201100  1
  O  O3  1  0.43447900  0.94893300  0.82175600  1
  O  O4  1  0.88208500  0.39735500  0.16494400  1
  O  O5  1  0.88202200  0.89721600  0.66490100  1
  O  O6  1  0.22480400  0.71092300  0.16418600  1
  O  O7  1  0.22474200  0.21126700  0.66427700  1
  O  O8  1  0.77413900  0.77435500  0.32639700  1
  O  O9  1  0.77422100  0.27417400  0.82633400  1
  O  O10  1  0.12278300  0.09242100  0.34183000  1
  O  O11  1  0.12281100  0.59248700  0.84188800  1
  O  O12  1  0.56075900  0.05992500  0.18491200  1
  O  O13  1  0.56092600  0.55971900  0.68500100  1
  O  O14  1  0.64930400  0.69825800  0.00002600  1
  O  O15  1  0.64938000  0.19812900  0.50005800  1
loop_
_geom_bond_atom_site_label_1
_geom_bond_atom_site_label_2
_geom_bond_distance
_geom_bond_site_symmetry_2
Li0 O4 1.969934 1_555
Li0 O2 2.041572 1_555
Li0 O2 2.042701 1_655
Li0 O8 2.066590 1_555
Li0 O10 2.202480 1_655
Li1 O5 1.970617 1_555
Li1 O3 2.041788 1_555
Li1 O3 2.042439 1_655
Li1 O9 2.066361 1_565
Li1 O11 2.201495 1_655
Li2 O11 2.027732 1_554
Li2 O6 2.049300 1_555
Li2 O14 2.064868 1_555
Li2 O14 2.064985 1_455
Li2 O1 2.068385 1_554
Li3 O10 2.029891 1_555
Li3 O7 2.049030 1_555
Li3 O15 2.064467 1_555
Li3 O15 2.064748 1_455
Li3 O0 2.067694 1_545
Li4 O12 2.041725 1_555
Li4 O12 2.042506 1_455
Li4 O10 2.052936 1_555
Li4 O6 2.106884 1_545
Li4 O4 2.154068 1_455
Li5 O13 2.041764 1_555
Li5 O13 2.042487 1_455
Li5 O11 2.053122 1_555
Li5 O7 2.104730 1_555
Li5 O5 2.153576 1_455
O0 Ti0 1.741008 1_555
O0 V0 2.025355 1_555
O1 Ti1 1.740172 1_555
O1 V3 2.027666 1_556
O2 Ti0 1.903793 1_555
O2 V5 2.090168 1_555
O2 V3 2.123071 1_555
O3 Ti1 1.905000 1_565
O3 V2 2.090014 1_555
O3 V0 2.120066 1_555
O4 V3 2.048498 1_555
O4 V3 2.052260 1_655
O4 V1 2.074817 1_555
O5 V0 2.048740 1_555
O5 V0 2.051806 1_655
O5 V4 2.074782 1_565
O6 V1 2.053320 1_455
O6 V1 2.053808 1_555
O6 V3 2.087420 1_555
O6 Ti0 2.437236 1_555
O7 V4 2.053357 1_455
O7 V4 2.053559 1_555
O7 V0 2.088916 1_545
O7 Ti1 2.434970 1_555
O8 Ti0 2.081963 1_655
O8 Ti0 2.081973 1_555
O8 V5 2.134947 1_565
O8 V1 2.242608 1_555
O9 Ti1 2.080852 1_655
O9 Ti1 2.082772 1_555
O9 V2 2.135814 1_555
O9 V4 2.241229 1_555
O10 V5 2.050636 1_555
O10 V5 2.050904 1_455
O10 Ti0 2.090373 1_545
O11 V2 2.050202 1_555
O11 V2 2.051149 1_455
O11 Ti1 2.090320 1_555
O12 V3 2.024817 1_555
O12 V1 2.038711 1_545
O12 V5 2.059928 1_555
O13 V0 2.027030 1_555
O13 V4 2.038069 1_555
O13 V2 2.057869 1_555
O14 V1 1.894181 1_555
O14 V2 1.931194 1_554
O15 V4 1.894355 1_555
O15 V5 1.930579 1_555
