# generated using pymatgen
data_RbAgF3
_symmetry_space_group_name_H-M   'P 1'
_cell_length_a   6.15212749
_cell_length_b   6.15212744
_cell_length_c   6.15212754
_cell_angle_alpha   90.35099543
_cell_angle_beta   119.79756804
_cell_angle_gamma   119.79755238
_symmetry_Int_Tables_number   1
_chemical_formula_structural   RbAgF3
_chemical_formula_sum   'Rb2 Ag2 F6'
_cell_volume   165.15016611
_cell_formula_units_Z   2
loop_
 _symmetry_equiv_pos_site_id
 _symmetry_equiv_pos_as_xyz
  1  'x, y, z'
loop_
 _atom_site_type_symbol
 _atom_site_label
 _atom_site_symmetry_multiplicity
 _atom_site_fract_x
 _atom_site_fract_y
 _atom_site_fract_z
 _atom_site_occupancy
  Rb  Rb0  1  0.00000000  0.25000000  0.25000000  1
  Rb  Rb1  1  0.00000000  0.75000000  0.75000000  1
  Ag  Ag0  1  0.50000000  0.50000000  0.00000000  1
  Ag  Ag1  1  0.50000000  0.00000000  0.50000000  1
  F  F0  1  0.01612032  0.25805966  0.75805966  1
  F  F1  1  0.50000000  0.75805966  0.74194034  1
  F  F2  1  0.50000000  0.24194034  0.25805966  1
  F  F3  1  0.98387968  0.74194034  0.24194034  1
  F  F4  1  0.50000000  0.75000000  0.25000000  1
  F  F5  1  0.50000000  0.25000000  0.75000000  1
loop_
_geom_bond_atom_site_label_1
_geom_bond_atom_site_label_2
_geom_bond_distance
_geom_bond_site_symmetry_2
Ag0 F0 2.111416 1_554
Ag0 F3 2.111416 1_555
Ag0 F4 2.168433 1_555
Ag0 F5 2.168433 1_554
Ag0 F1 2.252095 1_554
Ag0 F2 2.252095 1_555
Ag1 F1 2.111421 1_545
Ag1 F2 2.111421 1_555
Ag1 F4 2.168433 1_545
Ag1 F5 2.168433 1_555
Ag1 F3 2.252099 1_445
Ag1 F0 2.252099 1_655
F0 Rb1 3.076865 1_545
F0 Rb0 3.076865 1_555
F0 Rb1 3.076871 1_555
F0 Rb0 3.076871 1_556
F1 Rb0 3.076868 1_666
F1 Rb1 3.076868 1_655
F1 Rb0 3.076868 1_555
F1 Rb1 3.076868 1_555
F2 Rb1 3.076868 1_544
F2 Rb0 3.076868 1_555
F2 Rb1 3.076868 1_655
F2 Rb0 3.076868 1_655
F3 Rb0 3.076865 1_665
F3 Rb1 3.076865 1_655
F3 Rb0 3.076871 1_655
F3 Rb1 3.076871 1_654
F4 Rb1 3.085471 1_554
F4 Rb1 3.085471 1_655
F4 Rb0 3.085472 1_665
F4 Rb0 3.085472 1_555
F5 Rb0 3.085471 1_656
F5 Rb0 3.085471 1_555
F5 Rb1 3.085472 1_655
F5 Rb1 3.085472 1_545
