# generated using pymatgen
data_Li3Mn4(BO3)4
_symmetry_space_group_name_H-M   'P 1'
_cell_length_a   7.86344700
_cell_length_b   7.93174003
_cell_length_c   9.11004420
_cell_angle_alpha   110.33460653
_cell_angle_beta   109.26600667
_cell_angle_gamma   83.47645417
_symmetry_Int_Tables_number   1
_chemical_formula_structural   Li3Mn4(BO3)4
_chemical_formula_sum   'Li6 Mn8 B8 O24'
_cell_volume   502.95191043
_cell_formula_units_Z   2
loop_
 _symmetry_equiv_pos_site_id
 _symmetry_equiv_pos_as_xyz
  1  'x, y, z'
loop_
 _atom_site_type_symbol
 _atom_site_label
 _atom_site_symmetry_multiplicity
 _atom_site_fract_x
 _atom_site_fract_y
 _atom_site_fract_z
 _atom_site_occupancy
  Li  Li0  1  0.07666100  0.23325300  0.77519300  1
  Li  Li1  1  0.65799800  0.00105800  0.72133300  1
  Li  Li2  1  0.17383100  0.50976600  0.72369500  1
  Li  Li3  1  0.42139300  0.25755400  0.21844900  1
  Li  Li4  1  0.32711100  0.98827500  0.27648300  1
  Li  Li5  1  0.90925600  0.74966900  0.22529100  1
  Mn  Mn0  1  0.02450100  0.22199600  0.41233000  1
  Mn  Mn1  1  0.46173900  0.29415300  0.57777000  1
  Mn  Mn2  1  0.77276900  0.46646000  0.92259700  1
  Mn  Mn3  1  0.28961500  0.95584100  0.91184300  1
  Mn  Mn4  1  0.72147300  0.02686200  0.07553300  1
  Mn  Mn5  1  0.21359500  0.53972900  0.07985800  1
  Mn  Mn6  1  0.53770700  0.70295500  0.42607400  1
  Mn  Mn7  1  0.96835200  0.77947800  0.57432500  1
  B  B0  1  0.46007300  0.28398000  0.90770000  1
  B  B1  1  0.03733500  0.20235700  0.08092000  1
  B  B2  1  0.70152900  0.03161600  0.40326300  1
  B  B3  1  0.21077600  0.53982400  0.40698000  1
  B  B4  1  0.80651800  0.46964900  0.60723800  1
  B  B5  1  0.28272900  0.96680100  0.58372800  1
  B  B6  1  0.95484100  0.78418800  0.90491500  1
  B  B7  1  0.54807800  0.72879800  0.10660400  1
  O  O0  1  0.00929700  0.30839500  0.98186800  1
  O  O1  1  0.25349800  0.06902700  0.48018100  1
  O  O2  1  0.30963900  0.39070600  0.88126600  1
  O  O3  1  0.19269400  0.10336400  0.11260800  1
  O  O4  1  0.57763100  0.25876400  0.81507200  1
  O  O5  1  0.07559200  0.75240600  0.81356400  1
  O  O6  1  0.22848200  0.44614000  0.51506500  1
  O  O7  1  0.55508700  0.14214100  0.37963100  1
  O  O8  1  0.07788400  0.66490300  0.38729700  1
  O  O9  1  0.81658200  0.00360700  0.30629500  1
  O  O10  1  0.32912900  0.49880400  0.31250000  1
  O  O11  1  0.49121300  0.18747600  0.01567000  1
  O  O12  1  0.53282800  0.84747100  0.01749800  1
  O  O13  1  0.68302500  0.47595000  0.68683300  1
  O  O14  1  0.16088100  0.98649900  0.67575100  1
  O  O15  1  0.95242700  0.35641900  0.62269800  1
  O  O16  1  0.43153400  0.86266800  0.61062800  1
  O  O17  1  0.78242400  0.58491800  0.51569100  1
  O  O18  1  0.91136100  0.20820300  0.16357800  1
  O  O19  1  0.42114500  0.74677800  0.18847000  1
  O  O20  1  0.82189400  0.91031600  0.88894700  1
  O  O21  1  0.68437100  0.60813500  0.11768400  1
  O  O22  1  0.73762100  0.93853300  0.51462700  1
  O  O23  1  0.97302300  0.68400000  0.00918800  1
loop_
_geom_bond_atom_site_label_1
_geom_bond_atom_site_label_2
_geom_bond_distance
_geom_bond_site_symmetry_2
Li0 O15 1.915591 1_455
Li0 O14 1.989719 1_545
Li0 O0 1.996832 1_555
Li0 O2 2.088688 1_555
Li1 O20 1.940370 1_545
Li1 O16 1.970484 1_545
Li1 O4 2.038689 1_555
Li1 O22 2.059726 1_545
Li2 O2 1.947877 1_555
Li2 O6 1.968463 1_555
Li2 O5 1.988823 1_555
Li2 O15 2.000833 1_455
Li3 O7 1.948383 1_555
Li3 O10 1.969106 1_555
Li3 O11 1.977199 1_555
Li3 O3 2.048275 1_555
Li4 O19 1.964878 1_555
Li4 O3 1.966186 1_565
Li4 O1 1.996866 1_565
Li4 O7 2.043177 1_565
Li5 O8 1.893189 1_655
Li5 O21 1.972470 1_555
Li5 O9 2.029987 1_565
Li5 O23 2.068322 1_555
Mn0 O15 2.071269 1_455
Mn0 O1 2.094522 1_555
Mn0 O18 2.111453 1_455
Mn0 O9 2.246131 1_455
Mn0 O6 2.260612 1_555
Mn1 O7 2.100347 1_555
Mn1 O6 2.104436 1_555
Mn1 O13 2.127861 1_555
Mn1 O4 2.155533 1_555
Mn1 O1 2.293614 1_555
Mn2 O21 2.038210 1_556
Mn2 O13 2.053502 1_555
Mn2 O4 2.118711 1_555
Mn2 O0 2.144907 1_655
Mn2 O23 2.220546 1_556
Mn3 O12 2.075965 1_556
Mn3 O3 2.127209 1_566
Mn3 O14 2.140240 1_555
Mn3 O5 2.203696 1_555
Mn3 O11 2.290801 1_566
Mn4 O18 1.958982 1_555
Mn4 O12 1.985902 1_545
Mn4 O20 1.998816 1_544
Mn4 O9 2.052665 1_555
Mn4 O11 2.122705 1_555
Mn5 O2 2.110274 1_554
Mn5 O23 2.125798 1_455
Mn5 O10 2.136120 1_555
Mn5 O19 2.180292 1_555
Mn5 O0 2.308570 1_554
Mn6 O17 2.081153 1_555
Mn6 O16 2.081897 1_555
Mn6 O10 2.168371 1_555
Mn6 O19 2.188062 1_555
Mn6 O22 2.323014 1_555
Mn7 O8 2.045772 1_655
Mn7 O17 2.056389 1_555
Mn7 O14 2.104595 1_655
Mn7 O22 2.117734 1_555
Mn7 O5 2.139769 1_655
B0 O2 1.378432 1_555
B0 O11 1.391077 1_556
B0 O4 1.400740 1_555
B1 O3 1.378096 1_555
B1 O0 1.387199 1_554
B1 O18 1.417038 1_455
B2 O7 1.370804 1_555
B2 O22 1.392080 1_545
B2 O9 1.411936 1_555
B3 O8 1.368511 1_555
B3 O6 1.391274 1_555
B3 O10 1.406415 1_555
B4 O15 1.374765 1_555
B4 O13 1.378311 1_555
B4 O17 1.397740 1_555
B5 O16 1.357675 1_555
B5 O1 1.395092 1_565
B5 O14 1.431879 1_555
B6 O20 1.370417 1_555
B6 O23 1.401251 1_556
B6 O5 1.406762 1_655
B7 O21 1.355531 1_555
B7 O19 1.399215 1_555
B7 O12 1.414394 1_555
