# generated using pymatgen
data_LiTi3O6
_symmetry_space_group_name_H-M   'P 1'
_cell_length_a   9.56642770
_cell_length_b   8.82978628
_cell_length_c   5.40419025
_cell_angle_alpha   80.55938847
_cell_angle_beta   65.57402578
_cell_angle_gamma   33.86658575
_symmetry_Int_Tables_number   1
_chemical_formula_structural   LiTi3O6
_chemical_formula_sum   'Li2 Ti6 O12'
_cell_volume   216.66562792
_cell_formula_units_Z   2
loop_
 _symmetry_equiv_pos_site_id
 _symmetry_equiv_pos_as_xyz
  1  'x, y, z'
loop_
 _atom_site_type_symbol
 _atom_site_label
 _atom_site_symmetry_multiplicity
 _atom_site_fract_x
 _atom_site_fract_y
 _atom_site_fract_z
 _atom_site_occupancy
  Li  Li0  1  0.50000000  0.50000000  0.50000000  1
  Li  Li1  1  0.75000000  0.75000000  0.75000000  1
  Ti  Ti0  1  0.58104400  0.58104400  0.91895600  1
  Ti  Ti1  1  0.66895600  0.66895600  0.33104400  1
  Ti  Ti2  1  0.00000000  0.00000000  0.00000000  1
  Ti  Ti3  1  0.91895600  0.91895600  0.58104400  1
  Ti  Ti4  1  0.33104400  0.33104400  0.66895600  1
  Ti  Ti5  1  0.25000000  0.25000000  0.25000000  1
  O  O0  1  0.46090800  0.87712500  0.10854000  1
  O  O1  1  0.87712500  0.46090800  0.55342700  1
  O  O2  1  0.78909200  0.37287500  0.14146000  1
  O  O3  1  0.21835200  0.78164800  0.21835200  1
  O  O4  1  0.37287500  0.78909200  0.69657300  1
  O  O5  1  0.69657300  0.14146000  0.37287500  1
  O  O6  1  0.10854000  0.55342700  0.46090800  1
  O  O7  1  0.78164800  0.21835200  0.78164800  1
  O  O8  1  0.14146000  0.69657300  0.78909200  1
  O  O9  1  0.46835200  0.03164800  0.46835200  1
  O  O10  1  0.55342700  0.10854000  0.87712500  1
  O  O11  1  0.03164800  0.46835200  0.03164800  1
loop_
_geom_bond_atom_site_label_1
_geom_bond_atom_site_label_2
_geom_bond_distance
_geom_bond_site_symmetry_2
Li0 O4 1.946589 1_555
Li0 O2 1.946589 1_555
Li0 O8 1.946589 1_555
Li0 O5 1.946589 1_555
Li1 O10 1.946589 1_565
Li1 O6 1.946589 1_655
Li1 O0 1.946589 1_556
Li1 O1 1.946589 1_555
O0 Ti1 1.991135 1_555
O0 Ti5 2.003398 1_565
O0 Ti0 2.029900 1_554
O1 Ti1 1.991135 1_555
O1 Ti5 2.003398 1_655
O1 Ti0 2.029900 1_555
O2 Ti0 1.991135 1_554
O2 Ti2 2.003398 1_655
O2 Ti1 2.029900 1_555
O3 Ti3 1.971063 1_455
O3 Ti0 1.971063 1_554
O3 Ti2 2.019176 1_565
O4 Ti0 1.991135 1_555
O4 Ti2 2.003398 1_566
O4 Ti1 2.029900 1_555
O5 Ti3 1.991135 1_545
O5 Ti2 2.003398 1_655
O5 Ti4 2.029900 1_555
O6 Ti4 1.991135 1_555
O6 Ti5 2.003398 1_555
O6 Ti3 2.029900 1_455
O7 Ti0 1.971063 1_555
O7 Ti3 1.971063 1_545
O7 Ti2 2.019176 1_656
O8 Ti3 1.991135 1_455
O8 Ti2 2.003398 1_566
O8 Ti4 2.029900 1_555
O9 Ti1 1.971063 1_545
O9 Ti4 1.971063 1_555
O9 Ti5 2.019176 1_555
O10 Ti4 1.991135 1_555
O10 Ti5 2.003398 1_556
O10 Ti3 2.029900 1_545
O11 Ti1 1.971063 1_455
O11 Ti4 1.971063 1_554
O11 Ti5 2.019176 1_555
