# generated using pymatgen
data_Li21(FeO4)4
_symmetry_space_group_name_H-M   'P 1'
_cell_length_a   6.54655310
_cell_length_b   6.54655310
_cell_length_c   9.49582353
_cell_angle_alpha   89.90452226
_cell_angle_beta   89.90452226
_cell_angle_gamma   92.41396937
_symmetry_Int_Tables_number   1
_chemical_formula_structural   Li21(FeO4)4
_chemical_formula_sum   'Li21 Fe4 O16'
_cell_volume   406.60358004
_cell_formula_units_Z   1
loop_
 _symmetry_equiv_pos_site_id
 _symmetry_equiv_pos_as_xyz
  1  'x, y, z'
loop_
 _atom_site_type_symbol
 _atom_site_label
 _atom_site_symmetry_multiplicity
 _atom_site_fract_x
 _atom_site_fract_y
 _atom_site_fract_z
 _atom_site_occupancy
  Li  Li0  1  0.46428800  0.95004200  0.76280100  1
  Li  Li1  1  0.45554700  0.95587600  0.25457000  1
  Li  Li2  1  0.28107700  0.27270400  0.72237600  1
  Li  Li3  1  0.22364800  0.21959900  0.47262100  1
  Li  Li4  1  0.27805800  0.27564300  0.22101700  1
  Li  Li5  1  0.25000700  0.24368500  0.97144800  1
  Li  Li6  1  0.04412400  0.54445300  0.74543000  1
  Li  Li7  1  0.04995800  0.53571200  0.23719900  1
  Li  Li8  1  0.01869600  0.97369600  0.73889800  1
  Li  Li9  1  0.02630400  0.98130400  0.26110200  1
  Li  Li10  1  0.96501800  0.45642900  0.49005500  1
  Li  Li11  1  0.97091800  0.02908200  0.00000000  1
  Li  Li12  1  0.96935500  0.46485400  0.99190600  1
  Li  Li13  1  0.78040100  0.77635200  0.52737900  1
  Li  Li14  1  0.72435700  0.72194200  0.77898300  1
  Li  Li15  1  0.75631500  0.74999300  0.02855200  1
  Li  Li16  1  0.72729600  0.71892300  0.27762400  1
  Li  Li17  1  0.54357100  0.03498200  0.50994500  1
  Li  Li18  1  0.53514600  0.03064500  0.00809400  1
  Li  Li19  1  0.52293400  0.47706600  0.50000000  1
  Li  Li20  1  0.51576200  0.48423800  0.00000000  1
  Fe  Fe0  1  0.24622900  0.75377100  0.50000000  1
  Fe  Fe1  1  0.24673700  0.75326300  0.00000000  1
  Fe  Fe2  1  0.74403500  0.25549400  0.74849100  1
  Fe  Fe3  1  0.74450600  0.25596500  0.25150900  1
  O  O0  1  0.50190600  0.23935100  0.86221200  1
  O  O1  1  0.49996800  0.23420600  0.36381200  1
  O  O2  1  0.23482300  0.47862000  0.08931100  1
  O  O3  1  0.26278900  0.99730400  0.61422000  1
  O  O4  1  0.24532200  0.01981000  0.11512400  1
  O  O5  1  0.23539200  0.48847800  0.58835200  1
  O  O6  1  0.00713200  0.26460100  0.33982400  1
  O  O7  1  0.00622400  0.25089900  0.84703000  1
  O  O8  1  0.00269600  0.73721100  0.38578000  1
  O  O9  1  0.98019000  0.75467800  0.88487600  1
  O  O10  1  0.74910100  0.99377600  0.15297000  1
  O  O11  1  0.73539900  0.99286800  0.66017600  1
  O  O12  1  0.76579400  0.50003200  0.63618800  1
  O  O13  1  0.76064900  0.49809400  0.13778800  1
  O  O14  1  0.51152200  0.76460800  0.41164800  1
  O  O15  1  0.52138000  0.76517700  0.91068900  1
loop_
_geom_bond_atom_site_label_1
_geom_bond_atom_site_label_2
_geom_bond_distance
_geom_bond_site_symmetry_2
Li0 O15 1.900170 1_555
Li0 O3 1.966109 1_555
Li0 O11 2.032177 1_555
Li0 O0 2.122818 1_565
Li1 O4 1.968598 1_565
Li1 O14 1.990283 1_555
Li1 O1 2.107931 1_565
Li1 O10 2.153694 1_555
Li2 O5 1.932710 1_555
Li2 O0 1.983145 1_555
Li2 O3 2.075583 1_545
Li2 O7 2.151704 1_555
Li3 O6 1.930277 1_555
Li3 O3 2.004356 1_545
Li3 O5 2.075420 1_555
Li3 O1 2.080350 1_555
Li4 O2 1.853992 1_555
Li4 O4 1.959126 1_555
Li4 O1 2.015244 1_555
Li4 O6 2.099052 1_555
Li5 O2 1.909512 1_556
Li5 O0 1.947957 1_555
Li5 O7 1.989353 1_555
Li5 O4 1.999934 1_556
Li6 O9 1.968598 1_455
Li6 O5 1.990283 1_555
Li6 O12 2.107931 1_455
Li6 O7 2.153694 1_555
Li7 O2 1.900170 1_555
Li7 O8 1.966109 1_555
Li7 O6 2.032177 1_555
Li7 O13 2.122818 1_455
Li8 O3 1.987797 1_555
Li8 O9 2.000657 1_455
Li8 O11 2.009498 1_455
Li8 O7 2.091082 1_565
Li9 O8 1.987797 1_555
Li9 O4 2.000657 1_565
Li9 O6 2.009498 1_565
Li9 O10 2.091082 1_455
Li10 O6 1.929247 1_655
Li10 O12 1.932545 1_555
Li10 O5 2.005770 1_655
Li10 O8 2.091657 1_655
Li11 O7 2.058076 1_654
Li11 O10 2.058076 1_545
Li11 O4 2.107446 1_655
Li11 O9 2.107446 1_544
Li12 O13 1.962869 1_556
Li12 O2 1.968852 1_656
Li12 O7 1.986585 1_655
Li12 O9 2.149395 1_555
Li13 O11 1.930277 1_555
Li13 O8 2.004356 1_655
Li13 O14 2.075420 1_555
Li13 O12 2.080350 1_555
Li14 O15 1.853992 1_555
Li14 O9 1.959126 1_555
Li14 O12 2.015244 1_555
Li14 O11 2.099052 1_555
Li15 O15 1.909512 1_554
Li15 O13 1.947957 1_555
Li15 O10 1.989353 1_555
Li15 O9 1.999934 1_554
Li16 O14 1.932710 1_555
Li16 O13 1.983145 1_555
Li16 O8 2.075583 1_655
Li16 O10 2.151704 1_555
Li17 O11 1.929247 1_545
Li17 O1 1.932545 1_555
Li17 O14 2.005770 1_545
Li17 O3 2.091657 1_545
Li18 O0 1.962869 1_554
Li18 O15 1.968852 1_544
Li18 O10 1.986585 1_545
Li18 O4 2.149395 1_555
Li19 O12 2.051865 1_555
Li19 O1 2.051865 1_555
Li19 O5 2.063908 1_555
Li19 O14 2.063908 1_555
Li20 O15 2.022915 1_554
Li20 O2 2.022915 1_555
Li20 O0 2.070131 1_554
Li20 O13 2.070131 1_555
Fe0 O5 1.926083 1_555
Fe0 O14 1.926083 1_555
Fe0 O8 1.929127 1_555
Fe0 O3 1.929127 1_555
Fe1 O2 1.985167 1_555
Fe1 O15 1.985167 1_554
Fe1 O9 2.061007 1_454
Fe1 O4 2.061007 1_565
Fe2 O11 1.912913 1_545
Fe2 O0 1.915640 1_555
Fe2 O12 1.922221 1_555
Fe2 O7 1.957603 1_655
Fe3 O6 1.912913 1_655
Fe3 O13 1.915640 1_555
Fe3 O1 1.922221 1_555
Fe3 O10 1.957603 1_545
