# generated using pymatgen
data_Li6VFeP2(CO7)2
_symmetry_space_group_name_H-M   'P 1'
_cell_length_a   5.01706206
_cell_length_b   10.75598184
_cell_length_c   10.75727593
_cell_angle_alpha   105.09165459
_cell_angle_beta   84.77634004
_cell_angle_gamma   95.23587546
_symmetry_Int_Tables_number   1
_chemical_formula_structural   Li6VFeP2(CO7)2
_chemical_formula_sum   'Li12 V2 Fe2 P4 C4 O28'
_cell_volume   556.77144892
_cell_formula_units_Z   2
loop_
 _symmetry_equiv_pos_site_id
 _symmetry_equiv_pos_as_xyz
  1  'x, y, z'
loop_
 _atom_site_type_symbol
 _atom_site_label
 _atom_site_symmetry_multiplicity
 _atom_site_fract_x
 _atom_site_fract_y
 _atom_site_fract_z
 _atom_site_occupancy
  Li  Li0  1  0.79617600  0.07236200  0.17769800  1
  Li  Li1  1  0.79619700  0.57232000  0.67764700  1
  Li  Li2  1  0.20440400  0.92667200  0.82338000  1
  Li  Li3  1  0.20365600  0.42679400  0.32325100  1
  Li  Li4  1  0.26676800  0.87372500  0.15094100  1
  Li  Li5  1  0.26736300  0.37346900  0.65094200  1
  Li  Li6  1  0.26740400  0.09914300  0.37655900  1
  Li  Li7  1  0.26694300  0.59919000  0.87627500  1
  Li  Li8  1  0.73172500  0.89689700  0.62055000  1
  Li  Li9  1  0.72990800  0.39650500  0.12063000  1
  Li  Li10  1  0.73190700  0.12944200  0.85308800  1
  Li  Li11  1  0.73011000  0.62938200  0.35349800  1
  V  V0  1  0.79065400  0.71186500  0.03809200  1
  V  V1  1  0.79151500  0.21205000  0.53795800  1
  Fe  Fe0  1  0.21060300  0.78980100  0.45988900  1
  Fe  Fe1  1  0.21079700  0.29000100  0.96010400  1
  P  P0  1  0.73197700  0.91981500  0.33033400  1
  P  P1  1  0.73201300  0.41964100  0.83018600  1
  P  P2  1  0.26968200  0.08027100  0.66965700  1
  P  P3  1  0.26837600  0.58027400  0.16967500  1
  C  C0  1  0.67001000  0.35697100  0.39305200  1
  C  C1  1  0.67047100  0.85697300  0.89302800  1
  C  C2  1  0.32842400  0.64308500  0.60668500  1
  C  C3  1  0.32838500  0.14335900  0.10696200  1
  O  O0  1  0.91828100  0.34231300  0.40773000  1
  O  O1  1  0.91857700  0.84215200  0.90790800  1
  O  O2  1  0.39642000  0.07219300  0.17789600  1
  O  O3  1  0.39644500  0.57211200  0.67782700  1
  O  O4  1  0.48631500  0.29602600  0.45391900  1
  O  O5  1  0.48627600  0.79609800  0.95373100  1
  O  O6  1  0.16882200  0.16202100  0.58802200  1
  O  O7  1  0.16810300  0.66212700  0.08797600  1
  O  O8  1  0.41772300  0.90956900  0.34078900  1
  O  O9  1  0.41774800  0.40920900  0.84044000  1
  O  O10  1  0.58283500  0.09074900  0.65917500  1
  O  O11  1  0.58152600  0.59059700  0.15932400  1
  O  O12  1  0.83005100  0.83766600  0.41253700  1
  O  O13  1  0.83007300  0.33737200  0.91227600  1
  O  O14  1  0.51214000  0.70387100  0.54536500  1
  O  O15  1  0.51209500  0.20480900  0.04629800  1
  O  O16  1  0.60618800  0.92830000  0.82182200  1
  O  O17  1  0.60509100  0.42822100  0.32187500  1
  O  O18  1  0.07991100  0.65677800  0.59340800  1
  O  O19  1  0.07987000  0.15653800  0.09316300  1
  O  O20  1  0.84018200  0.88016000  0.18634200  1
  O  O21  1  0.84079400  0.38031100  0.68626000  1
  O  O22  1  0.84087500  0.06375300  0.36971300  1
  O  O23  1  0.84036100  0.56364600  0.86983000  1
  O  O24  1  0.16285400  0.12138800  0.81464200  1
  O  O25  1  0.16124300  0.62139000  0.31461500  1
  O  O26  1  0.16269400  0.93528900  0.62851600  1
  O  O27  1  0.16104000  0.43534400  0.12851300  1
loop_
_geom_bond_atom_site_label_1
_geom_bond_atom_site_label_2
_geom_bond_distance
_geom_bond_site_symmetry_2
Li0 O19 1.905351 1_655
Li0 O2 2.005243 1_555
Li0 O22 2.124413 1_555
Li0 O20 2.125641 1_545
Li1 O18 1.905335 1_655
Li1 O3 2.005203 1_555
Li1 O21 2.124062 1_555
Li1 O23 2.125893 1_555
Li2 O1 1.914352 1_455
Li2 O16 2.012833 1_555
Li2 O24 2.150443 1_565
Li2 O26 2.151986 1_555
Li3 O0 1.912348 1_455
Li3 O17 2.011417 1_555
Li3 O25 2.149650 1_555
Li3 O27 2.151286 1_555
Li4 O2 2.126688 1_565
Li4 O20 2.143644 1_455
Li4 O8 2.170561 1_555
Li4 O7 2.221807 1_555
Li4 O5 2.287037 1_554
Li5 O3 2.127886 1_555
Li5 O21 2.143833 1_455
Li5 O9 2.165988 1_555
Li5 O6 2.220189 1_555
Li5 O4 2.283919 1_555
Li6 O2 2.128348 1_555
Li6 O22 2.143599 1_455
Li6 O8 2.166522 1_545
Li6 O6 2.220732 1_555
Li6 O4 2.282007 1_555
Li7 O3 2.126589 1_555
Li7 O23 2.143655 1_455
Li7 O9 2.171529 1_555
Li7 O7 2.223340 1_556
Li7 O5 2.283303 1_555
Li8 O16 2.146695 1_555
Li8 O26 2.169175 1_655
Li8 O12 2.184113 1_555
Li8 O10 2.203354 1_565
Li8 O14 2.246941 1_555
Li9 O17 2.145382 1_555
Li9 O27 2.170341 1_655
Li9 O13 2.188954 1_554
Li9 O11 2.204646 1_555
Li9 O15 2.230301 1_555
Li10 O16 2.145288 1_545
Li10 O24 2.169304 1_655
Li10 O13 2.182751 1_555
Li10 O10 2.204328 1_555
Li10 O15 2.249798 1_556
Li11 O17 2.144423 1_555
Li11 O25 2.170593 1_655
Li11 O12 2.187641 1_555
Li11 O11 2.205849 1_555
Li11 O14 2.232845 1_555
Fe0 O25 2.073475 1_555
Fe0 O26 2.075613 1_555
Fe0 O12 2.159355 1_455
Fe0 O8 2.180246 1_555
Fe0 O14 2.222476 1_555
Fe0 O18 2.295097 1_555
Fe1 O27 2.074207 1_556
Fe1 O24 2.075253 1_555
Fe1 O13 2.160081 1_455
Fe1 O9 2.179962 1_555
Fe1 O15 2.221451 1_556
Fe1 O19 2.295134 1_556
C0 O17 1.294668 1_555
C0 O0 1.298423 1_555
C0 O4 1.308110 1_555
C1 O16 1.294402 1_555
C1 O1 1.298559 1_555
C1 O5 1.308226 1_555
C2 O18 1.293641 1_555
C2 O3 1.297772 1_555
C2 O14 1.309974 1_555
C3 O19 1.293673 1_555
C3 O2 1.297675 1_555
C3 O15 1.310008 1_555
O0 V1 2.242169 1_555
O1 V0 2.242998 1_556
O4 V1 2.215266 1_555
O5 V0 2.215712 1_556
O6 P2 1.537735 1_555
O6 V1 2.164578 1_455
O7 P3 1.537810 1_555
O7 V0 2.163245 1_455
O8 P0 1.566211 1_555
O9 P1 1.566265 1_555
O10 P2 1.560718 1_555
O10 V1 2.210597 1_555
O11 P3 1.560707 1_555
O11 V0 2.211286 1_555
O12 P0 1.539558 1_555
O13 P1 1.539586 1_555
O20 P0 1.555966 1_555
O20 V0 2.090117 1_555
O21 P1 1.555994 1_555
O21 V1 2.090047 1_555
O22 P0 1.555989 1_545
O22 V1 2.090072 1_555
O23 P1 1.555979 1_555
O23 V0 2.089923 1_556
O24 P2 1.564356 1_555
O25 P3 1.564349 1_555
O26 P2 1.564254 1_565
O27 P3 1.564254 1_555
