# generated using pymatgen
data_Li5Mn2Ni3O10
_symmetry_space_group_name_H-M   'P 1'
_cell_length_a   5.07737651
_cell_length_b   5.09903579
_cell_length_c   7.69869470
_cell_angle_alpha   109.12573756
_cell_angle_beta   101.43908751
_cell_angle_gamma   100.70828539
_symmetry_Int_Tables_number   1
_chemical_formula_structural   Li5Mn2Ni3O10
_chemical_formula_sum   'Li5 Mn2 Ni3 O10'
_cell_volume   177.67692213
_cell_formula_units_Z   1
loop_
 _symmetry_equiv_pos_site_id
 _symmetry_equiv_pos_as_xyz
  1  'x, y, z'
loop_
 _atom_site_type_symbol
 _atom_site_label
 _atom_site_symmetry_multiplicity
 _atom_site_fract_x
 _atom_site_fract_y
 _atom_site_fract_z
 _atom_site_occupancy
  Li  Li0  1  0.21561000  0.90541300  0.40361200  1
  Li  Li1  1  0.39691100  0.28973300  0.78846100  1
  Li  Li2  1  0.50000000  0.49999400  0.50000100  1
  Li  Li3  1  0.60308500  0.71026400  0.21154400  1
  Li  Li4  1  0.78438400  0.09458200  0.59638900  1
  Mn  Mn0  1  0.10006400  0.69887100  0.69478100  1
  Mn  Mn1  1  0.89993400  0.30114000  0.30521800  1
  Ni  Ni0  1  0.99998300  0.50000400  0.99998400  1
  Ni  Ni1  1  0.69573000  0.89353600  0.89704200  1
  Ni  Ni2  1  0.30427900  0.10645800  0.10296900  1
  O  O0  1  0.05037500  0.07393600  0.84352500  1
  O  O1  1  0.32510500  0.69395400  0.93341300  1
  O  O2  1  0.13061700  0.32322500  0.54137800  1
  O  O3  1  0.21936300  0.48922100  0.23626200  1
  O  O4  1  0.43111000  0.88675000  0.65855000  1
  O  O5  1  0.56890500  0.11325900  0.34144500  1
  O  O6  1  0.78063200  0.51078200  0.76372900  1
  O  O7  1  0.86939400  0.67677500  0.45863200  1
  O  O8  1  0.67489300  0.30604100  0.06658800  1
  O  O9  1  0.94962600  0.92606100  0.15647700  1
loop_
_geom_bond_atom_site_label_1
_geom_bond_atom_site_label_2
_geom_bond_distance
_geom_bond_site_symmetry_2
Li0 O4 2.089902 1_555
Li0 O3 2.096909 1_555
Li0 O7 2.118030 1_455
Li0 O5 2.129897 1_565
Li0 O9 2.149372 1_455
Li0 O2 2.211886 1_565
Li1 O4 2.026705 1_545
Li1 O0 2.090062 1_555
Li1 O1 2.135403 1_555
Li1 O6 2.138750 1_555
Li1 O2 2.180416 1_555
Li1 O8 2.285779 1_556
Li2 O2 2.056284 1_555
Li2 O7 2.056323 1_555
Li2 O5 2.085557 1_555
Li2 O4 2.085589 1_555
Li2 O6 2.214910 1_555
Li2 O3 2.215018 1_555
Li3 O5 2.026709 1_565
Li3 O9 2.090094 1_555
Li3 O8 2.135423 1_555
Li3 O3 2.138695 1_555
Li3 O7 2.180474 1_555
Li3 O1 2.285796 1_554
Li4 O5 2.089937 1_555
Li4 O6 2.096918 1_555
Li4 O2 2.118070 1_655
Li4 O4 2.129757 1_545
Li4 O0 2.149390 1_655
Li4 O7 2.211891 1_545
Mn0 O4 1.893009 1_555
Mn0 O7 1.913588 1_455
Mn0 O2 1.946398 1_555
Mn0 O1 1.972190 1_555
Mn0 O0 1.972645 1_565
Mn0 O6 1.982193 1_455
Mn1 O5 1.892927 1_555
Mn1 O2 1.913704 1_655
Mn1 O7 1.946354 1_555
Mn1 O8 1.972143 1_555
Mn1 O9 1.972702 1_545
Mn1 O3 1.982200 1_655
Ni0 O6 1.958670 1_555
Ni0 O3 1.958885 1_656
Ni0 O1 2.006681 1_655
Ni0 O8 2.006729 1_556
Ni0 O9 2.202280 1_556
Ni0 O0 2.202335 1_655
Ni1 O4 2.034738 1_555
Ni1 O0 2.045823 1_665
Ni1 O6 2.055187 1_555
Ni1 O1 2.083102 1_555
Ni1 O9 2.088252 1_556
Ni1 O8 2.116020 1_566
Ni2 O5 2.034628 1_555
Ni2 O9 2.045815 1_445
Ni2 O3 2.055224 1_555
Ni2 O8 2.083093 1_555
Ni2 O0 2.088330 1_554
Ni2 O1 2.116019 1_544
