# generated using pymatgen
data_GeW2C10(BrO5)2
_symmetry_space_group_name_H-M   'P 1'
_cell_length_a   13.31912900
_cell_length_b   9.66663100
_cell_length_c   15.43103654
_cell_angle_alpha   87.65181790
_cell_angle_beta   90.00000000
_cell_angle_gamma   90.00000000
_symmetry_Int_Tables_number   1
_chemical_formula_structural   GeW2C10(BrO5)2
_chemical_formula_sum   'Ge4 W8 C40 Br8 O40'
_cell_volume   1985.09471261
_cell_formula_units_Z   4
loop_
 _symmetry_equiv_pos_site_id
 _symmetry_equiv_pos_as_xyz
  1  'x, y, z'
loop_
 _atom_site_type_symbol
 _atom_site_label
 _atom_site_symmetry_multiplicity
 _atom_site_fract_x
 _atom_site_fract_y
 _atom_site_fract_z
 _atom_site_occupancy
  Ge  Ge0  1  0.22841000  0.00176100  0.23119500  1
  Ge  Ge1  1  0.72841000  0.49823900  0.26880500  1
  Ge  Ge2  1  0.27159000  0.50176100  0.73119500  1
  Ge  Ge3  1  0.77159000  0.99823900  0.76880500  1
  W  W0  1  0.31293200  0.29823400  0.84837200  1
  W  W1  1  0.18706800  0.79823400  0.34837200  1
  W  W2  1  0.70284200  0.88302000  0.62678500  1
  W  W3  1  0.29715800  0.11698000  0.37321500  1
  W  W4  1  0.79715800  0.38302000  0.12678500  1
  W  W5  1  0.81293200  0.20176600  0.65162800  1
  W  W6  1  0.20284200  0.61698000  0.87321500  1
  W  W7  1  0.68706800  0.70176600  0.15162800  1
  C  C0  1  0.14279600  0.77488300  0.94074000  1
  C  C1  1  0.85720400  0.22511700  0.05926000  1
  C  C2  1  0.17708200  0.72337700  0.22464600  1
  C  C3  1  0.13954400  0.60192400  0.37950900  1
  C  C4  1  0.72981700  0.72046700  0.71645700  1
  C  C5  1  0.17302800  0.82413600  0.48295100  1
  C  C6  1  0.85266300  0.50629900  0.02265600  1
  C  C7  1  0.43492900  0.07732900  0.31544100  1
  C  C8  1  0.64733700  0.00629900  0.52265600  1
  C  C9  1  0.27018300  0.27953300  0.28354300  1
  C  C10  1  0.22981700  0.77953300  0.78354300  1
  C  C11  1  0.64279600  0.72511700  0.55926000  1
  C  C12  1  0.03990700  0.87072200  0.33891000  1
  C  C13  1  0.86045600  0.39807600  0.62049100  1
  C  C14  1  0.82697200  0.17586400  0.51704900  1
  C  C15  1  0.34322500  0.64848200  0.92979700  1
  C  C16  1  0.32291800  0.22337700  0.72464600  1
  C  C17  1  0.53990700  0.62927800  0.16109000  1
  C  C18  1  0.56507100  0.92267100  0.68455900  1
  C  C19  1  0.84322500  0.85151800  0.57020300  1
  C  C20  1  0.46009300  0.37072200  0.83891000  1
  C  C21  1  0.96009300  0.12927800  0.66109000  1
  C  C22  1  0.67708200  0.77662300  0.27535400  1
  C  C23  1  0.16327000  0.23660800  0.85715000  1
  C  C24  1  0.67302800  0.67586400  0.01704900  1
  C  C25  1  0.32697200  0.32413600  0.98295100  1
  C  C26  1  0.33673000  0.73660800  0.35715000  1
  C  C27  1  0.93492900  0.42267100  0.18455900  1
  C  C28  1  0.82291800  0.27662300  0.77535400  1
  C  C29  1  0.15677500  0.14848200  0.42979700  1
  C  C30  1  0.06507100  0.57732900  0.81544100  1
  C  C31  1  0.36045600  0.10192400  0.87950900  1
  C  C32  1  0.35720400  0.27488300  0.44074000  1
  C  C33  1  0.35266300  0.99370100  0.47734400  1
  C  C34  1  0.83673000  0.76339200  0.14285000  1
  C  C35  1  0.77018300  0.22046700  0.21645700  1
  C  C36  1  0.65677500  0.35151800  0.07020300  1
  C  C37  1  0.66327000  0.26339200  0.64285000  1
  C  C38  1  0.63954400  0.89807600  0.12049100  1
  C  C39  1  0.14733700  0.49370100  0.97734400  1
  Br  Br0  1  0.15704300  0.45850700  0.61955500  1
  Br  Br1  1  0.34295700  0.95850700  0.11955500  1
  Br  Br2  1  0.59416300  0.40107500  0.34699300  1
  Br  Br3  1  0.09416300  0.09892500  0.15300700  1
  Br  Br4  1  0.40583700  0.59892500  0.65300700  1
  Br  Br5  1  0.65704300  0.04149300  0.88044500  1
  Br  Br6  1  0.90583700  0.90107500  0.84699300  1
  Br  Br7  1  0.84295700  0.54149300  0.38044500  1
  O  O0  1  0.66856900  0.82817400  0.34162600  1
  O  O1  1  0.34217700  0.33233000  0.05641100  1
  O  O2  1  0.08012900  0.20126600  0.86162700  1
  O  O3  1  0.51221400  0.05502700  0.28451200  1
  O  O4  1  0.89065500  0.13382800  0.02231100  1
  O  O5  1  0.83143100  0.32817400  0.84162600  1
  O  O6  1  0.04228500  0.09030900  0.66557700  1
  O  O7  1  0.45771500  0.59030900  0.16557700  1
  O  O8  1  0.33143100  0.17182600  0.65837400  1
  O  O9  1  0.39065500  0.36617200  0.47768900  1
  O  O10  1  0.91987100  0.79873400  0.13837300  1
  O  O11  1  0.89337500  0.56652600  0.96642300  1
  O  O12  1  0.41987100  0.70126600  0.36162700  1
  O  O13  1  0.48778600  0.94497300  0.71548800  1
  O  O14  1  0.11377300  0.48934800  0.39636200  1
  O  O15  1  0.01221400  0.44497300  0.21548800  1
  O  O16  1  0.15782300  0.83233000  0.55641100  1
  O  O17  1  0.60934500  0.63382800  0.52231100  1
  O  O18  1  0.07915800  0.16755900  0.46128400  1
  O  O19  1  0.10662500  0.43347400  0.03357700  1
  O  O20  1  0.57915800  0.33244100  0.03871600  1
  O  O21  1  0.39337500  0.93347400  0.53357700  1
  O  O22  1  0.25819600  0.37780000  0.23898400  1
  O  O23  1  0.60662500  0.06652600  0.46642300  1
  O  O24  1  0.58012900  0.29873400  0.63837300  1
  O  O25  1  0.98778600  0.55502700  0.78451200  1
  O  O26  1  0.95771500  0.90969100  0.33442300  1
  O  O27  1  0.61377300  0.01065200  0.10363800  1
  O  O28  1  0.38622700  0.98934800  0.89636200  1
  O  O29  1  0.65782300  0.66767000  0.94358900  1
  O  O30  1  0.74180400  0.62220000  0.76101600  1
  O  O31  1  0.42084200  0.66755900  0.96128400  1
  O  O32  1  0.54228500  0.40969100  0.83442300  1
  O  O33  1  0.92084200  0.83244100  0.53871600  1
  O  O34  1  0.24180400  0.87780000  0.73898400  1
  O  O35  1  0.84217700  0.16767000  0.44358900  1
  O  O36  1  0.16856900  0.67182600  0.15837400  1
  O  O37  1  0.88622700  0.51065200  0.60363800  1
  O  O38  1  0.10934500  0.86617200  0.97768900  1
  O  O39  1  0.75819600  0.12220000  0.26101600  1
loop_
_geom_bond_atom_site_label_1
_geom_bond_atom_site_label_2
_geom_bond_distance
_geom_bond_site_symmetry_2
Ge0 W3 2.661146 1_555
Ge0 W1 2.674302 1_545
Ge1 W4 2.661146 1_555
Ge1 W7 2.674302 1_555
Ge2 W6 2.661146 1_555
Ge2 W0 2.674302 1_555
Ge3 W2 2.661146 1_555
Ge3 W5 2.674302 1_565
C0 O38 1.159115 1_555
C0 W6 2.045858 1_555
C1 O4 1.159115 1_555
C1 W4 2.045858 1_555
C2 O36 1.161356 1_555
C2 W1 2.073557 1_555
C3 O14 1.160390 1_555
C3 W1 2.039094 1_555
C4 O30 1.160638 1_555
C4 W2 2.082003 1_555
C5 O16 1.157416 1_555
C5 W1 2.110196 1_555
C6 O11 1.159545 1_554
C6 W4 2.095619 1_555
C7 O3 1.158573 1_555
C7 W3 2.082521 1_555
C8 O23 1.159545 1_555
C8 W2 2.095619 1_545
C9 O22 1.160638 1_555
C9 W3 2.082003 1_555
C10 O34 1.160638 1_555
C10 W6 2.082003 1_555
C11 O17 1.159115 1_555
C11 W2 2.045858 1_555
C12 O26 1.158872 1_455
C12 W1 2.084648 1_555
C13 O37 1.160390 1_555
C13 W5 2.039094 1_555
C14 O35 1.157416 1_555
C14 W5 2.110196 1_555
C15 O31 1.160237 1_555
C15 W6 2.091155 1_555
C16 O8 1.161356 1_555
C16 W0 2.073557 1_555
C17 O7 1.158872 1_555
C17 W7 2.084648 1_555
C18 O13 1.158573 1_555
C18 W2 2.082521 1_555
C19 O33 1.160237 1_555
C19 W2 2.091155 1_555
C20 O32 1.158872 1_555
C20 W0 2.084648 1_555
C21 O6 1.158872 1_655
C21 W5 2.084648 1_555
C22 O0 1.161356 1_555
C22 W7 2.073557 1_555
C23 O2 1.160092 1_555
C23 W0 2.083297 1_555
C24 O29 1.157416 1_554
C24 W7 2.110196 1_555
C25 O1 1.157416 1_556
C25 W0 2.110196 1_555
C26 O12 1.160092 1_555
C26 W1 2.083297 1_555
C27 O15 1.158573 1_655
C27 W4 2.082521 1_555
C28 O5 1.161356 1_555
C28 W5 2.073557 1_555
C29 O18 1.160237 1_555
C29 W3 2.091155 1_555
C30 O25 1.158573 1_455
C30 W6 2.082521 1_555
C31 O28 1.160390 1_545
C31 W0 2.039094 1_555
C32 O9 1.159115 1_555
C32 W3 2.045858 1_555
C33 O21 1.159545 1_555
C33 W3 2.095619 1_565
C34 O10 1.160092 1_555
C34 W7 2.083297 1_555
C35 O39 1.160638 1_555
C35 W4 2.082003 1_555
C36 O20 1.160237 1_555
C36 W4 2.091155 1_555
C37 O24 1.160092 1_555
C37 W5 2.083297 1_555
C38 O27 1.160390 1_565
C38 W7 2.039094 1_555
C39 O19 1.159545 1_556
C39 W6 2.095619 1_555
Br0 Ge2 2.351441 1_555
Br1 Ge0 2.351441 1_565
Br2 Ge1 2.332843 1_555
Br3 Ge0 2.332843 1_555
Br4 Ge2 2.332843 1_555
Br5 Ge3 2.351441 1_545
Br6 Ge3 2.332843 1_555
Br7 Ge1 2.351441 1_555
