# generated using pymatgen
data_Li4Fe3Co(PO4)4
_symmetry_space_group_name_H-M   'P 1'
_cell_length_a   6.05977500
_cell_length_b   4.74079400
_cell_length_c   10.40131973
_cell_angle_alpha   89.90035099
_cell_angle_beta   90.00000000
_cell_angle_gamma   90.00000000
_symmetry_Int_Tables_number   1
_chemical_formula_structural   Li4Fe3Co(PO4)4
_chemical_formula_sum   'Li4 Fe3 Co1 P4 O16'
_cell_volume   298.81016910
_cell_formula_units_Z   1
loop_
 _symmetry_equiv_pos_site_id
 _symmetry_equiv_pos_as_xyz
  1  'x, y, z'
loop_
 _atom_site_type_symbol
 _atom_site_label
 _atom_site_symmetry_multiplicity
 _atom_site_fract_x
 _atom_site_fract_y
 _atom_site_fract_z
 _atom_site_occupancy
  Li  Li0  1  0.24965300  0.00028900  0.00048900  1
  Li  Li1  1  0.75034700  0.00028900  0.00048900  1
  Li  Li2  1  0.75015300  0.50004800  0.49958700  1
  Li  Li3  1  0.24984700  0.50004800  0.49958700  1
  Fe  Fe0  1  0.00000000  0.47448500  0.78149500  1
  Fe  Fe1  1  0.50000000  0.52519500  0.21945400  1
  Fe  Fe2  1  0.50000000  0.97408200  0.71802300  1
  Co  Co0  1  0.00000000  0.02444800  0.28032800  1
  P  P0  1  0.50000000  0.08290000  0.40465400  1
  P  P1  1  0.50000000  0.41756300  0.90550800  1
  P  P2  1  0.00000000  0.58235100  0.09527200  1
  P  P3  1  0.00000000  0.91773600  0.59410300  1
  O  O0  1  0.50000000  0.20620300  0.54360500  1
  O  O1  1  0.29577400  0.21700300  0.33414900  1
  O  O2  1  0.70422600  0.21700300  0.33414900  1
  O  O3  1  0.00000000  0.24199400  0.59749200  1
  O  O4  1  0.00000000  0.25797700  0.09772500  1
  O  O5  1  0.29619900  0.28298400  0.83451600  1
  O  O6  1  0.70380100  0.28298400  0.83451600  1
  O  O7  1  0.50000000  0.29364500  0.04379900  1
  O  O8  1  0.00000000  0.70645200  0.95649800  1
  O  O9  1  0.79617700  0.71719400  0.16603500  1
  O  O10  1  0.20382300  0.71719400  0.16603500  1
  O  O11  1  0.50000000  0.74195400  0.90261700  1
  O  O12  1  0.50000000  0.75827100  0.40274700  1
  O  O13  1  0.79619200  0.78292800  0.66555600  1
  O  O14  1  0.20380800  0.78292800  0.66555600  1
  O  O15  1  0.00000000  0.79385400  0.45601500  1
loop_
_geom_bond_atom_site_label_1
_geom_bond_atom_site_label_2
_geom_bond_distance
_geom_bond_site_symmetry_2
Li0 O7 2.107297 1_555
Li0 O8 2.107315 1_544
Li0 O4 2.192783 1_555
Li0 O10 2.198917 1_545
Li0 O11 2.200456 1_544
Li0 O5 2.201791 1_554
Li1 O7 2.107297 1_555
Li1 O8 2.107315 1_644
Li1 O4 2.192783 1_655
Li1 O9 2.198917 1_545
Li1 O11 2.200456 1_544
Li1 O6 2.201791 1_554
Li2 O15 2.106073 1_655
Li2 O0 2.108526 1_555
Li2 O12 2.192436 1_555
Li2 O3 2.195812 1_655
Li2 O2 2.201620 1_555
Li2 O13 2.205554 1_555
Li3 O15 2.106073 1_555
Li3 O0 2.108526 1_555
Li3 O12 2.192436 1_555
Li3 O3 2.195812 1_555
Li3 O1 2.201620 1_555
Li3 O14 2.205554 1_555
Fe0 O5 2.085254 1_555
Fe0 O6 2.085254 1_455
Fe0 O8 2.128303 1_555
Fe0 O3 2.210221 1_555
Fe0 O14 2.260890 1_555
Fe0 O13 2.260890 1_455
Fe1 O9 2.087262 1_555
Fe1 O10 2.087262 1_555
Fe1 O7 2.133091 1_555
Fe1 O12 2.205216 1_555
Fe1 O2 2.254649 1_555
Fe1 O1 2.254649 1_555
Fe2 O14 2.083815 1_555
Fe2 O13 2.083815 1_555
Fe2 O0 2.120203 1_565
Fe2 O11 2.211372 1_555
Fe2 O5 2.268066 1_565
Fe2 O6 2.268066 1_565
Co0 O1 2.088279 1_555
Co0 O2 2.088279 1_455
Co0 O15 2.127778 1_545
Co0 O4 2.196764 1_555
Co0 O10 2.250901 1_545
Co0 O9 2.250901 1_445
O0 P0 1.559955 1_555
O1 P0 1.572234 1_555
O2 P0 1.572234 1_555
O3 P3 1.537706 1_545
O4 P2 1.537958 1_555
O5 P1 1.574529 1_555
O6 P1 1.574529 1_555
O7 P1 1.552804 1_554
O8 P2 1.557782 1_556
O9 P2 1.574026 1_655
O10 P2 1.574026 1_555
O11 P1 1.538113 1_555
O12 P0 1.539162 1_565
O13 P3 1.576213 1_655
O14 P3 1.576213 1_555
O15 P3 1.552677 1_555
