# generated using pymatgen
data_LiFeF3
_symmetry_space_group_name_H-M   'P 1'
_cell_length_a   3.23539600
_cell_length_b   6.30375306
_cell_length_c   6.30477574
_cell_angle_alpha   70.40473938
_cell_angle_beta   89.80160648
_cell_angle_gamma   89.81444461
_symmetry_Int_Tables_number   1
_chemical_formula_structural   LiFeF3
_chemical_formula_sum   'Li2 Fe2 F6'
_cell_volume   121.13866971
_cell_formula_units_Z   2
loop_
 _symmetry_equiv_pos_site_id
 _symmetry_equiv_pos_as_xyz
  1  'x, y, z'
loop_
 _atom_site_type_symbol
 _atom_site_label
 _atom_site_symmetry_multiplicity
 _atom_site_fract_x
 _atom_site_fract_y
 _atom_site_fract_z
 _atom_site_occupancy
  Li  Li0  1  0.49888200  0.00012000  0.99501700  1
  Li  Li1  1  0.49968500  0.49899600  0.50158900  1
  Fe  Fe0  1  0.99758000  0.49767800  0.00070300  1
  Fe  Fe1  1  0.99753100  0.00014600  0.50070500  1
  F  F0  1  0.49845100  0.55325800  0.18663100  1
  F  F1  1  0.49636600  0.81365800  0.44736600  1
  F  F2  1  0.98844400  0.85738200  0.86225500  1
  F  F3  1  0.98869000  0.13728800  0.14216400  1
  F  F4  1  0.49599900  0.43621700  0.81868200  1
  F  F5  1  0.49796000  0.18140200  0.56435600  1
loop_
_geom_bond_atom_site_label_1
_geom_bond_atom_site_label_2
_geom_bond_distance
_geom_bond_site_symmetry_2
F0 Li1 1.898587 1_555
F0 Fe0 2.088883 1_555
F0 Fe0 2.101255 1_455
F1 Li1 1.896448 1_555
F1 Fe1 2.085415 1_465
F1 Fe1 2.098932 1_565
F2 Li0 2.122693 1_565
F2 Fe0 2.139265 1_556
F2 Fe1 2.151877 1_565
F2 Li0 2.182192 1_665
F3 Fe1 2.132518 1_555
F3 Fe0 2.144431 1_555
F3 Li0 2.162592 1_554
F3 Li0 2.202561 1_654
F4 Li1 1.903351 1_555
F4 Fe0 2.085398 1_456
F4 Fe0 2.101384 1_556
F5 Li1 1.906153 1_555
F5 Fe1 2.090485 1_555
F5 Fe1 2.100486 1_455
