# generated using pymatgen
data_Mn5Nb(PO4)6
_symmetry_space_group_name_H-M   'P 1'
_cell_length_a   8.72608685
_cell_length_b   8.72608685
_cell_length_c   8.72608743
_cell_angle_alpha   59.92581111
_cell_angle_beta   59.92581111
_cell_angle_gamma   59.92581187
_symmetry_Int_Tables_number   1
_chemical_formula_structural   Mn5Nb(PO4)6
_chemical_formula_sum   'Mn5 Nb1 P6 O24'
_cell_volume   469.04246913
_cell_formula_units_Z   1
loop_
 _symmetry_equiv_pos_site_id
 _symmetry_equiv_pos_as_xyz
  1  'x, y, z'
loop_
 _atom_site_type_symbol
 _atom_site_label
 _atom_site_symmetry_multiplicity
 _atom_site_fract_x
 _atom_site_fract_y
 _atom_site_fract_z
 _atom_site_occupancy
  Mn  Mn0  1  0.00511700  0.00511700  0.00511700  1
  Mn  Mn1  1  0.35543900  0.35543900  0.35543900  1
  Mn  Mn2  1  0.50033000  0.50033000  0.50033000  1
  Mn  Mn3  1  0.14670300  0.14670300  0.14670300  1
  Mn  Mn4  1  0.64458200  0.64458200  0.64458200  1
  Nb  Nb0  1  0.85603800  0.85603800  0.85603800  1
  P  P0  1  0.74783800  0.04562000  0.45095900  1
  P  P1  1  0.04562000  0.45095900  0.74783800  1
  P  P2  1  0.45095900  0.74783800  0.04562000  1
  P  P3  1  0.53925400  0.25613300  0.95665600  1
  P  P4  1  0.95665600  0.53925400  0.25613300  1
  P  P5  1  0.25613300  0.95665600  0.53925400  1
  O  O0  1  0.88844000  0.48910800  0.69040800  1
  O  O1  1  0.48910800  0.69040800  0.88844000  1
  O  O2  1  0.69040800  0.88844000  0.48910800  1
  O  O3  1  0.91497100  0.05925100  0.26264300  1
  O  O4  1  0.81381900  0.99265000  0.61554600  1
  O  O5  1  0.59123400  0.23698900  0.44618900  1
  O  O6  1  0.05925100  0.26264300  0.91497100  1
  O  O7  1  0.23698900  0.44618900  0.59123400  1
  O  O8  1  0.38593100  0.19452900  0.98949900  1
  O  O9  1  0.44618900  0.59123400  0.23698900  1
  O  O10  1  0.73620000  0.08828700  0.93454300  1
  O  O11  1  0.98949900  0.38593100  0.19452900  1
  O  O12  1  0.99265000  0.61554600  0.81381900  1
  O  O13  1  0.26264300  0.91497100  0.05925100  1
  O  O14  1  0.56040100  0.41292700  0.76014300  1
  O  O15  1  0.61554600  0.81381900  0.99265000  1
  O  O16  1  0.76014300  0.56040100  0.41292700  1
  O  O17  1  0.93454300  0.73620000  0.08828700  1
  O  O18  1  0.41292700  0.76014300  0.56040100  1
  O  O19  1  0.19452900  0.98949900  0.38593100  1
  O  O20  1  0.08828700  0.93454300  0.73620000  1
  O  O21  1  0.30812300  0.11058600  0.51292600  1
  O  O22  1  0.51292600  0.30812300  0.11058600  1
  O  O23  1  0.11058600  0.51292600  0.30812300  1
loop_
_geom_bond_atom_site_label_1
_geom_bond_atom_site_label_2
_geom_bond_distance
_geom_bond_site_symmetry_2
Mn0 O6 2.193543 1_554
Mn0 O13 2.193543 1_545
Mn0 O3 2.193543 1_455
Mn0 O17 2.388727 1_445
Mn0 O10 2.388727 1_454
Mn0 O20 2.388727 1_544
Mn1 O21 1.999196 1_555
Mn1 O23 1.999196 1_555
Mn1 O22 1.999196 1_555
Mn1 O9 2.147143 1_555
Mn1 O5 2.147143 1_555
Mn1 O7 2.147143 1_555
Mn2 O7 2.240204 1_555
Mn2 O5 2.240204 1_555
Mn2 O9 2.240204 1_555
Mn2 O16 2.248070 1_555
Mn2 O18 2.248070 1_555
Mn2 O14 2.248070 1_555
Mn3 O8 1.960366 1_554
Mn3 O11 1.960366 1_455
Mn3 O19 1.960366 1_545
Mn3 O3 2.101726 1_455
Mn3 O13 2.101726 1_545
Mn3 O6 2.101726 1_554
Mn4 O2 1.986018 1_555
Mn4 O0 1.986018 1_555
Mn4 O1 1.986018 1_555
Mn4 O14 2.084592 1_555
Mn4 O18 2.084592 1_555
Mn4 O16 2.084592 1_555
Nb0 O15 1.946318 1_555
Nb0 O12 1.946318 1_555
Nb0 O4 1.946318 1_555
Nb0 O20 2.054132 1_655
Nb0 O10 2.054132 1_565
Nb0 O17 2.054132 1_556
O0 P1 1.518958 1_655
O1 P2 1.518958 1_556
O2 P0 1.518958 1_565
O3 P0 1.554821 1_555
O4 P0 1.582567 1_565
O5 P0 1.535571 1_555
O6 P1 1.554821 1_555
O7 P1 1.535571 1_555
O8 P3 1.530762 1_555
O9 P2 1.535571 1_555
O10 P3 1.601263 1_555
O11 P4 1.530762 1_555
O12 P1 1.582566 1_655
O13 P2 1.554821 1_555
O14 P3 1.559163 1_555
O15 P2 1.582566 1_556
O16 P4 1.559163 1_555
O17 P4 1.601263 1_555
O18 P5 1.559163 1_555
O19 P5 1.530762 1_555
O20 P5 1.601263 1_555
O21 P5 1.503262 1_545
O22 P3 1.503262 1_554
O23 P4 1.503262 1_455
