# generated using pymatgen
data_Na3Li3Mn2P2(CO7)2
_symmetry_space_group_name_H-M   'P 1'
_cell_length_a   5.07933500
_cell_length_b   6.71965466
_cell_length_c   8.75975225
_cell_angle_alpha   89.74236054
_cell_angle_beta   89.01034097
_cell_angle_gamma   89.91346355
_symmetry_Int_Tables_number   1
_chemical_formula_structural   Na3Li3Mn2P2(CO7)2
_chemical_formula_sum   'Na3 Li3 Mn2 P2 C2 O14'
_cell_volume   298.93447893
_cell_formula_units_Z   1
loop_
 _symmetry_equiv_pos_site_id
 _symmetry_equiv_pos_as_xyz
  1  'x, y, z'
loop_
 _atom_site_type_symbol
 _atom_site_label
 _atom_site_symmetry_multiplicity
 _atom_site_fract_x
 _atom_site_fract_y
 _atom_site_fract_z
 _atom_site_occupancy
  Na  Na0  1  0.75655800  0.74365300  0.08401500  1
  Na  Na1  1  0.25084600  0.00191800  0.25215800  1
  Na  Na2  1  0.75062800  0.49856800  0.74807800  1
  Li  Li0  1  0.22604700  0.52524800  0.27254800  1
  Li  Li1  1  0.77321000  0.02185700  0.73012800  1
  Li  Li2  1  0.25308400  0.24646100  0.91229500  1
  Mn  Mn0  1  0.77649000  0.25594000  0.35930700  1
  Mn  Mn1  1  0.22404200  0.75534700  0.64420200  1
  P  P0  1  0.70520800  0.75234400  0.41256200  1
  P  P1  1  0.29605600  0.25112300  0.59353300  1
  C  C0  1  0.73100400  0.24165400  0.04460600  1
  C  C1  1  0.26616700  0.74191000  0.94704500  1
  O  O0  1  0.28452300  0.72377800  0.09486300  1
  O  O1  1  0.97650600  0.24618400  0.08437800  1
  O  O2  1  0.54423000  0.26018800  0.14768400  1
  O  O3  1  0.77873200  0.93893100  0.31511800  1
  O  O4  1  0.82523500  0.57096900  0.32577200  1
  O  O5  1  0.39821100  0.73019400  0.42071200  1
  O  O6  1  0.18966200  0.26669600  0.42800800  1
  O  O7  1  0.80682400  0.76757000  0.57805900  1
  O  O8  1  0.60232300  0.22947200  0.58028300  1
  O  O9  1  0.22550400  0.43537400  0.69319600  1
  O  O10  1  0.17893800  0.07125700  0.68401000  1
  O  O11  1  0.47660200  0.75638900  0.86142300  1
  O  O12  1  0.03762200  0.74677900  0.88342300  1
  O  O13  1  0.66574800  0.22019500  0.90259600  1
loop_
_geom_bond_atom_site_label_1
_geom_bond_atom_site_label_2
_geom_bond_distance
_geom_bond_site_symmetry_2
Na0 O12 2.244809 1_654
Na0 O0 2.401760 1_555
Na0 O3 2.421773 1_555
Na0 O11 2.434175 1_554
Na0 O4 2.440316 1_555
Na0 O0 2.688131 1_655
Na1 O0 2.331310 1_545
Na1 O6 2.375179 1_555
Na1 O2 2.452864 1_555
Na1 O5 2.466574 1_545
Na1 O3 2.487793 1_445
Na1 O1 2.614971 1_455
Na1 O3 2.778181 1_545
Na2 O13 2.340189 1_555
Na2 O7 2.351520 1_555
Na2 O11 2.425901 1_555
Na2 O8 2.462489 1_555
Na2 O9 2.487596 1_655
Na2 O12 2.529292 1_655
Na2 O9 2.752341 1_555
Li0 O0 2.063272 1_555
Li0 O5 2.098740 1_555
Li0 O4 2.103114 1_455
Li0 O6 2.208646 1_555
Li0 O2 2.632192 1_555
Li1 O13 2.084242 1_555
Li1 O8 2.107577 1_555
Li1 O10 2.119554 1_655
Li1 O7 2.176021 1_545
Li2 O1 2.042708 1_456
Li2 O13 2.103497 1_555
Li2 O9 2.302488 1_555
Li2 O10 2.361208 1_555
Li2 O2 2.560182 1_556
Mn0 O8 2.121175 1_555
Mn0 O4 2.149949 1_555
Mn0 O3 2.166764 1_545
Mn0 O6 2.194574 1_655
Mn0 O2 2.214494 1_555
Mn0 O1 2.598674 1_555
Mn1 O5 2.141623 1_555
Mn1 O10 2.163982 1_565
Mn1 O9 2.190656 1_555
Mn1 O7 2.207912 1_455
Mn1 O12 2.285091 1_555
Mn1 O11 2.313189 1_555
C0 O1 1.300960 1_555
C0 O13 1.301585 1_554
C0 O2 1.304561 1_555
C1 O12 1.296660 1_555
C1 O11 1.298636 1_555
C1 O0 1.304948 1_556
O3 P0 1.555914 1_555
O4 P0 1.557296 1_555
O5 P0 1.567021 1_555
O6 P1 1.559136 1_555
O7 P0 1.551089 1_555
O8 P1 1.564565 1_555
O9 P1 1.555976 1_555
O10 P1 1.555668 1_555
