# generated using pymatgen
data_Zr(SiNi)2
_symmetry_space_group_name_H-M   'P 1'
_cell_length_a   3.75002622
_cell_length_b   3.75002575
_cell_length_c   5.50372129
_cell_angle_alpha   109.91836656
_cell_angle_beta   109.91836004
_cell_angle_gamma   90.00000557
_symmetry_Int_Tables_number   1
_chemical_formula_structural   Zr(SiNi)2
_chemical_formula_sum   'Zr1 Si2 Ni2'
_cell_volume   67.82185976
_cell_formula_units_Z   1
loop_
 _symmetry_equiv_pos_site_id
 _symmetry_equiv_pos_as_xyz
  1  'x, y, z'
loop_
 _atom_site_type_symbol
 _atom_site_label
 _atom_site_symmetry_multiplicity
 _atom_site_fract_x
 _atom_site_fract_y
 _atom_site_fract_z
 _atom_site_occupancy
  Zr  Zr0  1  0.00000000  0.00000000  0.00000000  1
  Si  Si0  1  0.62045134  0.62045134  0.24090167  1
  Si  Si1  1  0.37954866  0.37954866  0.75909833  1
  Ni  Ni0  1  0.25000000  0.75000000  0.50000000  1
  Ni  Ni1  1  0.75000000  0.25000000  0.50000000  1
loop_
_geom_bond_atom_site_label_1
_geom_bond_atom_site_label_2
_geom_bond_distance
_geom_bond_site_symmetry_2
Si0 Si1 2.323651 1_554
Si0 Zr0 2.895025 1_665
Si0 Zr0 2.895028 1_655
Si0 Zr0 2.895028 1_565
Si0 Zr0 2.895030 1_555
Si1 Zr0 2.895025 1_556
Si1 Zr0 2.895028 1_566
Si1 Zr0 2.895028 1_656
Si1 Zr0 2.895030 1_666
Ni0 Si1 2.253248 1_565
Ni0 Si0 2.253249 1_455
Ni0 Si1 2.253252 1_555
Ni0 Si0 2.253252 1_555
Ni0 Ni1 2.651669 1_565
Ni0 Ni1 2.651669 1_455
Ni0 Ni1 2.651669 1_465
Ni0 Ni1 2.651669 1_555
Ni0 Zr0 3.054599 1_555
Ni0 Zr0 3.054599 1_566
Ni0 Zr0 3.054599 1_565
Ni0 Zr0 3.054599 1_666
Ni1 Si0 2.253248 1_545
Ni1 Si1 2.253249 1_655
Ni1 Si0 2.253252 1_555
Ni1 Si1 2.253252 1_555
Ni1 Zr0 3.054599 1_666
Ni1 Zr0 3.054599 1_655
Ni1 Zr0 3.054599 1_656
Ni1 Zr0 3.054599 1_555
