# generated using pymatgen
data_LiCuPO4
_symmetry_space_group_name_H-M   'P 1'
_cell_length_a   4.94276200
_cell_length_b   9.82987800
_cell_length_c   14.00339800
_cell_angle_alpha   90.00000000
_cell_angle_beta   90.00000000
_cell_angle_gamma   90.00000000
_symmetry_Int_Tables_number   1
_chemical_formula_structural   LiCuPO4
_chemical_formula_sum   'Li8 Cu8 P8 O32'
_cell_volume   680.37956197
_cell_formula_units_Z   8
loop_
 _symmetry_equiv_pos_site_id
 _symmetry_equiv_pos_as_xyz
  1  'x, y, z'
loop_
 _atom_site_type_symbol
 _atom_site_label
 _atom_site_symmetry_multiplicity
 _atom_site_fract_x
 _atom_site_fract_y
 _atom_site_fract_z
 _atom_site_occupancy
  Li  Li0  1  0.05253100  0.03322600  0.24818300  1
  Li  Li1  1  0.56138700  0.22016900  0.99681000  1
  Li  Li2  1  0.56138700  0.27983100  0.49681000  1
  Li  Li3  1  0.05253100  0.46677400  0.74818300  1
  Li  Li4  1  0.94746900  0.53322600  0.24818300  1
  Li  Li5  1  0.43861300  0.72016900  0.99681000  1
  Li  Li6  1  0.43861300  0.77983100  0.49681000  1
  Li  Li7  1  0.94746900  0.96677400  0.74818300  1
  Cu  Cu0  1  0.94553600  0.02559100  0.50009300  1
  Cu  Cu1  1  0.54455300  0.22738300  0.24730900  1
  Cu  Cu2  1  0.54455300  0.27261700  0.74730900  1
  Cu  Cu3  1  0.94553600  0.47440900  0.00009300  1
  Cu  Cu4  1  0.05446400  0.52559100  0.50009300  1
  Cu  Cu5  1  0.45544700  0.72738300  0.24730900  1
  Cu  Cu6  1  0.45544700  0.77261700  0.74730900  1
  Cu  Cu7  1  0.05446400  0.97440900  0.00009300  1
  P  P0  1  0.44122500  0.03243500  0.62348300  1
  P  P1  1  0.06869200  0.21470200  0.87278700  1
  P  P2  1  0.06869200  0.28529800  0.37278700  1
  P  P3  1  0.44122500  0.46756500  0.12348300  1
  P  P4  1  0.55877500  0.53243500  0.62348300  1
  P  P5  1  0.93130800  0.71470200  0.87278700  1
  P  P6  1  0.93130800  0.78529800  0.37278700  1
  P  P7  1  0.55877500  0.96756500  0.12348300  1
  O  O0  1  0.87169600  0.98958700  0.12381900  1
  O  O1  1  0.55941400  0.96660700  0.53184800  1
  O  O2  1  0.44203000  0.03227600  0.21566100  1
  O  O3  1  0.01810300  0.05785700  0.87389000  1
  O  O4  1  0.51228000  0.18634700  0.62225400  1
  O  O5  1  0.94349700  0.22515600  0.46526300  1
  O  O6  1  0.94263700  0.27411600  0.78057100  1
  O  O7  1  0.37670600  0.24666400  0.87242900  1
  O  O8  1  0.37670600  0.25333600  0.37242900  1
  O  O9  1  0.94263700  0.22588400  0.28057100  1
  O  O10  1  0.94349700  0.27484400  0.96526300  1
  O  O11  1  0.51228000  0.31365300  0.12225400  1
  O  O12  1  0.01810300  0.44214300  0.37389000  1
  O  O13  1  0.44203000  0.46772400  0.71566100  1
  O  O14  1  0.55941400  0.53339300  0.03184800  1
  O  O15  1  0.87169600  0.51041300  0.62381900  1
  O  O16  1  0.12830400  0.48958700  0.12381900  1
  O  O17  1  0.44058600  0.46660700  0.53184800  1
  O  O18  1  0.55797000  0.53227600  0.21566100  1
  O  O19  1  0.98189700  0.55785700  0.87389000  1
  O  O20  1  0.48772000  0.68634700  0.62225400  1
  O  O21  1  0.05650300  0.72515600  0.46526300  1
  O  O22  1  0.05736300  0.77411600  0.78057100  1
  O  O23  1  0.62329400  0.74666400  0.87242900  1
  O  O24  1  0.62329400  0.75333600  0.37242900  1
  O  O25  1  0.05736300  0.72588400  0.28057100  1
  O  O26  1  0.05650300  0.77484400  0.96526300  1
  O  O27  1  0.48772000  0.81365300  0.12225400  1
  O  O28  1  0.98189700  0.94214300  0.37389000  1
  O  O29  1  0.55797000  0.96772400  0.71566100  1
  O  O30  1  0.44058600  0.03339300  0.03184800  1
  O  O31  1  0.12830400  0.01041300  0.62381900  1
loop_
_geom_bond_atom_site_label_1
_geom_bond_atom_site_label_2
_geom_bond_distance
_geom_bond_site_symmetry_2
Li0 O2 1.978356 1_555
Li0 O0 2.003951 1_445
Li0 O28 2.005557 1_445
Li0 O9 2.021693 1_455
Li1 O7 1.983636 1_555
Li1 O30 1.992008 1_556
Li1 O11 1.997286 1_556
Li1 O10 2.012738 1_555
Li2 O8 1.983636 1_555
Li2 O17 1.992008 1_555
Li2 O4 1.997286 1_555
Li2 O5 2.012738 1_555
Li3 O13 1.978356 1_555
Li3 O15 2.003951 1_455
Li3 O19 2.005557 1_455
Li3 O6 2.021693 1_455
Li4 O18 1.978356 1_555
Li4 O16 2.003951 1_655
Li4 O12 2.005557 1_655
Li4 O25 2.021693 1_655
Li5 O23 1.983636 1_555
Li5 O14 1.992008 1_556
Li5 O27 1.997286 1_556
Li5 O26 2.012738 1_555
Li6 O24 1.983636 1_555
Li6 O1 1.992008 1_555
Li6 O20 1.997286 1_555
Li6 O21 2.012738 1_555
Li7 O29 1.978356 1_555
Li7 O31 2.003951 1_665
Li7 O3 2.005557 1_665
Li7 O22 2.021693 1_655
Cu0 O28 1.956633 1_545
Cu0 O31 1.959643 1_655
Cu0 O5 2.021449 1_555
Cu0 O1 2.043605 1_545
Cu1 O11 1.952248 1_555
Cu1 O8 1.955310 1_555
Cu1 O9 2.022067 1_555
Cu1 O2 2.032598 1_555
Cu2 O4 1.952248 1_555
Cu2 O7 1.955310 1_555
Cu2 O6 2.022067 1_555
Cu2 O13 2.032598 1_555
Cu3 O19 1.956633 1_554
Cu3 O16 1.959643 1_655
Cu3 O10 2.021449 1_554
Cu3 O14 2.043605 1_555
Cu4 O12 1.956633 1_555
Cu4 O15 1.959643 1_455
Cu4 O21 2.021449 1_555
Cu4 O17 2.043605 1_555
Cu5 O27 1.952248 1_555
Cu5 O24 1.955310 1_555
Cu5 O25 2.022067 1_555
Cu5 O18 2.032598 1_555
Cu6 O20 1.952248 1_555
Cu6 O23 1.955310 1_555
Cu6 O22 2.022067 1_555
Cu6 O29 2.032598 1_555
Cu7 O3 1.956633 1_564
Cu7 O0 1.959643 1_455
Cu7 O26 2.021449 1_554
Cu7 O30 2.043605 1_565
O0 P7 1.561776 1_555
O1 P0 1.551318 1_565
O2 P7 1.550413 1_545
O3 P1 1.561989 1_555
O4 P0 1.553261 1_555
O5 P2 1.552223 1_655
O6 P1 1.548176 1_655
O7 P1 1.554529 1_555
O8 P2 1.554529 1_555
O9 P2 1.548176 1_655
O10 P1 1.552223 1_655
O11 P3 1.553261 1_555
O12 P2 1.561989 1_555
O13 P4 1.550413 1_555
O14 P3 1.551318 1_555
O15 P4 1.561776 1_555
O16 P3 1.561776 1_555
O17 P4 1.551318 1_555
O18 P3 1.550413 1_555
O19 P5 1.561989 1_555
O20 P4 1.553261 1_555
O21 P6 1.552223 1_455
O22 P5 1.548176 1_455
O23 P5 1.554529 1_555
O24 P6 1.554529 1_555
O25 P6 1.548176 1_455
O26 P5 1.552223 1_455
O27 P7 1.553261 1_555
O28 P6 1.561989 1_555
O29 P0 1.550413 1_565
O30 P7 1.551318 1_545
O31 P0 1.561776 1_555
