# generated using pymatgen
data_V6O7F5
_symmetry_space_group_name_H-M   'P 1'
_cell_length_a   4.67792400
_cell_length_b   5.61981519
_cell_length_c   7.79968955
_cell_angle_alpha   86.37055979
_cell_angle_beta   89.72425569
_cell_angle_gamma   89.96276671
_symmetry_Int_Tables_number   1
_chemical_formula_structural   V6O7F5
_chemical_formula_sum   'V6 O7 F5'
_cell_volume   204.63293430
_cell_formula_units_Z   1
loop_
 _symmetry_equiv_pos_site_id
 _symmetry_equiv_pos_as_xyz
  1  'x, y, z'
loop_
 _atom_site_type_symbol
 _atom_site_label
 _atom_site_symmetry_multiplicity
 _atom_site_fract_x
 _atom_site_fract_y
 _atom_site_fract_z
 _atom_site_occupancy
  V  V0  1  0.54304100  0.17358200  0.34145000  1
  V  V1  1  0.48765000  0.50007500  0.99996300  1
  V  V2  1  0.51572800  0.82105500  0.65789700  1
  V  V3  1  0.97711500  0.66181900  0.31640100  1
  V  V4  1  0.97499400  0.35362600  0.68069800  1
  V  V5  1  0.99054200  0.99671200  0.01406400  1
  O  O0  1  0.80880200  0.62695100  0.56224200  1
  O  O1  1  0.80809400  0.29690400  0.89890500  1
  O  O2  1  0.79538900  0.96989200  0.23115300  1
  O  O3  1  0.69307000  0.46655700  0.22580000  1
  O  O4  1  0.71199300  0.13328100  0.57705600  1
  O  O5  1  0.29555000  0.53141400  0.75761300  1
  O  O6  1  0.19679100  0.70703000  0.09335700  1
  F  F0  1  0.69790500  0.79620000  0.89515400  1
  F  F1  1  0.30063100  0.86932000  0.43009900  1
  F  F2  1  0.30016200  0.19957500  0.11277600  1
  F  F3  1  0.20465500  0.03332300  0.77303900  1
  F  F4  1  0.19788400  0.36268300  0.43233200  1
loop_
_geom_bond_atom_site_label_1
_geom_bond_atom_site_label_2
_geom_bond_distance
_geom_bond_site_symmetry_2
O0 V4 1.908697 1_555
O0 V2 1.928048 1_555
O0 V3 2.067164 1_555
O1 V4 1.877936 1_555
O1 V5 2.048147 1_546
O1 V1 2.066966 1_555
O2 V0 1.886019 1_565
O2 V5 1.917324 1_555
O2 V3 2.004994 1_555
O3 V3 1.891607 1_555
O3 V0 1.955619 1_555
O3 V1 2.008898 1_554
O4 V4 1.959279 1_555
O4 V0 2.003488 1_555
O4 V2 2.043467 1_545
O5 V4 1.921789 1_455
O5 V2 2.037018 1_555
O5 V1 2.094185 1_555
O6 V1 1.957104 1_554
O6 V5 1.959553 1_455
O6 V3 2.018467 1_455
F0 V5 2.037271 1_556
F0 V2 2.037777 1_555
F0 V1 2.056030 1_555
F1 V2 2.049077 1_555
F1 V0 2.129088 1_565
F1 V3 2.140731 1_455
F2 V5 2.028377 1_445
F2 V1 2.049809 1_554
F2 V0 2.116531 1_555
F3 V2 2.113740 1_545
F3 V5 2.124339 1_446
F3 V4 2.180341 1_455
F4 V0 2.078689 1_555
F4 V3 2.127091 1_455
F4 V4 2.193294 1_455
