# generated using pymatgen
data_Li2Mn2P2O7F2
_symmetry_space_group_name_H-M   'P 1'
_cell_length_a   6.77493900
_cell_length_b   10.49500000
_cell_length_c   11.25935700
_cell_angle_alpha   90.00000000
_cell_angle_beta   90.00000000
_cell_angle_gamma   90.00000000
_symmetry_Int_Tables_number   1
_chemical_formula_structural   Li2Mn2P2O7F2
_chemical_formula_sum   'Li8 Mn8 P8 O28 F8'
_cell_volume   800.57388969
_cell_formula_units_Z   4
loop_
 _symmetry_equiv_pos_site_id
 _symmetry_equiv_pos_as_xyz
  1  'x, y, z'
loop_
 _atom_site_type_symbol
 _atom_site_label
 _atom_site_symmetry_multiplicity
 _atom_site_fract_x
 _atom_site_fract_y
 _atom_site_fract_z
 _atom_site_occupancy
  Li  Li0  1  0.51977300  0.02810900  0.78994000  1
  Li  Li1  1  0.48022700  0.47189100  0.78994000  1
  Li  Li2  1  0.98022700  0.52810900  0.71006000  1
  Li  Li3  1  0.01977300  0.97189100  0.71006000  1
  Li  Li4  1  0.98022700  0.02810900  0.28994000  1
  Li  Li5  1  0.01977300  0.47189100  0.28994000  1
  Li  Li6  1  0.51977300  0.52810900  0.21006000  1
  Li  Li7  1  0.48022700  0.97189100  0.21006000  1
  Mn  Mn0  1  0.00000000  0.00000000  0.00000000  1
  Mn  Mn1  1  0.00000000  0.50000000  0.00000000  1
  Mn  Mn2  1  0.00000000  0.25000000  0.83078800  1
  Mn  Mn3  1  0.50000000  0.75000000  0.66921200  1
  Mn  Mn4  1  0.50000000  0.50000000  0.50000000  1
  Mn  Mn5  1  0.50000000  0.00000000  0.50000000  1
  Mn  Mn6  1  0.50000000  0.25000000  0.33078800  1
  Mn  Mn7  1  0.00000000  0.75000000  0.16921200  1
  P  P0  1  0.28281300  0.74968200  0.92256300  1
  P  P1  1  0.71718700  0.75031800  0.92256300  1
  P  P2  1  0.21718700  0.24968200  0.57743700  1
  P  P3  1  0.78281300  0.25031800  0.57743700  1
  P  P4  1  0.21718700  0.74968200  0.42256300  1
  P  P5  1  0.78281300  0.75031800  0.42256300  1
  P  P6  1  0.28281300  0.24968200  0.07743700  1
  P  P7  1  0.71718700  0.25031800  0.07743700  1
  O  O0  1  0.16639700  0.32521000  0.98335800  1
  O  O1  1  0.83360300  0.17479000  0.98335800  1
  O  O2  1  0.50000000  0.75000000  0.98435500  1
  O  O3  1  0.22436100  0.60951900  0.90817400  1
  O  O4  1  0.77563900  0.89048100  0.90817400  1
  O  O5  1  0.29670100  0.82047300  0.80292800  1
  O  O6  1  0.70329900  0.67952700  0.80292800  1
  O  O7  1  0.20329900  0.32047300  0.69707200  1
  O  O8  1  0.79670100  0.17952700  0.69707200  1
  O  O9  1  0.27563900  0.10951900  0.59182600  1
  O  O10  1  0.72436100  0.39048100  0.59182600  1
  O  O11  1  0.00000000  0.25000000  0.51564500  1
  O  O12  1  0.66639700  0.67479000  0.51664200  1
  O  O13  1  0.33360300  0.82521000  0.51664200  1
  O  O14  1  0.33360300  0.32521000  0.48335800  1
  O  O15  1  0.66639700  0.17479000  0.48335800  1
  O  O16  1  0.00000000  0.75000000  0.48435500  1
  O  O17  1  0.27563900  0.60951900  0.40817400  1
  O  O18  1  0.72436100  0.89048100  0.40817400  1
  O  O19  1  0.79670100  0.67952700  0.30292800  1
  O  O20  1  0.20329900  0.82047300  0.30292800  1
  O  O21  1  0.29670100  0.32047300  0.19707200  1
  O  O22  1  0.70329900  0.17952700  0.19707200  1
  O  O23  1  0.22436100  0.10951900  0.09182600  1
  O  O24  1  0.77563900  0.39048100  0.09182600  1
  O  O25  1  0.50000000  0.25000000  0.01564500  1
  O  O26  1  0.16639700  0.82521000  0.01664200  1
  O  O27  1  0.83360300  0.67479000  0.01664200  1
  F  F0  1  0.12810600  0.06377700  0.83402400  1
  F  F1  1  0.87189400  0.43622300  0.83402400  1
  F  F2  1  0.37189400  0.56377700  0.66597600  1
  F  F3  1  0.62810600  0.93622300  0.66597600  1
  F  F4  1  0.37189400  0.06377700  0.33402400  1
  F  F5  1  0.62810600  0.43622300  0.33402400  1
  F  F6  1  0.12810600  0.56377700  0.16597600  1
  F  F7  1  0.87189400  0.93622300  0.16597600  1
loop_
_geom_bond_atom_site_label_1
_geom_bond_atom_site_label_2
_geom_bond_distance
_geom_bond_site_symmetry_2
Mn0 O26 2.161269 1_545
Mn0 O1 2.161269 1_454
Mn0 O23 2.168081 1_555
Mn0 O4 2.168081 1_444
Mn1 O0 2.161269 1_554
Mn1 O27 2.161269 1_455
Mn1 O3 2.168081 1_554
Mn1 O24 2.168081 1_455
Mn2 O7 2.170435 1_555
Mn2 O8 2.170435 1_455
Mn2 O0 2.201110 1_555
Mn2 O1 2.201110 1_455
Mn3 O5 2.170435 1_555
Mn3 O6 2.170435 1_555
Mn3 O12 2.201110 1_555
Mn3 O13 2.201110 1_555
Mn4 O12 2.161269 1_555
Mn4 O14 2.161269 1_555
Mn4 O17 2.168081 1_555
Mn4 O10 2.168081 1_555
Mn5 O13 2.161269 1_545
Mn5 O15 2.161269 1_555
Mn5 O18 2.168081 1_545
Mn5 O9 2.168081 1_555
Mn6 O22 2.170435 1_555
Mn6 O21 2.170435 1_555
Mn6 O15 2.201110 1_555
Mn6 O14 2.201110 1_555
Mn7 O20 2.170435 1_555
Mn7 O19 2.170435 1_455
Mn7 O26 2.201110 1_555
Mn7 O27 2.201110 1_455
O0 P6 1.540272 1_556
O1 P7 1.540272 1_556
O2 P1 1.627626 1_555
O2 P0 1.627626 1_555
O3 P0 1.531974 1_555
O4 P1 1.531974 1_555
O5 P0 1.541193 1_555
O6 P1 1.541193 1_555
O7 P2 1.541193 1_555
O8 P3 1.541193 1_555
O9 P2 1.531974 1_555
O10 P3 1.531974 1_555
O11 P2 1.627626 1_555
O11 P3 1.627626 1_455
O12 P5 1.540272 1_555
O13 P4 1.540272 1_555
O14 P2 1.540272 1_555
O15 P3 1.540272 1_555
O16 P4 1.627626 1_555
O16 P5 1.627626 1_455
O17 P4 1.531974 1_555
O18 P5 1.531974 1_555
O19 P5 1.541193 1_555
O20 P4 1.541193 1_555
O21 P6 1.541193 1_555
O22 P7 1.541193 1_555
O23 P6 1.531974 1_555
O24 P7 1.531974 1_555
O25 P7 1.627626 1_555
O25 P6 1.627626 1_555
O26 P0 1.540272 1_554
O27 P1 1.540272 1_554
F0 Li3 1.848451 1_545
F0 Mn2 2.138765 1_555
F0 Mn0 2.166480 1_556
F1 Li2 1.848451 1_555
F1 Mn2 2.138765 1_655
F1 Mn1 2.166480 1_656
F2 Li1 1.848451 1_555
F2 Mn3 2.138765 1_555
F2 Mn4 2.166480 1_555
F3 Li0 1.848451 1_565
F3 Mn3 2.138765 1_555
F3 Mn5 2.166480 1_565
F4 Li7 1.848451 1_545
F4 Mn6 2.138765 1_555
F4 Mn5 2.166480 1_555
F5 Li6 1.848451 1_555
F5 Mn6 2.138765 1_555
F5 Mn4 2.166480 1_555
F6 Li5 1.848451 1_555
F6 Mn7 2.138765 1_555
F6 Mn1 2.166480 1_555
F7 Li4 1.848451 1_565
F7 Mn7 2.138765 1_655
F7 Mn0 2.166480 1_665
