# generated using pymatgen
data_Li3Ti2(CoO4)2
_symmetry_space_group_name_H-M   'P 1'
_cell_length_a   5.90950900
_cell_length_b   5.91224766
_cell_length_c   5.91712995
_cell_angle_alpha   118.85694685
_cell_angle_beta   119.18877481
_cell_angle_gamma   90.70900428
_symmetry_Int_Tables_number   1
_chemical_formula_structural   Li3Ti2(CoO4)2
_chemical_formula_sum   'Li3 Ti2 Co2 O8'
_cell_volume   149.54502231
_cell_formula_units_Z   1
loop_
 _symmetry_equiv_pos_site_id
 _symmetry_equiv_pos_as_xyz
  1  'x, y, z'
loop_
 _atom_site_type_symbol
 _atom_site_label
 _atom_site_symmetry_multiplicity
 _atom_site_fract_x
 _atom_site_fract_y
 _atom_site_fract_z
 _atom_site_occupancy
  Li  Li0  1  0.00000000  0.50000000  0.50000000  1
  Li  Li1  1  0.00000000  0.00000000  0.50000000  1
  Li  Li2  1  0.50000000  0.50000000  0.00000000  1
  Ti  Ti0  1  0.50000000  0.00000000  0.00000000  1
  Ti  Ti1  1  0.00000000  0.00000000  0.00000000  1
  Co  Co0  1  0.50000000  0.50000000  0.50000000  1
  Co  Co1  1  0.50000000  0.00000000  0.50000000  1
  O  O0  1  0.71025300  0.21338500  0.45985200  1
  O  O1  1  0.74733800  0.22553500  0.99877800  1
  O  O2  1  0.23483900  0.22971000  0.46325100  1
  O  O3  1  0.74441900  0.77825600  0.00115800  1
  O  O4  1  0.25558100  0.22174400  0.99884200  1
  O  O5  1  0.76516100  0.77029000  0.53674900  1
  O  O6  1  0.25266200  0.77446500  0.00122200  1
  O  O7  1  0.28974700  0.78661500  0.54014800  1
loop_
_geom_bond_atom_site_label_1
_geom_bond_atom_site_label_2
_geom_bond_distance
_geom_bond_site_symmetry_2
Li0 O5 2.130895 1_455
Li0 O2 2.130895 1_555
Li0 O1 2.152659 1_454
Li0 O6 2.152659 1_556
Li0 O7 2.236653 1_555
Li0 O0 2.236653 1_455
Li1 O2 2.085766 1_555
Li1 O5 2.085766 1_445
Li1 O7 2.127410 1_545
Li1 O0 2.127410 1_455
Li1 O4 2.140074 1_555
Li1 O3 2.140074 1_445
Li2 O4 2.171037 1_554
Li2 O3 2.171037 1_555
Li2 O1 2.197115 1_554
Li2 O6 2.197115 1_555
Li2 O2 2.298046 1_554
Li2 O5 2.298046 1_555
Co0 O5 2.080054 1_555
Co0 O2 2.080054 1_555
Co0 O7 2.103122 1_555
Co0 O0 2.103122 1_555
Co0 O4 2.154271 1_554
Co0 O3 2.154271 1_556
Co1 O7 1.931376 1_545
Co1 O0 1.931376 1_555
Co1 O2 2.086265 1_555
Co1 O5 2.086265 1_545
Co1 O6 2.137840 1_545
Co1 O1 2.137840 1_555
O0 Ti0 1.972153 1_555
O1 Ti0 1.971256 1_556
O1 Ti1 2.013822 1_656
O2 Ti1 1.983356 1_555
O3 Ti0 1.962382 1_565
O3 Ti1 1.992417 1_665
O4 Ti0 1.962382 1_556
O4 Ti1 1.992417 1_556
O5 Ti1 1.983356 1_666
O6 Ti0 1.971256 1_565
O6 Ti1 2.013822 1_565
O7 Ti0 1.972153 1_566
