# generated using pymatgen
data_Li3V3P8O29
_symmetry_space_group_name_H-M   'P 1'
_cell_length_a   9.77326866
_cell_length_b   9.77326866
_cell_length_c   13.89416506
_cell_angle_alpha   89.99537616
_cell_angle_beta   89.99537616
_cell_angle_gamma   59.88680230
_symmetry_Int_Tables_number   1
_chemical_formula_structural   Li3V3P8O29
_chemical_formula_sum   'Li6 V6 P16 O58'
_cell_volume   1148.01152267
_cell_formula_units_Z   2
loop_
 _symmetry_equiv_pos_site_id
 _symmetry_equiv_pos_as_xyz
  1  'x, y, z'
loop_
 _atom_site_type_symbol
 _atom_site_label
 _atom_site_symmetry_multiplicity
 _atom_site_fract_x
 _atom_site_fract_y
 _atom_site_fract_z
 _atom_site_occupancy
  Li  Li0  1  0.32198700  0.90987500  0.56060500  1
  Li  Li1  1  0.31638900  0.77519300  0.05737100  1
  Li  Li2  1  0.90987500  0.32198700  0.06060500  1
  Li  Li3  1  0.22441500  0.67837200  0.44204400  1
  Li  Li4  1  0.77519300  0.31638900  0.55737100  1
  Li  Li5  1  0.67837200  0.22441500  0.94204400  1
  V  V0  1  0.43440900  0.56649700  0.24859100  1
  V  V1  1  0.56649700  0.43440900  0.74859100  1
  V  V2  1  0.99737100  0.56892100  0.75020300  1
  V  V3  1  0.00614200  0.43362000  0.25456000  1
  V  V4  1  0.56892100  0.99737100  0.25020300  1
  V  V5  1  0.43362000  0.00614200  0.75456000  1
  P  P0  1  0.77305800  0.91421300  0.84294200  1
  P  P1  1  0.91421300  0.77305800  0.34294200  1
  P  P2  1  0.31586200  0.91410500  0.34405300  1
  P  P3  1  0.66858000  0.66534000  0.12726800  1
  P  P4  1  0.66534000  0.66858000  0.62726800  1
  P  P5  1  0.31658600  0.77254300  0.84225300  1
  P  P6  1  0.22672800  0.68362900  0.65936400  1
  P  P7  1  0.91410500  0.31586200  0.84405300  1
  P  P8  1  0.08247600  0.68749800  0.15408300  1
  P  P9  1  0.77254300  0.31658600  0.34225300  1
  P  P10  1  0.68362900  0.22672800  0.15936400  1
  P  P11  1  0.33706100  0.33213800  0.37325400  1
  P  P12  1  0.33213800  0.33706100  0.87325400  1
  P  P13  1  0.68749800  0.08247600  0.65408300  1
  P  P14  1  0.08605700  0.22972600  0.65760300  1
  P  P15  1  0.22972600  0.08605700  0.15760300  1
  O  O0  1  0.76433000  0.00010100  0.56445800  1
  O  O1  1  0.74355800  0.91389300  0.33583600  1
  O  O2  1  0.00010100  0.76433000  0.06445800  1
  O  O3  1  0.91389300  0.74355800  0.83583600  1
  O  O4  1  0.61792300  0.90621500  0.82418800  1
  O  O5  1  0.66560500  0.81375100  0.17363100  1
  O  O6  1  0.47696300  0.90479200  0.32359000  1
  O  O7  1  0.23899400  0.99364800  0.07092000  1
  O  O8  1  0.34316300  0.91486000  0.83356900  1
  O  O9  1  0.81375100  0.66560500  0.67363100  1
  O  O10  1  0.90621500  0.61792300  0.32418800  1
  O  O11  1  0.51338300  0.81649400  0.66787100  1
  O  O12  1  0.65913600  0.66582200  0.02046700  1
  O  O13  1  0.66582200  0.65913600  0.52046700  1
  O  O14  1  0.51259500  0.66931400  0.17016400  1
  O  O15  1  0.90479200  0.47696300  0.82359000  1
  O  O16  1  0.81649400  0.51338300  0.16787100  1
  O  O17  1  0.33896100  0.74353900  0.33845400  1
  O  O18  1  0.20547400  0.79437100  0.75038100  1
  O  O19  1  0.24392900  0.75629700  0.56862300  1
  O  O20  1  0.24712100  0.75887500  0.93372900  1
  O  O21  1  0.47718900  0.61759500  0.82068300  1
  O  O22  1  0.66931400  0.51259500  0.67016400  1
  O  O23  1  0.25582700  0.65952700  0.16217800  1
  O  O24  1  0.61759500  0.47718900  0.32068300  1
  O  O25  1  0.91486000  0.34316300  0.33356900  1
  O  O26  1  0.00062500  0.79292900  0.24955800  1
  O  O27  1  0.00490300  0.75936700  0.43110000  1
  O  O28  1  0.99364800  0.23899400  0.57092000  1
  O  O29  1  0.08400200  0.65880700  0.66324400  1
  O  O30  1  0.38123600  0.52214400  0.67755200  1
  O  O31  1  0.74353900  0.33896100  0.83845400  1
  O  O32  1  0.33157500  0.48655400  0.33089500  1
  O  O33  1  0.52214400  0.38123600  0.17755200  1
  O  O34  1  0.75629700  0.24392900  0.06862300  1
  O  O35  1  0.75887500  0.24712100  0.43372900  1
  O  O36  1  0.79437100  0.20547400  0.25038100  1
  O  O37  1  0.65952700  0.25582700  0.66217800  1
  O  O38  1  0.18470100  0.48131500  0.82695900  1
  O  O39  1  0.09256900  0.52512500  0.17755500  1
  O  O40  1  0.48655400  0.33157500  0.83089500  1
  O  O41  1  0.33897200  0.33070700  0.97976300  1
  O  O42  1  0.33070700  0.33897200  0.47976300  1
  O  O43  1  0.48131500  0.18470100  0.32695900  1
  O  O44  1  0.09348600  0.38277600  0.67675100  1
  O  O45  1  0.18600700  0.33344300  0.32765400  1
  O  O46  1  0.65880700  0.08400200  0.16324400  1
  O  O47  1  0.79292900  0.00062500  0.74955800  1
  O  O48  1  0.75936700  0.00490300  0.93110000  1
  O  O49  1  0.52512500  0.09256900  0.67755500  1
  O  O50  1  0.33344300  0.18600700  0.82765400  1
  O  O51  1  0.38277600  0.09348600  0.17675100  1
  O  O52  1  0.08397900  0.25578200  0.16021900  1
  O  O53  1  0.99245600  0.24495500  0.93661700  1
  O  O54  1  0.00423400  0.20514500  0.75350100  1
  O  O55  1  0.25578200  0.08397900  0.66021900  1
  O  O56  1  0.24495500  0.99245600  0.43661700  1
  O  O57  1  0.20514500  0.00423400  0.25350100  1
loop_
_geom_bond_atom_site_label_1
_geom_bond_atom_site_label_2
_geom_bond_distance
_geom_bond_site_symmetry_2
Li0 O56 1.891083 1_555
Li0 O19 1.999052 1_555
Li0 O55 2.031029 1_565
Li0 O11 2.200084 1_555
Li1 O20 1.882414 1_554
Li1 O7 1.882944 1_555
Li1 O23 2.102314 1_555
Li1 O14 2.283207 1_555
Li2 O53 1.891083 1_554
Li2 O34 1.999052 1_555
Li2 O52 2.031029 1_655
Li2 O16 2.200084 1_555
Li3 O27 1.883680 1_555
Li3 O19 1.963530 1_555
Li3 O17 2.108433 1_555
Li3 O32 2.241954 1_555
Li4 O35 1.882414 1_555
Li4 O28 1.882944 1_555
Li4 O37 2.102314 1_555
Li4 O22 2.283207 1_555
Li5 O48 1.883680 1_555
Li5 O34 1.963530 1_556
Li5 O31 2.108433 1_555
Li5 O40 2.241954 1_555
O0 P13 1.468363 1_555
O1 P1 1.543537 1_555
O1 V4 1.896641 1_555
O2 P8 1.468363 1_555
O3 P0 1.543537 1_555
O3 V2 1.896641 1_555
O4 P0 1.578539 1_555
O4 V5 1.835525 1_565
O5 P3 1.573999 1_555
O5 V4 1.882515 1_555
O6 P2 1.557001 1_555
O6 V4 1.865937 1_555
O7 P15 1.480705 1_565
O8 P5 1.542438 1_555
O8 V5 1.890399 1_565
O9 P4 1.573999 1_555
O9 V2 1.882515 1_555
O10 P1 1.578539 1_555
O10 V3 1.835525 1_655
O11 P4 1.568236 1_555
O11 V5 2.011027 1_565
O12 P3 1.486646 1_555
O13 P4 1.486646 1_555
O14 P3 1.619019 1_555
O14 V0 1.884462 1_555
O15 P7 1.557001 1_555
O15 V2 1.865937 1_555
O16 P3 1.568236 1_555
O16 V3 2.011027 1_655
O17 P2 1.567886 1_555
O17 V0 1.950270 1_555
O18 P6 1.608839 1_555
O18 P5 1.619224 1_555
O19 P6 1.497269 1_555
O20 P5 1.478167 1_555
O21 P5 1.568976 1_555
O21 V1 1.844606 1_555
O22 P4 1.619019 1_555
O22 V1 1.884462 1_555
O23 P8 1.578928 1_555
O23 V0 1.929308 1_555
O24 P9 1.568976 1_555
O24 V0 1.844606 1_555
O25 P9 1.542438 1_555
O25 V3 1.890399 1_655
O26 P1 1.612075 1_455
O26 P8 1.623064 1_555
O27 P1 1.478168 1_455
O28 P14 1.480705 1_655
O29 P6 1.532004 1_555
O29 V2 1.922073 1_455
O30 P6 1.563192 1_555
O30 V1 1.852046 1_555
O31 P7 1.567886 1_555
O31 V1 1.950270 1_555
O32 P11 1.595449 1_555
O32 V0 1.927639 1_555
O33 P10 1.563192 1_555
O33 V0 1.852046 1_555
O34 P10 1.497269 1_555
O35 P9 1.478167 1_555
O36 P10 1.608839 1_555
O36 P9 1.619224 1_555
O37 P13 1.578928 1_555
O37 V1 1.929308 1_555
O38 P12 1.561812 1_555
O38 V2 1.910391 1_455
O39 P8 1.573924 1_555
O39 V3 1.848150 1_555
O40 P12 1.595449 1_555
O40 V1 1.927639 1_555
O41 P12 1.481257 1_555
O42 P11 1.481257 1_555
O43 P11 1.561812 1_555
O43 V4 1.910391 1_545
O44 P14 1.556441 1_555
O44 V2 1.875888 1_455
O45 P11 1.600710 1_555
O45 V3 1.831187 1_555
O46 P10 1.532004 1_555
O46 V4 1.922073 1_545
O47 P0 1.612075 1_545
O47 P13 1.623064 1_555
O48 P0 1.478168 1_545
O49 P13 1.573924 1_555
O49 V5 1.848150 1_555
O50 P12 1.600710 1_555
O50 V5 1.831187 1_555
O51 P15 1.556441 1_555
O51 V4 1.875888 1_545
O52 P15 1.552723 1_555
O52 V3 1.997804 1_555
O53 P7 1.479257 1_555
O54 P7 1.604163 1_455
O54 P14 1.632512 1_555
O55 P14 1.552723 1_555
O55 V5 1.997804 1_555
O56 P2 1.479257 1_555
O57 P2 1.604163 1_545
O57 P15 1.632512 1_555
