# generated using pymatgen
data_Li10Ge(PSe6)2
_symmetry_space_group_name_H-M   'P 1'
_cell_length_a   9.05284800
_cell_length_b   9.39981311
_cell_length_c   13.69120402
_cell_angle_alpha   91.92888743
_cell_angle_beta   90.68956449
_cell_angle_gamma   90.31837136
_symmetry_Int_Tables_number   1
_chemical_formula_structural   Li10Ge(PSe6)2
_chemical_formula_sum   'Li20 Ge2 P4 Se24'
_cell_volume   1164.28889635
_cell_formula_units_Z   2
loop_
 _symmetry_equiv_pos_site_id
 _symmetry_equiv_pos_as_xyz
  1  'x, y, z'
loop_
 _atom_site_type_symbol
 _atom_site_label
 _atom_site_symmetry_multiplicity
 _atom_site_fract_x
 _atom_site_fract_y
 _atom_site_fract_z
 _atom_site_occupancy
  Li  Li0  1  0.98874600  0.51612000  0.95420300  1
  Li  Li1  1  0.96555700  0.51691500  0.42577500  1
  Li  Li2  1  0.50918600  0.96592700  0.54687600  1
  Li  Li3  1  0.49677500  0.99350400  0.04942900  1
  Li  Li4  1  0.25724300  0.29125900  0.15819800  1
  Li  Li5  1  0.74474700  0.74727300  0.28185400  1
  Li  Li6  1  0.21753500  0.81768000  0.75504800  1
  Li  Li7  1  0.23119300  0.75656000  0.25168700  1
  Li  Li8  1  0.75323500  0.21881200  0.35035800  1
  Li  Li9  1  0.46226500  0.51517800  0.75154400  1
  Li  Li10  1  0.23036100  0.22645100  0.36468500  1
  Li  Li11  1  0.73313600  0.25740600  0.85700600  1
  Li  Li12  1  0.24779000  0.75971500  0.00658000  1
  Li  Li13  1  0.74156600  0.26436000  0.13249700  1
  Li  Li14  1  0.76371700  0.72581400  0.68969700  1
  Li  Li15  1  0.22345400  0.26153900  0.91982200  1
  Li  Li16  1  0.74558500  0.75929700  0.00904000  1
  Li  Li17  1  0.24190200  0.72128600  0.48414700  1
  Li  Li18  1  0.78440600  0.21414800  0.62534400  1
  Li  Li19  1  0.24107000  0.21153800  0.64948000  1
  Ge  Ge0  1  0.99675400  0.48714200  0.18299500  1
  Ge  Ge1  1  0.50887600  0.99178700  0.81644200  1
  P  P0  1  0.99268200  0.96560100  0.50158200  1
  P  P1  1  0.49246000  0.51510400  0.99293700  1
  P  P2  1  0.00911100  0.48198700  0.68428000  1
  P  P3  1  0.48791200  0.00980200  0.31069500  1
  Se  Se0  1  0.98840700  0.18310600  0.44358000  1
  Se  Se1  1  0.00539100  0.79028400  0.38618200  1
  Se  Se2  1  0.28935000  0.53390200  0.89817900  1
  Se  Se3  1  0.68951000  0.53398600  0.89616900  1
  Se  Se4  1  0.49662300  0.69855900  0.10137200  1
  Se  Se5  1  0.48554000  0.30481000  0.06076900  1
  Se  Se6  1  0.20241200  0.94543600  0.59039600  1
  Se  Se7  1  0.79590700  0.94573600  0.59333400  1
  Se  Se8  1  0.00548500  0.29133500  0.06462700  1
  Se  Se9  1  0.00038700  0.71203100  0.10416600  1
  Se  Se10  1  0.21850700  0.48531900  0.59886800  1
  Se  Se11  1  0.80921100  0.49140800  0.58696100  1
  Se  Se12  1  0.48688700  0.79538100  0.37607400  1
  Se  Se13  1  0.49614300  0.18389400  0.42590000  1
  Se  Se14  1  0.28068200  0.99007800  0.90618100  1
  Se  Se15  1  0.71907000  0.99956900  0.92212600  1
  Se  Se16  1  0.99155500  0.66618100  0.79134400  1
  Se  Se17  1  0.00350700  0.27524500  0.76104600  1
  Se  Se18  1  0.77540200  0.46662400  0.27347100  1
  Se  Se19  1  0.20419900  0.47976300  0.29292900  1
  Se  Se20  1  0.51733700  0.20350300  0.72109200  1
  Se  Se21  1  0.49104800  0.79348800  0.70055200  1
  Se  Se22  1  0.69114800  0.01417500  0.21908400  1
  Se  Se23  1  0.28643100  0.03108400  0.21660300  1
loop_
_geom_bond_atom_site_label_1
_geom_bond_atom_site_label_2
_geom_bond_distance
_geom_bond_site_symmetry_2
Li0 Se8 2.643143 1_656
Li0 Se16 2.678563 1_555
Li0 Se9 2.712187 1_656
Li0 Se3 2.821364 1_555
Li0 Se2 2.841777 1_655
Li1 Se11 2.652905 1_555
Li1 Se1 2.667395 1_655
Li1 Se18 2.715364 1_555
Li1 Se19 2.856144 1_655
Li1 Se0 3.163089 1_555
Li2 Se7 2.674288 1_555
Li2 Se13 2.679833 1_565
Li2 Se21 2.704821 1_555
Li2 Se12 2.794973 1_555
Li2 Se6 2.854200 1_555
Li3 Se15 2.679676 1_554
Li3 Se14 2.752659 1_554
Li3 Se4 2.885276 1_555
Li3 Se22 2.897723 1_565
Li3 Se5 2.927509 1_565
Li3 Se23 3.007894 1_565
Li4 Se5 2.478274 1_555
Li4 Se19 2.565859 1_555
Li4 Se8 2.601045 1_555
Li4 Se23 2.612263 1_555
Li5 Se18 2.652924 1_555
Li5 Se12 2.713442 1_555
Li5 Se22 2.723392 1_565
Li5 Se1 2.764179 1_655
Li6 Se16 2.549466 1_455
Li6 Se6 2.592161 1_555
Li6 Se21 2.603581 1_555
Li6 Se14 2.640059 1_555
Li7 Se23 2.685986 1_565
Li7 Se19 2.691334 1_555
Li7 Se1 2.779982 1_555
Li7 Se12 2.871480 1_555
Li7 Se9 2.907258 1_555
Li8 Se0 2.499112 1_555
Li8 Se13 2.581974 1_555
Li8 Se18 2.596035 1_555
Li8 Se22 2.641435 1_555
Li9 Se2 2.562574 1_555
Li9 Se21 2.742049 1_555
Li9 Se3 2.838748 1_555
Li9 Se20 2.990729 1_555
Li9 Se10 3.026606 1_555
Li10 Se0 2.491416 1_455
Li10 Se13 2.576124 1_555
Li10 Se19 2.617052 1_555
Li10 Se23 2.743172 1_555
Li11 Se15 2.613391 1_545
Li11 Se3 2.669289 1_555
Li11 Se20 2.715504 1_555
Li11 Se17 2.798707 1_655
Li12 Se2 2.580679 1_554
Li12 Se14 2.621073 1_554
Li12 Se4 2.661475 1_555
Li12 Se9 2.665226 1_555
Li13 Se5 2.541880 1_555
Li13 Se8 2.588180 1_655
Li13 Se18 2.676961 1_555
Li13 Se22 2.707936 1_555
Li14 Se7 2.507014 1_555
Li14 Se16 2.549798 1_555
Li14 Se21 2.557305 1_555
Li14 Se11 2.611194 1_555
Li15 Se14 2.607548 1_545
Li15 Se2 2.652631 1_555
Li15 Se8 2.822334 1_556
Li15 Se17 2.936723 1_555
Li15 Se5 3.056942 1_556
Li16 Se15 2.598954 1_554
Li16 Se3 2.622983 1_554
Li16 Se4 2.665810 1_555
Li16 Se9 2.681872 1_655
Li17 Se6 2.549071 1_555
Li17 Se1 2.609365 1_555
Li17 Se10 2.769277 1_555
Li17 Se12 2.779268 1_555
Li18 Se7 2.549144 1_545
Li18 Se11 2.684652 1_555
Li18 Se17 2.746404 1_655
Li18 Se20 2.767012 1_555
Li18 Se0 3.123535 1_555
Li19 Se6 2.623097 1_545
Li19 Se20 2.677699 1_555
Li19 Se10 2.695778 1_555
Li19 Se17 2.710859 1_555
Ge0 Se18 2.378792 1_555
Ge0 Se19 2.395293 1_655
Ge0 Se9 2.405866 1_655
Ge0 Se8 2.413321 1_655
Ge1 Se15 2.375900 1_555
Ge1 Se21 2.410265 1_555
Ge1 Se14 2.416486 1_555
Ge1 Se20 2.417881 1_565
P0 Se7 2.202758 1_555
P0 Se0 2.218459 1_565
P0 Se1 2.248658 1_655
P0 Se6 2.254627 1_655
P1 Se5 2.213020 1_556
P1 Se4 2.237133 1_556
P1 Se3 2.244582 1_555
P1 Se2 2.248749 1_555
P2 Se16 2.238182 1_455
P2 Se11 2.238245 1_455
P2 Se10 2.239874 1_555
P2 Se17 2.240860 1_555
P3 Se12 2.232728 1_545
P3 Se23 2.234122 1_555
P3 Se13 2.234588 1_555
P3 Se22 2.240122 1_555
