# generated using pymatgen
data_LiFe(Si2O5)2
_symmetry_space_group_name_H-M   'P 1'
_cell_length_a   7.40529000
_cell_length_b   7.40529000
_cell_length_c   14.77679100
_cell_angle_alpha   90.00000000
_cell_angle_beta   90.00000000
_cell_angle_gamma   90.00000000
_symmetry_Int_Tables_number   1
_chemical_formula_structural   LiFe(Si2O5)2
_chemical_formula_sum   'Li4 Fe4 Si16 O40'
_cell_volume   810.33439320
_cell_formula_units_Z   4
loop_
 _symmetry_equiv_pos_site_id
 _symmetry_equiv_pos_as_xyz
  1  'x, y, z'
loop_
 _atom_site_type_symbol
 _atom_site_label
 _atom_site_symmetry_multiplicity
 _atom_site_fract_x
 _atom_site_fract_y
 _atom_site_fract_z
 _atom_site_occupancy
  Li  Li0  1  0.50000000  0.00000000  0.05875000  1
  Li  Li1  1  0.50000000  0.00000000  0.55875000  1
  Li  Li2  1  0.00000000  0.50000000  0.44125000  1
  Li  Li3  1  0.00000000  0.50000000  0.94125000  1
  Fe  Fe0  1  0.50000000  0.50000000  0.00000000  1
  Fe  Fe1  1  0.50000000  0.50000000  0.50000000  1
  Fe  Fe2  1  0.00000000  0.00000000  0.50000000  1
  Fe  Fe3  1  0.00000000  0.00000000  0.00000000  1
  Si  Si0  1  0.23516100  0.85325000  0.35510400  1
  Si  Si1  1  0.23516100  0.14675000  0.85510400  1
  Si  Si2  1  0.35325000  0.73516100  0.85510400  1
  Si  Si3  1  0.35325000  0.26483900  0.35510400  1
  Si  Si4  1  0.64675000  0.26483900  0.85510400  1
  Si  Si5  1  0.64675000  0.73516100  0.35510400  1
  Si  Si6  1  0.76483900  0.85325000  0.85510400  1
  Si  Si7  1  0.76483900  0.14675000  0.35510400  1
  Si  Si8  1  0.73516100  0.64675000  0.14489600  1
  Si  Si9  1  0.73516100  0.35325000  0.64489600  1
  Si  Si10  1  0.85325000  0.23516100  0.14489600  1
  Si  Si11  1  0.85325000  0.76483900  0.64489600  1
  Si  Si12  1  0.14675000  0.76483900  0.14489600  1
  Si  Si13  1  0.14675000  0.23516100  0.64489600  1
  Si  Si14  1  0.26483900  0.64675000  0.64489600  1
  Si  Si15  1  0.26483900  0.35325000  0.14489600  1
  O  O0  1  0.24187600  0.56975600  0.12719500  1
  O  O1  1  0.24187600  0.43024400  0.62719500  1
  O  O2  1  0.20875400  0.91688100  0.07221700  1
  O  O3  1  0.20875400  0.08311900  0.57221700  1
  O  O4  1  0.31945000  0.31945000  0.25000000  1
  O  O5  1  0.31945000  0.68055000  0.75000000  1
  O  O6  1  0.41688100  0.70875400  0.57221700  1
  O  O7  1  0.41688100  0.29124600  0.07221700  1
  O  O8  1  0.43024400  0.75812400  0.37280500  1
  O  O9  1  0.43024400  0.24187600  0.87280500  1
  O  O10  1  0.56975600  0.24187600  0.37280500  1
  O  O11  1  0.56975600  0.75812400  0.87280500  1
  O  O12  1  0.58311900  0.29124600  0.57221700  1
  O  O13  1  0.58311900  0.70875400  0.07221700  1
  O  O14  1  0.68055000  0.68055000  0.25000000  1
  O  O15  1  0.68055000  0.31945000  0.75000000  1
  O  O16  1  0.79124600  0.08311900  0.07221700  1
  O  O17  1  0.79124600  0.91688100  0.57221700  1
  O  O18  1  0.75812400  0.43024400  0.12719500  1
  O  O19  1  0.75812400  0.56975600  0.62719500  1
  O  O20  1  0.74187600  0.06975600  0.87280500  1
  O  O21  1  0.74187600  0.93024400  0.37280500  1
  O  O22  1  0.70875400  0.58311900  0.42778300  1
  O  O23  1  0.70875400  0.41688100  0.92778300  1
  O  O24  1  0.81945000  0.81945000  0.75000000  1
  O  O25  1  0.81945000  0.18055000  0.25000000  1
  O  O26  1  0.91688100  0.79124600  0.92778300  1
  O  O27  1  0.91688100  0.20875400  0.42778300  1
  O  O28  1  0.93024400  0.74187600  0.12719500  1
  O  O29  1  0.93024400  0.25812400  0.62719500  1
  O  O30  1  0.06975600  0.25812400  0.12719500  1
  O  O31  1  0.06975600  0.74187600  0.62719500  1
  O  O32  1  0.08311900  0.79124600  0.42778300  1
  O  O33  1  0.08311900  0.20875400  0.92778300  1
  O  O34  1  0.18055000  0.81945000  0.25000000  1
  O  O35  1  0.18055000  0.18055000  0.75000000  1
  O  O36  1  0.29124600  0.41688100  0.42778300  1
  O  O37  1  0.29124600  0.58311900  0.92778300  1
  O  O38  1  0.25812400  0.06975600  0.37280500  1
  O  O39  1  0.25812400  0.93024400  0.87280500  1
loop_
_geom_bond_atom_site_label_1
_geom_bond_atom_site_label_2
_geom_bond_distance
_geom_bond_site_symmetry_2
Li0 O2 2.251685 1_545
Li0 O7 2.251685 1_555
Li0 O13 2.251685 1_545
Li0 O16 2.251685 1_555
Li1 O3 2.251685 1_555
Li1 O17 2.251685 1_545
Li1 O6 2.251685 1_545
Li1 O12 2.251685 1_555
Li2 O27 2.251685 1_455
Li2 O36 2.251685 1_555
Li2 O32 2.251685 1_555
Li2 O22 2.251685 1_455
Li3 O23 2.251685 1_455
Li3 O33 2.251685 1_555
Li3 O26 2.251685 1_455
Li3 O37 2.251685 1_555
Fe0 O23 1.976715 1_554
Fe0 O37 1.976715 1_554
Fe0 O7 1.976715 1_555
Fe0 O13 1.976715 1_555
Fe1 O22 1.976715 1_555
Fe1 O36 1.976715 1_555
Fe1 O12 1.976715 1_555
Fe1 O6 1.976715 1_555
Fe2 O27 1.976715 1_455
Fe2 O32 1.976715 1_545
Fe2 O3 1.976715 1_555
Fe2 O17 1.976715 1_445
Fe3 O26 1.976715 1_444
Fe3 O33 1.976715 1_554
Fe3 O2 1.976715 1_545
Fe3 O16 1.976715 1_455
O0 Si12 1.628388 1_555
O0 Si15 1.633362 1_555
O1 Si13 1.628388 1_555
O1 Si14 1.633362 1_555
O2 Si12 1.622315 1_555
O3 Si13 1.622315 1_555
O4 Si3 1.624289 1_555
O4 Si15 1.624289 1_555
O5 Si2 1.624289 1_555
O5 Si14 1.624289 1_555
O6 Si14 1.622315 1_555
O7 Si15 1.622315 1_555
O8 Si0 1.628388 1_555
O8 Si5 1.633362 1_555
O9 Si1 1.628388 1_555
O9 Si4 1.633362 1_555
O10 Si7 1.628388 1_555
O10 Si3 1.633362 1_555
O11 Si6 1.628388 1_555
O11 Si2 1.633362 1_555
O12 Si9 1.622315 1_555
O13 Si8 1.622315 1_555
O14 Si5 1.624289 1_555
O14 Si8 1.624289 1_555
O15 Si9 1.624289 1_555
O15 Si4 1.624289 1_555
O16 Si10 1.622315 1_555
O17 Si11 1.622315 1_555
O18 Si10 1.628388 1_555
O18 Si8 1.633362 1_555
O19 Si11 1.628388 1_555
O19 Si9 1.633362 1_555
O20 Si4 1.628388 1_555
O20 Si6 1.633362 1_545
O21 Si5 1.628388 1_555
O21 Si7 1.633362 1_565
O22 Si5 1.622315 1_555
O23 Si4 1.622315 1_555
O24 Si6 1.624289 1_555
O24 Si11 1.624289 1_555
O25 Si7 1.624289 1_555
O25 Si10 1.624289 1_555
O26 Si6 1.622315 1_555
O27 Si7 1.622315 1_555
O28 Si8 1.628388 1_555
O28 Si12 1.633362 1_655
O29 Si9 1.628388 1_555
O29 Si13 1.633362 1_655
O30 Si15 1.628388 1_555
O30 Si10 1.633362 1_455
O31 Si14 1.628388 1_555
O31 Si11 1.633362 1_455
O32 Si0 1.622315 1_555
O33 Si1 1.622315 1_555
O34 Si0 1.624289 1_555
O34 Si12 1.624289 1_555
O35 Si1 1.624289 1_555
O35 Si13 1.624289 1_555
O36 Si3 1.622315 1_555
O37 Si2 1.622315 1_555
O38 Si3 1.628388 1_555
O38 Si0 1.633362 1_545
O39 Si2 1.628388 1_555
O39 Si1 1.633362 1_565
