# generated using pymatgen
data_Ba3Y2Cl12
_symmetry_space_group_name_H-M   'P 1'
_cell_length_a   12.38327500
_cell_length_b   12.90062100
_cell_length_c   18.34874024
_cell_angle_alpha   45.73744330
_cell_angle_beta   90.00000000
_cell_angle_gamma   90.00000000
_symmetry_Int_Tables_number   1
_chemical_formula_structural   Ba3Y2Cl12
_chemical_formula_sum   'Ba12 Y8 Cl48'
_cell_volume   2099.20947177
_cell_formula_units_Z   4
loop_
 _symmetry_equiv_pos_site_id
 _symmetry_equiv_pos_as_xyz
  1  'x, y, z'
loop_
 _atom_site_type_symbol
 _atom_site_label
 _atom_site_symmetry_multiplicity
 _atom_site_fract_x
 _atom_site_fract_y
 _atom_site_fract_z
 _atom_site_occupancy
  Ba  Ba0  1  0.21731300  0.22517000  0.79896500  1
  Ba  Ba1  1  0.61123700  0.32254100  0.69037400  1
  Ba  Ba2  1  0.99171800  0.67455600  0.51855600  1
  Ba  Ba3  1  0.49171800  0.32544400  0.98144400  1
  Ba  Ba4  1  0.11123700  0.67745900  0.80962600  1
  Ba  Ba5  1  0.71731300  0.77483000  0.70103500  1
  Ba  Ba6  1  0.28268700  0.22517000  0.29896500  1
  Ba  Ba7  1  0.88876300  0.32254100  0.19037400  1
  Ba  Ba8  1  0.50828200  0.67455600  0.01855600  1
  Ba  Ba9  1  0.00828200  0.32544400  0.48144400  1
  Ba  Ba10  1  0.38876300  0.67745900  0.30962600  1
  Ba  Ba11  1  0.78268700  0.77483000  0.20103500  1
  Y  Y0  1  0.85292800  0.26651000  0.92540800  1
  Y  Y1  1  0.16519100  0.04319400  0.14756500  1
  Y  Y2  1  0.35292800  0.73349000  0.57459200  1
  Y  Y3  1  0.66519100  0.95680600  0.35243500  1
  Y  Y4  1  0.33480900  0.04319400  0.64756500  1
  Y  Y5  1  0.64707200  0.26651000  0.42540800  1
  Y  Y6  1  0.83480900  0.95680600  0.85243500  1
  Y  Y7  1  0.14707200  0.73349000  0.07459200  1
  Cl  Cl0  1  0.75598500  0.09745500  0.90203900  1
  Cl  Cl1  1  0.13822800  0.42915300  0.57097600  1
  Cl  Cl2  1  0.45237200  0.24581100  0.85011900  1
  Cl  Cl3  1  0.42897000  0.58095900  0.54029600  1
  Cl  Cl4  1  0.11817400  0.78029800  0.31600100  1
  Cl  Cl5  1  0.60838900  0.79957100  0.31775300  1
  Cl  Cl6  1  0.97466600  0.03609800  0.07560600  1
  Cl  Cl7  1  0.98288500  0.35898600  0.77934200  1
  Cl  Cl8  1  0.70254700  0.11944900  0.06724600  1
  Cl  Cl9  1  0.36714400  0.01388700  0.20362200  1
  Cl  Cl10  1  0.22531700  0.27931400  0.95987600  1
  Cl  Cl11  1  0.70432000  0.44742800  0.79622100  1
  Cl  Cl12  1  0.20432000  0.55257200  0.70377900  1
  Cl  Cl13  1  0.72531700  0.72068600  0.54012400  1
  Cl  Cl14  1  0.86714400  0.98611300  0.29637800  1
  Cl  Cl15  1  0.20254700  0.88055100  0.43275400  1
  Cl  Cl16  1  0.48288500  0.64101400  0.72065800  1
  Cl  Cl17  1  0.47466600  0.96390200  0.42439400  1
  Cl  Cl18  1  0.10838900  0.20042900  0.18224700  1
  Cl  Cl19  1  0.92897000  0.41904100  0.95970400  1
  Cl  Cl20  1  0.61817400  0.21970200  0.18399900  1
  Cl  Cl21  1  0.95237200  0.75418900  0.64988100  1
  Cl  Cl22  1  0.63822800  0.57084700  0.92902400  1
  Cl  Cl23  1  0.25598500  0.90254500  0.59796100  1
  Cl  Cl24  1  0.74401500  0.09745500  0.40203900  1
  Cl  Cl25  1  0.36177200  0.42915300  0.07097600  1
  Cl  Cl26  1  0.04762800  0.24581100  0.35011900  1
  Cl  Cl27  1  0.38182600  0.78029800  0.81600100  1
  Cl  Cl28  1  0.07103000  0.58095900  0.04029600  1
  Cl  Cl29  1  0.89161100  0.79957100  0.81775300  1
  Cl  Cl30  1  0.52533400  0.03609800  0.57560600  1
  Cl  Cl31  1  0.51711500  0.35898600  0.27934200  1
  Cl  Cl32  1  0.79745300  0.11944900  0.56724600  1
  Cl  Cl33  1  0.13285600  0.01388700  0.70362200  1
  Cl  Cl34  1  0.27468300  0.27931400  0.45987600  1
  Cl  Cl35  1  0.79568000  0.44742800  0.29622100  1
  Cl  Cl36  1  0.29568000  0.55257200  0.20377900  1
  Cl  Cl37  1  0.77468300  0.72068600  0.04012400  1
  Cl  Cl38  1  0.63285600  0.98611300  0.79637800  1
  Cl  Cl39  1  0.29745300  0.88055100  0.93275400  1
  Cl  Cl40  1  0.01711500  0.64101400  0.22065800  1
  Cl  Cl41  1  0.02533400  0.96390200  0.92439400  1
  Cl  Cl42  1  0.39161100  0.20042900  0.68224700  1
  Cl  Cl43  1  0.88182600  0.21970200  0.68399900  1
  Cl  Cl44  1  0.57103000  0.41904100  0.45970400  1
  Cl  Cl45  1  0.54762800  0.75418900  0.14988100  1
  Cl  Cl46  1  0.86177200  0.57084700  0.42902400  1
  Cl  Cl47  1  0.24401500  0.90254500  0.09796100  1
loop_
_geom_bond_atom_site_label_1
_geom_bond_atom_site_label_2
_geom_bond_distance
_geom_bond_site_symmetry_2
Ba0 Cl2 3.126266 1_555
Ba0 Cl1 3.165031 1_555
Ba0 Cl42 3.209551 1_555
Ba0 Cl12 3.258609 1_555
Ba0 Cl7 3.266415 1_455
Ba0 Cl41 3.388317 1_545
Ba0 Cl39 3.397319 1_545
Ba0 Cl10 3.477616 1_555
Ba1 Cl2 3.064535 1_555
Ba1 Cl42 3.198202 1_555
Ba1 Cl38 3.302699 1_545
Ba1 Cl3 3.313096 1_555
Ba1 Cl0 3.314541 1_555
Ba1 Cl11 3.473351 1_555
Ba1 Cl44 3.515210 1_555
Ba1 Cl43 3.635673 1_555
Ba2 Cl1 3.160503 1_655
Ba2 Cl46 3.185317 1_555
Ba2 Cl15 3.242932 1_655
Ba2 Cl21 3.248795 1_555
Ba2 Cl4 3.324032 1_655
Ba2 Cl13 3.423794 1_555
Ba2 Cl14 3.504495 1_555
Ba2 Cl7 3.505711 1_555
Ba2 Cl12 3.673212 1_655
Ba3 Cl22 3.160503 1_555
Ba3 Cl25 3.185317 1_556
Ba3 Cl8 3.242932 1_556
Ba3 Cl2 3.248795 1_555
Ba3 Cl20 3.324032 1_556
Ba3 Cl10 3.423794 1_555
Ba3 Cl9 3.504495 1_556
Ba3 Cl16 3.505711 1_555
Ba3 Cl11 3.673212 1_555
Ba4 Cl21 3.064535 1_455
Ba4 Cl29 3.198202 1_455
Ba4 Cl33 3.302699 1_565
Ba4 Cl19 3.313096 1_455
Ba4 Cl23 3.314541 1_555
Ba4 Cl12 3.473351 1_555
Ba4 Cl28 3.515210 1_556
Ba4 Cl27 3.635673 1_555
Ba5 Cl21 3.126266 1_555
Ba5 Cl22 3.165031 1_555
Ba5 Cl29 3.209551 1_555
Ba5 Cl11 3.258609 1_555
Ba5 Cl16 3.266415 1_555
Ba5 Cl30 3.388317 1_565
Ba5 Cl32 3.397319 1_565
Ba5 Cl13 3.477616 1_555
Ba6 Cl26 3.126266 1_555
Ba6 Cl25 3.165031 1_555
Ba6 Cl18 3.209551 1_555
Ba6 Cl36 3.258609 1_555
Ba6 Cl31 3.266415 1_555
Ba6 Cl17 3.388317 1_545
Ba6 Cl15 3.397319 1_545
Ba6 Cl34 3.477616 1_555
Ba7 Cl26 3.064535 1_655
Ba7 Cl18 3.198202 1_655
Ba7 Cl14 3.302699 1_545
Ba7 Cl28 3.313096 1_655
Ba7 Cl24 3.314541 1_555
Ba7 Cl35 3.473351 1_555
Ba7 Cl19 3.515210 1_554
Ba7 Cl20 3.635673 1_555
Ba8 Cl25 3.160503 1_555
Ba8 Cl22 3.185317 1_554
Ba8 Cl39 3.242932 1_554
Ba8 Cl45 3.248795 1_555
Ba8 Cl27 3.324032 1_554
Ba8 Cl37 3.423794 1_555
Ba8 Cl38 3.504495 1_554
Ba8 Cl31 3.505711 1_555
Ba8 Cl36 3.673212 1_555
Ba9 Cl46 3.160503 1_455
Ba9 Cl1 3.185317 1_555
Ba9 Cl32 3.242932 1_455
Ba9 Cl26 3.248795 1_555
Ba9 Cl43 3.324032 1_455
Ba9 Cl34 3.423794 1_555
Ba9 Cl33 3.504495 1_555
Ba9 Cl40 3.505711 1_555
Ba9 Cl35 3.673212 1_455
Ba10 Cl45 3.064535 1_555
Ba10 Cl5 3.198202 1_555
Ba10 Cl9 3.302699 1_565
Ba10 Cl44 3.313096 1_555
Ba10 Cl47 3.314541 1_555
Ba10 Cl36 3.473351 1_555
Ba10 Cl3 3.515210 1_555
Ba10 Cl4 3.635673 1_555
Ba11 Cl45 3.126266 1_555
Ba11 Cl46 3.165031 1_555
Ba11 Cl5 3.209551 1_555
Ba11 Cl35 3.258609 1_555
Ba11 Cl40 3.266415 1_655
Ba11 Cl6 3.388317 1_565
Ba11 Cl8 3.397319 1_565
Ba11 Cl37 3.477616 1_555
Cl0 Y6 2.716380 1_545
Cl0 Y0 2.772502 1_555
Cl3 Y2 2.623592 1_555
Cl4 Y1 2.600318 1_565
Cl5 Y3 2.610771 1_555
Cl6 Y0 2.695972 1_554
Cl6 Y1 2.736211 1_655
Cl7 Y0 2.594790 1_555
Cl8 Y0 2.635932 1_554
Cl9 Y1 2.629120 1_555
Cl10 Y1 2.655152 1_556
Cl11 Y0 2.594233 1_555
Cl12 Y2 2.594233 1_555
Cl13 Y3 2.655152 1_555
Cl14 Y3 2.629120 1_555
Cl15 Y2 2.635932 1_555
Cl16 Y2 2.594790 1_555
Cl17 Y2 2.695972 1_555
Cl17 Y3 2.736211 1_555
Cl18 Y1 2.610771 1_555
Cl19 Y0 2.623592 1_555
Cl20 Y3 2.600318 1_545
Cl23 Y4 2.716380 1_565
Cl23 Y2 2.772502 1_555
Cl24 Y3 2.716380 1_545
Cl24 Y5 2.772502 1_555
Cl27 Y4 2.600318 1_565
Cl28 Y7 2.623592 1_555
Cl29 Y6 2.610771 1_555
Cl30 Y5 2.695972 1_555
Cl30 Y4 2.736211 1_555
Cl31 Y5 2.594790 1_555
Cl32 Y5 2.635932 1_555
Cl33 Y4 2.629120 1_555
Cl34 Y4 2.655152 1_555
Cl35 Y5 2.594233 1_555
Cl36 Y7 2.594233 1_555
Cl37 Y6 2.655152 1_554
Cl38 Y6 2.629120 1_555
Cl39 Y7 2.635932 1_556
Cl40 Y7 2.594790 1_555
Cl41 Y7 2.695972 1_556
Cl41 Y6 2.736211 1_455
Cl42 Y4 2.610771 1_555
Cl43 Y6 2.600318 1_545
Cl44 Y5 2.623592 1_555
Cl47 Y1 2.716380 1_565
Cl47 Y7 2.772502 1_555
