# generated using pymatgen
data_LiCrPO4
_symmetry_space_group_name_H-M   'P 1'
_cell_length_a   4.98581700
_cell_length_b   7.94449600
_cell_length_c   9.18334200
_cell_angle_alpha   90.00000000
_cell_angle_beta   90.00000000
_cell_angle_gamma   90.00000000
_symmetry_Int_Tables_number   1
_chemical_formula_structural   LiCrPO4
_chemical_formula_sum   'Li4 Cr4 P4 O16'
_cell_volume   363.75036946
_cell_formula_units_Z   4
loop_
 _symmetry_equiv_pos_site_id
 _symmetry_equiv_pos_as_xyz
  1  'x, y, z'
loop_
 _atom_site_type_symbol
 _atom_site_label
 _atom_site_symmetry_multiplicity
 _atom_site_fract_x
 _atom_site_fract_y
 _atom_site_fract_z
 _atom_site_occupancy
  Li  Li0  1  0.94706800  0.04868800  0.61714300  1
  Li  Li1  1  0.44706800  0.45131200  0.11714300  1
  Li  Li2  1  0.94706800  0.54868800  0.88285700  1
  Li  Li3  1  0.44706800  0.95131200  0.38285700  1
  Cr  Cr0  1  0.96823900  0.16511400  0.03940700  1
  Cr  Cr1  1  0.46823900  0.33488600  0.53940700  1
  Cr  Cr2  1  0.96823900  0.66511400  0.46059300  1
  Cr  Cr3  1  0.46823900  0.83488600  0.96059300  1
  P  P0  1  0.56299700  0.23076000  0.85358100  1
  P  P1  1  0.06299700  0.26924000  0.35358100  1
  P  P2  1  0.56299700  0.73076000  0.64641900  1
  P  P3  1  0.06299700  0.76924000  0.14641900  1
  O  O0  1  0.65008800  0.05983900  0.92724200  1
  O  O1  1  0.21091500  0.13856700  0.45688000  1
  O  O2  1  0.26189800  0.26053000  0.85023700  1
  O  O3  1  0.69079500  0.22420200  0.69927300  1
  O  O4  1  0.19079500  0.27579800  0.19927300  1
  O  O5  1  0.76189800  0.23947000  0.35023700  1
  O  O6  1  0.71091500  0.36143300  0.95688000  1
  O  O7  1  0.15008800  0.44016100  0.42724200  1
  O  O8  1  0.65008800  0.55983900  0.57275800  1
  O  O9  1  0.21091500  0.63856700  0.04312000  1
  O  O10  1  0.26189800  0.76053000  0.64976300  1
  O  O11  1  0.69079500  0.72420200  0.80072700  1
  O  O12  1  0.19079500  0.77579800  0.30072700  1
  O  O13  1  0.76189800  0.73947000  0.14976300  1
  O  O14  1  0.71091500  0.86143300  0.54312000  1
  O  O15  1  0.15008800  0.94016100  0.07275800  1
loop_
_geom_bond_atom_site_label_1
_geom_bond_atom_site_label_2
_geom_bond_distance
_geom_bond_site_symmetry_2
Li0 O14 2.015316 1_545
Li0 O3 2.036105 1_555
Li0 O1 2.099149 1_655
Li1 O9 2.015316 1_555
Li1 O4 2.036105 1_555
Li1 O6 2.099149 1_554
Li2 O6 2.015316 1_555
Li2 O11 2.036105 1_555
Li2 O9 2.099149 1_656
Li3 O1 2.015316 1_565
Li3 O12 2.036105 1_555
Li3 O14 2.099149 1_555
Cr0 O15 2.027242 1_645
Cr0 O4 2.039562 1_655
Cr0 O0 2.068009 1_554
Cr0 O6 2.157061 1_554
Cr0 O2 2.395036 1_654
Cr1 O8 2.027242 1_555
Cr1 O3 2.039562 1_555
Cr1 O7 2.068009 1_555
Cr1 O1 2.157061 1_555
Cr1 O5 2.395036 1_555
Cr2 O7 2.027242 1_655
Cr2 O12 2.039562 1_655
Cr2 O8 2.068009 1_555
Cr2 O14 2.157061 1_555
Cr2 O10 2.395036 1_655
Cr3 O0 2.027242 1_565
Cr3 O11 2.039562 1_555
Cr3 O15 2.068009 1_556
Cr3 O9 2.157061 1_556
Cr3 O13 2.395036 1_556
O0 P0 1.577967 1_555
O1 P1 1.587926 1_555
O2 P0 1.520051 1_555
O3 P0 1.554599 1_555
O4 P1 1.554599 1_555
O5 P1 1.520051 1_655
O6 P0 1.587926 1_555
O7 P1 1.577967 1_555
O8 P2 1.577967 1_555
O9 P3 1.587926 1_555
O10 P2 1.520051 1_555
O11 P2 1.554599 1_555
O12 P3 1.554599 1_555
O13 P3 1.520051 1_655
O14 P2 1.587926 1_555
O15 P3 1.577967 1_555
