# generated using pymatgen
data_LiFePO4
_symmetry_space_group_name_H-M   'P 1'
_cell_length_a   5.68946802
_cell_length_b   8.07802079
_cell_length_c   8.07907571
_cell_angle_alpha   62.43152404
_cell_angle_beta   69.38027362
_cell_angle_gamma   69.38850754
_symmetry_Int_Tables_number   1
_chemical_formula_structural   LiFePO4
_chemical_formula_sum   'Li4 Fe4 P4 O16'
_cell_volume   299.96238455
_cell_formula_units_Z   4
loop_
 _symmetry_equiv_pos_site_id
 _symmetry_equiv_pos_as_xyz
  1  'x, y, z'
loop_
 _atom_site_type_symbol
 _atom_site_label
 _atom_site_symmetry_multiplicity
 _atom_site_fract_x
 _atom_site_fract_y
 _atom_site_fract_z
 _atom_site_occupancy
  Li  Li0  1  0.50000400  0.99998500  0.00000000  1
  Li  Li1  1  0.00000200  0.50000100  0.49998900  1
  Li  Li2  1  0.25000100  0.24999200  0.25000300  1
  Li  Li3  1  0.75000700  0.74999500  0.74998500  1
  Fe  Fe0  1  0.37495800  0.44306900  0.80700400  1
  Fe  Fe1  1  0.12498700  0.05697600  0.69307000  1
  Fe  Fe2  1  0.87499200  0.94303800  0.30693500  1
  Fe  Fe3  1  0.62502300  0.55695000  0.19304400  1
  P  P0  1  0.12502300  0.72896900  0.02106200  1
  P  P1  1  0.62499700  0.22898900  0.52106100  1
  P  P2  1  0.37497800  0.77102400  0.47895000  1
  P  P3  1  0.87500500  0.27101700  0.97892800  1
  O  O0  1  0.65474700  0.15907100  0.09087900  1
  O  O1  1  0.15470900  0.65906000  0.59091500  1
  O  O2  1  0.40479000  0.34090600  0.40912500  1
  O  O3  1  0.90479200  0.84092000  0.90909600  1
  O  O4  1  0.09522300  0.15908600  0.09086900  1
  O  O5  1  0.59521100  0.65908100  0.59090000  1
  O  O6  1  0.84524400  0.34092800  0.40911100  1
  O  O7  1  0.34530400  0.84093100  0.90908700  1
  O  O8  1  0.22426000  0.52002600  0.03143700  1
  O  O9  1  0.72424600  0.02006700  0.53142000  1
  O  O10  1  0.02567400  0.71868500  0.22996900  1
  O  O11  1  0.52569100  0.21865800  0.72994100  1
  O  O12  1  0.47431900  0.78131800  0.27004000  1
  O  O13  1  0.97432200  0.28134800  0.77002800  1
  O  O14  1  0.27573700  0.97995400  0.46857900  1
  O  O15  1  0.77575200  0.47995500  0.96857200  1
loop_
_geom_bond_atom_site_label_1
_geom_bond_atom_site_label_2
_geom_bond_distance
_geom_bond_site_symmetry_2
Li0 O12 2.071557 1_555
Li0 O11 2.071673 1_564
Li0 O7 2.256107 1_554
Li0 O0 2.256301 1_565
Li0 O3 2.256785 1_554
Li0 O4 2.256797 1_565
Li1 O13 2.071508 1_455
Li1 O10 2.071508 1_555
Li1 O1 2.256246 1_555
Li1 O6 2.256265 1_455
Li1 O2 2.256798 1_555
Li1 O5 2.256854 1_455
Li2 O8 2.071155 1_555
Li2 O14 2.071207 1_545
Li2 O0 2.256783 1_555
Li2 O6 2.256808 1_455
Li2 O4 2.257036 1_555
Li2 O2 2.257044 1_555
Li3 O15 2.071252 1_555
Li3 O9 2.071347 1_565
Li3 O1 2.256475 1_655
Li3 O7 2.256574 1_555
Li3 O5 2.256816 1_555
Li3 O3 2.257016 1_555
Fe0 O8 1.995604 1_556
Fe0 O11 1.995844 1_555
Fe0 O5 2.200460 1_555
Fe0 O1 2.200990 1_555
Fe1 O13 1.995067 1_455
Fe1 O14 1.996331 1_545
Fe1 O3 2.200353 1_445
Fe1 O7 2.200944 1_545
Fe2 O10 1.994966 1_655
Fe2 O9 1.996320 1_565
Fe2 O4 2.200502 1_665
Fe2 O0 2.200886 1_565
Fe3 O12 1.995216 1_555
Fe3 O15 1.996066 1_554
Fe3 O2 2.200516 1_555
Fe3 O6 2.200844 1_555
O0 P3 1.564828 1_554
O1 P2 1.564967 1_555
O2 P1 1.564801 1_555
O3 P0 1.565062 1_656
O4 P3 1.564879 1_454
O5 P2 1.564993 1_555
O6 P1 1.564744 1_555
O7 P0 1.565015 1_556
O8 P0 1.551149 1_555
O9 P1 1.551032 1_555
O10 P0 1.551237 1_555
O11 P1 1.550911 1_555
O12 P2 1.551233 1_555
O13 P3 1.551062 1_555
O14 P2 1.551062 1_555
O15 P3 1.551161 1_555
