# generated using pymatgen
data_LiFeP2O7
_symmetry_space_group_name_H-M   'P 1'
_cell_length_a   7.85180780
_cell_length_b   7.85180780
_cell_length_c   10.64840804
_cell_angle_alpha   88.69369118
_cell_angle_beta   88.69369118
_cell_angle_gamma   117.11548947
_symmetry_Int_Tables_number   1
_chemical_formula_structural   LiFeP2O7
_chemical_formula_sum   'Li4 Fe4 P8 O28'
_cell_volume   583.77110605
_cell_formula_units_Z   4
loop_
 _symmetry_equiv_pos_site_id
 _symmetry_equiv_pos_as_xyz
  1  'x, y, z'
loop_
 _atom_site_type_symbol
 _atom_site_label
 _atom_site_symmetry_multiplicity
 _atom_site_fract_x
 _atom_site_fract_y
 _atom_site_fract_z
 _atom_site_occupancy
  Li  Li0  1  0.71571400  0.28089800  0.00017500  1
  Li  Li1  1  0.71910200  0.28428600  0.49982500  1
  Li  Li2  1  0.28428600  0.71910200  0.99982500  1
  Li  Li3  1  0.28089800  0.71571400  0.50017500  1
  Fe  Fe0  1  0.68804400  0.68860000  0.89122600  1
  Fe  Fe1  1  0.31195600  0.31140000  0.10877400  1
  Fe  Fe2  1  0.68860000  0.68804400  0.39122600  1
  Fe  Fe3  1  0.31140000  0.31195600  0.60877400  1
  P  P0  1  0.29693000  0.08911600  0.86562300  1
  P  P1  1  0.09919500  0.31955800  0.86448800  1
  P  P2  1  0.91088400  0.70307000  0.63437700  1
  P  P3  1  0.70307000  0.91088400  0.13437700  1
  P  P4  1  0.68044200  0.90080500  0.63551200  1
  P  P5  1  0.90080500  0.68044200  0.13551200  1
  P  P6  1  0.31955800  0.09919500  0.36448800  1
  P  P7  1  0.08911600  0.29693000  0.36562300  1
  O  O0  1  0.09669300  0.10862200  0.87935100  1
  O  O1  1  0.09975300  0.70784300  0.12291500  1
  O  O2  1  0.90024700  0.29215700  0.87708500  1
  O  O3  1  0.70784300  0.09975300  0.62291500  1
  O  O4  1  0.10862200  0.09669300  0.37935100  1
  O  O5  1  0.20047400  0.40317200  0.73476700  1
  O  O6  1  0.81254500  0.61416500  0.76397100  1
  O  O7  1  0.40317200  0.20047400  0.23476700  1
  O  O8  1  0.90330700  0.89137800  0.12064900  1
  O  O9  1  0.56357000  0.76480000  0.52870000  1
  O  O10  1  0.38583500  0.18745500  0.73602900  1
  O  O11  1  0.79952600  0.59682800  0.26523300  1
  O  O12  1  0.42077100  0.21572200  0.97346500  1
  O  O13  1  0.59682800  0.79952600  0.76523300  1
  O  O14  1  0.61416500  0.81254500  0.26397100  1
  O  O15  1  0.21572200  0.42077100  0.47346500  1
  O  O16  1  0.78427800  0.57922900  0.52653500  1
  O  O17  1  0.76480000  0.56357000  0.02870000  1
  O  O18  1  0.43643000  0.23520000  0.47130000  1
  O  O19  1  0.57922900  0.78427800  0.02653500  1
  O  O20  1  0.25017900  0.88434500  0.87976900  1
  O  O21  1  0.11565500  0.74982100  0.62023100  1
  O  O22  1  0.29215700  0.90024700  0.37708500  1
  O  O23  1  0.18745500  0.38583500  0.23602900  1
  O  O24  1  0.23520000  0.43643000  0.97130000  1
  O  O25  1  0.88434500  0.25017900  0.37976900  1
  O  O26  1  0.89137800  0.90330700  0.62064900  1
  O  O27  1  0.74982100  0.11565500  0.12023100  1
loop_
_geom_bond_atom_site_label_1
_geom_bond_atom_site_label_2
_geom_bond_distance
_geom_bond_site_symmetry_2
Li0 O2 1.901712 1_554
Li0 O27 1.909489 1_555
Li0 O17 2.103146 1_555
Li0 O12 2.159217 1_554
Li1 O3 1.901712 1_555
Li1 O25 1.909489 1_555
Li1 O18 2.103146 1_555
Li1 O16 2.159217 1_555
Li2 O1 1.901712 1_556
Li2 O20 1.909489 1_555
Li2 O24 2.103146 1_555
Li2 O19 2.159217 1_556
Li3 O22 1.901712 1_555
Li3 O21 1.909489 1_555
Li3 O9 2.103146 1_555
Li3 O15 2.159217 1_555
Fe0 O6 1.905235 1_555
Fe0 O13 1.905432 1_555
Fe0 O19 1.987124 1_556
Fe0 O17 1.995983 1_556
Fe1 O23 1.905235 1_555
Fe1 O7 1.905432 1_555
Fe1 O12 1.987124 1_554
Fe1 O24 1.995983 1_554
Fe2 O14 1.905235 1_555
Fe2 O11 1.905432 1_555
Fe2 O16 1.987124 1_555
Fe2 O9 1.995983 1_555
Fe3 O10 1.905235 1_555
Fe3 O5 1.905432 1_555
Fe3 O15 1.987124 1_555
Fe3 O18 1.995983 1_555
O0 P0 1.651289 1_555
O0 P1 1.651295 1_555
O1 P5 1.478922 1_455
O2 P1 1.478922 1_655
O3 P4 1.478922 1_545
O4 P7 1.651289 1_555
O4 P6 1.651295 1_555
O5 P1 1.550517 1_555
O6 P2 1.550473 1_555
O7 P6 1.550517 1_555
O8 P3 1.651289 1_555
O8 P5 1.651295 1_555
O9 P4 1.576633 1_555
O10 P0 1.550473 1_555
O11 P5 1.550517 1_555
O12 P0 1.572969 1_555
O13 P4 1.550517 1_555
O14 P3 1.550473 1_555
O15 P7 1.572969 1_555
O16 P2 1.572969 1_555
O17 P5 1.576633 1_555
O18 P6 1.576633 1_555
O19 P3 1.572969 1_555
O20 P0 1.480189 1_565
O21 P2 1.480189 1_455
O22 P6 1.478922 1_565
O23 P7 1.550473 1_555
O24 P1 1.576633 1_555
O25 P7 1.480189 1_655
O26 P2 1.651289 1_555
O26 P4 1.651295 1_555
O27 P3 1.480189 1_545
