# generated using pymatgen
data_Mn3Ni2Te3O16
_symmetry_space_group_name_H-M   'P 1'
_cell_length_a   6.02078629
_cell_length_b   6.02078629
_cell_length_c   8.91881069
_cell_angle_alpha   89.63940287
_cell_angle_beta   89.63940287
_cell_angle_gamma   59.30310897
_symmetry_Int_Tables_number   1
_chemical_formula_structural   Mn3Ni2Te3O16
_chemical_formula_sum   'Mn3 Ni2 Te3 O16'
_cell_volume   277.99681142
_cell_formula_units_Z   1
loop_
 _symmetry_equiv_pos_site_id
 _symmetry_equiv_pos_as_xyz
  1  'x, y, z'
loop_
 _atom_site_type_symbol
 _atom_site_label
 _atom_site_symmetry_multiplicity
 _atom_site_fract_x
 _atom_site_fract_y
 _atom_site_fract_z
 _atom_site_occupancy
  Mn  Mn0  1  0.83212851  0.83212851  0.78476933  1
  Mn  Mn1  1  0.16627294  0.66459629  0.28903875  1
  Mn  Mn2  1  0.66459629  0.16627294  0.28903875  1
  Ni  Ni0  1  0.67585600  0.67585600  0.49232060  1
  Ni  Ni1  1  0.34288201  0.34288201  0.01846529  1
  Te  Te0  1  0.33401345  0.83123130  0.78806919  1
  Te  Te1  1  0.83123130  0.33401345  0.78806919  1
  Te  Te2  1  0.16677367  0.16677367  0.28787976  1
  O  O0  1  0.32421441  0.84397621  0.39644054  1
  O  O1  1  0.51906133  0.51906133  0.66053264  1
  O  O2  1  0.64469212  0.64469212  0.91533456  1
  O  O3  1  0.01786190  0.01786190  0.66691080  1
  O  O4  1  0.00532035  0.00532035  0.17906462  1
  O  O5  1  0.84397621  0.32421441  0.39644054  1
  O  O6  1  0.51752715  0.95610247  0.67412925  1
  O  O7  1  0.95610247  0.51752715  0.67412925  1
  O  O8  1  0.16023213  0.16023213  0.90219956  1
  O  O9  1  0.84346909  0.84346909  0.39147200  1
  O  O10  1  0.04186659  0.47770004  0.16493612  1
  O  O11  1  0.47770004  0.04186659  0.16493612  1
  O  O12  1  0.32527883  0.32527883  0.40458620  1
  O  O13  1  0.16120063  0.68243248  0.88945039  1
  O  O14  1  0.47556910  0.47556910  0.17745018  1
  O  O15  1  0.68243248  0.16120063  0.88945039  1
loop_
_geom_bond_atom_site_label_1
_geom_bond_atom_site_label_2
_geom_bond_distance
_geom_bond_site_symmetry_2
Mn0 O6 1.920785 1_555
Mn0 O7 1.920785 1_555
Mn0 O13 1.949086 1_655
Mn0 O15 1.949086 1_565
Mn0 O3 2.202979 1_665
Mn0 O2 2.273833 1_555
Mn1 O14 1.892258 1_555
Mn1 O9 1.903887 1_455
Mn1 O10 1.984696 1_555
Mn1 O0 2.015271 1_555
Mn1 O4 2.016537 1_565
Mn1 O12 2.035008 1_555
Mn2 O14 1.892258 1_555
Mn2 O9 1.903887 1_545
Mn2 O11 1.984696 1_555
Mn2 O5 2.015271 1_555
Mn2 O4 2.016537 1_655
Mn2 O12 2.035008 1_555
Ni0 O9 1.965392 1_555
Ni0 O5 2.015461 1_555
Ni0 O0 2.015461 1_555
Ni0 O7 2.181237 1_555
Ni0 O6 2.181237 1_555
Ni0 O1 2.215259 1_555
Ni1 O14 1.991769 1_555
Ni1 O10 2.032630 1_555
Ni1 O11 2.032630 1_555
Ni1 O15 2.098333 1_554
Ni1 O13 2.098333 1_554
Ni1 O8 2.181137 1_554
O0 Te2 1.928760 1_565
O1 Te0 1.985112 1_555
O1 Te1 1.985112 1_555
O2 Te1 1.978478 1_555
O2 Te0 1.978478 1_555
O3 Te0 1.969864 1_545
O3 Te1 1.969864 1_455
O4 Te2 1.954547 1_555
O5 Te2 1.928760 1_655
O6 Te0 1.908688 1_555
O7 Te1 1.908688 1_555
O8 Te0 1.987594 1_545
O8 Te1 1.987594 1_455
O10 Te2 1.954359 1_555
O11 Te2 1.954359 1_555
O12 Te2 1.964631 1_555
O13 Te0 1.905895 1_555
O15 Te1 1.905895 1_555
