# generated using pymatgen
data_Fe2CuAs2(HO5)2
_symmetry_space_group_name_H-M   'P 1'
_cell_length_a   5.27238400
_cell_length_b   5.38126799
_cell_length_c   8.09073136
_cell_angle_alpha   99.56613957
_cell_angle_beta   103.72614857
_cell_angle_gamma   110.83395921
_symmetry_Int_Tables_number   1
_chemical_formula_structural   Fe2CuAs2(HO5)2
_chemical_formula_sum   'Fe2 Cu1 As2 H2 O10'
_cell_volume   200.32009221
_cell_formula_units_Z   1
loop_
 _symmetry_equiv_pos_site_id
 _symmetry_equiv_pos_as_xyz
  1  'x, y, z'
loop_
 _atom_site_type_symbol
 _atom_site_label
 _atom_site_symmetry_multiplicity
 _atom_site_fract_x
 _atom_site_fract_y
 _atom_site_fract_z
 _atom_site_occupancy
  Fe  Fe0  1  0.97538100  0.71751400  0.31224900  1
  Fe  Fe1  1  0.02461900  0.28248600  0.68775100  1
  Cu  Cu0  1  0.00000000  0.00000000  0.00000000  1
  As  As0  1  0.35507300  0.94839700  0.73155200  1
  As  As1  1  0.64492700  0.05160300  0.26844800  1
  H  H0  1  0.53859700  0.27651700  0.52120700  1
  H  H1  1  0.46140300  0.72348300  0.47879300  1
  O  O0  1  0.73076700  0.07501100  0.80287600  1
  O  O1  1  0.74556300  0.83286100  0.12084000  1
  O  O2  1  0.27603500  0.67434600  0.51042700  1
  O  O3  1  0.27057100  0.14408300  0.58029000  1
  O  O4  1  0.80856800  0.33199600  0.19142000  1
  O  O5  1  0.19143200  0.66800400  0.80858000  1
  O  O6  1  0.72942900  0.85591700  0.41971000  1
  O  O7  1  0.72396500  0.32565400  0.48957300  1
  O  O8  1  0.25443700  0.16713900  0.87916000  1
  O  O9  1  0.26923300  0.92498900  0.19712400  1
loop_
_geom_bond_atom_site_label_1
_geom_bond_atom_site_label_2
_geom_bond_distance
_geom_bond_site_symmetry_2
Fe0 O4 1.911308 1_555
Fe0 O6 1.999752 1_555
Fe0 O1 2.053228 1_555
Fe0 O9 2.077141 1_655
Fe0 O2 2.077779 1_655
Fe1 O5 1.911308 1_555
Fe1 O3 1.999752 1_555
Fe1 O8 2.053228 1_555
Fe1 O0 2.077141 1_455
Fe1 O7 2.077779 1_455
Cu0 O8 1.902852 1_554
Cu0 O1 1.902852 1_445
Cu0 O0 2.066090 1_454
Cu0 O9 2.066090 1_545
As0 O5 1.746760 1_555
As0 O0 1.757178 1_565
As0 O3 1.818908 1_565
As0 O8 1.836056 1_565
As0 O2 1.970123 1_555
As1 O4 1.746760 1_555
As1 O9 1.757178 1_545
As1 O6 1.818908 1_545
As1 O1 1.836056 1_545
As1 O7 1.970123 1_555
H0 O7 1.023708 1_555
H0 O3 1.565499 1_555
H1 O2 1.023708 1_555
H1 O6 1.565499 1_555
