# generated using pymatgen
data_ZrTi2O
_symmetry_space_group_name_H-M   'P 1'
_cell_length_a   4.75911655
_cell_length_b   4.75911655
_cell_length_c   6.06128400
_cell_angle_alpha   90.00000000
_cell_angle_beta   90.00000000
_cell_angle_gamma   117.44756127
_symmetry_Int_Tables_number   1
_chemical_formula_structural   ZrTi2O
_chemical_formula_sum   'Zr2 Ti4 O2'
_cell_volume   121.82962896
_cell_formula_units_Z   2
loop_
 _symmetry_equiv_pos_site_id
 _symmetry_equiv_pos_as_xyz
  1  'x, y, z'
loop_
 _atom_site_type_symbol
 _atom_site_label
 _atom_site_symmetry_multiplicity
 _atom_site_fract_x
 _atom_site_fract_y
 _atom_site_fract_z
 _atom_site_occupancy
  Zr  Zr0  1  0.00000000  0.00000000  0.00000000  1
  Zr  Zr1  1  0.00000000  0.00000000  0.50000000  1
  Ti  Ti0  1  0.66329600  0.33670400  0.25357600  1
  Ti  Ti1  1  0.66329600  0.33670400  0.74642400  1
  Ti  Ti2  1  0.33670400  0.66329600  0.74642400  1
  Ti  Ti3  1  0.33670400  0.66329600  0.25357600  1
  O  O0  1  0.50000000  0.00000000  0.00000000  1
  O  O1  1  0.00000000  0.50000000  0.00000000  1
loop_
_geom_bond_atom_site_label_1
_geom_bond_atom_site_label_2
_geom_bond_distance
_geom_bond_site_symmetry_2
Zr0 Zr1 3.030642 1_554
Zr0 Zr1 3.030642 1_555
Ti0 Zr1 3.119865 1_655
Ti0 Zr1 3.178102 1_665
Ti0 Zr1 3.178102 1_555
Ti1 Zr1 3.119865 1_655
Ti1 Zr1 3.178102 1_665
Ti1 Zr1 3.178102 1_555
Ti2 Zr1 3.119865 1_565
Ti2 Zr1 3.178102 1_555
Ti2 Zr1 3.178102 1_665
Ti3 Zr1 3.119865 1_565
Ti3 Zr1 3.178102 1_555
Ti3 Zr1 3.178102 1_665
O0 Ti0 2.094284 1_555
O0 Ti2 2.094284 1_544
O0 Ti3 2.094284 1_545
O0 Ti1 2.094284 1_554
O0 Zr0 2.379558 1_555
O0 Zr0 2.379558 1_655
O1 Ti1 2.094284 1_454
O1 Ti3 2.094284 1_555
O1 Ti2 2.094284 1_554
O1 Ti0 2.094284 1_455
O1 Zr0 2.379558 1_555
O1 Zr0 2.379558 1_565
