# generated using pymatgen
data_Li5Mn3(SnO5)2
_symmetry_space_group_name_H-M   'P 1'
_cell_length_a   5.37185895
_cell_length_b   8.12885767
_cell_length_c   10.67590330
_cell_angle_alpha   101.20193929
_cell_angle_beta   101.56262216
_cell_angle_gamma   107.20831044
_symmetry_Int_Tables_number   1
_chemical_formula_structural   Li5Mn3(SnO5)2
_chemical_formula_sum   'Li10 Mn6 Sn4 O20'
_cell_volume   419.96026190
_cell_formula_units_Z   2
loop_
 _symmetry_equiv_pos_site_id
 _symmetry_equiv_pos_as_xyz
  1  'x, y, z'
loop_
 _atom_site_type_symbol
 _atom_site_label
 _atom_site_symmetry_multiplicity
 _atom_site_fract_x
 _atom_site_fract_y
 _atom_site_fract_z
 _atom_site_occupancy
  Li  Li0  1  0.49999100  0.50000300  0.24999800  1
  Li  Li1  1  0.50000000  0.50000400  0.75000500  1
  Li  Li2  1  0.90677200  0.40061300  0.11461600  1
  Li  Li3  1  0.90679900  0.40064900  0.61464800  1
  Li  Li4  1  0.09317000  0.59933800  0.38535200  1
  Li  Li5  1  0.09321900  0.59940800  0.88539100  1
  Li  Li6  1  0.28315300  0.77868800  0.19751100  1
  Li  Li7  1  0.28309600  0.77865200  0.69755100  1
  Li  Li8  1  0.71688500  0.22134200  0.30245800  1
  Li  Li9  1  0.71683100  0.22132300  0.80247200  1
  Mn  Mn0  1  0.50004300  0.00000300  0.49999700  1
  Mn  Mn1  1  0.89107700  0.89676800  0.84623600  1
  Mn  Mn2  1  0.10892600  0.10323300  0.15377500  1
  Mn  Mn3  1  0.50007700  0.00000000  0.99998500  1
  Mn  Mn4  1  0.89104700  0.89676100  0.34622300  1
  Mn  Mn5  1  0.10897500  0.10325200  0.65377400  1
  Sn  Sn0  1  0.70467100  0.69372300  0.05048000  1
  Sn  Sn1  1  0.70467200  0.69367200  0.55048600  1
  Sn  Sn2  1  0.29535000  0.30626600  0.44952600  1
  Sn  Sn3  1  0.29532800  0.30632700  0.94952300  1
  O  O0  1  0.07753700  0.84219700  0.02798100  1
  O  O1  1  0.07752500  0.84220500  0.52797900  1
  O  O2  1  0.92246000  0.15778800  0.47202600  1
  O  O3  1  0.92243700  0.15781400  0.97201500  1
  O  O4  1  0.68678800  0.93997800  0.16039900  1
  O  O5  1  0.68679700  0.93995800  0.66040300  1
  O  O6  1  0.31323100  0.06001000  0.33961800  1
  O  O7  1  0.31318900  0.06004800  0.83958100  1
  O  O8  1  0.32366100  0.54743000  0.07290400  1
  O  O9  1  0.32368200  0.54743200  0.57290400  1
  O  O10  1  0.67631200  0.45257800  0.42709100  1
  O  O11  1  0.67632100  0.45257200  0.92710400  1
  O  O12  1  0.49604100  0.22818100  0.10957000  1
  O  O13  1  0.49603400  0.22808000  0.60956000  1
  O  O14  1  0.50396300  0.77182800  0.39041500  1
  O  O15  1  0.50395300  0.77186200  0.89042800  1
  O  O16  1  0.89521400  0.65578500  0.22328500  1
  O  O17  1  0.89523900  0.65579400  0.72328700  1
  O  O18  1  0.10476400  0.34422000  0.27672200  1
  O  O19  1  0.10476900  0.34421200  0.77672100  1
loop_
_geom_bond_atom_site_label_1
_geom_bond_atom_site_label_2
_geom_bond_distance
_geom_bond_site_symmetry_2
Li0 O10 2.097998 1_555
Li0 O8 2.098031 1_555
Li0 O16 2.232634 1_555
Li0 O18 2.232704 1_555
Li0 O14 2.408825 1_555
Li0 O12 2.408903 1_555
Li1 O9 2.098077 1_555
Li1 O11 2.098080 1_555
Li1 O19 2.232708 1_555
Li1 O17 2.232747 1_555
Li1 O15 2.409106 1_555
Li1 O13 2.409608 1_555
Li2 O18 2.048235 1_655
Li2 O16 2.196000 1_555
Li2 O12 2.220105 1_555
Li2 O3 2.280869 1_554
Li2 O11 2.315771 1_554
Li2 O8 2.379645 1_655
Li3 O19 2.048104 1_655
Li3 O17 2.195706 1_555
Li3 O13 2.220489 1_555
Li3 O2 2.281350 1_555
Li3 O10 2.316108 1_555
Li3 O9 2.379708 1_655
Li4 O16 2.048066 1_455
Li4 O18 2.195561 1_555
Li4 O14 2.220475 1_555
Li4 O1 2.281376 1_555
Li4 O9 2.316026 1_555
Li4 O10 2.379523 1_455
Li5 O17 2.048161 1_455
Li5 O19 2.196152 1_555
Li5 O15 2.220206 1_555
Li5 O0 2.280788 1_556
Li5 O8 2.315838 1_556
Li5 O11 2.379730 1_455
Li6 O16 2.126376 1_455
Li6 O0 2.158994 1_555
Li6 O8 2.176549 1_555
Li6 O14 2.180781 1_555
Li6 O4 2.332702 1_555
Li6 O6 2.427440 1_565
Li7 O17 2.125750 1_455
Li7 O1 2.159443 1_555
Li7 O9 2.176708 1_555
Li7 O15 2.180420 1_555
Li7 O5 2.333205 1_555
Li7 O7 2.427542 1_565
Li8 O18 2.125886 1_655
Li8 O2 2.159423 1_555
Li8 O10 2.176706 1_555
Li8 O12 2.180640 1_555
Li8 O6 2.333131 1_555
Li8 O4 2.427459 1_545
Li9 O19 2.126246 1_655
Li9 O3 2.159081 1_555
Li9 O11 2.176621 1_555
Li9 O13 2.180518 1_555
Li9 O7 2.332678 1_555
Li9 O5 2.427626 1_545
Mn0 O13 1.999276 1_555
Mn0 O14 1.999817 1_545
Mn0 O6 2.025325 1_555
Mn0 O5 2.025600 1_545
Mn0 O2 2.362567 1_555
Mn0 O1 2.363095 1_545
Mn1 O17 2.144564 1_555
Mn1 O0 2.187012 1_656
Mn1 O5 2.211177 1_555
Mn1 O15 2.215450 1_555
Mn1 O3 2.219258 1_565
Mn1 O7 2.286664 1_665
Mn2 O18 2.144639 1_555
Mn2 O3 2.187240 1_454
Mn2 O6 2.211443 1_555
Mn2 O12 2.215553 1_555
Mn2 O0 2.219205 1_545
Mn2 O4 2.286606 1_445
Mn3 O15 1.999368 1_545
Mn3 O12 2.000121 1_556
Mn3 O4 2.025473 1_546
Mn3 O7 2.025883 1_555
Mn3 O3 2.362377 1_555
Mn3 O0 2.363267 1_546
Mn4 O16 2.144537 1_555
Mn4 O1 2.187080 1_655
Mn4 O4 2.211162 1_555
Mn4 O14 2.215317 1_555
Mn4 O2 2.219142 1_565
Mn4 O6 2.286727 1_665
Mn5 O19 2.144559 1_555
Mn5 O2 2.186994 1_455
Mn5 O7 2.210873 1_555
Mn5 O13 2.215130 1_555
Mn5 O1 2.219175 1_545
Mn5 O5 2.286895 1_445
O0 Sn0 2.097956 1_455
O1 Sn1 2.098086 1_455
O2 Sn2 2.098075 1_655
O3 Sn3 2.098133 1_655
O4 Sn0 2.153990 1_555
O5 Sn1 2.154174 1_555
O6 Sn2 2.153948 1_555
O7 Sn3 2.154194 1_555
O8 Sn3 2.083138 1_554
O8 Sn0 2.127788 1_555
O9 Sn2 2.083534 1_555
O9 Sn1 2.127546 1_555
O10 Sn1 2.083097 1_555
O10 Sn2 2.127671 1_555
O11 Sn0 2.083396 1_556
O11 Sn3 2.127575 1_555
O12 Sn3 2.138684 1_554
O13 Sn2 2.138707 1_555
O14 Sn1 2.138917 1_555
O15 Sn0 2.138702 1_556
O16 Sn0 2.048684 1_555
O17 Sn1 2.048465 1_555
O18 Sn2 2.048821 1_555
O19 Sn3 2.048485 1_555
