# generated using pymatgen
data_Cr3Fe3(TeO8)2
_symmetry_space_group_name_H-M   'P 1'
_cell_length_a   6.02139015
_cell_length_b   6.02139015
_cell_length_c   9.20709178
_cell_angle_alpha   89.57257611
_cell_angle_beta   89.57257611
_cell_angle_gamma   60.05683333
_symmetry_Int_Tables_number   1
_chemical_formula_structural   Cr3Fe3(TeO8)2
_chemical_formula_sum   'Cr3 Fe3 Te2 O16'
_cell_volume   289.25371782
_cell_formula_units_Z   1
loop_
 _symmetry_equiv_pos_site_id
 _symmetry_equiv_pos_as_xyz
  1  'x, y, z'
loop_
 _atom_site_type_symbol
 _atom_site_label
 _atom_site_symmetry_multiplicity
 _atom_site_fract_x
 _atom_site_fract_y
 _atom_site_fract_z
 _atom_site_occupancy
  Cr  Cr0  1  0.34090000  0.83241500  0.78685500  1
  Cr  Cr1  1  0.83241500  0.34090000  0.78685500  1
  Cr  Cr2  1  0.17229100  0.17229100  0.28265800  1
  Fe  Fe0  1  0.83207800  0.83207800  0.79491600  1
  Fe  Fe1  1  0.17161900  0.66393700  0.29411900  1
  Fe  Fe2  1  0.66393700  0.17161900  0.29411900  1
  Te  Te0  1  0.66824600  0.66824600  0.51245900  1
  Te  Te1  1  0.33238900  0.33238900  0.01004900  1
  O  O0  1  0.35127400  0.82571600  0.40151700  1
  O  O1  1  0.52303600  0.52303600  0.65623100  1
  O  O2  1  0.66284000  0.66284000  0.89074200  1
  O  O3  1  0.00475800  0.00475800  0.70483700  1
  O  O4  1  0.00737100  0.00737100  0.20516100  1
  O  O5  1  0.82571600  0.35127400  0.40151700  1
  O  O6  1  0.52106500  0.95567100  0.65377900  1
  O  O7  1  0.95567100  0.52106500  0.65377900  1
  O  O8  1  0.17323800  0.17323800  0.90027200  1
  O  O9  1  0.82655400  0.82655400  0.40137600  1
  O  O10  1  0.04325200  0.46866400  0.15340200  1
  O  O11  1  0.46866400  0.04325200  0.15340200  1
  O  O12  1  0.32456100  0.32456100  0.39266300  1
  O  O13  1  0.17196900  0.65185500  0.90138900  1
  O  O14  1  0.47399100  0.47399100  0.15092700  1
  O  O15  1  0.65185500  0.17196900  0.90138900  1
loop_
_geom_bond_atom_site_label_1
_geom_bond_atom_site_label_2
_geom_bond_distance
_geom_bond_site_symmetry_2
Cr0 O3 1.912640 1_565
Cr0 O2 1.937132 1_555
Cr0 O6 1.999821 1_555
Cr0 O1 2.023303 1_555
Cr0 O8 2.066216 1_565
Cr0 O13 2.097542 1_555
Cr1 O3 1.912640 1_655
Cr1 O2 1.937132 1_555
Cr1 O7 1.999821 1_555
Cr1 O1 2.023303 1_555
Cr1 O8 2.066216 1_655
Cr1 O15 2.097542 1_555
Cr2 O4 1.867349 1_555
Cr2 O12 1.890522 1_555
Cr2 O11 1.950024 1_555
Cr2 O10 1.950024 1_555
Cr2 O5 2.110073 1_455
Cr2 O0 2.110073 1_545
Fe0 O2 1.966006 1_555
Fe0 O3 1.975764 1_665
Fe0 O13 2.030810 1_655
Fe0 O15 2.030810 1_565
Fe0 O6 2.092879 1_555
Fe0 O7 2.092879 1_555
Fe1 O4 1.967359 1_565
Fe1 O12 1.988309 1_555
Fe1 O0 2.044322 1_555
Fe1 O9 2.050349 1_455
Fe1 O14 2.066174 1_555
Fe1 O10 2.145578 1_555
Fe2 O4 1.967359 1_655
Fe2 O12 1.988309 1_555
Fe2 O5 2.044322 1_555
Fe2 O9 2.050349 1_545
Fe2 O14 2.066174 1_555
Fe2 O11 2.145578 1_555
O0 Te0 1.947627 1_555
O1 Te0 2.002483 1_555
O5 Te0 1.947627 1_555
O6 Te0 1.989707 1_555
O7 Te0 1.989707 1_555
O8 Te1 1.950377 1_556
O9 Te0 1.934253 1_555
O10 Te1 2.000548 1_555
O11 Te1 2.000548 1_555
O13 Te1 1.940377 1_556
O14 Te1 1.973613 1_555
O15 Te1 1.940377 1_556
