# generated using pymatgen
data_Li4Mn5V3O16
_symmetry_space_group_name_H-M   'P 1'
_cell_length_a   5.79832400
_cell_length_b   5.96418682
_cell_length_c   9.65618747
_cell_angle_alpha   89.81518551
_cell_angle_beta   91.35075077
_cell_angle_gamma   118.35744245
_symmetry_Int_Tables_number   1
_chemical_formula_structural   Li4Mn5V3O16
_chemical_formula_sum   'Li4 Mn5 V3 O16'
_cell_volume   293.76790730
_cell_formula_units_Z   1
loop_
 _symmetry_equiv_pos_site_id
 _symmetry_equiv_pos_as_xyz
  1  'x, y, z'
loop_
 _atom_site_type_symbol
 _atom_site_label
 _atom_site_symmetry_multiplicity
 _atom_site_fract_x
 _atom_site_fract_y
 _atom_site_fract_z
 _atom_site_occupancy
  Li  Li0  1  0.67095000  0.33602400  0.89564500  1
  Li  Li1  1  0.98599200  0.97172900  0.99434600  1
  Li  Li2  1  0.99720200  0.02146100  0.49473200  1
  Li  Li3  1  0.33857300  0.66653000  0.39684600  1
  Mn  Mn0  1  0.67335400  0.35053900  0.48730900  1
  Mn  Mn1  1  0.83020100  0.15417600  0.21228800  1
  Mn  Mn2  1  0.32595700  0.64618400  0.98716600  1
  Mn  Mn3  1  0.66908900  0.84400400  0.71384900  1
  Mn  Mn4  1  0.17083000  0.35705100  0.71425200  1
  V  V0  1  0.82835100  0.64480900  0.21516300  1
  V  V1  1  0.33399300  0.14654200  0.21293100  1
  V  V2  1  0.18574300  0.86214900  0.71269200  1
  O  O0  1  0.85689200  0.70688700  0.60802200  1
  O  O1  1  0.51132000  0.46746700  0.33860100  1
  O  O2  1  0.66283900  0.31717900  0.10601500  1
  O  O3  1  0.99387800  0.98476700  0.30999400  1
  O  O4  1  0.01119300  0.03163400  0.80921700  1
  O  O5  1  0.32461800  0.18023100  0.60357000  1
  O  O6  1  0.96402400  0.49829900  0.34209900  1
  O  O7  1  0.51305500  0.02834200  0.33139300  1
  O  O8  1  0.16047900  0.81489000  0.10422300  1
  O  O9  1  0.84725200  0.19665900  0.59839700  1
  O  O10  1  0.48151700  0.97767500  0.82694000  1
  O  O11  1  0.04427400  0.53493000  0.83664500  1
  O  O12  1  0.33049900  0.67033100  0.60893700  1
  O  O13  1  0.66088700  0.78792500  0.09789900  1
  O  O14  1  0.47089500  0.51356000  0.84352700  1
  O  O15  1  0.15644500  0.28832600  0.10514900  1
loop_
_geom_bond_atom_site_label_1
_geom_bond_atom_site_label_2
_geom_bond_distance
_geom_bond_site_symmetry_2
Li0 O14 1.963626 1_555
Li0 O10 1.989784 1_545
Li0 O11 2.007987 1_655
Li0 O2 2.034534 1_556
Li1 O4 1.817488 1_665
Li1 O8 1.966296 1_656
Li1 O13 1.968202 1_556
Li1 O15 1.969115 1_666
Li2 O3 1.796477 1_545
Li2 O9 1.939235 1_555
Li2 O5 1.951920 1_655
Li2 O0 1.989320 1_545
Li3 O6 1.970291 1_455
Li3 O1 1.972234 1_555
Li3 O7 2.006754 1_565
Li3 O12 2.050073 1_555
Mn0 O9 1.957394 1_555
Mn0 O1 1.995833 1_555
Mn0 O6 2.067802 1_555
Mn0 O5 2.128248 1_555
Mn0 O0 2.194805 1_555
Mn0 O7 2.253733 1_555
Mn1 O3 1.916835 1_545
Mn1 O2 1.944924 1_555
Mn1 O15 1.984449 1_655
Mn1 O7 2.012638 1_555
Mn1 O6 2.200819 1_555
Mn1 O13 2.209687 1_545
Mn2 O14 1.987267 1_555
Mn2 O13 1.994451 1_556
Mn2 O11 2.021203 1_555
Mn2 O8 2.046037 1_556
Mn2 O15 2.205375 1_556
Mn2 O10 2.338414 1_555
Mn3 O0 1.950034 1_555
Mn3 O4 1.961369 1_665
Mn3 O10 1.973900 1_555
Mn3 O12 1.983629 1_555
Mn3 O14 2.161768 1_555
Mn3 O9 2.170029 1_565
Mn4 O12 1.941989 1_555
Mn4 O4 1.945901 1_555
Mn4 O14 1.954249 1_555
Mn4 O11 1.961957 1_555
Mn4 O9 1.972254 1_455
Mn4 O5 1.998771 1_555
O0 V2 1.937196 1_655
O1 V0 2.041272 1_555
O1 V1 2.068820 1_555
O2 V1 1.994981 1_555
O2 V0 2.008561 1_555
O3 V1 1.993072 1_665
O3 V0 1.998169 1_555
O4 V2 1.984260 1_545
O5 V2 1.983342 1_545
O6 V0 1.866928 1_555
O7 V1 1.875514 1_555
O8 V1 2.024812 1_565
O8 V0 2.029723 1_455
O10 V2 1.850998 1_555
O11 V2 2.103494 1_555
O12 V2 1.994064 1_555
O13 V0 1.919079 1_555
O15 V1 1.904964 1_555
