# generated using pymatgen
data_Na5Li4Ti5O14
_symmetry_space_group_name_H-M   'P 1'
_cell_length_a   5.22651600
_cell_length_b   7.01390998
_cell_length_c   8.18933540
_cell_angle_alpha   88.74489463
_cell_angle_beta   101.97291718
_cell_angle_gamma   97.69316608
_symmetry_Int_Tables_number   1
_chemical_formula_structural   Na5Li4Ti5O14
_chemical_formula_sum   'Na5 Li4 Ti5 O14'
_cell_volume   291.02778100
_cell_formula_units_Z   1
loop_
 _symmetry_equiv_pos_site_id
 _symmetry_equiv_pos_as_xyz
  1  'x, y, z'
loop_
 _atom_site_type_symbol
 _atom_site_label
 _atom_site_symmetry_multiplicity
 _atom_site_fract_x
 _atom_site_fract_y
 _atom_site_fract_z
 _atom_site_occupancy
  Na  Na0  1  0.51195100  0.99995800  0.49786900  1
  Na  Na1  1  0.91655900  0.85686400  0.35969300  1
  Na  Na2  1  0.64700600  0.29499300  0.79514200  1
  Na  Na3  1  0.07229800  0.13477500  0.64264000  1
  Na  Na4  1  0.35789600  0.72337100  0.21571400  1
  Li  Li0  1  0.21697800  0.43309300  0.93452000  1
  Li  Li1  1  0.86132600  0.70832900  0.71677300  1
  Li  Li2  1  0.77803900  0.57486500  0.06395100  1
  Li  Li3  1  0.56839400  0.15019500  0.13922400  1
  Ti  Ti0  1  0.00222200  0.99283100  0.99620800  1
  Ti  Ti1  1  0.43119400  0.84952900  0.85957000  1
  Ti  Ti2  1  0.28528900  0.57259800  0.58203800  1
  Ti  Ti3  1  0.71106600  0.42813800  0.42233600  1
  Ti  Ti4  1  0.13881300  0.28546500  0.26998300  1
  O  O0  1  0.11161300  0.74425800  0.95604600  1
  O  O1  1  0.74311900  0.98177700  0.78205700  1
  O  O2  1  0.20742600  0.83075400  0.62770400  1
  O  O3  1  0.49655000  0.58351400  0.81815700  1
  O  O4  1  0.96980400  0.44513300  0.64915000  1
  O  O5  1  0.30805600  0.10195300  0.90661600  1
  O  O6  1  0.59544700  0.67536400  0.48121700  1
  O  O7  1  0.03034500  0.54740200  0.33738700  1
  O  O8  1  0.68849100  0.86282100  0.07814300  1
  O  O9  1  0.39831300  0.31346000  0.51357100  1
  O  O10  1  0.83292800  0.18204900  0.37555700  1
  O  O11  1  0.46512600  0.41763000  0.19939100  1
  O  O12  1  0.93367100  0.27771800  0.04806600  1
  O  O13  1  0.22027900  0.03086100  0.23167600  1
loop_
_geom_bond_atom_site_label_1
_geom_bond_atom_site_label_2
_geom_bond_distance
_geom_bond_site_symmetry_2
Na0 O2 2.283268 1_555
Na0 O10 2.348677 1_565
Na0 O9 2.366024 1_565
Na0 O6 2.386749 1_555
Na0 O1 2.398750 1_555
Na0 O13 2.410810 1_565
Na1 O13 2.285616 1_665
Na1 O6 2.343748 1_555
Na1 O7 2.346556 1_655
Na1 O8 2.368059 1_555
Na1 O10 2.390298 1_565
Na1 O2 2.415464 1_655
Na2 O3 2.292018 1_555
Na2 O12 2.302110 1_556
Na2 O1 2.327696 1_545
Na2 O4 2.385529 1_555
Na2 O5 2.404072 1_555
Na2 O9 2.410767 1_555
Na3 O5 2.278944 1_555
Na3 O4 2.314627 1_455
Na3 O10 2.324452 1_455
Na3 O2 2.347605 1_545
Na3 O1 2.383718 1_445
Na3 O9 2.389300 1_555
Na4 O0 2.258661 1_554
Na4 O11 2.301303 1_555
Na4 O6 2.311328 1_555
Na4 O8 2.349112 1_555
Na4 O7 2.352682 1_555
Na4 O13 2.377495 1_565
Li0 O3 2.068136 1_555
Li0 O12 2.083174 1_456
Li0 O11 2.293264 1_556
Li0 O0 2.340190 1_555
Li0 O4 2.430126 1_455
Li0 O5 2.457155 1_555
Li1 O0 2.117587 1_655
Li1 O4 2.119254 1_555
Li1 O6 2.127686 1_555
Li1 O2 2.155369 1_655
Li1 O1 2.201187 1_555
Li1 O3 2.295334 1_555
Li2 O8 2.144217 1_555
Li2 O3 2.238242 1_554
Li2 O0 2.295788 1_654
Li2 O11 2.310259 1_555
Li2 O12 2.352013 1_555
Li2 O7 2.369446 1_655
Li3 O5 2.103363 1_554
Li3 O11 2.115295 1_555
Li3 O10 2.129157 1_555
Li3 O13 2.172594 1_555
Li3 O12 2.259857 1_555
Li3 O8 2.284750 1_545
O0 Ti0 1.960805 1_555
O0 Ti1 2.037414 1_555
O1 Ti0 1.976872 1_655
O1 Ti1 1.979863 1_555
O2 Ti2 1.968281 1_555
O2 Ti1 2.009733 1_555
O3 Ti1 1.989811 1_555
O3 Ti2 2.015460 1_555
O4 Ti2 1.944213 1_655
O4 Ti3 2.053642 1_555
O5 Ti0 1.952837 1_545
O5 Ti1 2.033486 1_545
O6 Ti3 2.010615 1_555
O6 Ti2 2.011330 1_555
O7 Ti3 2.012648 1_455
O7 Ti4 2.110572 1_555
O7 Ti2 2.160016 1_555
O8 Ti1 1.999030 1_554
O8 Ti0 1.999949 1_654
O9 Ti3 2.001381 1_555
O9 Ti2 2.106283 1_555
O9 Ti4 2.163494 1_555
O10 Ti3 1.989016 1_555
O10 Ti4 2.016197 1_655
O11 Ti3 1.999492 1_555
O11 Ti4 2.016057 1_555
O12 Ti4 1.906719 1_655
O12 Ti0 2.143220 1_644
O13 Ti4 1.937063 1_555
O13 Ti0 2.029234 1_544
