# generated using pymatgen
data_Li3Fe3CuO8
_symmetry_space_group_name_H-M   'P 1'
_cell_length_a   5.82726938
_cell_length_b   5.82726938
_cell_length_c   5.75135423
_cell_angle_alpha   61.51057756
_cell_angle_beta   61.51057756
_cell_angle_gamma   57.16093316
_symmetry_Int_Tables_number   1
_chemical_formula_structural   Li3Fe3CuO8
_chemical_formula_sum   'Li3 Fe3 Cu1 O8'
_cell_volume   137.77180915
_cell_formula_units_Z   1
loop_
 _symmetry_equiv_pos_site_id
 _symmetry_equiv_pos_as_xyz
  1  'x, y, z'
loop_
 _atom_site_type_symbol
 _atom_site_label
 _atom_site_symmetry_multiplicity
 _atom_site_fract_x
 _atom_site_fract_y
 _atom_site_fract_z
 _atom_site_occupancy
  Li  Li0  1  0.00000000  0.00000000  0.50000000  1
  Li  Li1  1  0.50000000  0.00000000  0.50000000  1
  Li  Li2  1  0.00000000  0.50000000  0.50000000  1
  Fe  Fe0  1  0.50000000  0.50000000  0.00000000  1
  Fe  Fe1  1  0.00000000  0.50000000  0.00000000  1
  Fe  Fe2  1  0.50000000  0.00000000  0.00000000  1
  Cu  Cu0  1  0.00000000  0.00000000  0.00000000  1
  O  O0  1  0.24085700  0.24085700  0.24444400  1
  O  O1  1  0.74692600  0.74692600  0.22840800  1
  O  O2  1  0.27873900  0.77019300  0.20221500  1
  O  O3  1  0.75914300  0.75914300  0.75555600  1
  O  O4  1  0.77019300  0.27873900  0.20221500  1
  O  O5  1  0.25307400  0.25307400  0.77159200  1
  O  O6  1  0.72126100  0.22980700  0.79778500  1
  O  O7  1  0.22980700  0.72126100  0.79778500  1
loop_
_geom_bond_atom_site_label_1
_geom_bond_atom_site_label_2
_geom_bond_distance
_geom_bond_site_symmetry_2
Li0 O0 2.073796 1_555
Li0 O3 2.073796 1_445
Li0 O6 2.130698 1_455
Li0 O7 2.130698 1_545
Li0 O2 2.130698 1_545
Li0 O4 2.130698 1_455
Li1 O3 2.064294 1_545
Li1 O0 2.064294 1_555
Li1 O5 2.106451 1_555
Li1 O1 2.106451 1_545
Li1 O4 2.365975 1_555
Li1 O7 2.365975 1_545
Li2 O3 2.064294 1_455
Li2 O0 2.064294 1_555
Li2 O5 2.106451 1_555
Li2 O1 2.106451 1_455
Li2 O2 2.365975 1_555
Li2 O6 2.365975 1_455
Fe0 O2 1.899646 1_555
Fe0 O4 1.899646 1_555
Fe0 O6 1.899646 1_554
Fe0 O7 1.899646 1_554
Fe0 O3 2.227066 1_554
Fe0 O0 2.227066 1_555
Fe1 O1 1.903846 1_455
Fe1 O5 1.903846 1_554
Fe1 O7 1.940267 1_554
Fe1 O4 1.940267 1_455
Fe1 O3 1.945559 1_454
Fe1 O0 1.945559 1_555
Fe2 O1 1.903846 1_545
Fe2 O5 1.903846 1_554
Fe2 O6 1.940267 1_554
Fe2 O2 1.940267 1_545
Fe2 O0 1.945559 1_555
Fe2 O3 1.945559 1_544
Cu0 O2 1.934292 1_545
Cu0 O4 1.934292 1_455
Cu0 O7 1.934292 1_544
Cu0 O6 1.934292 1_454
Cu0 O5 2.176642 1_554
Cu0 O1 2.176642 1_445
