# generated using pymatgen
data_LiCu2(SO4)3
_symmetry_space_group_name_H-M   'P 1'
_cell_length_a   8.59729986
_cell_length_b   8.59729986
_cell_length_c   8.59729940
_cell_angle_alpha   60.01690388
_cell_angle_beta   60.01690388
_cell_angle_gamma   60.01690087
_symmetry_Int_Tables_number   1
_chemical_formula_structural   LiCu2(SO4)3
_chemical_formula_sum   'Li2 Cu4 S6 O24'
_cell_volume   449.50816768
_cell_formula_units_Z   2
loop_
 _symmetry_equiv_pos_site_id
 _symmetry_equiv_pos_as_xyz
  1  'x, y, z'
loop_
 _atom_site_type_symbol
 _atom_site_label
 _atom_site_symmetry_multiplicity
 _atom_site_fract_x
 _atom_site_fract_y
 _atom_site_fract_z
 _atom_site_occupancy
  Li  Li0  1  0.00000000  0.00000000  0.00000000  1
  Li  Li1  1  0.50000000  0.50000000  0.50000000  1
  Cu  Cu0  1  0.35476700  0.35476700  0.35476700  1
  Cu  Cu1  1  0.14523300  0.14523300  0.14523300  1
  Cu  Cu2  1  0.64523300  0.64523300  0.64523300  1
  Cu  Cu3  1  0.85476700  0.85476700  0.85476700  1
  S  S0  1  0.75000000  0.04589900  0.45410100  1
  S  S1  1  0.95410100  0.54589900  0.25000000  1
  S  S2  1  0.54589900  0.25000000  0.95410100  1
  S  S3  1  0.45410100  0.75000000  0.04589900  1
  S  S4  1  0.04589900  0.45410100  0.75000000  1
  S  S5  1  0.25000000  0.95410100  0.54589900  1
  O  O0  1  0.91086500  0.05791600  0.26838300  1
  O  O1  1  0.73161700  0.08913500  0.94208400  1
  O  O2  1  0.89308100  0.48583300  0.69458300  1
  O  O3  1  0.01416700  0.60691900  0.80541700  1
  O  O4  1  0.58913500  0.23161700  0.44208400  1
  O  O5  1  0.76838300  0.55791600  0.41086500  1
  O  O6  1  0.94208400  0.73161700  0.08913500  1
  O  O7  1  0.19458300  0.98583300  0.39308100  1
  O  O8  1  0.51416700  0.30541700  0.10691900  1
  O  O9  1  0.30541700  0.10691900  0.51416700  1
  O  O10  1  0.39308100  0.19458300  0.98583300  1
  O  O11  1  0.55791600  0.41086500  0.76838300  1
  O  O12  1  0.44208400  0.58913500  0.23161700  1
  O  O13  1  0.69458300  0.89308100  0.48583300  1
  O  O14  1  0.60691900  0.80541700  0.01416700  1
  O  O15  1  0.80541700  0.01416700  0.60691900  1
  O  O16  1  0.48583300  0.69458300  0.89308100  1
  O  O17  1  0.05791600  0.26838300  0.91086500  1
  O  O18  1  0.23161700  0.44208400  0.58913500  1
  O  O19  1  0.41086500  0.76838300  0.55791600  1
  O  O20  1  0.10691900  0.51416700  0.30541700  1
  O  O21  1  0.98583300  0.39308100  0.19458300  1
  O  O22  1  0.26838300  0.91086500  0.05791600  1
  O  O23  1  0.08913500  0.94208400  0.73161700  1
loop_
_geom_bond_atom_site_label_1
_geom_bond_atom_site_label_2
_geom_bond_distance
_geom_bond_site_symmetry_2
Li0 O0 2.271293 1_455
Li0 O23 2.271293 1_544
Li0 O22 2.271293 1_545
Li0 O1 2.271293 1_454
Li0 O17 2.271293 1_554
Li0 O6 2.271293 1_445
Li1 O11 2.271293 1_555
Li1 O12 2.271293 1_555
Li1 O19 2.271293 1_555
Li1 O4 2.271293 1_555
Li1 O5 2.271293 1_555
Li1 O18 2.271293 1_555
Cu0 O8 2.000573 1_555
Cu0 O20 2.000574 1_555
Cu0 O9 2.000574 1_555
Cu0 O18 2.080780 1_555
Cu0 O4 2.080780 1_555
Cu0 O12 2.080780 1_555
Cu1 O7 2.000573 1_545
Cu1 O21 2.000574 1_455
Cu1 O10 2.000574 1_554
Cu1 O17 2.080780 1_554
Cu1 O22 2.080780 1_545
Cu1 O0 2.080780 1_455
Cu2 O16 2.000573 1_555
Cu2 O2 2.000574 1_555
Cu2 O13 2.000574 1_555
Cu2 O5 2.080780 1_555
Cu2 O19 2.080780 1_555
Cu2 O11 2.080780 1_555
Cu3 O15 2.000573 1_565
Cu3 O3 2.000574 1_655
Cu3 O14 2.000574 1_556
Cu3 O6 2.080780 1_556
Cu3 O1 2.080780 1_565
Cu3 O23 2.080780 1_655
O0 S0 1.497865 1_555
O1 S2 1.497865 1_555
O2 S4 1.471404 1_655
O3 S4 1.471404 1_555
O4 S0 1.497865 1_555
O5 S1 1.497865 1_555
O6 S1 1.497865 1_555
O7 S5 1.471404 1_555
O8 S2 1.471404 1_554
O9 S5 1.471404 1_545
O10 S2 1.471404 1_555
O11 S2 1.497865 1_555
O12 S3 1.497865 1_555
O13 S0 1.471404 1_565
O14 S3 1.471404 1_555
O15 S0 1.471404 1_555
O16 S3 1.471404 1_556
O17 S4 1.497865 1_555
O18 S4 1.497865 1_555
O19 S5 1.497865 1_555
O20 S1 1.471404 1_455
O21 S1 1.471404 1_555
O22 S3 1.497865 1_555
O23 S5 1.497865 1_555
