# generated using pymatgen
data_Li7V3P8O29
_symmetry_space_group_name_H-M   'P 1'
_cell_length_a   9.86748727
_cell_length_b   9.89327688
_cell_length_c   13.87253551
_cell_angle_alpha   90.05122243
_cell_angle_beta   90.36465292
_cell_angle_gamma   59.92885943
_symmetry_Int_Tables_number   1
_chemical_formula_structural   Li7V3P8O29
_chemical_formula_sum   'Li14 V6 P16 O58'
_cell_volume   1171.95548922
_cell_formula_units_Z   2
loop_
 _symmetry_equiv_pos_site_id
 _symmetry_equiv_pos_as_xyz
  1  'x, y, z'
loop_
 _atom_site_type_symbol
 _atom_site_label
 _atom_site_symmetry_multiplicity
 _atom_site_fract_x
 _atom_site_fract_y
 _atom_site_fract_z
 _atom_site_occupancy
  Li  Li0  1  0.91041084  0.77571396  0.05944398  1
  Li  Li1  1  0.77059271  0.90332865  0.56344440  1
  Li  Li2  1  0.90251685  0.32417125  0.56111519  1
  Li  Li3  1  0.66341064  0.66787204  0.88093374  1
  Li  Li4  1  0.77541990  0.31424353  0.05997682  1
  Li  Li5  1  0.31520528  0.91074209  0.05986704  1
  Li  Li6  1  0.68454135  0.22514964  0.44039684  1
  Li  Li7  1  0.32332591  0.77335820  0.56369592  1
  Li  Li8  1  0.67653194  0.09668611  0.93622701  1
  Li  Li9  1  0.22944263  0.67391960  0.93639155  1
  Li  Li10  1  0.33652132  0.33105282  0.61920126  1
  Li  Li11  1  0.08959991  0.68699116  0.44044141  1
  Li  Li12  1  0.22450685  0.08972828  0.44008747  1
  Li  Li13  1  0.09728873  0.22662356  0.93899668  1
  V  V0  1  0.56621467  0.43392229  0.24853893  1
  V  V1  1  0.43193054  0.56809784  0.75040021  1
  V  V2  1  0.56806736  0.00002493  0.74955946  1
  V  V3  1  0.43379964  0.00150230  0.25139143  1
  V  V4  1  0.99913411  0.56507391  0.24972972  1
  V  V5  1  0.00000187  0.43278190  0.75001847  1
  P  P0  1  0.91243567  0.76763695  0.84342878  1
  P  P1  1  0.76902632  0.91155186  0.34256273  1
  P  P2  1  0.91162616  0.32013603  0.34099306  1
  P  P3  1  0.66660036  0.66677446  0.12692907  1
  P  P4  1  0.66814544  0.66725812  0.62375629  1
  P  P5  1  0.77013011  0.32061957  0.84315939  1
  P  P6  1  0.67854574  0.23183403  0.65600797  1
  P  P7  1  0.32140680  0.91044342  0.84396264  1
  P  P8  1  0.67887344  0.08818106  0.15804982  1
  P  P9  1  0.32193044  0.76760320  0.34244425  1
  P  P10  1  0.23044807  0.68191565  0.15800072  1
  P  P11  1  0.33352496  0.33290677  0.37360299  1
  P  P12  1  0.33185077  0.33562330  0.87632482  1
  P  P13  1  0.08763427  0.67995854  0.65660162  1
  P  P14  1  0.22977807  0.09072801  0.65689279  1
  P  P15  1  0.08834890  0.23179371  0.15814663  1
  O  O0  1  0.99269076  0.75716622  0.56734882  1
  O  O1  1  0.91694655  0.74888485  0.34136342  1
  O  O2  1  0.75721884  0.99928596  0.06822514  1
  O  O3  1  0.75275298  0.91764300  0.84544397  1
  O  O4  1  0.88904299  0.62481923  0.82790995  1
  O  O5  1  0.81566234  0.67098977  0.16707830  1
  O  O6  1  0.90030642  0.47911836  0.32471203  1
  O  O7  1  0.99910953  0.24165404  0.06780083  1
  O  O8  1  0.92271712  0.32848429  0.84366403  1
  O  O9  1  0.67611514  0.81162572  0.66276172  1
  O  O10  1  0.62155322  0.89908669  0.32363757  1
  O  O11  1  0.81965386  0.51526487  0.67031468  1
  O  O12  1  0.66934654  0.66643878  0.01876543  1
  O  O13  1  0.67948789  0.65416972  0.51664329  1
  O  O14  1  0.67370394  0.51271154  0.16441864  1
  O  O15  1  0.48808953  0.88328648  0.82978283  1
  O  O16  1  0.51516642  0.81396865  0.16569992  1
  O  O17  1  0.74650481  0.33623906  0.33831563  1
  O  O18  1  0.78289625  0.21833510  0.74983756  1
  O  O19  1  0.75858142  0.24739085  0.56773166  1
  O  O20  1  0.75882649  0.23922408  0.93202439  1
  O  O21  1  0.63002586  0.48701155  0.83013151  1
  O  O22  1  0.51824881  0.67130263  0.66354511  1
  O  O23  1  0.66301383  0.25212909  0.15855115  1
  O  O24  1  0.48047923  0.62137155  0.32348378  1
  O  O25  1  0.33658200  0.91659199  0.34130293  1
  O  O26  1  0.78940123  0.00015048  0.25009739  1
  O  O27  1  0.75669693  0.00182511  0.43237597  1
  O  O28  1  0.24088051  0.99825878  0.56789583  1
  O  O29  1  0.67333996  0.07946943  0.65497970  1
  O  O30  1  0.51188821  0.37134832  0.67016565  1
  O  O31  1  0.32655151  0.75288969  0.84500707  1
  O  O32  1  0.48519299  0.32711726  0.33520244  1
  O  O33  1  0.38137741  0.52176017  0.17658620  1
  O  O34  1  0.24390066  0.75785918  0.06791465  1
  O  O35  1  0.24224911  0.75827125  0.43191438  1
  O  O36  1  0.21089200  0.78958726  0.24995962  1
  O  O37  1  0.24730946  0.67030423  0.65453262  1
  O  O38  1  0.48176845  0.18955189  0.83668075  1
  O  O39  1  0.51939975  0.09886303  0.17504814  1
  O  O40  1  0.32397970  0.48777619  0.83726666  1
  O  O41  1  0.32045599  0.33432338  0.98346235  1
  O  O42  1  0.32974799  0.33488925  0.48170360  1
  O  O43  1  0.18479754  0.48515540  0.33286337  1
  O  O44  1  0.36998420  0.11693571  0.66999540  1
  O  O45  1  0.32670247  0.18565074  0.33495587  1
  O  O46  1  0.08426382  0.66419050  0.15844263  1
  O  O47  1  0.00009536  0.78338921  0.75009096  1
  O  O48  1  0.00724618  0.74993302  0.93279389  1
  O  O49  1  0.11094463  0.51384373  0.67218248  1
  O  O50  1  0.18039480  0.33503300  0.82972818  1
  O  O51  1  0.10049720  0.37875053  0.17628168  1
  O  O52  1  0.25141745  0.08306658  0.16035831  1
  O  O53  1  0.24140414  0.00601203  0.93227860  1
  O  O54  1  0.21708447  0.00118117  0.75012145  1
  O  O55  1  0.07723633  0.25118512  0.65643429  1
  O  O56  1  0.99933376  0.24113419  0.43160919  1
  O  O57  1  0.99985144  0.21015241  0.24985727  1
loop_
_geom_bond_atom_site_label_1
_geom_bond_atom_site_label_2
_geom_bond_distance
_geom_bond_site_symmetry_2
Li0 O48 1.959925 1_654
Li0 O2 1.960444 1_555
Li0 O46 2.030338 1_655
Li0 O5 2.273394 1_555
Li1 O0 1.928625 1_555
Li1 O29 1.976294 1_565
Li1 O27 2.034820 1_565
Li1 O9 2.111081 1_555
Li2 O19 1.919790 1_555
Li2 O55 1.991824 1_655
Li2 O56 2.011949 1_555
Li2 O11 2.235859 1_555
Li3 O12 1.912447 1_556
Li3 O15 2.080978 1_555
Li3 O21 2.095782 1_555
Li3 O4 2.179310 1_555
Li4 O7 1.951419 1_555
Li4 O20 1.960636 1_554
Li4 O23 2.044931 1_555
Li4 O14 2.236157 1_555
Li5 O53 1.962197 1_564
Li5 O34 1.965451 1_555
Li5 O52 2.043934 1_565
Li5 O16 2.244513 1_555
Li6 O27 1.955739 1_555
Li6 O19 1.961257 1_555
Li6 O17 2.067453 1_555
Li6 O32 2.234743 1_555
Li7 O28 1.949934 1_555
Li7 O37 1.992678 1_555
Li7 O35 2.026078 1_555
Li7 O22 2.158700 1_555
Li8 O20 1.949283 1_555
Li8 O3 1.990551 1_545
Li8 O2 2.032557 1_546
Li8 O38 2.154897 1_555
Li9 O48 1.929114 1_555
Li9 O31 1.975652 1_555
Li9 O34 2.037572 1_556
Li9 O40 2.107776 1_555
Li10 O42 1.907932 1_555
Li10 O30 2.080486 1_555
Li10 O44 2.095609 1_555
Li10 O49 2.179347 1_555
Li11 O35 1.961385 1_555
Li11 O0 1.962090 1_455
Li11 O1 2.023065 1_455
Li11 O43 2.286838 1_555
Li12 O28 1.959931 1_545
Li12 O56 1.963671 1_455
Li12 O25 2.037574 1_545
Li12 O45 2.241596 1_555
Li13 O53 1.919755 1_555
Li13 O8 1.991379 1_455
Li13 O7 2.007645 1_456
Li13 O50 2.240686 1_555
O0 P13 1.504650 1_655
O1 P1 1.538457 1_555
O1 V4 2.027705 1_555
O2 P8 1.500935 1_565
O3 P0 1.530688 1_555
O3 V2 2.058465 1_565
O4 P0 1.556176 1_555
O4 V5 1.975518 1_655
O5 P3 1.589468 1_555
O5 V4 1.940317 1_555
O6 P2 1.536756 1_555
O6 V4 1.897811 1_555
O7 P15 1.501941 1_655
O8 P5 1.546077 1_555
O8 V5 2.034091 1_655
O9 P4 1.565110 1_555
O9 V2 2.020270 1_565
O10 P1 1.541633 1_555
O10 V3 1.886909 1_565
O11 P4 1.627855 1_555
O11 V5 1.891198 1_655
O12 P3 1.500892 1_555
O13 P4 1.491485 1_555
O14 P3 1.578741 1_555
O14 V0 1.985016 1_555
O15 P7 1.541826 1_555
O15 V2 2.030293 1_565
O16 P3 1.571906 1_555
O16 V3 2.003842 1_565
O17 P2 1.555826 1_555
O17 V0 1.975076 1_555
O18 P5 1.608686 1_555
O18 P6 1.617967 1_555
O19 P6 1.510476 1_555
O20 P5 1.508041 1_555
O21 P5 1.539621 1_555
O21 V1 2.022479 1_555
O22 P4 1.563669 1_555
O22 V1 2.026464 1_555
O23 P8 1.549511 1_555
O23 V0 1.998757 1_555
O24 P9 1.531696 1_555
O24 V0 1.916049 1_555
O25 P9 1.551586 1_555
O25 V3 2.001588 1_565
O26 P8 1.615827 1_555
O26 P1 1.623582 1_545
O27 P1 1.501945 1_545
O28 P14 1.507461 1_565
O29 P6 1.533819 1_555
O29 V2 2.062933 1_555
O30 P6 1.541738 1_555
O30 V1 2.029407 1_555
O31 P7 1.533993 1_555
O31 V1 2.062528 1_555
O32 P11 1.565571 1_555
O32 V0 2.015481 1_555
O33 P10 1.557572 1_555
O33 V0 1.862271 1_555
O34 P10 1.499221 1_555
O35 P9 1.500871 1_555
O36 P10 1.610610 1_555
O36 P9 1.624090 1_555
O37 P13 1.530424 1_555
O37 V1 2.058017 1_555
O38 P12 1.563891 1_555
O38 V2 2.027447 1_555
O39 P8 1.543058 1_555
O39 V3 1.895105 1_555
O40 P12 1.565017 1_555
O40 V1 2.021042 1_555
O41 P12 1.491782 1_555
O42 P11 1.500196 1_555
O43 P11 1.586701 1_555
O43 V4 1.958222 1_455
O44 P14 1.539637 1_555
O44 V2 2.021311 1_555
O45 P11 1.584550 1_555
O45 V3 1.965228 1_555
O46 P10 1.537895 1_555
O46 V4 2.027843 1_455
O47 P0 1.612072 1_455
O47 P13 1.612869 1_555
O48 P0 1.504738 1_455
O49 P13 1.556160 1_555
O49 V5 1.975835 1_555
O50 P12 1.627215 1_555
O50 V5 1.891613 1_555
O51 P15 1.537875 1_555
O51 V4 1.896957 1_455
O52 P15 1.543325 1_555
O52 V3 2.000570 1_555
O53 P7 1.510104 1_545
O54 P14 1.608885 1_555
O54 P7 1.618394 1_545
O55 P14 1.546284 1_555
O55 V5 2.032307 1_555
O56 P2 1.500051 1_555
O57 P2 1.613229 1_555
O57 P15 1.621432 1_655
