# generated using pymatgen
data_Na6CoO4
_symmetry_space_group_name_H-M   'P 1'
_cell_length_a   9.32449899
_cell_length_b   9.32449899
_cell_length_c   9.32449899
_cell_angle_alpha   109.47122063
_cell_angle_beta   109.47122063
_cell_angle_gamma   109.47122063
_symmetry_Int_Tables_number   1
_chemical_formula_structural   Na6CoO4
_chemical_formula_sum   'Na24 Co4 O16'
_cell_volume   624.10063940
_cell_formula_units_Z   4
loop_
 _symmetry_equiv_pos_site_id
 _symmetry_equiv_pos_as_xyz
  1  'x, y, z'
loop_
 _atom_site_type_symbol
 _atom_site_label
 _atom_site_symmetry_multiplicity
 _atom_site_fract_x
 _atom_site_fract_y
 _atom_site_fract_z
 _atom_site_occupancy
  Na  Na0  1  0.73347000  0.46247700  0.00000000  1
  Na  Na1  1  0.73347000  0.00000000  0.46247700  1
  Na  Na2  1  0.43069900  0.21594000  0.00000000  1
  Na  Na3  1  0.43069900  0.00000000  0.21594000  1
  Na  Na4  1  0.72900800  0.26653000  0.26653000  1
  Na  Na5  1  0.78406000  0.78406000  0.21475900  1
  Na  Na6  1  0.78406000  0.21475900  0.78406000  1
  Na  Na7  1  0.21594000  0.43069900  0.00000000  1
  Na  Na8  1  0.21594000  0.00000000  0.43069900  1
  Na  Na9  1  0.53752300  0.27099200  0.53752300  1
  Na  Na10  1  0.53752300  0.53752300  0.27099200  1
  Na  Na11  1  0.46247700  0.73347000  0.00000000  1
  Na  Na12  1  0.46247700  0.00000000  0.73347000  1
  Na  Na13  1  0.78524100  0.56930100  0.56930100  1
  Na  Na14  1  0.00000000  0.43069900  0.21594000  1
  Na  Na15  1  0.00000000  0.21594000  0.43069900  1
  Na  Na16  1  0.26653000  0.72900800  0.26653000  1
  Na  Na17  1  0.26653000  0.26653000  0.72900800  1
  Na  Na18  1  0.56930100  0.78524100  0.56930100  1
  Na  Na19  1  0.56930100  0.56930100  0.78524100  1
  Na  Na20  1  0.27099200  0.53752300  0.53752300  1
  Na  Na21  1  0.00000000  0.73347000  0.46247700  1
  Na  Na22  1  0.00000000  0.46247700  0.73347000  1
  Na  Na23  1  0.21475900  0.78406000  0.78406000  1
  Co  Co0  1  0.74723800  0.00000000  0.00000000  1
  Co  Co1  1  0.25276200  0.25276200  0.25276200  1
  Co  Co2  1  0.00000000  0.74723800  0.00000000  1
  Co  Co3  1  0.00000000  0.00000000  0.74723800  1
  O  O0  1  0.72210200  0.20984900  0.00000000  1
  O  O1  1  0.72210200  0.00000000  0.20984900  1
  O  O2  1  0.00000000  0.00000000  0.00000000  1
  O  O3  1  0.50000000  0.50000000  0.00000000  1
  O  O4  1  0.50000000  0.00000000  0.50000000  1
  O  O5  1  0.48774700  0.27789800  0.27789800  1
  O  O6  1  0.79015100  0.51225300  0.79015100  1
  O  O7  1  0.79015100  0.79015100  0.51225300  1
  O  O8  1  0.20984900  0.72210200  0.00000000  1
  O  O9  1  0.20984900  0.00000000  0.72210200  1
  O  O10  1  0.27789800  0.48774700  0.27789800  1
  O  O11  1  0.27789800  0.27789800  0.48774700  1
  O  O12  1  0.00000000  0.72210200  0.20984900  1
  O  O13  1  0.00000000  0.20984900  0.72210200  1
  O  O14  1  0.00000000  0.50000000  0.50000000  1
  O  O15  1  0.51225300  0.79015100  0.79015100  1
loop_
_geom_bond_atom_site_label_1
_geom_bond_atom_site_label_2
_geom_bond_distance
_geom_bond_site_symmetry_2
Na0 O3 2.317219 1_555
Na0 O0 2.322447 1_555
Na0 O6 2.335584 1_554
Na0 O12 2.335584 1_655
Na1 O4 2.317219 1_555
Na1 O1 2.322447 1_555
Na1 O13 2.335584 1_655
Na1 O7 2.335584 1_545
Na2 O5 2.282436 1_555
Na2 O9 2.282436 1_554
Na2 O3 2.508428 1_555
Na2 O0 2.736643 1_555
Na3 O5 2.282436 1_555
Na3 O8 2.282436 1_545
Na3 O4 2.508428 1_555
Na3 O1 2.736643 1_555
Na4 O14 2.317214 1_655
Na4 O5 2.322456 1_555
Na4 O0 2.335580 1_555
Na4 O1 2.335580 1_555
Na5 O1 2.282436 1_565
Na5 O12 2.282436 1_655
Na5 O3 2.508428 1_555
Na5 O7 2.736643 1_555
Na6 O0 2.282436 1_556
Na6 O13 2.282436 1_655
Na6 O4 2.508428 1_555
Na6 O6 2.736643 1_555
Na7 O13 2.282436 1_554
Na7 O10 2.282436 1_555
Na7 O3 2.508428 1_555
Na7 O8 2.736643 1_555
Na8 O11 2.282436 1_555
Na8 O12 2.282436 1_545
Na8 O4 2.508428 1_555
Na8 O9 2.736643 1_555
Na9 O4 2.317209 1_555
Na9 O6 2.322450 1_555
Na9 O11 2.335588 1_555
Na9 O5 2.335588 1_555
Na10 O3 2.317209 1_555
Na10 O7 2.322450 1_555
Na10 O5 2.335588 1_555
Na10 O10 2.335588 1_555
Na11 O3 2.317219 1_555
Na11 O8 2.322447 1_555
Na11 O15 2.335584 1_554
Na11 O1 2.335584 1_565
Na12 O4 2.317219 1_555
Na12 O9 2.322447 1_555
Na12 O0 2.335584 1_556
Na12 O15 2.335584 1_545
Na13 O7 2.282436 1_555
Na13 O6 2.282436 1_555
Na13 O14 2.508428 1_655
Na13 O5 2.736643 1_555
Na14 O0 2.282436 1_455
Na14 O10 2.282436 1_555
Na14 O14 2.508428 1_555
Na14 O12 2.736643 1_555
Na15 O11 2.282436 1_555
Na15 O1 2.282436 1_455
Na15 O14 2.508428 1_555
Na15 O13 2.736643 1_555
Na16 O4 2.317214 1_565
Na16 O10 2.322456 1_555
Na16 O8 2.335580 1_555
Na16 O12 2.335580 1_555
Na17 O3 2.317214 1_556
Na17 O11 2.322456 1_555
Na17 O13 2.335580 1_555
Na17 O9 2.335580 1_555
Na18 O7 2.282436 1_555
Na18 O15 2.282436 1_555
Na18 O4 2.508428 1_565
Na18 O10 2.736643 1_555
Na19 O6 2.282436 1_555
Na19 O15 2.282436 1_555
Na19 O3 2.508428 1_556
Na19 O11 2.736643 1_555
Na20 O14 2.317209 1_555
Na20 O15 2.322450 1_555
Na20 O10 2.335588 1_555
Na20 O11 2.335588 1_555
Na21 O14 2.317219 1_555
Na21 O12 2.322447 1_555
Na21 O9 2.335584 1_565
Na21 O7 2.335584 1_455
Na22 O14 2.317219 1_555
Na22 O13 2.322447 1_555
Na22 O8 2.335584 1_556
Na22 O6 2.335584 1_455
Na23 O8 2.282436 1_556
Na23 O9 2.282436 1_565
Na23 O14 2.508428 1_555
Na23 O15 2.736643 1_555
Co0 O15 2.046827 1_544
Co0 O0 2.046827 1_555
Co0 O1 2.046827 1_555
Co0 O2 2.356879 1_655
Co1 O10 2.046827 1_555
Co1 O11 2.046827 1_555
Co1 O5 2.046827 1_555
Co1 O2 2.356879 1_555
Co2 O6 2.046827 1_454
Co2 O12 2.046827 1_555
Co2 O8 2.046827 1_555
Co2 O2 2.356879 1_565
Co3 O7 2.046827 1_445
Co3 O9 2.046827 1_555
Co3 O13 2.046827 1_555
Co3 O2 2.356879 1_556
