# generated using pymatgen
data_Li2V2SiGeO10
_symmetry_space_group_name_H-M   'P 1'
_cell_length_a   4.69454700
_cell_length_b   9.03155200
_cell_length_c   9.10961400
_cell_angle_alpha   90.00000000
_cell_angle_beta   90.00000000
_cell_angle_gamma   90.00000000
_symmetry_Int_Tables_number   1
_chemical_formula_structural   Li2V2SiGeO10
_chemical_formula_sum   'Li4 V4 Si2 Ge2 O20'
_cell_volume   386.23893708
_cell_formula_units_Z   2
loop_
 _symmetry_equiv_pos_site_id
 _symmetry_equiv_pos_as_xyz
  1  'x, y, z'
loop_
 _atom_site_type_symbol
 _atom_site_label
 _atom_site_symmetry_multiplicity
 _atom_site_fract_x
 _atom_site_fract_y
 _atom_site_fract_z
 _atom_site_occupancy
  Li  Li0  1  0.00000000  0.75000000  0.25821300  1
  Li  Li1  1  0.00000000  0.25000000  0.25821300  1
  Li  Li2  1  0.00000000  0.75000000  0.74178700  1
  Li  Li3  1  0.00000000  0.25000000  0.74178700  1
  V  V0  1  0.60645100  0.00000000  0.25506900  1
  V  V1  1  0.39354900  0.50000000  0.25506900  1
  V  V2  1  0.39354900  0.00000000  0.74493100  1
  V  V3  1  0.60645100  0.50000000  0.74493100  1
  Si  Si0  1  0.50000000  0.75000000  0.50000000  1
  Si  Si1  1  0.50000000  0.25000000  0.50000000  1
  Ge  Ge0  1  0.50000000  0.75000000  0.00000000  1
  Ge  Ge1  1  0.50000000  0.25000000  0.00000000  1
  O  O0  1  0.25884500  0.00000000  0.25094300  1
  O  O1  1  0.72360900  0.85555800  0.11577100  1
  O  O2  1  0.27639100  0.64444200  0.11577100  1
  O  O3  1  0.70681300  0.85219200  0.39524200  1
  O  O4  1  0.27639100  0.35555800  0.11577100  1
  O  O5  1  0.74115500  0.50000000  0.25094300  1
  O  O6  1  0.29318700  0.64780800  0.39524200  1
  O  O7  1  0.29318700  0.85219200  0.60475800  1
  O  O8  1  0.74115500  0.00000000  0.74905700  1
  O  O9  1  0.72360900  0.14444200  0.11577100  1
  O  O10  1  0.70681300  0.64780800  0.60475800  1
  O  O11  1  0.29318700  0.35219200  0.39524200  1
  O  O12  1  0.27639100  0.85555800  0.88422900  1
  O  O13  1  0.70681300  0.14780800  0.39524200  1
  O  O14  1  0.70681300  0.35219200  0.60475800  1
  O  O15  1  0.25884500  0.50000000  0.74905700  1
  O  O16  1  0.72360900  0.64444200  0.88422900  1
  O  O17  1  0.29318700  0.14780800  0.60475800  1
  O  O18  1  0.72360900  0.35555800  0.88422900  1
  O  O19  1  0.27639100  0.14444200  0.88422900  1
loop_
_geom_bond_atom_site_label_1
_geom_bond_atom_site_label_2
_geom_bond_distance
_geom_bond_site_symmetry_2
Li0 O1 2.067900 1_455
Li0 O2 2.067900 1_555
Li0 O3 2.074722 1_455
Li0 O6 2.074722 1_555
Li0 O0 2.564967 1_565
Li0 O5 2.564967 1_455
Li1 O4 2.067900 1_555
Li1 O9 2.067900 1_455
Li1 O11 2.074722 1_555
Li1 O13 2.074722 1_455
Li1 O5 2.564967 1_455
Li1 O0 2.564967 1_555
Li2 O12 2.067900 1_555
Li2 O16 2.067900 1_455
Li2 O7 2.074722 1_555
Li2 O10 2.074722 1_455
Li2 O15 2.564967 1_555
Li2 O8 2.564967 1_465
Li3 O19 2.067900 1_555
Li3 O18 2.067900 1_455
Li3 O17 2.074722 1_555
Li3 O14 2.074722 1_455
Li3 O15 2.564967 1_555
Li3 O8 2.564967 1_455
Ge0 O1 1.767225 1_555
Ge0 O2 1.767225 1_555
Ge0 O12 1.767225 1_554
Ge0 O16 1.767225 1_554
Ge1 O4 1.767225 1_555
Ge1 O9 1.767225 1_555
Ge1 O18 1.767225 1_554
Ge1 O19 1.767225 1_554
O0 V0 1.632286 1_555
O1 V0 1.901198 1_565
O2 V1 1.901198 1_555
O3 Si0 1.644741 1_555
O3 V0 1.906455 1_565
O4 V1 1.901198 1_555
O5 V1 1.632286 1_555
O6 Si0 1.644741 1_555
O6 V1 1.906455 1_555
O7 Si0 1.644741 1_555
O7 V2 1.906455 1_565
O8 V2 1.632286 1_555
O9 V0 1.901198 1_555
O10 Si0 1.644741 1_555
O10 V3 1.906455 1_555
O11 Si1 1.644741 1_555
O11 V1 1.906455 1_555
O12 V2 1.901198 1_565
O13 Si1 1.644741 1_555
O13 V0 1.906455 1_555
O14 Si1 1.644741 1_555
O14 V3 1.906455 1_555
O15 V3 1.632286 1_555
O16 V3 1.901198 1_555
O17 Si1 1.644741 1_555
O17 V2 1.906455 1_555
O18 V3 1.901198 1_555
O19 V2 1.901198 1_555
