# generated using pymatgen
data_FeAg(SeO3)2
_symmetry_space_group_name_H-M   'P 1'
_cell_length_a   5.36774900
_cell_length_b   7.77060200
_cell_length_c   14.16388400
_cell_angle_alpha   90.00000000
_cell_angle_beta   90.00000000
_cell_angle_gamma   90.00000000
_symmetry_Int_Tables_number   1
_chemical_formula_structural   FeAg(SeO3)2
_chemical_formula_sum   'Fe4 Ag4 Se8 O24'
_cell_volume   590.78468232
_cell_formula_units_Z   4
loop_
 _symmetry_equiv_pos_site_id
 _symmetry_equiv_pos_as_xyz
  1  'x, y, z'
loop_
 _atom_site_type_symbol
 _atom_site_label
 _atom_site_symmetry_multiplicity
 _atom_site_fract_x
 _atom_site_fract_y
 _atom_site_fract_z
 _atom_site_occupancy
  Fe  Fe0  1  0.28987500  0.69459000  0.12607500  1
  Fe  Fe1  1  0.78987500  0.19459000  0.37392500  1
  Fe  Fe2  1  0.21012500  0.69459000  0.62607500  1
  Fe  Fe3  1  0.71012500  0.19459000  0.87392500  1
  Ag  Ag0  1  0.86768400  0.18366000  0.62112400  1
  Ag  Ag1  1  0.63231600  0.18366000  0.12112400  1
  Ag  Ag2  1  0.36768400  0.68366000  0.87887600  1
  Ag  Ag3  1  0.13231600  0.68366000  0.37887600  1
  Se  Se0  1  0.30245100  0.01254700  0.47275400  1
  Se  Se1  1  0.27107600  0.37396600  0.27812600  1
  Se  Se2  1  0.80245100  0.51254700  0.02724600  1
  Se  Se3  1  0.22892400  0.37396600  0.77812600  1
  Se  Se4  1  0.19754900  0.01254700  0.97275400  1
  Se  Se5  1  0.72892400  0.87396600  0.72187400  1
  Se  Se6  1  0.77107600  0.87396600  0.22187400  1
  Se  Se7  1  0.69754900  0.51254700  0.52724600  1
  O  O0  1  0.58812100  0.68072300  0.03657400  1
  O  O1  1  0.74400400  0.44986600  0.91228700  1
  O  O2  1  0.51247700  0.70502700  0.71445900  1
  O  O3  1  0.01247700  0.20502700  0.78554100  1
  O  O4  1  0.57780700  0.12768800  0.48803900  1
  O  O5  1  0.49677600  0.76286700  0.23857300  1
  O  O6  1  0.91187900  0.68072300  0.53657400  1
  O  O7  1  0.00322400  0.76286700  0.73857300  1
  O  O8  1  0.48752300  0.20502700  0.28554100  1
  O  O9  1  0.33118200  0.43946600  0.16369800  1
  O  O10  1  0.42219300  0.62768800  0.51196100  1
  O  O11  1  0.24400400  0.94986600  0.58771300  1
  O  O12  1  0.99677600  0.26286700  0.26142700  1
  O  O13  1  0.66881800  0.93946600  0.83630200  1
  O  O14  1  0.98752300  0.70502700  0.21445900  1
  O  O15  1  0.75599600  0.44986600  0.41228700  1
  O  O16  1  0.08812100  0.18072300  0.46342600  1
  O  O17  1  0.07780700  0.62768800  0.01196100  1
  O  O18  1  0.83118200  0.93946600  0.33630200  1
  O  O19  1  0.41187900  0.18072300  0.96342600  1
  O  O20  1  0.92219300  0.12768800  0.98803900  1
  O  O21  1  0.16881800  0.43946600  0.66369800  1
  O  O22  1  0.50322400  0.26286700  0.76142700  1
  O  O23  1  0.25599600  0.94986600  0.08771300  1
loop_
_geom_bond_atom_site_label_1
_geom_bond_atom_site_label_2
_geom_bond_distance
_geom_bond_site_symmetry_2
Fe0 O5 2.013418 1_555
Fe0 O17 2.044131 1_555
Fe0 O0 2.044881 1_555
Fe0 O14 2.051267 1_455
Fe0 O23 2.064743 1_555
Fe0 O9 2.064778 1_555
Fe1 O12 2.013418 1_555
Fe1 O4 2.044131 1_555
Fe1 O16 2.044881 1_655
Fe1 O8 2.051267 1_555
Fe1 O15 2.064743 1_555
Fe1 O18 2.064778 1_545
Fe2 O7 2.013418 1_555
Fe2 O10 2.044131 1_555
Fe2 O6 2.044881 1_455
Fe2 O2 2.051267 1_555
Fe2 O11 2.064743 1_555
Fe2 O21 2.064778 1_555
Fe3 O22 2.013418 1_555
Fe3 O20 2.044131 1_555
Fe3 O19 2.044881 1_555
Fe3 O3 2.051267 1_655
Fe3 O1 2.064743 1_555
Fe3 O13 2.064778 1_545
Ag0 O3 2.460662 1_655
Ag0 O4 2.482638 1_555
Ag0 O16 2.527774 1_655
Ag0 O21 2.632039 1_655
Ag0 O11 2.757677 1_645
Ag0 O22 2.855723 1_555
Ag0 Se5 2.895240 1_545
Ag0 Se7 3.022151 1_555
Ag1 O8 2.460662 1_555
Ag1 O20 2.482638 1_554
Ag1 O19 2.527774 1_554
Ag1 O9 2.632039 1_555
Ag1 O23 2.757677 1_545
Ag1 O12 2.855723 1_555
Ag1 Se6 2.895240 1_545
Ag1 Se2 3.022151 1_555
Ag2 O2 2.460662 1_555
Ag2 O17 2.482638 1_556
Ag2 O0 2.527774 1_556
Ag2 O13 2.632039 1_555
Ag2 O1 2.757677 1_555
Ag2 O7 2.855723 1_555
Ag2 Se3 2.895240 1_555
Ag2 Se4 3.022151 1_565
Ag3 O14 2.460662 1_455
Ag3 O10 2.482638 1_555
Ag3 O6 2.527774 1_455
Ag3 O18 2.632039 1_455
Ag3 O15 2.757677 1_455
Ag3 O5 2.855723 1_555
Ag3 Se1 2.895240 1_555
Ag3 Se0 3.022151 1_565
O0 Se2 1.746092 1_555
O1 Se2 1.728269 1_556
O2 Se5 1.756195 1_555
O3 Se3 1.756195 1_555
O4 Se0 1.741262 1_555
O5 Se6 1.723115 1_555
O6 Se7 1.746092 1_555
O7 Se5 1.723115 1_455
O8 Se1 1.756195 1_555
O9 Se1 1.729151 1_555
O10 Se7 1.741262 1_555
O11 Se0 1.728269 1_565
O12 Se1 1.723115 1_655
O13 Se5 1.729151 1_555
O14 Se6 1.756195 1_555
O15 Se7 1.728269 1_555
O16 Se0 1.746092 1_555
O17 Se2 1.741262 1_455
O18 Se6 1.729151 1_555
O19 Se4 1.746092 1_555
O20 Se4 1.741262 1_655
O21 Se3 1.729151 1_555
O22 Se3 1.723115 1_555
O23 Se4 1.728269 1_564
