# generated using pymatgen
data_Li2NiO2F
_symmetry_space_group_name_H-M   'P 1'
_cell_length_a   5.02960838
_cell_length_b   5.02960838
_cell_length_c   9.57649528
_cell_angle_alpha   85.41149456
_cell_angle_beta   85.41149456
_cell_angle_gamma   120.53701594
_symmetry_Int_Tables_number   1
_chemical_formula_structural   Li2NiO2F
_chemical_formula_sum   'Li8 Ni4 O8 F4'
_cell_volume   205.92298317
_cell_formula_units_Z   4
loop_
 _symmetry_equiv_pos_site_id
 _symmetry_equiv_pos_as_xyz
  1  'x, y, z'
loop_
 _atom_site_type_symbol
 _atom_site_label
 _atom_site_symmetry_multiplicity
 _atom_site_fract_x
 _atom_site_fract_y
 _atom_site_fract_z
 _atom_site_occupancy
  Li  Li0  1  0.83520600  0.65937000  0.24642300  1
  Li  Li1  1  0.99743200  0.48945300  0.75352000  1
  Li  Li2  1  0.90975100  0.09024900  0.00000000  1
  Li  Li3  1  0.34063000  0.16479400  0.75357700  1
  Li  Li4  1  0.51054700  0.00256800  0.24648000  1
  Li  Li5  1  0.66573700  0.84591800  0.75748600  1
  Li  Li6  1  0.25157900  0.74842100  0.00000000  1
  Li  Li7  1  0.15408200  0.33426300  0.24251400  1
  Ni  Ni0  1  0.74830500  0.25169500  0.50000000  1
  Ni  Ni1  1  0.59941000  0.40059000  0.00000000  1
  Ni  Ni2  1  0.07868200  0.92131800  0.50000000  1
  Ni  Ni3  1  0.41316100  0.58683900  0.50000000  1
  O  O0  1  0.71249800  0.57676300  0.60669300  1
  O  O1  1  0.86283500  0.37054800  0.12222400  1
  O  O2  1  0.76490100  0.92757700  0.38710400  1
  O  O3  1  0.42323700  0.28750200  0.39330700  1
  O  O4  1  0.62945200  0.13716500  0.87777600  1
  O  O5  1  0.37076500  0.85968200  0.61231100  1
  O  O6  1  0.14031800  0.62923500  0.38768900  1
  O  O7  1  0.07242300  0.23509900  0.61289600  1
  F  F0  1  0.96308900  0.79644400  0.87224200  1
  F  F1  1  0.54102000  0.68863000  0.12161300  1
  F  F2  1  0.20355600  0.03691100  0.12775800  1
  F  F3  1  0.31137000  0.45898000  0.87838700  1
loop_
_geom_bond_atom_site_label_1
_geom_bond_atom_site_label_2
_geom_bond_distance
_geom_bond_site_symmetry_2
Li0 O1 1.999830 1_555
Li0 O2 2.111656 1_555
Li0 O6 2.178032 1_655
Li0 O3 2.223676 1_555
Li1 O4 1.989660 1_555
Li1 O7 2.068126 1_655
Li1 O5 2.111793 1_655
Li1 O0 2.255404 1_555
Li2 O4 1.992762 1_554
Li2 O1 1.992762 1_555
Li3 O4 1.999830 1_555
Li3 O7 2.111656 1_555
Li3 O5 2.178032 1_545
Li3 O0 2.223676 1_555
Li4 O1 1.989660 1_555
Li4 O2 2.068126 1_545
Li4 O6 2.111793 1_545
Li4 O3 2.255404 1_555
Li5 O4 2.003531 1_565
Li5 O0 2.134304 1_555
Li5 O5 2.134869 1_555
Li5 O7 2.230981 1_665
Li6 O4 2.075277 1_564
Li6 O1 2.075277 1_455
Li7 O1 2.003531 1_455
Li7 O3 2.134304 1_555
Li7 O6 2.134869 1_555
Li7 O2 2.230981 1_445
Ni0 O5 2.044354 1_545
Ni0 O6 2.044354 1_655
Ni0 O2 2.058929 1_545
Ni0 O7 2.058929 1_655
Ni0 O0 2.070401 1_555
Ni0 O3 2.070401 1_555
Ni1 O1 1.889851 1_555
Ni1 O4 1.889851 1_554
Ni2 O0 1.900386 1_455
Ni2 O3 1.900386 1_565
Ni2 O7 1.994646 1_565
Ni2 O2 1.994646 1_455
Ni2 O5 2.018240 1_555
Ni2 O6 2.018240 1_555
Ni3 O2 1.884742 1_555
Ni3 O7 1.884742 1_555
Ni3 O5 1.892689 1_555
Ni3 O6 1.892689 1_555
Ni3 O0 1.904882 1_555
Ni3 O3 1.904882 1_555
F0 Li3 2.018030 1_665
F0 Li5 2.025767 1_555
F0 Li1 2.055972 1_555
F0 Li6 2.062402 1_656
F0 Ni1 2.087619 1_556
F0 Li2 2.095740 1_566
F1 Li7 2.022172 1_555
F1 Li0 2.028717 1_555
F1 Ni1 2.046703 1_555
F1 Li6 2.055767 1_555
F1 Li2 2.085018 1_565
F1 Li4 2.113124 1_565
F2 Li0 2.018030 1_445
F2 Li7 2.025767 1_555
F2 Li4 2.055972 1_555
F2 Li6 2.062402 1_545
F2 Ni1 2.087619 1_555
F2 Li2 2.095740 1_455
F3 Li5 2.022172 1_555
F3 Li3 2.028717 1_555
F3 Ni1 2.046703 1_556
F3 Li6 2.055767 1_556
F3 Li2 2.085018 1_456
F3 Li1 2.113124 1_455
