# generated using pymatgen
data_Fe2O3F
_symmetry_space_group_name_H-M   'P 1'
_cell_length_a   5.57295973
_cell_length_b   5.57295973
_cell_length_c   10.18150148
_cell_angle_alpha   70.47944529
_cell_angle_beta   70.47944529
_cell_angle_gamma   65.35232081
_symmetry_Int_Tables_number   1
_chemical_formula_structural   Fe2O3F
_chemical_formula_sum   'Fe8 O12 F4'
_cell_volume   263.78941137
_cell_formula_units_Z   4
loop_
 _symmetry_equiv_pos_site_id
 _symmetry_equiv_pos_as_xyz
  1  'x, y, z'
loop_
 _atom_site_type_symbol
 _atom_site_label
 _atom_site_symmetry_multiplicity
 _atom_site_fract_x
 _atom_site_fract_y
 _atom_site_fract_z
 _atom_site_occupancy
  Fe  Fe0  1  0.00000000  0.00000000  0.00000000  1
  Fe  Fe1  1  0.72140700  0.72140700  0.51814200  1
  Fe  Fe2  1  0.37087600  0.88065200  0.25070300  1
  Fe  Fe3  1  0.88065200  0.37087600  0.25070300  1
  Fe  Fe4  1  0.11934800  0.62912400  0.74929700  1
  Fe  Fe5  1  0.27859300  0.27859300  0.48185800  1
  Fe  Fe6  1  0.50000000  0.50000000  0.00000000  1
  Fe  Fe7  1  0.62912400  0.11934800  0.74929700  1
  O  O0  1  0.70212000  0.20005400  0.90326400  1
  O  O1  1  0.04611300  0.54814400  0.59668700  1
  O  O2  1  0.29788000  0.79994600  0.09673600  1
  O  O3  1  0.79994600  0.29788000  0.09673600  1
  O  O4  1  0.73805200  0.73805200  0.84009400  1
  O  O5  1  0.50529700  0.50529700  0.65991100  1
  O  O6  1  0.26194800  0.26194800  0.15990600  1
  O  O7  1  0.95388700  0.45185600  0.40331300  1
  O  O8  1  0.45185600  0.95388700  0.40331300  1
  O  O9  1  0.20005400  0.70212000  0.90326400  1
  O  O10  1  0.54814400  0.04611300  0.59668700  1
  O  O11  1  0.49470300  0.49470300  0.34008900  1
  F  F0  1  0.77613500  0.77613500  0.14979600  1
  F  F1  1  0.97228900  0.97228900  0.35145000  1
  F  F2  1  0.22386500  0.22386500  0.85020400  1
  F  F3  1  0.02771100  0.02771100  0.64855000  1
loop_
_geom_bond_atom_site_label_1
_geom_bond_atom_site_label_2
_geom_bond_distance
_geom_bond_site_symmetry_2
Fe0 O0 1.945258 1_454
Fe0 O9 1.945258 1_544
Fe0 O3 1.945258 1_455
Fe0 O2 1.945258 1_545
Fe1 O10 1.959623 1_565
Fe1 O1 1.959623 1_655
Fe1 O7 1.959630 1_555
Fe1 O8 1.959630 1_555
Fe1 O5 1.967433 1_555
Fe2 O6 1.929986 1_565
Fe2 O11 1.950458 1_555
Fe2 O8 1.957190 1_555
Fe2 O2 1.968547 1_555
Fe3 O6 1.929986 1_655
Fe3 O11 1.950458 1_555
Fe3 O7 1.957190 1_555
Fe3 O3 1.968547 1_555
Fe4 O4 1.929986 1_455
Fe4 O5 1.950458 1_555
Fe4 O1 1.957190 1_555
Fe4 O9 1.968547 1_555
Fe5 O8 1.959623 1_545
Fe5 O7 1.959623 1_455
Fe5 O1 1.959630 1_555
Fe5 O10 1.959630 1_555
Fe5 O11 1.967433 1_555
Fe6 O3 1.954849 1_555
Fe6 O2 1.954849 1_555
Fe6 O0 1.954849 1_554
Fe6 O9 1.954849 1_554
Fe6 O4 2.179857 1_554
Fe6 O6 2.179857 1_555
Fe7 O4 1.929986 1_545
Fe7 O5 1.950458 1_555
Fe7 O10 1.957190 1_555
Fe7 O0 1.968547 1_555
F0 Fe0 2.047943 1_665
F0 Fe2 2.060972 1_555
F0 Fe3 2.060972 1_555
F1 Fe2 2.031843 1_655
F1 Fe3 2.031843 1_565
F1 Fe1 2.291063 1_555
F2 Fe0 2.047943 1_556
F2 Fe4 2.060972 1_555
F2 Fe7 2.060972 1_555
F3 Fe7 2.031843 1_455
F3 Fe4 2.031843 1_545
F3 Fe5 2.291063 1_555
