# generated using pymatgen
data_Li4MnFe3(PO4)4
_symmetry_space_group_name_H-M   'P 1'
_cell_length_a   10.51487500
_cell_length_b   7.73553600
_cell_length_c   7.74525644
_cell_angle_alpha   75.91128617
_cell_angle_beta   90.00000000
_cell_angle_gamma   90.00000000
_symmetry_Int_Tables_number   1
_chemical_formula_structural   Li4MnFe3(PO4)4
_chemical_formula_sum   'Li8 Mn2 Fe6 P8 O32'
_cell_volume   611.03520742
_cell_formula_units_Z   2
loop_
 _symmetry_equiv_pos_site_id
 _symmetry_equiv_pos_as_xyz
  1  'x, y, z'
loop_
 _atom_site_type_symbol
 _atom_site_label
 _atom_site_symmetry_multiplicity
 _atom_site_fract_x
 _atom_site_fract_y
 _atom_site_fract_z
 _atom_site_occupancy
  Li  Li0  1  0.75104100  0.75005400  0.24953600  1
  Li  Li1  1  0.75007300  0.25012800  0.75041700  1
  Li  Li2  1  0.75047600  0.00002400  0.49973400  1
  Li  Li3  1  0.75059500  0.50004000  0.00006100  1
  Li  Li4  1  0.24992700  0.75012800  0.75041700  1
  Li  Li5  1  0.24952400  0.50002400  0.49973400  1
  Li  Li6  1  0.24895900  0.25005400  0.24953600  1
  Li  Li7  1  0.24940500  0.00004000  0.00006100  1
  Mn  Mn0  1  0.46735900  0.86468300  0.38570000  1
  Mn  Mn1  1  0.53264100  0.36468300  0.38570000  1
  Fe  Fe0  1  0.46719900  0.36314200  0.88672300  1
  Fe  Fe1  1  0.53280100  0.86314200  0.88672300  1
  Fe  Fe2  1  0.96748100  0.63752900  0.61287200  1
  Fe  Fe3  1  0.96752700  0.13764400  0.11192600  1
  Fe  Fe4  1  0.03251900  0.13752900  0.61287200  1
  Fe  Fe5  1  0.03247300  0.63764400  0.11192600  1
  P  P0  1  0.34390800  0.58360800  0.16449300  1
  P  P1  1  0.34459400  0.08313000  0.66881100  1
  P  P2  1  0.65540600  0.58313000  0.66881100  1
  P  P3  1  0.65609200  0.08360800  0.16449300  1
  P  P4  1  0.84595800  0.91623600  0.83366400  1
  P  P5  1  0.84701200  0.41658300  0.33349400  1
  P  P6  1  0.15404200  0.41623600  0.83366400  1
  P  P7  1  0.15298800  0.91658300  0.33349400  1
  O  O0  1  0.28986200  0.97892100  0.27133000  1
  O  O1  1  0.29119800  0.47796500  0.77188700  1
  O  O2  1  0.34815000  0.74601200  0.00498700  1
  O  O3  1  0.34819400  0.24274900  0.50635100  1
  O  O4  1  0.41446700  0.91358900  0.63736000  1
  O  O5  1  0.41331500  0.61513200  0.33407600  1
  O  O6  1  0.41462600  0.11930700  0.83637200  1
  O  O7  1  0.41348600  0.41535400  0.12840100  1
  O  O8  1  0.58537400  0.61930700  0.83637200  1
  O  O9  1  0.58651400  0.91535400  0.12840100  1
  O  O10  1  0.58668500  0.11513200  0.33407600  1
  O  O11  1  0.58553300  0.41358900  0.63736000  1
  O  O12  1  0.65180600  0.74274900  0.50635100  1
  O  O13  1  0.65185000  0.24601200  0.00498700  1
  O  O14  1  0.70880200  0.97796500  0.77188700  1
  O  O15  1  0.71013800  0.47892100  0.27133000  1
  O  O16  1  0.79302300  0.52229500  0.72943000  1
  O  O17  1  0.79330500  0.02185000  0.22637300  1
  O  O18  1  0.84917500  0.25529100  0.49468600  1
  O  O19  1  0.84931000  0.75504900  0.99480300  1
  O  O20  1  0.91589700  0.88191200  0.66503000  1
  O  O21  1  0.91676300  0.58500600  0.36841700  1
  O  O22  1  0.91584300  0.08503700  0.86796900  1
  O  O23  1  0.91664900  0.38173000  0.16509500  1
  O  O24  1  0.08410300  0.38191200  0.66503000  1
  O  O25  1  0.08323700  0.08500600  0.36841700  1
  O  O26  1  0.08415700  0.58503700  0.86796900  1
  O  O27  1  0.08335100  0.88173000  0.16509500  1
  O  O28  1  0.15069000  0.25504900  0.99480300  1
  O  O29  1  0.15082500  0.75529100  0.49468600  1
  O  O30  1  0.20697700  0.02229500  0.72943000  1
  O  O31  1  0.20669500  0.52185000  0.22637300  1
loop_
_geom_bond_atom_site_label_1
_geom_bond_atom_site_label_2
_geom_bond_distance
_geom_bond_site_symmetry_2
Li0 O15 2.107137 1_555
Li0 O17 2.113409 1_565
Li0 O9 2.219022 1_555
Li0 O19 2.219162 1_554
Li0 O21 2.223061 1_555
Li0 O12 2.234672 1_555
Li1 O14 2.116112 1_545
Li1 O16 2.120447 1_555
Li1 O11 2.195423 1_555
Li1 O13 2.219183 1_556
Li1 O22 2.220813 1_555
Li1 O18 2.229825 1_555
Li2 O14 2.118783 1_545
Li2 O17 2.130735 1_555
Li2 O10 2.202047 1_555
Li2 O20 2.220317 1_545
Li2 O18 2.222642 1_555
Li2 O12 2.233857 1_545
Li3 O16 2.108707 1_554
Li3 O15 2.110675 1_555
Li3 O13 2.214587 1_555
Li3 O8 2.215223 1_554
Li3 O19 2.220634 1_554
Li3 O23 2.224987 1_555
Li4 O1 2.116112 1_555
Li4 O30 2.120447 1_565
Li4 O4 2.195423 1_555
Li4 O2 2.219183 1_556
Li4 O26 2.220813 1_555
Li4 O29 2.229825 1_555
Li5 O1 2.118783 1_555
Li5 O31 2.130735 1_555
Li5 O5 2.202047 1_555
Li5 O24 2.220317 1_555
Li5 O29 2.222642 1_555
Li5 O3 2.233857 1_555
Li6 O0 2.107137 1_545
Li6 O31 2.113409 1_555
Li6 O7 2.219022 1_555
Li6 O28 2.219162 1_554
Li6 O25 2.223061 1_555
Li6 O3 2.234672 1_555
Li7 O30 2.108707 1_554
Li7 O0 2.110675 1_545
Li7 O2 2.214587 1_545
Li7 O6 2.215223 1_554
Li7 O28 2.220634 1_554
Li7 O27 2.224987 1_545
Mn0 O5 2.141276 1_555
Mn0 O4 2.147253 1_555
Mn0 O0 2.160507 1_555
Mn0 O12 2.257258 1_555
Mn0 O10 2.260611 1_565
Mn0 O9 2.305329 1_555
Mn1 O10 2.141276 1_555
Mn1 O11 2.147253 1_555
Mn1 O15 2.160507 1_555
Mn1 O3 2.257258 1_555
Mn1 O5 2.260611 1_555
Mn1 O7 2.305329 1_555
Fe0 O7 2.086631 1_556
Fe0 O6 2.091296 1_555
Fe0 O1 2.149473 1_555
Fe0 O13 2.241800 1_556
Fe0 O11 2.250285 1_555
Fe0 O8 2.290532 1_555
Fe1 O9 2.086631 1_556
Fe1 O8 2.091296 1_555
Fe1 O14 2.149473 1_555
Fe1 O2 2.241800 1_556
Fe1 O4 2.250285 1_555
Fe1 O6 2.290532 1_565
Fe2 O20 2.098317 1_555
Fe2 O21 2.099721 1_555
Fe2 O16 2.140758 1_555
Fe2 O29 2.231222 1_655
Fe2 O26 2.276657 1_655
Fe2 O24 2.277693 1_655
Fe3 O23 2.097472 1_555
Fe3 O22 2.098937 1_554
Fe3 O17 2.134821 1_555
Fe3 O28 2.226176 1_654
Fe3 O27 2.274831 1_645
Fe3 O25 2.280092 1_655
Fe4 O24 2.098317 1_555
Fe4 O25 2.099721 1_555
Fe4 O30 2.140758 1_555
Fe4 O18 2.231222 1_455
Fe4 O22 2.276657 1_455
Fe4 O20 2.277693 1_445
Fe5 O27 2.097472 1_555
Fe5 O26 2.098937 1_554
Fe5 O31 2.134821 1_555
Fe5 O19 2.226176 1_454
Fe5 O23 2.274831 1_455
Fe5 O21 2.280092 1_455
O0 P7 1.556487 1_555
O1 P6 1.557434 1_555
O2 P0 1.533258 1_555
O3 P1 1.533923 1_555
O4 P1 1.573110 1_565
O5 P0 1.572642 1_555
O6 P1 1.575334 1_555
O7 P0 1.576234 1_555
O8 P2 1.575334 1_555
O9 P3 1.576234 1_565
O10 P3 1.572642 1_555
O11 P2 1.573110 1_555
O12 P2 1.533923 1_555
O13 P3 1.533258 1_555
O14 P4 1.557434 1_555
O15 P5 1.556487 1_555
O16 P2 1.558272 1_555
O17 P3 1.558226 1_555
O18 P5 1.535431 1_555
O19 P4 1.534915 1_555
O20 P4 1.576730 1_555
O21 P5 1.574813 1_555
O22 P4 1.576233 1_545
O23 P5 1.575189 1_555
O24 P6 1.576730 1_555
O25 P7 1.574813 1_545
O26 P6 1.576233 1_555
O27 P7 1.575189 1_555
O28 P6 1.534915 1_555
O29 P7 1.535431 1_555
O30 P1 1.558272 1_555
O31 P0 1.558226 1_555
