# generated using pymatgen
data_Co2O3F
_symmetry_space_group_name_H-M   'P 1'
_cell_length_a   4.51973438
_cell_length_b   4.51973438
_cell_length_c   14.76486000
_cell_angle_alpha   90.00000000
_cell_angle_beta   90.00000000
_cell_angle_gamma   94.28180976
_symmetry_Int_Tables_number   1
_chemical_formula_structural   Co2O3F
_chemical_formula_sum   'Co10 O15 F5'
_cell_volume   300.77469814
_cell_formula_units_Z   5
loop_
 _symmetry_equiv_pos_site_id
 _symmetry_equiv_pos_as_xyz
  1  'x, y, z'
loop_
 _atom_site_type_symbol
 _atom_site_label
 _atom_site_symmetry_multiplicity
 _atom_site_fract_x
 _atom_site_fract_y
 _atom_site_fract_z
 _atom_site_occupancy
  Co  Co0  1  0.00065300  0.99934700  0.69938300  1
  Co  Co1  1  0.00561600  0.99438400  0.50000000  1
  Co  Co2  1  0.00065300  0.99934700  0.30061700  1
  Co  Co3  1  0.98517300  0.01482700  0.10014200  1
  Co  Co4  1  0.98517300  0.01482700  0.89985800  1
  Co  Co5  1  0.46929500  0.53070500  0.59994400  1
  Co  Co6  1  0.52792500  0.47207500  0.20007200  1
  Co  Co7  1  0.46929500  0.53070500  0.40005600  1
  Co  Co8  1  0.52792500  0.47207500  0.79992800  1
  Co  Co9  1  0.51818600  0.48181400  0.00000000  1
  O  O0  1  0.81380300  0.18619700  0.20373800  1
  O  O1  1  0.79444300  0.20555700  0.00000000  1
  O  O2  1  0.81380300  0.18619700  0.79626200  1
  O  O3  1  0.30615100  0.30635800  0.69991800  1
  O  O4  1  0.29564900  0.31052700  0.50000000  1
  O  O5  1  0.31311900  0.30176500  0.09938500  1
  O  O6  1  0.31311900  0.30176500  0.90061500  1
  O  O7  1  0.30615100  0.30635800  0.30008200  1
  O  O8  1  0.69364200  0.69384900  0.69991800  1
  O  O9  1  0.68947300  0.70435100  0.50000000  1
  O  O10  1  0.69364200  0.69384900  0.30008200  1
  O  O11  1  0.69823500  0.68688100  0.09938500  1
  O  O12  1  0.69823500  0.68688100  0.90061500  1
  O  O13  1  0.18042900  0.81957100  0.59640800  1
  O  O14  1  0.18042900  0.81957100  0.40359200  1
  F  F0  1  0.80111600  0.19888400  0.59323100  1
  F  F1  1  0.80111600  0.19888400  0.40676900  1
  F  F2  1  0.20557100  0.79442900  0.19713200  1
  F  F3  1  0.20557100  0.79442900  0.80286800  1
  F  F4  1  0.20640600  0.79359400  0.00000000  1
loop_
_geom_bond_atom_site_label_1
_geom_bond_atom_site_label_2
_geom_bond_distance
_geom_bond_site_symmetry_2
Co0 O3 1.883068 1_565
Co0 O8 1.883068 1_455
Co0 O2 1.891814 1_465
Co0 O13 1.931497 1_555
Co0 F3 2.044088 1_555
Co0 F0 2.050518 1_465
Co1 O14 1.835204 1_555
Co1 O13 1.835204 1_555
Co1 O4 1.865581 1_565
Co1 O9 1.865581 1_455
Co1 F0 1.931592 1_465
Co1 F1 1.931592 1_465
Co2 O7 1.883068 1_565
Co2 O10 1.883068 1_455
Co2 O0 1.891814 1_465
Co2 O14 1.931497 1_555
Co2 F2 2.044088 1_555
Co2 F1 2.050518 1_465
Co3 O11 1.895255 1_545
Co3 O5 1.895255 1_655
Co3 O0 1.905005 1_555
Co3 O1 1.945104 1_555
Co3 F2 2.045364 1_645
Co3 F4 2.082105 1_645
Co4 O12 1.895255 1_545
Co4 O6 1.895255 1_655
Co4 O2 1.905005 1_555
Co4 O1 1.945104 1_556
Co4 F3 2.045364 1_645
Co4 F4 2.082105 1_646
Co5 O3 1.907646 1_555
Co5 O8 1.907646 1_555
Co5 O13 1.914793 1_555
Co5 O9 1.915000 1_555
Co5 O4 1.915000 1_555
Co5 F0 2.200942 1_555
Co6 O0 1.895055 1_555
Co6 O5 1.906195 1_555
Co6 O11 1.906195 1_555
Co6 O7 1.906321 1_555
Co6 O10 1.906321 1_555
Co6 F2 2.136420 1_555
Co7 O7 1.907646 1_555
Co7 O10 1.907646 1_555
Co7 O14 1.914793 1_555
Co7 O9 1.915000 1_555
Co7 O4 1.915000 1_555
Co7 F1 2.200942 1_555
Co8 O2 1.895055 1_555
Co8 O12 1.906195 1_555
Co8 O6 1.906195 1_555
Co8 O8 1.906321 1_555
Co8 O3 1.906321 1_555
Co8 F3 2.136420 1_555
Co9 O1 1.830531 1_555
Co9 O12 1.887307 1_554
Co9 O6 1.887307 1_554
Co9 O11 1.887307 1_555
Co9 O5 1.887307 1_555
Co9 F4 2.065914 1_555
