# generated using pymatgen
data_Li8Nb(FeO4)3
_symmetry_space_group_name_H-M   'P 1'
_cell_length_a   5.00310860
_cell_length_b   5.68844986
_cell_length_c   7.58065371
_cell_angle_alpha   80.34845479
_cell_angle_beta   90.06637714
_cell_angle_gamma   90.03799295
_symmetry_Int_Tables_number   1
_chemical_formula_structural   Li8Nb(FeO4)3
_chemical_formula_sum   'Li8 Nb1 Fe3 O12'
_cell_volume   212.69098788
_cell_formula_units_Z   1
loop_
 _symmetry_equiv_pos_site_id
 _symmetry_equiv_pos_as_xyz
  1  'x, y, z'
loop_
 _atom_site_type_symbol
 _atom_site_label
 _atom_site_symmetry_multiplicity
 _atom_site_fract_x
 _atom_site_fract_y
 _atom_site_fract_z
 _atom_site_occupancy
  Li  Li0  1  0.49395400  0.15960000  0.32925000  1
  Li  Li1  1  0.49764000  0.16736800  0.84780200  1
  Li  Li2  1  0.99523400  0.36393000  0.18140800  1
  Li  Li3  1  0.99942800  0.35683300  0.69466600  1
  Li  Li4  1  0.00240400  0.68148200  0.32531500  1
  Li  Li5  1  0.00600000  0.67648400  0.83655200  1
  Li  Li6  1  0.50143000  0.87281000  0.17066600  1
  Li  Li7  1  0.50352600  0.87793000  0.69171600  1
  Nb  Nb0  1  0.50085400  0.51956800  0.50938000  1
  Fe  Fe0  1  0.99966900  0.01928200  0.00979100  1
  Fe  Fe1  1  0.50024800  0.51934300  0.00974900  1
  Fe  Fe2  1  0.99949700  0.01973400  0.50953100  1
  O  O0  1  0.85643700  0.01570900  0.25298200  1
  O  O1  1  0.14313800  0.02272100  0.76618800  1
  O  O2  1  0.31347900  0.19639800  0.08068200  1
  O  O3  1  0.67363800  0.19588900  0.58181300  1
  O  O4  1  0.17622800  0.34458900  0.43851400  1
  O  O5  1  0.82115100  0.33088100  0.93940500  1
  O  O6  1  0.64230800  0.51698000  0.25951000  1
  O  O7  1  0.35869900  0.52142500  0.75979500  1
  O  O8  1  0.17893700  0.70750900  0.07973900  1
  O  O9  1  0.82469500  0.69307800  0.58074100  1
  O  O10  1  0.32570100  0.84144100  0.43739500  1
  O  O11  1  0.68621200  0.84212700  0.93865300  1
loop_
_geom_bond_atom_site_label_1
_geom_bond_atom_site_label_2
_geom_bond_distance
_geom_bond_site_symmetry_2
Li0 O10 2.039180 1_545
Li0 O2 2.067312 1_555
Li0 O0 2.110984 1_555
Li0 O6 2.145174 1_555
Li0 O4 2.148911 1_555
Li0 O3 2.155163 1_555
Li1 O2 2.023488 1_556
Li1 O5 2.044278 1_555
Li1 O11 2.088278 1_545
Li1 O1 2.090866 1_555
Li1 O7 2.129526 1_555
Li1 O3 2.182120 1_555
Li2 O5 2.066682 1_554
Li2 O2 2.067660 1_655
Li2 O0 2.083025 1_555
Li2 O6 2.098477 1_555
Li2 O4 2.134235 1_655
Li2 O8 2.180070 1_655
Li3 O1 2.019531 1_655
Li3 O5 2.042361 1_555
Li3 O3 2.117606 1_555
Li3 O7 2.121788 1_655
Li3 O4 2.146456 1_655
Li3 O9 2.148287 1_555
Li4 O0 2.024852 1_465
Li4 O8 2.044225 1_555
Li4 O10 2.102429 1_555
Li4 O6 2.126608 1_455
Li4 O9 2.142658 1_455
Li4 O4 2.148099 1_555
Li5 O1 2.069106 1_565
Li5 O8 2.069663 1_556
Li5 O11 2.072704 1_455
Li5 O7 2.099260 1_555
Li5 O9 2.127659 1_455
Li5 O5 2.193955 1_455
Li6 O11 2.021253 1_554
Li6 O8 2.043357 1_555
Li6 O2 2.077875 1_565
Li6 O0 2.090555 1_565
Li6 O6 2.142692 1_555
Li6 O10 2.185441 1_555
Li7 O3 2.045524 1_565
Li7 O11 2.061429 1_555
Li7 O1 2.099609 1_565
Li7 O7 2.133535 1_555
Li7 O10 2.163665 1_555
Li7 O9 2.167339 1_555
Nb0 O9 2.016627 1_555
Nb0 O10 2.020917 1_555
Nb0 O4 2.022942 1_555
Nb0 O3 2.025075 1_555
Nb0 O6 2.025204 1_555
Nb0 O7 2.029626 1_555
Fe0 O0 1.975621 1_555
Fe0 O5 1.976888 1_554
Fe0 O8 1.979038 1_645
Fe0 O1 1.979075 1_654
Fe0 O11 1.985939 1_544
Fe0 O2 1.986546 1_655
Fe1 O6 2.019524 1_555
Fe1 O7 2.020239 1_554
Fe1 O11 2.048072 1_554
Fe1 O2 2.050544 1_555
Fe1 O8 2.050882 1_555
Fe1 O5 2.051168 1_554
Fe2 O3 2.037301 1_555
Fe2 O4 2.037600 1_655
Fe2 O9 2.042456 1_545
Fe2 O10 2.044852 1_645
Fe2 O0 2.075279 1_555
Fe2 O1 2.076065 1_655
