# generated using pymatgen
data_ZnIn2O4
_symmetry_space_group_name_H-M   'P 1'
_cell_length_a   6.40296504
_cell_length_b   6.40296504
_cell_length_c   6.40296504
_cell_angle_alpha   60.00000000
_cell_angle_beta   60.00000000
_cell_angle_gamma   60.00000000
_symmetry_Int_Tables_number   1
_chemical_formula_structural   ZnIn2O4
_chemical_formula_sum   'Zn2 In4 O8'
_cell_volume   185.62154968
_cell_formula_units_Z   2
loop_
 _symmetry_equiv_pos_site_id
 _symmetry_equiv_pos_as_xyz
  1  'x, y, z'
loop_
 _atom_site_type_symbol
 _atom_site_label
 _atom_site_symmetry_multiplicity
 _atom_site_fract_x
 _atom_site_fract_y
 _atom_site_fract_z
 _atom_site_occupancy
  Zn  Zn0  1  0.75000000  0.75000000  0.75000000  1
  Zn  Zn1  1  0.50000000  0.50000000  0.50000000  1
  In  In0  1  0.12500000  0.12500000  0.62500000  1
  In  In1  1  0.12500000  0.62500000  0.12500000  1
  In  In2  1  0.62500000  0.12500000  0.12500000  1
  In  In3  1  0.12500000  0.12500000  0.12500000  1
  O  O0  1  0.88110500  0.88110500  0.88110500  1
  O  O1  1  0.35668500  0.88110500  0.88110500  1
  O  O2  1  0.88110500  0.35668500  0.88110500  1
  O  O3  1  0.88110500  0.88110500  0.35668500  1
  O  O4  1  0.36889500  0.36889500  0.89331500  1
  O  O5  1  0.36889500  0.89331500  0.36889500  1
  O  O6  1  0.36889500  0.36889500  0.36889500  1
  O  O7  1  0.89331500  0.36889500  0.36889500  1
loop_
_geom_bond_atom_site_label_1
_geom_bond_atom_site_label_2
_geom_bond_distance
_geom_bond_site_symmetry_2
In0 O1 2.209892 1_545
In0 O2 2.209892 1_455
In0 O6 2.209892 1_555
In0 O7 2.209892 1_455
In0 O5 2.209892 1_545
In0 O0 2.209892 1_445
In1 O3 2.209892 1_455
In1 O1 2.209892 1_554
In1 O6 2.209892 1_555
In1 O7 2.209892 1_455
In1 O4 2.209892 1_554
In1 O0 2.209892 1_454
In2 O2 2.209892 1_554
In2 O3 2.209892 1_545
In2 O6 2.209892 1_555
In2 O4 2.209892 1_554
In2 O5 2.209892 1_545
In2 O0 2.209892 1_544
In3 O4 2.209892 1_554
In3 O5 2.209892 1_545
In3 O7 2.209892 1_455
In3 O1 2.209892 1_544
In3 O2 2.209892 1_454
In3 O3 2.209892 1_445
O0 Zn0 2.056250 1_555
O1 Zn0 2.056250 1_555
O2 Zn0 2.056250 1_555
O3 Zn0 2.056250 1_555
O4 Zn1 2.056250 1_555
O5 Zn1 2.056250 1_555
O6 Zn1 2.056250 1_555
O7 Zn1 2.056250 1_555
