# generated using pymatgen
data_Li4Mn3TeO12
_symmetry_space_group_name_H-M   'P 1'
_cell_length_a   5.03370272
_cell_length_b   4.91467502
_cell_length_c   8.24619000
_cell_angle_alpha   90.00000000
_cell_angle_beta   90.00000000
_cell_angle_gamma   89.81670503
_symmetry_Int_Tables_number   1
_chemical_formula_structural   Li4Mn3TeO12
_chemical_formula_sum   'Li4 Mn3 Te1 O12'
_cell_volume   204.00155780
_cell_formula_units_Z   1
loop_
 _symmetry_equiv_pos_site_id
 _symmetry_equiv_pos_as_xyz
  1  'x, y, z'
loop_
 _atom_site_type_symbol
 _atom_site_label
 _atom_site_symmetry_multiplicity
 _atom_site_fract_x
 _atom_site_fract_y
 _atom_site_fract_z
 _atom_site_occupancy
  Li  Li0  1  0.00000000  0.00000000  0.70570800  1
  Li  Li1  1  0.00000000  0.50000000  0.80822900  1
  Li  Li2  1  0.50000000  0.00000000  0.31777700  1
  Li  Li3  1  0.50000000  0.50000000  0.19993200  1
  Mn  Mn0  1  0.00000000  0.50000000  0.41990600  1
  Mn  Mn1  1  0.50000000  0.00000000  0.90211700  1
  Mn  Mn2  1  0.50000000  0.50000000  0.60452700  1
  Te  Te0  1  0.00000000  0.00000000  0.10158800  1
  O  O0  1  0.15807300  0.24498700  0.26039000  1
  O  O1  1  0.16980500  0.30571900  0.59180100  1
  O  O2  1  0.17581800  0.20439700  0.92452900  1
  O  O3  1  0.32999600  0.69208100  0.42857500  1
  O  O4  1  0.32790000  0.79483900  0.08232600  1
  O  O5  1  0.34404300  0.75432600  0.75303000  1
  O  O6  1  0.65595700  0.24567400  0.75303000  1
  O  O7  1  0.67210000  0.20516100  0.08232600  1
  O  O8  1  0.67000400  0.30791900  0.42857500  1
  O  O9  1  0.82418200  0.79560300  0.92452900  1
  O  O10  1  0.83019500  0.69428100  0.59180100  1
  O  O11  1  0.84192700  0.75501200  0.26039000  1
loop_
_geom_bond_atom_site_label_1
_geom_bond_atom_site_label_2
_geom_bond_distance
_geom_bond_site_symmetry_2
Li0 O10 1.969423 1_445
Li0 O1 1.969423 1_555
Li0 O5 2.143805 1_545
Li0 O6 2.143805 1_455
Li0 O9 2.248122 1_445
Li0 O2 2.248122 1_555
Li1 O9 1.950737 1_455
Li1 O2 1.950737 1_555
Li1 O6 2.186900 1_455
Li1 O5 2.186900 1_555
Li1 O1 2.195961 1_555
Li1 O10 2.195961 1_455
Li2 O8 1.966091 1_555
Li2 O3 1.966091 1_545
Li2 O0 2.150061 1_555
Li2 O11 2.150064 1_545
Li2 O7 2.354239 1_555
Li2 O4 2.354239 1_545
Li3 O7 1.944909 1_555
Li3 O4 1.944909 1_555
Li3 O11 2.189864 1_555
Li3 O0 2.189867 1_555
Li3 O3 2.274459 1_555
Li3 O8 2.274459 1_555
Mn0 O1 1.909533 1_555
Mn0 O10 1.909533 1_455
Mn0 O8 1.914567 1_455
Mn0 O3 1.914567 1_555
Mn0 O11 1.981864 1_455
Mn0 O0 1.981867 1_555
Mn1 O5 1.895155 1_545
Mn1 O6 1.895155 1_555
Mn1 O9 1.922412 1_545
Mn1 O2 1.922412 1_555
Mn1 O7 1.995255 1_556
Mn1 O4 1.995255 1_546
Mn2 O5 1.916231 1_555
Mn2 O6 1.916231 1_555
Mn2 O1 1.922356 1_555
Mn2 O10 1.922356 1_555
Mn2 O3 1.929641 1_555
Mn2 O8 1.929641 1_555
O0 Te0 1.950325 1_555
O2 Te0 1.982381 1_556
O4 Te0 1.937929 1_565
O7 Te0 1.937929 1_655
O9 Te0 1.982381 1_666
O11 Te0 1.950328 1_665
