# generated using pymatgen
data_Li3NiPCO7
_symmetry_space_group_name_H-M   'P 1'
_cell_length_a   5.10060478
_cell_length_b   10.48464874
_cell_length_c   10.48499179
_cell_angle_alpha   104.25475379
_cell_angle_beta   87.93889718
_cell_angle_gamma   92.06786041
_symmetry_Int_Tables_number   1
_chemical_formula_structural   Li3NiPCO7
_chemical_formula_sum   'Li12 Ni4 P4 C4 O28'
_cell_volume   542.88649491
_cell_formula_units_Z   4
loop_
 _symmetry_equiv_pos_site_id
 _symmetry_equiv_pos_as_xyz
  1  'x, y, z'
loop_
 _atom_site_type_symbol
 _atom_site_label
 _atom_site_symmetry_multiplicity
 _atom_site_fract_x
 _atom_site_fract_y
 _atom_site_fract_z
 _atom_site_occupancy
  Li  Li0  1  0.02991000  0.75822500  0.75529500  1
  Li  Li1  1  0.02986600  0.25817200  0.25529700  1
  Li  Li2  1  0.97051500  0.50530900  0.50818400  1
  Li  Li3  1  0.97041200  0.00537200  0.00823200  1
  Li  Li4  1  0.42227700  0.02620300  0.20115200  1
  Li  Li5  1  0.42241100  0.52612800  0.70106900  1
  Li  Li6  1  0.57791700  0.95110000  0.77619800  1
  Li  Li7  1  0.57796300  0.45114700  0.27626300  1
  Li  Li8  1  0.43617100  0.94171700  0.46020900  1
  Li  Li9  1  0.43640600  0.44175100  0.96018600  1
  Li  Li10  1  0.56377200  0.21010100  0.69171200  1
  Li  Li11  1  0.56364700  0.71017600  0.19176200  1
  Ni  Ni0  1  0.05774900  0.73744300  0.00896400  1
  Ni  Ni1  1  0.94218200  0.25887300  0.98730200  1
  Ni  Ni2  1  0.05786500  0.23738300  0.50894000  1
  Ni  Ni3  1  0.94185200  0.75886500  0.48723100  1
  P  P0  1  0.96095800  0.95478700  0.29076400  1
  P  P1  1  0.96104800  0.45480300  0.79075600  1
  P  P2  1  0.03904900  0.04066600  0.70470000  1
  P  P3  1  0.03901300  0.54069800  0.20471200  1
  C  C0  1  0.52539700  0.29924400  0.44021600  1
  C  C1  1  0.52533200  0.79930200  0.94019600  1
  C  C2  1  0.47436000  0.69010600  0.54915100  1
  C  C3  1  0.47464600  0.19014300  0.04924200  1
  O  O0  1  0.34806800  0.34701000  0.37999300  1
  O  O1  1  0.34797800  0.84705400  0.87995600  1
  O  O2  1  0.65174400  0.62992600  0.59690800  1
  O  O3  1  0.65199900  0.12992000  0.09700300  1
  O  O4  1  0.77120200  0.32963000  0.42391600  1
  O  O5  1  0.77111500  0.82971800  0.92393400  1
  O  O6  1  0.22858000  0.67384800  0.57957600  1
  O  O7  1  0.22884400  0.17385900  0.07964600  1
  O  O8  1  0.08370300  0.91225700  0.14758200  1
  O  O9  1  0.08380700  0.41223700  0.64757700  1
  O  O10  1  0.91621500  0.89748800  0.66213600  1
  O  O11  1  0.91639600  0.39748200  0.16211900  1
  O  O12  1  0.05259600  0.10219300  0.33351300  1
  O  O13  1  0.05246600  0.60226700  0.83346100  1
  O  O14  1  0.94752800  0.08338300  0.85213600  1
  O  O15  1  0.94724000  0.58335900  0.35212100  1
  O  O16  1  0.45517500  0.22350700  0.51644400  1
  O  O17  1  0.45507300  0.72355100  0.01642900  1
  O  O18  1  0.54451500  0.76628600  0.47332700  1
  O  O19  1  0.54485900  0.26635400  0.97346600  1
  O  O20  1  0.65944200  0.93240600  0.29033500  1
  O  O21  1  0.65953200  0.43238200  0.79030900  1
  O  O22  1  0.34056900  0.04021800  0.68231800  1
  O  O23  1  0.34055900  0.54033000  0.18245900  1
  O  O24  1  0.09146500  0.88068600  0.38168300  1
  O  O25  1  0.09163400  0.38078700  0.88173000  1
  O  O26  1  0.90851300  0.13166300  0.63069100  1
  O  O27  1  0.90846800  0.63167900  0.13069800  1
loop_
_geom_bond_atom_site_label_1
_geom_bond_atom_site_label_2
_geom_bond_distance
_geom_bond_site_symmetry_2
Li0 O13 2.009733 1_555
Li0 O10 2.055858 1_455
Li0 O6 2.081270 1_555
Li0 O1 2.156805 1_555
Li0 O5 2.163691 1_455
Li1 O12 2.010344 1_555
Li1 O11 2.056030 1_455
Li1 O7 2.081315 1_555
Li1 O0 2.157541 1_555
Li1 O4 2.163085 1_455
Li2 O15 2.010401 1_555
Li2 O9 2.055734 1_655
Li2 O4 2.082042 1_555
Li2 O2 2.159186 1_555
Li2 O6 2.160345 1_655
Li3 O14 2.010265 1_554
Li3 O8 2.055653 1_645
Li3 O5 2.081875 1_544
Li3 O3 2.157545 1_555
Li3 O7 2.161105 1_655
Li4 O20 1.981144 1_545
Li4 O3 2.036841 1_555
Li4 O8 2.077371 1_545
Li4 O12 2.343483 1_555
Li4 O7 2.482959 1_555
Li5 O21 1.981029 1_555
Li5 O2 2.036407 1_555
Li5 O9 2.077091 1_555
Li5 O13 2.345059 1_555
Li5 O6 2.484270 1_555
Li6 O22 1.981878 1_565
Li6 O1 2.037014 1_555
Li6 O10 2.077057 1_555
Li6 O14 2.342462 1_565
Li6 O5 2.482188 1_555
Li7 O23 1.981976 1_555
Li7 O0 2.037321 1_555
Li7 O11 2.078122 1_555
Li7 O15 2.340563 1_555
Li7 O4 2.482578 1_555
Li8 O18 1.977589 1_555
Li8 O24 1.985481 1_555
Li8 O20 2.062848 1_555
Li8 O22 2.344770 1_565
Li9 O19 1.977948 1_555
Li9 O25 1.985378 1_555
Li9 O21 2.062399 1_555
Li9 O23 2.346681 1_556
Li10 O16 1.977295 1_555
Li10 O26 1.985428 1_555
Li10 O22 2.062447 1_555
Li10 O21 2.346566 1_555
Li11 O17 1.977809 1_555
Li11 O27 1.986102 1_555
Li11 O23 2.061957 1_555
Li11 O20 2.346080 1_555
Ni0 O27 2.001188 1_455
Ni0 O13 2.027805 1_554
Ni0 O17 2.042730 1_555
Ni0 O8 2.042977 1_555
Ni0 O5 2.118705 1_454
Ni0 O1 2.416722 1_554
Ni1 O25 2.001501 1_655
Ni1 O14 2.027644 1_555
Ni1 O19 2.042664 1_555
Ni1 O11 2.042948 1_556
Ni1 O7 2.119134 1_656
Ni1 O3 2.416747 1_556
Ni2 O26 2.001124 1_455
Ni2 O12 2.027287 1_555
Ni2 O16 2.042677 1_555
Ni2 O9 2.043374 1_555
Ni2 O4 2.118605 1_455
Ni2 O0 2.416327 1_555
Ni3 O24 2.000862 1_655
Ni3 O15 2.027493 1_555
Ni3 O18 2.042761 1_555
Ni3 O10 2.043641 1_555
Ni3 O6 2.119400 1_655
Ni3 O2 2.416282 1_555
C0 O16 1.291929 1_555
C0 O4 1.298145 1_555
C0 O0 1.302736 1_555
C1 O17 1.292124 1_556
C1 O5 1.298052 1_555
C1 O1 1.302859 1_555
C2 O18 1.292158 1_555
C2 O6 1.298073 1_555
C2 O2 1.302624 1_555
C3 O19 1.292092 1_554
C3 O7 1.298169 1_555
C3 O3 1.302804 1_555
O8 P0 1.570815 1_455
O9 P1 1.570838 1_455
O10 P2 1.570838 1_665
O11 P3 1.570790 1_655
O12 P0 1.558762 1_445
O13 P1 1.558983 1_455
O14 P2 1.558982 1_655
O15 P3 1.559045 1_655
O20 P0 1.547320 1_555
O21 P1 1.547368 1_555
O22 P2 1.547370 1_555
O23 P3 1.547345 1_555
O24 P0 1.550217 1_455
O25 P1 1.550246 1_455
O26 P2 1.550262 1_655
O27 P3 1.550192 1_655
