# generated using pymatgen
data_Na3Li3Fe2P2(CO7)2
_symmetry_space_group_name_H-M   'P 1'
_cell_length_a   6.71198379
_cell_length_b   10.22219565
_cell_length_c   8.72399271
_cell_angle_alpha   87.99504289
_cell_angle_beta   91.71674044
_cell_angle_gamma   89.48301291
_symmetry_Int_Tables_number   1
_chemical_formula_structural   Na3Li3Fe2P2(CO7)2
_chemical_formula_sum   'Na6 Li6 Fe4 P4 C4 O28'
_cell_volume   597.89838039
_cell_formula_units_Z   2
loop_
 _symmetry_equiv_pos_site_id
 _symmetry_equiv_pos_as_xyz
  1  'x, y, z'
loop_
 _atom_site_type_symbol
 _atom_site_label
 _atom_site_symmetry_multiplicity
 _atom_site_fract_x
 _atom_site_fract_y
 _atom_site_fract_z
 _atom_site_occupancy
  Na  Na0  1  0.26085500  0.38022100  0.08761700  1
  Na  Na1  1  0.26084900  0.88073200  0.08749900  1
  Na  Na2  1  0.98669000  0.12575300  0.24757700  1
  Na  Na3  1  0.98739300  0.62633300  0.24817400  1
  Na  Na4  1  0.50473500  0.37304500  0.74651900  1
  Na  Na5  1  0.50450300  0.87396100  0.74646700  1
  Li  Li0  1  0.45295500  0.11032400  0.29368300  1
  Li  Li1  1  0.45287500  0.61052300  0.29423800  1
  Li  Li2  1  0.97875500  0.37892100  0.72337500  1
  Li  Li3  1  0.97886700  0.87969800  0.72295000  1
  Li  Li4  1  0.76401900  0.12192600  0.89092500  1
  Li  Li5  1  0.76376300  0.62203100  0.89124900  1
  Fe  Fe0  1  0.74142400  0.89025800  0.35324700  1
  Fe  Fe1  1  0.24468000  0.61004100  0.65417300  1
  Fe  Fe2  1  0.74145700  0.39007800  0.35332700  1
  Fe  Fe3  1  0.24442400  0.11097100  0.65301300  1
  P  P0  1  0.24169400  0.35572900  0.41946600  1
  P  P1  1  0.24200200  0.85572800  0.41984400  1
  P  P2  1  0.74830900  0.14449400  0.58795400  1
  P  P3  1  0.74846800  0.64422800  0.58798100  1
  C  C0  1  0.76503400  0.36534100  0.03903800  1
  C  C1  1  0.76509400  0.86545700  0.03912800  1
  C  C2  1  0.26334100  0.13779000  0.95120800  1
  C  C3  1  0.26397800  0.63797800  0.95195300  1
  O  O0  1  0.27406100  0.14507800  0.09931100  1
  O  O1  1  0.27462000  0.64576400  0.09993600  1
  O  O2  1  0.76925800  0.48985900  0.06203100  1
  O  O3  1  0.76932700  0.99001600  0.06208700  1
  O  O4  1  0.73406800  0.28332100  0.15449600  1
  O  O5  1  0.73445800  0.78349200  0.15458800  1
  O  O6  1  0.05676100  0.39271600  0.31572400  1
  O  O7  1  0.05682600  0.89232000  0.31605800  1
  O  O8  1  0.42427600  0.41253100  0.33438900  1
  O  O9  1  0.42432600  0.91261200  0.33433200  1
  O  O10  1  0.26256300  0.20233400  0.43549400  1
  O  O11  1  0.26336600  0.70250200  0.43647200  1
  O  O12  1  0.72762100  0.08756300  0.42505700  1
  O  O13  1  0.72813000  0.58739300  0.42508600  1
  O  O14  1  0.22728000  0.40957500  0.58232600  1
  O  O15  1  0.22742900  0.91036700  0.58231200  1
  O  O16  1  0.77374000  0.29605000  0.56979100  1
  O  O17  1  0.77307200  0.79585200  0.57005500  1
  O  O18  1  0.56537300  0.11385300  0.68791000  1
  O  O19  1  0.56551300  0.61286600  0.68779500  1
  O  O20  1  0.92861400  0.08462600  0.68389900  1
  O  O21  1  0.92911700  0.58465700  0.68397400  1
  O  O22  1  0.24367100  0.24245500  0.86236100  1
  O  O23  1  0.24450700  0.74239600  0.86259600  1
  O  O24  1  0.26922400  0.02514300  0.88622300  1
  O  O25  1  0.26967900  0.52502300  0.88747800  1
  O  O26  1  0.78859900  0.31895400  0.90380900  1
  O  O27  1  0.78836100  0.81912200  0.90380000  1
loop_
_geom_bond_atom_site_label_1
_geom_bond_atom_site_label_2
_geom_bond_distance
_geom_bond_site_symmetry_2
Na0 O25 2.251661 1_554
Na0 O0 2.402995 1_555
Na0 O8 2.421103 1_555
Na0 O6 2.455800 1_555
Na0 O22 2.457899 1_554
Na0 O1 2.722604 1_555
Na1 O24 2.256468 1_564
Na1 O1 2.401363 1_555
Na1 O9 2.420982 1_555
Na1 O7 2.458112 1_555
Na1 O23 2.458739 1_554
Na1 O0 2.709910 1_565
Na2 O0 2.360288 1_655
Na2 O12 2.388445 1_555
Na2 O4 2.430117 1_555
Na2 O7 2.477013 1_645
Na2 O10 2.581299 1_655
Na2 O3 2.593171 1_545
Na2 O6 2.853372 1_655
Na3 O1 2.359420 1_655
Na3 O13 2.387276 1_555
Na3 O5 2.430140 1_555
Na3 O6 2.476288 1_655
Na3 O11 2.582452 1_655
Na3 O2 2.603815 1_555
Na3 O7 2.842484 1_655
Na4 O14 2.334420 1_555
Na4 O26 2.364326 1_555
Na4 O22 2.434676 1_555
Na4 O19 2.526144 1_555
Na4 O16 2.546099 1_555
Na4 O25 2.573041 1_555
Na4 O18 2.744958 1_555
Na5 O15 2.332071 1_555
Na5 O27 2.366089 1_555
Na5 O23 2.435853 1_555
Na5 O18 2.526701 1_565
Na5 O17 2.545938 1_555
Na5 O24 2.563557 1_565
Na5 O19 2.764322 1_555
Li0 O10 2.050046 1_555
Li0 O9 2.051407 1_545
Li0 O0 2.066767 1_555
Li0 O12 2.147879 1_555
Li1 O11 2.048485 1_555
Li1 O8 2.053582 1_555
Li1 O1 2.064597 1_555
Li1 O13 2.149213 1_555
Li2 O16 2.096754 1_555
Li2 O14 2.121397 1_655
Li2 O26 2.132967 1_555
Li2 O21 2.140557 1_555
Li2 O22 2.507100 1_655
Li3 O17 2.100645 1_555
Li3 O15 2.119474 1_655
Li3 O20 2.132723 1_565
Li3 O27 2.138805 1_555
Li3 O23 2.517561 1_655
Li4 O3 1.975913 1_546
Li4 O26 2.029042 1_555
Li4 O20 2.188146 1_555
Li4 O18 2.189074 1_555
Li5 O2 1.975237 1_556
Li5 O27 2.029441 1_555
Li5 O19 2.191384 1_555
Li5 O21 2.192827 1_555
Fe0 O5 2.079748 1_555
Fe0 O17 2.097245 1_555
Fe0 O12 2.134809 1_565
Fe0 O9 2.139366 1_555
Fe0 O7 2.151455 1_655
Fe1 O11 2.099261 1_555
Fe1 O21 2.158533 1_455
Fe1 O19 2.165175 1_555
Fe1 O14 2.166921 1_555
Fe1 O25 2.186144 1_555
Fe1 O23 2.304100 1_555
Fe2 O4 2.080983 1_555
Fe2 O16 2.093249 1_555
Fe2 O13 2.134624 1_555
Fe2 O8 2.140024 1_555
Fe2 O6 2.151544 1_655
Fe3 O10 2.092833 1_555
Fe3 O20 2.162811 1_455
Fe3 O15 2.164941 1_545
Fe3 O18 2.167170 1_555
Fe3 O24 2.188357 1_555
Fe3 O22 2.305267 1_555
C0 O2 1.295900 1_555
C0 O26 1.300234 1_554
C0 O4 1.310463 1_555
C1 O3 1.296260 1_555
C1 O27 1.300533 1_554
C1 O5 1.309717 1_555
C2 O0 1.296681 1_556
C2 O24 1.301967 1_555
C2 O22 1.302384 1_555
C3 O1 1.296106 1_556
C3 O25 1.302688 1_555
C3 O23 1.302780 1_555
O6 P0 1.550186 1_555
O7 P1 1.550805 1_555
O8 P0 1.557891 1_555
O9 P1 1.558656 1_555
O10 P0 1.573983 1_555
O11 P1 1.572807 1_555
O12 P2 1.557248 1_555
O13 P3 1.556682 1_555
O14 P0 1.546921 1_555
O15 P1 1.546989 1_555
O16 P2 1.563198 1_555
O17 P3 1.563080 1_555
O18 P2 1.555039 1_555
O19 P3 1.555838 1_555
O20 P2 1.558789 1_555
O21 P3 1.559637 1_555
