# generated using pymatgen
data_LiMn2Cr2O8
_symmetry_space_group_name_H-M   'P 1'
_cell_length_a   5.78085200
_cell_length_b   5.82211317
_cell_length_c   5.87448789
_cell_angle_alpha   60.89424465
_cell_angle_beta   61.60942038
_cell_angle_gamma   60.79451122
_symmetry_Int_Tables_number   1
_chemical_formula_structural   LiMn2Cr2O8
_chemical_formula_sum   'Li1 Mn2 Cr2 O8'
_cell_volume   143.24956524
_cell_formula_units_Z   1
loop_
 _symmetry_equiv_pos_site_id
 _symmetry_equiv_pos_as_xyz
  1  'x, y, z'
loop_
 _atom_site_type_symbol
 _atom_site_label
 _atom_site_symmetry_multiplicity
 _atom_site_fract_x
 _atom_site_fract_y
 _atom_site_fract_z
 _atom_site_occupancy
  Li  Li0  1  0.50000000  0.50000000  0.50000000  1
  Mn  Mn0  1  0.00000000  0.00000000  0.00000000  1
  Mn  Mn1  1  0.50000000  0.00000000  0.00000000  1
  Cr  Cr0  1  0.00000000  0.00000000  0.50000000  1
  Cr  Cr1  1  0.00000000  0.50000000  0.00000000  1
  O  O0  1  0.24302500  0.79286600  0.23070900  1
  O  O1  1  0.76022900  0.75934400  0.77955900  1
  O  O2  1  0.79267900  0.24224200  0.22409400  1
  O  O3  1  0.76121700  0.76594900  0.20937100  1
  O  O4  1  0.23878300  0.23405100  0.79062900  1
  O  O5  1  0.20732100  0.75775800  0.77590600  1
  O  O6  1  0.23977100  0.24065600  0.22044100  1
  O  O7  1  0.75697500  0.20713400  0.76929100  1
loop_
_geom_bond_atom_site_label_1
_geom_bond_atom_site_label_2
_geom_bond_distance
_geom_bond_site_symmetry_2
Li0 O0 2.180707 1_555
Li0 O7 2.180707 1_555
Li0 O3 2.202486 1_555
Li0 O4 2.202486 1_555
Li0 O5 2.241064 1_555
Li0 O2 2.241064 1_555
Mn0 O2 1.953159 1_455
Mn0 O5 1.953159 1_544
Mn0 O0 1.957580 1_545
Mn0 O7 1.957580 1_454
Mn0 O4 1.966131 1_554
Mn0 O3 1.966131 1_445
Mn1 O7 1.934325 1_554
Mn1 O0 1.934325 1_545
Mn1 O6 1.938770 1_555
Mn1 O1 1.938770 1_544
Mn1 O3 1.943586 1_545
Mn1 O4 1.943586 1_554
Cr0 O7 2.004921 1_455
Cr0 O0 2.004921 1_545
Cr0 O5 2.006583 1_545
Cr0 O2 2.006583 1_455
Cr0 O6 2.018275 1_555
Cr0 O1 2.018275 1_445
Cr1 O6 1.907969 1_555
Cr1 O1 1.907969 1_454
Cr1 O5 1.937624 1_554
Cr1 O2 1.937624 1_455
Cr1 O3 1.992004 1_455
Cr1 O4 1.992004 1_554
