# generated using pymatgen
data_Li2MnV(P2O7)2
_symmetry_space_group_name_H-M   'P 1'
_cell_length_a   9.64168440
_cell_length_b   9.60957648
_cell_length_c   7.05461271
_cell_angle_alpha   99.36187560
_cell_angle_beta   99.45790885
_cell_angle_gamma   119.46249030
_symmetry_Int_Tables_number   1
_chemical_formula_structural   Li2MnV(P2O7)2
_chemical_formula_sum   'Li4 Mn2 V2 P8 O28'
_cell_volume   538.32953183
_cell_formula_units_Z   2
loop_
 _symmetry_equiv_pos_site_id
 _symmetry_equiv_pos_as_xyz
  1  'x, y, z'
loop_
 _atom_site_type_symbol
 _atom_site_label
 _atom_site_symmetry_multiplicity
 _atom_site_fract_x
 _atom_site_fract_y
 _atom_site_fract_z
 _atom_site_occupancy
  Li  Li0  1  0.15838700  0.01900700  0.67591900  1
  Li  Li1  1  0.72980100  0.09038600  0.32398200  1
  Li  Li2  1  0.23344500  0.59361700  0.32646500  1
  Li  Li3  1  0.65574500  0.51753500  0.67272100  1
  Mn  Mn0  1  0.39429900  0.39298300  0.26913700  1
  Mn  Mn1  1  0.35801600  0.85714900  0.73053200  1
  V  V0  1  0.85723400  0.35630500  0.72738300  1
  V  V1  1  0.89300300  0.89221700  0.27231500  1
  P  P0  1  0.11083600  0.29149200  0.52195400  1
  P  P1  1  0.75029900  0.03368500  0.91248100  1
  P  P2  1  0.25033200  0.53903100  0.91174800  1
  P  P3  1  0.46055800  0.13909200  0.48255500  1
  P  P4  1  0.60903400  0.78826500  0.51758100  1
  P  P5  1  0.71408900  0.49747500  0.08601300  1
  P  P6  1  0.21421300  0.00079400  0.08966900  1
  P  P7  1  0.96020600  0.63998100  0.47795000  1
  O  O0  1  0.07443000  0.11323200  0.48484800  1
  O  O1  1  0.36112200  0.03248200  0.60935600  1
  O  O2  1  0.58250000  0.01520800  0.91502100  1
  O  O3  1  0.08198100  0.51846200  0.90974200  1
  O  O4  1  0.22237800  0.37838800  0.75321900  1
  O  O5  1  0.37371800  0.02927100  0.24987500  1
  O  O6  1  0.23495500  0.17110500  0.09129300  1
  O  O7  1  0.21258900  0.39051300  0.39288700  1
  O  O8  1  0.45447800  0.29585100  0.50431900  1
  O  O9  1  0.13795400  0.67550200  0.51798100  1
  O  O10  1  0.63725500  0.17338500  0.51718300  1
  O  O11  1  0.86172600  0.18731000  0.85132800  1
  O  O12  1  0.36387400  0.69316500  0.85005000  1
  O  O13  1  0.21285800  0.91563100  0.88777600  1
  O  O14  1  0.72164200  0.41574900  0.88709400  1
  O  O15  1  0.33444500  0.53787100  0.11242400  1
  O  O16  1  0.83556800  0.02985900  0.11198900  1
  O  O17  1  0.06255100  0.88992800  0.15365200  1
  O  O18  1  0.55930800  0.38314200  0.14380100  1
  O  O19  1  0.57566700  0.61022900  0.47892200  1
  O  O20  1  0.45238400  0.79322900  0.49689600  1
  O  O21  1  0.95207000  0.29499700  0.50799500  1
  O  O22  1  0.85928900  0.53545300  0.60398800  1
  O  O23  1  0.71916700  0.87358300  0.74985700  1
  O  O24  1  0.87503100  0.52804900  0.24716400  1
  O  O25  1  0.73335500  0.66588100  0.08503200  1
  O  O26  1  0.71776900  0.89135400  0.39567300  1
  O  O27  1  0.95486200  0.79773800  0.49223100  1
loop_
_geom_bond_atom_site_label_1
_geom_bond_atom_site_label_2
_geom_bond_distance
_geom_bond_site_symmetry_2
Li0 O0 2.012846 1_555
Li0 O1 2.032388 1_555
Li0 O27 2.052913 1_445
Li0 O13 2.057838 1_545
Li1 O10 2.009006 1_555
Li1 O26 2.010734 1_545
Li1 O21 2.062549 1_555
Li1 O16 2.101556 1_555
Li2 O7 2.002932 1_555
Li2 O20 2.003360 1_555
Li2 O9 2.016893 1_555
Li2 O15 2.061203 1_555
Li3 O19 1.996133 1_555
Li3 O8 2.016837 1_555
Li3 O22 2.030686 1_555
Li3 O14 2.103403 1_555
Mn0 O6 1.937623 1_555
Mn0 O18 1.976115 1_555
Mn0 O19 2.039502 1_555
Mn0 O7 2.073807 1_555
Mn0 O15 2.139000 1_555
Mn0 O8 2.163510 1_555
Mn1 O12 1.923918 1_555
Mn1 O2 1.970459 1_565
Mn1 O1 1.999460 1_565
Mn1 O9 2.063201 1_555
Mn1 O13 2.141564 1_555
Mn1 O20 2.152907 1_555
O0 P0 1.535753 1_555
O0 V1 2.065454 1_445
O1 P3 1.543603 1_555
O2 P1 1.541855 1_555
O3 P2 1.532950 1_555
O3 V0 1.972006 1_455
O4 P0 1.616278 1_555
O4 P2 1.623698 1_555
O5 P3 1.620094 1_555
O5 P6 1.622192 1_555
O6 P6 1.545903 1_555
O7 P0 1.534311 1_555
O8 P3 1.520129 1_555
O9 P7 1.538657 1_455
O10 P3 1.534756 1_555
O10 V0 2.058669 1_555
O11 P1 1.522842 1_555
O11 V0 1.980510 1_555
O12 P2 1.533953 1_555
O13 P6 1.517443 1_566
O14 P5 1.524014 1_556
O14 V0 2.077066 1_555
O15 P2 1.516152 1_554
O16 P1 1.524621 1_554
O16 V1 2.082495 1_545
O17 P6 1.522463 1_565
O17 V1 1.962834 1_455
O18 P5 1.527473 1_555
O19 P4 1.543637 1_555
O20 P4 1.518384 1_555
O21 P0 1.535041 1_655
O21 V0 2.068070 1_555
O22 P7 1.536150 1_555
O22 V0 2.044878 1_555
O23 P4 1.618483 1_555
O23 P1 1.622221 1_565
O24 P7 1.613694 1_555
O24 P5 1.627814 1_555
O25 P5 1.536826 1_555
O25 V1 1.987189 1_555
O26 P4 1.540114 1_555
O26 V1 2.020830 1_555
O27 P7 1.529657 1_555
O27 V1 2.067305 1_555
