# generated using pymatgen
data_Li4Ti3Mn3(NiO8)2
_symmetry_space_group_name_H-M   'P 1'
_cell_length_a   5.85318547
_cell_length_b   5.85318547
_cell_length_c   9.64504481
_cell_angle_alpha   89.87467311
_cell_angle_beta   89.87467311
_cell_angle_gamma   60.13835968
_symmetry_Int_Tables_number   1
_chemical_formula_structural   Li4Ti3Mn3(NiO8)2
_chemical_formula_sum   'Li4 Ti3 Mn3 Ni2 O16'
_cell_volume   286.56416043
_cell_formula_units_Z   1
loop_
 _symmetry_equiv_pos_site_id
 _symmetry_equiv_pos_as_xyz
  1  'x, y, z'
loop_
 _atom_site_type_symbol
 _atom_site_label
 _atom_site_symmetry_multiplicity
 _atom_site_fract_x
 _atom_site_fract_y
 _atom_site_fract_z
 _atom_site_occupancy
  Li  Li0  1  0.66920800  0.66920800  0.88531700  1
  Li  Li1  1  0.99606500  0.99606500  0.99776500  1
  Li  Li2  1  0.99632300  0.99632300  0.49959500  1
  Li  Li3  1  0.33605600  0.33605600  0.38773800  1
  Ti  Ti0  1  0.83167600  0.33798900  0.21483300  1
  Ti  Ti1  1  0.33798900  0.83167600  0.21483300  1
  Ti  Ti2  1  0.16978100  0.16978100  0.71400500  1
  Mn  Mn0  1  0.83072200  0.83072200  0.21516600  1
  Mn  Mn1  1  0.66266300  0.16856200  0.71514100  1
  Mn  Mn2  1  0.16856200  0.66266300  0.71514100  1
  Ni  Ni0  1  0.66637900  0.66637900  0.49028900  1
  Ni  Ni1  1  0.33350000  0.33350000  0.98763600  1
  O  O0  1  0.83977700  0.31810300  0.60704500  1
  O  O1  1  0.51850500  0.51850500  0.33124500  1
  O  O2  1  0.66881200  0.66881200  0.10390900  1
  O  O3  1  0.99586200  0.99586200  0.31426400  1
  O  O4  1  0.99590700  0.99590700  0.81235600  1
  O  O5  1  0.31810300  0.83977700  0.60704500  1
  O  O6  1  0.96475100  0.52069100  0.33280800  1
  O  O7  1  0.52069100  0.96475100  0.33280800  1
  O  O8  1  0.15987600  0.15987600  0.10577700  1
  O  O9  1  0.84042600  0.84042600  0.60915900  1
  O  O10  1  0.48477300  0.03613600  0.83123100  1
  O  O11  1  0.03613600  0.48477300  0.83123100  1
  O  O12  1  0.33717200  0.33717200  0.60605500  1
  O  O13  1  0.68097400  0.15728100  0.10769800  1
  O  O14  1  0.48207800  0.48207800  0.82999000  1
  O  O15  1  0.15728100  0.68097400  0.10769800  1
loop_
_geom_bond_atom_site_label_1
_geom_bond_atom_site_label_2
_geom_bond_distance
_geom_bond_site_symmetry_2
Li0 O11 1.933619 1_655
Li0 O10 1.933619 1_565
Li0 O14 1.970773 1_555
Li0 O2 2.108323 1_556
Li1 O4 1.788283 1_555
Li1 O15 1.918037 1_656
Li1 O13 1.918037 1_566
Li1 O8 1.961679 1_666
Li2 O3 1.787544 1_555
Li2 O9 1.898087 1_555
Li2 O0 1.935665 1_565
Li2 O5 1.935665 1_655
Li3 O1 1.925697 1_555
Li3 O6 1.958461 1_455
Li3 O7 1.958461 1_545
Li3 O12 2.105736 1_555
Mn0 O3 1.928900 1_555
Mn0 O6 1.942462 1_555
Mn0 O7 1.942462 1_555
Mn0 O15 1.955278 1_655
Mn0 O13 1.955278 1_565
Mn0 O2 1.962392 1_555
Mn1 O10 1.932214 1_555
Mn1 O4 1.935453 1_545
Mn1 O14 1.945249 1_555
Mn1 O0 1.955177 1_555
Mn1 O9 1.957107 1_545
Mn1 O12 1.960228 1_555
Mn2 O11 1.932214 1_555
Mn2 O4 1.935453 1_455
Mn2 O14 1.945249 1_555
Mn2 O5 1.955177 1_555
Mn2 O9 1.957107 1_455
Mn2 O12 1.960228 1_555
Ni0 O0 2.094865 1_555
Ni0 O5 2.094865 1_555
Ni0 O9 2.105655 1_555
Ni0 O7 2.143667 1_555
Ni0 O6 2.143667 1_555
Ni0 O1 2.146868 1_555
Ni1 O8 2.093385 1_556
Ni1 O13 2.111253 1_556
Ni1 O15 2.111253 1_556
Ni1 O10 2.135432 1_555
Ni1 O11 2.135432 1_555
Ni1 O14 2.136841 1_555
O0 Ti2 1.970750 1_655
O1 Ti0 1.950548 1_555
O1 Ti1 1.950548 1_555
O2 Ti0 1.990001 1_555
O2 Ti1 1.990001 1_555
O3 Ti0 1.983084 1_565
O3 Ti1 1.983084 1_655
O4 Ti2 1.998575 1_665
O5 Ti2 1.970750 1_565
O6 Ti0 1.970718 1_555
O7 Ti1 1.970718 1_555
O8 Ti1 1.971086 1_545
O8 Ti0 1.971086 1_455
O10 Ti2 1.964328 1_555
O11 Ti2 1.964328 1_555
O12 Ti2 1.987704 1_555
O13 Ti0 1.975464 1_555
O15 Ti1 1.975464 1_555
