# generated using pymatgen
data_Li3Mn3SiO8
_symmetry_space_group_name_H-M   'P 1'
_cell_length_a   5.32458592
_cell_length_b   7.72516098
_cell_length_c   7.72515734
_cell_angle_alpha   86.10979605
_cell_angle_beta   104.79400824
_cell_angle_gamma   75.20602277
_symmetry_Int_Tables_number   1
_chemical_formula_structural   Li3Mn3SiO8
_chemical_formula_sum   'Li6 Mn6 Si2 O16'
_cell_volume   294.01891390
_cell_formula_units_Z   2
loop_
 _symmetry_equiv_pos_site_id
 _symmetry_equiv_pos_as_xyz
  1  'x, y, z'
loop_
 _atom_site_type_symbol
 _atom_site_label
 _atom_site_symmetry_multiplicity
 _atom_site_fract_x
 _atom_site_fract_y
 _atom_site_fract_z
 _atom_site_occupancy
  Li  Li0  1  0.00000100  0.25000100  0.25000000  1
  Li  Li1  1  0.00000100  0.74999700  0.75000300  1
  Li  Li2  1  0.50000100  0.62073800  0.62073900  1
  Li  Li3  1  0.49999900  0.12073900  0.12074000  1
  Li  Li4  1  0.49999900  0.37926000  0.37926100  1
  Li  Li5  1  0.50000100  0.87926100  0.87926200  1
  Mn  Mn0  1  0.50006900  0.49993900  0.00004200  1
  Mn  Mn1  1  0.00003400  0.87406000  0.37408900  1
  Mn  Mn2  1  0.00001100  0.12594800  0.62591400  1
  Mn  Mn3  1  0.49989500  0.00005100  0.49995900  1
  Mn  Mn4  1  0.99997100  0.37398900  0.87394500  1
  Mn  Mn5  1  0.00000100  0.62603100  0.12603000  1
  Si  Si0  1  0.49999600  0.25000200  0.74999900  1
  Si  Si1  1  0.49999800  0.74999900  0.24999800  1
  O  O0  1  0.26567600  0.65515500  0.34485300  1
  O  O1  1  0.26567700  0.15514700  0.84484700  1
  O  O2  1  0.73432400  0.34484500  0.65514900  1
  O  O3  1  0.73432500  0.84485100  0.15515600  1
  O  O4  1  0.21169100  0.38205500  0.11794400  1
  O  O5  1  0.21170600  0.88205100  0.61795100  1
  O  O6  1  0.78831200  0.61794200  0.88205700  1
  O  O7  1  0.78829300  0.11795100  0.38205200  1
  O  O8  1  0.29978900  0.47630600  0.75787000  1
  O  O9  1  0.29980400  0.97630500  0.25788300  1
  O  O10  1  0.70020300  0.25787700  0.97630400  1
  O  O11  1  0.70021400  0.75786600  0.47631000  1
  O  O12  1  0.29978800  0.74213100  0.02369400  1
  O  O13  1  0.29980400  0.24211400  0.52369500  1
  O  O14  1  0.70020400  0.52369500  0.24212500  1
  O  O15  1  0.70021400  0.02369100  0.74213200  1
loop_
_geom_bond_atom_site_label_1
_geom_bond_atom_site_label_2
_geom_bond_distance
_geom_bond_site_symmetry_2
Li0 O4 2.094070 1_555
Li0 O7 2.094108 1_455
Li0 O13 2.287264 1_555
Li0 O14 2.287265 1_455
Li0 O10 2.287276 1_454
Li0 O9 2.287278 1_545
Li1 O6 2.094061 1_455
Li1 O5 2.094114 1_555
Li1 O12 2.287237 1_556
Li1 O8 2.287239 1_555
Li1 O11 2.287244 1_455
Li1 O15 2.287248 1_465
Li2 O11 2.127746 1_555
Li2 O8 2.127770 1_555
Li2 O0 2.136678 1_555
Li2 O2 2.136726 1_555
Li2 O5 2.196961 1_555
Li2 O6 2.197014 1_555
Li3 O9 2.127765 1_545
Li3 O10 2.127789 1_554
Li3 O3 2.136694 1_545
Li3 O1 2.136725 1_554
Li3 O7 2.196952 1_555
Li3 O4 2.196996 1_555
Li4 O14 2.127779 1_555
Li4 O13 2.127779 1_555
Li4 O2 2.136692 1_555
Li4 O0 2.136741 1_555
Li4 O7 2.196931 1_555
Li4 O4 2.197002 1_555
Li5 O15 2.127760 1_565
Li5 O12 2.127770 1_556
Li5 O1 2.136679 1_565
Li5 O3 2.136733 1_556
Li5 O5 2.196945 1_555
Li5 O6 2.197022 1_555
Mn0 O10 1.947988 1_554
Mn0 O14 1.948164 1_555
Mn0 O8 1.948700 1_554
Mn0 O12 1.948875 1_555
Mn0 O4 2.309205 1_555
Mn0 O6 2.309421 1_554
Mn1 O5 1.946806 1_555
Mn1 O7 1.947064 1_465
Mn1 O0 1.976060 1_555
Mn1 O3 1.976320 1_455
Mn1 O9 2.292781 1_555
Mn1 O11 2.292874 1_455
Mn2 O7 1.946901 1_455
Mn2 O5 1.947018 1_545
Mn2 O2 1.976142 1_455
Mn2 O1 1.976172 1_555
Mn2 O13 2.292621 1_555
Mn2 O15 2.293005 1_455
Mn3 O13 1.947915 1_555
Mn3 O9 1.948020 1_545
Mn3 O15 1.948790 1_555
Mn3 O11 1.948889 1_545
Mn3 O5 2.309189 1_545
Mn3 O7 2.309385 1_555
Mn4 O6 1.947591 1_555
Mn4 O4 1.947905 1_656
Mn4 O2 1.975248 1_555
Mn4 O1 1.975530 1_655
Mn4 O8 2.292731 1_655
Mn4 O10 2.292812 1_555
Mn5 O6 1.947728 1_454
Mn5 O4 1.947744 1_555
Mn5 O3 1.975407 1_455
Mn5 O0 1.975413 1_555
Mn5 O12 2.292763 1_555
Mn5 O14 2.292789 1_455
O0 Si1 1.868515 1_555
O1 Si0 1.868517 1_555
O2 Si0 1.868518 1_555
O3 Si1 1.868517 1_555
O8 Si0 1.814442 1_555
O9 Si1 1.814458 1_555
O10 Si0 1.814455 1_555
O11 Si1 1.814500 1_555
O12 Si1 1.814441 1_555
O13 Si0 1.814446 1_555
O14 Si1 1.814444 1_555
O15 Si0 1.814499 1_555
