# generated using pymatgen
data_Mn3O5F
_symmetry_space_group_name_H-M   'P 1'
_cell_length_a   4.55515600
_cell_length_b   4.55673000
_cell_length_c   9.02897300
_cell_angle_alpha   90.00000000
_cell_angle_beta   90.00000000
_cell_angle_gamma   90.00000000
_symmetry_Int_Tables_number   1
_chemical_formula_structural   Mn3O5F
_chemical_formula_sum   'Mn6 O10 F2'
_cell_volume   187.41092543
_cell_formula_units_Z   2
loop_
 _symmetry_equiv_pos_site_id
 _symmetry_equiv_pos_as_xyz
  1  'x, y, z'
loop_
 _atom_site_type_symbol
 _atom_site_label
 _atom_site_symmetry_multiplicity
 _atom_site_fract_x
 _atom_site_fract_y
 _atom_site_fract_z
 _atom_site_occupancy
  Mn  Mn0  1  0.01008100  0.74588100  0.67410900  1
  Mn  Mn1  1  0.98022500  0.73038900  0.00000000  1
  Mn  Mn2  1  0.01008100  0.74588100  0.32589100  1
  Mn  Mn3  1  0.48022500  0.26961100  0.50000000  1
  Mn  Mn4  1  0.51008100  0.25411900  0.82589100  1
  Mn  Mn5  1  0.51008100  0.25411900  0.17410900  1
  O  O0  1  0.19641700  0.55373000  0.83610100  1
  O  O1  1  0.19641700  0.55373000  0.16389900  1
  O  O2  1  0.18947600  0.56181200  0.50000000  1
  O  O3  1  0.69641700  0.44627000  0.66389900  1
  O  O4  1  0.68947600  0.43818800  0.00000000  1
  O  O5  1  0.69641700  0.44627000  0.33610100  1
  O  O6  1  0.30795400  0.05911100  0.66526200  1
  O  O7  1  0.30795400  0.05911100  0.33473800  1
  O  O8  1  0.80795400  0.94088900  0.83473800  1
  O  O9  1  0.80795400  0.94088900  0.16526200  1
  F  F0  1  0.30140200  0.04961400  0.00000000  1
  F  F1  1  0.80140200  0.95038600  0.50000000  1
loop_
_geom_bond_atom_site_label_1
_geom_bond_atom_site_label_2
_geom_bond_distance
_geom_bond_site_symmetry_2
Mn0 O0 1.904297 1_555
Mn0 O8 1.934101 1_455
Mn0 O2 1.960240 1_555
Mn0 O6 1.970950 1_565
Mn0 O3 1.978341 1_455
Mn1 O4 1.878003 1_555
Mn1 O9 1.939674 1_555
Mn1 O8 1.939674 1_554
Mn1 O1 1.951343 1_655
Mn1 O0 1.951343 1_654
Mn2 O1 1.904297 1_555
Mn2 O9 1.934101 1_455
Mn2 O2 1.960240 1_555
Mn2 O7 1.970950 1_565
Mn2 O5 1.978341 1_455
Mn3 O2 1.878003 1_555
Mn3 O6 1.939674 1_555
Mn3 O7 1.939674 1_555
Mn3 O3 1.951343 1_555
Mn3 O5 1.951343 1_555
Mn4 O3 1.904297 1_555
Mn4 O6 1.934101 1_555
Mn4 O4 1.960240 1_556
Mn4 O8 1.970950 1_545
Mn4 O0 1.978341 1_555
Mn5 O5 1.904297 1_555
Mn5 O7 1.934101 1_555
Mn5 O4 1.960240 1_555
Mn5 O9 1.970950 1_545
Mn5 O1 1.978341 1_555
F0 Mn5 2.059910 1_555
F0 Mn4 2.059910 1_554
F0 Mn1 2.063087 1_445
F1 Mn0 2.059910 1_655
F1 Mn2 2.059910 1_655
F1 Mn3 2.063087 1_565
