# generated using pymatgen
data_Li6Mn3V(PO4)6
_symmetry_space_group_name_H-M   'P 1'
_cell_length_a   8.74419140
_cell_length_b   8.53878191
_cell_length_c   8.48053670
_cell_angle_alpha   61.85463097
_cell_angle_beta   62.29474934
_cell_angle_gamma   61.29993632
_symmetry_Int_Tables_number   1
_chemical_formula_structural   Li6Mn3V(PO4)6
_chemical_formula_sum   'Li6 Mn3 V1 P6 O24'
_cell_volume   465.88655450
_cell_formula_units_Z   1
loop_
 _symmetry_equiv_pos_site_id
 _symmetry_equiv_pos_as_xyz
  1  'x, y, z'
loop_
 _atom_site_type_symbol
 _atom_site_label
 _atom_site_symmetry_multiplicity
 _atom_site_fract_x
 _atom_site_fract_y
 _atom_site_fract_z
 _atom_site_occupancy
  Li  Li0  1  0.02461200  0.01674900  0.98172300  1
  Li  Li1  1  0.74863800  0.16220200  0.34431500  1
  Li  Li2  1  0.47841000  0.50707300  0.49379600  1
  Li  Li3  1  0.26272100  0.83473600  0.65528600  1
  Li  Li4  1  0.64452300  0.27872700  0.84316900  1
  Li  Li5  1  0.85885100  0.65796900  0.26171900  1
  Mn  Mn0  1  0.14121700  0.14126800  0.14465900  1
  Mn  Mn1  1  0.35630900  0.35644900  0.35936400  1
  Mn  Mn2  1  0.64867800  0.65267500  0.64343900  1
  V  V0  1  0.85541700  0.85377800  0.85498200  1
  P  P0  1  0.05595200  0.75009100  0.44178300  1
  P  P1  1  0.44819500  0.05024000  0.75199900  1
  P  P2  1  0.74910700  0.45478300  0.04339400  1
  P  P3  1  0.24762300  0.53330500  0.96259800  1
  P  P4  1  0.54687900  0.96168000  0.25471200  1
  P  P5  1  0.95001200  0.24845800  0.54056700  1
  O  O0  1  0.12392900  0.27880400  0.49666500  1
  O  O1  1  0.31202300  0.49819900  0.12001800  1
  O  O2  1  0.06814500  0.91925500  0.25318900  1
  O  O3  1  0.53987100  0.12183800  0.29861400  1
  O  O4  1  0.24104700  0.58569400  0.43268800  1
  O  O5  1  0.01765300  0.80733700  0.60757900  1
  O  O6  1  0.26137700  0.07314400  0.90562900  1
  O  O7  1  0.44767400  0.23539500  0.57855800  1
  O  O8  1  0.60173500  0.44336400  0.23732600  1
  O  O9  1  0.17629200  0.37939000  0.00902200  1
  O  O10  1  0.09437900  0.73319500  0.93599200  1
  O  O11  1  0.37615900  0.00474600  0.21618800  1
  O  O12  1  0.60787100  0.01285700  0.81020000  1
  O  O13  1  0.89717700  0.25672400  0.06109100  1
  O  O14  1  0.81979600  0.61136300  0.99419000  1
  O  O15  1  0.40370700  0.54427700  0.77029100  1
  O  O16  1  0.56486200  0.76779500  0.42114100  1
  O  O17  1  0.73355500  0.92300400  0.09708000  1
  O  O18  1  0.95417100  0.19666600  0.38650300  1
  O  O19  1  0.76830400  0.42321000  0.55890800  1
  O  O20  1  0.47579900  0.88593500  0.69676200  1
  O  O21  1  0.91758200  0.09539000  0.74073800  1
  O  O22  1  0.67967800  0.49183400  0.88503900  1
  O  O23  1  0.90007300  0.69940100  0.46007900  1
loop_
_geom_bond_atom_site_label_1
_geom_bond_atom_site_label_2
_geom_bond_distance
_geom_bond_site_symmetry_2
Li0 O13 2.074672 1_456
Li0 O6 2.087248 1_555
Li0 O2 2.200085 1_546
Li0 O21 2.320268 1_455
Li0 O10 2.373191 1_545
Li1 O8 2.074560 1_555
Li1 O13 2.093950 1_555
Li1 O18 2.156339 1_555
Li1 O3 2.233748 1_555
Li1 O7 2.448072 1_555
Li1 O2 2.577690 1_645
Li2 O4 2.088255 1_555
Li2 O8 2.135734 1_555
Li2 O7 2.194630 1_555
Li2 O15 2.259433 1_555
Li2 O16 2.407584 1_555
Li2 O19 2.535435 1_555
Li3 O15 2.126400 1_555
Li3 O10 2.146104 1_555
Li3 O20 2.307189 1_555
Li3 O16 2.447850 1_555
Li3 O5 2.487471 1_555
Li4 O19 2.134353 1_555
Li4 O21 2.161166 1_555
Li4 O22 2.186346 1_555
Li4 O15 2.293409 1_555
Li4 O12 2.591462 1_555
Li5 O17 2.081192 1_555
Li5 O23 2.081497 1_555
Li5 O16 2.228179 1_555
Li5 O19 2.428936 1_555
Li5 O10 2.567361 1_654
Li5 O14 2.669303 1_554
Mn0 O9 1.901527 1_555
Mn0 O2 1.954379 1_545
Mn0 O6 2.023970 1_554
Mn0 O11 2.034422 1_555
Mn0 O18 2.039202 1_455
Mn0 O13 2.180453 1_455
Mn1 O1 1.922992 1_555
Mn1 O4 1.976084 1_555
Mn1 O7 1.984234 1_555
Mn1 O3 1.992838 1_555
Mn1 O0 2.071198 1_555
Mn1 O8 2.228738 1_555
Mn2 O22 1.913584 1_555
Mn2 O20 1.943976 1_555
Mn2 O16 1.975332 1_555
Mn2 O19 2.026456 1_555
Mn2 O23 2.118509 1_555
Mn2 O15 2.329083 1_555
O0 P5 1.509788 1_455
O1 P3 1.532506 1_554
O2 P0 1.570243 1_555
O3 P4 1.546358 1_545
O4 P0 1.549185 1_555
O5 P0 1.543169 1_555
O5 V0 2.012167 1_455
O6 P1 1.535836 1_555
O7 P1 1.571140 1_555
O8 P2 1.540678 1_555
O9 P3 1.530399 1_554
O10 P3 1.575076 1_555
O10 V0 2.121173 1_455
O11 P4 1.511075 1_545
O12 P1 1.535934 1_555
O12 V0 2.031875 1_545
O13 P2 1.548283 1_555
O14 P2 1.539915 1_556
O14 V0 1.935781 1_555
O15 P3 1.562121 1_555
O16 P4 1.584145 1_555
O17 P4 1.558953 1_555
O17 V0 2.050823 1_554
O18 P5 1.545784 1_555
O19 P5 1.577141 1_555
O20 P1 1.560655 1_565
O21 P5 1.576569 1_555
O21 V0 2.047461 1_545
O22 P2 1.563630 1_556
O23 P0 1.541397 1_655
