# generated using pymatgen
data_Li2FeP4(H4O5)4
_symmetry_space_group_name_H-M   'P 1'
_cell_length_a   10.66736900
_cell_length_b   7.12821400
_cell_length_c   12.05782769
_cell_angle_alpha   63.87587282
_cell_angle_beta   90.00000000
_cell_angle_gamma   90.00000000
_symmetry_Int_Tables_number   1
_chemical_formula_structural   Li2FeP4(H4O5)4
_chemical_formula_sum   'Li4 Fe2 P8 H32 O40'
_cell_volume   823.20339630
_cell_formula_units_Z   2
loop_
 _symmetry_equiv_pos_site_id
 _symmetry_equiv_pos_as_xyz
  1  'x, y, z'
loop_
 _atom_site_type_symbol
 _atom_site_label
 _atom_site_symmetry_multiplicity
 _atom_site_fract_x
 _atom_site_fract_y
 _atom_site_fract_z
 _atom_site_occupancy
  Li  Li0  1  0.33932500  0.70057800  0.04727300  1
  Li  Li1  1  0.83932500  0.29942200  0.45272700  1
  Li  Li2  1  0.16067500  0.70057800  0.54727300  1
  Li  Li3  1  0.66067500  0.29942200  0.95272700  1
  Fe  Fe0  1  0.00000000  0.00000000  0.00000000  1
  Fe  Fe1  1  0.50000000  0.00000000  0.50000000  1
  P  P0  1  0.04401000  0.53750000  0.22321400  1
  P  P1  1  0.54401000  0.46250000  0.27678600  1
  P  P2  1  0.23871700  0.17992100  0.58348700  1
  P  P3  1  0.73871700  0.82007900  0.91651300  1
  P  P4  1  0.26128300  0.17992100  0.08348700  1
  P  P5  1  0.76128300  0.82007900  0.41651300  1
  P  P6  1  0.45599000  0.53750000  0.72321400  1
  P  P7  1  0.95599000  0.46250000  0.77678600  1
  H  H0  1  0.70846800  0.64504000  0.28841100  1
  H  H1  1  0.41190500  0.40592400  0.42570900  1
  H  H2  1  0.10380000  0.39965100  0.44467200  1
  H  H3  1  0.59450900  0.24396200  0.60176900  1
  H  H4  1  0.96287300  0.17837500  0.68320700  1
  H  H5  1  0.56514000  0.98313100  0.90011200  1
  H  H6  1  0.60380000  0.60034900  0.05532800  1
  H  H7  1  0.91190500  0.59407600  0.07429100  1
  H  H8  1  0.17040000  0.96774100  0.84281600  1
  H  H9  1  0.37692400  0.99588900  0.81454900  1
  H  H10  1  0.87692400  0.00411100  0.68545100  1
  H  H11  1  0.20846800  0.35496000  0.21158900  1
  H  H12  1  0.67040000  0.03225900  0.65718400  1
  H  H13  1  0.06514000  0.01686900  0.59988800  1
  H  H14  1  0.46287300  0.82162500  0.81679300  1
  H  H15  1  0.09450900  0.75603800  0.89823100  1
  H  H16  1  0.90549100  0.24396200  0.10176900  1
  H  H17  1  0.53712700  0.17837500  0.18320700  1
  H  H18  1  0.93486000  0.98313100  0.40011200  1
  H  H19  1  0.32960000  0.96774100  0.34281600  1
  H  H20  1  0.79153200  0.64504000  0.78841100  1
  H  H21  1  0.12307600  0.99588900  0.31454900  1
  H  H22  1  0.62307600  0.00411100  0.18545100  1
  H  H23  1  0.82960000  0.03225900  0.15718400  1
  H  H24  1  0.08809500  0.40592400  0.92570900  1
  H  H25  1  0.39620000  0.39965100  0.94467200  1
  H  H26  1  0.43486000  0.01686900  0.09988800  1
  H  H27  1  0.03712700  0.82162500  0.31679300  1
  H  H28  1  0.40549100  0.75603800  0.39823100  1
  H  H29  1  0.89620000  0.60034900  0.55532800  1
  H  H30  1  0.58809500  0.59407600  0.57429100  1
  H  H31  1  0.29153200  0.35496000  0.71158900  1
  O  O0  1  0.02796600  0.77063800  0.18477600  1
  O  O1  1  0.45723900  0.53341400  0.35935300  1
  O  O2  1  0.16570700  0.39307600  0.51611800  1
  O  O3  1  0.68604200  0.49405000  0.30610500  1
  O  O4  1  0.51328000  0.60244500  0.14172100  1
  O  O5  1  0.25762900  0.13963600  0.71815000  1
  O  O6  1  0.01328000  0.39755500  0.35827900  1
  O  O7  1  0.65550600  0.00022800  0.92361500  1
  O  O8  1  0.18604200  0.50595000  0.19389500  1
  O  O9  1  0.95723900  0.46658600  0.14064700  1
  O  O10  1  0.93751100  0.11068000  0.62980600  1
  O  O11  1  0.63615200  0.14310000  0.57850700  1
  O  O12  1  0.36150800  0.19363600  0.51553900  1
  O  O13  1  0.86150800  0.80636400  0.98446100  1
  O  O14  1  0.13615200  0.85690000  0.92149300  1
  O  O15  1  0.43751100  0.88932000  0.87019400  1
  O  O16  1  0.52796600  0.22936200  0.31522400  1
  O  O17  1  0.15550600  0.99977200  0.57638500  1
  O  O18  1  0.75762900  0.86036400  0.78185000  1
  O  O19  1  0.33429300  0.39307600  0.01611800  1
  O  O20  1  0.66570700  0.60692400  0.98388200  1
  O  O21  1  0.24237100  0.13963600  0.21815000  1
  O  O22  1  0.84449400  0.00022800  0.42361500  1
  O  O23  1  0.47203400  0.77063800  0.68477600  1
  O  O24  1  0.56248900  0.11068000  0.12980600  1
  O  O25  1  0.86384800  0.14310000  0.07850700  1
  O  O26  1  0.13849200  0.19363600  0.01553900  1
  O  O27  1  0.63849200  0.80636400  0.48446100  1
  O  O28  1  0.36384800  0.85690000  0.42149300  1
  O  O29  1  0.06248900  0.88932000  0.37019400  1
  O  O30  1  0.04276100  0.53341400  0.85935300  1
  O  O31  1  0.81395800  0.49405000  0.80610500  1
  O  O32  1  0.34449400  0.99977200  0.07638500  1
  O  O33  1  0.98672000  0.60244500  0.64172100  1
  O  O34  1  0.74237100  0.86036400  0.28185000  1
  O  O35  1  0.48672000  0.39755500  0.85827900  1
  O  O36  1  0.31395800  0.50595000  0.69389500  1
  O  O37  1  0.83429300  0.60692400  0.48388200  1
  O  O38  1  0.54276100  0.46658600  0.64064700  1
  O  O39  1  0.97203400  0.22936200  0.81522400  1
loop_
_geom_bond_atom_site_label_1
_geom_bond_atom_site_label_2
_geom_bond_distance
_geom_bond_site_symmetry_2
Li0 O4 2.127942 1_555
Li0 O15 2.221792 1_554
Li0 O32 2.309552 1_555
Li0 O8 2.358817 1_555
Li0 O19 2.381962 1_555
Li0 O14 2.598242 1_554
Li1 O6 2.127942 1_655
Li1 O10 2.221792 1_555
Li1 O22 2.309552 1_555
Li1 O3 2.358817 1_555
Li1 O37 2.381962 1_555
Li1 O11 2.598242 1_555
Li2 O33 2.127942 1_455
Li2 O29 2.221792 1_555
Li2 O17 2.309552 1_555
Li2 O36 2.358817 1_555
Li2 O2 2.381962 1_555
Li2 O28 2.598242 1_555
Li3 O35 2.127942 1_555
Li3 O24 2.221792 1_556
Li3 O7 2.309552 1_555
Li3 O31 2.358817 1_555
Li3 O20 2.381962 1_555
Li3 O25 2.598242 1_556
Fe0 O26 2.085803 1_555
Fe0 O13 2.085803 1_444
Fe0 O39 2.125597 1_454
Fe0 O0 2.125597 1_545
Fe0 O14 2.212771 1_544
Fe0 O25 2.212771 1_455
Fe1 O27 2.085803 1_545
Fe1 O12 2.085803 1_555
Fe1 O23 2.125597 1_545
Fe1 O16 2.125597 1_555
Fe1 O11 2.212771 1_555
Fe1 O28 2.212771 1_545
H0 O3 1.029042 1_555
H0 O34 1.544657 1_555
H1 O1 1.029362 1_555
H1 O12 1.519441 1_555
H2 O2 1.070001 1_555
H2 O6 1.425306 1_555
H3 O11 0.985144 1_555
H4 O10 0.997133 1_555
H5 O7 1.027041 1_565
H5 O15 1.625832 1_555
H6 O20 1.070001 1_554
H6 O4 1.425306 1_555
H7 O9 1.029362 1_555
H7 O13 1.519441 1_554
H8 O14 0.998815 1_555
H9 O15 0.998050 1_555
H10 O10 0.998050 1_555
H11 O8 1.029042 1_555
H11 O21 1.544657 1_555
H12 O11 0.998815 1_555
H13 O17 1.027041 1_545
H13 O10 1.625832 1_455
H14 O15 0.997133 1_555
H15 O14 0.985144 1_555
H16 O25 0.985144 1_555
H17 O24 0.997133 1_555
H18 O22 1.027041 1_565
H18 O29 1.625832 1_655
H19 O28 0.998815 1_555
H20 O31 1.029042 1_555
H20 O18 1.544657 1_555
H21 O29 0.998050 1_555
H22 O24 0.998050 1_555
H23 O25 0.998815 1_555
H24 O30 1.029362 1_555
H24 O26 1.519441 1_556
H25 O19 1.070001 1_556
H25 O35 1.425306 1_555
H26 O32 1.027041 1_545
H26 O24 1.625832 1_555
H27 O29 0.997133 1_555
H28 O28 0.985144 1_555
H29 O37 1.070001 1_555
H29 O33 1.425306 1_555
H30 O38 1.029362 1_555
H30 O27 1.519441 1_555
H31 O36 1.029042 1_555
H31 O5 1.544657 1_555
O0 P0 1.525640 1_555
O1 P1 1.595823 1_555
O2 P2 1.577380 1_555
O3 P1 1.594090 1_555
O4 P1 1.524532 1_555
O5 P2 1.532673 1_555
O6 P0 1.524532 1_555
O7 P3 1.594083 1_545
O8 P0 1.594090 1_555
O9 P0 1.595823 1_655
O12 P2 1.525125 1_555
O13 P3 1.525125 1_555
O16 P1 1.525640 1_555
O17 P2 1.594083 1_565
O18 P3 1.532673 1_555
O19 P4 1.577380 1_555
O20 P3 1.577380 1_555
O21 P4 1.532673 1_555
O22 P5 1.594083 1_545
O23 P6 1.525640 1_555
O26 P4 1.525125 1_555
O27 P5 1.525125 1_555
O30 P7 1.595823 1_455
O31 P7 1.594090 1_555
O32 P4 1.594083 1_565
O33 P7 1.524532 1_555
O34 P5 1.532673 1_555
O35 P6 1.524532 1_555
O36 P6 1.594090 1_555
O37 P5 1.577380 1_555
O38 P6 1.595823 1_555
O39 P7 1.525640 1_555
