# generated using pymatgen
data_Mn6O5F7
_symmetry_space_group_name_H-M   'P 1'
_cell_length_a   4.75169034
_cell_length_b   4.75169034
_cell_length_c   9.45460734
_cell_angle_alpha   89.97931785
_cell_angle_beta   89.97931785
_cell_angle_gamma   94.46298079
_symmetry_Int_Tables_number   1
_chemical_formula_structural   Mn6O5F7
_chemical_formula_sum   'Mn6 O5 F7'
_cell_volume   212.82411524
_cell_formula_units_Z   1
loop_
 _symmetry_equiv_pos_site_id
 _symmetry_equiv_pos_as_xyz
  1  'x, y, z'
loop_
 _atom_site_type_symbol
 _atom_site_label
 _atom_site_symmetry_multiplicity
 _atom_site_fract_x
 _atom_site_fract_y
 _atom_site_fract_z
 _atom_site_occupancy
  Mn  Mn0  1  0.99708600  0.00291400  0.00000000  1
  Mn  Mn1  1  0.01774200  0.03567300  0.65971100  1
  Mn  Mn2  1  0.96432700  0.98225800  0.34028900  1
  Mn  Mn3  1  0.50050600  0.50778800  0.15892300  1
  Mn  Mn4  1  0.49221200  0.49949400  0.84107700  1
  Mn  Mn5  1  0.52255600  0.47744400  0.50000000  1
  O  O0  1  0.81718100  0.18281900  0.50000000  1
  O  O1  1  0.69122000  0.70092900  0.99837100  1
  O  O2  1  0.68408000  0.67667900  0.33230000  1
  O  O3  1  0.29907100  0.30878000  0.00162900  1
  O  O4  1  0.32332100  0.31592000  0.66770000  1
  F  F0  1  0.80883100  0.20210900  0.83464200  1
  F  F1  1  0.79789100  0.19116900  0.16535800  1
  F  F2  1  0.71566400  0.71339500  0.67803200  1
  F  F3  1  0.28660500  0.28433600  0.32196800  1
  F  F4  1  0.21869800  0.78130200  0.50000000  1
  F  F5  1  0.19004800  0.82704000  0.82290600  1
  F  F6  1  0.17296000  0.80995200  0.17709400  1
loop_
_geom_bond_atom_site_label_1
_geom_bond_atom_site_label_2
_geom_bond_distance
_geom_bond_site_symmetry_2
Mn0 O1 1.961394 1_544
Mn0 O3 1.961394 1_655
Mn1 O4 1.893825 1_555
Mn1 O0 1.944525 1_455
Mn2 O2 1.893825 1_555
Mn2 O0 1.944525 1_565
Mn3 O1 1.958632 1_554
Mn3 O3 1.970573 1_555
Mn3 O2 1.996239 1_555
Mn4 O3 1.958632 1_556
Mn4 O1 1.970573 1_555
Mn4 O4 1.996239 1_555
Mn5 O2 1.970839 1_555
Mn5 O4 1.970839 1_555
Mn5 O0 2.055440 1_555
F0 Mn0 2.066878 1_556
F0 Mn1 2.113811 1_655
F0 Mn4 2.143549 1_555
F1 Mn0 2.066878 1_555
F1 Mn2 2.113811 1_545
F1 Mn3 2.143549 1_555
F2 Mn1 2.023102 1_665
F2 Mn4 2.089607 1_555
F2 Mn5 2.185084 1_555
F3 Mn2 2.023102 1_445
F3 Mn3 2.089607 1_555
F3 Mn5 2.185084 1_555
F4 Mn5 2.119854 1_555
F4 Mn1 2.198351 1_565
F4 Mn2 2.198351 1_455
F5 Mn1 2.039594 1_565
F5 Mn0 2.112275 1_466
F5 Mn4 2.204800 1_555
F6 Mn2 2.039594 1_455
F6 Mn0 2.112275 1_465
F6 Mn3 2.204800 1_555
