# generated using pymatgen
data_CoPO4
_symmetry_space_group_name_H-M   'P 1'
_cell_length_a   5.29422400
_cell_length_b   7.80199800
_cell_length_c   8.77685306
_cell_angle_alpha   77.01838582
_cell_angle_beta   90.00000000
_cell_angle_gamma   90.00000000
_symmetry_Int_Tables_number   1
_chemical_formula_structural   CoPO4
_chemical_formula_sum   'Co4 P4 O16'
_cell_volume   353.26699007
_cell_formula_units_Z   4
loop_
 _symmetry_equiv_pos_site_id
 _symmetry_equiv_pos_as_xyz
  1  'x, y, z'
loop_
 _atom_site_type_symbol
 _atom_site_label
 _atom_site_symmetry_multiplicity
 _atom_site_fract_x
 _atom_site_fract_y
 _atom_site_fract_z
 _atom_site_occupancy
  Co  Co0  1  0.87130700  0.03016700  0.06639300  1
  Co  Co1  1  0.31093800  0.51426100  0.27150900  1
  Co  Co2  1  0.12869300  0.03016700  0.56639300  1
  Co  Co3  1  0.68906200  0.51426100  0.77150900  1
  P  P0  1  0.67306400  0.74770500  0.02789600  1
  P  P1  1  0.81023800  0.25968500  0.31425000  1
  P  P2  1  0.32693600  0.74770500  0.52789600  1
  P  P3  1  0.18976200  0.25968500  0.81425000  1
  O  O0  1  0.16376800  0.11527500  0.96814700  1
  O  O1  1  0.41225400  0.67774500  0.09763900  1
  O  O2  1  0.72475700  0.17340800  0.17988700  1
  O  O3  1  0.86039600  0.77918500  0.15714500  1
  O  O4  1  0.07467300  0.34283600  0.27222700  1
  O  O5  1  0.61778100  0.39540200  0.34061600  1
  O  O6  1  0.83623200  0.11527500  0.46814700  1
  O  O7  1  0.21661800  0.62082800  0.43510800  1
  O  O8  1  0.34951300  0.93958600  0.42646400  1
  O  O9  1  0.58774600  0.67774500  0.59763900  1
  O  O10  1  0.27524300  0.17340800  0.67988700  1
  O  O11  1  0.13960400  0.77918500  0.65714500  1
  O  O12  1  0.92532700  0.34283600  0.77222700  1
  O  O13  1  0.38221900  0.39540200  0.84061600  1
  O  O14  1  0.78338200  0.62082800  0.93510800  1
  O  O15  1  0.65048700  0.93958600  0.92646400  1
loop_
_geom_bond_atom_site_label_1
_geom_bond_atom_site_label_2
_geom_bond_distance
_geom_bond_site_symmetry_2
Co0 O0 1.823353 1_654
Co0 O2 1.828477 1_555
Co0 O15 1.940215 1_544
Co0 O3 1.942017 1_545
Co1 O4 1.830204 1_555
Co1 O1 1.835455 1_555
Co1 O7 1.881161 1_555
Co1 O5 1.901086 1_555
Co2 O6 1.823353 1_455
Co2 O10 1.828477 1_555
Co2 O8 1.940215 1_545
Co2 O11 1.942017 1_545
Co3 O12 1.830204 1_555
Co3 O9 1.835455 1_555
Co3 O14 1.881161 1_555
Co3 O13 1.901086 1_555
O0 P3 1.558558 1_555
O1 P0 1.558552 1_555
O2 P1 1.550893 1_555
O3 P0 1.567158 1_555
O4 P1 1.552205 1_455
O5 P1 1.524142 1_555
O6 P1 1.558558 1_555
O7 P2 1.531801 1_555
O8 P2 1.565003 1_555
O9 P2 1.558552 1_555
O10 P3 1.550893 1_555
O11 P2 1.567158 1_555
O12 P3 1.552205 1_655
O13 P3 1.524142 1_555
O14 P0 1.531801 1_556
O15 P0 1.565003 1_556
