# generated using pymatgen
data_Li11Fe12(BO3)12
_symmetry_space_group_name_H-M   'P 1'
_cell_length_a   9.06040900
_cell_length_b   9.06624222
_cell_length_c   11.46548072
_cell_angle_alpha   88.94186077
_cell_angle_beta   113.22462396
_cell_angle_gamma   119.88370387
_symmetry_Int_Tables_number   1
_chemical_formula_structural   Li11Fe12(BO3)12
_chemical_formula_sum   'Li11 Fe12 B12 O36'
_cell_volume   731.45423261
_cell_formula_units_Z   1
loop_
 _symmetry_equiv_pos_site_id
 _symmetry_equiv_pos_as_xyz
  1  'x, y, z'
loop_
 _atom_site_type_symbol
 _atom_site_label
 _atom_site_symmetry_multiplicity
 _atom_site_fract_x
 _atom_site_fract_y
 _atom_site_fract_z
 _atom_site_occupancy
  Li  Li0  1  0.98987400  0.57492500  0.41256500  1
  Li  Li1  1  0.73053400  0.27722200  0.16044100  1
  Li  Li2  1  0.65319700  0.91210900  0.41374800  1
  Li  Li3  1  0.71456900  0.78332900  0.66798800  1
  Li  Li4  1  0.39153500  0.60968500  0.16125000  1
  Li  Li5  1  0.66613800  0.40971600  0.90742800  1
  Li  Li6  1  0.31855100  0.24586900  0.39910500  1
  Li  Li7  1  0.38808200  0.11516000  0.66711900  1
  Li  Li8  1  0.05921800  0.94491800  0.15780000  1
  Li  Li9  1  0.33403500  0.74070600  0.91139400  1
  Li  Li10  1  0.04572900  0.44517600  0.66470700  1
  Fe  Fe0  1  0.63154100  0.23357900  0.38077000  1
  Fe  Fe1  1  0.37396300  0.93947700  0.12725200  1
  Fe  Fe2  1  0.29049800  0.38479400  0.88323000  1
  Fe  Fe3  1  0.30564700  0.56465500  0.37893200  1
  Fe  Fe4  1  0.03209700  0.10354000  0.64025800  1
  Fe  Fe5  1  0.03883500  0.26949900  0.11973100  1
  Fe  Fe6  1  0.98354100  0.75720300  0.88497900  1
  Fe  Fe7  1  0.97087000  0.90413300  0.37946300  1
  Fe  Fe8  1  0.69967200  0.44479800  0.63590900  1
  Fe  Fe9  1  0.69906800  0.59887300  0.12359200  1
  Fe  Fe10  1  0.65713000  0.06191100  0.88008300  1
  Fe  Fe11  1  0.36357900  0.76808000  0.63349800  1
  B  B0  1  0.29885800  0.89661200  0.37559700  1
  B  B1  1  0.03234100  0.60238900  0.12727800  1
  B  B2  1  0.62484900  0.72203100  0.87225100  1
  B  B3  1  0.97188600  0.23422600  0.37427900  1
  B  B4  1  0.35796600  0.42976900  0.62240500  1
  B  B5  1  0.69890000  0.93287300  0.12865800  1
  B  B6  1  0.31714600  0.06761600  0.87437800  1
  B  B7  1  0.64187700  0.57647200  0.37696900  1
  B  B8  1  0.02456800  0.76485800  0.61865300  1
  B  B9  1  0.36934000  0.26911200  0.13589400  1
  B  B10  1  0.97182900  0.41326900  0.87550600  1
  B  B11  1  0.69679400  0.09999500  0.62647500  1
  O  O0  1  0.48894700  0.20480700  0.16365900  1
  O  O1  1  0.09440000  0.76764400  0.09983800  1
  O  O2  1  0.84812500  0.49950300  0.11405100  1
  O  O3  1  0.23872200  0.74161500  0.41502000  1
  O  O4  1  0.45394800  0.97050800  0.34697900  1
  O  O5  1  0.87811800  0.31906900  0.36273600  1
  O  O6  1  0.76288000  0.99694100  0.60960900  1
  O  O7  1  0.15093500  0.53780500  0.16498400  1
  O  O8  1  0.21088000  0.36687100  0.65791100  1
  O  O9  1  0.75761600  0.09058000  0.09025200  1
  O  O10  1  0.43364800  0.59501000  0.59354100  1
  O  O11  1  0.51618000  0.82986200  0.11642300  1
  O  O12  1  0.78595200  0.80623800  0.85547500  1
  O  O13  1  0.90691500  0.07108600  0.41021600  1
  O  O14  1  0.57104300  0.56863000  0.91818500  1
  O  O15  1  0.12583200  0.30257900  0.34641300  1
  O  O16  1  0.20051400  0.13259500  0.84033400  1
  O  O17  1  0.55074500  0.66446100  0.36192000  1
  O  O18  1  0.42996600  0.32894600  0.61222200  1
  O  O19  1  0.82414200  0.87190100  0.17723000  1
  O  O20  1  0.88476100  0.71043100  0.65929600  1
  O  O21  1  0.42417800  0.42995000  0.10068400  1
  O  O22  1  0.09307200  0.92683200  0.57933100  1
  O  O23  1  0.20230000  0.17573600  0.14484800  1
  O  O24  1  0.48419900  0.15424500  0.86245700  1
  O  O25  1  0.58119200  0.41837800  0.41358500  1
  O  O26  1  0.26015400  0.91017100  0.91568800  1
  O  O27  1  0.80305900  0.64978800  0.35120000  1
  O  O28  1  0.85892300  0.48457000  0.84303100  1
  O  O29  1  0.20308100  0.98411600  0.36349700  1
  O  O30  1  0.09821900  0.66510200  0.61290400  1
  O  O31  1  0.55587300  0.03503700  0.66930000  1
  O  O32  1  0.76645300  0.26418000  0.59693700  1
  O  O33  1  0.13907900  0.49662800  0.86150400  1
  O  O34  1  0.91712300  0.26168400  0.91984300  1
  O  O35  1  0.51207300  0.79365200  0.84343700  1
loop_
_geom_bond_atom_site_label_1
_geom_bond_atom_site_label_2
_geom_bond_distance
_geom_bond_site_symmetry_2
Li0 O3 1.980991 1_655
Li0 O5 1.996159 1_555
Li0 O27 2.002143 1_555
Li0 O30 2.097492 1_655
Li1 O2 1.935734 1_555
Li1 O0 1.963254 1_555
Li1 O9 2.047182 1_555
Li1 O5 2.095845 1_555
Li2 O17 1.947635 1_555
Li2 O4 1.993223 1_555
Li2 O13 2.033004 1_565
Li2 O6 2.040618 1_555
Li3 O6 1.930991 1_555
Li3 O12 1.966846 1_555
Li3 O20 1.990905 1_555
Li3 O10 2.032730 1_555
Li4 O11 1.922951 1_555
Li4 O7 1.958465 1_555
Li4 O21 1.977132 1_555
Li4 O17 2.081313 1_555
Li5 O28 1.968274 1_555
Li5 O24 1.979132 1_555
Li5 O14 2.039777 1_555
Li5 O2 2.155624 1_556
Li6 O15 1.931166 1_555
Li6 O29 2.029234 1_545
Li6 O25 2.031177 1_555
Li6 O18 2.218542 1_555
Li7 O18 1.925438 1_555
Li7 O31 1.977189 1_555
Li7 O24 2.020775 1_555
Li7 O22 2.113474 1_545
Li8 O23 1.875865 1_565
Li8 O1 1.960462 1_555
Li8 O19 1.997006 1_455
Li8 O29 2.128925 1_555
Li9 O35 1.909302 1_555
Li9 O33 1.923266 1_555
Li9 O26 1.965883 1_555
Li9 O11 2.141077 1_556
Li10 O30 1.946460 1_555
Li10 O8 1.975260 1_555
Li10 O32 2.014460 1_455
Li10 O33 2.040779 1_555
Fe0 O25 2.019156 1_555
Fe0 O4 2.036166 1_545
Fe0 O5 2.065805 1_555
Fe0 O32 2.238752 1_555
Fe0 O0 2.255098 1_555
Fe1 O11 2.017467 1_555
Fe1 O0 2.059872 1_565
Fe1 O1 2.097540 1_555
Fe1 O26 2.189962 1_554
Fe1 O4 2.309590 1_555
Fe2 O16 2.000587 1_555
Fe2 O33 2.019775 1_555
Fe2 O14 2.097418 1_555
Fe2 O21 2.238904 1_556
Fe2 O8 2.376894 1_555
Fe3 O17 2.030029 1_555
Fe3 O15 2.033496 1_555
Fe3 O3 2.074769 1_555
Fe3 O10 2.220728 1_555
Fe3 O7 2.238664 1_555
Fe4 O6 1.998681 1_445
Fe4 O8 2.066465 1_555
Fe4 O16 2.126313 1_555
Fe4 O22 2.141849 1_545
Fe4 O13 2.380422 1_455
Fe5 O23 1.976934 1_555
Fe5 O7 2.094522 1_555
Fe5 O34 2.099622 1_454
Fe5 O9 2.111896 1_455
Fe5 O15 2.375642 1_555
Fe6 O12 1.956251 1_555
Fe6 O26 2.046228 1_655
Fe6 O28 2.109585 1_555
Fe6 O1 2.246971 1_656
Fe6 O20 2.347810 1_555
Fe7 O29 1.940210 1_655
Fe7 O13 1.950909 1_565
Fe7 O27 1.969633 1_555
Fe7 O22 2.075790 1_655
Fe7 O19 2.106160 1_555
Fe8 O18 2.019376 1_555
Fe8 O20 2.080576 1_555
Fe8 O32 2.115379 1_555
Fe8 O28 2.159207 1_555
Fe8 O25 2.305565 1_555
Fe9 O2 1.995014 1_555
Fe9 O21 2.077407 1_555
Fe9 O19 2.121566 1_555
Fe9 O14 2.125923 1_554
Fe9 O27 2.362821 1_555
Fe10 O34 1.992320 1_555
Fe10 O35 2.058153 1_545
Fe10 O24 2.060969 1_555
Fe10 O9 2.181772 1_556
Fe10 O31 2.189062 1_555
Fe11 O30 2.007872 1_555
Fe11 O10 2.079314 1_555
Fe11 O31 2.081468 1_565
Fe11 O35 2.193962 1_555
Fe11 O3 2.264715 1_555
B0 O3 1.372475 1_555
B0 O4 1.395867 1_555
B0 O29 1.410201 1_555
B1 O2 1.390351 1_455
B1 O7 1.391243 1_555
B1 O1 1.393739 1_555
B2 O12 1.362352 1_555
B2 O14 1.396096 1_555
B2 O35 1.400658 1_555
B3 O5 1.374678 1_555
B3 O15 1.383632 1_655
B3 O13 1.416019 1_555
B4 O8 1.388852 1_555
B4 O18 1.390309 1_555
B4 O10 1.400382 1_555
B5 O11 1.383338 1_555
B5 O9 1.387372 1_565
B5 O19 1.420794 1_555
B6 O24 1.378782 1_555
B6 O16 1.379365 1_555
B6 O26 1.400702 1_545
B7 O17 1.373620 1_555
B7 O25 1.381115 1_555
B7 O27 1.423923 1_555
B8 O20 1.378178 1_455
B8 O30 1.380542 1_555
B8 O22 1.425821 1_555
B9 O23 1.363946 1_555
B9 O21 1.396661 1_555
B9 O0 1.402232 1_555
B10 O34 1.373658 1_555
B10 O33 1.392627 1_655
B10 O28 1.397374 1_555
B11 O6 1.387196 1_545
B11 O32 1.393762 1_555
B11 O31 1.397357 1_555
