# generated using pymatgen
data_Li2MnFe3O8
_symmetry_space_group_name_H-M   'P 1'
_cell_length_a   5.81592825
_cell_length_b   5.81592825
_cell_length_c   5.81592867
_cell_angle_alpha   59.65475047
_cell_angle_beta   59.65475047
_cell_angle_gamma   59.65475275
_symmetry_Int_Tables_number   1
_chemical_formula_structural   Li2MnFe3O8
_chemical_formula_sum   'Li2 Mn1 Fe3 O8'
_cell_volume   138.01360837
_cell_formula_units_Z   1
loop_
 _symmetry_equiv_pos_site_id
 _symmetry_equiv_pos_as_xyz
  1  'x, y, z'
loop_
 _atom_site_type_symbol
 _atom_site_label
 _atom_site_symmetry_multiplicity
 _atom_site_fract_x
 _atom_site_fract_y
 _atom_site_fract_z
 _atom_site_occupancy
  Li  Li0  1  0.12655800  0.12655800  0.12655800  1
  Li  Li1  1  0.87344200  0.87344200  0.87344200  1
  Mn  Mn0  1  0.50000000  0.50000000  0.50000000  1
  Fe  Fe0  1  0.50000000  0.00000000  0.50000000  1
  Fe  Fe1  1  0.00000000  0.50000000  0.50000000  1
  Fe  Fe2  1  0.50000000  0.50000000  0.00000000  1
  O  O0  1  0.26391000  0.26391000  0.26391000  1
  O  O1  1  0.26266700  0.26266700  0.70901500  1
  O  O2  1  0.70901500  0.26266700  0.26266700  1
  O  O3  1  0.26266700  0.70901500  0.26266700  1
  O  O4  1  0.73733300  0.29098500  0.73733300  1
  O  O5  1  0.29098500  0.73733300  0.73733300  1
  O  O6  1  0.73733300  0.73733300  0.29098500  1
  O  O7  1  0.73609000  0.73609000  0.73609000  1
loop_
_geom_bond_atom_site_label_1
_geom_bond_atom_site_label_2
_geom_bond_distance
_geom_bond_site_symmetry_2
Li0 O0 1.961814 1_555
Li0 O2 1.974550 1_455
Li0 O3 1.974550 1_545
Li0 O1 1.974550 1_554
Li1 O7 1.961814 1_555
Li1 O4 1.974550 1_565
Li1 O5 1.974550 1_655
Li1 O6 1.974550 1_556
Mn0 O6 1.955130 1_555
Mn0 O1 1.955130 1_555
Mn0 O5 1.955130 1_555
Mn0 O3 1.955130 1_555
Mn0 O2 1.955130 1_555
Mn0 O4 1.955130 1_555
Fe0 O2 1.940895 1_555
Fe0 O5 1.940895 1_545
Fe0 O1 1.940896 1_555
Fe0 O6 1.940896 1_545
Fe0 O0 1.942323 1_555
Fe0 O7 1.942323 1_545
Fe1 O3 1.940895 1_555
Fe1 O4 1.940895 1_455
Fe1 O1 1.940896 1_555
Fe1 O6 1.940896 1_455
Fe1 O0 1.942323 1_555
Fe1 O7 1.942323 1_455
Fe2 O3 1.940896 1_555
Fe2 O4 1.940896 1_554
Fe2 O2 1.940896 1_555
Fe2 O5 1.940896 1_554
Fe2 O0 1.942323 1_555
Fe2 O7 1.942323 1_554
