# generated using pymatgen
data_Na2B5H5O12
_symmetry_space_group_name_H-M   'P 1'
_cell_length_a   6.62941500
_cell_length_b   8.62914801
_cell_length_c   9.64737516
_cell_angle_alpha   71.71634213
_cell_angle_beta   76.85328845
_cell_angle_gamma   72.04839873
_symmetry_Int_Tables_number   1
_chemical_formula_structural   Na2B5H5O12
_chemical_formula_sum   'Na4 B10 H10 O24'
_cell_volume   493.26611588
_cell_formula_units_Z   2
loop_
 _symmetry_equiv_pos_site_id
 _symmetry_equiv_pos_as_xyz
  1  'x, y, z'
loop_
 _atom_site_type_symbol
 _atom_site_label
 _atom_site_symmetry_multiplicity
 _atom_site_fract_x
 _atom_site_fract_y
 _atom_site_fract_z
 _atom_site_occupancy
  Na  Na0  1  0.96076800  0.90360600  0.36589500  1
  Na  Na1  1  0.03923200  0.09639400  0.63410500  1
  Na  Na2  1  0.43369300  0.58592700  0.15539000  1
  Na  Na3  1  0.56630700  0.41407300  0.84461000  1
  B  B0  1  0.85419700  0.33429500  0.16100000  1
  B  B1  1  0.14580300  0.66570500  0.83900000  1
  B  B2  1  0.18147700  0.25641500  0.28532200  1
  B  B3  1  0.81852300  0.74358500  0.71467800  1
  B  B4  1  0.84635700  0.46277800  0.35971900  1
  B  B5  1  0.15364300  0.53722200  0.64028100  1
  B  B6  1  0.37418100  0.95331000  0.37126600  1
  B  B7  1  0.62581900  0.04669000  0.62873400  1
  B  B8  1  0.58185300  0.15786600  0.26323600  1
  B  B9  1  0.41814700  0.84213400  0.73676400  1
  H  H0  1  0.84103500  0.51260100  0.95781400  1
  H  H1  1  0.15896500  0.48739900  0.04218600  1
  H  H2  1  0.81435000  0.58362100  0.51519700  1
  H  H3  1  0.18565000  0.41637900  0.48480300  1
  H  H4  1  0.49590900  0.70337900  0.42376100  1
  H  H5  1  0.50409100  0.29662100  0.57623900  1
  H  H6  1  0.71866200  0.80337200  0.97638500  1
  H  H7  1  0.28133800  0.19662800  0.02361500  1
  H  H8  1  0.07890000  0.75327900  0.06971100  1
  H  H9  1  0.92110000  0.24672100  0.93028900  1
  O  O0  1  0.78569200  0.17697300  0.22411400  1
  O  O1  1  0.21430800  0.82302700  0.77588600  1
  O  O2  1  0.79058900  0.40929200  0.01233800  1
  O  O3  1  0.20941100  0.59070800  0.98766200  1
  O  O4  1  0.08819500  0.30157700  0.15000400  1
  O  O5  1  0.91180500  0.69842300  0.84999600  1
  O  O6  1  0.74732900  0.45541600  0.25329600  1
  O  O7  1  0.25267100  0.54458400  0.74670400  1
  O  O8  1  0.73381800  0.57226500  0.44473700  1
  O  O9  1  0.26618200  0.42773500  0.55526300  1
  O  O10  1  0.05110300  0.36632700  0.38468200  1
  O  O11  1  0.94889700  0.63367300  0.61531800  1
  O  O12  1  0.18667600  0.07894700  0.36897800  1
  O  O13  1  0.81332400  0.92105300  0.63102200  1
  O  O14  1  0.39836700  0.28548400  0.24545500  1
  O  O15  1  0.60163300  0.71451600  0.75454500  1
  O  O16  1  0.35530900  0.79147200  0.41498700  1
  O  O17  1  0.64469100  0.20852800  0.58501300  1
  O  O18  1  0.57421900  0.98877600  0.33085300  1
  O  O19  1  0.42578100  0.01122400  0.66914700  1
  O  O20  1  0.58939200  0.82891800  0.05360000  1
  O  O21  1  0.41060800  0.17108200  0.94640000  1
  O  O22  1  0.02799200  0.81205300  0.15158700  1
  O  O23  1  0.97200800  0.18794700  0.84841300  1
loop_
_geom_bond_atom_site_label_1
_geom_bond_atom_site_label_2
_geom_bond_distance
_geom_bond_site_symmetry_2
Na0 O22 2.342228 1_655
Na0 O0 2.406765 1_565
Na0 O12 2.445081 1_665
Na0 O18 2.509691 1_555
Na0 O13 2.556160 1_555
Na0 O16 2.591850 1_655
Na0 O11 2.780656 1_555
Na1 O23 2.342228 1_455
Na1 O1 2.406765 1_545
Na1 O13 2.445081 1_445
Na1 O19 2.509691 1_555
Na1 O12 2.556160 1_555
Na1 O17 2.591850 1_455
Na1 O10 2.780656 1_555
Na2 O6 2.294805 1_555
Na2 O3 2.417757 1_554
Na2 O20 2.451010 1_555
Na2 O14 2.529725 1_555
Na2 O2 2.727144 1_555
Na2 O22 2.794185 1_555
Na3 O7 2.294805 1_555
Na3 O2 2.417757 1_556
Na3 O21 2.451010 1_555
Na3 O15 2.529725 1_555
Na3 O3 2.727144 1_555
Na3 O23 2.794185 1_555
B0 O0 1.468184 1_555
B0 O4 1.473554 1_655
B0 O2 1.475832 1_555
B0 O6 1.492536 1_555
B1 O1 1.468184 1_555
B1 O5 1.473554 1_455
B1 O3 1.475832 1_555
B1 O7 1.492536 1_555
B2 O4 1.462190 1_555
B2 O14 1.479359 1_555
B2 O12 1.484033 1_555
B2 O10 1.501222 1_555
B3 O5 1.462190 1_555
B3 O15 1.479359 1_555
B3 O13 1.484033 1_555
B3 O11 1.501222 1_555
B4 O6 1.364692 1_555
B4 O8 1.376701 1_555
B4 O10 1.385513 1_655
B5 O7 1.364692 1_555
B5 O9 1.376701 1_555
B5 O11 1.385513 1_455
B6 O16 1.363065 1_555
B6 O12 1.373959 1_565
B6 O18 1.394425 1_555
B7 O17 1.363065 1_555
B7 O13 1.373959 1_545
B7 O19 1.394425 1_555
B8 O0 1.364561 1_555
B8 O14 1.368372 1_555
B8 O18 1.410803 1_545
B9 O1 1.364561 1_555
B9 O15 1.368372 1_555
B9 O19 1.410803 1_565
H0 O2 0.996383 1_556
H1 O3 0.996383 1_554
H2 O8 0.997909 1_555
H3 O9 0.997909 1_555
H4 O16 1.006266 1_555
H4 O8 1.646245 1_555
H5 O17 1.006266 1_555
H5 O9 1.646245 1_555
H6 O20 1.016912 1_556
H7 O21 1.016912 1_554
H8 O22 1.009766 1_555
H8 Na2 2.518442 1_555
H9 O23 1.009766 1_555
H9 Na3 2.518442 1_555
