# generated using pymatgen
data_Li2FeSi4O11
_symmetry_space_group_name_H-M   'P 1'
_cell_length_a   8.48354578
_cell_length_b   8.48354578
_cell_length_c   8.48354578
_cell_angle_alpha   102.04223540
_cell_angle_beta   102.04223540
_cell_angle_gamma   125.64311445
_symmetry_Int_Tables_number   1
_chemical_formula_structural   Li2FeSi4O11
_chemical_formula_sum   'Li4 Fe2 Si8 O22'
_cell_volume   441.39915369
_cell_formula_units_Z   2
loop_
 _symmetry_equiv_pos_site_id
 _symmetry_equiv_pos_as_xyz
  1  'x, y, z'
loop_
 _atom_site_type_symbol
 _atom_site_label
 _atom_site_symmetry_multiplicity
 _atom_site_fract_x
 _atom_site_fract_y
 _atom_site_fract_z
 _atom_site_occupancy
  Li  Li0  1  0.65737300  0.62221500  0.27958800  1
  Li  Li1  1  0.37778500  0.65737300  0.03515800  1
  Li  Li2  1  0.62221500  0.34262700  0.96484200  1
  Li  Li3  1  0.34262700  0.37778500  0.72041200  1
  Fe  Fe0  1  0.24084700  0.24084700  0.00000000  1
  Fe  Fe1  1  0.75915300  0.75915300  0.00000000  1
  Si  Si0  1  0.50081100  0.17765600  0.28634200  1
  Si  Si1  1  0.10868600  0.78553100  0.28634200  1
  Si  Si2  1  0.17765600  0.89131400  0.67684500  1
  Si  Si3  1  0.78553100  0.49918900  0.67684500  1
  Si  Si4  1  0.82234400  0.10868600  0.32315500  1
  Si  Si5  1  0.21446900  0.50081100  0.32315500  1
  Si  Si6  1  0.49918900  0.82234400  0.71365800  1
  Si  Si7  1  0.89131400  0.21446900  0.71365800  1
  O  O0  1  0.00000000  0.00000000  0.00000000  1
  O  O1  1  0.50000000  0.50000000  0.00000000  1
  O  O2  1  0.45839500  0.21878400  0.11086300  1
  O  O3  1  0.89207800  0.65246800  0.11086300  1
  O  O4  1  0.28822300  0.03494100  0.32316400  1
  O  O5  1  0.67592400  0.40833700  0.45972700  1
  O  O6  1  0.05139000  0.78380300  0.45972700  1
  O  O7  1  0.59166300  0.05139000  0.26758700  1
  O  O8  1  0.21619700  0.67592400  0.26758700  1
  O  O9  1  0.21878400  0.10792200  0.76038900  1
  O  O10  1  0.65246800  0.54160500  0.76038900  1
  O  O11  1  0.96505900  0.28822300  0.25328200  1
  O  O12  1  0.03494100  0.71177700  0.74671800  1
  O  O13  1  0.34753200  0.45839500  0.23961100  1
  O  O14  1  0.78121600  0.89207800  0.23961100  1
  O  O15  1  0.78380300  0.32407600  0.73241300  1
  O  O16  1  0.40833700  0.94861000  0.73241300  1
  O  O17  1  0.32407600  0.59166300  0.54027300  1
  O  O18  1  0.94861000  0.21619700  0.54027300  1
  O  O19  1  0.71177700  0.96505900  0.67683600  1
  O  O20  1  0.10792200  0.34753200  0.88913700  1
  O  O21  1  0.54160500  0.78121600  0.88913700  1
loop_
_geom_bond_atom_site_label_1
_geom_bond_atom_site_label_2
_geom_bond_distance
_geom_bond_site_symmetry_2
Li0 O14 2.032123 1_555
Li0 O13 2.032130 1_555
Li0 O1 2.126630 1_555
Li1 O20 2.032128 1_554
Li1 O21 2.032130 1_554
Li1 O1 2.126630 1_555
Li2 O3 2.032128 1_556
Li2 O2 2.032130 1_556
Li2 O1 2.126630 1_556
Li3 O9 2.032123 1_555
Li3 O10 2.032130 1_555
Li3 O1 2.126630 1_556
Fe0 O0 1.866551 1_555
Fe0 O1 2.008421 1_555
Fe0 O20 2.019283 1_554
Fe0 O9 2.019286 1_554
Fe0 O13 2.019289 1_555
Fe0 O2 2.019289 1_555
Fe1 O0 1.866551 1_665
Fe1 O1 2.008421 1_555
Fe1 O3 2.019283 1_555
Fe1 O14 2.019286 1_555
Fe1 O21 2.019289 1_554
Fe1 O10 2.019289 1_554
O2 Si0 1.614603 1_555
O3 Si1 1.614607 1_655
O4 Si0 1.632204 1_555
O4 Si1 1.632204 1_545
O5 Si0 1.642898 1_555
O5 Si3 1.645928 1_555
O6 Si1 1.642898 1_555
O6 Si2 1.645928 1_555
O7 Si4 1.642898 1_555
O7 Si0 1.645928 1_555
O8 Si5 1.642898 1_555
O8 Si1 1.645928 1_555
O9 Si2 1.614611 1_545
O10 Si3 1.614603 1_555
O11 Si4 1.632204 1_555
O11 Si5 1.632204 1_655
O12 Si2 1.632204 1_555
O12 Si3 1.632204 1_455
O13 Si5 1.614603 1_555
O14 Si4 1.614611 1_565
O15 Si3 1.642898 1_555
O15 Si7 1.645928 1_555
O16 Si2 1.642898 1_555
O16 Si6 1.645928 1_555
O17 Si6 1.642898 1_555
O17 Si5 1.645928 1_555
O18 Si7 1.642898 1_555
O18 Si4 1.645928 1_555
O19 Si7 1.632204 1_565
O19 Si6 1.632204 1_555
O20 Si7 1.614607 1_455
O21 Si6 1.614603 1_555
