# generated using pymatgen
data_Li2Fe2(SO4)3
_symmetry_space_group_name_H-M   'P 1'
_cell_length_a   8.71620900
_cell_length_b   8.89734800
_cell_length_c   12.47801400
_cell_angle_alpha   90.00000000
_cell_angle_beta   90.00000000
_cell_angle_gamma   90.00000000
_symmetry_Int_Tables_number   1
_chemical_formula_structural   Li2Fe2(SO4)3
_chemical_formula_sum   'Li8 Fe8 S12 O48'
_cell_volume   967.68426945
_cell_formula_units_Z   4
loop_
 _symmetry_equiv_pos_site_id
 _symmetry_equiv_pos_as_xyz
  1  'x, y, z'
loop_
 _atom_site_type_symbol
 _atom_site_label
 _atom_site_symmetry_multiplicity
 _atom_site_fract_x
 _atom_site_fract_y
 _atom_site_fract_z
 _atom_site_occupancy
  Li  Li0  1  0.21805000  0.27614400  0.18210600  1
  Li  Li1  1  0.78195000  0.77614400  0.18210600  1
  Li  Li2  1  0.28195000  0.77614400  0.31789400  1
  Li  Li3  1  0.71805000  0.27614400  0.31789400  1
  Li  Li4  1  0.28195000  0.72385600  0.68210600  1
  Li  Li5  1  0.71805000  0.22385600  0.68210600  1
  Li  Li6  1  0.21805000  0.22385600  0.81789400  1
  Li  Li7  1  0.78195000  0.72385600  0.81789400  1
  Fe  Fe0  1  0.25230500  0.95927300  0.11106300  1
  Fe  Fe1  1  0.74769500  0.45927300  0.11106300  1
  Fe  Fe2  1  0.75230500  0.95927300  0.38893700  1
  Fe  Fe3  1  0.24769500  0.45927300  0.38893700  1
  Fe  Fe4  1  0.24769500  0.04072700  0.61106300  1
  Fe  Fe5  1  0.75230500  0.54072700  0.61106300  1
  Fe  Fe6  1  0.25230500  0.54072700  0.88893700  1
  Fe  Fe7  1  0.74769500  0.04072700  0.88893700  1
  S  S0  1  0.45664200  0.25000000  0.00000000  1
  S  S1  1  0.54335800  0.75000000  0.00000000  1
  S  S2  1  0.10123300  0.60451900  0.14646200  1
  S  S3  1  0.89876700  0.10451900  0.14646200  1
  S  S4  1  0.39876700  0.10451900  0.35353800  1
  S  S5  1  0.60123300  0.60451900  0.35353800  1
  S  S6  1  0.04335800  0.75000000  0.50000000  1
  S  S7  1  0.95664200  0.25000000  0.50000000  1
  S  S8  1  0.39876700  0.39548100  0.64646200  1
  S  S9  1  0.60123300  0.89548100  0.64646200  1
  S  S10  1  0.10123300  0.89548100  0.85353800  1
  S  S11  1  0.89876700  0.39548100  0.85353800  1
  O  O0  1  0.13612200  0.57605900  0.03403600  1
  O  O1  1  0.86387800  0.07605900  0.03403600  1
  O  O2  1  0.54925400  0.36260900  0.05692800  1
  O  O3  1  0.45074600  0.86260900  0.05692800  1
  O  O4  1  0.35563200  0.17451100  0.08061600  1
  O  O5  1  0.64436800  0.67451100  0.08061600  1
  O  O6  1  0.06969600  0.10947400  0.16173100  1
  O  O7  1  0.93030400  0.60947400  0.16173100  1
  O  O8  1  0.16613600  0.75186700  0.18267800  1
  O  O9  1  0.83386400  0.25186700  0.18267800  1
  O  O10  1  0.83410100  0.98240600  0.21565200  1
  O  O11  1  0.16589900  0.48240600  0.21565200  1
  O  O12  1  0.33410100  0.98240600  0.28434800  1
  O  O13  1  0.66589900  0.48240600  0.28434800  1
  O  O14  1  0.66613600  0.75186700  0.31732200  1
  O  O15  1  0.33386400  0.25186700  0.31732200  1
  O  O16  1  0.43030400  0.60947400  0.33826900  1
  O  O17  1  0.56969600  0.10947400  0.33826900  1
  O  O18  1  0.14436800  0.67451100  0.41938400  1
  O  O19  1  0.85563200  0.17451100  0.41938400  1
  O  O20  1  0.04925400  0.36260900  0.44307200  1
  O  O21  1  0.95074600  0.86260900  0.44307200  1
  O  O22  1  0.63612200  0.57605900  0.46596400  1
  O  O23  1  0.36387800  0.07605900  0.46596400  1
  O  O24  1  0.36387800  0.42394100  0.53403600  1
  O  O25  1  0.63612200  0.92394100  0.53403600  1
  O  O26  1  0.04925400  0.13739100  0.55692800  1
  O  O27  1  0.95074600  0.63739100  0.55692800  1
  O  O28  1  0.14436800  0.82548900  0.58061600  1
  O  O29  1  0.85563200  0.32548900  0.58061600  1
  O  O30  1  0.43030400  0.89052600  0.66173100  1
  O  O31  1  0.56969600  0.39052600  0.66173100  1
  O  O32  1  0.33386400  0.24813300  0.68267800  1
  O  O33  1  0.66613600  0.74813300  0.68267800  1
  O  O34  1  0.33410100  0.51759400  0.71565200  1
  O  O35  1  0.66589900  0.01759400  0.71565200  1
  O  O36  1  0.16589900  0.01759400  0.78434800  1
  O  O37  1  0.83410100  0.51759400  0.78434800  1
  O  O38  1  0.16613600  0.74813300  0.81732200  1
  O  O39  1  0.83386400  0.24813300  0.81732200  1
  O  O40  1  0.06969600  0.39052600  0.83826900  1
  O  O41  1  0.93030400  0.89052600  0.83826900  1
  O  O42  1  0.35563200  0.32548900  0.91938400  1
  O  O43  1  0.64436800  0.82548900  0.91938400  1
  O  O44  1  0.45074600  0.63739100  0.94307200  1
  O  O45  1  0.54925400  0.13739100  0.94307200  1
  O  O46  1  0.13612200  0.92394100  0.96596400  1
  O  O47  1  0.86387800  0.42394100  0.96596400  1
loop_
_geom_bond_atom_site_label_1
_geom_bond_atom_site_label_2
_geom_bond_distance
_geom_bond_site_symmetry_2
Li0 O11 1.936425 1_555
Li0 O4 1.964564 1_555
Li0 O15 1.977979 1_555
Li0 O6 1.983875 1_555
Li1 O10 1.936425 1_555
Li1 O5 1.964564 1_555
Li1 O14 1.977979 1_555
Li1 O7 1.983875 1_555
Li2 O12 1.936425 1_555
Li2 O18 1.964564 1_555
Li2 O8 1.977979 1_555
Li2 O16 1.983875 1_555
Li3 O13 1.936425 1_555
Li3 O19 1.964564 1_555
Li3 O9 1.977979 1_555
Li3 O17 1.983875 1_555
Li4 O34 1.936425 1_555
Li4 O28 1.964564 1_555
Li4 O38 1.977979 1_555
Li4 O30 1.983875 1_555
Li5 O35 1.936425 1_555
Li5 O29 1.964564 1_555
Li5 O39 1.977979 1_555
Li5 O31 1.983875 1_555
Li6 O36 1.936425 1_555
Li6 O42 1.964564 1_555
Li6 O32 1.977979 1_555
Li6 O40 1.983875 1_555
Li7 O37 1.936425 1_555
Li7 O43 1.964564 1_555
Li7 O33 1.977979 1_555
Li7 O41 1.983875 1_555
Fe0 O3 2.046384 1_555
Fe0 O46 2.098193 1_554
Fe0 O4 2.150084 1_565
Fe0 O6 2.172335 1_565
Fe0 O8 2.183578 1_555
Fe0 O12 2.286044 1_555
Fe1 O2 2.046384 1_555
Fe1 O47 2.098193 1_554
Fe1 O5 2.150084 1_555
Fe1 O7 2.172335 1_555
Fe1 O9 2.183578 1_555
Fe1 O13 2.286044 1_555
Fe2 O21 2.046384 1_555
Fe2 O25 2.098193 1_555
Fe2 O19 2.150084 1_565
Fe2 O17 2.172335 1_565
Fe2 O14 2.183578 1_555
Fe2 O10 2.286044 1_555
Fe3 O20 2.046384 1_555
Fe3 O24 2.098193 1_555
Fe3 O18 2.150084 1_555
Fe3 O16 2.172335 1_555
Fe3 O15 2.183578 1_555
Fe3 O11 2.286044 1_555
Fe4 O26 2.046384 1_555
Fe4 O23 2.098193 1_555
Fe4 O28 2.150084 1_545
Fe4 O30 2.172335 1_545
Fe4 O32 2.183578 1_555
Fe4 O36 2.286044 1_555
Fe5 O27 2.046384 1_555
Fe5 O22 2.098193 1_555
Fe5 O29 2.150084 1_555
Fe5 O31 2.172335 1_555
Fe5 O33 2.183578 1_555
Fe5 O37 2.286044 1_555
Fe6 O44 2.046384 1_555
Fe6 O0 2.098193 1_556
Fe6 O42 2.150084 1_555
Fe6 O40 2.172335 1_555
Fe6 O38 2.183578 1_555
Fe6 O34 2.286044 1_555
Fe7 O45 2.046384 1_555
Fe7 O1 2.098193 1_556
Fe7 O43 2.150084 1_545
Fe7 O41 2.172335 1_545
Fe7 O39 2.183578 1_555
Fe7 O35 2.286044 1_555
O0 S2 1.457599 1_555
O1 S3 1.457599 1_555
O2 S0 1.469712 1_555
O3 S1 1.469712 1_555
O4 S0 1.496046 1_555
O5 S1 1.496046 1_555
O6 S3 1.502633 1_455
O7 S2 1.502633 1_655
O8 S2 1.497658 1_555
O9 S3 1.497658 1_555
O10 S3 1.497837 1_565
O11 S2 1.497837 1_555
O12 S4 1.497837 1_565
O13 S5 1.497837 1_555
O14 S5 1.497658 1_555
O15 S4 1.497658 1_555
O16 S5 1.502633 1_555
O17 S4 1.502633 1_555
O18 S6 1.496046 1_555
O19 S7 1.496046 1_555
O20 S7 1.469712 1_455
O21 S6 1.469712 1_655
O22 S5 1.457599 1_555
O23 S4 1.457599 1_555
O24 S8 1.457599 1_555
O25 S9 1.457599 1_555
O26 S7 1.469712 1_455
O27 S6 1.469712 1_655
O28 S6 1.496046 1_555
O29 S7 1.496046 1_555
O30 S9 1.502633 1_555
O31 S8 1.502633 1_555
O32 S8 1.497658 1_555
O33 S9 1.497658 1_555
O34 S8 1.497837 1_555
O35 S9 1.497837 1_545
O36 S10 1.497837 1_545
O37 S11 1.497837 1_555
O38 S10 1.497658 1_555
O39 S11 1.497658 1_555
O40 S11 1.502633 1_455
O41 S10 1.502633 1_655
O42 S0 1.496046 1_556
O43 S1 1.496046 1_556
O44 S1 1.469712 1_556
O45 S0 1.469712 1_556
O46 S10 1.457599 1_555
O47 S11 1.457599 1_555
