# generated using pymatgen
data_Na5Ni2P2(CO7)2
_symmetry_space_group_name_H-M   'P 1'
_cell_length_a   5.17570000
_cell_length_b   8.88374230
_cell_length_c   13.32133584
_cell_angle_alpha   89.83822862
_cell_angle_beta   89.97641302
_cell_angle_gamma   88.40679167
_symmetry_Int_Tables_number   1
_chemical_formula_structural   Na5Ni2P2(CO7)2
_chemical_formula_sum   'Na10 Ni4 P4 C4 O28'
_cell_volume   612.27023378
_cell_formula_units_Z   2
loop_
 _symmetry_equiv_pos_site_id
 _symmetry_equiv_pos_as_xyz
  1  'x, y, z'
loop_
 _atom_site_type_symbol
 _atom_site_label
 _atom_site_symmetry_multiplicity
 _atom_site_fract_x
 _atom_site_fract_y
 _atom_site_fract_z
 _atom_site_occupancy
  Na  Na0  1  0.77427600  0.08098600  0.12552500  1
  Na  Na1  1  0.24900500  0.26309100  0.74349800  1
  Na  Na2  1  0.24258100  0.25362500  0.50749900  1
  Na  Na3  1  0.25078600  0.26598200  0.24516600  1
  Na  Na4  1  0.25449800  0.27190100  0.00334400  1
  Na  Na5  1  0.75741900  0.74637500  0.49250100  1
  Na  Na6  1  0.75099500  0.73690900  0.25650200  1
  Na  Na7  1  0.74550200  0.72809900  0.99665600  1
  Na  Na8  1  0.74921400  0.73401800  0.75483400  1
  Na  Na9  1  0.22572400  0.91901400  0.87447500  1
  Ni  Ni0  1  0.77669400  0.34874900  0.37674700  1
  Ni  Ni1  1  0.77785200  0.34742800  0.87407500  1
  Ni  Ni2  1  0.22330600  0.65125100  0.62325300  1
  Ni  Ni3  1  0.22214800  0.65257200  0.12592500  1
  P  P0  1  0.71894300  0.42245400  0.62476100  1
  P  P1  1  0.71620200  0.41659800  0.12527500  1
  P  P2  1  0.28105700  0.57754600  0.37523900  1
  P  P3  1  0.28379800  0.58340200  0.87472500  1
  C  C0  1  0.71388700  0.07702500  0.37575600  1
  C  C1  1  0.71452600  0.06465000  0.87486800  1
  C  C2  1  0.28547400  0.93535000  0.12513200  1
  C  C3  1  0.28611300  0.92297500  0.62424400  1
  O  O0  1  0.30644400  0.06331600  0.62759700  1
  O  O1  1  0.31093100  0.07909100  0.12338400  1
  O  O2  1  0.93815500  0.14112400  0.37637200  1
  O  O3  1  0.94165300  0.12375700  0.87564600  1
  O  O4  1  0.51829900  0.17281100  0.37642500  1
  O  O5  1  0.51407900  0.15678800  0.87420800  1
  O  O6  1  0.78860100  0.31628400  0.21767500  1
  O  O7  1  0.78369600  0.32847800  0.71926100  1
  O  O8  1  0.78469200  0.32590900  0.53193600  1
  O  O9  1  0.79016100  0.31875700  0.03206100  1
  O  O10  1  0.13862000  0.42625200  0.37664300  1
  O  O11  1  0.14358200  0.43252600  0.87330200  1
  O  O12  1  0.41871400  0.46055700  0.62523200  1
  O  O13  1  0.41827100  0.44944700  0.12459400  1
  O  O14  1  0.58128600  0.53944300  0.37476800  1
  O  O15  1  0.58172900  0.55055300  0.87540600  1
  O  O16  1  0.85641800  0.56747400  0.12669800  1
  O  O17  1  0.86138000  0.57374800  0.62335700  1
  O  O18  1  0.20983900  0.68124300  0.96793900  1
  O  O19  1  0.21139900  0.68371600  0.78232500  1
  O  O20  1  0.21530800  0.67409100  0.46806400  1
  O  O21  1  0.21630400  0.67152200  0.28073900  1
  O  O22  1  0.48170100  0.82718900  0.62357500  1
  O  O23  1  0.48592100  0.84321200  0.12579200  1
  O  O24  1  0.05834700  0.87624300  0.12435400  1
  O  O25  1  0.06184500  0.85887600  0.62362800  1
  O  O26  1  0.68906900  0.92090900  0.87661600  1
  O  O27  1  0.69355600  0.93668400  0.37240300  1
loop_
_geom_bond_atom_site_label_1
_geom_bond_atom_site_label_2
_geom_bond_distance
_geom_bond_site_symmetry_2
Na0 O24 2.306881 1_645
Na0 O1 2.398844 1_555
Na0 O6 2.430031 1_555
Na0 O9 2.452237 1_555
Na0 O23 2.620028 1_545
Na0 O1 2.777283 1_655
Na1 O11 2.349820 1_555
Na1 O0 2.368053 1_555
Na1 O5 2.393029 1_555
Na1 O7 2.482613 1_455
Na1 O12 2.529799 1_555
Na1 O3 2.693796 1_455
Na1 O7 2.861427 1_555
Na2 O0 2.341203 1_555
Na2 O4 2.355569 1_555
Na2 O10 2.370617 1_555
Na2 O8 2.459809 1_455
Na2 O2 2.575342 1_455
Na2 O12 2.604015 1_555
Na2 O8 2.914273 1_555
Na3 O10 2.323592 1_555
Na3 O1 2.339098 1_555
Na3 O4 2.364240 1_555
Na3 O6 2.448766 1_455
Na3 O13 2.459738 1_555
Na3 O2 2.643861 1_455
Na3 O6 2.854728 1_555
Na4 O11 2.303916 1_554
Na4 O1 2.352328 1_555
Na4 O5 2.396195 1_554
Na4 O13 2.430031 1_555
Na4 O9 2.457607 1_455
Na4 O3 2.716800 1_454
Na4 O9 2.841114 1_555
Na5 O27 2.341203 1_555
Na5 O22 2.355569 1_555
Na5 O17 2.370617 1_555
Na5 O20 2.459809 1_655
Na5 O25 2.575342 1_655
Na5 O14 2.604015 1_555
Na5 O20 2.914273 1_555
Na6 O16 2.349820 1_555
Na6 O27 2.368053 1_555
Na6 O23 2.393029 1_555
Na6 O21 2.482613 1_655
Na6 O14 2.529799 1_555
Na6 O24 2.693796 1_655
Na6 O21 2.861427 1_555
Na7 O16 2.303916 1_556
Na7 O26 2.352328 1_555
Na7 O23 2.396195 1_556
Na7 O15 2.430031 1_555
Na7 O18 2.457607 1_655
Na7 O24 2.716800 1_656
Na7 O18 2.841114 1_555
Na8 O17 2.323592 1_555
Na8 O26 2.339098 1_555
Na8 O22 2.364240 1_555
Na8 O19 2.448766 1_655
Na8 O15 2.459738 1_555
Na8 O25 2.643861 1_655
Na8 O19 2.854728 1_555
Na9 O3 2.306881 1_465
Na9 O26 2.398844 1_555
Na9 O19 2.430031 1_555
Na9 O18 2.452237 1_555
Na9 O5 2.620028 1_565
Na9 O26 2.777283 1_455
Ni0 O14 1.948836 1_555
Ni0 O2 2.003708 1_555
Ni0 O10 2.013634 1_655
Ni0 O8 2.077005 1_555
Ni0 O4 2.085137 1_555
Ni0 O6 2.140026 1_555
Ni1 O15 2.045790 1_555
Ni1 O11 2.057727 1_655
Ni1 O7 2.069803 1_555
Ni1 O9 2.119998 1_556
Ni1 O3 2.138596 1_555
Ni1 O5 2.204681 1_555
Ni2 O12 1.948836 1_555
Ni2 O25 2.003708 1_555
Ni2 O17 2.013634 1_455
Ni2 O20 2.077005 1_555
Ni2 O22 2.085137 1_555
Ni2 O19 2.140026 1_555
Ni3 O13 2.045790 1_555
Ni3 O16 2.057727 1_455
Ni3 O21 2.069803 1_555
Ni3 O18 2.119998 1_554
Ni3 O24 2.138596 1_555
Ni3 O23 2.204681 1_555
C0 O27 1.255020 1_545
C0 O4 1.304251 1_555
C0 O2 1.307074 1_555
C1 O26 1.287521 1_545
C1 O3 1.300804 1_555
C1 O5 1.303505 1_555
C2 O1 1.287521 1_565
C2 O24 1.300804 1_555
C2 O23 1.303505 1_555
C3 O0 1.255020 1_565
C3 O22 1.304251 1_555
C3 O25 1.307074 1_555
O6 P1 1.557336 1_555
O7 P0 1.540424 1_555
O8 P0 1.539446 1_555
O9 P1 1.559210 1_555
O10 P2 1.550891 1_555
O11 P3 1.542008 1_555
O12 P0 1.581128 1_555
O13 P1 1.561405 1_555
O14 P2 1.581128 1_555
O15 P3 1.561405 1_555
O16 P1 1.542008 1_555
O17 P0 1.550891 1_555
O18 P3 1.559210 1_555
O19 P3 1.557336 1_555
O20 P2 1.539446 1_555
O21 P2 1.540424 1_555
