# generated using pymatgen
data_Cs2H4RuNCl5O3
_symmetry_space_group_name_H-M   'P 1'
_cell_length_a   7.07214000
_cell_length_b   11.94429200
_cell_length_c   16.43605561
_cell_angle_alpha   76.51482001
_cell_angle_beta   90.00000000
_cell_angle_gamma   90.00000000
_symmetry_Int_Tables_number   1
_chemical_formula_structural   Cs2H4RuNCl5O3
_chemical_formula_sum   'Cs8 H16 Ru4 N4 Cl20 O12'
_cell_volume   1350.10433793
_cell_formula_units_Z   4
loop_
 _symmetry_equiv_pos_site_id
 _symmetry_equiv_pos_as_xyz
  1  'x, y, z'
loop_
 _atom_site_type_symbol
 _atom_site_label
 _atom_site_symmetry_multiplicity
 _atom_site_fract_x
 _atom_site_fract_y
 _atom_site_fract_z
 _atom_site_occupancy
  Cs  Cs0  1  0.96173500  0.55133100  0.66134100  1
  Cs  Cs1  1  0.46173500  0.44866900  0.83865900  1
  Cs  Cs2  1  0.03826500  0.44866900  0.33865900  1
  Cs  Cs3  1  0.53826500  0.55133100  0.16134100  1
  Cs  Cs4  1  0.84174000  0.15788700  0.92421700  1
  Cs  Cs5  1  0.34174000  0.84211300  0.57578300  1
  Cs  Cs6  1  0.15826000  0.84211300  0.07578300  1
  Cs  Cs7  1  0.65826000  0.15788700  0.42421700  1
  H  H0  1  0.86357600  0.58572700  0.92202200  1
  H  H1  1  0.36357600  0.41427300  0.57797800  1
  H  H2  1  0.13642400  0.41427300  0.07797800  1
  H  H3  1  0.63642400  0.58572700  0.42202200  1
  H  H4  1  0.88532400  0.63036300  0.00743500  1
  H  H5  1  0.38532400  0.36963700  0.49256500  1
  H  H6  1  0.11467600  0.36963700  0.99256500  1
  H  H7  1  0.61467600  0.63036300  0.50743500  1
  H  H8  1  0.75263200  0.27181600  0.70127100  1
  H  H9  1  0.25263200  0.72818400  0.79872900  1
  H  H10  1  0.24736800  0.72818400  0.29872900  1
  H  H11  1  0.74736800  0.27181600  0.20127100  1
  H  H12  1  0.56060300  0.22102200  0.72840600  1
  H  H13  1  0.06060300  0.77897800  0.77159400  1
  H  H14  1  0.43939700  0.77897800  0.27159400  1
  H  H15  1  0.93939700  0.22102200  0.22840600  1
  Ru  Ru0  1  0.65978100  0.79553800  0.90040900  1
  Ru  Ru1  1  0.15978100  0.20446200  0.59959100  1
  Ru  Ru2  1  0.34021900  0.20446200  0.09959100  1
  Ru  Ru3  1  0.84021900  0.79553800  0.40040900  1
  N  N0  1  0.01985600  0.08601400  0.64059500  1
  N  N1  1  0.51985600  0.91398600  0.85940500  1
  N  N2  1  0.98014400  0.91398600  0.35940500  1
  N  N3  1  0.48014400  0.08601400  0.14059500  1
  Cl  Cl0  1  0.83126400  0.83579700  0.53707800  1
  Cl  Cl1  1  0.33126400  0.16420300  0.96292200  1
  Cl  Cl2  1  0.16873600  0.16420300  0.46292200  1
  Cl  Cl3  1  0.66873600  0.83579700  0.03707800  1
  Cl  Cl4  1  0.67347000  0.73552600  0.77182400  1
  Cl  Cl5  1  0.17347000  0.26447400  0.72817600  1
  Cl  Cl6  1  0.32653000  0.26447400  0.22817600  1
  Cl  Cl7  1  0.82653000  0.73552600  0.27182400  1
  Cl  Cl8  1  0.88773900  0.32518100  0.55745200  1
  Cl  Cl9  1  0.38773900  0.67481900  0.94254800  1
  Cl  Cl10  1  0.11226100  0.67481900  0.44254800  1
  Cl  Cl11  1  0.61226100  0.32518100  0.05745200  1
  Cl  Cl12  1  0.45275800  0.10098700  0.63238600  1
  Cl  Cl13  1  0.95275800  0.89901300  0.86761400  1
  Cl  Cl14  1  0.54724200  0.89901300  0.36761400  1
  Cl  Cl15  1  0.04724200  0.10098700  0.13238600  1
  Cl  Cl16  1  0.46936700  0.55299700  0.61835900  1
  Cl  Cl17  1  0.96936700  0.44700300  0.88164100  1
  Cl  Cl18  1  0.53063300  0.44700300  0.38164100  1
  Cl  Cl19  1  0.03063300  0.55299700  0.11835900  1
  O  O0  1  0.82345100  0.64750800  0.95120700  1
  O  O1  1  0.32345100  0.35249200  0.54879300  1
  O  O2  1  0.17654900  0.35249200  0.04879300  1
  O  O3  1  0.67654900  0.64750800  0.45120700  1
  O  O4  1  0.92244000  0.00736500  0.66721400  1
  O  O5  1  0.42244000  0.99263500  0.83278600  1
  O  O6  1  0.07756000  0.99263500  0.33278600  1
  O  O7  1  0.57756000  0.00736500  0.16721400  1
  O  O8  1  0.66651800  0.25929300  0.74917800  1
  O  O9  1  0.16651800  0.74070700  0.75082200  1
  O  O10  1  0.33348200  0.74070700  0.25082200  1
  O  O11  1  0.83348200  0.25929300  0.24917800  1
loop_
_geom_bond_atom_site_label_1
_geom_bond_atom_site_label_2
_geom_bond_distance
_geom_bond_site_symmetry_2
Cs0 O9 3.305820 1_655
Cs1 O8 3.305820 1_555
Cs2 O11 3.305820 1_455
Cs3 O10 3.305820 1_555
Cs4 O8 3.107140 1_555
Cs5 O9 3.107140 1_555
Cs6 O10 3.107140 1_555
Cs7 O11 3.107140 1_555
H0 O0 1.010077 1_555
H1 O1 1.010077 1_555
H2 O2 1.010077 1_555
H3 O3 1.010077 1_555
H4 O0 0.999613 1_554
H5 O1 0.999613 1_555
H6 O2 0.999613 1_556
H7 O3 0.999613 1_555
H8 O8 0.978948 1_555
H9 O9 0.978948 1_555
H10 O10 0.978948 1_555
H11 O11 0.978948 1_555
H12 O8 0.979477 1_555
H13 O9 0.979477 1_555
H14 O10 0.979477 1_555
H15 O11 0.979477 1_555
N0 O4 1.164840 1_455
N0 Ru1 1.729263 1_555
N1 O5 1.164840 1_555
N1 Ru0 1.729263 1_555
N2 O6 1.164840 1_655
N2 Ru3 1.729263 1_555
N3 O7 1.164840 1_555
N3 Ru2 1.729263 1_555
Cl0 Ru3 2.405178 1_555
Cl0 Cs5 3.523931 1_555
Cl0 Cs0 3.651154 1_555
Cl0 Cs5 3.669606 1_655
Cl0 Cs7 4.050937 1_565
Cl1 Ru2 2.405178 1_556
Cl1 Cs4 3.523931 1_455
Cl1 Cs1 3.651154 1_555
Cl1 Cs4 3.669606 1_555
Cl1 Cs6 4.050937 1_546
Cl2 Ru1 2.405178 1_555
Cl2 Cs7 3.523931 1_555
Cl2 Cs2 3.651154 1_555
Cl2 Cs7 3.669606 1_455
Cl2 Cs5 4.050937 1_545
Cl3 Ru0 2.405178 1_554
Cl3 Cs6 3.523931 1_655
Cl3 Cs3 3.651154 1_555
Cl3 Cs6 3.669606 1_555
Cl3 Cs4 4.050937 1_564
Cl4 Ru0 2.386692 1_555
Cl4 Cs1 3.665125 1_555
Cl4 Cs0 3.762610 1_555
Cl4 Cs5 3.948888 1_555
Cl5 Ru1 2.386692 1_555
Cl5 Cs0 3.665125 1_455
Cl5 Cs1 3.762610 1_555
Cl5 Cs4 3.948888 1_455
Cl6 Ru2 2.386692 1_555
Cl6 Cs3 3.665125 1_555
Cl6 Cs2 3.762610 1_555
Cl6 Cs7 3.948888 1_555
Cl7 Ru3 2.386692 1_555
Cl7 Cs2 3.665125 1_655
Cl7 Cs3 3.762610 1_555
Cl7 Cs6 3.948888 1_655
Cl8 Ru1 2.407172 1_655
Cl8 Cs0 3.554875 1_555
Cl8 Cs7 3.669191 1_555
Cl8 Cs2 3.710378 1_655
Cl9 Ru0 2.407172 1_555
Cl9 Cs1 3.554875 1_555
Cl9 Cs6 3.669191 1_556
Cl9 Cs3 3.710378 1_556
Cl10 Ru3 2.407172 1_455
Cl10 Cs2 3.554875 1_555
Cl10 Cs5 3.669191 1_555
Cl10 Cs0 3.710378 1_455
Cl11 Ru2 2.407172 1_555
Cl11 Cs3 3.554875 1_555
Cl11 Cs4 3.669191 1_554
Cl11 Cs1 3.710378 1_554
Cl12 Ru1 2.408413 1_555
Cl12 Cs5 3.519156 1_545
Cl12 Cs7 3.632642 1_555
Cl13 Ru0 2.408413 1_555
Cl13 Cs4 3.519156 1_565
Cl13 Cs6 3.632642 1_656
Cl14 Ru3 2.408413 1_555
Cl14 Cs7 3.519156 1_565
Cl14 Cs5 3.632642 1_555
Cl15 Ru2 2.408413 1_555
Cl15 Cs6 3.519156 1_545
Cl15 Cs4 3.632642 1_454
Cl16 H1 2.063656 1_555
Cl16 H7 2.109058 1_555
Cl16 Cs5 3.478866 1_555
Cl16 Cs1 3.544295 1_555
Cl16 Cs0 3.552169 1_555
Cl16 Cs0 3.658051 1_455
Cl17 H0 2.063656 1_555
Cl17 H6 2.109058 1_655
Cl17 Cs4 3.478866 1_555
Cl17 Cs0 3.544295 1_555
Cl17 Cs1 3.552169 1_655
Cl17 Cs1 3.658051 1_555
Cl18 H3 2.063656 1_555
Cl18 H5 2.109058 1_555
Cl18 Cs7 3.478866 1_555
Cl18 Cs3 3.544295 1_555
Cl18 Cs2 3.552169 1_555
Cl18 Cs2 3.658051 1_655
Cl19 H2 2.063656 1_555
Cl19 H4 2.109058 1_455
Cl19 Cs6 3.478866 1_555
Cl19 Cs2 3.544295 1_555
Cl19 Cs3 3.552169 1_455
Cl19 Cs3 3.658051 1_555
O0 Ru0 2.115329 1_555
O1 Ru1 2.115329 1_555
O2 Ru2 2.115329 1_555
O3 Ru3 2.115329 1_555
