# generated using pymatgen
data_LiFe2Si2O7
_symmetry_space_group_name_H-M   'P 1'
_cell_length_a   12.99193200
_cell_length_b   5.66627000
_cell_length_c   10.43580018
_cell_angle_alpha   58.42138059
_cell_angle_beta   90.00000000
_cell_angle_gamma   90.00000000
_symmetry_Int_Tables_number   1
_chemical_formula_structural   LiFe2Si2O7
_chemical_formula_sum   'Li4 Fe8 Si8 O28'
_cell_volume   654.48063237
_cell_formula_units_Z   4
loop_
 _symmetry_equiv_pos_site_id
 _symmetry_equiv_pos_as_xyz
  1  'x, y, z'
loop_
 _atom_site_type_symbol
 _atom_site_label
 _atom_site_symmetry_multiplicity
 _atom_site_fract_x
 _atom_site_fract_y
 _atom_site_fract_z
 _atom_site_occupancy
  Li  Li0  1  0.72648600  0.06479700  0.12370500  1
  Li  Li1  1  0.22648600  0.93520300  0.37629500  1
  Li  Li2  1  0.77351400  0.06479700  0.62370500  1
  Li  Li3  1  0.27351400  0.93520300  0.87629500  1
  Fe  Fe0  1  0.10158700  0.53174100  0.12430400  1
  Fe  Fe1  1  0.49297500  0.15315300  0.22205200  1
  Fe  Fe2  1  0.99297500  0.84684700  0.27794800  1
  Fe  Fe3  1  0.60158700  0.46825900  0.37569600  1
  Fe  Fe4  1  0.39841300  0.53174100  0.62430400  1
  Fe  Fe5  1  0.00702500  0.15315300  0.72205200  1
  Fe  Fe6  1  0.50702500  0.84684700  0.77794800  1
  Fe  Fe7  1  0.89841300  0.46825900  0.87569600  1
  Si  Si0  1  0.88476300  0.79213400  0.02704200  1
  Si  Si1  1  0.66526600  0.63145400  0.04970800  1
  Si  Si2  1  0.16526600  0.36854600  0.45029200  1
  Si  Si3  1  0.38476300  0.20786600  0.47295800  1
  Si  Si4  1  0.61523700  0.79213400  0.52704200  1
  Si  Si5  1  0.83473400  0.63145400  0.54970800  1
  Si  Si6  1  0.33473400  0.36854600  0.95029200  1
  Si  Si7  1  0.11523700  0.20786600  0.97295800  1
  O  O0  1  0.16001000  0.91593000  0.00509500  1
  O  O1  1  0.79213200  0.58159300  0.03404800  1
  O  O2  1  0.61480300  0.32422600  0.11132900  1
  O  O3  1  0.04126700  0.19577900  0.10669100  1
  O  O4  1  0.37840700  0.14614000  0.11809700  1
  O  O5  1  0.65554400  0.73186200  0.16851500  1
  O  O6  1  0.95725700  0.64850900  0.17952900  1
  O  O7  1  0.45725700  0.35149100  0.32047100  1
  O  O8  1  0.15554400  0.26813800  0.33148500  1
  O  O9  1  0.87840700  0.85386000  0.38190300  1
  O  O10  1  0.54126700  0.80422100  0.39330900  1
  O  O11  1  0.11480300  0.67577400  0.38867100  1
  O  O12  1  0.29213200  0.41840700  0.46595200  1
  O  O13  1  0.66001000  0.08407000  0.49490500  1
  O  O14  1  0.33999000  0.91593000  0.50509500  1
  O  O15  1  0.70786800  0.58159300  0.53404800  1
  O  O16  1  0.88519700  0.32422600  0.61132900  1
  O  O17  1  0.45873300  0.19577900  0.60669100  1
  O  O18  1  0.12159300  0.14614000  0.61809700  1
  O  O19  1  0.84445600  0.73186200  0.66851500  1
  O  O20  1  0.54274300  0.64850900  0.67952900  1
  O  O21  1  0.04274300  0.35149100  0.82047100  1
  O  O22  1  0.34445600  0.26813800  0.83148500  1
  O  O23  1  0.62159300  0.85386000  0.88190300  1
  O  O24  1  0.95873300  0.80422100  0.89330900  1
  O  O25  1  0.38519700  0.67577400  0.88867100  1
  O  O26  1  0.20786800  0.41840700  0.96595200  1
  O  O27  1  0.83999000  0.08407000  0.99490500  1
loop_
_geom_bond_atom_site_label_1
_geom_bond_atom_site_label_2
_geom_bond_distance
_geom_bond_site_symmetry_2
Li0 O5 1.924344 1_545
Li0 O27 1.959447 1_554
Li0 O2 2.020906 1_555
Li1 O8 1.924344 1_565
Li1 O14 1.959447 1_555
Li1 O11 2.020906 1_555
Li2 O19 1.924344 1_545
Li2 O13 1.959447 1_555
Li2 O16 2.020906 1_555
Li3 O22 1.924344 1_565
Li3 O0 1.959447 1_556
Li3 O25 2.020906 1_555
Fe0 O8 2.003692 1_555
Fe0 O0 2.006580 1_555
Fe0 O3 2.153667 1_555
Fe0 O6 2.164571 1_455
Fe0 O26 2.482198 1_554
Fe1 O4 1.854494 1_555
Fe1 O2 1.899180 1_555
Fe1 O7 1.934464 1_555
Fe1 O10 1.948335 1_545
Fe2 O9 1.854494 1_555
Fe2 O11 1.899180 1_655
Fe2 O6 1.934464 1_555
Fe2 O3 1.948335 1_665
Fe3 O5 2.003692 1_555
Fe3 O13 2.006580 1_555
Fe3 O10 2.153667 1_555
Fe3 O7 2.164571 1_555
Fe3 O15 2.482198 1_555
Fe4 O22 2.003692 1_555
Fe4 O14 2.006580 1_555
Fe4 O17 2.153667 1_555
Fe4 O20 2.164571 1_555
Fe4 O12 2.482198 1_555
Fe5 O18 1.854494 1_555
Fe5 O16 1.899180 1_455
Fe5 O21 1.934464 1_555
Fe5 O24 1.948335 1_445
Fe6 O23 1.854494 1_555
Fe6 O25 1.899180 1_555
Fe6 O20 1.934464 1_555
Fe6 O17 1.948335 1_565
Fe7 O19 2.003692 1_555
Fe7 O27 2.006580 1_555
Fe7 O24 2.153667 1_555
Fe7 O21 2.164571 1_655
Fe7 O1 2.482198 1_556
O0 Si7 1.614355 1_564
O1 Si0 1.668983 1_555
O1 Si1 1.694569 1_555
O2 Si1 1.643597 1_555
O3 Si7 1.666091 1_554
O4 Si6 1.632600 1_554
O5 Si1 1.617297 1_555
O6 Si0 1.650854 1_555
O7 Si3 1.650854 1_555
O8 Si2 1.617297 1_555
O9 Si5 1.632600 1_555
O10 Si4 1.666091 1_555
O11 Si2 1.643597 1_555
O12 Si3 1.668983 1_555
O12 Si2 1.694569 1_555
O13 Si4 1.614355 1_545
O14 Si3 1.614355 1_565
O15 Si4 1.668983 1_555
O15 Si5 1.694569 1_555
O16 Si5 1.643597 1_555
O17 Si3 1.666091 1_555
O18 Si2 1.632600 1_555
O19 Si5 1.617297 1_555
O20 Si4 1.650854 1_555
O21 Si7 1.650854 1_555
O22 Si6 1.617297 1_555
O23 Si1 1.632600 1_556
O24 Si0 1.666091 1_556
O25 Si6 1.643597 1_555
O26 Si7 1.668983 1_555
O26 Si6 1.694569 1_555
O27 Si0 1.614355 1_546
