# generated using pymatgen
data_CuN6(ClO4)3
_symmetry_space_group_name_H-M   'P 1'
_cell_length_a   9.11536200
_cell_length_b   9.11536200
_cell_length_c   8.18942600
_cell_angle_alpha   90.00000000
_cell_angle_beta   90.00000000
_cell_angle_gamma   90.00000000
_symmetry_Int_Tables_number   1
_chemical_formula_structural   CuN6(ClO4)3
_chemical_formula_sum   'Cu2 N12 Cl6 O24'
_cell_volume   680.45796820
_cell_formula_units_Z   2
loop_
 _symmetry_equiv_pos_site_id
 _symmetry_equiv_pos_as_xyz
  1  'x, y, z'
loop_
 _atom_site_type_symbol
 _atom_site_label
 _atom_site_symmetry_multiplicity
 _atom_site_fract_x
 _atom_site_fract_y
 _atom_site_fract_z
 _atom_site_occupancy
  Cu  Cu0  1  0.50000000  0.50000000  0.00000000  1
  Cu  Cu1  1  0.00000000  0.00000000  0.00000000  1
  N  N0  1  0.35708200  0.65246300  0.00518400  1
  N  N1  1  0.14291800  0.15246300  0.99481600  1
  N  N2  1  0.64291800  0.34753700  0.00518400  1
  N  N3  1  0.85708200  0.84753700  0.99481600  1
  N  N4  1  0.65246300  0.64291800  0.99481600  1
  N  N5  1  0.84753700  0.14291800  0.00518400  1
  N  N6  1  0.34753700  0.35708200  0.99481600  1
  N  N7  1  0.15246300  0.85708200  0.00518400  1
  N  N8  1  0.50000000  0.50000000  0.50000000  1
  N  N9  1  0.00000000  0.00000000  0.50000000  1
  N  N10  1  0.00000000  0.50000000  0.59779000  1
  N  N11  1  0.50000000  0.00000000  0.40221000  1
  Cl  Cl0  1  0.00000000  0.50000000  0.06843800  1
  Cl  Cl1  1  0.50000000  0.00000000  0.93156200  1
  Cl  Cl2  1  0.25658000  0.75658000  0.52755200  1
  Cl  Cl3  1  0.24342000  0.25658000  0.47244800  1
  Cl  Cl4  1  0.74342000  0.24342000  0.52755200  1
  Cl  Cl5  1  0.75658000  0.74342000  0.47244800  1
  O  O0  1  0.09239500  0.59239500  0.16658900  1
  O  O1  1  0.40760500  0.09239500  0.83341100  1
  O  O2  1  0.90760500  0.40760500  0.16658900  1
  O  O3  1  0.59239500  0.90760500  0.83341100  1
  O  O4  1  0.91076400  0.58923600  0.95222200  1
  O  O5  1  0.58923600  0.08923600  0.04777800  1
  O  O6  1  0.08923600  0.41076400  0.95222200  1
  O  O7  1  0.41076400  0.91076400  0.04777800  1
  O  O8  1  0.27563300  0.59308300  0.52675300  1
  O  O9  1  0.22436700  0.09308300  0.47324700  1
  O  O10  1  0.72436700  0.40691700  0.52675300  1
  O  O11  1  0.77563300  0.90691700  0.47324700  1
  O  O12  1  0.59308300  0.72436700  0.47324700  1
  O  O13  1  0.90691700  0.22436700  0.52675300  1
  O  O14  1  0.40691700  0.27563300  0.47324700  1
  O  O15  1  0.09308300  0.77563300  0.52675300  1
  O  O16  1  0.31757100  0.81757100  0.67275700  1
  O  O17  1  0.18242900  0.31757100  0.32724300  1
  O  O18  1  0.68242900  0.18242900  0.67275700  1
  O  O19  1  0.81757100  0.68242900  0.32724300  1
  O  O20  1  0.31634300  0.81634300  0.37810900  1
  O  O21  1  0.18365700  0.31634300  0.62189100  1
  O  O22  1  0.68365700  0.18365700  0.37810900  1
  O  O23  1  0.81634300  0.68365700  0.62189100  1
loop_
_geom_bond_atom_site_label_1
_geom_bond_atom_site_label_2
_geom_bond_distance
_geom_bond_site_symmetry_2
Cu0 N0 1.905355 1_555
Cu0 N4 1.905355 1_554
Cu0 N2 1.905355 1_555
Cu0 N6 1.905355 1_554
Cu1 N1 1.905355 1_554
Cu1 N7 1.905355 1_545
Cu1 N5 1.905355 1_455
Cu1 N3 1.905355 1_444
Cl0 O0 1.436922 1_555
Cl0 O2 1.436922 1_455
Cl0 O6 1.493021 1_554
Cl0 O4 1.493021 1_454
Cl1 O1 1.436922 1_555
Cl1 O3 1.436922 1_545
Cl1 O7 1.493021 1_546
Cl1 O5 1.493021 1_556
Cl2 O16 1.425566 1_555
Cl2 O20 1.446148 1_555
Cl2 O15 1.500434 1_555
Cl2 O8 1.500434 1_555
Cl3 O17 1.425566 1_555
Cl3 O21 1.446148 1_555
Cl3 O14 1.500434 1_555
Cl3 O9 1.500434 1_555
Cl4 O18 1.425566 1_555
Cl4 O22 1.446148 1_555
Cl4 O10 1.500434 1_555
Cl4 O13 1.500434 1_555
Cl5 O19 1.425566 1_555
Cl5 O23 1.446148 1_555
Cl5 O12 1.500434 1_555
Cl5 O11 1.500434 1_555
