# generated using pymatgen
data_Li2Mn5Si5O16
_symmetry_space_group_name_H-M   'P 1'
_cell_length_a   5.13969500
_cell_length_b   7.06640972
_cell_length_c   10.49473838
_cell_angle_alpha   89.16678776
_cell_angle_beta   89.86797882
_cell_angle_gamma   89.80789234
_symmetry_Int_Tables_number   1
_chemical_formula_structural   Li2Mn5Si5O16
_chemical_formula_sum   'Li2 Mn5 Si5 O16'
_cell_volume   381.11698997
_cell_formula_units_Z   1
loop_
 _symmetry_equiv_pos_site_id
 _symmetry_equiv_pos_as_xyz
  1  'x, y, z'
loop_
 _atom_site_type_symbol
 _atom_site_label
 _atom_site_symmetry_multiplicity
 _atom_site_fract_x
 _atom_site_fract_y
 _atom_site_fract_z
 _atom_site_occupancy
  Li  Li0  1  0.35592300  0.50284000  0.33693200  1
  Li  Li1  1  0.82089300  0.99892000  0.14377300  1
  Mn  Mn0  1  0.18006400  0.01088500  0.85855000  1
  Mn  Mn1  1  0.18844100  0.51975800  0.84948100  1
  Mn  Mn2  1  0.69231200  0.49530200  0.64337000  1
  Mn  Mn3  1  0.83398400  0.49822900  0.15250600  1
  Mn  Mn4  1  0.67855700  0.99632000  0.65880200  1
  Si  Si0  1  0.30066700  0.99027400  0.33590600  1
  Si  Si1  1  0.17766700  0.76814900  0.58604700  1
  Si  Si2  1  0.34293000  0.74320600  0.10648600  1
  Si  Si3  1  0.79528300  0.22997700  0.40284400  1
  Si  Si4  1  0.68233200  0.25481500  0.91148100  1
  O  O0  1  0.27954600  0.94947000  0.66659100  1
  O  O1  1  0.21993300  0.93093600  0.19086200  1
  O  O2  1  0.86048800  0.75418600  0.59405200  1
  O  O3  1  0.23340800  0.76243500  0.95934700  1
  O  O4  1  0.65477700  0.75738500  0.11804500  1
  O  O5  1  0.26935600  0.80305900  0.43217300  1
  O  O6  1  0.29750600  0.57148400  0.64606600  1
  O  O7  1  0.22708700  0.55250900  0.17269600  1
  O  O8  1  0.72179000  0.43152400  0.34024000  1
  O  O9  1  0.79874100  0.44362200  0.83401100  1
  O  O10  1  0.10469900  0.16654000  0.37267900  1
  O  O11  1  0.36340300  0.26399400  0.89091300  1
  O  O12  1  0.75397900  0.23797100  0.55548100  1
  O  O13  1  0.77577900  0.24674500  0.05874100  1
  O  O14  1  0.60633700  0.05982600  0.34099000  1
  O  O15  1  0.78411600  0.05963800  0.84093700  1
loop_
_geom_bond_atom_site_label_1
_geom_bond_atom_site_label_2
_geom_bond_distance
_geom_bond_site_symmetry_2
Li0 O7 1.875798 1_555
Li0 O8 1.945425 1_555
Li0 O5 2.398114 1_555
Li1 O4 1.933703 1_555
Li1 O13 1.967160 1_565
Li1 O1 2.161605 1_655
Li1 O14 2.386908 1_565
Mn0 O3 2.054408 1_545
Mn0 O11 2.057360 1_555
Mn0 O15 2.071104 1_455
Mn0 O0 2.127773 1_545
Mn1 O11 2.057236 1_555
Mn1 O9 2.082989 1_455
Mn1 O3 2.094034 1_555
Mn1 O6 2.231213 1_555
Mn2 O12 2.073981 1_555
Mn2 O2 2.083907 1_555
Mn2 O6 2.097865 1_555
Mn2 O9 2.101893 1_555
Mn3 O13 2.066798 1_555
Mn3 O7 2.069707 1_655
Mn3 O4 2.074559 1_555
Mn3 O8 2.099058 1_555
Mn4 O15 2.044383 1_565
Mn4 O12 2.047095 1_565
Mn4 O2 2.069750 1_555
Mn4 O0 2.079672 1_555
O0 Si1 1.633535 1_555
O1 Si0 1.639430 1_555
O1 Si2 1.723230 1_555
O2 Si1 1.635409 1_655
O3 Si2 1.648402 1_556
O4 Si2 1.611224 1_555
O5 Si0 1.660894 1_555
O5 Si1 1.696001 1_555
O6 Si1 1.636468 1_555
O7 Si2 1.621554 1_555
O8 Si3 1.604074 1_555
O9 Si4 1.664513 1_555
O10 Si0 1.648828 1_545
O10 Si3 1.681446 1_455
O11 Si4 1.654775 1_555
O12 Si3 1.617182 1_555
O13 Si4 1.619579 1_554
O14 Si0 1.648918 1_545
O14 Si3 1.686287 1_555
O15 Si4 1.657422 1_555
