# generated using pymatgen
data_Ni4P2O9
_symmetry_space_group_name_H-M   'P 1'
_cell_length_a   11.10269000
_cell_length_b   6.49467900
_cell_length_c   9.23523453
_cell_angle_alpha   74.10709990
_cell_angle_beta   90.00000000
_cell_angle_gamma   90.00000000
_symmetry_Int_Tables_number   1
_chemical_formula_structural   Ni4P2O9
_chemical_formula_sum   'Ni16 P8 O36'
_cell_volume   640.48274003
_cell_formula_units_Z   4
loop_
 _symmetry_equiv_pos_site_id
 _symmetry_equiv_pos_as_xyz
  1  'x, y, z'
loop_
 _atom_site_type_symbol
 _atom_site_label
 _atom_site_symmetry_multiplicity
 _atom_site_fract_x
 _atom_site_fract_y
 _atom_site_fract_z
 _atom_site_occupancy
  Ni  Ni0  1  0.40517200  0.93735300  0.88532300  1
  Ni  Ni1  1  0.09482800  0.93735300  0.38532300  1
  Ni  Ni2  1  0.62096500  0.77004900  0.75163400  1
  Ni  Ni3  1  0.39908100  0.82077800  0.53859300  1
  Ni  Ni4  1  0.87903500  0.77004900  0.25163400  1
  Ni  Ni5  1  0.10091900  0.82077800  0.03859300  1
  Ni  Ni6  1  0.86742200  0.54573200  0.68234500  1
  Ni  Ni7  1  0.36742200  0.45426800  0.81765500  1
  Ni  Ni8  1  0.63257800  0.54573200  0.18234500  1
  Ni  Ni9  1  0.13257800  0.45426800  0.31765500  1
  Ni  Ni10  1  0.89908100  0.17922200  0.96140700  1
  Ni  Ni11  1  0.12096500  0.22995100  0.74836600  1
  Ni  Ni12  1  0.60091900  0.17922200  0.46140700  1
  Ni  Ni13  1  0.37903500  0.22995100  0.24836600  1
  Ni  Ni14  1  0.90517200  0.06264700  0.61467700  1
  Ni  Ni15  1  0.59482800  0.06264700  0.11467700  1
  P  P0  1  0.82927900  0.70547400  0.92382900  1
  P  P1  1  0.13169100  0.75510000  0.68624800  1
  P  P2  1  0.67072100  0.70547400  0.42382900  1
  P  P3  1  0.36830900  0.75510000  0.18624800  1
  P  P4  1  0.63169100  0.24490000  0.81375200  1
  P  P5  1  0.32927900  0.29452600  0.57617100  1
  P  P6  1  0.86830900  0.24490000  0.31375200  1
  P  P7  1  0.17072100  0.29452600  0.07617100  1
  O  O0  1  0.11483300  0.89252800  0.79758600  1
  O  O1  1  0.81034500  0.83498500  0.75410900  1
  O  O2  1  0.21770700  0.86246900  0.55380500  1
  O  O3  1  0.44029000  0.74501000  0.76644300  1
  O  O4  1  0.59459000  0.83639000  0.51075500  1
  O  O5  1  0.69680300  0.66859200  0.97549000  1
  O  O6  1  0.38516700  0.89252800  0.29758600  1
  O  O7  1  0.01023700  0.75705300  0.59827800  1
  O  O8  1  0.68965500  0.83498500  0.25410900  1
  O  O9  1  0.28229300  0.86246900  0.05380500  1
  O  O10  1  0.05971000  0.74501000  0.26644300  1
  O  O11  1  0.90541000  0.83639000  0.01075500  1
  O  O12  1  0.80319700  0.66859200  0.47549000  1
  O  O13  1  0.89641800  0.50404700  0.91450500  1
  O  O14  1  0.48976300  0.75705300  0.09827800  1
  O  O15  1  0.17536700  0.52947500  0.76734800  1
  O  O16  1  0.67536700  0.47052500  0.73265200  1
  O  O17  1  0.39641800  0.49595300  0.58549500  1
  O  O18  1  0.60358200  0.50404700  0.41450500  1
  O  O19  1  0.32463300  0.52947500  0.26734800  1
  O  O20  1  0.82463300  0.47052500  0.23265200  1
  O  O21  1  0.51023700  0.24294700  0.90172200  1
  O  O22  1  0.10358200  0.49595300  0.08549500  1
  O  O23  1  0.19680300  0.33140800  0.52451000  1
  O  O24  1  0.09459000  0.16361000  0.98924500  1
  O  O25  1  0.94029000  0.25499000  0.73355700  1
  O  O26  1  0.71770700  0.13753100  0.94619500  1
  O  O27  1  0.31034500  0.16501500  0.74589100  1
  O  O28  1  0.98976300  0.24294700  0.40172200  1
  O  O29  1  0.61483300  0.10747200  0.70241400  1
  O  O30  1  0.30319700  0.33140800  0.02451000  1
  O  O31  1  0.40541000  0.16361000  0.48924500  1
  O  O32  1  0.55971000  0.25499000  0.23355700  1
  O  O33  1  0.78229300  0.13753100  0.44619500  1
  O  O34  1  0.18965500  0.16501500  0.24589100  1
  O  O35  1  0.88516700  0.10747200  0.20241400  1
loop_
_geom_bond_atom_site_label_1
_geom_bond_atom_site_label_2
_geom_bond_distance
_geom_bond_site_symmetry_2
Ni0 O3 1.915470 1_555
Ni0 O27 1.977390 1_565
Ni0 O9 2.025933 1_556
Ni0 O14 2.204510 1_556
Ni0 O21 2.342534 1_565
Ni1 O10 1.915470 1_555
Ni1 O34 1.977390 1_565
Ni1 O2 2.025933 1_555
Ni1 O7 2.204510 1_555
Ni1 O28 2.342534 1_465
Ni2 O3 2.014179 1_555
Ni2 O16 2.089633 1_555
Ni2 O29 2.113803 1_565
Ni2 O1 2.145858 1_555
Ni2 O5 2.161267 1_555
Ni2 O4 2.166836 1_555
Ni3 O17 2.034351 1_555
Ni3 O2 2.041821 1_555
Ni3 O3 2.076592 1_555
Ni3 O31 2.148152 1_565
Ni3 O6 2.151037 1_555
Ni3 O4 2.184933 1_555
Ni4 O10 2.014179 1_655
Ni4 O20 2.089633 1_555
Ni4 O35 2.113803 1_565
Ni4 O8 2.145858 1_555
Ni4 O12 2.161267 1_555
Ni4 O11 2.166836 1_555
Ni5 O22 2.034351 1_555
Ni5 O9 2.041821 1_555
Ni5 O10 2.076592 1_555
Ni5 O24 2.148152 1_564
Ni5 O0 2.151037 1_554
Ni5 O11 2.184933 1_455
Ni6 O25 1.988639 1_555
Ni6 O12 1.989918 1_555
Ni6 O7 2.101680 1_655
Ni6 O13 2.110921 1_555
Ni6 O16 2.208385 1_555
Ni6 O1 2.247640 1_555
Ni7 O3 1.988639 1_555
Ni7 O30 1.989918 1_556
Ni7 O21 2.101680 1_555
Ni7 O17 2.110921 1_555
Ni7 O15 2.208385 1_555
Ni7 O27 2.247640 1_555
Ni8 O32 1.988639 1_555
Ni8 O5 1.989918 1_554
Ni8 O14 2.101680 1_555
Ni8 O18 2.110921 1_555
Ni8 O20 2.208385 1_555
Ni8 O8 2.247640 1_555
Ni9 O10 1.988639 1_555
Ni9 O23 1.989918 1_555
Ni9 O28 2.101680 1_455
Ni9 O22 2.110921 1_555
Ni9 O19 2.208385 1_555
Ni9 O34 2.247640 1_555
Ni10 O13 2.034351 1_555
Ni10 O26 2.041821 1_555
Ni10 O25 2.076592 1_555
Ni10 O11 2.148152 1_546
Ni10 O35 2.151037 1_556
Ni10 O24 2.184933 1_655
Ni11 O25 2.014179 1_455
Ni11 O15 2.089633 1_555
Ni11 O0 2.113803 1_545
Ni11 O27 2.145858 1_555
Ni11 O23 2.161267 1_555
Ni11 O24 2.166836 1_555
Ni12 O18 2.034351 1_555
Ni12 O33 2.041821 1_555
Ni12 O32 2.076592 1_555
Ni12 O4 2.148152 1_545
Ni12 O29 2.151037 1_555
Ni12 O31 2.184933 1_555
Ni13 O32 2.014179 1_555
Ni13 O19 2.089633 1_555
Ni13 O6 2.113803 1_545
Ni13 O34 2.145858 1_555
Ni13 O30 2.161267 1_555
Ni13 O31 2.166836 1_555
Ni14 O25 1.915470 1_555
Ni14 O1 1.977390 1_545
Ni14 O33 2.025933 1_555
Ni14 O28 2.204510 1_555
Ni14 O7 2.342534 1_645
Ni15 O32 1.915470 1_555
Ni15 O8 1.977390 1_545
Ni15 O26 2.025933 1_554
Ni15 O21 2.204510 1_554
Ni15 O14 2.342534 1_545
O0 P1 1.546472 1_555
O1 P0 1.576830 1_555
O2 P1 1.557964 1_555
O4 P2 1.567064 1_555
O5 P0 1.544598 1_555
O6 P3 1.546472 1_555
O7 P1 1.572549 1_555
O8 P2 1.576830 1_555
O9 P3 1.557964 1_555
O11 P0 1.567064 1_554
O12 P2 1.544598 1_555
O13 P0 1.528451 1_555
O14 P3 1.572549 1_555
O15 P1 1.530461 1_555
O16 P4 1.530461 1_555
O17 P5 1.528451 1_555
O18 P2 1.528451 1_555
O19 P3 1.530461 1_555
O20 P6 1.530461 1_555
O21 P4 1.572549 1_555
O22 P7 1.528451 1_555
O23 P5 1.544598 1_555
O24 P7 1.567064 1_556
O26 P4 1.557964 1_555
O27 P5 1.576830 1_555
O28 P6 1.572549 1_555
O29 P4 1.546472 1_555
O30 P7 1.544598 1_555
O31 P5 1.567064 1_555
O33 P6 1.557964 1_555
O34 P7 1.576830 1_555
O35 P6 1.546472 1_555
