# generated using pymatgen
data_Li9Sn3P8O29
_symmetry_space_group_name_H-M   'P 1'
_cell_length_a   10.13608466
_cell_length_b   10.13608466
_cell_length_c   14.08968300
_cell_angle_alpha   90.00000000
_cell_angle_beta   90.00000000
_cell_angle_gamma   120.00000430
_symmetry_Int_Tables_number   1
_chemical_formula_structural   Li9Sn3P8O29
_chemical_formula_sum   'Li18 Sn6 P16 O58'
_cell_volume   1253.63842020
_cell_formula_units_Z   2
loop_
 _symmetry_equiv_pos_site_id
 _symmetry_equiv_pos_as_xyz
  1  'x, y, z'
loop_
 _atom_site_type_symbol
 _atom_site_label
 _atom_site_symmetry_multiplicity
 _atom_site_fract_x
 _atom_site_fract_y
 _atom_site_fract_z
 _atom_site_occupancy
  Li  Li0  1  0.00000000  0.00000000  0.00000000  1
  Li  Li1  1  0.00000000  0.00000000  0.50000000  1
  Li  Li2  1  0.10132800  0.33058900  0.06209000  1
  Li  Li3  1  0.22926100  0.33058900  0.56209000  1
  Li  Li4  1  0.10132800  0.77073900  0.56209000  1
  Li  Li5  1  0.33333300  0.66666700  0.88123400  1
  Li  Li6  1  0.33333300  0.66666700  0.38123400  1
  Li  Li7  1  0.22926100  0.89867200  0.06209000  1
  Li  Li8  1  0.66941100  0.77073900  0.06209000  1
  Li  Li9  1  0.33058900  0.10132800  0.43791000  1
  Li  Li10  1  0.66941100  0.89867200  0.56209000  1
  Li  Li11  1  0.33058900  0.22926100  0.93791000  1
  Li  Li12  1  0.77073900  0.10132800  0.93791000  1
  Li  Li13  1  0.66666700  0.33333300  0.11876600  1
  Li  Li14  1  0.66666700  0.33333300  0.61876600  1
  Li  Li15  1  0.89867200  0.22926100  0.43791000  1
  Li  Li16  1  0.77073900  0.66941100  0.43791000  1
  Li  Li17  1  0.89867200  0.66941100  0.93791000  1
  Sn  Sn0  1  0.00000000  0.43458700  0.25000000  1
  Sn  Sn1  1  0.00000000  0.56541300  0.75000000  1
  Sn  Sn2  1  0.43458700  0.43458700  0.75000000  1
  Sn  Sn3  1  0.56541300  0.56541300  0.25000000  1
  Sn  Sn4  1  0.43458700  0.00000000  0.25000000  1
  Sn  Sn5  1  0.56541300  0.00000000  0.75000000  1
  P  P0  1  0.08603200  0.30912100  0.84696800  1
  P  P1  1  0.22308900  0.30912100  0.34696800  1
  P  P2  1  0.08603200  0.77691100  0.34696800  1
  P  P3  1  0.33333300  0.66666700  0.61513100  1
  P  P4  1  0.33333300  0.66666700  0.11513100  1
  P  P5  1  0.22308900  0.91396800  0.84696800  1
  P  P6  1  0.30912100  0.08603200  0.65303200  1
  P  P7  1  0.69087900  0.77691100  0.84696800  1
  P  P8  1  0.30912100  0.22308900  0.15303200  1
  P  P9  1  0.69087900  0.91396800  0.34696800  1
  P  P10  1  0.77691100  0.08603200  0.15303200  1
  P  P11  1  0.66666700  0.33333300  0.38486900  1
  P  P12  1  0.66666700  0.33333300  0.88486900  1
  P  P13  1  0.91396800  0.22308900  0.65303200  1
  P  P14  1  0.77691100  0.69087900  0.65303200  1
  P  P15  1  0.91396800  0.69087900  0.15303200  1
  O  O0  1  0.00000000  0.22220400  0.75000000  1
  O  O1  1  0.00953200  0.22836800  0.56824500  1
  O  O2  1  0.06949300  0.30820100  0.34834600  1
  O  O3  1  0.22220400  0.22220400  0.25000000  1
  O  O4  1  0.21883600  0.22836800  0.06824500  1
  O  O5  1  0.23870800  0.30820100  0.84834600  1
  O  O6  1  0.12003200  0.47561200  0.84261100  1
  O  O7  1  0.20125200  0.50910000  0.15320700  1
  O  O8  1  0.12003200  0.64442100  0.34261100  1
  O  O9  1  0.00953200  0.78116400  0.06824500  1
  O  O10  1  0.00000000  0.77779600  0.25000000  1
  O  O11  1  0.06949300  0.76129200  0.84834600  1
  O  O12  1  0.30784800  0.50910000  0.65320700  1
  O  O13  1  0.35557900  0.47561200  0.34261100  1
  O  O14  1  0.20125200  0.69215200  0.65320700  1
  O  O15  1  0.33333300  0.66666700  0.50842200  1
  O  O16  1  0.33333300  0.66666700  0.00842200  1
  O  O17  1  0.30784800  0.79874800  0.15320700  1
  O  O18  1  0.52438800  0.64442100  0.84261100  1
  O  O19  1  0.49090000  0.69215200  0.15320700  1
  O  O20  1  0.23870800  0.93050700  0.34834600  1
  O  O21  1  0.22220400  0.00000000  0.75000000  1
  O  O22  1  0.21883600  0.99046800  0.56824500  1
  O  O23  1  0.22836800  0.00953200  0.93175500  1
  O  O24  1  0.35557900  0.87996800  0.84261100  1
  O  O25  1  0.49090000  0.79874800  0.65320700  1
  O  O26  1  0.30820100  0.06949300  0.15165400  1
  O  O27  1  0.52438800  0.87996800  0.34261100  1
  O  O28  1  0.69179900  0.76129200  0.34834600  1
  O  O29  1  0.22836800  0.21883600  0.43175500  1
  O  O30  1  0.77163200  0.78116400  0.56824500  1
  O  O31  1  0.77779600  0.77779600  0.75000000  1
  O  O32  1  0.30820100  0.23870800  0.65165400  1
  O  O33  1  0.47561200  0.12003200  0.65738900  1
  O  O34  1  0.69179900  0.93050700  0.84834600  1
  O  O35  1  0.50910000  0.20125200  0.34679300  1
  O  O36  1  0.64442100  0.12003200  0.15738900  1
  O  O37  1  0.77163200  0.99046800  0.06824500  1
  O  O38  1  0.78116400  0.00953200  0.43175500  1
  O  O39  1  0.77779600  0.00000000  0.25000000  1
  O  O40  1  0.76129200  0.06949300  0.65165400  1
  O  O41  1  0.50910000  0.30784800  0.84679300  1
  O  O42  1  0.47561200  0.35557900  0.15738900  1
  O  O43  1  0.69215200  0.20125200  0.84679300  1
  O  O44  1  0.66666700  0.33333300  0.49157800  1
  O  O45  1  0.66666700  0.33333300  0.99157800  1
  O  O46  1  0.79874800  0.30784800  0.34679300  1
  O  O47  1  0.64442100  0.52438800  0.65738900  1
  O  O48  1  0.69215200  0.49090000  0.34679300  1
  O  O49  1  0.93050700  0.23870800  0.15165400  1
  O  O50  1  0.99046800  0.21883600  0.93175500  1
  O  O51  1  0.87996800  0.35557900  0.65738900  1
  O  O52  1  0.79874800  0.49090000  0.84679300  1
  O  O53  1  0.87996800  0.52438800  0.15738900  1
  O  O54  1  0.76129200  0.69179900  0.15165400  1
  O  O55  1  0.78116400  0.77163200  0.93175500  1
  O  O56  1  0.93050700  0.69179900  0.65165400  1
  O  O57  1  0.99046800  0.77163200  0.43175500  1
loop_
_geom_bond_atom_site_label_1
_geom_bond_atom_site_label_2
_geom_bond_distance
_geom_bond_site_symmetry_2
Li0 O55 2.463406 1_444
Li0 O4 2.463406 1_555
Li0 O23 2.463406 1_554
Li0 O37 2.463406 1_445
Li0 O50 2.463406 1_454
Li0 O9 2.463406 1_545
Li1 O29 2.463406 1_555
Li1 O30 2.463406 1_445
Li1 O1 2.463406 1_555
Li1 O57 2.463406 1_445
Li1 O22 2.463406 1_545
Li1 O38 2.463406 1_455
Li2 O4 1.932307 1_555
Li2 O49 1.960923 1_455
Li2 O7 2.028624 1_555
Li2 O50 2.155275 1_454
Li3 O1 1.932307 1_555
Li3 O32 1.960923 1_555
Li3 O12 2.028624 1_555
Li3 O29 2.155275 1_555
Li4 O22 1.932307 1_555
Li4 O56 1.960923 1_455
Li4 O14 2.028624 1_555
Li4 O57 2.155275 1_455
Li5 O16 1.792039 1_556
Li5 O6 2.129290 1_555
Li5 O24 2.129290 1_555
Li5 O18 2.129290 1_555
Li6 O15 1.792039 1_555
Li6 O27 2.129290 1_555
Li6 O8 2.129290 1_555
Li6 O13 2.129290 1_555
Li7 O9 1.932307 1_555
Li7 O26 1.960923 1_565
Li7 O17 2.028624 1_555
Li7 O23 2.155275 1_564
Li8 O37 1.932307 1_555
Li8 O54 1.960923 1_555
Li8 O19 2.028624 1_555
Li8 O55 2.155275 1_554
Li9 O29 1.932307 1_555
Li9 O20 1.960923 1_545
Li9 O35 2.028624 1_555
Li9 O22 2.155275 1_545
Li10 O30 1.932307 1_555
Li10 O40 1.960923 1_565
Li10 O25 2.028624 1_555
Li10 O38 2.155275 1_565
Li11 O23 1.932307 1_555
Li11 O5 1.960923 1_555
Li11 O41 2.028624 1_555
Li11 O4 2.155275 1_556
Li12 O50 1.932307 1_555
Li12 O34 1.960923 1_545
Li12 O43 2.028624 1_555
Li12 O37 2.155275 1_546
Li13 O45 1.792039 1_554
Li13 O53 2.129290 1_555
Li13 O36 2.129290 1_555
Li13 O42 2.129290 1_555
Li14 O44 1.792039 1_555
Li14 O33 2.129290 1_555
Li14 O51 2.129290 1_555
Li14 O47 2.129290 1_555
Li15 O38 1.932307 1_555
Li15 O2 1.960923 1_655
Li15 O46 2.028624 1_555
Li15 O1 2.155275 1_655
Li16 O57 1.932307 1_555
Li16 O28 1.960923 1_555
Li16 O48 2.028624 1_555
Li16 O30 2.155275 1_555
Li17 O55 1.932307 1_555
Li17 O11 1.960923 1_655
Li17 O52 2.028624 1_555
Li17 O9 2.155275 1_656
O0 P0 1.623259 1_555
O0 P13 1.623259 1_455
O1 P13 1.521981 1_455
O2 P1 1.552342 1_555
O2 Sn0 2.227038 1_555
O3 P1 1.623259 1_555
O3 P8 1.623259 1_555
O4 P8 1.521981 1_555
O5 P0 1.552342 1_555
O5 Sn2 2.227038 1_555
O6 P0 1.545586 1_555
O6 Sn1 2.262490 1_555
O7 P4 1.578839 1_555
O7 Sn0 2.247416 1_555
O8 P2 1.545576 1_555
O8 Sn0 2.262497 1_555
O9 P15 1.521981 1_455
O10 P15 1.623259 1_455
O10 P2 1.623259 1_555
O11 P5 1.552342 1_555
O11 Sn1 2.227038 1_555
O12 P3 1.578842 1_555
O12 Sn2 2.247416 1_555
O13 P1 1.545583 1_555
O13 Sn3 2.262498 1_555
O14 P3 1.578833 1_555
O14 Sn1 2.247416 1_555
O15 P3 1.503496 1_555
O16 P4 1.503496 1_555
O17 P4 1.578833 1_555
O17 Sn4 2.247416 1_565
O18 P7 1.545583 1_555
O18 Sn2 2.262498 1_555
O19 P4 1.578842 1_555
O19 Sn3 2.247416 1_555
O20 P2 1.552342 1_555
O20 Sn4 2.227038 1_565
O21 P6 1.623259 1_555
O21 P5 1.623259 1_545
O22 P6 1.521981 1_565
O23 P5 1.521981 1_545
O24 P5 1.545576 1_555
O24 Sn5 2.262497 1_565
O25 P3 1.578839 1_555
O25 Sn5 2.247416 1_565
O26 P8 1.552342 1_555
O26 Sn4 2.227038 1_555
O27 P9 1.545586 1_555
O27 Sn4 2.262490 1_565
O28 P9 1.552342 1_555
O28 Sn3 2.227038 1_555
O29 P1 1.521981 1_555
O30 P14 1.521981 1_555
O31 P7 1.623259 1_555
O31 P14 1.623259 1_555
O32 P6 1.552342 1_555
O32 Sn2 2.227038 1_555
O33 P6 1.545586 1_555
O33 Sn5 2.262490 1_555
O34 P7 1.552342 1_555
O34 Sn5 2.227038 1_565
O35 P11 1.578839 1_555
O35 Sn4 2.247416 1_555
O36 P10 1.545576 1_555
O36 Sn4 2.262497 1_555
O37 P10 1.521981 1_565
O38 P9 1.521981 1_545
O39 P9 1.623259 1_545
O39 P10 1.623259 1_555
O40 P13 1.552342 1_555
O40 Sn5 2.227038 1_555
O41 P12 1.578842 1_555
O41 Sn2 2.247416 1_555
O42 P8 1.545583 1_555
O42 Sn3 2.262498 1_555
O43 P12 1.578833 1_555
O43 Sn5 2.247416 1_555
O44 P11 1.503496 1_555
O45 P12 1.503496 1_555
O46 P11 1.578833 1_555
O46 Sn0 2.247416 1_655
O47 P14 1.545583 1_555
O47 Sn2 2.262498 1_555
O48 P11 1.578842 1_555
O48 Sn3 2.247416 1_555
O49 P10 1.552342 1_555
O49 Sn0 2.227038 1_655
O50 P0 1.521981 1_655
O51 P13 1.545576 1_555
O51 Sn1 2.262497 1_655
O52 P12 1.578839 1_555
O52 Sn1 2.247416 1_655
O53 P15 1.545586 1_555
O53 Sn0 2.262490 1_655
O54 P15 1.552342 1_555
O54 Sn3 2.227038 1_555
O55 P7 1.521981 1_555
O56 P14 1.552342 1_555
O56 Sn1 2.227038 1_655
O57 P2 1.521981 1_655
