# generated using pymatgen
data_Yb2TiO5
_symmetry_space_group_name_H-M   'P 1'
_cell_length_a   5.21799568
_cell_length_b   6.57750932
_cell_length_c   7.57283494
_cell_angle_alpha   66.93048293
_cell_angle_beta   90.07465924
_cell_angle_gamma   66.60791929
_symmetry_Int_Tables_number   1
_chemical_formula_structural   Yb2TiO5
_chemical_formula_sum   'Yb4 Ti2 O10'
_cell_volume   215.65087391
_cell_formula_units_Z   2
loop_
 _symmetry_equiv_pos_site_id
 _symmetry_equiv_pos_as_xyz
  1  'x, y, z'
loop_
 _atom_site_type_symbol
 _atom_site_label
 _atom_site_symmetry_multiplicity
 _atom_site_fract_x
 _atom_site_fract_y
 _atom_site_fract_z
 _atom_site_occupancy
  Yb  Yb0  1  0.63017900  0.72177900  0.77027800  1
  Yb  Yb1  1  0.64766700  0.72163700  0.26957900  1
  Yb  Yb2  1  0.35339900  0.27615200  0.72952100  1
  Yb  Yb3  1  0.36824100  0.27631300  0.23096500  1
  Ti  Ti0  1  0.99661500  0.00329000  0.50176600  1
  Ti  Ti1  1  0.99556300  0.00860900  0.00242300  1
  O  O0  1  0.73401800  0.87379700  0.96701500  1
  O  O1  1  0.39297700  0.87610200  0.46519600  1
  O  O2  1  0.03006700  0.67081000  0.62271900  1
  O  O3  1  0.69791800  0.32874100  0.87601300  1
  O  O4  1  0.30036400  0.67231800  0.11508000  1
  O  O5  1  0.97756300  0.32721300  0.38500800  1
  O  O6  1  0.60537700  0.12136700  0.53501300  1
  O  O7  1  0.14362000  0.99777900  0.75254200  1
  O  O8  1  0.27670600  0.11918900  0.03614900  1
  O  O9  1  0.85873500  0.99774900  0.25278900  1
loop_
_geom_bond_atom_site_label_1
_geom_bond_atom_site_label_2
_geom_bond_distance
_geom_bond_site_symmetry_2
O0 Ti1 1.966468 1_566
O0 Yb1 2.240136 1_556
O0 Yb0 2.260226 1_555
O0 Yb2 2.503986 1_565
O1 Ti0 1.965518 1_465
O1 Yb0 2.248783 1_555
O1 Yb1 2.259511 1_555
O1 Yb3 2.482494 1_565
O2 Ti0 1.943860 1_465
O2 Yb2 2.261106 1_555
O2 Yb0 2.336499 1_455
O3 Ti1 1.892622 1_556
O3 Yb0 2.258500 1_555
O3 Yb2 2.317616 1_555
O4 Ti1 1.968307 1_465
O4 Yb3 2.270556 1_555
O4 Yb1 2.348830 1_555
O5 Ti0 1.919992 1_555
O5 Yb1 2.265080 1_555
O5 Yb3 2.323566 1_655
O6 Ti0 1.931276 1_555
O6 Yb3 2.241317 1_555
O6 Yb2 2.247738 1_555
O6 Yb0 2.481615 1_545
O7 Ti0 2.028895 1_465
O7 Ti1 2.061190 1_466
O7 Yb0 2.430591 1_555
O7 Yb2 2.433715 1_565
O8 Ti1 1.933445 1_455
O8 Yb3 2.248952 1_555
O8 Yb2 2.251586 1_554
O8 Yb1 2.461460 1_545
O9 Ti1 2.011835 1_565
O9 Ti0 2.035940 1_565
O9 Yb1 2.436207 1_555
O9 Yb3 2.443958 1_565
