# generated using pymatgen
data_Li32Mn3Cr13O48
_symmetry_space_group_name_H-M   'P 1'
_cell_length_a   5.04152700
_cell_length_b   8.70984639
_cell_length_c   19.52362391
_cell_angle_alpha   97.98546267
_cell_angle_beta   94.99144238
_cell_angle_gamma   89.60270837
_symmetry_Int_Tables_number   1
_chemical_formula_structural   Li32Mn3Cr13O48
_chemical_formula_sum   'Li32 Mn3 Cr13 O48'
_cell_volume   845.75630688
_cell_formula_units_Z   1
loop_
 _symmetry_equiv_pos_site_id
 _symmetry_equiv_pos_as_xyz
  1  'x, y, z'
loop_
 _atom_site_type_symbol
 _atom_site_label
 _atom_site_symmetry_multiplicity
 _atom_site_fract_x
 _atom_site_fract_y
 _atom_site_fract_z
 _atom_site_occupancy
  Li  Li0  1  0.99264400  0.16881100  0.24961900  1
  Li  Li1  1  0.87644000  0.37653300  0.37488600  1
  Li  Li2  1  0.75005800  0.24840800  0.99959000  1
  Li  Li3  1  0.74198900  0.92021800  0.99991100  1
  Li  Li4  1  0.99190500  0.16722400  0.74902400  1
  Li  Li5  1  0.75811100  0.57998600  0.49942800  1
  Li  Li6  1  0.87527200  0.37547400  0.87506600  1
  Li  Li7  1  0.75201100  0.24993300  0.50053100  1
  Li  Li8  1  0.74157800  0.91930400  0.49936000  1
  Li  Li9  1  0.62583300  0.12385300  0.12515800  1
  Li  Li10  1  0.75634600  0.57975600  0.99982300  1
  Li  Li11  1  0.50734300  0.33067800  0.25042900  1
  Li  Li12  1  0.62468600  0.12373300  0.62513700  1
  Li  Li13  1  0.49888100  0.99802400  0.24963300  1
  Li  Li14  1  0.49301200  0.67024600  0.24996500  1
  Li  Li15  1  0.50557000  0.33018800  0.74986900  1
  Li  Li16  1  0.37491300  0.87461600  0.37519800  1
  Li  Li17  1  0.50095000  0.00039100  0.74988500  1
  Li  Li18  1  0.24742900  0.74939400  0.00020100  1
  Li  Li19  1  0.49503100  0.66986600  0.75043500  1
  Li  Li20  1  0.24336000  0.42086500  0.99991600  1
  Li  Li21  1  0.37674000  0.87659000  0.87497800  1
  Li  Li22  1  0.25769500  0.07938700  0.50060000  1
  Li  Li23  1  0.24775900  0.75110100  0.49946400  1
  Li  Li24  1  0.12702500  0.62663100  0.12505100  1
  Li  Li25  1  0.24173400  0.42060900  0.50053100  1
  Li  Li26  1  0.00927800  0.83214800  0.25065000  1
  Li  Li27  1  0.25951500  0.08059600  0.99992900  1
  Li  Li28  1  0.12532400  0.62380800  0.62480200  1
  Li  Li29  1  0.99962600  0.50022400  0.25088000  1
  Li  Li30  1  0.00635600  0.83269800  0.75052700  1
  Li  Li31  1  0.99945300  0.49962700  0.75007700  1
  Mn  Mn0  1  0.87646300  0.70969400  0.37580000  1
  Mn  Mn1  1  0.87252200  0.70744200  0.87434300  1
  Mn  Mn2  1  0.12425300  0.29116600  0.62493600  1
  Cr  Cr0  1  0.87282000  0.04614200  0.37492200  1
  Cr  Cr1  1  0.88080300  0.03907800  0.87469700  1
  Cr  Cr2  1  0.63151000  0.78853100  0.12518600  1
  Cr  Cr3  1  0.62076800  0.45238600  0.12389100  1
  Cr  Cr4  1  0.63168500  0.78905400  0.62499900  1
  Cr  Cr5  1  0.61839000  0.45476400  0.62417900  1
  Cr  Cr6  1  0.38228100  0.54220600  0.37557800  1
  Cr  Cr7  1  0.36937200  0.20324800  0.37367000  1
  Cr  Cr8  1  0.37690400  0.54637700  0.87512800  1
  Cr  Cr9  1  0.37418700  0.21200500  0.87544400  1
  Cr  Cr10  1  0.12425800  0.96262800  0.12544300  1
  Cr  Cr11  1  0.12529500  0.29790600  0.12524700  1
  Cr  Cr12  1  0.12351000  0.95918600  0.62607000  1
  O  O0  1  0.96684300  0.10853700  0.06926900  1
  O  O1  1  0.91977400  0.78618100  0.06891800  1
  O  O2  1  0.93312200  0.42415900  0.06703300  1
  O  O3  1  0.96597600  0.10703100  0.56918600  1
  O  O4  1  0.83226100  0.96513200  0.18157000  1
  O  O5  1  0.81598100  0.32669300  0.18269900  1
  O  O6  1  0.92302100  0.78767900  0.56920600  1
  O  O7  1  0.93135100  0.42710700  0.56769900  1
  O  O8  1  0.78238700  0.64294000  0.18038400  1
  O  O9  1  0.71534700  0.85686500  0.31947100  1
  O  O10  1  0.82491300  0.96687200  0.68149600  1
  O  O11  1  0.82401500  0.32445400  0.68166200  1
  O  O12  1  0.67849500  0.53713100  0.31930100  1
  O  O13  1  0.68233000  0.17360600  0.31705200  1
  O  O14  1  0.78125700  0.64467500  0.68091700  1
  O  O15  1  0.71012600  0.85354300  0.81853400  1
  O  O16  1  0.46399300  0.60281900  0.06862200  1
  O  O17  1  0.57537500  0.71652500  0.43101300  1
  O  O18  1  0.56635700  0.07754100  0.43267400  1
  O  O19  1  0.68310700  0.53579900  0.81876400  1
  O  O20  1  0.67273000  0.17488400  0.81819300  1
  O  O21  1  0.42244200  0.92549500  0.06797500  1
  O  O22  1  0.43576000  0.28720100  0.06858200  1
  O  O23  1  0.52938400  0.39455700  0.43072600  1
  O  O24  1  0.46822100  0.60237600  0.56858400  1
  O  O25  1  0.57258000  0.71336900  0.93043200  1
  O  O26  1  0.57645400  0.07143500  0.93244100  1
  O  O27  1  0.32726800  0.82175600  0.18246900  1
  O  O28  1  0.31413600  0.46144300  0.18134700  1
  O  O29  1  0.42803900  0.92608900  0.56791500  1
  O  O30  1  0.42578900  0.28469500  0.56920700  1
  O  O31  1  0.53290200  0.39554900  0.93116200  1
  O  O32  1  0.28535600  0.14557400  0.18069900  1
  O  O33  1  0.21622200  0.35459900  0.31868700  1
  O  O34  1  0.32406400  0.82515200  0.68214400  1
  O  O35  1  0.31855300  0.46370000  0.68092900  1
  O  O36  1  0.17591300  0.67595500  0.31847400  1
  O  O37  1  0.18490700  0.03710500  0.31856900  1
  O  O38  1  0.28730000  0.14514700  0.68146200  1
  O  O39  1  0.21833000  0.35853000  0.81921700  1
  O  O40  1  0.07014100  0.57264700  0.43236000  1
  O  O41  1  0.06412800  0.20956900  0.43109000  1
  O  O42  1  0.17565000  0.67693300  0.81808100  1
  O  O43  1  0.16982900  0.03579800  0.81889500  1
  O  O44  1  0.03627500  0.89258400  0.43072800  1
  O  O45  1  0.06824900  0.57320600  0.93216200  1
  O  O46  1  0.08098100  0.21395600  0.93121500  1
  O  O47  1  0.03347300  0.89267100  0.93069300  1
loop_
_geom_bond_atom_site_label_1
_geom_bond_atom_site_label_2
_geom_bond_distance
_geom_bond_site_symmetry_2
Li0 O37 2.062565 1_655
Li0 O32 2.072433 1_655
Li0 O13 2.127149 1_555
Li0 O5 2.161236 1_555
Li0 O4 2.178097 1_545
Li0 O33 2.204975 1_655
Li1 O12 2.084261 1_555
Li1 O40 2.104840 1_655
Li1 O33 2.106914 1_655
Li1 O41 2.111357 1_655
Li1 O23 2.134285 1_555
Li1 O13 2.152615 1_555
Li2 O26 2.029346 1_555
Li2 O2 2.043748 1_556
Li2 O22 2.162592 1_556
Li2 O0 2.170845 1_556
Li2 O31 2.197168 1_555
Li2 O46 2.219190 1_655
Li3 O1 2.047872 1_556
Li3 O47 2.072175 1_655
Li3 O26 2.107566 1_565
Li3 O21 2.172059 1_556
Li3 O0 2.224998 1_566
Li3 O25 2.226222 1_555
Li4 O43 2.045120 1_655
Li4 O38 2.064488 1_655
Li4 O11 2.147572 1_555
Li4 O10 2.163354 1_545
Li4 O20 2.183809 1_555
Li4 O39 2.253270 1_655
Li5 O17 2.063771 1_555
Li5 O24 2.064756 1_555
Li5 O40 2.127698 1_655
Li5 O7 2.141701 1_555
Li5 O23 2.211794 1_555
Li5 O6 2.226785 1_555
Li6 O19 2.078273 1_555
Li6 O45 2.110989 1_655
Li6 O46 2.113473 1_655
Li6 O31 2.116814 1_555
Li6 O39 2.117051 1_655
Li6 O20 2.148588 1_555
Li7 O18 2.033897 1_555
Li7 O7 2.041878 1_555
Li7 O41 2.160741 1_655
Li7 O3 2.168582 1_555
Li7 O30 2.204168 1_555
Li7 O23 2.212466 1_555
Li8 O6 2.052648 1_555
Li8 O44 2.076529 1_655
Li8 O29 2.153710 1_555
Li8 O18 2.157885 1_565
Li8 O17 2.184765 1_555
Li8 O3 2.224803 1_565
Li9 O22 2.096675 1_555
Li9 O4 2.100202 1_545
Li9 O32 2.102494 1_555
Li9 O0 2.108772 1_555
Li9 O21 2.138254 1_545
Li9 O5 2.141709 1_555
Li10 O25 2.062211 1_555
Li10 O16 2.069392 1_556
Li10 O45 2.135462 1_655
Li10 O2 2.150948 1_556
Li10 O31 2.191994 1_555
Li10 O1 2.210073 1_556
Li11 O33 2.057291 1_555
Li11 O28 2.061035 1_555
Li11 O5 2.124965 1_555
Li11 O13 2.149368 1_555
Li11 O32 2.203454 1_555
Li11 O12 2.221222 1_555
Li12 O10 2.074029 1_545
Li12 O30 2.092523 1_555
Li12 O38 2.097941 1_555
Li12 O3 2.110548 1_555
Li12 O29 2.119186 1_545
Li12 O11 2.139965 1_555
Li13 O27 2.021564 1_555
Li13 O13 2.043317 1_565
Li13 O37 2.160745 1_565
Li13 O9 2.179431 1_555
Li13 O32 2.197946 1_565
Li13 O4 2.224630 1_555
Li14 O12 2.062017 1_555
Li14 O8 2.068978 1_555
Li14 O27 2.110075 1_555
Li14 O36 2.167886 1_555
Li14 O9 2.210801 1_555
Li14 O28 2.247447 1_555
Li15 O39 2.057787 1_555
Li15 O35 2.061959 1_555
Li15 O20 2.146910 1_555
Li15 O11 2.169258 1_555
Li15 O38 2.182412 1_555
Li15 O19 2.227315 1_555
Li16 O17 2.076246 1_555
Li16 O37 2.091546 1_565
Li16 O44 2.094234 1_555
Li16 O9 2.104250 1_555
Li16 O36 2.127270 1_555
Li16 O18 2.144470 1_565
Li17 O20 2.022992 1_555
Li17 O34 2.031450 1_545
Li17 O38 2.175567 1_555
Li17 O15 2.180823 1_545
Li17 O10 2.190918 1_545
Li17 O43 2.228439 1_555
Li18 O21 2.033138 1_555
Li18 O45 2.044389 1_554
Li18 O47 2.181637 1_554
Li18 O16 2.192491 1_555
Li18 O1 2.211368 1_455
Li18 O25 2.214436 1_554
Li19 O14 2.055779 1_555
Li19 O19 2.059023 1_555
Li19 O34 2.152854 1_555
Li19 O15 2.164525 1_555
Li19 O42 2.164891 1_555
Li19 O35 2.234400 1_555
Li20 O31 2.058046 1_555
Li20 O22 2.070061 1_556
Li20 O2 2.123626 1_456
Li20 O45 2.134942 1_555
Li20 O16 2.173091 1_556
Li20 O46 2.207882 1_555
Li21 O15 2.082271 1_555
Li21 O25 2.095276 1_555
Li21 O43 2.100708 1_565
Li21 O26 2.109642 1_565
Li21 O47 2.116521 1_555
Li21 O42 2.139525 1_555
Li22 O41 2.064315 1_555
Li22 O3 2.064512 1_455
Li22 O29 2.126675 1_545
Li22 O18 2.129163 1_555
Li22 O30 2.206348 1_555
Li22 O44 2.213090 1_545
Li23 O29 2.043753 1_555
Li23 O40 2.045361 1_555
Li23 O44 2.156040 1_555
Li23 O17 2.206839 1_555
Li23 O6 2.212689 1_455
Li23 O24 2.222418 1_555
Li24 O16 2.097642 1_555
Li24 O28 2.099536 1_555
Li24 O1 2.104202 1_455
Li24 O27 2.112266 1_555
Li24 O8 2.118185 1_455
Li24 O2 2.150544 1_455
Li25 O23 2.065270 1_555
Li25 O30 2.066256 1_555
Li25 O7 2.122904 1_455
Li25 O40 2.132328 1_555
Li25 O24 2.179939 1_555
Li25 O41 2.266645 1_555
Li26 O4 2.041385 1_455
Li26 O9 2.075885 1_455
Li26 O36 2.144996 1_555
Li26 O27 2.164739 1_555
Li26 O37 2.211107 1_565
Li26 O8 2.243027 1_455
Li27 O46 2.041425 1_555
Li27 O0 2.078492 1_456
Li27 O21 2.134932 1_546
Li27 O26 2.151974 1_555
Li27 O47 2.224423 1_545
Li27 O22 2.229133 1_556
Li28 O35 2.077123 1_555
Li28 O7 2.106476 1_455
Li28 O6 2.114988 1_455
Li28 O24 2.120563 1_555
Li28 O14 2.124434 1_455
Li28 O34 2.148560 1_555
Li29 O36 2.031675 1_655
Li29 O5 2.039484 1_555
Li29 O28 2.170460 1_655
Li29 O33 2.179333 1_655
Li29 O12 2.181446 1_555
Li29 O8 2.198430 1_555
Li30 O10 2.055995 1_455
Li30 O15 2.073784 1_455
Li30 O42 2.143310 1_555
Li30 O34 2.167625 1_555
Li30 O43 2.182406 1_565
Li30 O14 2.226157 1_455
Li31 O11 2.034988 1_555
Li31 O42 2.044708 1_655
Li31 O19 2.165412 1_555
Li31 O39 2.175539 1_655
Li31 O35 2.182230 1_655
Li31 O14 2.196710 1_555
Mn0 O44 1.931181 1_655
Mn0 O9 1.932387 1_555
Mn0 O17 1.932705 1_555
Mn0 O40 1.939087 1_655
Mn0 O36 1.953107 1_655
Mn0 O12 1.959711 1_555
Mn1 O15 1.921557 1_555
Mn1 O19 1.926941 1_555
Mn1 O25 1.939028 1_555
Mn1 O45 1.942115 1_655
Mn1 O42 1.953980 1_655
Mn1 O47 1.959906 1_655
Mn2 O38 1.930985 1_555
Mn2 O7 1.938814 1_455
Mn2 O30 1.941031 1_555
Mn2 O3 1.942981 1_455
Mn2 O35 1.946918 1_555
Mn2 O11 1.948892 1_455
Cr0 O41 1.886850 1_655
Cr0 O13 1.891097 1_555
Cr0 O44 1.971887 1_645
Cr0 O9 1.973022 1_545
Cr0 O18 1.986171 1_555
Cr0 O37 1.991907 1_655
Cr1 O43 1.891557 1_655
Cr1 O47 1.908140 1_645
Cr1 O20 1.964812 1_555
Cr1 O26 1.977743 1_555
Cr1 O46 1.979051 1_655
Cr1 O15 1.979119 1_545
Cr2 O8 1.889877 1_555
Cr2 O1 1.894849 1_555
Cr2 O27 1.972208 1_555
Cr2 O16 1.977252 1_555
Cr2 O21 1.982318 1_555
Cr2 O4 1.989812 1_555
Cr3 O22 1.875543 1_555
Cr3 O5 1.903420 1_555
Cr3 O16 1.932838 1_555
Cr3 O28 1.982375 1_555
Cr3 O8 1.997187 1_555
Cr3 O2 1.998878 1_555
Cr4 O14 1.888616 1_555
Cr4 O6 1.902242 1_555
Cr4 O29 1.968304 1_555
Cr4 O24 1.974593 1_555
Cr4 O10 1.980817 1_555
Cr4 O34 1.986375 1_555
Cr5 O24 1.906699 1_555
Cr5 O30 1.919840 1_555
Cr5 O11 1.938426 1_555
Cr5 O35 1.945391 1_555
Cr5 O7 1.996773 1_555
Cr5 O14 1.997191 1_555
Cr6 O23 1.896205 1_555
Cr6 O12 1.926249 1_555
Cr6 O17 1.950600 1_555
Cr6 O36 1.955677 1_555
Cr6 O33 1.989352 1_555
Cr6 O40 1.997950 1_555
Cr7 O37 1.878361 1_555
Cr7 O18 1.910068 1_555
Cr7 O33 1.929011 1_555
Cr7 O41 1.977336 1_555
Cr7 O13 1.999124 1_555
Cr7 O23 2.003660 1_555
Cr8 O25 1.911210 1_555
Cr8 O42 1.924117 1_555
Cr8 O31 1.943290 1_555
Cr8 O19 1.966725 1_555
Cr8 O39 1.969171 1_555
Cr8 O45 1.984972 1_555
Cr9 O46 1.909339 1_555
Cr9 O39 1.917404 1_555
Cr9 O31 1.939679 1_555
Cr9 O20 1.950602 1_555
Cr9 O26 1.985180 1_555
Cr9 O43 1.997249 1_555
Cr10 O4 1.908401 1_455
Cr10 O0 1.915585 1_465
Cr10 O32 1.936578 1_565
Cr10 O21 1.951745 1_555
Cr10 O27 1.989065 1_555
Cr10 O1 1.998815 1_455
Cr11 O28 1.881164 1_555
Cr11 O2 1.892216 1_455
Cr11 O32 1.953418 1_555
Cr11 O0 1.979523 1_455
Cr11 O22 1.988254 1_555
Cr11 O5 1.993389 1_455
Cr12 O10 1.924470 1_455
Cr12 O34 1.931270 1_555
Cr12 O3 1.937016 1_465
Cr12 O6 1.962272 1_455
Cr12 O38 1.962468 1_565
Cr12 O29 1.983835 1_555
