# generated using pymatgen
data_Co2C2O7
_symmetry_space_group_name_H-M   'P 1'
_cell_length_a   8.52030785
_cell_length_b   8.52030785
_cell_length_c   8.24876600
_cell_angle_alpha   90.00000000
_cell_angle_beta   90.00000000
_cell_angle_gamma   119.99999882
_symmetry_Int_Tables_number   1
_chemical_formula_structural   Co2C2O7
_chemical_formula_sum   'Co6 C6 O21'
_cell_volume   518.59723123
_cell_formula_units_Z   3
loop_
 _symmetry_equiv_pos_site_id
 _symmetry_equiv_pos_as_xyz
  1  'x, y, z'
loop_
 _atom_site_type_symbol
 _atom_site_label
 _atom_site_symmetry_multiplicity
 _atom_site_fract_x
 _atom_site_fract_y
 _atom_site_fract_z
 _atom_site_occupancy
  Co  Co0  1  0.00000000  0.00000000  0.28441900  1
  Co  Co1  1  0.00000000  0.00000000  0.71558100  1
  Co  Co2  1  0.66666700  0.33333300  0.82454100  1
  Co  Co3  1  0.66666700  0.33333300  0.25899600  1
  Co  Co4  1  0.33333300  0.66666700  0.17545900  1
  Co  Co5  1  0.33333300  0.66666700  0.74100400  1
  C  C0  1  0.33689500  0.33898700  0.26624300  1
  C  C1  1  0.00209200  0.66310500  0.26624300  1
  C  C2  1  0.66101300  0.99790800  0.26624300  1
  C  C3  1  0.99790800  0.66101300  0.73375700  1
  C  C4  1  0.33898700  0.33689500  0.73375700  1
  C  C5  1  0.66310500  0.00209200  0.73375700  1
  O  O0  1  0.00000000  0.00000000  0.50000000  1
  O  O1  1  0.23643500  0.17000000  0.77997400  1
  O  O2  1  0.42406300  0.26187000  0.32412000  1
  O  O3  1  0.51032200  0.41506400  0.73995800  1
  O  O4  1  0.66666700  0.33333300  0.04079400  1
  O  O5  1  0.83780700  0.57593700  0.32412000  1
  O  O6  1  0.58493600  0.09525700  0.73995800  1
  O  O7  1  0.93356500  0.76356500  0.77997400  1
  O  O8  1  0.06643500  0.83000000  0.22002600  1
  O  O9  1  0.90474300  0.48967800  0.73995800  1
  O  O10  1  0.73813000  0.16219300  0.32412000  1
  O  O11  1  0.83000000  0.06643500  0.77997400  1
  O  O12  1  0.16219300  0.73813000  0.67588000  1
  O  O13  1  0.09525700  0.58493600  0.26004200  1
  O  O14  1  0.33333300  0.66666700  0.95920600  1
  O  O15  1  0.26187000  0.42406300  0.67588000  1
  O  O16  1  0.48967800  0.90474300  0.26004200  1
  O  O17  1  0.17000000  0.23643500  0.22002600  1
  O  O18  1  0.41506400  0.51032200  0.26004200  1
  O  O19  1  0.57593700  0.83780700  0.67588000  1
  O  O20  1  0.76356500  0.93356500  0.22002600  1
loop_
_geom_bond_atom_site_label_1
_geom_bond_atom_site_label_2
_geom_bond_distance
_geom_bond_site_symmetry_2
Co0 O0 1.778277 1_555
Co0 O8 1.876286 1_545
Co0 O20 1.876286 1_445
Co0 O17 1.876286 1_555
Co1 O0 1.778277 1_555
Co1 O11 1.876286 1_455
Co1 O7 1.876286 1_445
Co1 O1 1.876286 1_555
Co2 O4 1.783820 1_556
Co2 O3 1.916738 1_555
Co2 O6 1.916738 1_555
Co2 O9 1.916738 1_555
Co3 O4 1.799897 1_555
Co3 O10 1.916618 1_555
Co3 O5 1.916624 1_555
Co3 O2 1.916626 1_555
Co4 O14 1.783820 1_554
Co4 O18 1.916738 1_555
Co4 O13 1.916738 1_555
Co4 O16 1.916738 1_555
Co5 O14 1.799897 1_555
Co5 O12 1.916618 1_555
Co5 O19 1.916624 1_555
Co5 O15 1.916626 1_555
C0 O18 1.266894 1_555
C0 O17 1.299381 1_555
C0 O2 1.303553 1_555
C1 O13 1.266886 1_555
C1 O8 1.299381 1_555
C1 O5 1.303553 1_455
C2 O16 1.266893 1_555
C2 O20 1.299381 1_555
C2 O10 1.303553 1_565
C3 O9 1.266893 1_555
C3 O7 1.299381 1_555
C3 O12 1.303553 1_655
C4 O3 1.266894 1_555
C4 O1 1.299381 1_555
C4 O15 1.303553 1_555
C5 O6 1.266886 1_555
C5 O11 1.299381 1_555
C5 O19 1.303553 1_545
