# generated using pymatgen
data_NiMoP
_symmetry_space_group_name_H-M   'P 1'
_cell_length_a   5.81018687
_cell_length_b   5.81018169
_cell_length_c   3.73481634
_cell_angle_alpha   90.00000000
_cell_angle_beta   90.00000000
_cell_angle_gamma   119.99820860
_symmetry_Int_Tables_number   1
_chemical_formula_structural   NiMoP
_chemical_formula_sum   'Ni3 Mo3 P3'
_cell_volume   109.19117387
_cell_formula_units_Z   3
loop_
 _symmetry_equiv_pos_site_id
 _symmetry_equiv_pos_as_xyz
  1  'x, y, z'
loop_
 _atom_site_type_symbol
 _atom_site_label
 _atom_site_symmetry_multiplicity
 _atom_site_fract_x
 _atom_site_fract_y
 _atom_site_fract_z
 _atom_site_occupancy
  Ni  Ni0  1  0.74923773  0.74923762  0.00000000  1
  Ni  Ni1  1  0.25075741  0.00000152  0.00000000  1
  Ni  Ni2  1  0.00000164  0.25075575  0.00000000  1
  Mo  Mo0  1  0.00000902  0.58618285  0.50000000  1
  Mo  Mo1  1  0.58618268  0.00000951  0.50000000  1
  Mo  Mo2  1  0.41380793  0.41380833  0.50000000  1
  P  P0  1  0.00000705  0.00000657  0.50000000  1
  P  P1  1  0.66666885  0.33332902  -0.00000000  1
  P  P2  1  0.33332869  0.66666883  0.00000000  1
loop_
_geom_bond_atom_site_label_1
_geom_bond_atom_site_label_2
_geom_bond_distance
_geom_bond_site_symmetry_2
Ni0 P1 2.215945 1_555
Ni0 P2 2.215950 1_555
Ni0 P0 2.368590 1_665
Ni0 P0 2.368590 1_664
Ni0 Ni2 2.523567 1_665
Ni0 Ni1 2.523577 1_665
Ni1 P2 2.215889 1_545
Ni1 P1 2.215977 1_555
Ni1 P0 2.368508 1_555
Ni1 P0 2.368508 1_554
Ni1 Ni2 2.523459 1_555
Ni2 P1 2.215899 1_455
Ni2 P2 2.215982 1_555
Ni2 P0 2.368504 1_554
Ni2 P0 2.368504 1_555
Mo0 P0 2.404397 1_565
Mo0 P2 2.559474 1_555
Mo0 P2 2.559474 1_556
Mo0 P1 2.559573 1_456
Mo0 P1 2.559573 1_455
Mo0 Ni2 2.699132 1_556
Mo0 Ni2 2.699132 1_555
Mo0 Ni0 2.808549 1_456
Mo0 Ni0 2.808549 1_455
Mo0 Ni1 2.808558 1_566
Mo0 Ni1 2.808558 1_565
Mo1 P0 2.404405 1_655
Mo1 P1 2.559472 1_556
Mo1 P1 2.559472 1_555
Mo1 P2 2.559574 1_546
Mo1 P2 2.559574 1_545
Mo1 Ni1 2.699124 1_555
Mo1 Ni1 2.699124 1_556
Mo1 Ni0 2.808552 1_545
Mo1 Ni0 2.808552 1_546
Mo1 Ni2 2.808559 1_656
Mo1 Ni2 2.808559 1_655
Mo2 P0 2.404327 1_555
Mo2 P2 2.559542 1_556
Mo2 P2 2.559542 1_555
Mo2 P1 2.559544 1_556
Mo2 P1 2.559544 1_555
Mo2 Ni0 2.699196 1_555
Mo2 Ni0 2.699196 1_556
Mo2 Ni2 2.808508 1_555
Mo2 Ni2 2.808508 1_556
Mo2 Ni1 2.808509 1_556
Mo2 Ni1 2.808509 1_555
