# generated using pymatgen
data_CaTiSiO5
_symmetry_space_group_name_H-M   'P 1'
_cell_length_a   9.28207300
_cell_length_b   7.49230600
_cell_length_c   9.92182828
_cell_angle_alpha   50.56924255
_cell_angle_beta   90.00000000
_cell_angle_gamma   90.00000000
_symmetry_Int_Tables_number   1
_chemical_formula_structural   CaTiSiO5
_chemical_formula_sum   'Ca4 Ti4 Si4 O20'
_cell_volume   532.95478780
_cell_formula_units_Z   4
loop_
 _symmetry_equiv_pos_site_id
 _symmetry_equiv_pos_as_xyz
  1  'x, y, z'
loop_
 _atom_site_type_symbol
 _atom_site_label
 _atom_site_symmetry_multiplicity
 _atom_site_fract_x
 _atom_site_fract_y
 _atom_site_fract_z
 _atom_site_occupancy
  Ca  Ca0  1  0.38877200  0.61156800  0.31860500  1
  Ca  Ca1  1  0.11122800  0.61156800  0.81860500  1
  Ca  Ca2  1  0.88877200  0.38843200  0.18139500  1
  Ca  Ca3  1  0.61122800  0.38843200  0.68139500  1
  Ti  Ti0  1  0.18609900  0.04072200  0.28567500  1
  Ti  Ti1  1  0.68609900  0.95927800  0.21432500  1
  Ti  Ti2  1  0.31390100  0.04072200  0.78567500  1
  Ti  Ti3  1  0.81390100  0.95927800  0.71432500  1
  Si  Si0  1  0.99816500  0.27029900  0.70235800  1
  Si  Si1  1  0.00183500  0.72970100  0.29764200  1
  Si  Si2  1  0.50183500  0.27029900  0.20235800  1
  Si  Si3  1  0.49816500  0.72970100  0.79764200  1
  O  O0  1  0.11074600  0.32226200  0.12208100  1
  O  O1  1  0.38925400  0.32226200  0.62208100  1
  O  O2  1  0.88284600  0.17119100  0.48110200  1
  O  O3  1  0.62490600  0.93273400  0.66897800  1
  O  O4  1  0.50982000  0.86642100  0.90835700  1
  O  O5  1  0.37509400  0.06726600  0.33102200  1
  O  O6  1  0.12490600  0.06726600  0.83102200  1
  O  O7  1  0.67618500  0.16298300  0.26651800  1
  O  O8  1  0.88925400  0.67773800  0.87791900  1
  O  O9  1  0.38284600  0.82880900  0.01889800  1
  O  O10  1  0.61715400  0.17119100  0.98110200  1
  O  O11  1  0.00982000  0.13357900  0.59164300  1
  O  O12  1  0.82381500  0.16298300  0.76651800  1
  O  O13  1  0.99018000  0.86642100  0.40835700  1
  O  O14  1  0.11715400  0.82880900  0.51889800  1
  O  O15  1  0.49018000  0.13357900  0.09164300  1
  O  O16  1  0.87509400  0.93273400  0.16897800  1
  O  O17  1  0.32381500  0.83701700  0.73348200  1
  O  O18  1  0.61074600  0.67773800  0.37791900  1
  O  O19  1  0.17618500  0.83701700  0.23348200  1
loop_
_geom_bond_atom_site_label_1
_geom_bond_atom_site_label_2
_geom_bond_distance
_geom_bond_site_symmetry_2
Ca0 O18 2.282083 1_555
Ca0 O9 2.312262 1_555
Ca0 O1 2.339659 1_555
Ca0 O19 2.376550 1_555
Ca1 O8 2.282083 1_455
Ca1 O14 2.312262 1_555
Ca1 O0 2.339659 1_556
Ca1 O17 2.376550 1_555
Ca2 O0 2.282083 1_655
Ca2 O2 2.312262 1_555
Ca2 O8 2.339659 1_554
Ca2 O7 2.376550 1_555
Ca3 O1 2.282083 1_555
Ca3 O10 2.312262 1_555
Ca3 O18 2.339659 1_555
Ca3 O12 2.376550 1_555
O0 Ti0 1.795562 1_555
O1 Ti2 1.795562 1_555
O2 Ti3 1.902093 1_545
O3 Si3 1.691399 1_555
O3 Ti3 1.852862 1_555
O4 O9 1.509556 1_556
O4 Si3 1.922776 1_555
O4 Ti2 2.115391 1_565
O5 Si2 1.691399 1_555
O5 Ti0 1.852862 1_555
O6 Si0 1.691399 1_455
O6 Ti2 1.852862 1_555
O7 Si2 1.737967 1_555
O7 Ti1 1.899990 1_545
O8 Ti3 1.795562 1_555
O9 Ti2 1.902093 1_564
O10 O15 1.509556 1_556
O10 Ti1 1.902093 1_546
O11 O2 1.509556 1_455
O11 Si0 1.922776 1_455
O11 Ti3 2.115391 1_445
O12 Si0 1.737967 1_555
O12 Ti3 1.899990 1_545
O13 O14 1.509556 1_655
O13 Si1 1.922776 1_655
O13 Ti0 2.115391 1_665
O14 Ti0 1.902093 1_565
O15 Si2 1.922776 1_555
O15 Ti1 2.115391 1_545
O16 Si1 1.691399 1_655
O16 Ti1 1.852862 1_555
O17 Si3 1.737967 1_555
O17 Ti2 1.899990 1_565
O18 Ti1 1.795562 1_555
O19 Si1 1.737967 1_555
O19 Ti0 1.899990 1_565
