# generated using pymatgen
data_Li3Fe8(BO3)8
_symmetry_space_group_name_H-M   'P 1'
_cell_length_a   5.30433400
_cell_length_b   9.03189138
_cell_length_c   11.38136133
_cell_angle_alpha   113.18123979
_cell_angle_beta   102.61677027
_cell_angle_gamma   89.38910099
_symmetry_Int_Tables_number   1
_chemical_formula_structural   Li3Fe8(BO3)8
_chemical_formula_sum   'Li3 Fe8 B8 O24'
_cell_volume   487.40753481
_cell_formula_units_Z   1
loop_
 _symmetry_equiv_pos_site_id
 _symmetry_equiv_pos_as_xyz
  1  'x, y, z'
loop_
 _atom_site_type_symbol
 _atom_site_label
 _atom_site_symmetry_multiplicity
 _atom_site_fract_x
 _atom_site_fract_y
 _atom_site_fract_z
 _atom_site_occupancy
  Li  Li0  1  0.16520000  0.83825800  0.65290000  1
  Li  Li1  1  0.60241400  0.95031000  0.91381500  1
  Li  Li2  1  0.67390600  0.33548200  0.65457900  1
  Fe  Fe0  1  0.40312100  0.73116500  0.13362700  1
  Fe  Fe1  1  0.09145000  0.77454400  0.88638800  1
  Fe  Fe2  1  0.85251900  0.85522000  0.37753900  1
  Fe  Fe3  1  0.65037300  0.64944500  0.62383400  1
  Fe  Fe4  1  0.34929200  0.34878400  0.36700800  1
  Fe  Fe5  1  0.14914200  0.15802500  0.62591700  1
  Fe  Fe6  1  0.91077900  0.22601300  0.13201100  1
  Fe  Fe7  1  0.59494200  0.27507000  0.87999200  1
  B  B0  1  0.65505900  0.98395200  0.63191600  1
  B  B1  1  0.88555300  0.89200900  0.12731600  1
  B  B2  1  0.14036000  0.48897300  0.62456300  1
  B  B3  1  0.40321800  0.39731100  0.12757300  1
  B  B4  1  0.86045000  0.52271600  0.38419400  1
  B  B5  1  0.59104100  0.60607900  0.87219100  1
  B  B6  1  0.35509500  0.01948200  0.38051000  1
  B  B7  1  0.10496900  0.10337500  0.87062600  1
  O  O0  1  0.11931200  0.85167300  0.09155800  1
  O  O1  1  0.47656600  0.87561400  0.33933800  1
  O  O2  1  0.22033500  0.96295400  0.86009300  1
  O  O3  1  0.52718700  0.85500900  0.63825900  1
  O  O4  1  0.88222300  0.96197600  0.58678500  1
  O  O5  1  0.78191400  0.79737900  0.18098400  1
  O  O6  1  0.29957200  0.53841600  0.13931000  1
  O  O7  1  0.03396400  0.64001500  0.66012800  1
  O  O8  1  0.69111900  0.71036100  0.82370200  1
  O  O9  1  0.63285500  0.52178600  0.43026300  1
  O  O10  1  0.95951200  0.66157900  0.38729300  1
  O  O11  1  0.40201200  0.65894100  0.94063600  1
  O  O12  1  0.61282600  0.34815900  0.06896500  1
  O  O13  1  0.38063600  0.47723200  0.58800500  1
  O  O14  1  0.30529200  0.29582700  0.17686500  1
  O  O15  1  0.97986800  0.38010300  0.34243800  1
  O  O16  1  0.68194500  0.45687800  0.84557800  1
  O  O17  1  0.22159500  0.21385900  0.83710900  1
  O  O18  1  0.12883500  0.01738400  0.42253800  1
  O  O19  1  0.45952700  0.15967300  0.38614200  1
  O  O20  1  0.01496900  0.36225200  0.62748200  1
  O  O21  1  0.75889400  0.01142600  0.10182400  1
  O  O22  1  0.55719000  0.13524900  0.67163900  1
  O  O23  1  0.86826100  0.13142400  0.90797200  1
loop_
_geom_bond_atom_site_label_1
_geom_bond_atom_site_label_2
_geom_bond_distance
_geom_bond_site_symmetry_2
Li0 O7 1.965918 1_555
Li0 O3 1.975666 1_555
Li0 O4 2.049541 1_455
Li0 O2 2.128291 1_555
Li1 O21 1.968844 1_566
Li1 O2 2.000748 1_555
Li1 O8 2.099804 1_555
Li1 O23 2.201038 1_565
Li2 O20 1.933449 1_655
Li2 O16 2.003388 1_555
Li2 O22 2.011078 1_555
Li2 O13 2.199871 1_555
Fe0 O6 1.860408 1_555
Fe0 O0 1.934073 1_555
Fe0 O5 1.995990 1_555
Fe0 O11 2.028934 1_554
Fe0 O1 2.131437 1_555
Fe1 O2 1.991946 1_555
Fe1 O11 2.052213 1_555
Fe1 O8 2.095964 1_455
Fe1 O0 2.128532 1_556
Fe1 O7 2.324268 1_555
Fe2 O10 1.870130 1_555
Fe2 O18 1.919110 1_665
Fe2 O1 1.968798 1_555
Fe2 O5 2.033648 1_555
Fe2 O4 2.158146 1_555
Fe3 O3 1.918857 1_555
Fe3 O13 1.981395 1_555
Fe3 O7 1.993665 1_655
Fe3 O9 2.026011 1_555
Fe3 O8 2.080007 1_555
Fe4 O19 1.876860 1_555
Fe4 O15 1.951695 1_455
Fe4 O9 1.978284 1_555
Fe4 O14 1.983265 1_555
Fe4 O13 2.285637 1_555
Fe5 O20 1.964917 1_555
Fe5 O4 2.120236 1_445
Fe5 O18 2.135949 1_555
Fe5 O22 2.140228 1_555
Fe5 O17 2.196780 1_555
Fe6 O21 1.977773 1_555
Fe6 O12 2.078549 1_555
Fe6 O14 2.084545 1_655
Fe6 O15 2.193245 1_555
Fe6 O23 2.306605 1_554
Fe7 O16 1.914225 1_555
Fe7 O17 1.963247 1_555
Fe7 O12 1.965963 1_556
Fe7 O23 1.992477 1_555
Fe7 O22 2.167593 1_555
B0 O3 1.387799 1_555
B0 O4 1.392899 1_555
B0 O22 1.393640 1_565
B1 O21 1.358160 1_565
B1 O0 1.389201 1_655
B1 O5 1.404817 1_555
B2 O20 1.345085 1_555
B2 O7 1.411389 1_555
B2 O13 1.415194 1_555
B3 O6 1.351820 1_555
B3 O12 1.399471 1_555
B3 O14 1.402488 1_555
B4 O10 1.349625 1_555
B4 O15 1.385058 1_555
B4 O9 1.418671 1_555
B5 O16 1.367036 1_555
B5 O11 1.370527 1_555
B5 O8 1.421735 1_555
B6 O19 1.360053 1_555
B6 O18 1.388509 1_555
B6 O1 1.399232 1_545
B7 O2 1.375915 1_545
B7 O17 1.392810 1_555
B7 O23 1.401038 1_455
