# generated using pymatgen
data_Li2BiO3
_symmetry_space_group_name_H-M   'P 1'
_cell_length_a   5.67854818
_cell_length_b   5.67854818
_cell_length_c   10.41706700
_cell_angle_alpha   85.50546162
_cell_angle_beta   85.50546162
_cell_angle_gamma   118.21116448
_symmetry_Int_Tables_number   1
_chemical_formula_structural   Li2BiO3
_chemical_formula_sum   'Li8 Bi4 O12'
_cell_volume   292.53802883
_cell_formula_units_Z   4
loop_
 _symmetry_equiv_pos_site_id
 _symmetry_equiv_pos_as_xyz
  1  'x, y, z'
loop_
 _atom_site_type_symbol
 _atom_site_label
 _atom_site_symmetry_multiplicity
 _atom_site_fract_x
 _atom_site_fract_y
 _atom_site_fract_z
 _atom_site_occupancy
  Li  Li0  1  0.71036100  0.90178800  0.99244600  1
  Li  Li1  1  0.90178800  0.71036100  0.49244600  1
  Li  Li2  1  0.00000000  0.50000000  0.00000000  1
  Li  Li3  1  0.75439200  0.24560800  0.75000000  1
  Li  Li4  1  0.24560800  0.75439200  0.25000000  1
  Li  Li5  1  0.50000000  0.00000000  0.50000000  1
  Li  Li6  1  0.09821200  0.28963900  0.50755400  1
  Li  Li7  1  0.28963900  0.09821200  0.00755400  1
  Bi  Bi0  1  0.42448300  0.57551700  0.75000000  1
  Bi  Bi1  1  0.08703500  0.91296500  0.75000000  1
  Bi  Bi2  1  0.91296500  0.08703500  0.25000000  1
  Bi  Bi3  1  0.57551700  0.42448300  0.25000000  1
  O  O0  1  0.81377700  0.95948000  0.63062000  1
  O  O1  1  0.75855600  0.57392200  0.87054200  1
  O  O2  1  0.95948000  0.81377700  0.13062000  1
  O  O3  1  0.35768400  0.88042100  0.87654100  1
  O  O4  1  0.57392200  0.75855600  0.37054200  1
  O  O5  1  0.88042100  0.35768400  0.37654100  1
  O  O6  1  0.11957900  0.64231600  0.62345900  1
  O  O7  1  0.42607800  0.24144400  0.62945800  1
  O  O8  1  0.64231600  0.11957900  0.12345900  1
  O  O9  1  0.04052000  0.18622300  0.86938000  1
  O  O10  1  0.24144400  0.42607800  0.12945800  1
  O  O11  1  0.18622300  0.04052000  0.36938000  1
loop_
_geom_bond_atom_site_label_1
_geom_bond_atom_site_label_2
_geom_bond_distance
_geom_bond_site_symmetry_2
Li0 O8 2.043308 1_566
Li0 O9 2.050136 1_665
Li0 O2 2.279815 1_556
Li0 O3 2.378127 1_555
Li0 O1 2.439595 1_555
Li1 O6 2.043308 1_655
Li1 O11 2.050136 1_665
Li1 O0 2.279815 1_555
Li1 O5 2.378127 1_555
Li1 O4 2.439595 1_555
Li2 O10 2.149378 1_555
Li2 O1 2.149378 1_454
Li2 O3 2.335151 1_554
Li2 O8 2.335151 1_455
Li2 O2 2.407845 1_455
Li2 O9 2.407845 1_554
Li3 O0 2.251479 1_545
Li3 O9 2.251479 1_655
Li3 O1 2.320129 1_555
Li3 O7 2.320129 1_555
Li3 O6 2.408781 1_655
Li3 O3 2.408781 1_545
Li4 O2 2.251479 1_455
Li4 O11 2.251479 1_565
Li4 O4 2.320129 1_555
Li4 O10 2.320129 1_555
Li4 O5 2.408781 1_455
Li4 O8 2.408781 1_565
Li5 O4 2.149378 1_545
Li5 O7 2.149378 1_555
Li5 O6 2.335151 1_545
Li5 O5 2.335151 1_555
Li5 O11 2.407845 1_555
Li5 O0 2.407845 1_545
Li6 O5 2.043308 1_455
Li6 O0 2.050136 1_445
Li6 O11 2.279815 1_555
Li6 O6 2.378127 1_555
Li6 O7 2.439595 1_555
Li7 O3 2.043308 1_544
Li7 O2 2.050136 1_445
Li7 O9 2.279815 1_554
Li7 O8 2.378127 1_555
Li7 O10 2.439595 1_555
Bi0 O1 2.358697 1_555
Bi0 O7 2.358697 1_555
Bi0 O0 2.403019 1_555
Bi0 O9 2.403019 1_555
Bi0 O3 2.404071 1_555
Bi0 O6 2.404071 1_555
Bi1 O1 2.149761 1_455
Bi1 O7 2.149761 1_565
Bi1 O0 2.159292 1_455
Bi1 O9 2.159292 1_565
Bi1 O6 2.163717 1_555
Bi1 O3 2.163717 1_555
Bi2 O10 2.149761 1_655
Bi2 O4 2.149761 1_545
Bi2 O2 2.159292 1_545
Bi2 O11 2.159292 1_655
Bi2 O5 2.163717 1_555
Bi2 O8 2.163717 1_555
Bi3 O10 2.358697 1_555
Bi3 O4 2.358697 1_555
Bi3 O2 2.403019 1_555
Bi3 O11 2.403019 1_555
Bi3 O5 2.404071 1_555
Bi3 O8 2.404071 1_555
