# generated using pymatgen
data_BaPO4
_symmetry_space_group_name_H-M   'P 1'
_cell_length_a   5.30912300
_cell_length_b   14.06858200
_cell_length_c   16.10225300
_cell_angle_alpha   90.00000000
_cell_angle_beta   90.00000000
_cell_angle_gamma   90.00000000
_symmetry_Int_Tables_number   1
_chemical_formula_structural   BaPO4
_chemical_formula_sum   'Ba12 P12 O48'
_cell_volume   1202.70678030
_cell_formula_units_Z   12
loop_
 _symmetry_equiv_pos_site_id
 _symmetry_equiv_pos_as_xyz
  1  'x, y, z'
loop_
 _atom_site_type_symbol
 _atom_site_label
 _atom_site_symmetry_multiplicity
 _atom_site_fract_x
 _atom_site_fract_y
 _atom_site_fract_z
 _atom_site_occupancy
  Ba  Ba0  1  0.25319000  0.61494100  0.91354200  1
  Ba  Ba1  1  0.74681000  0.38505900  0.41354200  1
  Ba  Ba2  1  0.75319000  0.88505900  0.41354200  1
  Ba  Ba3  1  0.24681000  0.11494100  0.91354200  1
  Ba  Ba4  1  0.23832500  0.62932500  0.57954700  1
  Ba  Ba5  1  0.76167500  0.37067500  0.07954700  1
  Ba  Ba6  1  0.73832500  0.87067500  0.07954700  1
  Ba  Ba7  1  0.26167500  0.12932500  0.57954700  1
  Ba  Ba8  1  0.77999500  0.87191000  0.75207600  1
  Ba  Ba9  1  0.22000500  0.12809000  0.25207600  1
  Ba  Ba10  1  0.27999500  0.62809000  0.25207600  1
  Ba  Ba11  1  0.72000500  0.37191000  0.75207600  1
  P  P0  1  0.26883300  0.86877000  0.91458500  1
  P  P1  1  0.73116700  0.13123000  0.41458500  1
  P  P2  1  0.76883300  0.63123000  0.41458500  1
  P  P3  1  0.23116700  0.36877000  0.91458500  1
  P  P4  1  0.71552200  0.62099900  0.75087900  1
  P  P5  1  0.28447800  0.37900100  0.25087900  1
  P  P6  1  0.21552200  0.87900100  0.25087900  1
  P  P7  1  0.78447800  0.12099900  0.75087900  1
  P  P8  1  0.30430400  0.88049500  0.58347700  1
  P  P9  1  0.69569600  0.11950500  0.08347700  1
  P  P10  1  0.80430400  0.61950500  0.08347700  1
  P  P11  1  0.19569600  0.38049500  0.58347700  1
  O  O0  1  0.31517700  0.93258300  0.99151100  1
  O  O1  1  0.68482300  0.06741700  0.49151100  1
  O  O2  1  0.81517700  0.56741700  0.49151100  1
  O  O3  1  0.18482300  0.43258300  0.99151100  1
  O  O4  1  0.21408600  0.93027600  0.83698300  1
  O  O5  1  0.78591400  0.06972400  0.33698300  1
  O  O6  1  0.71408600  0.56972400  0.33698300  1
  O  O7  1  0.28591400  0.43027600  0.83698300  1
  O  O8  1  0.03540800  0.80347700  0.92740700  1
  O  O9  1  0.96459200  0.19652300  0.42740700  1
  O  O10  1  0.53540800  0.69652300  0.42740700  1
  O  O11  1  0.46459200  0.30347700  0.92740700  1
  O  O12  1  0.50916700  0.80660300  0.90310200  1
  O  O13  1  0.49083300  0.19339700  0.40310200  1
  O  O14  1  0.00916700  0.69339700  0.40310200  1
  O  O15  1  0.99083300  0.30660300  0.90310200  1
  O  O16  1  0.49181800  0.69017600  0.77007800  1
  O  O17  1  0.50818200  0.30982400  0.27007800  1
  O  O18  1  0.99181800  0.80982400  0.27007800  1
  O  O19  1  0.00818200  0.19017600  0.77007800  1
  O  O20  1  0.95101900  0.67899300  0.72600200  1
  O  O21  1  0.04898100  0.32100700  0.22600200  1
  O  O22  1  0.45101900  0.82100700  0.22600200  1
  O  O23  1  0.54898100  0.17899300  0.72600200  1
  O  O24  1  0.78220300  0.55964900  0.82722300  1
  O  O25  1  0.21779700  0.44035100  0.32722300  1
  O  O26  1  0.28220300  0.94035100  0.32722300  1
  O  O27  1  0.71779700  0.05964900  0.82722300  1
  O  O28  1  0.61584300  0.55838600  0.67893800  1
  O  O29  1  0.38415700  0.44161400  0.17893800  1
  O  O30  1  0.11584300  0.94161400  0.17893800  1
  O  O31  1  0.88415700  0.05838600  0.67893800  1
  O  O32  1  0.39606600  0.94755500  0.65341000  1
  O  O33  1  0.60393400  0.05244500  0.15341000  1
  O  O34  1  0.89606600  0.55244500  0.15341000  1
  O  O35  1  0.10393400  0.44755500  0.65341000  1
  O  O36  1  0.21262700  0.93767900  0.50738900  1
  O  O37  1  0.78737300  0.06232100  0.00738900  1
  O  O38  1  0.71262700  0.56232100  0.00738900  1
  O  O39  1  0.28737300  0.43767900  0.50738900  1
  O  O40  1  0.07899000  0.81861300  0.61163100  1
  O  O41  1  0.92101000  0.18138700  0.11163100  1
  O  O42  1  0.57899000  0.68138700  0.11163100  1
  O  O43  1  0.42101000  0.31861300  0.61163100  1
  O  O44  1  0.53398400  0.81587300  0.56222200  1
  O  O45  1  0.46601600  0.18412700  0.06222200  1
  O  O46  1  0.03398400  0.68412700  0.06222200  1
  O  O47  1  0.96601600  0.31587300  0.56222200  1
loop_
_geom_bond_atom_site_label_1
_geom_bond_atom_site_label_2
_geom_bond_distance
_geom_bond_site_symmetry_2
Ba0 O46 2.834335 1_556
Ba0 O16 2.839348 1_555
Ba0 O3 2.879210 1_555
Ba0 O7 2.880865 1_555
Ba0 O8 2.902089 1_555
Ba0 O38 2.963331 1_556
Ba0 O24 2.964733 1_455
Ba0 O12 3.024205 1_555
Ba0 O24 3.228809 1_555
Ba0 O38 3.326862 1_456
Ba1 O47 2.834335 1_555
Ba1 O17 2.839348 1_555
Ba1 O2 2.879210 1_555
Ba1 O6 2.880865 1_555
Ba1 O9 2.902089 1_555
Ba1 O39 2.963331 1_555
Ba1 O25 2.964733 1_655
Ba1 O13 3.024205 1_555
Ba1 O25 3.228809 1_555
Ba1 O39 3.326862 1_655
Ba2 O44 2.834335 1_555
Ba2 O18 2.839348 1_555
Ba2 O1 2.879210 1_565
Ba2 O5 2.880865 1_565
Ba2 O10 2.902089 1_555
Ba2 O36 2.963331 1_655
Ba2 O26 2.964733 1_555
Ba2 O14 3.024205 1_655
Ba2 O26 3.228809 1_655
Ba2 O36 3.326862 1_555
Ba3 O45 2.834335 1_556
Ba3 O19 2.839348 1_555
Ba3 O0 2.879210 1_545
Ba3 O4 2.880865 1_545
Ba3 O11 2.902089 1_555
Ba3 O37 2.963331 1_456
Ba3 O27 2.964733 1_555
Ba3 O15 3.024205 1_455
Ba3 O27 3.228809 1_455
Ba3 O37 3.326862 1_556
Ba4 O28 2.752189 1_555
Ba4 O2 2.795543 1_455
Ba4 O40 2.841503 1_555
Ba4 O20 2.894184 1_455
Ba4 O35 2.909152 1_555
Ba4 O39 2.947416 1_555
Ba4 O10 3.063163 1_555
Ba4 O44 3.070761 1_555
Ba4 O14 3.219458 1_555
Ba5 O29 2.752189 1_555
Ba5 O3 2.795543 1_654
Ba5 O41 2.841503 1_555
Ba5 O21 2.894184 1_655
Ba5 O34 2.909152 1_555
Ba5 O38 2.947416 1_555
Ba5 O11 3.063163 1_554
Ba5 O45 3.070761 1_555
Ba5 O15 3.219458 1_554
Ba6 O30 2.752189 1_655
Ba6 O0 2.795543 1_554
Ba6 O42 2.841503 1_555
Ba6 O22 2.894184 1_555
Ba6 O33 2.909152 1_565
Ba6 O37 2.947416 1_565
Ba6 O8 3.063163 1_654
Ba6 O46 3.070761 1_655
Ba6 O12 3.219458 1_554
Ba7 O31 2.752189 1_455
Ba7 O1 2.795543 1_555
Ba7 O43 2.841503 1_555
Ba7 O23 2.894184 1_555
Ba7 O32 2.909152 1_545
Ba7 O36 2.947416 1_545
Ba7 O9 3.063163 1_455
Ba7 O47 3.070761 1_455
Ba7 O13 3.219458 1_555
Ba8 O32 2.794896 1_555
Ba8 O4 2.802650 1_655
Ba8 O40 2.862928 1_655
Ba8 O20 2.892557 1_555
Ba8 O27 2.923915 1_565
Ba8 O31 2.928356 1_565
Ba8 O12 2.970779 1_555
Ba8 O16 2.993617 1_555
Ba8 O8 3.276626 1_655
Ba8 O4 3.401525 1_555
Ba8 O44 3.416597 1_555
Ba9 O33 2.794896 1_555
Ba9 O5 2.802650 1_455
Ba9 O41 2.862928 1_455
Ba9 O21 2.892557 1_555
Ba9 O26 2.923915 1_545
Ba9 O30 2.928356 1_545
Ba9 O13 2.970779 1_555
Ba9 O17 2.993617 1_555
Ba9 O9 3.276626 1_455
Ba9 O5 3.401525 1_555
Ba9 O45 3.416597 1_555
Ba10 O34 2.794896 1_455
Ba10 O6 2.802650 1_555
Ba10 O42 2.862928 1_555
Ba10 O22 2.892557 1_555
Ba10 O25 2.923915 1_555
Ba10 O29 2.928356 1_555
Ba10 O14 2.970779 1_555
Ba10 O18 2.993617 1_455
Ba10 O10 3.276626 1_555
Ba10 O6 3.401525 1_455
Ba10 O46 3.416597 1_555
Ba11 O35 2.794896 1_655
Ba11 O7 2.802650 1_555
Ba11 O43 2.862928 1_555
Ba11 O23 2.892557 1_555
Ba11 O24 2.923915 1_555
Ba11 O28 2.928356 1_555
Ba11 O15 2.970779 1_555
Ba11 O19 2.993617 1_655
Ba11 O11 3.276626 1_555
Ba11 O7 3.401525 1_655
Ba11 O47 3.416597 1_555
O0 P0 1.549465 1_555
O1 P1 1.549465 1_555
O2 P2 1.549465 1_555
O3 P3 1.549465 1_555
O4 P0 1.547465 1_555
O5 P1 1.547465 1_555
O6 P2 1.547465 1_555
O7 P3 1.547465 1_555
O8 P0 1.556353 1_555
O9 P1 1.556353 1_555
O10 P2 1.556353 1_555
O11 P3 1.556353 1_555
O12 P0 1.557947 1_555
O13 P1 1.557947 1_555
O14 P2 1.557947 1_455
O15 P3 1.557947 1_655
O16 P4 1.566301 1_555
O17 P5 1.566301 1_555
O18 P6 1.566301 1_655
O19 P7 1.566301 1_455
O20 P4 1.545752 1_555
O21 P5 1.545752 1_555
O22 P6 1.545752 1_555
O23 P7 1.545752 1_555
O24 P4 1.543207 1_555
O25 P5 1.543207 1_555
O26 P6 1.543207 1_555
O27 P7 1.543207 1_555
O28 P4 1.548523 1_555
O29 P5 1.548523 1_555
O30 P6 1.548523 1_555
O31 P7 1.548523 1_555
O32 P8 1.547731 1_555
O33 P9 1.547731 1_555
O34 P10 1.547731 1_555
O35 P11 1.547731 1_555
O36 P8 1.544410 1_555
O37 P9 1.544410 1_555
O38 P10 1.544410 1_555
O39 P11 1.544410 1_555
O40 P8 1.547382 1_555
O41 P9 1.547382 1_555
O42 P10 1.547382 1_555
O43 P11 1.547382 1_555
O44 P8 1.559041 1_555
O45 P9 1.559041 1_555
O46 P10 1.559041 1_455
O47 P11 1.559041 1_655
