# generated using pymatgen
data_Ho2TeO2
_symmetry_space_group_name_H-M   'P 1'
_cell_length_a   3.89467792
_cell_length_b   3.89467792
_cell_length_c   7.20659200
_cell_angle_alpha   90.00000000
_cell_angle_beta   90.00000000
_cell_angle_gamma   119.99999871
_symmetry_Int_Tables_number   1
_chemical_formula_structural   Ho2TeO2
_chemical_formula_sum   'Ho2 Te1 O2'
_cell_volume   94.66810208
_cell_formula_units_Z   1
loop_
 _symmetry_equiv_pos_site_id
 _symmetry_equiv_pos_as_xyz
  1  'x, y, z'
loop_
 _atom_site_type_symbol
 _atom_site_label
 _atom_site_symmetry_multiplicity
 _atom_site_fract_x
 _atom_site_fract_y
 _atom_site_fract_z
 _atom_site_occupancy
  Ho  Ho0  1  0.33333300  0.66666700  0.30553300  1
  Ho  Ho1  1  0.66666700  0.33333300  0.69446700  1
  Te  Te0  1  0.00000000  0.00000000  0.00000000  1
  O  O0  1  0.33333300  0.66666700  0.61946900  1
  O  O1  1  0.66666700  0.33333300  0.38053100  1
loop_
_geom_bond_atom_site_label_1
_geom_bond_atom_site_label_2
_geom_bond_distance
_geom_bond_site_symmetry_2
Ho0 O0 2.262409 1_555
Ho0 O1 2.312635 1_455
Ho0 O1 2.312635 1_565
Ho0 O1 2.312642 1_555
Ho0 Te0 3.147112 1_565
Ho0 Te0 3.147114 1_555
Ho0 Te0 3.147114 1_665
Ho1 O1 2.262409 1_555
Ho1 O0 2.312635 1_545
Ho1 O0 2.312635 1_655
Ho1 O0 2.312642 1_555
Ho1 Te0 3.147112 1_656
Ho1 Te0 3.147114 1_666
Ho1 Te0 3.147114 1_556
