# generated using pymatgen
data_Mn3VO8
_symmetry_space_group_name_H-M   'P 1'
_cell_length_a   5.87926095
_cell_length_b   5.87926095
_cell_length_c   5.87926100
_cell_angle_alpha   59.87878558
_cell_angle_beta   59.87878558
_cell_angle_gamma   59.87878622
_symmetry_Int_Tables_number   1
_chemical_formula_structural   Mn3VO8
_chemical_formula_sum   'Mn3 V1 O8'
_cell_volume   143.30360725
_cell_formula_units_Z   1
loop_
 _symmetry_equiv_pos_site_id
 _symmetry_equiv_pos_as_xyz
  1  'x, y, z'
loop_
 _atom_site_type_symbol
 _atom_site_label
 _atom_site_symmetry_multiplicity
 _atom_site_fract_x
 _atom_site_fract_y
 _atom_site_fract_z
 _atom_site_occupancy
  Mn  Mn0  1  0.50000000  0.00000000  0.50000000  1
  Mn  Mn1  1  0.00000000  0.50000000  0.50000000  1
  Mn  Mn2  1  0.50000000  0.50000000  0.00000000  1
  V  V0  1  0.00000000  0.00000000  0.00000000  1
  O  O0  1  0.73299800  0.73299800  0.73299800  1
  O  O1  1  0.23466800  0.72829900  0.23466800  1
  O  O2  1  0.72829900  0.23466800  0.23466800  1
  O  O3  1  0.26700200  0.26700200  0.26700200  1
  O  O4  1  0.23466800  0.23466800  0.72829900  1
  O  O5  1  0.76533200  0.27170100  0.76533200  1
  O  O6  1  0.27170100  0.76533200  0.76533200  1
  O  O7  1  0.76533200  0.76533200  0.27170100  1
loop_
_geom_bond_atom_site_label_1
_geom_bond_atom_site_label_2
_geom_bond_distance
_geom_bond_site_symmetry_2
Mn0 O2 1.932761 1_555
Mn0 O6 1.932761 1_545
Mn0 O4 1.932761 1_555
Mn0 O7 1.932761 1_545
Mn0 O0 1.945277 1_545
Mn0 O3 1.945277 1_555
Mn1 O1 1.932761 1_555
Mn1 O5 1.932761 1_455
Mn1 O4 1.932761 1_555
Mn1 O7 1.932761 1_455
Mn1 O0 1.945277 1_455
Mn1 O3 1.945277 1_555
Mn2 O1 1.932761 1_555
Mn2 O2 1.932761 1_555
Mn2 O5 1.932761 1_554
Mn2 O6 1.932761 1_554
Mn2 O0 1.945277 1_554
Mn2 O3 1.945277 1_555
O1 V0 1.960928 1_565
O2 V0 1.960928 1_655
O4 V0 1.960928 1_556
O5 V0 1.960928 1_656
O6 V0 1.960928 1_566
O7 V0 1.960928 1_665
