# generated using pymatgen
data_SbH6C(NCl2)3
_symmetry_space_group_name_H-M   'P 1'
_cell_length_a   8.20586000
_cell_length_b   11.97727600
_cell_length_c   13.34304147
_cell_angle_alpha   74.23568759
_cell_angle_beta   90.00000000
_cell_angle_gamma   90.00000000
_symmetry_Int_Tables_number   1
_chemical_formula_structural   SbH6C(NCl2)3
_chemical_formula_sum   'Sb4 H24 C4 N12 Cl24'
_cell_volume   1262.08011800
_cell_formula_units_Z   4
loop_
 _symmetry_equiv_pos_site_id
 _symmetry_equiv_pos_as_xyz
  1  'x, y, z'
loop_
 _atom_site_type_symbol
 _atom_site_label
 _atom_site_symmetry_multiplicity
 _atom_site_fract_x
 _atom_site_fract_y
 _atom_site_fract_z
 _atom_site_occupancy
  Sb  Sb0  1  0.50000000  0.50000000  0.00000000  1
  Sb  Sb1  1  0.00000000  0.00000000  0.00000000  1
  Sb  Sb2  1  0.00000000  0.50000000  0.50000000  1
  Sb  Sb3  1  0.50000000  0.00000000  0.50000000  1
  H  H0  1  0.31127400  0.76771500  0.14690600  1
  H  H1  1  0.81127400  0.73228500  0.85309400  1
  H  H2  1  0.68872600  0.23228500  0.85309400  1
  H  H3  1  0.18872600  0.26771500  0.14690600  1
  H  H4  1  0.23573600  0.69115800  0.26761800  1
  H  H5  1  0.73573600  0.80884200  0.73238200  1
  H  H6  1  0.76426400  0.30884200  0.73238200  1
  H  H7  1  0.26426400  0.19115800  0.26761800  1
  H  H8  1  0.60961900  0.68310200  0.40139100  1
  H  H9  1  0.10961900  0.81689800  0.59860900  1
  H  H10  1  0.39038100  0.31689800  0.59860900  1
  H  H11  1  0.89038100  0.18310200  0.40139100  1
  H  H12  1  0.40380900  0.64940700  0.41455100  1
  H  H13  1  0.90380900  0.85059300  0.58544900  1
  H  H14  1  0.59619100  0.35059300  0.58544900  1
  H  H15  1  0.09619100  0.14940700  0.41455100  1
  H  H16  1  0.72152500  0.76492900  0.23216300  1
  H  H17  1  0.22152500  0.73507100  0.76783700  1
  H  H18  1  0.27847500  0.23507100  0.76783700  1
  H  H19  1  0.77847500  0.26492900  0.23216300  1
  H  H20  1  0.59327700  0.81082200  0.12736100  1
  H  H21  1  0.09327700  0.68917800  0.87263900  1
  H  H22  1  0.40672300  0.18917800  0.87263900  1
  H  H23  1  0.90672300  0.31082200  0.12736100  1
  C  C0  1  0.47957400  0.72949500  0.26501100  1
  C  C1  1  0.97957400  0.77050500  0.73498900  1
  C  C2  1  0.52042600  0.27050500  0.73498900  1
  C  C3  1  0.02042600  0.22949500  0.26501100  1
  N  N0  1  0.50013500  0.68052400  0.36719300  1
  N  N1  1  0.00013500  0.81947600  0.63280700  1
  N  N2  1  0.49986500  0.31947600  0.63280700  1
  N  N3  1  0.99986500  0.18052400  0.36719300  1
  N  N4  1  0.33208700  0.72904500  0.22325400  1
  N  N5  1  0.83208700  0.77095500  0.77674600  1
  N  N6  1  0.66791300  0.27095500  0.77674600  1
  N  N7  1  0.16791300  0.22904500  0.22325400  1
  N  N8  1  0.60514500  0.77976200  0.20592900  1
  N  N9  1  0.10514500  0.72023800  0.79407100  1
  N  N10  1  0.39485500  0.22023800  0.79407100  1
  N  N11  1  0.89485500  0.27976200  0.20592900  1
  Cl  Cl0  1  0.50232300  0.71032300  0.96488000  1
  Cl  Cl1  1  0.00232300  0.78967700  0.03512000  1
  Cl  Cl2  1  0.49767700  0.28967700  0.03512000  1
  Cl  Cl3  1  0.99767700  0.21032300  0.96488000  1
  Cl  Cl4  1  0.20841200  0.49968300  0.02719500  1
  Cl  Cl5  1  0.70841200  0.00031700  0.97280500  1
  Cl  Cl6  1  0.79158800  0.50031700  0.97280500  1
  Cl  Cl7  1  0.29158800  0.99968300  0.02719500  1
  Cl  Cl8  1  0.45726700  0.52312900  0.81748700  1
  Cl  Cl9  1  0.95726700  0.97687100  0.18251300  1
  Cl  Cl10  1  0.54273300  0.47687100  0.18251300  1
  Cl  Cl11  1  0.04273300  0.02312900  0.81748700  1
  Cl  Cl12  1  0.98063900  0.69273700  0.37970300  1
  Cl  Cl13  1  0.48063900  0.80726300  0.62029700  1
  Cl  Cl14  1  0.01936100  0.30726300  0.62029700  1
  Cl  Cl15  1  0.51936100  0.19273700  0.37970300  1
  Cl  Cl16  1  0.19988800  0.44668900  0.38909000  1
  Cl  Cl17  1  0.69988800  0.05331100  0.61091000  1
  Cl  Cl18  1  0.80011200  0.55331100  0.61091000  1
  Cl  Cl19  1  0.30011200  0.94668900  0.38909000  1
  Cl  Cl20  1  0.78148200  0.43315800  0.41066900  1
  Cl  Cl21  1  0.28148200  0.06684200  0.58933100  1
  Cl  Cl22  1  0.21851800  0.56684200  0.58933100  1
  Cl  Cl23  1  0.71851800  0.93315800  0.41066900  1
loop_
_geom_bond_atom_site_label_1
_geom_bond_atom_site_label_2
_geom_bond_distance
_geom_bond_site_symmetry_2
H0 N4 1.012469 1_555
H1 N5 1.012469 1_555
H2 N6 1.012469 1_555
H3 N7 1.012469 1_555
H4 N4 1.017588 1_555
H5 N5 1.017588 1_555
H6 N6 1.017588 1_555
H7 N7 1.017588 1_555
H8 N0 1.011912 1_555
H9 N1 1.011912 1_555
H10 N2 1.011912 1_555
H11 N3 1.011912 1_555
H12 N0 1.017363 1_555
H13 N1 1.017363 1_655
H14 N2 1.017363 1_555
H15 N3 1.017363 1_455
H16 N8 1.016033 1_555
H17 N9 1.016033 1_555
H18 N10 1.016033 1_555
H19 N11 1.016033 1_555
H20 N8 1.017339 1_555
H21 N9 1.017339 1_555
H22 N10 1.017339 1_555
H23 N11 1.017339 1_555
C0 N4 1.332973 1_555
C0 N8 1.337092 1_555
C0 N0 1.340477 1_555
C1 N5 1.332973 1_555
C1 N9 1.337092 1_655
C1 N1 1.340477 1_655
C2 N6 1.332973 1_555
C2 N10 1.337092 1_555
C2 N2 1.340477 1_555
C3 N7 1.332973 1_555
C3 N11 1.337092 1_455
C3 N3 1.340477 1_455
Cl0 Sb0 2.434006 1_556
Cl1 Sb1 2.434006 1_565
Cl2 Sb0 2.434006 1_555
Cl3 Sb1 2.434006 1_656
Cl4 Sb0 2.419937 1_555
Cl5 Sb1 2.419937 1_656
Cl6 Sb0 2.419937 1_556
Cl7 Sb1 2.419937 1_565
Cl8 Sb0 2.400775 1_556
Cl9 Sb1 2.400775 1_665
Cl10 Sb0 2.400775 1_555
Cl11 Sb1 2.400775 1_556
Cl12 Sb2 2.432555 1_655
Cl13 Sb3 2.432555 1_565
Cl14 Sb2 2.432555 1_555
Cl15 Sb3 2.432555 1_555
Cl16 Sb2 2.408654 1_555
Cl17 Sb3 2.408654 1_555
Cl18 Sb2 2.408654 1_655
Cl19 Sb3 2.408654 1_565
Cl20 Sb2 2.407382 1_655
Cl21 Sb3 2.407382 1_555
Cl22 Sb2 2.407382 1_555
Cl23 Sb3 2.407382 1_565
