# generated using pymatgen
data_Li3Fe2F7
_symmetry_space_group_name_H-M   'P 1'
_cell_length_a   5.93479207
_cell_length_b   5.93479207
_cell_length_c   10.33745398
_cell_angle_alpha   80.11631903
_cell_angle_beta   80.11631903
_cell_angle_gamma   51.20815583
_symmetry_Int_Tables_number   1
_chemical_formula_structural   Li3Fe2F7
_chemical_formula_sum   'Li6 Fe4 F14'
_cell_volume   278.60379794
_cell_formula_units_Z   2
loop_
 _symmetry_equiv_pos_site_id
 _symmetry_equiv_pos_as_xyz
  1  'x, y, z'
loop_
 _atom_site_type_symbol
 _atom_site_label
 _atom_site_symmetry_multiplicity
 _atom_site_fract_x
 _atom_site_fract_y
 _atom_site_fract_z
 _atom_site_occupancy
  Li  Li0  1  0.30929200  0.80549000  0.86706100  1
  Li  Li1  1  0.80549000  0.30929200  0.36706100  1
  Li  Li2  1  0.50000000  0.00000000  0.50000000  1
  Li  Li3  1  0.00000000  0.50000000  0.00000000  1
  Li  Li4  1  0.19451000  0.69070800  0.63293900  1
  Li  Li5  1  0.69070800  0.19451000  0.13293900  1
  Fe  Fe0  1  0.91338200  0.42034600  0.65493700  1
  Fe  Fe1  1  0.42034600  0.91338200  0.15493700  1
  Fe  Fe2  1  0.57965400  0.08661800  0.84506300  1
  Fe  Fe3  1  0.08661800  0.57965400  0.34506300  1
  F  F0  1  0.58624000  0.73068000  0.96903200  1
  F  F1  1  0.17143600  0.23648000  0.82162900  1
  F  F2  1  0.16592500  0.01947500  0.60240300  1
  F  F3  1  0.73068000  0.58624000  0.46903200  1
  F  F4  1  0.23648000  0.17143600  0.32162900  1
  F  F5  1  0.01947500  0.16592500  0.10240300  1
  F  F6  1  0.98052500  0.83407500  0.89759700  1
  F  F7  1  0.76352000  0.82856300  0.67837100  1
  F  F8  1  0.26932000  0.41376000  0.53096800  1
  F  F9  1  0.83407500  0.98052500  0.39759700  1
  F  F10  1  0.53313300  0.46686700  0.75000000  1
  F  F11  1  0.82856400  0.76352000  0.17837100  1
  F  F12  1  0.41376000  0.26932000  0.03096800  1
  F  F13  1  0.46686700  0.53313300  0.25000000  1
loop_
_geom_bond_atom_site_label_1
_geom_bond_atom_site_label_2
_geom_bond_distance
_geom_bond_site_symmetry_2
F0 Li0 1.878716 1_555
F0 Li3 1.978324 1_656
F0 Fe1 2.136934 1_556
F0 Fe2 2.256222 1_565
F1 Fe2 2.036368 1_555
F1 Li0 2.128348 1_545
F1 Fe0 2.161487 1_455
F1 Li3 2.287625 1_556
F2 Li4 1.824187 1_545
F2 Fe0 1.974241 1_455
F2 Li2 2.024668 1_555
F3 Li1 1.878716 1_555
F3 Li2 1.978324 1_565
F3 Fe0 2.136934 1_555
F3 Fe3 2.256222 1_655
F4 Fe3 2.036368 1_555
F4 Li1 2.128348 1_455
F4 Fe1 2.161487 1_545
F4 Li2 2.287625 1_555
F5 Li5 1.824187 1_455
F5 Fe1 1.974241 1_545
F5 Li3 2.024668 1_555
F6 Li0 1.824187 1_655
F6 Fe2 1.974241 1_565
F6 Li3 2.024668 1_656
F7 Fe0 2.036362 1_555
F7 Li4 2.128350 1_655
F7 Fe2 2.161490 1_565
F7 Li2 2.287624 1_565
F8 Li4 1.878716 1_555
F8 Li2 1.978324 1_555
F8 Fe3 2.136934 1_555
F8 Fe0 2.256222 1_455
F9 Li1 1.824187 1_565
F9 Fe3 1.974241 1_655
F9 Li2 2.024668 1_565
F10 Li4 2.050789 1_555
F10 Li0 2.050789 1_555
F10 Fe2 2.164664 1_555
F10 Fe0 2.164664 1_555
F11 Fe1 2.036368 1_555
F11 Li5 2.128348 1_565
F11 Fe3 2.161487 1_655
F11 Li3 2.287625 1_655
F12 Li5 1.878716 1_555
F12 Li3 1.978324 1_555
F12 Fe2 2.136934 1_554
F12 Fe1 2.256222 1_545
F13 Li5 2.050789 1_555
F13 Li1 2.050789 1_555
F13 Fe3 2.164664 1_555
F13 Fe1 2.164664 1_555
