# generated using pymatgen
data_LiFePO4
_symmetry_space_group_name_H-M   'P 1'
_cell_length_a   5.70060300
_cell_length_b   5.85886400
_cell_length_c   8.06793300
_cell_angle_alpha   89.99956470
_cell_angle_beta   90.00005856
_cell_angle_gamma   89.99954391
_symmetry_Int_Tables_number   1
_chemical_formula_structural   LiFePO4
_chemical_formula_sum   'Li4 Fe4 P4 O16'
_cell_volume   269.46135974
_cell_formula_units_Z   4
loop_
 _symmetry_equiv_pos_site_id
 _symmetry_equiv_pos_as_xyz
  1  'x, y, z'
loop_
 _atom_site_type_symbol
 _atom_site_label
 _atom_site_symmetry_multiplicity
 _atom_site_fract_x
 _atom_site_fract_y
 _atom_site_fract_z
 _atom_site_occupancy
  Li  Li0  1  0.00000800  0.99995300  0.99998900  1
  Li  Li1  1  0.50001500  0.50000500  0.49998300  1
  Li  Li2  1  0.50000400  0.99995100  0.99999000  1
  Li  Li3  1  0.99999300  0.50000200  0.49999000  1
  Fe  Fe0  1  0.75001600  0.75005800  0.74986600  1
  Fe  Fe1  1  0.24985800  0.75016100  0.25010800  1
  Fe  Fe2  1  0.25005300  0.25004000  0.25015000  1
  Fe  Fe3  1  0.75000100  0.25008400  0.75002800  1
  P  P0  1  0.75000500  0.49997300  0.12103600  1
  P  P1  1  0.24999900  0.99999700  0.62103900  1
  P  P2  1  0.75000000  0.00000200  0.37896400  1
  P  P3  1  0.25000300  0.49996400  0.87896700  1
  O  O0  1  0.75000300  0.77948700  0.48675800  1
  O  O1  1  0.25000800  0.27947900  0.98678800  1
  O  O2  1  0.75000600  0.27948900  0.01322000  1
  O  O3  1  0.25000300  0.77950100  0.51323000  1
  O  O4  1  0.75000300  0.22049000  0.48680100  1
  O  O5  1  0.25000600  0.72047800  0.98676100  1
  O  O6  1  0.75000700  0.72046800  0.01322100  1
  O  O7  1  0.25000400  0.22048200  0.51319600  1
  O  O8  1  0.97300400  0.49997500  0.23725900  1
  O  O9  1  0.47299800  0.00000300  0.73725800  1
  O  O10  1  0.52700000  0.49998400  0.23726100  1
  O  O11  1  0.02700300  0.00000900  0.73725800  1
  O  O12  1  0.52701900  0.00000500  0.26272100  1
  O  O13  1  0.02702100  0.49997600  0.76271900  1
  O  O14  1  0.97297500  0.00001000  0.26272200  1
  O  O15  1  0.47298700  0.49997500  0.76271900  1
loop_
_geom_bond_atom_site_label_1
_geom_bond_atom_site_label_2
_geom_bond_distance
_geom_bond_site_symmetry_2
Li0 O11 2.125275 1_565
Li0 O14 2.125307 1_466
Li0 O5 2.173356 1_555
Li0 O6 2.173429 1_456
Li0 O1 2.173594 1_565
Li0 O2 2.173641 1_466
Li1 O10 2.125198 1_555
Li1 O15 2.125329 1_555
Li1 O0 2.173364 1_555
Li1 O4 2.173477 1_555
Li1 O3 2.173509 1_555
Li1 O7 2.173626 1_555
Li2 O12 2.125283 1_566
Li2 O9 2.125287 1_565
Li2 O5 2.173364 1_555
Li2 O6 2.173410 1_556
Li2 O1 2.173571 1_565
Li2 O2 2.173667 1_566
Li3 O8 2.125272 1_555
Li3 O13 2.125272 1_655
Li3 O0 2.173370 1_555
Li3 O4 2.173491 1_555
Li3 O3 2.173528 1_655
Li3 O7 2.173593 1_655
Fe0 O0 2.129727 1_555
Fe0 O6 2.131790 1_556
Fe0 O11 2.155957 1_665
Fe0 O9 2.156046 1_565
Fe0 O13 2.156631 1_655
Fe0 O15 2.156752 1_555
Fe1 O3 2.129801 1_555
Fe1 O5 2.131773 1_554
Fe1 O14 2.155104 1_465
Fe1 O12 2.156261 1_565
Fe1 O8 2.156431 1_455
Fe1 O10 2.157580 1_555
Fe2 O7 2.129290 1_555
Fe2 O1 2.131775 1_554
Fe2 O10 2.155871 1_555
Fe2 O12 2.156173 1_555
Fe2 O8 2.156244 1_455
Fe2 O14 2.156638 1_455
Fe3 O2 2.130394 1_556
Fe3 O4 2.130765 1_555
Fe3 O15 2.155847 1_555
Fe3 O13 2.155893 1_655
Fe3 O11 2.156560 1_655
Fe3 O9 2.156605 1_555
O0 P2 1.557401 1_565
O1 P3 1.557377 1_555
O2 P0 1.557360 1_555
O3 P1 1.557387 1_555
O4 P2 1.557474 1_555
O5 P3 1.557407 1_555
O6 P0 1.557398 1_555
O7 P1 1.557476 1_545
O8 P0 1.579640 1_555
O9 P1 1.579621 1_545
O10 P0 1.579679 1_555
O11 P1 1.579609 1_545
O12 P2 1.579653 1_555
O13 P3 1.579682 1_555
O14 P2 1.579623 1_555
O15 P3 1.579693 1_555
