# generated using pymatgen
data_Li3Al2VO6
_symmetry_space_group_name_H-M   'P 1'
_cell_length_a   10.19681000
_cell_length_b   5.88392600
_cell_length_c   9.99008722
_cell_angle_alpha   54.98331121
_cell_angle_beta   90.00000000
_cell_angle_gamma   90.00000000
_symmetry_Int_Tables_number   1
_chemical_formula_structural   Li3Al2VO6
_chemical_formula_sum   'Li12 Al8 V4 O24'
_cell_volume   490.88156868
_cell_formula_units_Z   4
loop_
 _symmetry_equiv_pos_site_id
 _symmetry_equiv_pos_as_xyz
  1  'x, y, z'
loop_
 _atom_site_type_symbol
 _atom_site_label
 _atom_site_symmetry_multiplicity
 _atom_site_fract_x
 _atom_site_fract_y
 _atom_site_fract_z
 _atom_site_occupancy
  Li  Li0  1  0.50513300  0.20253600  0.14027800  1
  Li  Li1  1  0.84440100  0.19399600  0.12316900  1
  Li  Li2  1  0.50136500  0.74059300  0.61362800  1
  Li  Li3  1  0.34440100  0.80600400  0.37683100  1
  Li  Li4  1  0.00136500  0.25940700  0.88637200  1
  Li  Li5  1  0.00513300  0.79746400  0.35972200  1
  Li  Li6  1  0.99486700  0.20253600  0.64027800  1
  Li  Li7  1  0.99863500  0.74059300  0.11362800  1
  Li  Li8  1  0.65559900  0.19399600  0.62316900  1
  Li  Li9  1  0.49863500  0.25940700  0.38637200  1
  Li  Li10  1  0.15559900  0.80600400  0.87683100  1
  Li  Li11  1  0.49486700  0.79746400  0.85972200  1
  Al  Al0  1  0.16517100  0.21196300  0.12194100  1
  Al  Al1  1  0.83650100  0.70130200  0.62616500  1
  Al  Al2  1  0.66517100  0.78803700  0.37805900  1
  Al  Al3  1  0.33650100  0.29869800  0.87383500  1
  Al  Al4  1  0.66349900  0.70130200  0.12616500  1
  Al  Al5  1  0.33482900  0.21196300  0.62194100  1
  Al  Al6  1  0.16349900  0.29869800  0.37383500  1
  Al  Al7  1  0.83482900  0.78803700  0.87805900  1
  V  V0  1  0.16386400  0.71312200  0.62601900  1
  V  V1  1  0.66386400  0.28687800  0.87398100  1
  V  V2  1  0.33613600  0.71312200  0.12601900  1
  V  V3  1  0.83613600  0.28687800  0.37398100  1
  O  O0  1  0.17151600  0.99502900  0.36844500  1
  O  O1  1  0.82011100  0.49008600  0.86168600  1
  O  O2  1  0.51741900  0.93592400  0.37721500  1
  O  O3  1  0.49554000  0.43312900  0.87176400  1
  O  O4  1  0.18737900  0.45870900  0.88217700  1
  O  O5  1  0.82197000  0.93979500  0.38851600  1
  O  O6  1  0.32197000  0.06020500  0.11148400  1
  O  O7  1  0.68737900  0.54129100  0.61782300  1
  O  O8  1  0.99554000  0.56687100  0.62823600  1
  O  O9  1  0.01741900  0.06407600  0.12278500  1
  O  O10  1  0.67151600  0.00497100  0.13155500  1
  O  O11  1  0.32011100  0.50991400  0.63831400  1
  O  O12  1  0.67988900  0.49008600  0.36168600  1
  O  O13  1  0.32848400  0.99502900  0.86844500  1
  O  O14  1  0.98258100  0.93592400  0.87721500  1
  O  O15  1  0.00446000  0.43312900  0.37176400  1
  O  O16  1  0.31262100  0.45870900  0.38217700  1
  O  O17  1  0.67803000  0.93979500  0.88851600  1
  O  O18  1  0.17803000  0.06020500  0.61148400  1
  O  O19  1  0.81262100  0.54129100  0.11782300  1
  O  O20  1  0.50446000  0.56687100  0.12823600  1
  O  O21  1  0.48258100  0.06407600  0.62278500  1
  O  O22  1  0.17988900  0.50991400  0.13831400  1
  O  O23  1  0.82848400  0.00497100  0.63155500  1
loop_
_geom_bond_atom_site_label_1
_geom_bond_atom_site_label_2
_geom_bond_distance
_geom_bond_site_symmetry_2
Li0 O2 1.953969 1_545
Li0 O20 2.077039 1_555
Li0 O10 2.086511 1_555
Li0 O6 2.132787 1_555
Li0 O3 2.206642 1_554
Li1 O9 1.923606 1_655
Li1 O19 2.039200 1_555
Li1 O10 2.060297 1_555
Li1 O1 2.167364 1_554
Li1 O5 2.183161 1_545
Li2 O2 1.952073 1_555
Li2 O21 1.966626 1_565
Li2 O3 2.138348 1_555
Li2 O7 2.217699 1_555
Li2 O11 2.221446 1_555
Li3 O2 1.923606 1_555
Li3 O16 2.039200 1_555
Li3 O0 2.060297 1_555
Li3 O11 2.167364 1_555
Li3 O6 2.183161 1_565
Li4 O9 1.952073 1_556
Li4 O14 1.966626 1_445
Li4 O8 2.138348 1_455
Li4 O4 2.217699 1_555
Li4 O1 2.221446 1_455
Li5 O9 1.953969 1_565
Li5 O15 2.077039 1_555
Li5 O0 2.086511 1_555
Li5 O5 2.132787 1_455
Li5 O8 2.206642 1_455
Li6 O14 1.953969 1_545
Li6 O8 2.077039 1_555
Li6 O23 2.086511 1_555
Li6 O18 2.132787 1_655
Li6 O15 2.206642 1_655
Li7 O14 1.952073 1_554
Li7 O9 1.966626 1_665
Li7 O15 2.138348 1_655
Li7 O19 2.217699 1_555
Li7 O22 2.221446 1_655
Li8 O21 1.923606 1_555
Li8 O7 2.039200 1_555
Li8 O23 2.060297 1_555
Li8 O12 2.167364 1_555
Li8 O17 2.183161 1_545
Li9 O21 1.952073 1_555
Li9 O2 1.966626 1_545
Li9 O20 2.138348 1_555
Li9 O16 2.217699 1_555
Li9 O12 2.221446 1_555
Li10 O14 1.923606 1_455
Li10 O4 2.039200 1_555
Li10 O13 2.060297 1_555
Li10 O22 2.167364 1_556
Li10 O18 2.183161 1_565
Li11 O21 1.953969 1_565
Li11 O3 2.077039 1_555
Li11 O13 2.086511 1_555
Li11 O17 2.132787 1_555
Li11 O20 2.206642 1_556
Al0 O9 1.737430 1_555
Al0 O22 1.857902 1_555
Al0 O6 1.863227 1_555
Al0 O4 1.976228 1_554
Al0 O0 2.022489 1_545
Al1 O8 1.799216 1_555
Al1 O7 1.815359 1_555
Al1 O23 1.820036 1_565
Al1 O1 1.937179 1_555
Al1 O5 1.950448 1_555
Al2 O2 1.737430 1_555
Al2 O12 1.857902 1_555
Al2 O5 1.863227 1_555
Al2 O7 1.976228 1_555
Al2 O10 2.022489 1_565
Al3 O3 1.799216 1_555
Al3 O4 1.815359 1_555
Al3 O13 1.820036 1_545
Al3 O11 1.937179 1_555
Al3 O6 1.950448 1_556
Al4 O20 1.799216 1_555
Al4 O19 1.815359 1_555
Al4 O10 1.820036 1_565
Al4 O12 1.937179 1_555
Al4 O17 1.950448 1_554
Al5 O21 1.737430 1_555
Al5 O11 1.857902 1_555
Al5 O18 1.863227 1_555
Al5 O16 1.976228 1_555
Al5 O13 2.022489 1_545
Al6 O15 1.799216 1_555
Al6 O16 1.815359 1_555
Al6 O0 1.820036 1_545
Al6 O22 1.937179 1_555
Al6 O18 1.950448 1_555
Al7 O14 1.737430 1_555
Al7 O1 1.857902 1_555
Al7 O17 1.863227 1_555
Al7 O19 1.976228 1_556
Al7 O23 2.022489 1_565
O0 V0 2.116700 1_555
O1 V1 1.953075 1_555
O3 V1 1.914432 1_555
O4 V0 2.109680 1_555
O5 V3 1.967805 1_565
O6 V2 1.967805 1_545
O7 V1 2.109680 1_555
O8 V0 1.914432 1_655
O10 V1 2.116700 1_554
O11 V0 1.953075 1_555
O12 V3 1.953075 1_555
O13 V2 2.116700 1_556
O15 V3 1.914432 1_455
O16 V2 2.109680 1_555
O17 V1 1.967805 1_565
O18 V0 1.967805 1_545
O19 V3 2.109680 1_555
O20 V2 1.914432 1_555
O22 V2 1.953075 1_555
O23 V3 2.116700 1_555
