# generated using pymatgen
data_CaH8(NO5)2
_symmetry_space_group_name_H-M   'P 1'
_cell_length_a   9.21019300
_cell_length_b   6.44824200
_cell_length_c   15.20230138
_cell_angle_alpha   74.26021450
_cell_angle_beta   90.00000000
_cell_angle_gamma   90.00000000
_symmetry_Int_Tables_number   1
_chemical_formula_structural   CaH8(NO5)2
_chemical_formula_sum   'Ca4 H32 N8 O40'
_cell_volume   869.00397951
_cell_formula_units_Z   4
loop_
 _symmetry_equiv_pos_site_id
 _symmetry_equiv_pos_as_xyz
  1  'x, y, z'
loop_
 _atom_site_type_symbol
 _atom_site_label
 _atom_site_symmetry_multiplicity
 _atom_site_fract_x
 _atom_site_fract_y
 _atom_site_fract_z
 _atom_site_occupancy
  Ca  Ca0  1  0.58582000  0.67774200  0.86582400  1
  Ca  Ca1  1  0.91418000  0.67774200  0.36582400  1
  Ca  Ca2  1  0.41418000  0.32225800  0.13417600  1
  Ca  Ca3  1  0.08582000  0.32225800  0.63417600  1
  H  H0  1  0.88664400  0.38664300  0.23957600  1
  H  H1  1  0.61335600  0.38664300  0.73957600  1
  H  H2  1  0.11335600  0.61335700  0.76042400  1
  H  H3  1  0.38664400  0.61335700  0.26042400  1
  H  H4  1  0.55398900  0.57310200  0.25289700  1
  H  H5  1  0.94601100  0.57310200  0.75289700  1
  H  H6  1  0.44601100  0.42689800  0.74710300  1
  H  H7  1  0.05398900  0.42689800  0.24710300  1
  H  H8  1  0.84884000  0.03300300  0.59140200  1
  H  H9  1  0.65116000  0.03300300  0.09140200  1
  H  H10  1  0.15116000  0.96699700  0.40859800  1
  H  H11  1  0.34884000  0.96699700  0.90859800  1
  H  H12  1  0.99833400  0.93474300  0.57501300  1
  H  H13  1  0.50166600  0.93474300  0.07501300  1
  H  H14  1  0.00166600  0.06525700  0.42498700  1
  H  H15  1  0.49833400  0.06525700  0.92498700  1
  H  H16  1  0.86326700  0.95389600  0.85697800  1
  H  H17  1  0.63673300  0.95389600  0.35697800  1
  H  H18  1  0.13673300  0.04610400  0.14302200  1
  H  H19  1  0.36326700  0.04610400  0.64302200  1
  H  H20  1  0.81831400  0.84766700  0.95891400  1
  H  H21  1  0.68168600  0.84766700  0.45891400  1
  H  H22  1  0.18168600  0.15233300  0.04108600  1
  H  H23  1  0.31831400  0.15233300  0.54108600  1
  H  H24  1  0.71531200  0.27309900  0.38779300  1
  H  H25  1  0.78468800  0.27309900  0.88779300  1
  H  H26  1  0.28468800  0.72690100  0.61220700  1
  H  H27  1  0.21531200  0.72690100  0.11220700  1
  H  H28  1  0.63015200  0.43358300  0.42988300  1
  H  H29  1  0.86984800  0.43358300  0.92988300  1
  H  H30  1  0.36984800  0.56641700  0.57011700  1
  H  H31  1  0.13015200  0.56641700  0.07011700  1
  N  N0  1  0.73388200  0.48510600  0.09070100  1
  N  N1  1  0.76611800  0.48510600  0.59070100  1
  N  N2  1  0.26611800  0.51489400  0.90929900  1
  N  N3  1  0.23388200  0.51489400  0.40929900  1
  N  N4  1  0.62723600  0.92461400  0.67309500  1
  N  N5  1  0.87276400  0.92461400  0.17309500  1
  N  N6  1  0.37276400  0.07538600  0.32690500  1
  N  N7  1  0.12723600  0.07538600  0.82690500  1
  O  O0  1  0.71836200  0.35897400  0.16993000  1
  O  O1  1  0.78163800  0.35897400  0.66993000  1
  O  O2  1  0.28163800  0.64102600  0.83007000  1
  O  O3  1  0.21836200  0.64102600  0.33007000  1
  O  O4  1  0.61925300  0.54160400  0.04179100  1
  O  O5  1  0.88074700  0.54160400  0.54179100  1
  O  O6  1  0.38074700  0.45839600  0.95820900  1
  O  O7  1  0.11925300  0.45839600  0.45820900  1
  O  O8  1  0.85626400  0.55414600  0.05999800  1
  O  O9  1  0.64373600  0.55414600  0.55999800  1
  O  O10  1  0.14373600  0.44585400  0.94000200  1
  O  O11  1  0.35626400  0.44585400  0.44000200  1
  O  O12  1  0.72823900  0.81302600  0.71960600  1
  O  O13  1  0.77176100  0.81302600  0.21960600  1
  O  O14  1  0.27176100  0.18697400  0.28039400  1
  O  O15  1  0.22823900  0.18697400  0.78039400  1
  O  O16  1  0.64408400  0.02002900  0.59028800  1
  O  O17  1  0.85591600  0.02002900  0.09028800  1
  O  O18  1  0.35591600  0.97997100  0.40971200  1
  O  O19  1  0.14408400  0.97997100  0.90971200  1
  O  O20  1  0.50707300  0.93638600  0.71429400  1
  O  O21  1  0.99292700  0.93638600  0.21429400  1
  O  O22  1  0.49292700  0.06361400  0.28570600  1
  O  O23  1  0.00707300  0.06361400  0.78570600  1
  O  O24  1  0.96232600  0.41515700  0.28069900  1
  O  O25  1  0.53767400  0.41515700  0.78069900  1
  O  O26  1  0.03767400  0.58484300  0.71930100  1
  O  O27  1  0.46232600  0.58484300  0.21930100  1
  O  O28  1  0.95101000  0.07026100  0.57528300  1
  O  O29  1  0.54899000  0.07026100  0.07528300  1
  O  O30  1  0.04899000  0.92973900  0.42471700  1
  O  O31  1  0.45101000  0.92973900  0.92471700  1
  O  O32  1  0.77780700  0.92033800  0.89878200  1
  O  O33  1  0.72219300  0.92033800  0.39878200  1
  O  O34  1  0.22219300  0.07966200  0.10121800  1
  O  O35  1  0.27780700  0.07966200  0.60121800  1
  O  O36  1  0.70083200  0.42693400  0.38275700  1
  O  O37  1  0.79916800  0.42693400  0.88275700  1
  O  O38  1  0.29916800  0.57306600  0.61724300  1
  O  O39  1  0.20083200  0.57306600  0.11724300  1
loop_
_geom_bond_atom_site_label_1
_geom_bond_atom_site_label_2
_geom_bond_distance
_geom_bond_site_symmetry_2
Ca0 O31 2.402693 1_555
Ca0 O25 2.434560 1_555
Ca0 O32 2.500005 1_555
Ca0 O37 2.513383 1_555
Ca0 O12 2.524003 1_555
Ca0 O6 2.542189 1_555
Ca0 O20 2.555341 1_555
Ca0 O4 2.597605 1_556
Ca0 O2 2.875783 1_555
Ca1 O30 2.402693 1_655
Ca1 O24 2.434560 1_555
Ca1 O33 2.500005 1_555
Ca1 O36 2.513383 1_555
Ca1 O13 2.524003 1_555
Ca1 O7 2.542189 1_655
Ca1 O21 2.555341 1_555
Ca1 O5 2.597605 1_555
Ca1 O3 2.875783 1_655
Ca2 O29 2.402693 1_555
Ca2 O27 2.434560 1_555
Ca2 O34 2.500005 1_555
Ca2 O39 2.513383 1_555
Ca2 O14 2.524003 1_555
Ca2 O4 2.542189 1_555
Ca2 O22 2.555341 1_555
Ca2 O6 2.597605 1_554
Ca2 O0 2.875783 1_555
Ca3 O28 2.402693 1_455
Ca3 O26 2.434560 1_555
Ca3 O35 2.500005 1_555
Ca3 O38 2.513383 1_555
Ca3 O15 2.524003 1_555
Ca3 O5 2.542189 1_455
Ca3 O23 2.555341 1_555
Ca3 O7 2.597605 1_555
Ca3 O1 2.875783 1_455
H0 O24 0.986343 1_555
H1 O25 0.986343 1_555
H2 O26 0.986343 1_555
H3 O27 0.986343 1_555
H4 O27 0.978946 1_555
H5 O26 0.978946 1_655
H6 O25 0.978946 1_555
H7 O24 0.978946 1_455
H8 O28 0.985555 1_555
H9 O29 0.985555 1_555
H10 O30 0.985555 1_555
H11 O31 0.985555 1_555
H12 O28 0.977527 1_565
H13 O29 0.977527 1_565
H14 O30 0.977527 1_545
H15 O31 0.977527 1_545
H16 O32 0.997812 1_555
H16 O23 1.735762 1_665
H17 O33 0.997812 1_555
H17 O22 1.735762 1_565
H18 O34 0.997812 1_555
H18 O21 1.735762 1_445
H19 O35 0.997812 1_555
H19 O20 1.735762 1_545
H20 O32 0.980830 1_555
H21 O33 0.980830 1_555
H22 O34 0.980830 1_555
H23 O35 0.980830 1_555
H24 O36 0.983077 1_555
H25 O37 0.983077 1_555
H26 O38 0.983077 1_555
H27 O39 0.983077 1_555
H28 O36 0.977515 1_555
H29 O37 0.977515 1_555
H30 O38 0.977515 1_555
H31 O39 0.977515 1_555
N0 O8 1.254516 1_555
N0 O0 1.265379 1_555
N0 O4 1.285783 1_555
N1 O9 1.254516 1_555
N1 O1 1.265379 1_555
N1 O5 1.285783 1_555
N2 O10 1.254516 1_555
N2 O2 1.265379 1_555
N2 O6 1.285783 1_555
N3 O11 1.254516 1_555
N3 O3 1.265379 1_555
N3 O7 1.285783 1_555
N4 O16 1.251853 1_565
N4 O12 1.267695 1_555
N4 O20 1.284006 1_555
N5 O17 1.251853 1_565
N5 O13 1.267695 1_555
N5 O21 1.284006 1_555
N6 O18 1.251853 1_545
N6 O14 1.267695 1_555
N6 O22 1.284006 1_555
N7 O19 1.251853 1_545
N7 O15 1.267695 1_555
N7 O23 1.284006 1_555
