# generated using pymatgen
data_Fe2OF3
_symmetry_space_group_name_H-M   'P 1'
_cell_length_a   4.87999690
_cell_length_b   4.87999690
_cell_length_c   15.42507200
_cell_angle_alpha   90.00000000
_cell_angle_beta   90.00000000
_cell_angle_gamma   91.75546521
_symmetry_Int_Tables_number   1
_chemical_formula_structural   Fe2OF3
_chemical_formula_sum   'Fe10 O5 F15'
_cell_volume   367.16596572
_cell_formula_units_Z   5
loop_
 _symmetry_equiv_pos_site_id
 _symmetry_equiv_pos_as_xyz
  1  'x, y, z'
loop_
 _atom_site_type_symbol
 _atom_site_label
 _atom_site_symmetry_multiplicity
 _atom_site_fract_x
 _atom_site_fract_y
 _atom_site_fract_z
 _atom_site_occupancy
  Fe  Fe0  1  0.97003800  0.97003800  0.80022800  1
  Fe  Fe1  1  0.03063200  0.03063200  0.00000000  1
  Fe  Fe2  1  0.97003800  0.97003800  0.19977200  1
  Fe  Fe3  1  0.02079600  0.02079600  0.39979600  1
  Fe  Fe4  1  0.02079600  0.02079600  0.60020400  1
  Fe  Fe5  1  0.50007900  0.50007900  0.89993200  1
  Fe  Fe6  1  0.50018700  0.50018700  0.30019600  1
  Fe  Fe7  1  0.50007900  0.50007900  0.10006800  1
  Fe  Fe8  1  0.47548900  0.47548900  0.50000000  1
  Fe  Fe9  1  0.50018700  0.50018700  0.69980400  1
  O  O0  1  0.33167000  0.33167000  0.00000000  1
  O  O1  1  0.32225300  0.32225300  0.39732500  1
  O  O2  1  0.32225300  0.32225300  0.60267500  1
  O  O3  1  0.66837400  0.66837400  0.79997300  1
  O  O4  1  0.66837400  0.66837400  0.20002700  1
  F  F0  1  0.79554000  0.20472500  0.90016600  1
  F  F1  1  0.79554000  0.20472500  0.09983400  1
  F  F2  1  0.79218200  0.20166500  0.29978200  1
  F  F3  1  0.80128400  0.21367200  0.50000000  1
  F  F4  1  0.79218200  0.20166500  0.70021800  1
  F  F5  1  0.29053900  0.29053900  0.80056500  1
  F  F6  1  0.29053900  0.29053900  0.19943500  1
  F  F7  1  0.70957600  0.70957500  0.00000000  1
  F  F8  1  0.70245900  0.70245900  0.40111900  1
  F  F9  1  0.70245900  0.70245900  0.59888100  1
  F  F10  1  0.20472500  0.79554000  0.90016600  1
  F  F11  1  0.20166500  0.79218200  0.29978200  1
  F  F12  1  0.20472500  0.79554000  0.09983400  1
  F  F13  1  0.20166500  0.79218200  0.70021800  1
  F  F14  1  0.21367200  0.80128400  0.50000000  1
loop_
_geom_bond_atom_site_label_1
_geom_bond_atom_site_label_2
_geom_bond_distance
_geom_bond_site_symmetry_2
Fe0 O3 2.049759 1_555
Fe1 O0 2.045501 1_555
Fe2 O4 2.049759 1_555
Fe3 O1 2.048703 1_555
Fe4 O2 2.048703 1_555
Fe5 O3 1.919649 1_555
Fe5 O0 1.921461 1_556
Fe6 O4 1.921815 1_555
Fe6 O1 1.925208 1_555
Fe7 O4 1.919649 1_555
Fe7 O0 1.921461 1_555
Fe8 O2 1.895375 1_555
Fe8 O1 1.895375 1_555
Fe9 O3 1.921815 1_555
Fe9 O2 1.925208 1_555
F0 Fe5 2.069707 1_555
F0 Fe1 2.114026 1_656
F0 Fe0 2.114927 1_545
F1 Fe7 2.069707 1_555
F1 Fe1 2.114026 1_655
F1 Fe2 2.114927 1_545
F2 Fe6 2.068789 1_555
F2 Fe3 2.112823 1_655
F2 Fe2 2.114448 1_545
F3 Fe8 2.069928 1_555
F3 Fe4 2.117605 1_655
F3 Fe3 2.117605 1_655
F4 Fe9 2.068789 1_555
F4 Fe4 2.112823 1_655
F4 Fe0 2.114448 1_545
F5 Fe5 2.092003 1_555
F5 Fe9 2.108303 1_555
F5 Fe0 2.177755 1_445
F6 Fe7 2.092003 1_555
F6 Fe6 2.108303 1_555
F6 Fe2 2.177755 1_445
F7 Fe7 2.099737 1_555
F7 Fe5 2.099737 1_554
F7 Fe1 2.181524 1_665
F8 Fe6 2.076641 1_555
F8 Fe3 2.163141 1_665
F8 Fe8 2.169061 1_555
F9 Fe9 2.076641 1_555
F9 Fe4 2.163141 1_665
F9 Fe8 2.169061 1_555
F10 Fe5 2.069707 1_555
F10 Fe1 2.114026 1_566
F10 Fe0 2.114927 1_455
F11 Fe6 2.068789 1_555
F11 Fe3 2.112823 1_565
F11 Fe2 2.114448 1_455
F12 Fe7 2.069707 1_555
F12 Fe1 2.114026 1_565
F12 Fe2 2.114927 1_455
F13 Fe9 2.068789 1_555
F13 Fe4 2.112823 1_565
F13 Fe0 2.114448 1_455
F14 Fe8 2.069928 1_555
F14 Fe4 2.117605 1_565
F14 Fe3 2.117605 1_565
