# generated using pymatgen
data_Na2Fe2O5
_symmetry_space_group_name_H-M   'P 1'
_cell_length_a   8.29873870
_cell_length_b   8.29873870
_cell_length_c   8.29873870
_cell_angle_alpha   141.63535857
_cell_angle_beta   141.01617013
_cell_angle_gamma   55.84731567
_symmetry_Int_Tables_number   1
_chemical_formula_structural   Na2Fe2O5
_chemical_formula_sum   'Na4 Fe4 O10'
_cell_volume   221.46003179
_cell_formula_units_Z   2
loop_
 _symmetry_equiv_pos_site_id
 _symmetry_equiv_pos_as_xyz
  1  'x, y, z'
loop_
 _atom_site_type_symbol
 _atom_site_label
 _atom_site_symmetry_multiplicity
 _atom_site_fract_x
 _atom_site_fract_y
 _atom_site_fract_z
 _atom_site_occupancy
  Na  Na0  1  0.87132400  0.39167600  0.47648600  1
  Na  Na1  1  0.58481000  0.10516200  0.47648600  1
  Na  Na2  1  0.12867600  0.60516200  0.52035200  1
  Na  Na3  1  0.41519000  0.89167600  0.52035200  1
  Fe  Fe0  1  0.00000000  0.99098500  0.99098500  1
  Fe  Fe1  1  0.82034400  0.78893600  0.10927900  1
  Fe  Fe2  1  0.50000000  0.49098500  0.99098500  1
  Fe  Fe3  1  0.17965600  0.28893600  0.96859200  1
  O  O0  1  0.76086800  0.25007900  0.99219200  1
  O  O1  1  0.75788700  0.75007900  0.48921200  1
  O  O2  1  0.88106400  0.12571400  0.50677800  1
  O  O3  1  0.81026400  0.83691800  0.92546900  1
  O  O4  1  0.58855200  0.61520500  0.92546900  1
  O  O5  1  0.18973600  0.11520500  0.02665300  1
  O  O6  1  0.41144800  0.33691800  0.02665300  1
  O  O7  1  0.11893600  0.62571400  0.24465000  1
  O  O8  1  0.24211300  0.73132400  0.99219200  1
  O  O9  1  0.23913200  0.23132400  0.48921200  1
loop_
_geom_bond_atom_site_label_1
_geom_bond_atom_site_label_2
_geom_bond_distance
_geom_bond_site_symmetry_2
Na0 O2 2.362079 1_555
Na0 O6 2.417710 1_555
Na0 O8 2.465281 1_655
Na0 O9 2.501478 1_655
Na0 O1 2.502393 1_555
Na0 O0 2.539649 1_554
Na0 O3 2.652569 1_555
Na0 O3 2.892401 1_544
Na1 O2 2.362079 1_555
Na1 O5 2.417709 1_555
Na1 O0 2.465281 1_555
Na1 O1 2.501486 1_545
Na1 O9 2.502403 1_555
Na1 O8 2.539649 1_544
Na1 O4 2.652567 1_555
Na1 O4 2.892405 1_544
Na2 O7 2.362079 1_555
Na2 O4 2.417709 1_555
Na2 O1 2.465285 1_455
Na2 O0 2.501482 1_454
Na2 O8 2.502398 1_555
Na2 O9 2.539654 1_555
Na2 O5 2.652567 1_566
Na2 O5 2.892405 1_555
Na3 O7 2.362079 1_555
Na3 O3 2.417704 1_555
Na3 O9 2.465277 1_565
Na3 O8 2.501482 1_554
Na3 O0 2.502398 1_565
Na3 O1 2.539644 1_555
Na3 O6 2.652568 1_566
Na3 O6 2.892401 1_555
Fe0 O0 1.941045 1_465
Fe0 O9 1.941049 1_566
Fe0 O1 1.954938 1_455
Fe0 O8 1.954943 1_555
Fe0 O3 2.061303 1_455
Fe0 O5 2.061310 1_566
Fe1 O3 1.791392 1_554
Fe1 O4 1.791399 1_554
Fe1 O2 1.867160 1_565
Fe1 O7 1.878001 1_655
Fe2 O8 1.941045 1_555
Fe2 O1 1.941048 1_556
Fe2 O9 1.954939 1_555
Fe2 O0 1.954943 1_555
Fe2 O6 2.061303 1_556
Fe2 O4 2.061310 1_555
Fe3 O5 1.791393 1_556
Fe3 O6 1.791399 1_556
Fe3 O7 1.867157 1_556
Fe3 O2 1.878000 1_455
