# generated using pymatgen
data_Li4V3CoO8
_symmetry_space_group_name_H-M   'P 1'
_cell_length_a   5.96063019
_cell_length_b   5.96063019
_cell_length_c   5.96756227
_cell_angle_alpha   60.12420678
_cell_angle_beta   60.12420678
_cell_angle_gamma   59.87669950
_symmetry_Int_Tables_number   1
_chemical_formula_structural   Li4V3CoO8
_chemical_formula_sum   'Li4 V3 Co1 O8'
_cell_volume   150.06218755
_cell_formula_units_Z   1
loop_
 _symmetry_equiv_pos_site_id
 _symmetry_equiv_pos_as_xyz
  1  'x, y, z'
loop_
 _atom_site_type_symbol
 _atom_site_label
 _atom_site_symmetry_multiplicity
 _atom_site_fract_x
 _atom_site_fract_y
 _atom_site_fract_z
 _atom_site_occupancy
  Li  Li0  1  0.50000000  0.50000000  0.50000000  1
  Li  Li1  1  0.00000000  0.50000000  0.50000000  1
  Li  Li2  1  0.00000000  0.00000000  0.50000000  1
  Li  Li3  1  0.50000000  0.00000000  0.50000000  1
  V  V0  1  0.50000000  0.00000000  0.00000000  1
  V  V1  1  0.50000000  0.50000000  0.00000000  1
  V  V2  1  0.00000000  0.50000000  0.00000000  1
  Co  Co0  1  0.00000000  0.00000000  0.00000000  1
  O  O0  1  0.73997800  0.73997800  0.76654200  1
  O  O1  1  0.26115000  0.72693000  0.77060000  1
  O  O2  1  0.24636300  0.24636300  0.77471400  1
  O  O3  1  0.26002200  0.26002200  0.23345800  1
  O  O4  1  0.72693000  0.26115000  0.77060000  1
  O  O5  1  0.73885000  0.27307000  0.22940000  1
  O  O6  1  0.75363700  0.75363700  0.22528600  1
  O  O7  1  0.27307000  0.73885000  0.22940000  1
loop_
_geom_bond_atom_site_label_1
_geom_bond_atom_site_label_2
_geom_bond_distance
_geom_bond_site_symmetry_2
Li0 O5 2.101661 1_555
Li0 O4 2.101661 1_555
Li0 O1 2.101661 1_555
Li0 O7 2.101661 1_555
Li0 O2 2.148186 1_555
Li0 O6 2.148186 1_555
Li1 O0 2.136287 1_455
Li1 O3 2.136287 1_555
Li1 O7 2.168158 1_555
Li1 O4 2.168158 1_455
Li1 O2 2.197826 1_555
Li1 O6 2.197826 1_455
Li2 O3 2.198517 1_555
Li2 O0 2.198517 1_445
Li2 O4 2.241120 1_455
Li2 O1 2.241120 1_545
Li2 O7 2.241120 1_545
Li2 O5 2.241120 1_455
Li3 O0 2.136287 1_545
Li3 O3 2.136287 1_555
Li3 O5 2.168158 1_555
Li3 O1 2.168158 1_545
Li3 O6 2.197826 1_545
Li3 O2 2.197826 1_555
Co0 O6 2.085934 1_445
Co0 O2 2.085934 1_554
Co0 O7 2.121372 1_545
Co0 O5 2.121372 1_455
Co0 O1 2.121372 1_544
Co0 O4 2.121372 1_454
O0 V1 2.028839 1_556
O0 V0 2.080812 1_566
O0 V2 2.080812 1_656
O1 V1 1.973469 1_556
O1 V2 2.066992 1_556
O2 V2 2.019706 1_556
O2 V0 2.019706 1_556
O3 V1 2.028839 1_555
O3 V0 2.080812 1_555
O3 V2 2.080812 1_555
O4 V1 1.973469 1_556
O4 V0 2.066992 1_556
O5 V1 1.973469 1_555
O5 V2 2.066992 1_655
O6 V2 2.019706 1_655
O6 V0 2.019706 1_565
O7 V1 1.973469 1_555
O7 V0 2.066992 1_565
