# generated using pymatgen
data_Li3V3P8O29
_symmetry_space_group_name_H-M   'P 1'
_cell_length_a   9.72103000
_cell_length_b   9.73752292
_cell_length_c   14.36266481
_cell_angle_alpha   89.69745190
_cell_angle_beta   89.43499412
_cell_angle_gamma   60.29453425
_symmetry_Int_Tables_number   1
_chemical_formula_structural   Li3V3P8O29
_chemical_formula_sum   'Li6 V6 P16 O58'
_cell_volume   1180.82785197
_cell_formula_units_Z   2
loop_
 _symmetry_equiv_pos_site_id
 _symmetry_equiv_pos_as_xyz
  1  'x, y, z'
loop_
 _atom_site_type_symbol
 _atom_site_label
 _atom_site_symmetry_multiplicity
 _atom_site_fract_x
 _atom_site_fract_y
 _atom_site_fract_z
 _atom_site_occupancy
  Li  Li0  1  0.23146100  0.67633200  0.05381900  1
  Li  Li1  1  0.67852900  0.09214300  0.05584700  1
  Li  Li2  1  0.67205600  0.22917900  0.56197800  1
  Li  Li3  1  0.91427400  0.32017000  0.44377300  1
  Li  Li4  1  0.01988800  0.03633300  0.99414900  1
  Li  Li5  1  0.04961600  0.92464800  0.50343700  1
  V  V0  1  0.43375300  0.56750200  0.25200900  1
  V  V1  1  0.56336000  0.43863700  0.75296700  1
  V  V2  1  0.43393400  0.00223400  0.74884100  1
  V  V3  1  0.55972600  0.99745300  0.25315000  1
  V  V4  1  0.00325600  0.43659500  0.24524500  1
  V  V5  1  0.99919200  0.56491200  0.74806700  1
  P  P0  1  0.08328300  0.21974500  0.83506200  1
  P  P1  1  0.21541100  0.08454700  0.34157000  1
  P  P2  1  0.08184000  0.69388300  0.34297400  1
  P  P3  1  0.33873900  0.33412100  0.13290700  1
  P  P4  1  0.33570600  0.33263800  0.63223300  1
  P  P5  1  0.22050800  0.68858600  0.84207900  1
  P  P6  1  0.30878400  0.77877300  0.66307300  1
  P  P7  1  0.68815200  0.08747400  0.84390800  1
  P  P8  1  0.30254300  0.91734400  0.15741900  1
  P  P9  1  0.68113300  0.22758900  0.34224200  1
  P  P10  1  0.77773400  0.30877500  0.16261200  1
  P  P11  1  0.66978000  0.66155300  0.36598600  1
  P  P12  1  0.66570500  0.67016100  0.86561000  1
  P  P13  1  0.91079600  0.31282700  0.65547700  1
  P  P14  1  0.78313000  0.91508800  0.66369600  1
  P  P15  1  0.91371200  0.78114700  0.16132300  1
  O  O0  1  0.97989500  0.23524600  0.56442100  1
  O  O1  1  0.08159600  0.26103500  0.33418200  1
  O  O2  1  0.20889700  0.99299800  0.07332600  1
  O  O3  1  0.25915300  0.08529300  0.82872700  1
  O  O4  1  0.07666200  0.38146300  0.82588000  1
  O  O5  1  0.18881700  0.33507800  0.17953000  1
  O  O6  1  0.07788500  0.53798600  0.32783300  1
  O  O7  1  0.00734000  0.78513700  0.08021200  1
  O  O8  1  0.08287400  0.65375900  0.83011400  1
  O  O9  1  0.33671600  0.18524700  0.67894600  1
  O  O10  1  0.37919500  0.08026600  0.32712200  1
  O  O11  1  0.18669500  0.47665500  0.67779100  1
  O  O12  1  0.33834500  0.33620900  0.02963700  1
  O  O13  1  0.34020000  0.32775600  0.52883500  1
  O  O14  1  0.33061800  0.48766400  0.17301000  1
  O  O15  1  0.53258700  0.08461000  0.82957800  1
  O  O16  1  0.48646200  0.18587000  0.17524100  1
  O  O17  1  0.25718300  0.65510000  0.32727000  1
  O  O18  1  0.20625600  0.80261200  0.75783500  1
  O  O19  1  0.21350700  0.79058600  0.58106700  1
  O  O20  1  0.21096700  0.76680300  0.93270700  1
  O  O21  1  0.37902100  0.53055500  0.82647700  1
  O  O22  1  0.48663000  0.33140600  0.67198700  1
  O  O23  1  0.34371800  0.74058500  0.16453600  1
  O  O24  1  0.52232100  0.38219500  0.32436200  1
  O  O25  1  0.65358200  0.08467300  0.33192800  1
  O  O26  1  0.19848000  0.00127400  0.24924900  1
  O  O27  1  0.19751200  0.00684900  0.42556400  1
  O  O28  1  0.80195900  0.00450400  0.58429600  1
  O  O29  1  0.35036600  0.91316200  0.66837300  1
  O  O30  1  0.46350500  0.61811500  0.67464700  1
  O  O31  1  0.65348800  0.26057400  0.82789400  1
  O  O32  1  0.52160900  0.66284900  0.31971800  1
  O  O33  1  0.61774600  0.46387900  0.17270400  1
  O  O34  1  0.79364200  0.20508200  0.08283700  1
  O  O35  1  0.75653500  0.23121000  0.43192100  1
  O  O36  1  0.79893800  0.21114200  0.25878700  1
  O  O37  1  0.73718900  0.34439000  0.66336900  1
  O  O38  1  0.52170100  0.81612600  0.82028300  1
  O  O39  1  0.45954200  0.92250200  0.17276600  1
  O  O40  1  0.66206400  0.52274000  0.81990600  1
  O  O41  1  0.66557300  0.66566000  0.96857700  1
  O  O42  1  0.66652500  0.66062100  0.46889300  1
  O  O43  1  0.81693200  0.51181400  0.32465400  1
  O  O44  1  0.62047100  0.92347300  0.67131100  1
  O  O45  1  0.66712300  0.81105100  0.31897000  1
  O  O46  1  0.91489300  0.34733200  0.16742500  1
  O  O47  1  0.00428600  0.19833000  0.74056800  1
  O  O48  1  0.00181600  0.19979300  0.91710500  1
  O  O49  1  0.91256700  0.46884400  0.67202800  1
  O  O50  1  0.81485600  0.66569600  0.81984000  1
  O  O51  1  0.91489900  0.62034200  0.17410400  1
  O  O52  1  0.73919600  0.91826300  0.16159100  1
  O  O53  1  0.76729800  0.02626100  0.93510000  1
  O  O54  1  0.80604300  0.98737900  0.76060200  1
  O  O55  1  0.91659300  0.73969500  0.66578000  1
  O  O56  1  0.01361400  0.78327900  0.42947900  1
  O  O57  1  0.98804900  0.80439600  0.25544200  1
loop_
_geom_bond_atom_site_label_1
_geom_bond_atom_site_label_2
_geom_bond_distance
_geom_bond_site_symmetry_2
Li0 O20 1.912674 1_554
Li0 O7 1.926949 1_555
Li0 O23 2.198272 1_555
Li0 O14 2.340757 1_555
Li1 O53 1.896681 1_554
Li1 O34 1.960773 1_555
Li1 O52 2.126527 1_545
Li1 O16 2.350346 1_555
Li2 O28 1.935528 1_555
Li2 O35 2.037043 1_555
Li2 O37 2.125926 1_555
Li2 O22 2.217796 1_555
Li3 O0 1.891378 1_555
Li3 O35 2.110401 1_555
Li3 O1 2.117918 1_655
Li3 O43 2.356490 1_555
Li4 O48 1.870007 1_555
Li4 O2 2.028522 1_546
Li4 O34 2.354759 1_456
Li4 O20 2.505559 1_545
Li5 O19 1.855796 1_555
Li5 O56 1.909465 1_555
Li5 O27 2.248999 1_565
Li5 O28 2.418345 1_465
O0 P13 1.490787 1_555
O1 P1 1.562698 1_555
O1 V4 1.959577 1_555
O2 P8 1.475748 1_555
O3 P0 1.557261 1_555
O3 V2 1.861940 1_555
O4 P0 1.548819 1_555
O4 V5 1.915574 1_455
O5 P3 1.593692 1_555
O5 V4 1.825077 1_555
O6 P2 1.553944 1_555
O6 V4 1.909792 1_555
O7 P15 1.483481 1_455
O8 P5 1.545793 1_555
O8 V5 1.877780 1_455
O9 P4 1.576736 1_555
O9 V2 1.845919 1_555
O10 P1 1.583520 1_555
O10 V3 1.851647 1_545
O11 P4 1.571873 1_555
O11 V5 1.870848 1_455
O12 P3 1.483281 1_555
O13 P4 1.485601 1_555
O14 P3 1.569911 1_555
O14 V0 1.923845 1_555
O15 P7 1.542090 1_555
O15 V2 1.924044 1_555
O16 P3 1.571377 1_555
O16 V3 1.955640 1_545
O17 P2 1.566592 1_555
O17 V0 1.834205 1_555
O18 P5 1.597721 1_555
O18 P6 1.626946 1_555
O19 P6 1.474051 1_555
O20 P5 1.490333 1_555
O21 P5 1.561856 1_555
O21 V1 1.873509 1_555
O22 P4 1.574055 1_555
O22 V1 1.949677 1_555
O23 P8 1.565034 1_555
O23 V0 1.929344 1_555
O24 P9 1.554369 1_555
O24 V0 1.880233 1_555
O25 P9 1.550068 1_555
O25 V3 1.905898 1_545
O26 P1 1.609578 1_555
O26 P8 1.611371 1_545
O27 P1 1.474698 1_555
O28 P14 1.495143 1_545
O29 P6 1.551636 1_555
O29 V2 1.864232 1_565
O30 P6 1.551577 1_555
O30 V1 1.892462 1_555
O31 P7 1.562720 1_555
O31 V1 1.850786 1_555
O32 P11 1.586573 1_555
O32 V0 1.830004 1_555
O33 P10 1.546213 1_555
O33 V0 1.923000 1_555
O34 P10 1.486681 1_555
O35 P9 1.497412 1_555
O36 P9 1.602191 1_555
O36 P10 1.628473 1_555
O37 P13 1.561399 1_555
O37 V1 1.945843 1_555
O38 P12 1.562021 1_555
O38 V2 1.878890 1_565
O39 P8 1.569425 1_555
O39 V3 1.884033 1_555
O40 P12 1.598007 1_555
O40 V1 1.822351 1_555
O41 P12 1.479305 1_555
O42 P11 1.478122 1_555
O43 P11 1.565218 1_555
O43 V4 1.941958 1_655
O44 P14 1.545184 1_555
O44 V2 1.925413 1_565
O45 P11 1.590139 1_555
O45 V3 1.844309 1_555
O46 P10 1.556190 1_555
O46 V4 1.873973 1_655
O47 P13 1.601841 1_455
O47 P0 1.630156 1_555
O48 P0 1.478212 1_555
O49 P13 1.547465 1_555
O49 V5 1.893825 1_555
O50 P12 1.566933 1_555
O50 V5 1.862300 1_555
O51 P15 1.569966 1_555
O51 V4 1.859580 1_655
O52 P15 1.554272 1_555
O52 V3 1.999954 1_555
O53 P7 1.489909 1_555
O54 P7 1.604119 1_565
O54 P14 1.629165 1_555
O55 P14 1.550872 1_555
O55 V5 1.892418 1_555
O56 P2 1.471149 1_555
O57 P15 1.607932 1_555
O57 P2 1.614240 1_655
