# generated using pymatgen
data_CoH12(BrO6)2
_symmetry_space_group_name_H-M   'P 1'
_cell_length_a   10.81313600
_cell_length_b   10.81313600
_cell_length_c   10.81313600
_cell_angle_alpha   90.00000000
_cell_angle_beta   90.00000000
_cell_angle_gamma   90.00000000
_symmetry_Int_Tables_number   1
_chemical_formula_structural   CoH12(BrO6)2
_chemical_formula_sum   'Co4 H48 Br8 O48'
_cell_volume   1264.31414215
_cell_formula_units_Z   4
loop_
 _symmetry_equiv_pos_site_id
 _symmetry_equiv_pos_as_xyz
  1  'x, y, z'
loop_
 _atom_site_type_symbol
 _atom_site_label
 _atom_site_symmetry_multiplicity
 _atom_site_fract_x
 _atom_site_fract_y
 _atom_site_fract_z
 _atom_site_occupancy
  Co  Co0  1  0.50000000  0.50000000  0.00000000  1
  Co  Co1  1  0.50000000  0.00000000  0.50000000  1
  Co  Co2  1  0.00000000  0.50000000  0.50000000  1
  Co  Co3  1  0.00000000  0.00000000  0.00000000  1
  H  H0  1  0.03207300  0.58086300  0.26391000  1
  H  H1  1  0.96792700  0.08086300  0.23609000  1
  H  H2  1  0.46792700  0.41913700  0.76391000  1
  H  H3  1  0.53207300  0.91913700  0.73609000  1
  H  H4  1  0.26391000  0.03207300  0.58086300  1
  H  H5  1  0.23609000  0.96792700  0.08086300  1
  H  H6  1  0.76391000  0.46792700  0.41913700  1
  H  H7  1  0.73609000  0.53207300  0.91913700  1
  H  H8  1  0.58086300  0.26391000  0.03207300  1
  H  H9  1  0.08086300  0.23609000  0.96792700  1
  H  H10  1  0.41913700  0.76391000  0.46792700  1
  H  H11  1  0.91913700  0.73609000  0.53207300  1
  H  H12  1  0.96792700  0.41913700  0.73609000  1
  H  H13  1  0.03207300  0.91913700  0.76391000  1
  H  H14  1  0.53207300  0.58086300  0.23609000  1
  H  H15  1  0.46792700  0.08086300  0.26391000  1
  H  H16  1  0.73609000  0.96792700  0.41913700  1
  H  H17  1  0.76391000  0.03207300  0.91913700  1
  H  H18  1  0.23609000  0.53207300  0.58086300  1
  H  H19  1  0.26391000  0.46792700  0.08086300  1
  H  H20  1  0.41913700  0.73609000  0.96792700  1
  H  H21  1  0.91913700  0.76391000  0.03207300  1
  H  H22  1  0.58086300  0.23609000  0.53207300  1
  H  H23  1  0.08086300  0.26391000  0.46792700  1
  H  H24  1  0.26548900  0.43319900  0.94163800  1
  H  H25  1  0.73451100  0.93319900  0.55836200  1
  H  H26  1  0.23451100  0.56680100  0.44163800  1
  H  H27  1  0.76548900  0.06680100  0.05836200  1
  H  H28  1  0.94163800  0.26548900  0.43319900  1
  H  H29  1  0.55836200  0.73451100  0.93319900  1
  H  H30  1  0.44163800  0.23451100  0.56680100  1
  H  H31  1  0.05836200  0.76548900  0.06680100  1
  H  H32  1  0.43319900  0.94163800  0.26548900  1
  H  H33  1  0.93319900  0.55836200  0.73451100  1
  H  H34  1  0.56680100  0.44163800  0.23451100  1
  H  H35  1  0.06680100  0.05836200  0.76548900  1
  H  H36  1  0.73451100  0.56680100  0.05836200  1
  H  H37  1  0.26548900  0.06680100  0.44163800  1
  H  H38  1  0.76548900  0.43319900  0.55836200  1
  H  H39  1  0.23451100  0.93319900  0.94163800  1
  H  H40  1  0.05836200  0.73451100  0.56680100  1
  H  H41  1  0.44163800  0.26548900  0.06680100  1
  H  H42  1  0.55836200  0.76548900  0.43319900  1
  H  H43  1  0.94163800  0.23451100  0.93319900  1
  H  H44  1  0.56680100  0.05836200  0.73451100  1
  H  H45  1  0.06680100  0.44163800  0.26548900  1
  H  H46  1  0.43319900  0.55836200  0.76548900  1
  H  H47  1  0.93319900  0.94163800  0.23451100  1
  Br  Br0  1  0.22637100  0.77362900  0.27362900  1
  Br  Br1  1  0.77362900  0.27362900  0.22637100  1
  Br  Br2  1  0.27362900  0.22637100  0.77362900  1
  Br  Br3  1  0.72637100  0.72637100  0.72637100  1
  Br  Br4  1  0.77362900  0.22637100  0.72637100  1
  Br  Br5  1  0.22637100  0.72637100  0.77362900  1
  Br  Br6  1  0.72637100  0.77362900  0.22637100  1
  Br  Br7  1  0.27362900  0.27362900  0.27362900  1
  O  O0  1  0.32709700  0.64645900  0.68489100  1
  O  O1  1  0.67290300  0.14645900  0.81510900  1
  O  O2  1  0.17290300  0.35354100  0.18489100  1
  O  O3  1  0.82709700  0.85354100  0.31510900  1
  O  O4  1  0.68489100  0.32709700  0.64645900  1
  O  O5  1  0.81510900  0.67290300  0.14645900  1
  O  O6  1  0.18489100  0.17290300  0.35354100  1
  O  O7  1  0.31510900  0.82709700  0.85354100  1
  O  O8  1  0.64645900  0.68489100  0.32709700  1
  O  O9  1  0.14645900  0.81510900  0.67290300  1
  O  O10  1  0.35354100  0.18489100  0.17290300  1
  O  O11  1  0.85354100  0.31510900  0.82709700  1
  O  O12  1  0.67290300  0.35354100  0.31510900  1
  O  O13  1  0.32709700  0.85354100  0.18489100  1
  O  O14  1  0.82709700  0.64645900  0.81510900  1
  O  O15  1  0.17290300  0.14645900  0.68489100  1
  O  O16  1  0.31510900  0.67290300  0.35354100  1
  O  O17  1  0.18489100  0.32709700  0.85354100  1
  O  O18  1  0.81510900  0.82709700  0.64645900  1
  O  O19  1  0.68489100  0.17290300  0.14645900  1
  O  O20  1  0.35354100  0.31510900  0.67290300  1
  O  O21  1  0.85354100  0.18489100  0.32709700  1
  O  O22  1  0.64645900  0.81510900  0.82709700  1
  O  O23  1  0.14645900  0.68489100  0.17290300  1
  O  O24  1  0.49159300  0.49810200  0.80353500  1
  O  O25  1  0.50840700  0.99810200  0.69646500  1
  O  O26  1  0.00840700  0.50189800  0.30353500  1
  O  O27  1  0.99159300  0.00189800  0.19646500  1
  O  O28  1  0.80353500  0.49159300  0.49810200  1
  O  O29  1  0.69646500  0.50840700  0.99810200  1
  O  O30  1  0.30353500  0.00840700  0.50189800  1
  O  O31  1  0.19646500  0.99159300  0.00189800  1
  O  O32  1  0.49810200  0.80353500  0.49159300  1
  O  O33  1  0.99810200  0.69646500  0.50840700  1
  O  O34  1  0.50189800  0.30353500  0.00840700  1
  O  O35  1  0.00189800  0.19646500  0.99159300  1
  O  O36  1  0.50840700  0.50189800  0.19646500  1
  O  O37  1  0.49159300  0.00189800  0.30353500  1
  O  O38  1  0.99159300  0.49810200  0.69646500  1
  O  O39  1  0.00840700  0.99810200  0.80353500  1
  O  O40  1  0.19646500  0.50840700  0.50189800  1
  O  O41  1  0.30353500  0.49159300  0.00189800  1
  O  O42  1  0.69646500  0.99159300  0.49810200  1
  O  O43  1  0.80353500  0.00840700  0.99810200  1
  O  O44  1  0.50189800  0.19646500  0.50840700  1
  O  O45  1  0.00189800  0.30353500  0.49159300  1
  O  O46  1  0.49810200  0.69646500  0.99159300  1
  O  O47  1  0.99810200  0.80353500  0.00840700  1
loop_
_geom_bond_atom_site_label_1
_geom_bond_atom_site_label_2
_geom_bond_distance
_geom_bond_site_symmetry_2
Co0 O36 2.126446 1_555
Co0 O34 2.126446 1_555
Co0 O29 2.126446 1_554
Co0 O41 2.126446 1_555
Co0 O46 2.126446 1_554
Co0 O24 2.126446 1_554
Co1 O44 2.126446 1_555
Co1 O32 2.126446 1_545
Co1 O25 2.126446 1_545
Co1 O42 2.126446 1_545
Co1 O30 2.126446 1_555
Co1 O37 2.126446 1_555
Co2 O33 2.126446 1_455
Co2 O45 2.126446 1_555
Co2 O40 2.126446 1_555
Co2 O38 2.126446 1_455
Co2 O26 2.126446 1_555
Co2 O28 2.126446 1_455
Co3 O31 2.126446 1_545
Co3 O47 2.126446 1_445
Co3 O27 2.126446 1_455
Co3 O43 2.126446 1_454
Co3 O35 2.126446 1_554
Co3 O39 2.126446 1_544
H0 O26 0.989014 1_555
H1 O27 0.989014 1_555
H2 O24 0.989014 1_555
H3 O25 0.989014 1_555
H4 O30 0.989014 1_555
H5 O31 0.989014 1_555
H6 O28 0.989014 1_555
H7 O29 0.989014 1_555
H8 O34 0.989014 1_555
H9 O35 0.989014 1_555
H10 O32 0.989014 1_555
H11 O33 0.989014 1_555
H12 O38 0.989014 1_555
H13 O39 0.989014 1_555
H14 O36 0.989014 1_555
H15 O37 0.989014 1_555
H16 O42 0.989014 1_555
H17 O43 0.989014 1_555
H18 O40 0.989014 1_555
H19 O41 0.989014 1_555
H20 O46 0.989014 1_555
H21 O47 0.989014 1_555
H22 O44 0.989014 1_555
H23 O45 0.989014 1_555
H24 O41 0.996255 1_556
H24 O17 1.727219 1_555
H25 O42 0.996255 1_555
H25 O18 1.727219 1_555
H26 O40 0.996255 1_555
H26 O16 1.727219 1_555
H27 O43 0.996255 1_554
H27 O19 1.727219 1_555
H28 O45 0.996255 1_655
H28 O21 1.727219 1_555
H29 O46 0.996255 1_555
H29 O22 1.727219 1_555
H30 O44 0.996255 1_555
H30 O20 1.727219 1_555
H31 O47 0.996255 1_455
H31 O23 1.727219 1_555
H32 O37 0.996255 1_565
H32 O13 1.727219 1_555
H33 O38 0.996255 1_555
H33 O14 1.727219 1_555
H34 O36 0.996255 1_555
H34 O12 1.727219 1_555
H35 O39 0.996255 1_545
H35 O15 1.727219 1_555
H36 O29 0.996255 1_554
H36 O5 1.727219 1_555
H37 O30 0.996255 1_555
H37 O6 1.727219 1_555
H38 O28 0.996255 1_555
H38 O4 1.727219 1_555
H39 O31 0.996255 1_556
H39 O7 1.727219 1_555
H40 O33 0.996255 1_455
H40 O9 1.727219 1_555
H41 O34 0.996255 1_555
H41 O10 1.727219 1_555
H42 O32 0.996255 1_555
H42 O8 1.727219 1_555
H43 O35 0.996255 1_655
H43 O11 1.727219 1_555
H44 O25 0.996255 1_545
H44 O1 1.727219 1_555
H45 O26 0.996255 1_555
H45 O2 1.727219 1_555
H46 O24 0.996255 1_555
H46 O0 1.727219 1_555
H47 O27 0.996255 1_565
H47 O3 1.727219 1_555
Br0 O13 1.689277 1_555
Br0 O23 1.689277 1_555
Br0 O16 1.689277 1_555
Br1 O21 1.689277 1_555
Br1 O19 1.689277 1_555
Br1 O12 1.689277 1_555
Br2 O17 1.689277 1_555
Br2 O15 1.689277 1_555
Br2 O20 1.689277 1_555
Br3 O14 1.689277 1_555
Br3 O22 1.689277 1_555
Br3 O18 1.689277 1_555
Br4 O4 1.689277 1_555
Br4 O11 1.689277 1_555
Br4 O1 1.689277 1_555
Br5 O0 1.689277 1_555
Br5 O7 1.689277 1_555
Br5 O9 1.689277 1_555
Br6 O8 1.689277 1_555
Br6 O3 1.689277 1_555
Br6 O5 1.689277 1_555
Br7 O10 1.689277 1_555
Br7 O2 1.689277 1_555
Br7 O6 1.689277 1_555
