# generated using pymatgen
data_LiFe4(BO3)4
_symmetry_space_group_name_H-M   'P 1'
_cell_length_a   5.23620200
_cell_length_b   9.11799332
_cell_length_c   10.22588405
_cell_angle_alpha   89.96547031
_cell_angle_beta   89.64374122
_cell_angle_gamma   89.22304535
_symmetry_Int_Tables_number   1
_chemical_formula_structural   LiFe4(BO3)4
_chemical_formula_sum   'Li2 Fe8 B8 O24'
_cell_volume   488.16668853
_cell_formula_units_Z   2
loop_
 _symmetry_equiv_pos_site_id
 _symmetry_equiv_pos_as_xyz
  1  'x, y, z'
loop_
 _atom_site_type_symbol
 _atom_site_label
 _atom_site_symmetry_multiplicity
 _atom_site_fract_x
 _atom_site_fract_y
 _atom_site_fract_z
 _atom_site_occupancy
  Li  Li0  1  0.16074100  0.17817100  0.66938300  1
  Li  Li1  1  0.18949200  0.17267400  0.17250900  1
  Fe  Fe0  1  0.16941300  0.83283700  0.62750100  1
  Fe  Fe1  1  0.17365600  0.50863200  0.12617500  1
  Fe  Fe2  1  0.32326400  0.99169900  0.88103100  1
  Fe  Fe3  1  0.33178900  0.66375600  0.37483300  1
  Fe  Fe4  1  0.66791600  0.34368800  0.62640600  1
  Fe  Fe5  1  0.67136100  0.99650000  0.12793400  1
  Fe  Fe6  1  0.82465400  0.15657200  0.38341800  1
  Fe  Fe7  1  0.82803100  0.49248700  0.88005300  1
  B  B0  1  0.15794800  0.49678200  0.62493600  1
  B  B1  1  0.16545100  0.83556600  0.13098200  1
  B  B2  1  0.33999800  0.99259800  0.37202300  1
  B  B3  1  0.32942700  0.66308500  0.87396500  1
  B  B4  1  0.66703400  0.00527100  0.63079800  1
  B  B5  1  0.67557900  0.32696100  0.12601500  1
  B  B6  1  0.83784100  0.49988700  0.37666000  1
  B  B7  1  0.81570100  0.16914000  0.87524600  1
  O  O0  1  0.08621100  0.50662700  0.32102900  1
  O  O1  1  0.06870700  0.15381100  0.85295500  1
  O  O2  1  0.21981000  0.78633000  0.81642700  1
  O  O3  1  0.25406300  0.86308500  0.43260900  1
  O  O4  1  0.18728200  0.11217900  0.35864300  1
  O  O5  1  0.16758500  0.56111300  0.93472000  1
  O  O6  1  0.30666800  0.37225100  0.62603800  1
  O  O7  1  0.30846000  0.95716900  0.09255100  1
  O  O8  1  0.24077200  0.62668900  0.56903800  1
  O  O9  1  0.29376000  0.70734400  0.17328500  1
  O  O10  1  0.41460400  0.34435800  0.13365100  1
  O  O11  1  0.40427200  0.00489200  0.65917100  1
  O  O12  1  0.58728000  0.99351800  0.32217100  1
  O  O13  1  0.58422000  0.64054300  0.87425400  1
  O  O14  1  0.69033500  0.29927300  0.82886600  1
  O  O15  1  0.76856300  0.37223700  0.44052600  1
  O  O16  1  0.67663200  0.61627800  0.36765000  1
  O  O17  1  0.66769600  0.06453300  0.93817000  1
  O  O18  1  0.82993100  0.43796900  0.07549400  1
  O  O19  1  0.82074700  0.88505700  0.63575100  1
  O  O20  1  0.77634600  0.14047900  0.59470500  1
  O  O21  1  0.80144500  0.19974900  0.16782400  1
  O  O22  1  0.90857500  0.84223800  0.12688200  1
  O  O23  1  0.91490900  0.49414200  0.68204100  1
loop_
_geom_bond_atom_site_label_1
_geom_bond_atom_site_label_2
_geom_bond_distance
_geom_bond_site_symmetry_2
Li0 O1 1.948473 1_555
Li0 O6 1.985796 1_555
Li0 O11 2.019195 1_555
Li0 O20 2.188768 1_455
Li1 O4 1.981387 1_555
Li1 O10 2.010296 1_555
Li1 O21 2.044363 1_455
Li1 O7 2.209099 1_545
Fe0 O19 1.881891 1_455
Fe0 O2 1.996033 1_555
Fe0 O8 2.002413 1_555
Fe0 O11 2.033770 1_565
Fe0 O3 2.058160 1_555
Fe1 O10 1.947043 1_555
Fe1 O9 1.986483 1_555
Fe1 O18 1.991607 1_455
Fe1 O5 2.015488 1_554
Fe1 O0 2.041837 1_555
Fe2 O1 1.998695 1_565
Fe2 O17 2.020187 1_565
Fe2 O2 2.066347 1_555
Fe2 O7 2.186634 1_556
Fe2 O11 2.308798 1_565
Fe3 O16 1.852141 1_555
Fe3 O3 1.948378 1_555
Fe3 O0 2.017074 1_555
Fe3 O8 2.068096 1_555
Fe3 O9 2.108868 1_555
Fe4 O6 1.905937 1_555
Fe4 O20 1.957148 1_555
Fe4 O23 1.984050 1_555
Fe4 O15 1.987249 1_555
Fe4 O14 2.113004 1_555
Fe5 O22 1.863816 1_555
Fe5 O7 1.974224 1_555
Fe5 O21 2.025682 1_565
Fe5 O12 2.032025 1_555
Fe5 O17 2.037012 1_564
Fe6 O4 1.951087 1_655
Fe6 O12 2.051444 1_545
Fe6 O15 2.068269 1_555
Fe6 O20 2.178880 1_555
Fe6 O21 2.243029 1_555
Fe7 O13 1.846583 1_555
Fe7 O5 1.976913 1_655
Fe7 O14 1.984377 1_555
Fe7 O18 2.059211 1_556
Fe7 O23 2.072649 1_555
B0 O6 1.368195 1_555
B0 O8 1.388476 1_555
B0 O23 1.397377 1_455
B1 O22 1.346518 1_455
B1 O7 1.401033 1_555
B1 O9 1.409637 1_555
B2 O4 1.350754 1_565
B2 O12 1.388734 1_555
B2 O3 1.410991 1_555
B3 O13 1.347151 1_555
B3 O2 1.387211 1_555
B3 O5 1.408101 1_555
B4 O19 1.352167 1_545
B4 O11 1.404417 1_555
B4 O20 1.414094 1_555
B5 O10 1.375296 1_555
B5 O21 1.394536 1_555
B5 O18 1.400345 1_555
B6 O16 1.350497 1_555
B6 O15 1.385782 1_555
B6 O0 1.418331 1_655
B7 O1 1.348268 1_655
B7 O17 1.391935 1_555
B7 O14 1.430325 1_555
