# generated using pymatgen
data_P4WO12
_symmetry_space_group_name_H-M   'P 1'
_cell_length_a   8.52557831
_cell_length_b   8.52557831
_cell_length_c   9.66972422
_cell_angle_alpha   61.84036768
_cell_angle_beta   61.84036768
_cell_angle_gamma   51.65491813
_symmetry_Int_Tables_number   1
_chemical_formula_structural   P4WO12
_chemical_formula_sum   'P8 W2 O24'
_cell_volume   469.39527438
_cell_formula_units_Z   2
loop_
 _symmetry_equiv_pos_site_id
 _symmetry_equiv_pos_as_xyz
  1  'x, y, z'
loop_
 _atom_site_type_symbol
 _atom_site_label
 _atom_site_symmetry_multiplicity
 _atom_site_fract_x
 _atom_site_fract_y
 _atom_site_fract_z
 _atom_site_occupancy
  P  P0  1  0.44002800  0.30393900  0.63356200  1
  P  P1  1  0.68821100  0.03090800  0.17211400  1
  P  P2  1  0.03090800  0.68821100  0.67211400  1
  P  P3  1  0.69606100  0.55997200  0.86643800  1
  P  P4  1  0.30393900  0.44002800  0.13356200  1
  P  P5  1  0.96909200  0.31178900  0.32788600  1
  P  P6  1  0.31178900  0.96909200  0.82788600  1
  P  P7  1  0.55997200  0.69606100  0.36643800  1
  W  W0  1  0.85736000  0.14264000  0.75000000  1
  W  W1  1  0.14264000  0.85736000  0.25000000  1
  O  O0  1  0.36651600  0.13998800  0.70016800  1
  O  O1  1  0.00425500  0.14042700  0.28713900  1
  O  O2  1  0.85957300  0.99574500  0.21286100  1
  O  O3  1  0.23426300  0.48336200  0.72023900  1
  O  O4  1  0.73494700  0.03170700  0.00101100  1
  O  O5  1  0.79040700  0.40373000  0.77357000  1
  O  O6  1  0.59627000  0.20959300  0.72643000  1
  O  O7  1  0.03170700  0.73494700  0.50101100  1
  O  O8  1  0.48336200  0.23426300  0.22023900  1
  O  O9  1  0.86001200  0.63348400  0.79983200  1
  O  O10  1  0.49493000  0.36033200  0.45578100  1
  O  O11  1  0.63966800  0.50507000  0.04421900  1
  O  O12  1  0.36033200  0.49493000  0.95578100  1
  O  O13  1  0.50507000  0.63966800  0.54421900  1
  O  O14  1  0.13998800  0.36651600  0.20016800  1
  O  O15  1  0.51663800  0.76573700  0.77976100  1
  O  O16  1  0.96829300  0.26505300  0.49898900  1
  O  O17  1  0.40373000  0.79040700  0.27357000  1
  O  O18  1  0.20959300  0.59627000  0.22643000  1
  O  O19  1  0.26505300  0.96829300  0.99898900  1
  O  O20  1  0.76573700  0.51663800  0.27976100  1
  O  O21  1  0.14042700  0.00425500  0.78713900  1
  O  O22  1  0.99574500  0.85957300  0.71286100  1
  O  O23  1  0.63348400  0.86001200  0.29983200  1
loop_
_geom_bond_atom_site_label_1
_geom_bond_atom_site_label_2
_geom_bond_distance
_geom_bond_site_symmetry_2
O0 P6 1.570664 1_545
O0 P0 1.617917 1_555
O1 P5 1.505961 1_455
O1 W1 2.056757 1_545
O2 P1 1.505961 1_565
O2 W1 2.056757 1_655
O3 P2 1.584266 1_555
O3 P0 1.616344 1_555
O4 P1 1.505569 1_555
O4 W0 2.131218 1_554
O5 P3 1.531537 1_555
O5 W0 2.027831 1_555
O6 P0 1.531537 1_555
O6 W0 2.027831 1_555
O7 P2 1.505569 1_555
O7 W1 2.131218 1_555
O8 P1 1.584266 1_555
O8 P4 1.616344 1_555
O9 P2 1.570664 1_655
O9 P3 1.617917 1_555
O10 P0 1.464636 1_555
O11 P3 1.464636 1_554
O12 P4 1.464636 1_556
O13 P7 1.464636 1_555
O14 P5 1.570664 1_455
O14 P4 1.617917 1_555
O15 P6 1.584266 1_555
O15 P3 1.616344 1_555
O16 P5 1.505569 1_555
O16 W0 2.131218 1_555
O17 P7 1.531537 1_555
O17 W1 2.027831 1_555
O18 P4 1.531537 1_555
O18 W1 2.027831 1_555
O19 P6 1.505569 1_555
O19 W1 2.131218 1_556
O20 P5 1.584266 1_555
O20 P7 1.616344 1_555
O21 P6 1.505961 1_545
O21 W0 2.056757 1_455
O22 P2 1.505961 1_655
O22 W0 2.056757 1_565
O23 P1 1.570664 1_565
O23 P7 1.617917 1_555
