# generated using pymatgen
data_Li4Ni3SnO8
_symmetry_space_group_name_H-M   'P 1'
_cell_length_a   10.33973503
_cell_length_b   10.35034384
_cell_length_c   14.65289696
_cell_angle_alpha   19.42691290
_cell_angle_beta   19.43159866
_cell_angle_gamma   33.43344618
_symmetry_Int_Tables_number   1
_chemical_formula_structural   Li4Ni3SnO8
_chemical_formula_sum   'Li4 Ni3 Sn1 O8'
_cell_volume   150.72347648
_cell_formula_units_Z   1
loop_
 _symmetry_equiv_pos_site_id
 _symmetry_equiv_pos_as_xyz
  1  'x, y, z'
loop_
 _atom_site_type_symbol
 _atom_site_label
 _atom_site_symmetry_multiplicity
 _atom_site_fract_x
 _atom_site_fract_y
 _atom_site_fract_z
 _atom_site_occupancy
  Li  Li0  1  0.99995100  0.99994200  0.50006600  1
  Li  Li1  1  0.99993500  0.49992500  0.50008800  1
  Li  Li2  1  0.49993100  0.99992900  0.50008800  1
  Li  Li3  1  0.49997800  0.49997200  0.50003000  1
  Ni  Ni0  1  0.00021300  0.50015200  0.99975700  1
  Ni  Ni1  1  0.50010200  0.00018300  0.99980100  1
  Ni  Ni2  1  0.49985500  0.49987500  0.00016800  1
  Sn  Sn0  1  0.00033300  0.00034000  0.99957400  1
  O  O0  1  0.99225100  0.99417000  0.27402300  1
  O  O1  1  0.00746300  0.50489000  0.24475900  1
  O  O2  1  0.50406700  0.00149500  0.24867600  1
  O  O3  1  0.00758100  0.00566100  0.72621600  1
  O  O4  1  0.50238000  0.50307300  0.25140400  1
  O  O5  1  0.99245000  0.49510600  0.75531200  1
  O  O6  1  0.49593100  0.99841200  0.75139600  1
  O  O7  1  0.49758000  0.49687400  0.74864000  1
loop_
_geom_bond_atom_site_label_1
_geom_bond_atom_site_label_2
_geom_bond_distance
_geom_bond_site_symmetry_2
Li0 O6 2.133398 1_555
Li0 O2 2.133798 1_665
Li0 O5 2.136870 1_555
Li0 O1 2.137347 1_665
Li0 O4 2.159651 1_556
Li0 O7 2.159883 1_664
Li1 O2 2.136129 1_556
Li1 O6 2.136219 1_654
Li1 O7 2.149952 1_555
Li1 O4 2.150003 1_655
Li1 O3 2.236954 1_655
Li1 O0 2.237190 1_555
Li2 O1 2.131993 1_556
Li2 O5 2.132072 1_564
Li2 O7 2.157011 1_555
Li2 O4 2.157058 1_565
Li2 O3 2.225027 1_565
Li2 O0 2.225220 1_555
Li3 O2 2.127215 1_565
Li3 O6 2.127243 1_545
Li3 O1 2.143753 1_655
Li3 O5 2.143798 1_455
Li3 O3 2.275665 1_664
Li3 O0 2.276178 1_446
Ni0 O3 1.995337 1_565
Ni0 O0 1.995783 1_446
Ni0 O7 2.059523 1_555
Ni0 O4 2.060492 1_456
Ni0 O2 2.110907 1_565
Ni0 O6 2.112153 1_446
Ni1 O3 2.000251 1_655
Ni1 O0 2.000343 1_446
Ni1 O7 2.060553 1_555
Ni1 O4 2.061400 1_546
Ni1 O1 2.115622 1_655
Ni1 O5 2.116804 1_446
Ni2 O3 1.984104 1_555
Ni2 O0 1.984119 1_554
Ni2 O1 2.064691 1_555
Ni2 O5 2.065197 1_554
Ni2 O2 2.089567 1_555
Ni2 O6 2.089871 1_554
O1 Sn0 2.080695 1_564
O2 Sn0 2.075494 1_654
O4 Sn0 2.088619 1_555
O5 Sn0 2.079556 1_655
O6 Sn0 2.074398 1_565
O7 Sn0 2.090183 1_664
