# generated using pymatgen
data_Na5Ni2P2(CO7)2
_symmetry_space_group_name_H-M   'P 1'
_cell_length_a   6.63543600
_cell_length_b   5.19858400
_cell_length_c   17.64704969
_cell_angle_alpha   88.33421513
_cell_angle_beta   90.00000000
_cell_angle_gamma   90.00000000
_symmetry_Int_Tables_number   1
_chemical_formula_structural   Na5Ni2P2(CO7)2
_chemical_formula_sum   'Na10 Ni4 P4 C4 O28'
_cell_volume   608.47545799
_cell_formula_units_Z   2
loop_
 _symmetry_equiv_pos_site_id
 _symmetry_equiv_pos_as_xyz
  1  'x, y, z'
loop_
 _atom_site_type_symbol
 _atom_site_label
 _atom_site_symmetry_multiplicity
 _atom_site_fract_x
 _atom_site_fract_y
 _atom_site_fract_z
 _atom_site_occupancy
  Na  Na0  1  0.01371400  0.25448100  0.88342300  1
  Na  Na1  1  0.48628600  0.25448100  0.88342300  1
  Na  Na2  1  0.51371400  0.74551900  0.11657700  1
  Na  Na3  1  0.98628600  0.74551900  0.11657700  1
  Na  Na4  1  0.25000000  0.77696800  0.28976600  1
  Na  Na5  1  0.00725100  0.25451200  0.38285200  1
  Na  Na6  1  0.49274900  0.25451200  0.38285200  1
  Na  Na7  1  0.50725100  0.74548800  0.61714800  1
  Na  Na8  1  0.99274900  0.74548800  0.61714800  1
  Na  Na9  1  0.75000000  0.22303200  0.71023400  1
  Ni  Ni0  1  0.75000000  0.77752700  0.92260000  1
  Ni  Ni1  1  0.25000000  0.22247300  0.07740000  1
  Ni  Ni2  1  0.75000000  0.77780800  0.42267700  1
  Ni  Ni3  1  0.25000000  0.22219200  0.57732300  1
  P  P0  1  0.25000000  0.71901000  0.95935600  1
  P  P1  1  0.75000000  0.28099000  0.04064400  1
  P  P2  1  0.25000000  0.71981300  0.45944600  1
  P  P3  1  0.75000000  0.28018700  0.54055400  1
  C  C0  1  0.75000000  0.71027300  0.78172500  1
  C  C1  1  0.25000000  0.28972700  0.21827500  1
  C  C2  1  0.75000000  0.71208300  0.28320100  1
  C  C3  1  0.25000000  0.28791700  0.71679900  1
  O  O0  1  0.25000000  0.31727800  0.78725300  1
  O  O1  1  0.75000000  0.93549900  0.81138200  1
  O  O2  1  0.75000000  0.51077600  0.82792200  1
  O  O3  1  0.06265400  0.79111400  0.91105100  1
  O  O4  1  0.43734600  0.79111400  0.91105100  1
  O  O5  1  0.75000000  0.14229200  0.96443300  1
  O  O6  1  0.25000000  0.42172100  0.97656600  1
  O  O7  1  0.75000000  0.57827900  0.02343400  1
  O  O8  1  0.25000000  0.85770800  0.03556700  1
  O  O9  1  0.56265400  0.20888600  0.08894900  1
  O  O10  1  0.93734600  0.20888600  0.08894900  1
  O  O11  1  0.25000000  0.48922400  0.17207800  1
  O  O12  1  0.25000000  0.06450100  0.18861800  1
  O  O13  1  0.75000000  0.68272200  0.21274700  1
  O  O14  1  0.25000000  0.31376600  0.29061700  1
  O  O15  1  0.75000000  0.93769700  0.31285200  1
  O  O16  1  0.75000000  0.51945700  0.33229500  1
  O  O17  1  0.06442800  0.78770600  0.40907600  1
  O  O18  1  0.43557200  0.78770600  0.40907600  1
  O  O19  1  0.75000000  0.13604300  0.46540500  1
  O  O20  1  0.25000000  0.42439800  0.47861900  1
  O  O21  1  0.75000000  0.57560200  0.52138100  1
  O  O22  1  0.25000000  0.86395700  0.53459500  1
  O  O23  1  0.56442800  0.21229400  0.59092400  1
  O  O24  1  0.93557200  0.21229400  0.59092400  1
  O  O25  1  0.25000000  0.48054300  0.66770500  1
  O  O26  1  0.25000000  0.06230300  0.68714800  1
  O  O27  1  0.75000000  0.68623400  0.70938300  1
loop_
_geom_bond_atom_site_label_1
_geom_bond_atom_site_label_2
_geom_bond_distance
_geom_bond_site_symmetry_2
Na0 O5 2.323230 1_455
Na0 O0 2.326533 1_555
Na0 O2 2.391783 1_455
Na0 O6 2.449264 1_555
Na0 O3 2.465249 1_545
Na0 O1 2.747837 1_445
Na0 O3 2.864410 1_555
Na1 O5 2.323230 1_555
Na1 O0 2.326533 1_555
Na1 O2 2.391783 1_555
Na1 O6 2.449264 1_555
Na1 O4 2.465249 1_545
Na1 O1 2.747837 1_545
Na1 O4 2.864410 1_555
Na2 O8 2.323230 1_555
Na2 O13 2.326533 1_555
Na2 O11 2.391783 1_555
Na2 O7 2.449264 1_555
Na2 O9 2.465249 1_565
Na2 O12 2.747837 1_565
Na2 O9 2.864410 1_555
Na3 O8 2.323230 1_655
Na3 O13 2.326533 1_555
Na3 O11 2.391783 1_655
Na3 O7 2.449264 1_555
Na3 O10 2.465249 1_565
Na3 O12 2.747837 1_665
Na3 O10 2.864410 1_555
Na4 O12 2.294623 1_565
Na4 O14 2.407605 1_555
Na4 O18 2.441143 1_555
Na4 O17 2.441143 1_555
Na4 O11 2.594515 1_555
Na4 O14 2.791066 1_565
Na5 O14 2.304250 1_555
Na5 O19 2.315859 1_455
Na5 O16 2.352735 1_455
Na5 O17 2.486329 1_545
Na5 O20 2.513439 1_555
Na5 O15 2.696398 1_445
Na5 O17 2.848834 1_555
Na6 O14 2.304250 1_555
Na6 O19 2.315859 1_555
Na6 O16 2.352735 1_555
Na6 O18 2.486329 1_545
Na6 O20 2.513439 1_555
Na6 O15 2.696398 1_545
Na6 O18 2.848834 1_555
Na7 O27 2.304250 1_555
Na7 O22 2.315859 1_555
Na7 O25 2.352735 1_555
Na7 O23 2.486329 1_565
Na7 O21 2.513439 1_555
Na7 O26 2.696398 1_565
Na7 O23 2.848834 1_555
Na8 O27 2.304250 1_555
Na8 O22 2.315859 1_655
Na8 O25 2.352735 1_655
Na8 O24 2.486329 1_565
Na8 O21 2.513439 1_555
Na8 O26 2.696398 1_665
Na8 O24 2.848834 1_555
Na9 O1 2.294623 1_545
Na9 O27 2.407605 1_555
Na9 O24 2.441143 1_555
Na9 O23 2.441143 1_555
Na9 O2 2.594515 1_555
Na9 O27 2.791066 1_545
Ni0 O7 2.032753 1_556
Ni0 O5 2.054794 1_565
Ni0 O3 2.085578 1_655
Ni0 O4 2.085578 1_555
Ni0 O1 2.105418 1_555
Ni0 O2 2.202100 1_555
Ni1 O6 2.032753 1_554
Ni1 O8 2.054794 1_545
Ni1 O10 2.085578 1_455
Ni1 O9 2.085578 1_555
Ni1 O12 2.105418 1_555
Ni1 O11 2.202100 1_555
Ni2 O21 2.008115 1_555
Ni2 O19 2.029386 1_565
Ni2 O15 2.086483 1_555
Ni2 O17 2.100587 1_655
Ni2 O18 2.100587 1_555
Ni2 O16 2.114781 1_555
Ni3 O20 2.008115 1_555
Ni3 O22 2.029386 1_545
Ni3 O26 2.086483 1_555
Ni3 O23 2.100587 1_555
Ni3 O24 2.100587 1_455
Ni3 O25 2.114781 1_555
C0 O27 1.286335 1_555
C0 O1 1.296316 1_555
C0 O2 1.300401 1_555
C1 O14 1.286335 1_555
C1 O12 1.296316 1_555
C1 O11 1.300401 1_555
C2 O13 1.257036 1_555
C2 O15 1.298116 1_555
C2 O16 1.304958 1_555
C3 O0 1.257036 1_555
C3 O26 1.298116 1_555
C3 O25 1.304958 1_555
O3 P0 1.547235 1_555
O4 P0 1.547235 1_555
O5 P1 1.544351 1_556
O6 P0 1.566353 1_555
O7 P1 1.566353 1_555
O8 P0 1.544351 1_554
O9 P1 1.547235 1_555
O10 P1 1.547235 1_555
O17 P2 1.553277 1_555
O18 P2 1.553277 1_555
O19 P3 1.542073 1_555
O20 P2 1.562935 1_555
O21 P3 1.562935 1_555
O22 P2 1.542073 1_555
O23 P3 1.553277 1_555
O24 P3 1.553277 1_555
