# generated using pymatgen
data_LiMn2(BO3)2
_symmetry_space_group_name_H-M   'P 1'
_cell_length_a   5.25285507
_cell_length_b   13.93360167
_cell_length_c   11.59501522
_cell_angle_alpha   66.23360605
_cell_angle_beta   77.71884092
_cell_angle_gamma   90.88920090
_symmetry_Int_Tables_number   1
_chemical_formula_structural   LiMn2(BO3)2
_chemical_formula_sum   'Li6 Mn12 B12 O36'
_cell_volume   754.03063581
_cell_formula_units_Z   6
loop_
 _symmetry_equiv_pos_site_id
 _symmetry_equiv_pos_as_xyz
  1  'x, y, z'
loop_
 _atom_site_type_symbol
 _atom_site_label
 _atom_site_symmetry_multiplicity
 _atom_site_fract_x
 _atom_site_fract_y
 _atom_site_fract_z
 _atom_site_occupancy
  Li  Li0  1  0.22684600  0.62334700  0.23003900  1
  Li  Li1  1  0.25637200  0.89614400  0.76564200  1
  Li  Li2  1  0.42950800  0.70651800  0.43660000  1
  Li  Li3  1  0.41165000  0.43081600  0.89407400  1
  Li  Li4  1  0.59025900  0.28408500  0.54248100  1
  Li  Li5  1  0.75467500  0.10825900  0.22914200  1
  Mn  Mn0  1  0.00977700  0.82620100  0.29980600  1
  Mn  Mn1  1  0.07227800  0.43726700  0.18462500  1
  Mn  Mn2  1  0.33784500  0.84518000  0.02356400  1
  Mn  Mn3  1  0.29516000  0.24512100  0.12831600  1
  Mn  Mn4  1  0.34430200  0.47578200  0.63855500  1
  Mn  Mn5  1  0.39670900  0.09493300  0.52029300  1
  Mn  Mn6  1  0.59570500  0.89186500  0.48001600  1
  Mn  Mn7  1  0.66791400  0.51718000  0.35482500  1
  Mn  Mn8  1  0.73608300  0.76040400  0.85641000  1
  Mn  Mn9  1  0.67589500  0.14160500  0.97723200  1
  Mn  Mn10  1  0.95395100  0.57158800  0.79132100  1
  Mn  Mn11  1  0.99505900  0.16735800  0.69776100  1
  B  B0  1  0.10335500  0.39910000  0.47941600  1
  B  B1  1  0.15742400  0.02442900  0.35443300  1
  B  B2  1  0.18293900  0.66480900  0.96502400  1
  B  B3  1  0.55984000  0.92344700  0.20206900  1
  B  B4  1  0.23380400  0.25101400  0.87160300  1
  B  B5  1  0.51214200  0.32391500  0.29900300  1
  B  B6  1  0.48474400  0.65955300  0.69631200  1
  B  B7  1  0.76096500  0.73740400  0.13534300  1
  B  B8  1  0.43577500  0.07256700  0.78842300  1
  B  B9  1  0.84006200  0.34827700  0.01819000  1
  B  B10  1  0.82906100  0.98421000  0.64233100  1
  B  B11  1  0.89527100  0.59964000  0.52541900  1
  O  O0  1  0.00621100  0.75859800  0.15515200  1
  O  O1  1  0.08407000  0.36421500  0.04397500  1
  O  O2  1  0.01239000  0.92779400  0.40035900  1
  O  O3  1  0.06116200  0.47563100  0.36502600  1
  O  O4  1  0.08718300  0.11408300  0.26940700  1
  O  O5  1  0.06873900  0.67995500  0.43291800  1
  O  O6  1  0.21355800  0.59155600  0.07751200  1
  O  O7  1  0.35632900  0.89635700  0.15448500  1
  O  O8  1  0.04539600  0.19922900  0.84304800  1
  O  O9  1  0.31975700  0.31983600  0.23431400  1
  O  O10  1  0.34774000  0.41509200  0.51193500  1
  O  O11  1  0.39180000  0.03027400  0.39871700  1
  O  O12  1  0.30093900  0.97779500  0.86366100  1
  O  O13  1  0.43032400  0.73882800  0.59554000  1
  O  O14  1  0.34156600  0.55518600  0.75080200  1
  O  O15  1  0.58332200  0.65811800  0.23000200  1
  O  O16  1  0.70437300  0.80089100  0.01680500  1
  O  O17  1  0.31467900  0.76952000  0.91086500  1
  O  O18  1  0.37691700  0.14099300  0.66651900  1
  O  O19  1  0.60299100  0.84787500  0.31774700  1
  O  O20  1  0.35217200  0.34983100  0.79332000  1
  O  O21  1  0.29666100  0.19590900  0.99165200  1
  O  O22  1  0.70021900  0.24611800  0.08454300  1
  O  O23  1  0.54071800  0.23915400  0.40603500  1
  O  O24  1  0.66657000  0.41770700  0.25741000  1
  O  O25  1  0.69529100  0.02028400  0.14350400  1
  O  O26  1  0.58647500  0.97089300  0.61180600  1
  O  O27  1  0.64839800  0.57768200  0.50531300  1
  O  O28  1  0.67482800  0.66577800  0.75956700  1
  O  O29  1  0.64320500  0.11463200  0.81498500  1
  O  O30  1  0.74640800  0.42960400  0.93241400  1
  O  O31  1  0.93605200  0.31148900  0.55935300  1
  O  O32  1  0.93355300  0.89964300  0.71458500  1
  O  O33  1  0.95692500  0.53240200  0.64279700  1
  O  O34  1  0.96214000  0.08690200  0.59204300  1
  O  O35  1  0.01868100  0.65183900  0.89104300  1
loop_
_geom_bond_atom_site_label_1
_geom_bond_atom_site_label_2
_geom_bond_distance
_geom_bond_site_symmetry_2
Li0 O15 1.926753 1_555
Li0 O6 2.002963 1_555
Li0 O3 2.052271 1_555
Li0 O0 2.196725 1_555
Li1 O32 1.906486 1_455
Li1 O12 1.946272 1_555
Li1 O17 1.970696 1_555
Li1 O26 2.098545 1_555
Li2 O5 1.937905 1_555
Li2 O19 1.957348 1_555
Li2 O13 2.066651 1_555
Li2 O27 2.116683 1_555
Li3 O30 1.901955 1_555
Li3 O14 1.964149 1_555
Li3 O20 1.985597 1_555
Li3 O1 2.054536 1_556
Li4 O31 1.916568 1_555
Li4 O23 1.982702 1_555
Li4 O18 2.057488 1_555
Li4 O10 2.196226 1_555
Li5 O4 1.910044 1_655
Li5 O25 1.920128 1_555
Li5 O22 2.051314 1_555
Li5 O11 2.302025 1_555
Mn0 O5 2.078080 1_555
Mn0 O7 2.102578 1_555
Mn0 O19 2.140538 1_455
Mn0 O2 2.167905 1_555
Mn0 O0 2.233180 1_555
Mn1 O6 2.030075 1_555
Mn1 O9 2.079410 1_555
Mn1 O24 2.087980 1_455
Mn1 O1 2.235288 1_555
Mn1 O3 2.348368 1_555
Mn2 O7 1.937880 1_555
Mn2 O17 2.001948 1_554
Mn2 O16 2.026198 1_555
Mn2 O0 2.034314 1_555
Mn2 O12 2.071763 1_554
Mn3 O9 1.925024 1_555
Mn3 O21 1.962632 1_554
Mn3 O4 1.993418 1_555
Mn3 O1 2.037131 1_555
Mn3 O22 2.078210 1_555
Mn4 O20 1.948654 1_555
Mn4 O10 1.964891 1_555
Mn4 O27 2.016449 1_555
Mn4 O14 2.017766 1_555
Mn4 O33 2.191779 1_455
Mn5 O23 1.935510 1_555
Mn5 O11 1.959064 1_555
Mn5 O18 2.025223 1_555
Mn5 O26 2.032717 1_545
Mn5 O34 2.241567 1_455
Mn6 O13 2.059401 1_555
Mn6 O2 2.151222 1_655
Mn6 O11 2.187104 1_565
Mn6 O19 2.194739 1_555
Mn6 O26 2.208252 1_555
Mn7 O15 2.039217 1_555
Mn7 O24 2.112315 1_555
Mn7 O3 2.168416 1_655
Mn7 O10 2.168925 1_555
Mn7 O27 2.208644 1_555
Mn8 O32 2.045614 1_555
Mn8 O28 2.106343 1_555
Mn8 O35 2.118201 1_655
Mn8 O16 2.126393 1_556
Mn8 O17 2.189405 1_555
Mn9 O25 2.011698 1_556
Mn9 O29 2.101230 1_555
Mn9 O8 2.119589 1_655
Mn9 O21 2.139122 1_555
Mn9 O22 2.281998 1_556
Mn10 O35 1.974971 1_655
Mn10 O28 1.976764 1_555
Mn10 O33 2.002706 1_555
Mn10 O14 2.027964 1_655
Mn10 O30 2.084326 1_555
Mn11 O29 1.971664 1_555
Mn11 O8 1.973282 1_655
Mn11 O34 1.995242 1_555
Mn11 O18 2.027463 1_655
Mn11 O31 2.082763 1_555
B0 O31 1.352704 1_455
B0 O3 1.392062 1_555
B0 O10 1.450696 1_555
B1 O4 1.358305 1_555
B1 O2 1.376449 1_545
B1 O11 1.444136 1_555
B2 O6 1.337970 1_556
B2 O35 1.395687 1_555
B2 O17 1.430812 1_555
B3 O25 1.346881 1_565
B3 O19 1.399134 1_555
B3 O7 1.412776 1_555
B4 O20 1.353618 1_555
B4 O8 1.385469 1_555
B4 O21 1.406441 1_555
B5 O23 1.364149 1_555
B5 O24 1.375195 1_555
B5 O9 1.393604 1_555
B6 O13 1.333684 1_555
B6 O28 1.379335 1_555
B6 O14 1.450137 1_555
B7 O15 1.360452 1_555
B7 O16 1.400712 1_555
B7 O0 1.402950 1_655
B8 O12 1.336431 1_545
B8 O29 1.376247 1_555
B8 O18 1.453052 1_555
B9 O30 1.353637 1_554
B9 O1 1.410413 1_655
B9 O22 1.414964 1_555
B10 O32 1.345963 1_555
B10 O34 1.413901 1_565
B10 O26 1.421594 1_555
B11 O5 1.348383 1_655
B11 O27 1.415417 1_555
B11 O33 1.415670 1_555
