# generated using pymatgen
data_Mg(Fe5O8)2
_symmetry_space_group_name_H-M   'P 1'
_cell_length_a   10.21391401
_cell_length_b   10.21391401
_cell_length_c   10.21391386
_cell_angle_alpha   33.97571970
_cell_angle_beta   33.97571970
_cell_angle_gamma   33.97572243
_symmetry_Int_Tables_number   1
_chemical_formula_structural   Mg(Fe5O8)2
_chemical_formula_sum   'Mg1 Fe10 O16'
_cell_volume   296.61793757
_cell_formula_units_Z   1
loop_
 _symmetry_equiv_pos_site_id
 _symmetry_equiv_pos_as_xyz
  1  'x, y, z'
loop_
 _atom_site_type_symbol
 _atom_site_label
 _atom_site_symmetry_multiplicity
 _atom_site_fract_x
 _atom_site_fract_y
 _atom_site_fract_z
 _atom_site_occupancy
  Mg  Mg0  1  0.19090100  0.19090100  0.19090100  1
  Fe  Fe0  1  0.50271000  0.50271000  0.50271000  1
  Fe  Fe1  1  0.75216100  0.25016200  0.75216100  1
  Fe  Fe2  1  0.25016200  0.75216100  0.75216100  1
  Fe  Fe3  1  0.68758500  0.68758500  0.68758500  1
  Fe  Fe4  1  0.75216100  0.75216100  0.25016200  1
  Fe  Fe5  1  0.30718800  0.30718800  0.30718800  1
  Fe  Fe6  1  0.75565300  0.24245700  0.24245700  1
  Fe  Fe7  1  0.24245700  0.75565300  0.24245700  1
  Fe  Fe8  1  0.24245700  0.24245700  0.75565300  1
  Fe  Fe9  1  0.81259400  0.81259400  0.81259400  1
  O  O0  1  0.39637000  0.84618600  0.39637000  1
  O  O1  1  0.84618600  0.39637000  0.39637000  1
  O  O2  1  0.62048000  0.62048000  0.62048000  1
  O  O3  1  0.39637000  0.39637000  0.84618600  1
  O  O4  1  0.11187200  0.11187200  0.62807900  1
  O  O5  1  0.87925200  0.87925200  0.87925200  1
  O  O6  1  0.62807900  0.11187200  0.11187200  1
  O  O7  1  0.11187200  0.62807900  0.11187200  1
  O  O8  1  0.87937500  0.38194900  0.87937500  1
  O  O9  1  0.38194900  0.87937500  0.87937500  1
  O  O10  1  0.12058000  0.12058000  0.12058000  1
  O  O11  1  0.87937500  0.87937500  0.38194900  1
  O  O12  1  0.37695100  0.37695100  0.37695100  1
  O  O13  1  0.61316600  0.61316600  0.14892700  1
  O  O14  1  0.61316600  0.14892700  0.61316600  1
  O  O15  1  0.14892700  0.61316600  0.61316600  1
loop_
_geom_bond_atom_site_label_1
_geom_bond_atom_site_label_2
_geom_bond_distance
_geom_bond_site_symmetry_2
Mg0 O3 1.999921 1_554
Mg0 O1 1.999921 1_455
Mg0 O0 1.999921 1_545
Mg0 O10 2.028431 1_555
Fe0 O3 1.996018 1_555
Fe0 O0 1.996018 1_555
Fe0 O1 1.996018 1_555
Fe0 O13 2.047244 1_555
Fe0 O14 2.047244 1_555
Fe0 O15 2.047244 1_555
Fe1 O6 1.933678 1_556
Fe1 O4 1.933678 1_655
Fe1 O1 1.986978 1_555
Fe1 O3 1.986978 1_555
Fe1 O2 2.012421 1_555
Fe1 O5 2.050475 1_545
Fe2 O7 1.933678 1_556
Fe2 O4 1.933678 1_565
Fe2 O0 1.986978 1_555
Fe2 O3 1.986978 1_555
Fe2 O2 2.012421 1_555
Fe2 O5 2.050475 1_455
Fe3 O11 1.870732 1_555
Fe3 O8 1.870732 1_555
Fe3 O9 1.870732 1_555
Fe3 O2 1.935664 1_555
Fe4 O7 1.933678 1_655
Fe4 O6 1.933678 1_565
Fe4 O1 1.986978 1_555
Fe4 O0 1.986978 1_555
Fe4 O2 2.012421 1_555
Fe4 O5 2.050475 1_554
Fe5 O4 1.900968 1_555
Fe5 O6 1.900969 1_555
Fe5 O7 1.900969 1_555
Fe5 O12 2.012335 1_555
Fe6 O8 1.957042 1_554
Fe6 O11 1.957042 1_545
Fe6 O10 2.042371 1_655
Fe6 O12 2.059140 1_555
Fe6 O14 2.129455 1_555
Fe6 O13 2.129455 1_555
Fe7 O9 1.957042 1_554
Fe7 O11 1.957042 1_455
Fe7 O10 2.042371 1_565
Fe7 O12 2.059140 1_555
Fe7 O15 2.129455 1_555
Fe7 O13 2.129455 1_555
Fe8 O9 1.957042 1_545
Fe8 O8 1.957042 1_455
Fe8 O10 2.042371 1_556
Fe8 O12 2.059139 1_555
Fe8 O14 2.129455 1_555
Fe8 O15 2.129455 1_555
Fe9 O5 1.922770 1_555
Fe9 O13 1.941563 1_556
Fe9 O15 1.941563 1_655
Fe9 O14 1.941563 1_565
