# generated using pymatgen
data_Li2Mn3SbO8
_symmetry_space_group_name_H-M   'P 1'
_cell_length_a   8.64592100
_cell_length_b   8.64592100
_cell_length_c   8.64592100
_cell_angle_alpha   90.00000000
_cell_angle_beta   90.00000000
_cell_angle_gamma   90.00000000
_symmetry_Int_Tables_number   1
_chemical_formula_structural   Li2Mn3SbO8
_chemical_formula_sum   'Li8 Mn12 Sb4 O32'
_cell_volume   646.29945376
_cell_formula_units_Z   4
loop_
 _symmetry_equiv_pos_site_id
 _symmetry_equiv_pos_as_xyz
  1  'x, y, z'
loop_
 _atom_site_type_symbol
 _atom_site_label
 _atom_site_symmetry_multiplicity
 _atom_site_fract_x
 _atom_site_fract_y
 _atom_site_fract_z
 _atom_site_occupancy
  Li  Li0  1  0.00747000  0.00747000  0.00747000  1
  Li  Li1  1  0.24253000  0.24253000  0.24253000  1
  Li  Li2  1  0.25747000  0.75747000  0.74253000  1
  Li  Li3  1  0.49253000  0.99253000  0.50747000  1
  Li  Li4  1  0.50747000  0.49253000  0.99253000  1
  Li  Li5  1  0.74253000  0.25747000  0.75747000  1
  Li  Li6  1  0.75747000  0.74253000  0.25747000  1
  Li  Li7  1  0.99253000  0.50747000  0.49253000  1
  Mn  Mn0  1  0.12386400  0.12613600  0.62500000  1
  Mn  Mn1  1  0.12500000  0.37613600  0.87386400  1
  Mn  Mn2  1  0.12613600  0.62500000  0.12386400  1
  Mn  Mn3  1  0.37386400  0.37500000  0.62386400  1
  Mn  Mn4  1  0.37500000  0.62386400  0.37386400  1
  Mn  Mn5  1  0.37613600  0.87386400  0.12500000  1
  Mn  Mn6  1  0.62386400  0.37386400  0.37500000  1
  Mn  Mn7  1  0.62500000  0.12386400  0.12613600  1
  Mn  Mn8  1  0.62613600  0.87500000  0.87613600  1
  Mn  Mn9  1  0.87386400  0.12500000  0.37613600  1
  Mn  Mn10  1  0.87500000  0.87613600  0.62613600  1
  Mn  Mn11  1  0.87613600  0.62613600  0.87500000  1
  Sb  Sb0  1  0.12500000  0.87500000  0.37500000  1
  Sb  Sb1  1  0.37500000  0.12500000  0.87500000  1
  Sb  Sb2  1  0.62500000  0.62500000  0.62500000  1
  Sb  Sb3  1  0.87500000  0.37500000  0.12500000  1
  O  O0  1  0.10611100  0.10859900  0.37474700  1
  O  O1  1  0.12525300  0.89388900  0.60859900  1
  O  O2  1  0.10769600  0.60769600  0.89230400  1
  O  O3  1  0.14140100  0.14388900  0.87525300  1
  O  O4  1  0.10859900  0.37474700  0.10611100  1
  O  O5  1  0.14230400  0.35769600  0.64230400  1
  O  O6  1  0.12474700  0.64140100  0.35611100  1
  O  O7  1  0.14388900  0.87525300  0.14140100  1
  O  O8  1  0.35611100  0.12474700  0.64140100  1
  O  O9  1  0.37525300  0.35859900  0.85611100  1
  O  O10  1  0.35769600  0.64230400  0.14230400  1
  O  O11  1  0.39140100  0.62525300  0.60611100  1
  O  O12  1  0.35859900  0.85611100  0.37525300  1
  O  O13  1  0.39230400  0.39230400  0.39230400  1
  O  O14  1  0.37474700  0.10611100  0.10859900  1
  O  O15  1  0.39388900  0.89140100  0.87474700  1
  O  O16  1  0.60611100  0.39140100  0.62525300  1
  O  O17  1  0.62525300  0.60611100  0.39140100  1
  O  O18  1  0.60769600  0.89230400  0.10769600  1
  O  O19  1  0.64140100  0.35611100  0.12474700  1
  O  O20  1  0.60859900  0.12525300  0.89388900  1
  O  O21  1  0.64230400  0.14230400  0.35769600  1
  O  O22  1  0.62474700  0.85859900  0.64388900  1
  O  O23  1  0.64388900  0.62474700  0.85859900  1
  O  O24  1  0.85611100  0.37525300  0.35859900  1
  O  O25  1  0.87525300  0.14140100  0.14388900  1
  O  O26  1  0.85769600  0.85769600  0.85769600  1
  O  O27  1  0.89140100  0.87474700  0.39388900  1
  O  O28  1  0.85859900  0.64388900  0.62474700  1
  O  O29  1  0.89230400  0.10769600  0.60769600  1
  O  O30  1  0.87474700  0.39388900  0.89140100  1
  O  O31  1  0.89388900  0.60859900  0.12525300  1
loop_
_geom_bond_atom_site_label_1
_geom_bond_atom_site_label_2
_geom_bond_distance
_geom_bond_site_symmetry_2
Li0 O3 2.009670 1_554
Li0 O25 2.009670 1_455
Li0 O7 2.009670 1_545
Li0 O26 2.242892 1_444
Li1 O0 2.009670 1_555
Li1 O14 2.009670 1_555
Li1 O4 2.009670 1_555
Li1 O13 2.242892 1_555
Li2 O1 2.009670 1_555
Li2 O11 2.009670 1_555
Li2 O15 2.009670 1_555
Li2 O2 2.242892 1_555
Li3 O8 2.009670 1_565
Li3 O12 2.009670 1_555
Li3 O22 2.009670 1_555
Li3 O21 2.242892 1_565
Li4 O19 2.009670 1_556
Li4 O9 2.009670 1_555
Li4 O23 2.009670 1_555
Li4 O10 2.242892 1_556
Li5 O20 2.009670 1_555
Li5 O30 2.009670 1_555
Li5 O16 2.009670 1_555
Li5 O29 2.242892 1_555
Li6 O27 2.009670 1_555
Li6 O31 2.009670 1_555
Li6 O17 2.009670 1_555
Li6 O18 2.242892 1_555
Li7 O6 2.009670 1_655
Li7 O24 2.009670 1_555
Li7 O28 2.009670 1_555
Li7 O5 2.242892 1_655
Mn0 O1 2.013026 1_545
Mn0 O8 2.013026 1_555
Mn0 O5 2.013952 1_555
Mn0 O29 2.013952 1_455
Mn0 O0 2.174398 1_555
Mn0 O3 2.174398 1_555
Mn1 O3 2.013026 1_555
Mn1 O4 2.013026 1_556
Mn1 O5 2.013952 1_555
Mn1 O2 2.013952 1_555
Mn1 O9 2.174398 1_555
Mn1 O30 2.174398 1_455
Mn2 O31 2.013026 1_455
Mn2 O6 2.013026 1_555
Mn2 O2 2.013952 1_554
Mn2 O10 2.013952 1_555
Mn2 O4 2.174398 1_555
Mn2 O7 2.174398 1_555
Mn3 O9 2.013026 1_555
Mn3 O16 2.013026 1_555
Mn3 O5 2.013952 1_555
Mn3 O13 2.013952 1_555
Mn3 O11 2.174398 1_555
Mn3 O8 2.174398 1_555
Mn4 O11 2.013026 1_555
Mn4 O12 2.013026 1_555
Mn4 O10 2.013952 1_555
Mn4 O13 2.013952 1_555
Mn4 O17 2.174398 1_555
Mn4 O6 2.174398 1_555
Mn5 O7 2.013026 1_555
Mn5 O14 2.013026 1_565
Mn5 O18 2.013952 1_555
Mn5 O10 2.013952 1_555
Mn5 O15 2.174398 1_554
Mn5 O12 2.174398 1_555
Mn6 O24 2.013026 1_555
Mn6 O17 2.013026 1_555
Mn6 O21 2.013952 1_555
Mn6 O13 2.013952 1_555
Mn6 O16 2.174398 1_555
Mn6 O19 2.174398 1_555
Mn7 O20 2.013026 1_554
Mn7 O19 2.013026 1_555
Mn7 O18 2.013952 1_545
Mn7 O21 2.013952 1_555
Mn7 O14 2.174398 1_555
Mn7 O25 2.174398 1_555
Mn8 O22 2.013026 1_555
Mn8 O15 2.013026 1_555
Mn8 O26 2.013952 1_555
Mn8 O18 2.013952 1_556
Mn8 O23 2.174398 1_555
Mn8 O20 2.174398 1_565
Mn9 O25 2.013026 1_555
Mn9 O0 2.013026 1_655
Mn9 O21 2.013952 1_555
Mn9 O29 2.013952 1_555
Mn9 O27 2.174398 1_545
Mn9 O24 2.174398 1_555
Mn10 O28 2.013026 1_555
Mn10 O27 2.013026 1_555
Mn10 O26 2.013952 1_555
Mn10 O29 2.013952 1_565
Mn10 O22 2.174398 1_555
Mn10 O1 2.174398 1_655
Mn11 O23 2.013026 1_555
Mn11 O30 2.013026 1_555
Mn11 O26 2.013952 1_555
Mn11 O2 2.013952 1_655
Mn11 O28 2.174398 1_555
Mn11 O31 2.174398 1_556
O0 Sb0 2.026272 1_545
O1 Sb0 2.026272 1_555
O3 Sb1 2.026272 1_555
O4 Sb3 2.026272 1_455
O6 Sb0 2.026272 1_555
O7 Sb0 2.026272 1_555
O8 Sb1 2.026272 1_555
O9 Sb1 2.026272 1_555
O11 Sb2 2.026272 1_555
O12 Sb0 2.026272 1_555
O14 Sb1 2.026272 1_554
O15 Sb1 2.026272 1_565
O16 Sb2 2.026272 1_555
O17 Sb2 2.026272 1_555
O19 Sb3 2.026272 1_555
O20 Sb1 2.026272 1_555
O22 Sb2 2.026272 1_555
O23 Sb2 2.026272 1_555
O24 Sb3 2.026272 1_555
O25 Sb3 2.026272 1_555
O27 Sb0 2.026272 1_655
O28 Sb2 2.026272 1_555
O30 Sb3 2.026272 1_556
O31 Sb3 2.026272 1_555
