# generated using pymatgen
data_LiFeO3
_symmetry_space_group_name_H-M   'P 1'
_cell_length_a   4.90058000
_cell_length_b   4.97252600
_cell_length_c   8.11935700
_cell_angle_alpha   90.00000000
_cell_angle_beta   90.00000000
_cell_angle_gamma   90.00000000
_symmetry_Int_Tables_number   1
_chemical_formula_structural   LiFeO3
_chemical_formula_sum   'Li4 Fe4 O12'
_cell_volume   197.85461430
_cell_formula_units_Z   4
loop_
 _symmetry_equiv_pos_site_id
 _symmetry_equiv_pos_as_xyz
  1  'x, y, z'
loop_
 _atom_site_type_symbol
 _atom_site_label
 _atom_site_symmetry_multiplicity
 _atom_site_fract_x
 _atom_site_fract_y
 _atom_site_fract_z
 _atom_site_occupancy
  Li  Li0  1  0.00000000  0.75000000  0.69687900  1
  Li  Li1  1  0.50000000  0.75000000  0.80312100  1
  Li  Li2  1  0.00000000  0.25000000  0.30312100  1
  Li  Li3  1  0.50000000  0.25000000  0.19687900  1
  Fe  Fe0  1  0.00000000  0.75000000  0.09542000  1
  Fe  Fe1  1  0.50000000  0.75000000  0.40458000  1
  Fe  Fe2  1  0.00000000  0.25000000  0.90458000  1
  Fe  Fe3  1  0.50000000  0.25000000  0.59542000  1
  O  O0  1  0.25000000  0.90315200  0.25000000  1
  O  O1  1  0.30422500  0.92868000  0.58089700  1
  O  O2  1  0.19577500  0.92868000  0.91910300  1
  O  O3  1  0.69577500  0.07132000  0.41910300  1
  O  O4  1  0.80422500  0.07132000  0.08089700  1
  O  O5  1  0.75000000  0.09684800  0.75000000  1
  O  O6  1  0.25000000  0.40315200  0.75000000  1
  O  O7  1  0.19577500  0.42868000  0.08089700  1
  O  O8  1  0.30422500  0.42868000  0.41910300  1
  O  O9  1  0.80422500  0.57132000  0.91910300  1
  O  O10  1  0.69577500  0.57132000  0.58089700  1
  O  O11  1  0.75000000  0.59684800  0.25000000  1
loop_
_geom_bond_atom_site_label_1
_geom_bond_atom_site_label_2
_geom_bond_distance
_geom_bond_site_symmetry_2
Li0 O1 1.974572 1_555
Li0 O10 1.974572 1_455
Li0 O5 2.159082 1_465
Li0 O6 2.159082 1_555
Li0 O9 2.228327 1_455
Li0 O2 2.228327 1_555
Li1 O9 1.974572 1_555
Li1 O2 1.974572 1_555
Li1 O5 2.159082 1_565
Li1 O6 2.159082 1_555
Li1 O10 2.228327 1_555
Li1 O1 2.228327 1_555
Li2 O8 1.974572 1_555
Li2 O3 1.974572 1_455
Li2 O11 2.159082 1_455
Li2 O0 2.159082 1_545
Li2 O7 2.228327 1_555
Li2 O4 2.228327 1_455
Li3 O4 1.974572 1_555
Li3 O7 1.974572 1_555
Li3 O11 2.159082 1_555
Li3 O0 2.159082 1_545
Li3 O3 2.228327 1_555
Li3 O8 2.228327 1_555
Fe0 O7 1.867418 1_555
Fe0 O4 1.867418 1_465
Fe0 O0 1.912118 1_555
Fe0 O11 1.912118 1_455
Fe0 O9 1.938894 1_454
Fe0 O2 1.938894 1_554
Fe1 O3 1.867418 1_565
Fe1 O8 1.867418 1_555
Fe1 O0 1.912118 1_555
Fe1 O11 1.912118 1_555
Fe1 O10 1.938894 1_555
Fe1 O1 1.938894 1_555
Fe2 O2 1.867418 1_545
Fe2 O9 1.867418 1_455
Fe2 O6 1.912118 1_555
Fe2 O5 1.912118 1_455
Fe2 O7 1.938894 1_556
Fe2 O4 1.938894 1_456
Fe3 O10 1.867418 1_555
Fe3 O1 1.867418 1_545
Fe3 O6 1.912118 1_555
Fe3 O5 1.912118 1_555
Fe3 O3 1.938894 1_555
Fe3 O8 1.938894 1_555
