# generated using pymatgen
data_Na(Cu3O4)2
_symmetry_space_group_name_H-M   'P 1'
_cell_length_a   6.38817450
_cell_length_b   6.38822363
_cell_length_c   6.38815769
_cell_angle_alpha   60.00245300
_cell_angle_beta   60.00235682
_cell_angle_gamma   60.00232249
_symmetry_Int_Tables_number   1
_chemical_formula_structural   Na(Cu3O4)2
_chemical_formula_sum   'Na1 Cu6 O8'
_cell_volume   184.34905708
_cell_formula_units_Z   1
loop_
 _symmetry_equiv_pos_site_id
 _symmetry_equiv_pos_as_xyz
  1  'x, y, z'
loop_
 _atom_site_type_symbol
 _atom_site_label
 _atom_site_symmetry_multiplicity
 _atom_site_fract_x
 _atom_site_fract_y
 _atom_site_fract_z
 _atom_site_occupancy
  Na  Na0  1  0.00000003  -0.00000005  0.00000002  1
  Cu  Cu0  1  0.50000013  0.49999995  -0.00000006  1
  Cu  Cu1  1  0.50000021  -0.00000029  -0.00000035  1
  Cu  Cu2  1  -0.00000034  0.49999909  0.00000042  1
  Cu  Cu3  1  -0.00000013  0.00000019  0.50000009  1
  Cu  Cu4  1  0.50000081  0.00000036  0.49999879  1
  Cu  Cu5  1  0.00000031  0.49999970  0.49999981  1
  O  O0  1  0.85512342  0.85512112  0.43462176  1
  O  O1  1  0.14487653  0.14488455  0.14486348  1
  O  O2  1  0.56537776  0.14485758  0.14488103  1
  O  O3  1  0.85514607  0.43462186  0.85512007  1
  O  O4  1  0.43462232  0.85514209  0.85511990  1
  O  O5  1  0.14485418  0.56537802  0.14488060  1
  O  O6  1  0.85512288  0.85511629  0.85513631  1
  O  O7  1  0.14487583  0.14487953  0.56537813  1
loop_
_geom_bond_atom_site_label_1
_geom_bond_atom_site_label_2
_geom_bond_distance
_geom_bond_site_symmetry_2
Na0 O6 2.266931 1_444
Na0 O1 2.266931 1_555
Na0 O0 2.267017 1_445
Na0 O7 2.267017 1_554
Na0 O2 2.267022 1_455
Na0 O4 2.267022 1_544
Na0 O3 2.267040 1_454
Na0 O5 2.267040 1_545
Cu0 O4 1.875526 1_554
Cu0 O2 1.875527 1_555
Cu0 O3 1.875529 1_554
Cu0 O5 1.875529 1_555
Cu1 O4 1.875285 1_544
Cu1 O2 1.875294 1_555
Cu1 O6 1.875418 1_544
Cu1 O1 1.875424 1_555
Cu2 O3 1.875260 1_454
Cu2 O5 1.875272 1_555
Cu2 O1 1.875388 1_555
Cu2 O6 1.875401 1_454
Cu3 O7 1.875385 1_555
Cu3 O0 1.875388 1_445
Cu3 O6 1.875491 1_445
Cu3 O1 1.875493 1_555
Cu4 O2 1.875374 1_555
Cu4 O4 1.875391 1_545
Cu4 O0 1.875403 1_545
Cu4 O7 1.875414 1_555
Cu5 O5 1.875380 1_555
Cu5 O3 1.875386 1_455
Cu5 O7 1.875405 1_555
Cu5 O0 1.875412 1_455
