# generated using pymatgen
data_Zn3Fe15Cu39(Ge3S32)2
_symmetry_space_group_name_H-M   'P 1'
_cell_length_a   10.48795338
_cell_length_b   10.47680648
_cell_length_c   20.97767797
_cell_angle_alpha   89.97705293
_cell_angle_beta   89.72313716
_cell_angle_gamma   89.79752086
_symmetry_Int_Tables_number   1
_chemical_formula_structural   Zn3Fe15Cu39(Ge3S32)2
_chemical_formula_sum   'Zn3 Fe15 Cu39 Ge6 S64'
_cell_volume   2304.99119347
_cell_formula_units_Z   1
loop_
 _symmetry_equiv_pos_site_id
 _symmetry_equiv_pos_as_xyz
  1  'x, y, z'
loop_
 _atom_site_type_symbol
 _atom_site_label
 _atom_site_symmetry_multiplicity
 _atom_site_fract_x
 _atom_site_fract_y
 _atom_site_fract_z
 _atom_site_occupancy
  Zn  Zn0  1  0.00253000  0.01163900  0.99810700  1
  Zn  Zn1  1  0.99730100  0.99561600  0.49424300  1
  Zn  Zn2  1  0.49751400  0.98816600  0.99803100  1
  Fe  Fe0  1  0.99824100  0.49903100  0.25061400  1
  Fe  Fe1  1  0.99972400  0.50000700  0.74981600  1
  Fe  Fe2  1  0.24990300  0.49959100  0.12645700  1
  Fe  Fe3  1  0.25102600  0.50104400  0.62750000  1
  Fe  Fe4  1  0.24894700  0.50055200  0.37253400  1
  Fe  Fe5  1  0.25010000  0.49537700  0.50020100  1
  Fe  Fe6  1  0.25015700  0.49958200  0.87246700  1
  Fe  Fe7  1  0.50096400  0.50073600  0.25041500  1
  Fe  Fe8  1  0.50129600  0.49990300  0.74924100  1
  Fe  Fe9  1  0.74914200  0.99977500  0.24781300  1
  Fe  Fe10  1  0.74925100  0.25535500  0.25043500  1
  Fe  Fe11  1  0.75062700  0.99982900  0.75032300  1
  Fe  Fe12  1  0.75216600  0.25475100  0.74949900  1
  Fe  Fe13  1  0.75080000  0.74353600  0.25049700  1
  Fe  Fe14  1  0.74790800  0.74457800  0.74977900  1
  Cu  Cu0  1  0.00352900  0.99957300  0.25055700  1
  Cu  Cu1  1  0.00687300  0.99299100  0.75090000  1
  Cu  Cu2  1  0.00211000  0.26054500  0.12245400  1
  Cu  Cu3  1  0.00171000  0.25486100  0.62601100  1
  Cu  Cu4  1  0.99582900  0.75149700  0.37480400  1
  Cu  Cu5  1  0.00882000  0.74118700  0.87203900  1
  Cu  Cu6  1  0.24270900  0.25087600  0.99783800  1
  Cu  Cu7  1  0.25052000  0.24543800  0.24952900  1
  Cu  Cu8  1  0.25593600  0.24117300  0.75279700  1
  Cu  Cu9  1  0.25730700  0.74919300  0.99780300  1
  Cu  Cu10  1  0.25071200  0.75270100  0.49932200  1
  Cu  Cu11  1  0.25043800  0.75347000  0.24876600  1
  Cu  Cu12  1  0.24362200  0.75775000  0.75330300  1
  Cu  Cu13  1  0.49171700  0.25863100  0.87226000  1
  Cu  Cu14  1  0.49777700  0.73934900  0.12240500  1
  Cu  Cu15  1  0.49987300  0.25435700  0.37491900  1
  Cu  Cu16  1  0.50495200  0.75278000  0.62577100  1
  Cu  Cu17  1  0.49672400  0.00044600  0.25077000  1
  Cu  Cu18  1  0.49224000  0.00700600  0.75119000  1
  Cu  Cu19  1  0.50247900  0.99824500  0.50449400  1
  Cu  Cu20  1  0.49656000  0.49919200  0.00003100  1
  Cu  Cu21  1  0.50798300  0.50410200  0.49600200  1
  Cu  Cu22  1  0.50112900  0.24989700  0.12775000  1
  Cu  Cu23  1  0.49552100  0.25131600  0.62646200  1
  Cu  Cu24  1  0.49577300  0.74999500  0.87598000  1
  Cu  Cu25  1  0.49928700  0.74122000  0.37466700  1
  Cu  Cu26  1  0.75003900  0.49986300  0.12319500  1
  Cu  Cu27  1  0.74252400  0.99441000  0.62135300  1
  Cu  Cu28  1  0.75609200  0.50368300  0.62026500  1
  Cu  Cu29  1  0.74999500  0.49971900  0.87599800  1
  Cu  Cu30  1  0.74392000  0.50415700  0.37960800  1
  Cu  Cu31  1  0.75010600  0.00007800  0.87695900  1
  Cu  Cu32  1  0.75662300  0.99714500  0.37870100  1
  Cu  Cu33  1  0.00355300  0.25081600  0.37335900  1
  Cu  Cu34  1  0.99850700  0.75030600  0.12772500  1
  Cu  Cu35  1  0.99857200  0.73910000  0.62569300  1
  Cu  Cu36  1  0.00445300  0.24968800  0.87597100  1
  Cu  Cu37  1  0.00353900  0.50075800  0.00004000  1
  Cu  Cu38  1  0.99224800  0.50405600  0.50410900  1
  Ge  Ge0  1  0.24990300  0.99972400  0.12460500  1
  Ge  Ge1  1  0.25522000  0.00179500  0.62436800  1
  Ge  Ge2  1  0.24738500  0.99994100  0.37670900  1
  Ge  Ge3  1  0.75385300  0.24930100  0.00088100  1
  Ge  Ge4  1  0.74856100  0.24921300  0.49920500  1
  Ge  Ge5  1  0.74648400  0.75010600  0.00078500  1
  S  S0  1  0.12941400  0.13161000  0.43709800  1
  S  S1  1  0.12455600  0.87158300  0.06342700  1
  S  S2  1  0.13201800  0.12539700  0.93248900  1
  S  S3  1  0.12401400  0.87280400  0.56577800  1
  S  S4  1  0.12232800  0.12605700  0.18569700  1
  S  S5  1  0.12553400  0.12500200  0.68705000  1
  S  S6  1  0.12444200  0.87184600  0.31283700  1
  S  S7  1  0.12526200  0.87826000  0.81582100  1
  S  S8  1  0.13306900  0.38419100  0.06399800  1
  S  S9  1  0.12986500  0.38606000  0.56607900  1
  S  S10  1  0.12858500  0.61879600  0.43662400  1
  S  S11  1  0.13246500  0.61775000  0.93515700  1
  S  S12  1  0.12453700  0.62307100  0.18826500  1
  S  S13  1  0.12561100  0.37886300  0.31066400  1
  S  S14  1  0.12506800  0.37495100  0.81066600  1
  S  S15  1  0.12667900  0.62162400  0.68976000  1
  S  S16  1  0.37345800  0.62183100  0.31080700  1
  S  S17  1  0.37560900  0.62470400  0.81071800  1
  S  S18  1  0.37409600  0.37866100  0.68971400  1
  S  S19  1  0.37475400  0.37684300  0.18852600  1
  S  S20  1  0.36683600  0.61591100  0.06389600  1
  S  S21  1  0.37147100  0.61841000  0.56369200  1
  S  S22  1  0.37070900  0.38607500  0.43423500  1
  S  S23  1  0.36767200  0.38227600  0.93517900  1
  S  S24  1  0.37490900  0.12576600  0.31412600  1
  S  S25  1  0.37463500  0.12267600  0.81622500  1
  S  S26  1  0.37772500  0.87401600  0.18550900  1
  S  S27  1  0.37613800  0.87184700  0.68869400  1
  S  S28  1  0.37560500  0.12852000  0.06343500  1
  S  S29  1  0.37643300  0.12675700  0.56311300  1
  S  S30  1  0.37987400  0.87445200  0.43645000  1
  S  S31  1  0.36819500  0.87491300  0.93241300  1
  S  S32  1  0.62137700  0.12553700  0.43735300  1
  S  S33  1  0.62273000  0.13217400  0.93598500  1
  S  S34  1  0.62881600  0.87140800  0.06614200  1
  S  S35  1  0.62324000  0.86914600  0.56152100  1
  S  S36  1  0.62324200  0.37370400  0.06221600  1
  S  S37  1  0.62363500  0.37324700  0.56293800  1
  S  S38  1  0.62257900  0.62419400  0.93677900  1
  S  S39  1  0.62746700  0.63330600  0.43866400  1
  S  S40  1  0.62985800  0.13123800  0.19238500  1
  S  S41  1  0.63086900  0.12888300  0.69035300  1
  S  S42  1  0.63058100  0.87154100  0.31031800  1
  S  S43  1  0.62868300  0.87205900  0.80972600  1
  S  S44  1  0.62542400  0.37877600  0.31166400  1
  S  S45  1  0.62513500  0.62242900  0.18982200  1
  S  S46  1  0.62541500  0.62126500  0.68841400  1
  S  S47  1  0.62549900  0.37664300  0.80969900  1
  S  S48  1  0.87491200  0.37735700  0.18994900  1
  S  S49  1  0.87472600  0.62063700  0.31168200  1
  S  S50  1  0.87478200  0.37891100  0.68897700  1
  S  S51  1  0.87422000  0.62328000  0.80978800  1
  S  S52  1  0.86937400  0.12791300  0.30992400  1
  S  S53  1  0.87177000  0.12827200  0.80934500  1
  S  S54  1  0.86937500  0.86912100  0.19194900  1
  S  S55  1  0.86847700  0.87034500  0.68960600  1
  S  S56  1  0.87680800  0.62634400  0.06217300  1
  S  S57  1  0.87059600  0.63422800  0.56069600  1
  S  S58  1  0.87599700  0.37360300  0.43714500  1
  S  S59  1  0.87758800  0.37590800  0.93677900  1
  S  S60  1  0.87107700  0.12871000  0.06614800  1
  S  S61  1  0.87636100  0.12847500  0.56378200  1
  S  S62  1  0.86877200  0.86238200  0.43857000  1
  S  S63  1  0.87774900  0.86813000  0.93575100  1
loop_
_geom_bond_atom_site_label_1
_geom_bond_atom_site_label_2
_geom_bond_distance
_geom_bond_site_symmetry_2
Fe0 S49 2.217212 1_555
Fe0 S48 2.224064 1_555
Fe0 S13 2.226992 1_655
Fe0 S12 2.268943 1_655
Fe1 S51 2.226346 1_555
Fe1 S15 2.231153 1_655
Fe1 S50 2.232658 1_555
Fe1 S14 2.253199 1_655
Fe2 S20 2.169158 1_555
Fe2 S8 2.169612 1_555
Fe2 S12 2.248637 1_555
Fe2 S19 2.251006 1_555
Fe3 S9 2.180371 1_555
Fe3 S21 2.211948 1_555
Fe3 S15 2.230637 1_555
Fe3 S18 2.239772 1_555
Fe4 S22 2.179104 1_555
Fe4 S10 2.215774 1_555
Fe4 S16 2.233955 1_555
Fe4 S13 2.238833 1_555
Fe5 S22 2.190997 1_555
Fe5 S9 2.191757 1_555
Fe5 S10 2.253508 1_555
Fe5 S21 2.255030 1_555
Fe6 S11 2.181879 1_555
Fe6 S23 2.182614 1_555
Fe6 S17 2.263151 1_555
Fe6 S14 2.266442 1_555
Fe7 S45 2.220727 1_555
Fe7 S16 2.230650 1_555
Fe7 S44 2.233945 1_555
Fe7 S19 2.269935 1_555
Fe8 S46 2.221213 1_555
Fe8 S47 2.230643 1_555
Fe8 S18 2.232020 1_555
Fe8 S17 2.254589 1_555
Fe9 S54 2.193622 1_555
Fe9 S40 2.194240 1_565
Fe9 S42 2.250568 1_555
Fe9 S52 2.262574 1_565
Fe10 S40 2.183878 1_555
Fe10 S52 2.220193 1_555
Fe10 S48 2.230503 1_555
Fe10 S44 2.231979 1_555
Fe11 S55 2.228149 1_555
Fe11 S43 2.230655 1_555
Fe11 S53 2.233100 1_565
Fe11 S41 2.233882 1_565
Fe12 S53 2.215321 1_555
Fe12 S41 2.219282 1_555
Fe12 S50 2.225418 1_555
Fe12 S47 2.227908 1_555
Fe13 S54 2.186709 1_555
Fe13 S42 2.221969 1_555
Fe13 S45 2.235247 1_555
Fe13 S49 2.235526 1_555
Fe14 S43 2.214306 1_555
Fe14 S55 2.218913 1_555
Fe14 S51 2.226564 1_555
Fe14 S46 2.237343 1_555
Cu0 S6 2.260174 1_555
Cu0 S4 2.270140 1_565
Cu0 S52 2.304262 1_465
Cu0 S54 2.321810 1_455
Cu1 S7 2.201315 1_555
Cu1 S5 2.291348 1_565
Cu1 S55 2.333180 1_455
Cu1 S53 2.343100 1_465
Cu2 S8 2.250188 1_555
Cu2 S60 2.285153 1_455
Cu2 S48 2.292104 1_455
Cu2 S4 2.310246 1_555
Cu3 S50 2.275543 1_455
Cu3 S5 2.275798 1_555
Cu3 S61 2.283858 1_455
Cu3 S9 2.296066 1_555
Cu4 S62 2.210826 1_555
Cu4 S6 2.256737 1_655
Cu4 S49 2.297006 1_555
Cu4 S10 2.357035 1_655
Cu5 S7 2.222992 1_555
Cu5 S11 2.260665 1_555
Cu5 S51 2.292495 1_455
Cu5 S63 2.327134 1_455
Cu6 S2 2.232232 1_555
Cu6 S8 2.274660 1_556
Cu6 S23 2.309820 1_555
Cu6 S28 2.341802 1_556
Cu7 S24 2.261494 1_555
Cu7 S4 2.279387 1_555
Cu7 S19 2.286003 1_555
Cu7 S13 2.299397 1_555
Cu8 S25 2.205727 1_555
Cu8 S5 2.298997 1_555
Cu8 S14 2.300783 1_555
Cu8 S18 2.314534 1_555
Cu9 S31 2.227783 1_555
Cu9 S20 2.279093 1_556
Cu9 S11 2.317032 1_555
Cu9 S1 2.334106 1_556
Cu10 S30 2.279307 1_555
Cu10 S3 2.294385 1_555
Cu10 S10 2.317130 1_555
Cu10 S21 2.325802 1_555
Cu11 S6 2.250198 1_555
Cu11 S26 2.265287 1_555
Cu11 S12 2.291530 1_555
Cu11 S16 2.294082 1_555
Cu12 S7 2.197617 1_555
Cu12 S27 2.278097 1_555
Cu12 S17 2.304550 1_555
Cu12 S15 2.311875 1_555
Cu13 S25 2.223988 1_555
Cu13 S23 2.255128 1_555
Cu13 S47 2.283170 1_555
Cu13 S33 2.331054 1_555
Cu14 S20 2.257211 1_555
Cu14 S34 2.278706 1_555
Cu14 S45 2.300016 1_555
Cu14 S26 2.302418 1_555
Cu15 S32 2.272294 1_555
Cu15 S44 2.277647 1_555
Cu15 S24 2.277963 1_555
Cu15 S22 2.293395 1_555
Cu16 S35 2.198913 1_555
Cu16 S27 2.257391 1_555
Cu16 S46 2.285576 1_555
Cu16 S21 2.381299 1_555
Cu17 S24 2.257348 1_555
Cu17 S26 2.283865 1_545
Cu17 S40 2.307180 1_555
Cu17 S42 2.314611 1_545
Cu18 S25 2.196751 1_555
Cu18 S27 2.288178 1_545
Cu18 S41 2.316672 1_555
Cu18 S43 2.357075 1_545
Cu19 S35 2.205867 1_555
Cu19 S29 2.246229 1_565
Cu19 S32 2.304467 1_565
Cu19 S30 2.324664 1_555
Cu20 S20 2.261250 1_555
Cu20 S36 2.280019 1_555
Cu20 S23 2.282389 1_554
Cu20 S38 2.283956 1_554
Cu21 S39 2.201275 1_555
Cu21 S22 2.304920 1_555
Cu21 S37 2.307720 1_555
Cu21 S21 2.338802 1_555
Cu22 S19 2.263544 1_555
Cu22 S28 2.280544 1_555
Cu22 S36 2.281654 1_555
Cu22 S40 2.282798 1_555
Cu23 S29 2.248981 1_555
Cu23 S18 2.266164 1_555
Cu23 S37 2.281781 1_555
Cu23 S41 2.336854 1_555
Cu24 S31 2.208654 1_555
Cu24 S38 2.266096 1_555
Cu24 S17 2.283732 1_555
Cu24 S43 2.345781 1_555
Cu25 S39 2.212085 1_555
Cu25 S16 2.265134 1_555
Cu25 S30 2.273780 1_555
Cu25 S42 2.361435 1_555
Cu26 S56 2.270888 1_555
Cu26 S36 2.276411 1_555
Cu26 S45 2.300074 1_555
Cu26 S48 2.308220 1_555
Cu27 S35 2.211535 1_555
Cu27 S61 2.323334 1_565
Cu27 S41 2.329141 1_565
Cu27 S55 2.342900 1_555
Cu28 S57 2.206822 1_555
Cu28 S37 2.296616 1_555
Cu28 S50 2.310927 1_555
Cu28 S46 2.325989 1_555
Cu29 S38 2.254939 1_555
Cu29 S59 2.258754 1_555
Cu29 S51 2.301169 1_555
Cu29 S47 2.309274 1_555
Cu30 S39 2.198251 1_555
Cu30 S58 2.290840 1_555
Cu30 S44 2.309044 1_555
Cu30 S49 2.322342 1_555
Cu31 S33 2.281555 1_555
Cu31 S63 2.285991 1_545
Cu31 S53 2.331721 1_555
Cu31 S43 2.332552 1_545
Cu32 S62 2.226058 1_555
Cu32 S32 2.303524 1_565
Cu32 S52 2.313083 1_565
Cu32 S42 2.359898 1_555
Cu33 S0 2.257012 1_555
Cu33 S13 2.272143 1_555
Cu33 S58 2.281876 1_455
Cu33 S52 2.332697 1_455
Cu34 S12 2.267017 1_655
Cu34 S54 2.273912 1_555
Cu34 S1 2.274791 1_655
Cu34 S56 2.288429 1_555
Cu35 S57 2.212943 1_555
Cu35 S15 2.265110 1_655
Cu35 S3 2.295315 1_655
Cu35 S55 2.349577 1_555
Cu36 S2 2.212032 1_555
Cu36 S59 2.262469 1_455
Cu36 S14 2.278775 1_555
Cu36 S53 2.353885 1_455
Cu37 S8 2.267531 1_555
Cu37 S56 2.273532 1_455
Cu37 S11 2.275056 1_554
Cu37 S59 2.290754 1_454
Cu38 S57 2.207095 1_555
Cu38 S9 2.303393 1_655
Cu38 S58 2.314665 1_555
Cu38 S10 2.342016 1_655
Ge0 S4 2.270850 1_565
Ge0 S26 2.273054 1_555
Ge0 S28 2.280420 1_565
Ge0 S1 2.282059 1_555
Ge1 S29 2.230690 1_555
Ge1 S5 2.284048 1_555
Ge1 S3 2.293771 1_545
Ge1 S27 2.299038 1_545
Ge2 S0 2.238931 1_565
Ge2 S30 2.287464 1_555
Ge2 S24 2.290033 1_565
Ge2 S6 2.299848 1_555
Ge3 S60 2.232980 1_555
Ge3 S36 2.280872 1_555
Ge3 S59 2.290339 1_554
Ge3 S33 2.298196 1_554
Ge4 S37 2.272716 1_555
Ge4 S32 2.274209 1_555
Ge4 S58 2.274580 1_555
Ge4 S61 2.288231 1_555
Ge5 S34 2.234229 1_555
Ge5 S56 2.282761 1_555
Ge5 S38 2.293934 1_554
Ge5 S63 2.297393 1_554
S0 Zn1 2.320228 1_445
S1 Zn0 2.381316 1_564
S2 Zn0 2.269719 1_555
S3 Zn1 2.383114 1_455
S28 Zn2 2.377149 1_544
S31 Zn2 2.274400 1_555
S33 Zn2 2.385578 1_545
S34 Zn2 2.332365 1_554
S60 Zn0 2.326554 1_654
S61 Zn1 2.376053 1_545
S62 Zn1 2.271421 1_555
S63 Zn0 2.390891 1_665
