# generated using pymatgen
data_V5Te(PO4)6
_symmetry_space_group_name_H-M   'P 1'
_cell_length_a   8.58753158
_cell_length_b   8.70842447
_cell_length_c   8.70842431
_cell_angle_alpha   59.99999929
_cell_angle_beta   59.53320952
_cell_angle_gamma   59.53321107
_symmetry_Int_Tables_number   1
_chemical_formula_structural   V5Te(PO4)6
_chemical_formula_sum   'V5 Te1 P6 O24'
_cell_volume   457.22717670
_cell_formula_units_Z   1
loop_
 _symmetry_equiv_pos_site_id
 _symmetry_equiv_pos_as_xyz
  1  'x, y, z'
loop_
 _atom_site_type_symbol
 _atom_site_label
 _atom_site_symmetry_multiplicity
 _atom_site_fract_x
 _atom_site_fract_y
 _atom_site_fract_z
 _atom_site_occupancy
  V  V0  1  0.01008500  0.99663800  0.99663800  1
  V  V1  1  0.06768300  0.64410600  0.64410600  1
  V  V2  1  0.49585900  0.50138000  0.50138000  1
  V  V3  1  0.43126500  0.85624500  0.85624500  1
  V  V4  1  0.92545900  0.35818000  0.35818000  1
  Te  Te0  1  0.56041400  0.14652900  0.14652900  1
  P  P0  1  0.24170600  0.25176900  0.55698500  1
  P  P1  1  0.24170600  0.94954100  0.25176900  1
  P  P2  1  0.24170600  0.55698500  0.94954100  1
  P  P3  1  0.75200900  0.46312200  0.04315100  1
  P  P4  1  0.75200900  0.04315100  0.74171900  1
  P  P5  1  0.75200900  0.74171900  0.46312200  1
  O  O0  1  0.07223000  0.11531700  0.30695900  1
  O  O1  1  0.07223000  0.50549500  0.11531700  1
  O  O2  1  0.07223000  0.30695900  0.50549500  1
  O  O3  1  0.22268400  0.09060700  0.75189700  1
  O  O4  1  0.43705400  0.18451300  0.40778900  1
  O  O5  1  0.26390800  0.41048000  0.57299900  1
  O  O6  1  0.22268400  0.93481300  0.09060700  1
  O  O7  1  0.26390800  0.75261400  0.41048000  1
  O  O8  1  0.56947900  0.61157400  0.00163600  1
  O  O9  1  0.26390800  0.57299900  0.75261400  1
  O  O10  1  0.78836500  0.26034700  0.05264300  1
  O  O11  1  0.56947900  0.00163600  0.81731200  1
  O  O12  1  0.43705400  0.97064300  0.18451300  1
  O  O13  1  0.22268400  0.75189700  0.93481300  1
  O  O14  1  0.72415800  0.44520300  0.24332400  1
  O  O15  1  0.43705400  0.40778900  0.97064300  1
  O  O16  1  0.72415800  0.24332400  0.58731500  1
  O  O17  1  0.78836500  0.05264300  0.89864400  1
  O  O18  1  0.72415800  0.58731500  0.44520300  1
  O  O19  1  0.56947900  0.81731200  0.61157400  1
  O  O20  1  0.78836500  0.89864400  0.26034700  1
  O  O21  1  0.93148700  0.67028800  0.50807700  1
  O  O22  1  0.93148700  0.50807700  0.89014900  1
  O  O23  1  0.93148700  0.89014900  0.67028800  1
loop_
_geom_bond_atom_site_label_1
_geom_bond_atom_site_label_2
_geom_bond_distance
_geom_bond_site_symmetry_2
O0 P1 1.512324 1_545
O0 V4 1.982587 1_455
O1 P2 1.512324 1_554
O1 V4 1.982595 1_455
O2 P0 1.512324 1_555
O2 V4 1.982602 1_455
O3 P0 1.564159 1_555
O3 V3 2.070828 1_545
O3 V0 2.090537 1_545
O4 P0 1.549080 1_555
O4 Te0 2.088327 1_555
O5 P0 1.566205 1_555
O5 V1 2.021708 1_555
O5 V2 2.197424 1_555
O6 P1 1.564159 1_555
O6 V3 2.070831 1_554
O6 V0 2.090544 1_554
O7 P1 1.566205 1_555
O7 V1 2.021708 1_555
O7 V2 2.197431 1_555
O8 P3 1.520309 1_555
O8 V3 1.952785 1_554
O9 P2 1.566205 1_555
O9 V1 2.021708 1_555
O9 V2 2.197436 1_555
O10 P3 1.594887 1_555
O10 V0 2.209356 1_644
O10 Te0 2.239872 1_555
O11 P4 1.520309 1_555
O11 V3 1.952789 1_545
O12 P1 1.549072 1_555
O12 Te0 2.088343 1_565
O13 P2 1.564159 1_555
O13 V3 2.070825 1_555
O13 V0 2.090532 1_555
O14 P3 1.569493 1_555
O14 V4 2.056690 1_555
O14 V2 2.189088 1_555
O15 P2 1.549076 1_555
O15 Te0 2.088335 1_556
O16 P4 1.569496 1_555
O16 V4 2.056692 1_555
O16 V2 2.189091 1_555
O17 P4 1.594870 1_555
O17 V0 2.209356 1_645
O17 Te0 2.239884 1_556
O18 P5 1.569501 1_555
O18 V4 2.056696 1_555
O18 V2 2.189094 1_555
O19 P5 1.520309 1_555
O19 V3 1.952782 1_555
O20 P5 1.594880 1_555
O20 V0 2.209356 1_654
O20 Te0 2.239877 1_565
O21 P5 1.520474 1_555
O21 V1 1.920331 1_655
O22 P3 1.520474 1_556
O22 V1 1.920331 1_655
O23 P4 1.520474 1_565
O23 V1 1.920331 1_655
