# generated using pymatgen
data_Li2Ti2O5
_symmetry_space_group_name_H-M   'P 1'
_cell_length_a   8.48860081
_cell_length_b   8.48860081
_cell_length_c   5.24714300
_cell_angle_alpha   90.00000000
_cell_angle_beta   90.00000000
_cell_angle_gamma   137.31846794
_symmetry_Int_Tables_number   1
_chemical_formula_structural   Li2Ti2O5
_chemical_formula_sum   'Li4 Ti4 O10'
_cell_volume   256.31577262
_cell_formula_units_Z   2
loop_
 _symmetry_equiv_pos_site_id
 _symmetry_equiv_pos_as_xyz
  1  'x, y, z'
loop_
 _atom_site_type_symbol
 _atom_site_label
 _atom_site_symmetry_multiplicity
 _atom_site_fract_x
 _atom_site_fract_y
 _atom_site_fract_z
 _atom_site_occupancy
  Li  Li0  1  0.59287300  0.70363300  0.35940700  1
  Li  Li1  1  0.70363300  0.59287300  0.85940700  1
  Li  Li2  1  0.40712700  0.29636700  0.35940700  1
  Li  Li3  1  0.29636700  0.40712700  0.85940700  1
  Ti  Ti0  1  0.98646400  0.70096300  0.35974100  1
  Ti  Ti1  1  0.70096300  0.98646400  0.85974100  1
  Ti  Ti2  1  0.29903700  0.01353600  0.85974100  1
  Ti  Ti3  1  0.01353600  0.29903700  0.35974100  1
  O  O0  1  0.00000000  0.50000000  0.43450000  1
  O  O1  1  0.59236900  0.72575900  0.97480900  1
  O  O2  1  0.72575900  0.59236900  0.47480900  1
  O  O3  1  0.99056900  0.24115600  0.01140700  1
  O  O4  1  0.24115600  0.99056900  0.51140700  1
  O  O5  1  0.75884400  0.00943100  0.51140700  1
  O  O6  1  0.00943100  0.75884400  0.01140700  1
  O  O7  1  0.40763100  0.27424100  0.97480900  1
  O  O8  1  0.27424100  0.40763100  0.47480900  1
  O  O9  1  0.50000000  0.00000000  0.93450000  1
loop_
_geom_bond_atom_site_label_1
_geom_bond_atom_site_label_2
_geom_bond_distance
_geom_bond_site_symmetry_2
Li0 O5 1.995552 1_565
Li0 O8 2.000916 1_555
Li0 O2 2.024233 1_555
Li0 O1 2.027058 1_554
Li1 O6 1.995552 1_656
Li1 O7 2.000916 1_555
Li1 O1 2.024233 1_555
Li1 O2 2.027058 1_555
Li2 O4 1.995552 1_545
Li2 O2 2.000916 1_555
Li2 O8 2.024233 1_555
Li2 O7 2.027058 1_554
Li3 O3 1.995552 1_456
Li3 O1 2.000916 1_555
Li3 O7 2.024233 1_555
Li3 O8 2.027058 1_555
O0 Ti0 1.834487 1_455
O0 Ti3 1.834487 1_555
O1 Ti1 1.764205 1_555
O2 Ti0 1.764205 1_555
O3 Ti3 1.865282 1_655
O3 Ti1 1.880595 1_544
O4 Ti2 1.865282 1_565
O4 Ti0 1.880595 1_455
O5 Ti1 1.865282 1_545
O5 Ti3 1.880595 1_655
O6 Ti0 1.865282 1_455
O6 Ti2 1.880595 1_564
O7 Ti2 1.764205 1_555
O8 Ti3 1.764205 1_555
O9 Ti1 1.834487 1_545
O9 Ti2 1.834487 1_555
