# generated using pymatgen
data_BaSrI4
_symmetry_space_group_name_H-M   'P 1'
_cell_length_a   12.42391000
_cell_length_b   10.37657100
_cell_length_c   10.87722539
_cell_angle_alpha   59.61314357
_cell_angle_beta   90.00000000
_cell_angle_gamma   90.00000000
_symmetry_Int_Tables_number   1
_chemical_formula_structural   BaSrI4
_chemical_formula_sum   'Ba4 Sr4 I16'
_cell_volume   1209.63601318
_cell_formula_units_Z   4
loop_
 _symmetry_equiv_pos_site_id
 _symmetry_equiv_pos_as_xyz
  1  'x, y, z'
loop_
 _atom_site_type_symbol
 _atom_site_label
 _atom_site_symmetry_multiplicity
 _atom_site_fract_x
 _atom_site_fract_y
 _atom_site_fract_z
 _atom_site_occupancy
  Ba  Ba0  1  0.94269300  0.51932100  0.73581000  1
  Ba  Ba1  1  0.44269300  0.48067900  0.76419000  1
  Ba  Ba2  1  0.55730700  0.51932100  0.23581000  1
  Ba  Ba3  1  0.05730700  0.48067900  0.26419000  1
  Sr  Sr0  1  0.31768400  0.95904000  0.65644000  1
  Sr  Sr1  1  0.81768400  0.04096000  0.84356000  1
  Sr  Sr2  1  0.18231600  0.95904000  0.15644000  1
  Sr  Sr3  1  0.68231600  0.04096000  0.34356000  1
  I  I0  1  0.00190800  0.73565200  0.38390400  1
  I  I1  1  0.45281600  0.83459600  0.46335500  1
  I  I2  1  0.69621800  0.39359400  0.69008100  1
  I  I3  1  0.81018300  0.85633700  0.65819700  1
  I  I4  1  0.31018300  0.14366300  0.84180300  1
  I  I5  1  0.19621800  0.60640600  0.80991900  1
  I  I6  1  0.95281600  0.16540400  0.03664500  1
  I  I7  1  0.50190800  0.26434800  0.11609600  1
  I  I8  1  0.49809200  0.73565200  0.88390400  1
  I  I9  1  0.04718400  0.83459600  0.96335500  1
  I  I10  1  0.80378200  0.39359400  0.19008100  1
  I  I11  1  0.68981700  0.85633700  0.15819700  1
  I  I12  1  0.18981700  0.14366300  0.34180300  1
  I  I13  1  0.30378200  0.60640600  0.30991900  1
  I  I14  1  0.54718400  0.16540400  0.53664500  1
  I  I15  1  0.99809200  0.26434800  0.61609600  1
loop_
_geom_bond_atom_site_label_1
_geom_bond_atom_site_label_2
_geom_bond_distance
_geom_bond_site_symmetry_2
Ba0 I0 3.396946 1_655
Ba0 I2 3.461632 1_555
Ba0 I6 3.471724 1_556
Ba0 I5 3.482005 1_655
Ba0 I15 3.557342 1_555
Ba0 I3 3.558896 1_555
Ba1 I7 3.396946 1_556
Ba1 I5 3.461632 1_555
Ba1 I1 3.471724 1_555
Ba1 I2 3.482005 1_555
Ba1 I8 3.557342 1_555
Ba1 I4 3.558896 1_555
Ba2 I8 3.396946 1_554
Ba2 I10 3.461632 1_555
Ba2 I14 3.471724 1_555
Ba2 I13 3.482005 1_555
Ba2 I7 3.557342 1_555
Ba2 I11 3.558896 1_555
Ba3 I15 3.396946 1_455
Ba3 I13 3.461632 1_555
Ba3 I9 3.471724 1_554
Ba3 I10 3.482005 1_455
Ba3 I0 3.557342 1_555
Ba3 I12 3.558896 1_555
I0 Sr2 3.273584 1_555
I1 Sr3 3.404453 1_565
I1 Sr0 3.411848 1_555
I2 Sr1 3.503371 1_555
I3 Sr3 3.357603 1_565
I3 Sr1 3.413458 1_565
I4 Sr2 3.357603 1_546
I4 Sr0 3.413458 1_545
I5 Sr0 3.503371 1_555
I6 Sr2 3.404453 1_645
I6 Sr1 3.411848 1_554
I7 Sr3 3.273584 1_555
I8 Sr0 3.273584 1_555
I9 Sr1 3.404453 1_465
I9 Sr2 3.411848 1_556
I10 Sr3 3.503371 1_555
I11 Sr1 3.357603 1_564
I11 Sr3 3.413458 1_565
I12 Sr0 3.357603 1_545
I12 Sr2 3.413458 1_545
I13 Sr2 3.503371 1_555
I14 Sr0 3.404453 1_545
I14 Sr3 3.411848 1_555
I15 Sr1 3.273584 1_555
