# generated using pymatgen
data_Li3MnPCO7
_symmetry_space_group_name_H-M   'P 1'
_cell_length_a   6.58525000
_cell_length_b   8.57228241
_cell_length_c   9.98789046
_cell_angle_alpha   85.41027651
_cell_angle_beta   89.92381319
_cell_angle_gamma   89.47241686
_symmetry_Int_Tables_number   1
_chemical_formula_structural   Li3MnPCO7
_chemical_formula_sum   'Li12 Mn4 P4 C4 O28'
_cell_volume   561.99067109
_cell_formula_units_Z   4
loop_
 _symmetry_equiv_pos_site_id
 _symmetry_equiv_pos_as_xyz
  1  'x, y, z'
loop_
 _atom_site_type_symbol
 _atom_site_label
 _atom_site_symmetry_multiplicity
 _atom_site_fract_x
 _atom_site_fract_y
 _atom_site_fract_z
 _atom_site_occupancy
  Li  Li0  1  0.25405300  0.90568400  0.61455900  1
  Li  Li1  1  0.25588900  0.90558500  0.12282200  1
  Li  Li2  1  0.48623600  0.72446200  0.88960900  1
  Li  Li3  1  0.02013900  0.72655700  0.36608600  1
  Li  Li4  1  0.47848300  0.72598800  0.36634100  1
  Li  Li5  1  0.74021300  0.65624600  0.12110600  1
  Li  Li6  1  0.53024900  0.27512200  0.61893400  1
  Li  Li7  1  0.96985600  0.27515600  0.61919400  1
  Li  Li8  1  0.53650300  0.27754300  0.12673200  1
  Li  Li9  1  0.96387200  0.27669500  0.12672300  1
  Li  Li10  1  0.74739300  0.09797000  0.88602700  1
  Li  Li11  1  0.74902000  0.09159900  0.37631400  1
  Mn  Mn0  1  0.99670800  0.73845500  0.88285900  1
  Mn  Mn1  1  0.74751200  0.65578600  0.60439700  1
  Mn  Mn2  1  0.25078200  0.34041000  0.89339500  1
  Mn  Mn3  1  0.24997300  0.34135900  0.38540700  1
  P  P0  1  0.24929100  0.59085000  0.63916700  1
  P  P1  1  0.25259000  0.59074700  0.13866700  1
  P  P2  1  0.74999900  0.40914800  0.85974800  1
  P  P3  1  0.74981900  0.41121600  0.35847900  1
  C  C0  1  0.75451000  0.96633500  0.64947000  1
  C  C1  1  0.75360600  0.96140900  0.14644500  1
  C  C2  1  0.25045200  0.03513500  0.85119500  1
  C  C3  1  0.24975900  0.03282700  0.35162500  1
  O  O0  1  0.74829400  0.93130200  0.52747500  1
  O  O1  1  0.24789000  0.88855700  0.81885100  1
  O  O2  1  0.76010400  0.92823000  0.02155600  1
  O  O3  1  0.76157400  0.85151800  0.74623600  1
  O  O4  1  0.24944400  0.88733400  0.32280400  1
  O  O5  1  0.75026300  0.85264600  0.24334600  1
  O  O6  1  0.06368900  0.69093000  0.58722700  1
  O  O7  1  0.43266100  0.69017500  0.58618200  1
  O  O8  1  0.06082600  0.68698200  0.08821800  1
  O  O9  1  0.43625200  0.68794000  0.08569300  1
  O  O10  1  0.74751000  0.57771400  0.90547000  1
  O  O11  1  0.24625600  0.57846300  0.79782500  1
  O  O12  1  0.74926600  0.57878500  0.40695700  1
  O  O13  1  0.25082100  0.57733300  0.29603800  1
  O  O14  1  0.75000600  0.42168700  0.70254700  1
  O  O15  1  0.25110000  0.42231300  0.59485300  1
  O  O16  1  0.74961300  0.42518100  0.20340600  1
  O  O17  1  0.25108700  0.42075400  0.09445000  1
  O  O18  1  0.93507100  0.31038200  0.91413500  1
  O  O19  1  0.56663000  0.31127700  0.91452700  1
  O  O20  1  0.56619900  0.31215500  0.41507900  1
  O  O21  1  0.93458700  0.31143300  0.41547600  1
  O  O22  1  0.25319900  0.14596000  0.75509900  1
  O  O23  1  0.75107700  0.10959800  0.68276300  1
  O  O24  1  0.24985300  0.14362700  0.25432300  1
  O  O25  1  0.25022900  0.06657000  0.97448100  1
  O  O26  1  0.74942800  0.10892900  0.17501700  1
  O  O27  1  0.25016400  0.06994000  0.47467000  1
loop_
_geom_bond_atom_site_label_1
_geom_bond_atom_site_label_2
_geom_bond_distance
_geom_bond_site_symmetry_2
Li0 O27 1.902628 1_565
Li0 O1 2.034347 1_555
Li0 O7 2.218000 1_555
Li0 O6 2.271319 1_555
Li1 O25 1.942413 1_564
Li1 O4 1.991422 1_555
Li1 O9 2.257848 1_555
Li1 O8 2.330291 1_555
Li1 O24 2.513531 1_565
Li2 O9 1.985952 1_556
Li2 O10 2.120579 1_555
Li2 O1 2.178281 1_555
Li2 O11 2.264528 1_555
Li2 O3 2.510839 1_555
Li3 O4 2.075528 1_555
Li3 O13 2.130279 1_555
Li3 O12 2.215856 1_455
Li3 O6 2.223990 1_555
Li3 O5 2.363883 1_455
Li4 O4 2.060107 1_555
Li4 O13 2.132076 1_555
Li4 O12 2.194343 1_555
Li4 O7 2.213294 1_555
Li4 O5 2.389060 1_555
Li5 O9 2.045006 1_555
Li5 O16 2.083317 1_555
Li5 O8 2.151634 1_655
Li5 O5 2.158879 1_555
Li5 O10 2.307663 1_554
Li5 O2 2.464965 1_555
Li6 O20 2.049173 1_555
Li6 O23 2.086666 1_555
Li6 O14 2.138885 1_555
Li6 O15 2.222388 1_555
Li6 O22 2.488721 1_555
Li7 O21 2.046794 1_555
Li7 O23 2.093789 1_555
Li7 O14 2.120751 1_555
Li7 O15 2.252398 1_655
Li7 O22 2.505738 1_655
Li8 O26 2.034886 1_555
Li8 O16 2.085272 1_555
Li8 O19 2.125330 1_554
Li8 O17 2.244883 1_555
Li8 O24 2.510873 1_555
Li9 O26 2.054189 1_555
Li9 O16 2.077893 1_555
Li9 O18 2.128314 1_554
Li9 O17 2.276825 1_655
Li9 O24 2.491232 1_655
Li10 O2 1.907723 1_546
Li10 O23 2.024766 1_555
Li10 O19 2.209941 1_555
Li10 O18 2.246324 1_555
Li11 O0 1.958499 1_545
Li11 O26 2.004123 1_555
Li11 O20 2.290843 1_555
Li11 O21 2.314995 1_555
Li11 O5 2.528774 1_545
Mn0 O8 2.105714 1_656
Mn0 O10 2.152556 1_555
Mn0 O1 2.169129 1_655
Mn0 O3 2.228305 1_555
Mn0 O11 2.333256 1_655
Mn0 O2 2.702117 1_556
Mn1 O7 2.097627 1_555
Mn1 O6 2.111318 1_655
Mn1 O12 2.129030 1_555
Mn1 O14 2.161706 1_555
Mn1 O3 2.283508 1_555
Mn1 O0 2.424502 1_555
Mn2 O19 2.101481 1_555
Mn2 O18 2.105169 1_455
Mn2 O17 2.174457 1_556
Mn2 O11 2.182553 1_555
Mn2 O22 2.248250 1_555
Mn2 O25 2.421209 1_555
Mn3 O21 2.113131 1_455
Mn3 O20 2.113569 1_555
Mn3 O13 2.144731 1_555
Mn3 O24 2.223152 1_555
Mn3 O15 2.256158 1_555
Mn3 O27 2.424102 1_555
C0 O0 1.278851 1_555
C0 O23 1.297735 1_565
C0 O3 1.323645 1_555
C1 O5 1.289330 1_555
C1 O2 1.301956 1_555
C1 O26 1.318506 1_565
C2 O25 1.281395 1_555
C2 O22 1.295539 1_555
C2 O1 1.322431 1_545
C3 O27 1.293894 1_555
C3 O4 1.302268 1_545
C3 O24 1.303417 1_555
O6 P0 1.552465 1_555
O7 P0 1.551864 1_555
O8 P1 1.563689 1_555
O9 P1 1.543765 1_555
O10 P2 1.549831 1_555
O11 P0 1.579824 1_555
O12 P3 1.552112 1_555
O13 P1 1.566837 1_555
O14 P2 1.565177 1_555
O15 P0 1.544454 1_555
O16 P3 1.543893 1_555
O17 P1 1.556254 1_555
O18 P2 1.551254 1_555
O19 P2 1.550741 1_555
O20 P3 1.563034 1_555
O21 P3 1.562352 1_555
