# generated using pymatgen
data_CeCrO3
_symmetry_space_group_name_H-M   'P 1'
_cell_length_a   5.48624600
_cell_length_b   5.71975700
_cell_length_c   7.80831500
_cell_angle_alpha   90.00000000
_cell_angle_beta   90.00000000
_cell_angle_gamma   90.00000000
_symmetry_Int_Tables_number   1
_chemical_formula_structural   CeCrO3
_chemical_formula_sum   'Ce4 Cr4 O12'
_cell_volume   245.02487756
_cell_formula_units_Z   4
loop_
 _symmetry_equiv_pos_site_id
 _symmetry_equiv_pos_as_xyz
  1  'x, y, z'
loop_
 _atom_site_type_symbol
 _atom_site_label
 _atom_site_symmetry_multiplicity
 _atom_site_fract_x
 _atom_site_fract_y
 _atom_site_fract_z
 _atom_site_occupancy
  Ce  Ce0  1  0.48527200  0.05927400  0.25000000  1
  Ce  Ce1  1  0.98527200  0.44072600  0.75000000  1
  Ce  Ce2  1  0.01472800  0.55927400  0.25000000  1
  Ce  Ce3  1  0.51472800  0.94072600  0.75000000  1
  Cr  Cr0  1  0.00000000  0.00000000  0.00000000  1
  Cr  Cr1  1  0.00000000  0.00000000  0.50000000  1
  Cr  Cr2  1  0.50000000  0.50000000  0.00000000  1
  Cr  Cr3  1  0.50000000  0.50000000  0.50000000  1
  O  O0  1  0.09788800  0.02907000  0.75000000  1
  O  O1  1  0.69887100  0.20087900  0.55077700  1
  O  O2  1  0.69887100  0.20087900  0.94922300  1
  O  O3  1  0.19887100  0.29912100  0.44922300  1
  O  O4  1  0.19887100  0.29912100  0.05077700  1
  O  O5  1  0.59788800  0.47093000  0.25000000  1
  O  O6  1  0.40211200  0.52907000  0.75000000  1
  O  O7  1  0.80112900  0.70087900  0.94922300  1
  O  O8  1  0.80112900  0.70087900  0.55077700  1
  O  O9  1  0.30112900  0.79912100  0.05077700  1
  O  O10  1  0.30112900  0.79912100  0.44922300  1
  O  O11  1  0.90211200  0.97093000  0.25000000  1
loop_
_geom_bond_atom_site_label_1
_geom_bond_atom_site_label_2
_geom_bond_distance
_geom_bond_site_symmetry_2
Ce0 O11 2.342047 1_545
Ce0 O10 2.377955 1_545
Ce0 O9 2.377955 1_545
Ce0 O5 2.434283 1_555
Ce0 O3 2.602071 1_555
Ce0 O4 2.602071 1_555
Ce0 O1 2.746817 1_555
Ce0 O2 2.746817 1_554
Ce1 O6 2.342047 1_655
Ce1 O7 2.377955 1_555
Ce1 O8 2.377955 1_555
Ce1 O0 2.434283 1_655
Ce1 O2 2.602071 1_555
Ce1 O1 2.602071 1_555
Ce1 O4 2.746817 1_656
Ce1 O3 2.746817 1_655
Ce2 O5 2.342047 1_455
Ce2 O3 2.377955 1_555
Ce2 O4 2.377955 1_555
Ce2 O11 2.434283 1_455
Ce2 O10 2.602071 1_555
Ce2 O9 2.602071 1_555
Ce2 O8 2.746817 1_455
Ce2 O7 2.746817 1_454
Ce3 O0 2.342047 1_565
Ce3 O2 2.377955 1_565
Ce3 O1 2.377955 1_565
Ce3 O6 2.434283 1_555
Ce3 O7 2.602071 1_555
Ce3 O8 2.602071 1_555
Ce3 O9 2.746817 1_556
Ce3 O10 2.746817 1_555
Cr0 O0 2.031420 1_554
Cr0 O11 2.031420 1_445
Cr0 O9 2.051019 1_545
Cr0 O2 2.051019 1_454
Cr0 O4 2.067553 1_555
Cr0 O7 2.067553 1_444
Cr1 O0 2.031420 1_555
Cr1 O11 2.031420 1_445
Cr1 O1 2.051019 1_455
Cr1 O10 2.051019 1_545
Cr1 O3 2.067553 1_555
Cr1 O8 2.067553 1_445
Cr2 O5 2.031420 1_555
Cr2 O6 2.031420 1_554
Cr2 O7 2.051019 1_554
Cr2 O4 2.051019 1_555
Cr2 O9 2.067553 1_555
Cr2 O2 2.067553 1_554
Cr3 O5 2.031420 1_555
Cr3 O6 2.031420 1_555
Cr3 O8 2.051019 1_555
Cr3 O3 2.051019 1_555
Cr3 O10 2.067553 1_555
Cr3 O1 2.067553 1_555
