# generated using pymatgen
data_LiCoPO4
_symmetry_space_group_name_H-M   'P 1'
_cell_length_a   5.11309400
_cell_length_b   8.65815080
_cell_length_c   8.49248664
_cell_angle_alpha   107.84850075
_cell_angle_beta   90.00245187
_cell_angle_gamma   89.99487672
_symmetry_Int_Tables_number   1
_chemical_formula_structural   LiCoPO4
_chemical_formula_sum   'Li4 Co4 P4 O16'
_cell_volume   357.86692468
_cell_formula_units_Z   4
loop_
 _symmetry_equiv_pos_site_id
 _symmetry_equiv_pos_as_xyz
  1  'x, y, z'
loop_
 _atom_site_type_symbol
 _atom_site_label
 _atom_site_symmetry_multiplicity
 _atom_site_fract_x
 _atom_site_fract_y
 _atom_site_fract_z
 _atom_site_occupancy
  Li  Li0  1  0.82376600  0.98595100  0.11037800  1
  Li  Li1  1  0.17627900  0.98591900  0.61035500  1
  Li  Li2  1  0.31756400  0.49557100  0.24594000  1
  Li  Li3  1  0.68243400  0.49557200  0.74592200  1
  Co  Co0  1  0.32043700  0.24777700  0.48441300  1
  Co  Co1  1  0.18037200  0.74163700  0.85099600  1
  Co  Co2  1  0.67950700  0.24777200  0.98438200  1
  Co  Co3  1  0.81965800  0.74166900  0.35098600  1
  P  P0  1  0.31294600  0.86515000  0.23459400  1
  P  P1  1  0.68708100  0.86509400  0.73453200  1
  P  P2  1  0.81128800  0.36900200  0.35798600  1
  P  P3  1  0.18871900  0.36899200  0.85798200  1
  O  O0  1  0.18230400  0.89141500  0.07963600  1
  O  O1  1  0.81770900  0.89137500  0.57964500  1
  O  O2  1  0.32443400  0.34573700  0.01299600  1
  O  O3  1  0.67550500  0.34569800  0.51296100  1
  O  O4  1  0.61219100  0.83927800  0.20594800  1
  O  O5  1  0.38780400  0.83928400  0.70596400  1
  O  O6  1  0.19035300  0.71444500  0.27074600  1
  O  O7  1  0.80967000  0.71444600  0.77072200  1
  O  O8  1  0.75212200  0.21899000  0.20609500  1
  O  O9  1  0.24791100  0.21896700  0.70610000  1
  O  O10  1  0.69500100  0.51894600  0.31772800  1
  O  O11  1  0.30501600  0.51889500  0.81772800  1
  O  O12  1  0.11046400  0.39149400  0.38944000  1
  O  O13  1  0.88948800  0.39148300  0.88940900  1
  O  O14  1  0.25235300  0.01351900  0.38700100  1
  O  O15  1  0.74762300  0.01352200  0.88700700  1
loop_
_geom_bond_atom_site_label_1
_geom_bond_atom_site_label_2
_geom_bond_distance
_geom_bond_site_symmetry_2
Li0 O8 1.964818 1_565
Li0 O0 1.991898 1_655
Li0 O4 2.018382 1_555
Li0 O15 2.021035 1_564
Li1 O9 1.964955 1_565
Li1 O1 1.992187 1_455
Li1 O5 2.018036 1_555
Li1 O14 2.020968 1_565
Li2 O6 1.952874 1_555
Li2 O2 2.006128 1_555
Li2 O10 2.015286 1_555
Li2 O12 2.022855 1_555
Li3 O7 1.953033 1_555
Li3 O3 2.006367 1_555
Li3 O11 2.015247 1_555
Li3 O13 2.022576 1_555
Co0 O14 1.972528 1_555
Co0 O3 1.986915 1_555
Co0 O12 1.991588 1_555
Co0 O9 2.008022 1_555
Co1 O11 1.967493 1_555
Co1 O0 1.976997 1_556
Co1 O5 1.998832 1_555
Co1 O7 2.003604 1_455
Co2 O15 1.972411 1_555
Co2 O2 1.986962 1_556
Co2 O13 1.991729 1_555
Co2 O8 2.008183 1_556
Co3 O10 1.967478 1_555
Co3 O1 1.976902 1_555
Co3 O4 1.998627 1_555
Co3 O6 2.003502 1_655
O0 P0 1.553404 1_555
O1 P1 1.552957 1_555
O2 P3 1.554832 1_554
O3 P2 1.554925 1_555
O4 P0 1.554681 1_555
O5 P1 1.554735 1_555
O6 P0 1.560604 1_555
O7 P1 1.560196 1_555
O8 P2 1.554158 1_555
O9 P3 1.554182 1_555
O10 P2 1.558131 1_555
O11 P3 1.557915 1_555
O12 P2 1.554811 1_455
O13 P3 1.555044 1_655
O14 P0 1.549895 1_545
O15 P1 1.550495 1_545
