# generated using pymatgen
data_MgFeO3
_symmetry_space_group_name_H-M   'P 1'
_cell_length_a   5.50643010
_cell_length_b   5.50643010
_cell_length_c   5.50642991
_cell_angle_alpha   55.14471712
_cell_angle_beta   55.14471712
_cell_angle_gamma   55.14472315
_symmetry_Int_Tables_number   1
_chemical_formula_structural   MgFeO3
_chemical_formula_sum   'Mg2 Fe2 O6'
_cell_volume   104.72919564
_cell_formula_units_Z   2
loop_
 _symmetry_equiv_pos_site_id
 _symmetry_equiv_pos_as_xyz
  1  'x, y, z'
loop_
 _atom_site_type_symbol
 _atom_site_label
 _atom_site_symmetry_multiplicity
 _atom_site_fract_x
 _atom_site_fract_y
 _atom_site_fract_z
 _atom_site_occupancy
  Mg  Mg0  1  0.14149200  0.14149200  0.14149200  1
  Mg  Mg1  1  0.85850800  0.85850800  0.85850800  1
  Fe  Fe0  1  0.34759000  0.34759000  0.34759000  1
  Fe  Fe1  1  0.65241000  0.65241000  0.65241000  1
  O  O0  1  0.05838200  0.72419300  0.45834000  1
  O  O1  1  0.54166000  0.94161800  0.27580700  1
  O  O2  1  0.27580700  0.54166000  0.94161800  1
  O  O3  1  0.72419300  0.45834000  0.05838200  1
  O  O4  1  0.45834000  0.05838200  0.72419300  1
  O  O5  1  0.94161800  0.27580700  0.54166000  1
loop_
_geom_bond_atom_site_label_1
_geom_bond_atom_site_label_2
_geom_bond_distance
_geom_bond_site_symmetry_2
Mg0 O0 2.059224 1_545
Mg0 O4 2.059224 1_554
Mg0 O3 2.059224 1_455
Mg0 O2 2.184969 1_554
Mg0 O5 2.184969 1_455
Mg0 O1 2.184969 1_545
Mg1 O5 2.059224 1_565
Mg1 O1 2.059224 1_556
Mg1 O2 2.059224 1_655
Mg1 O3 2.184969 1_556
Mg1 O0 2.184969 1_655
Mg1 O4 2.184969 1_565
Fe0 O3 1.941413 1_555
Fe0 O4 1.941413 1_555
Fe0 O0 1.941413 1_555
Fe0 O2 2.022900 1_554
Fe0 O5 2.022900 1_455
Fe0 O1 2.022900 1_545
Fe1 O2 1.941413 1_555
Fe1 O1 1.941413 1_555
Fe1 O5 1.941413 1_555
Fe1 O3 2.022900 1_556
Fe1 O0 2.022900 1_655
Fe1 O4 2.022900 1_565
