# generated using pymatgen
data_Li2CoNiO4
_symmetry_space_group_name_H-M   'P 1'
_cell_length_a   5.79090223
_cell_length_b   5.79090223
_cell_length_c   5.79090223
_cell_angle_alpha   120.63744170
_cell_angle_beta   120.41738978
_cell_angle_gamma   89.08899843
_symmetry_Int_Tables_number   1
_chemical_formula_structural   Li2CoNiO4
_chemical_formula_sum   'Li4 Co2 Ni2 O8'
_cell_volume   136.20282540
_cell_formula_units_Z   2
loop_
 _symmetry_equiv_pos_site_id
 _symmetry_equiv_pos_as_xyz
  1  'x, y, z'
loop_
 _atom_site_type_symbol
 _atom_site_label
 _atom_site_symmetry_multiplicity
 _atom_site_fract_x
 _atom_site_fract_y
 _atom_site_fract_z
 _atom_site_occupancy
  Li  Li0  1  0.50000000  0.00000000  0.00000000  1
  Li  Li1  1  0.50000000  0.50000000  0.00000000  1
  Li  Li2  1  0.00000000  0.50000000  0.50000000  1
  Li  Li3  1  0.50000000  0.50000000  0.50000000  1
  Co  Co0  1  0.00000000  0.50000000  0.00000000  1
  Co  Co1  1  0.00000000  0.00000000  0.50000000  1
  Ni  Ni0  1  0.50000000  0.00000000  0.50000000  1
  Ni  Ni1  1  0.00000000  0.00000000  0.00000000  1
  O  O0  1  0.77148100  0.74983500  0.02164600  1
  O  O1  1  0.76616700  0.24797200  0.98180500  1
  O  O2  1  0.23383300  0.21563800  0.48180500  1
  O  O3  1  0.77181100  0.25016500  0.52164600  1
  O  O4  1  0.22818900  0.74983500  0.47835400  1
  O  O5  1  0.76616700  0.78436200  0.51819500  1
  O  O6  1  0.23383300  0.75202800  0.01819500  1
  O  O7  1  0.22851900  0.25016500  0.97835400  1
loop_
_geom_bond_atom_site_label_1
_geom_bond_atom_site_label_2
_geom_bond_distance
_geom_bond_site_symmetry_2
Li0 O7 2.121099 1_554
Li0 O3 2.121099 1_555
Li0 O4 2.121099 1_544
Li0 O0 2.121099 1_545
Li0 O1 2.199531 1_554
Li0 O6 2.199531 1_545
Li1 O0 2.066001 1_555
Li1 O7 2.066001 1_554
Li1 O1 2.110234 1_554
Li1 O5 2.110234 1_555
Li1 O2 2.110234 1_554
Li1 O6 2.110234 1_555
Li2 O4 2.066001 1_555
Li2 O3 2.066001 1_455
Li2 O2 2.110234 1_555
Li2 O6 2.110234 1_556
Li2 O1 2.110234 1_454
Li2 O5 2.110234 1_455
Li3 O4 2.121099 1_555
Li3 O3 2.121099 1_555
Li3 O7 2.121099 1_554
Li3 O0 2.121099 1_556
Li3 O5 2.199531 1_555
Li3 O2 2.199531 1_555
Co0 O6 1.932974 1_555
Co0 O1 1.932974 1_454
Co0 O0 1.944817 1_455
Co0 O4 1.944817 1_555
Co0 O3 1.944817 1_454
Co0 O7 1.944817 1_554
Co1 O2 1.932974 1_555
Co1 O5 1.932974 1_445
Co1 O7 1.944817 1_555
Co1 O3 1.944817 1_455
Co1 O0 1.944817 1_445
Co1 O4 1.944817 1_545
Ni0 O5 1.963326 1_545
Ni0 O1 1.963326 1_555
Ni0 O6 1.963326 1_545
Ni0 O2 1.963326 1_555
Ni0 O3 2.068720 1_555
Ni0 O4 2.068720 1_545
Ni1 O5 1.963326 1_444
Ni1 O2 1.963326 1_555
Ni1 O6 1.963326 1_545
Ni1 O1 1.963326 1_454
Ni1 O7 2.068720 1_554
Ni1 O0 2.068720 1_445
