# generated using pymatgen
data_Rb2UC2SO11
_symmetry_space_group_name_H-M   'P 1'
_cell_length_a   6.98685100
_cell_length_b   10.06292100
_cell_length_c   17.15021100
_cell_angle_alpha   90.00000000
_cell_angle_beta   90.00000000
_cell_angle_gamma   90.00000000
_symmetry_Int_Tables_number   1
_chemical_formula_structural   Rb2UC2SO11
_chemical_formula_sum   'Rb8 U4 C8 S4 O44'
_cell_volume   1205.79925854
_cell_formula_units_Z   4
loop_
 _symmetry_equiv_pos_site_id
 _symmetry_equiv_pos_as_xyz
  1  'x, y, z'
loop_
 _atom_site_type_symbol
 _atom_site_label
 _atom_site_symmetry_multiplicity
 _atom_site_fract_x
 _atom_site_fract_y
 _atom_site_fract_z
 _atom_site_occupancy
  Rb  Rb0  1  0.75401000  0.62859300  0.01582800  1
  Rb  Rb1  1  0.25401000  0.37140700  0.98417200  1
  Rb  Rb2  1  0.25401000  0.87140700  0.51582800  1
  Rb  Rb3  1  0.75401000  0.12859300  0.48417200  1
  Rb  Rb4  1  0.25485700  0.69790000  0.79758100  1
  Rb  Rb5  1  0.75485700  0.30210000  0.20241900  1
  Rb  Rb6  1  0.75485700  0.80210000  0.29758100  1
  Rb  Rb7  1  0.25485700  0.19790000  0.70241900  1
  U  U0  1  0.75348300  0.95917600  0.86357400  1
  U  U1  1  0.25348300  0.04082400  0.13642600  1
  U  U2  1  0.25348300  0.54082400  0.36357400  1
  U  U3  1  0.75348300  0.45917600  0.63642600  1
  C  C0  1  0.86924300  0.97237600  0.67778500  1
  C  C1  1  0.36924300  0.02762400  0.32221500  1
  C  C2  1  0.36924300  0.52762400  0.17778500  1
  C  C3  1  0.86924300  0.47237600  0.82221500  1
  C  C4  1  0.64508600  0.97038500  0.67559900  1
  C  C5  1  0.14508600  0.02961500  0.32440100  1
  C  C6  1  0.14508600  0.52961500  0.17559900  1
  C  C7  1  0.64508600  0.47038500  0.82440100  1
  S  S0  1  0.76198900  0.96887300  0.08528000  1
  S  S1  1  0.26198900  0.03112700  0.91472000  1
  S  S2  1  0.26198900  0.53112700  0.58528000  1
  S  S3  1  0.76198900  0.46887300  0.41472000  1
  O  O0  1  0.74990500  0.13811200  0.87123700  1
  O  O1  1  0.24990500  0.86188800  0.12876300  1
  O  O2  1  0.24990500  0.36188800  0.37123700  1
  O  O3  1  0.74990500  0.63811200  0.62876300  1
  O  O4  1  0.75056200  0.77875800  0.85658500  1
  O  O5  1  0.25056200  0.22124200  0.14341500  1
  O  O6  1  0.25056200  0.72124200  0.35658500  1
  O  O7  1  0.75056200  0.27875800  0.64341500  1
  O  O8  1  0.56892400  0.97349800  0.74412000  1
  O  O9  1  0.06892400  0.02650200  0.25588000  1
  O  O10  1  0.06892400  0.52650200  0.24412000  1
  O  O11  1  0.56892400  0.47349800  0.75588000  1
  O  O12  1  0.92691000  0.06186900  0.09985200  1
  O  O13  1  0.42691000  0.93813100  0.90014800  1
  O  O14  1  0.42691000  0.43813100  0.59985200  1
  O  O15  1  0.92691000  0.56186900  0.40014800  1
  O  O16  1  0.58637700  0.04845700  0.10226200  1
  O  O17  1  0.08637700  0.95154300  0.89773800  1
  O  O18  1  0.08637700  0.45154300  0.60226200  1
  O  O19  1  0.58637700  0.54845700  0.39773800  1
  O  O20  1  0.93878800  0.96075700  0.74709500  1
  O  O21  1  0.43878800  0.03924300  0.25290500  1
  O  O22  1  0.43878800  0.53924300  0.24709500  1
  O  O23  1  0.93878800  0.46075700  0.75290500  1
  O  O24  1  0.76293400  0.93077800  0.00107800  1
  O  O25  1  0.26293400  0.06922200  0.99892200  1
  O  O26  1  0.26293400  0.56922200  0.50107800  1
  O  O27  1  0.76293400  0.43077800  0.49892200  1
  O  O28  1  0.77531100  0.84959600  0.13332200  1
  O  O29  1  0.27531100  0.15040400  0.86667800  1
  O  O30  1  0.27531100  0.65040400  0.63332200  1
  O  O31  1  0.77531100  0.34959600  0.36667800  1
  O  O32  1  0.32724300  0.68187400  0.98708500  1
  O  O33  1  0.82724300  0.31812600  0.01291500  1
  O  O34  1  0.82724300  0.81812600  0.48708500  1
  O  O35  1  0.32724300  0.18187400  0.51291500  1
  O  O36  1  0.96513600  0.99006100  0.61758200  1
  O  O37  1  0.46513600  0.00993900  0.38241800  1
  O  O38  1  0.46513600  0.50993900  0.11758200  1
  O  O39  1  0.96513600  0.49006100  0.88241800  1
  O  O40  1  0.55824200  0.97100600  0.61233900  1
  O  O41  1  0.05824200  0.02899400  0.38766100  1
  O  O42  1  0.05824200  0.52899400  0.11233900  1
  O  O43  1  0.55824200  0.47100600  0.88766100  1
loop_
_geom_bond_atom_site_label_1
_geom_bond_atom_site_label_2
_geom_bond_distance
_geom_bond_site_symmetry_2
C0 O36 1.243624 1_555
C0 O20 1.289470 1_555
C1 O37 1.243624 1_555
C1 O21 1.289470 1_555
C2 O38 1.243624 1_555
C2 O22 1.289470 1_555
C3 O39 1.243624 1_555
C3 O23 1.289470 1_555
C4 O40 1.243085 1_555
C4 O8 1.290396 1_555
C5 O41 1.243085 1_555
C5 O9 1.290396 1_555
C6 O42 1.243085 1_555
C6 O10 1.290396 1_555
C7 O43 1.243085 1_555
C7 O11 1.290396 1_555
O0 U0 1.805582 1_545
O1 U1 1.805582 1_565
O2 U2 1.805582 1_555
O3 U3 1.805582 1_555
O4 U0 1.819599 1_555
O4 Rb0 3.121320 1_556
O5 U1 1.819599 1_555
O5 Rb1 3.121320 1_554
O6 U2 1.819599 1_555
O6 Rb2 3.121320 1_555
O7 U3 1.819599 1_555
O7 Rb3 3.121320 1_555
O8 U0 2.424986 1_555
O9 U1 2.424986 1_555
O10 U2 2.424986 1_555
O11 U3 2.424986 1_555
O12 S0 1.505306 1_545
O12 U1 2.375821 1_655
O13 S1 1.505306 1_565
O13 U0 2.375821 1_555
O14 S2 1.505306 1_555
O14 U3 2.375821 1_555
O15 S3 1.505306 1_555
O15 U2 2.375821 1_655
O16 S0 1.493870 1_545
O16 U1 2.399776 1_555
O17 S1 1.493870 1_565
O17 U0 2.399776 1_455
O18 S2 1.493870 1_555
O18 U3 2.399776 1_455
O19 S3 1.493870 1_555
O19 U2 2.399776 1_555
O20 U0 2.380559 1_555
O21 U1 2.380559 1_555
O22 U2 2.380559 1_555
O23 U3 2.380559 1_555
O24 S0 1.494112 1_555
O24 U0 2.376392 1_554
O24 Rb0 3.052005 1_555
O25 S1 1.494112 1_555
O25 U1 2.376392 1_556
O25 Rb1 3.052005 1_555
O26 S2 1.494112 1_555
O26 U2 2.376392 1_555
O26 Rb2 3.052005 1_555
O27 S3 1.494112 1_555
O27 U3 2.376392 1_555
O27 Rb3 3.052005 1_555
O28 S0 1.458830 1_555
O28 Rb6 2.860905 1_555
O28 Rb0 3.004739 1_555
O29 S1 1.458830 1_555
O29 Rb7 2.860905 1_555
O29 Rb1 3.004739 1_555
O30 S2 1.458830 1_555
O30 Rb4 2.860905 1_555
O30 Rb2 3.004739 1_555
O31 S3 1.458830 1_555
O31 Rb5 2.860905 1_555
O31 Rb3 3.004739 1_555
O32 Rb0 3.069421 1_556
O32 Rb1 3.166221 1_555
O32 Rb4 3.293100 1_555
O33 Rb1 3.069421 1_654
O33 Rb0 3.166221 1_555
O33 Rb5 3.293100 1_555
O34 Rb2 3.069421 1_655
O34 Rb3 3.166221 1_565
O34 Rb6 3.293100 1_555
O35 Rb3 3.069421 1_555
O35 Rb2 3.166221 1_545
O35 Rb7 3.293100 1_555
O36 Rb2 2.923123 1_655
O36 Rb3 3.058474 1_565
O37 Rb3 2.923123 1_555
O37 Rb2 3.058474 1_545
O38 Rb0 2.923123 1_555
O38 Rb1 3.058474 1_554
O39 Rb1 2.923123 1_655
O39 Rb0 3.058474 1_556
O40 Rb2 2.874444 1_555
O40 Rb3 3.035985 1_565
O41 Rb3 2.874444 1_455
O41 Rb2 3.035985 1_545
O42 Rb0 2.874444 1_455
O42 Rb1 3.035985 1_554
O43 Rb1 2.874444 1_555
O43 Rb0 3.035985 1_556
