# generated using pymatgen
data_Cr2HgN2Cl2O7
_symmetry_space_group_name_H-M   'P 1'
_cell_length_a   8.11435700
_cell_length_b   10.27530000
_cell_length_c   15.68681200
_cell_angle_alpha   83.28723092
_cell_angle_beta   90.00000000
_cell_angle_gamma   90.00000000
_symmetry_Int_Tables_number   1
_chemical_formula_structural   Cr2HgN2Cl2O7
_chemical_formula_sum   'Cr8 Hg4 N8 Cl8 O28'
_cell_volume   1298.96009426
_cell_formula_units_Z   4
loop_
 _symmetry_equiv_pos_site_id
 _symmetry_equiv_pos_as_xyz
  1  'x, y, z'
loop_
 _atom_site_type_symbol
 _atom_site_label
 _atom_site_symmetry_multiplicity
 _atom_site_fract_x
 _atom_site_fract_y
 _atom_site_fract_z
 _atom_site_occupancy
  Cr  Cr0  1  0.12392500  0.21652100  0.52621800  1
  Cr  Cr1  1  0.62392500  0.78347900  0.97378200  1
  Cr  Cr2  1  0.87607500  0.78347900  0.47378200  1
  Cr  Cr3  1  0.37607500  0.21652100  0.02621800  1
  Cr  Cr4  1  0.18813900  0.47592100  0.62087600  1
  Cr  Cr5  1  0.68813900  0.52407900  0.87912400  1
  Cr  Cr6  1  0.81186100  0.52407900  0.37912400  1
  Cr  Cr7  1  0.31186100  0.47592100  0.12087600  1
  Hg  Hg0  1  0.38712700  0.83880800  0.56157500  1
  Hg  Hg1  1  0.88712700  0.16119200  0.93842500  1
  Hg  Hg2  1  0.61287300  0.16119200  0.43842500  1
  Hg  Hg3  1  0.11287300  0.83880800  0.06157500  1
  N  N0  1  0.18940100  0.53519900  0.86308300  1
  N  N1  1  0.68940100  0.46480100  0.63691700  1
  N  N2  1  0.81059900  0.46480100  0.13691700  1
  N  N3  1  0.31059900  0.53519900  0.36308300  1
  N  N4  1  0.39738800  0.11972500  0.79107100  1
  N  N5  1  0.89738800  0.88027500  0.70892900  1
  N  N6  1  0.60261200  0.88027500  0.20892900  1
  N  N7  1  0.10261200  0.11972500  0.29107100  1
  Cl  Cl0  1  0.12366000  0.88694900  0.91303400  1
  Cl  Cl1  1  0.62366000  0.11305100  0.58696600  1
  Cl  Cl2  1  0.87634000  0.11305100  0.08696600  1
  Cl  Cl3  1  0.37634000  0.88694900  0.41303400  1
  Cl  Cl4  1  0.39582500  0.80434100  0.70987200  1
  Cl  Cl5  1  0.89582500  0.19565900  0.79012800  1
  Cl  Cl6  1  0.60417500  0.19565900  0.29012800  1
  Cl  Cl7  1  0.10417500  0.80434100  0.20987200  1
  O  O0  1  0.06817100  0.36589300  0.56605500  1
  O  O1  1  0.56817100  0.63410700  0.93394500  1
  O  O2  1  0.93182900  0.63410700  0.43394500  1
  O  O3  1  0.43182900  0.36589300  0.06605500  1
  O  O4  1  0.22036800  0.24072100  0.95984000  1
  O  O5  1  0.72036800  0.75927900  0.54016000  1
  O  O6  1  0.77963200  0.75927900  0.04016000  1
  O  O7  1  0.27963200  0.24072100  0.45984000  1
  O  O8  1  0.17828900  0.10635200  0.60413800  1
  O  O9  1  0.67828900  0.89364800  0.89586200  1
  O  O10  1  0.82171100  0.89364800  0.39586200  1
  O  O11  1  0.32171100  0.10635200  0.10413800  1
  O  O12  1  0.03241000  0.84027100  0.52568300  1
  O  O13  1  0.53241000  0.15972900  0.97431700  1
  O  O14  1  0.96759000  0.15972900  0.47431700  1
  O  O15  1  0.46759000  0.84027100  0.02568300  1
  O  O16  1  0.31510500  0.56333100  0.55517900  1
  O  O17  1  0.81510500  0.43666900  0.94482100  1
  O  O18  1  0.68489500  0.43666900  0.44482100  1
  O  O19  1  0.18489500  0.56333100  0.05517900  1
  O  O20  1  0.06966200  0.57860100  0.66445600  1
  O  O21  1  0.56966200  0.42139900  0.83554400  1
  O  O22  1  0.93033800  0.42139900  0.33554400  1
  O  O23  1  0.43033800  0.57860100  0.16445600  1
  O  O24  1  0.29696600  0.39407400  0.69597100  1
  O  O25  1  0.79696600  0.60592600  0.80402900  1
  O  O26  1  0.70303400  0.60592600  0.30402900  1
  O  O27  1  0.20303400  0.39407400  0.19597100  1
loop_
_geom_bond_atom_site_label_1
_geom_bond_atom_site_label_2
_geom_bond_distance
_geom_bond_site_symmetry_2
Cr0 O8 1.626849 1_555
Cr0 O7 1.637638 1_555
Cr0 O14 1.650366 1_455
Cr0 O0 1.781900 1_555
Cr1 O9 1.626849 1_555
Cr1 O6 1.637638 1_556
Cr1 O15 1.650366 1_556
Cr1 O1 1.781900 1_555
Cr2 O10 1.626849 1_555
Cr2 O5 1.637638 1_555
Cr2 O12 1.650366 1_655
Cr2 O2 1.781900 1_555
Cr3 O11 1.626849 1_555
Cr3 O4 1.637638 1_554
Cr3 O13 1.650366 1_554
Cr3 O3 1.781900 1_555
Cr4 O24 1.625779 1_555
Cr4 O20 1.635043 1_555
Cr4 O16 1.647361 1_555
Cr4 O0 1.786802 1_555
Cr5 O25 1.625779 1_555
Cr5 O21 1.635043 1_555
Cr5 O17 1.647361 1_555
Cr5 O1 1.786802 1_555
Cr6 O26 1.625779 1_555
Cr6 O22 1.635043 1_555
Cr6 O18 1.647361 1_555
Cr6 O2 1.786802 1_555
Cr7 O27 1.625779 1_555
Cr7 O23 1.635043 1_555
Cr7 O19 1.647361 1_555
Cr7 O3 1.786802 1_555
Cl0 Hg3 2.326460 1_556
Cl1 Hg2 2.326460 1_555
Cl2 Hg1 2.326460 1_554
Cl3 Hg0 2.326460 1_555
Cl4 Hg0 2.312900 1_555
Cl5 Hg1 2.312900 1_555
Cl6 Hg2 2.312900 1_555
Cl7 Hg3 2.312900 1_555
