# generated using pymatgen
data_LiMn4(PO4)3
_symmetry_space_group_name_H-M   'P 1'
_cell_length_a   6.85078372
_cell_length_b   6.84781212
_cell_length_c   10.86446948
_cell_angle_alpha   71.64364397
_cell_angle_beta   71.68834203
_cell_angle_gamma   89.99566100
_symmetry_Int_Tables_number   1
_chemical_formula_structural   LiMn4(PO4)3
_chemical_formula_sum   'Li2 Mn8 P6 O24'
_cell_volume   456.47956706
_cell_formula_units_Z   2
loop_
 _symmetry_equiv_pos_site_id
 _symmetry_equiv_pos_as_xyz
  1  'x, y, z'
loop_
 _atom_site_type_symbol
 _atom_site_label
 _atom_site_symmetry_multiplicity
 _atom_site_fract_x
 _atom_site_fract_y
 _atom_site_fract_z
 _atom_site_occupancy
  Li  Li0  1  0.49769700  0.49758200  0.00405600  1
  Li  Li1  1  0.24815100  0.74344800  0.50264600  1
  Mn  Mn0  1  0.63660500  0.12540200  0.25069100  1
  Mn  Mn1  1  0.37477700  0.36438700  0.75079200  1
  Mn  Mn2  1  0.98140000  0.47998000  0.04037200  1
  Mn  Mn3  1  0.23016700  0.23059300  0.53907700  1
  Mn  Mn4  1  0.51979200  0.01986900  0.96150200  1
  Mn  Mn5  1  0.76727000  0.76975600  0.46288400  1
  Mn  Mn6  1  0.11021100  0.62604500  0.25117900  1
  Mn  Mn7  1  0.87475600  0.88958900  0.75063500  1
  P  P0  1  0.74917200  0.25183000  0.50070300  1
  P  P1  1  0.87440000  0.47543100  0.75165700  1
  P  P2  1  0.37425100  0.77980800  0.74990000  1
  P  P3  1  0.52449800  0.62574700  0.25050500  1
  P  P4  1  0.22197200  0.12511200  0.25070900  1
  P  P5  1  0.00032700  0.00093500  0.00060500  1
  O  O0  1  0.46808100  0.70056300  0.62339200  1
  O  O1  1  0.62495000  0.79069400  0.28884000  1
  O  O2  1  0.08286000  0.92080400  0.29147300  1
  O  O3  1  0.32086300  0.53120200  0.37809900  1
  O  O4  1  0.21086400  0.91947900  0.70956100  1
  O  O5  1  0.90428700  0.68046600  0.62515500  1
  O  O6  1  0.30176600  0.09427200  0.37671900  1
  O  O7  1  0.27901400  0.57597100  0.87677400  1
  O  O8  1  0.42545300  0.15664500  0.12338200  1
  O  O9  1  0.22872200  0.09569000  0.91795700  1
  O  O10  1  0.84488200  0.55286000  0.87835100  1
  O  O11  1  0.01183800  0.77173100  0.08242900  1
  O  O12  1  0.52058000  0.26366900  0.58299300  1
  O  O13  1  0.84258100  0.48045800  0.41805400  1
  O  O14  1  0.66263300  0.46120400  0.21061400  1
  O  O15  1  0.53952300  0.87937700  0.78853200  1
  O  O16  1  0.89552300  0.15832700  0.58343600  1
  O  O17  1  0.67046400  0.33727800  0.79163000  1
  O  O18  1  0.73816900  0.10497300  0.41803300  1
  O  O19  1  0.44522900  0.72003000  0.12413500  1
  O  O20  1  0.07916300  0.37805700  0.71011500  1
  O  O21  1  0.90620000  0.14572000  0.08435100  1
  O  O22  1  0.12286900  0.32890500  0.21167300  1
  O  O23  1  0.85412100  0.99122200  0.91753400  1
loop_
_geom_bond_atom_site_label_1
_geom_bond_atom_site_label_2
_geom_bond_distance
_geom_bond_site_symmetry_2
Li0 O8 2.250990 1_555
Li0 O19 2.260198 1_555
Li0 O7 2.297612 1_554
Li0 O10 2.301964 1_554
Li1 O3 2.237545 1_555
Li1 O0 2.253126 1_555
Li1 O5 2.274952 1_455
Li1 O6 2.322132 1_565
Mn0 O21 2.107320 1_555
Mn0 O18 2.108033 1_555
Mn0 O1 2.193717 1_545
Mn0 O14 2.197673 1_555
Mn0 O6 2.241615 1_555
Mn0 O8 2.263228 1_555
Mn1 O9 2.106838 1_555
Mn1 O12 2.108200 1_555
Mn1 O20 2.200400 1_555
Mn1 O17 2.201715 1_555
Mn1 O0 2.249726 1_555
Mn1 O7 2.255611 1_555
Mn2 O10 2.168738 1_554
Mn2 O7 2.176113 1_654
Mn2 O11 2.208756 1_655
Mn2 O21 2.211254 1_555
Mn2 O22 2.322453 1_655
Mn2 O14 2.349189 1_555
Mn3 O6 2.171835 1_555
Mn3 O3 2.175335 1_555
Mn3 O16 2.211048 1_455
Mn3 O12 2.214026 1_555
Mn3 O4 2.312513 1_545
Mn3 O20 2.348771 1_555
Mn4 O8 2.170555 1_556
Mn4 O19 2.178692 1_546
Mn4 O23 2.210005 1_545
Mn4 O9 2.215306 1_555
Mn4 O15 2.335471 1_545
Mn4 O17 2.339360 1_555
Mn5 O0 2.168037 1_555
Mn5 O5 2.173459 1_555
Mn5 O13 2.208548 1_555
Mn5 O18 2.214266 1_565
Mn5 O2 2.338687 1_655
Mn5 O1 2.352526 1_555
Mn6 O13 2.101333 1_455
Mn6 O11 2.105945 1_555
Mn6 O2 2.192228 1_555
Mn6 O22 2.204234 1_555
Mn6 O19 2.244345 1_555
Mn6 O3 2.256562 1_555
Mn7 O23 2.103821 1_555
Mn7 O16 2.106825 1_565
Mn7 O15 2.199212 1_555
Mn7 O4 2.199974 1_655
Mn7 O5 2.237510 1_555
Mn7 O10 2.256235 1_555
O0 P2 1.584715 1_555
O1 P3 1.549000 1_555
O2 P4 1.551288 1_565
O3 P3 1.583246 1_555
O4 P2 1.550427 1_555
O5 P1 1.584288 1_555
O6 P4 1.582977 1_555
O7 P2 1.580265 1_555
O8 P4 1.582299 1_555
O9 P5 1.557521 1_556
O10 P1 1.581593 1_555
O11 P5 1.557298 1_565
O12 P0 1.556982 1_555
O13 P0 1.555806 1_555
O14 P3 1.550052 1_555
O15 P2 1.549841 1_555
O16 P0 1.557834 1_555
O17 P1 1.547809 1_555
O18 P0 1.560505 1_555
O19 P3 1.583307 1_555
O20 P1 1.551679 1_455
O21 P5 1.557583 1_655
O22 P4 1.548013 1_555
O23 P5 1.558231 1_666
