# generated using pymatgen
data_Li7Cr3Co(PO4)6
_symmetry_space_group_name_H-M   'P 1'
_cell_length_a   8.64206600
_cell_length_b   8.64206600
_cell_length_c   8.64206625
_cell_angle_alpha   61.18771221
_cell_angle_beta   61.18771221
_cell_angle_gamma   61.18771468
_symmetry_Int_Tables_number   1
_chemical_formula_structural   Li7Cr3Co(PO4)6
_chemical_formula_sum   'Li7 Cr3 Co1 P6 O24'
_cell_volume   468.58599635
_cell_formula_units_Z   1
loop_
 _symmetry_equiv_pos_site_id
 _symmetry_equiv_pos_as_xyz
  1  'x, y, z'
loop_
 _atom_site_type_symbol
 _atom_site_label
 _atom_site_symmetry_multiplicity
 _atom_site_fract_x
 _atom_site_fract_y
 _atom_site_fract_z
 _atom_site_occupancy
  Li  Li0  1  0.44489700  0.25458800  0.69743200  1
  Li  Li1  1  0.69743200  0.44489700  0.25458800  1
  Li  Li2  1  0.84394000  0.20881700  0.66278200  1
  Li  Li3  1  0.99403900  0.99403900  0.99403900  1
  Li  Li4  1  0.25458800  0.69743200  0.44489700  1
  Li  Li5  1  0.20881700  0.66278200  0.84394000  1
  Li  Li6  1  0.66278200  0.84394000  0.20881700  1
  Cr  Cr0  1  0.14109000  0.14109000  0.14109000  1
  Cr  Cr1  1  0.64289600  0.64289600  0.64289600  1
  Cr  Cr2  1  0.35788200  0.35788200  0.35788200  1
  Co  Co0  1  0.85304900  0.85304900  0.85304900  1
  P  P0  1  0.74852200  0.04572800  0.45657300  1
  P  P1  1  0.04572800  0.45657300  0.74852200  1
  P  P2  1  0.45657300  0.74852200  0.04572800  1
  P  P3  1  0.54081400  0.25288100  0.96300100  1
  P  P4  1  0.96300100  0.54081400  0.25288100  1
  P  P5  1  0.25288100  0.96300100  0.54081400  1
  O  O0  1  0.88395900  0.49817800  0.68870700  1
  O  O1  1  0.49817800  0.68870700  0.88395900  1
  O  O2  1  0.68870700  0.88395900  0.49817800  1
  O  O3  1  0.91548100  0.05700200  0.27292100  1
  O  O4  1  0.58963400  0.24173100  0.42812500  1
  O  O5  1  0.78076500  0.03211900  0.62561000  1
  O  O6  1  0.05700200  0.27292100  0.91548100  1
  O  O7  1  0.24173100  0.42812500  0.58963400  1
  O  O8  1  0.42812500  0.58963400  0.24173100  1
  O  O9  1  0.37446800  0.21806000  0.97335300  1
  O  O10  1  0.71976400  0.07699600  0.96588600  1
  O  O11  1  0.97335300  0.37446800  0.21806000  1
  O  O12  1  0.03211900  0.62561000  0.78076500  1
  O  O13  1  0.27292100  0.91548100  0.05700200  1
  O  O14  1  0.62561000  0.78076500  0.03211900  1
  O  O15  1  0.58831400  0.39791700  0.76071600  1
  O  O16  1  0.76071600  0.58831400  0.39791700  1
  O  O17  1  0.96588600  0.71976400  0.07699600  1
  O  O18  1  0.21806000  0.97335300  0.37446800  1
  O  O19  1  0.39791700  0.76071600  0.58831400  1
  O  O20  1  0.07699600  0.96588600  0.71976400  1
  O  O21  1  0.31059800  0.12232800  0.49785500  1
  O  O22  1  0.49785500  0.31059800  0.12232800  1
  O  O23  1  0.12232800  0.49785500  0.31059800  1
loop_
_geom_bond_atom_site_label_1
_geom_bond_atom_site_label_2
_geom_bond_distance
_geom_bond_site_symmetry_2
Li0 O7 1.972722 1_555
Li0 O9 2.053484 1_555
Li0 O4 2.074334 1_555
Li0 O15 2.481055 1_555
Li0 O5 2.557617 1_555
Li1 O4 1.972722 1_555
Li1 O11 2.053484 1_555
Li1 O8 2.074334 1_555
Li1 O16 2.481055 1_555
Li1 O14 2.557617 1_555
Li2 O5 2.044160 1_555
Li2 O15 2.078083 1_555
Li2 O20 2.142525 1_645
Li2 O10 2.214377 1_555
Li3 O17 2.222904 1_556
Li3 O10 2.222904 1_565
Li3 O20 2.222904 1_655
Li3 O6 2.428269 1_665
Li3 O13 2.428270 1_656
Li3 O3 2.428270 1_566
Li4 O8 1.972722 1_555
Li4 O18 2.053484 1_555
Li4 O7 2.074334 1_555
Li4 O19 2.481055 1_555
Li4 O12 2.557617 1_555
Li5 O12 2.044160 1_555
Li5 O19 2.078083 1_555
Li5 O17 2.142525 1_456
Li5 O20 2.214377 1_555
Li6 O14 2.044160 1_555
Li6 O16 2.078083 1_555
Li6 O10 2.142525 1_564
Li6 O17 2.214377 1_555
Cr0 O3 2.013478 1_455
Cr0 O13 2.013478 1_545
Cr0 O6 2.013478 1_554
Cr0 O9 2.038923 1_554
Cr0 O11 2.038923 1_455
Cr0 O18 2.038923 1_545
Cr1 O2 1.966547 1_555
Cr1 O0 1.966548 1_555
Cr1 O1 1.966548 1_555
Cr1 O15 2.040414 1_555
Cr1 O19 2.040414 1_555
Cr1 O16 2.040414 1_555
Cr2 O21 1.930293 1_555
Cr2 O23 1.930293 1_555
Cr2 O22 1.930293 1_555
Cr2 O8 2.008513 1_555
Cr2 O4 2.008513 1_555
Cr2 O7 2.008513 1_555
Co0 O14 1.992048 1_556
Co0 O5 1.992048 1_565
Co0 O12 1.992048 1_655
Co0 O20 2.147326 1_655
Co0 O10 2.147326 1_565
Co0 O17 2.147326 1_556
O0 P1 1.543975 1_655
O1 P2 1.543975 1_556
O2 P0 1.543975 1_565
O3 P0 1.545798 1_555
O4 P0 1.580255 1_555
O5 P0 1.555847 1_555
O6 P1 1.545798 1_555
O7 P1 1.580255 1_555
O8 P2 1.580255 1_555
O9 P3 1.559564 1_555
O10 P3 1.561266 1_555
O11 P4 1.559564 1_555
O12 P1 1.555847 1_555
O13 P2 1.545798 1_555
O14 P2 1.555847 1_555
O15 P3 1.577285 1_555
O16 P4 1.577285 1_555
O17 P4 1.561266 1_555
O18 P5 1.559564 1_555
O19 P5 1.577285 1_555
O20 P5 1.561266 1_555
O21 P5 1.507745 1_545
O22 P3 1.507745 1_554
O23 P4 1.507745 1_455
