# generated using pymatgen
data_Li4Fe3Co3(SbO8)2
_symmetry_space_group_name_H-M   'P 1'
_cell_length_a   5.88316019
_cell_length_b   5.88316019
_cell_length_c   9.59533722
_cell_angle_alpha   88.96520674
_cell_angle_beta   88.96520674
_cell_angle_gamma   60.03139795
_symmetry_Int_Tables_number   1
_chemical_formula_structural   Li4Fe3Co3(SbO8)2
_chemical_formula_sum   'Li4 Fe3 Co3 Sb2 O16'
_cell_volume   287.64382803
_cell_formula_units_Z   1
loop_
 _symmetry_equiv_pos_site_id
 _symmetry_equiv_pos_as_xyz
  1  'x, y, z'
loop_
 _atom_site_type_symbol
 _atom_site_label
 _atom_site_symmetry_multiplicity
 _atom_site_fract_x
 _atom_site_fract_y
 _atom_site_fract_z
 _atom_site_occupancy
  Li  Li0  1  0.66150100  0.66150100  0.09476900  1
  Li  Li1  1  0.00572000  0.00572000  0.00766300  1
  Li  Li2  1  0.00753100  0.00753100  0.50964400  1
  Li  Li3  1  0.32897500  0.32897500  0.60122500  1
  Fe  Fe0  1  0.83099100  0.83099100  0.78586500  1
  Fe  Fe1  1  0.17049800  0.66141500  0.28576800  1
  Fe  Fe2  1  0.66141500  0.17049800  0.28576800  1
  Co  Co0  1  0.34213800  0.82998400  0.78589100  1
  Co  Co1  1  0.82998400  0.34213800  0.78589100  1
  Co  Co2  1  0.17343700  0.17343700  0.28505400  1
  Sb  Sb0  1  0.66547600  0.66547600  0.51488700  1
  Sb  Sb1  1  0.33227600  0.33227600  0.00848400  1
  O  O0  1  0.33277400  0.83776100  0.40251300  1
  O  O1  1  0.51690600  0.51690600  0.66790900  1
  O  O2  1  0.66136500  0.66136500  0.88853600  1
  O  O3  1  0.00634900  0.00634900  0.69636200  1
  O  O4  1  0.00822300  0.00822300  0.19553800  1
  O  O5  1  0.83776100  0.33277400  0.40251300  1
  O  O6  1  0.50740900  0.96301700  0.65807900  1
  O  O7  1  0.96301700  0.50740900  0.65807900  1
  O  O8  1  0.16430700  0.16430700  0.89725700  1
  O  O9  1  0.83609100  0.83609100  0.40945600  1
  O  O10  1  0.03273000  0.47297200  0.15673500  1
  O  O11  1  0.47297200  0.03273000  0.15673500  1
  O  O12  1  0.33050100  0.33050100  0.39374100  1
  O  O13  1  0.16529600  0.67422300  0.90392600  1
  O  O14  1  0.47996700  0.47996700  0.14999000  1
  O  O15  1  0.67422300  0.16529600  0.90392600  1
loop_
_geom_bond_atom_site_label_1
_geom_bond_atom_site_label_2
_geom_bond_distance
_geom_bond_site_symmetry_2
Li0 O14 1.913276 1_555
Li0 O2 1.978905 1_554
Li0 O11 1.989120 1_565
Li0 O10 1.989120 1_655
Li1 O4 1.803436 1_555
Li1 O8 1.913502 1_554
Li1 O15 1.970490 1_454
Li1 O13 1.970490 1_544
Li2 O3 1.791411 1_555
Li2 O5 1.942243 1_455
Li2 O0 1.942243 1_545
Li2 O9 2.011249 1_445
Li3 O6 1.937847 1_545
Li3 O7 1.937847 1_455
Li3 O12 1.990615 1_555
Li3 O1 2.031403 1_555
Fe0 O3 1.966089 1_665
Fe0 O2 1.971349 1_555
Fe0 O15 2.057339 1_565
Fe0 O13 2.057339 1_655
Fe0 O7 2.074472 1_555
Fe0 O6 2.074472 1_555
Fe1 O4 1.960606 1_565
Fe1 O12 1.970050 1_555
Fe1 O14 2.043177 1_555
Fe1 O9 2.067616 1_455
Fe1 O0 2.076726 1_555
Fe1 O10 2.098208 1_555
Fe2 O4 1.960606 1_655
Fe2 O12 1.970050 1_555
Fe2 O14 2.043177 1_555
Fe2 O9 2.067616 1_545
Fe2 O5 2.076726 1_555
Fe2 O11 2.098208 1_555
Co0 O2 1.910888 1_555
Co0 O3 1.923140 1_565
Co0 O6 1.935078 1_555
Co0 O1 1.967888 1_555
Co0 O13 2.019237 1_555
Co0 O8 2.021082 1_565
Co1 O2 1.910888 1_555
Co1 O3 1.923140 1_655
Co1 O7 1.935078 1_555
Co1 O1 1.967888 1_555
Co1 O15 2.019237 1_555
Co1 O8 2.021082 1_655
Co2 O4 1.905629 1_555
Co2 O12 1.928193 1_555
Co2 O11 1.951340 1_555
Co2 O10 1.951340 1_555
Co2 O5 2.038938 1_455
Co2 O0 2.038938 1_545
O0 Sb0 2.018886 1_555
O1 Sb0 2.086723 1_555
O5 Sb0 2.018886 1_555
O6 Sb0 2.056989 1_555
O7 Sb0 2.056989 1_555
O8 Sb1 2.035646 1_556
O9 Sb0 1.992910 1_555
O10 Sb1 2.075812 1_555
O11 Sb1 2.075812 1_555
O13 Sb1 2.001741 1_556
O14 Sb1 2.047689 1_555
O15 Sb1 2.001741 1_556
