# generated using pymatgen
data_Li2VO2F
_symmetry_space_group_name_H-M   'P 1'
_cell_length_a   3.03221600
_cell_length_b   7.37142500
_cell_length_c   10.33938368
_cell_angle_alpha   88.45153628
_cell_angle_beta   90.00000000
_cell_angle_gamma   90.00000000
_symmetry_Int_Tables_number   1
_chemical_formula_structural   Li2VO2F
_chemical_formula_sum   'Li8 V4 O8 F4'
_cell_volume   231.01895534
_cell_formula_units_Z   4
loop_
 _symmetry_equiv_pos_site_id
 _symmetry_equiv_pos_as_xyz
  1  'x, y, z'
loop_
 _atom_site_type_symbol
 _atom_site_label
 _atom_site_symmetry_multiplicity
 _atom_site_fract_x
 _atom_site_fract_y
 _atom_site_fract_z
 _atom_site_occupancy
  Li  Li0  1  0.50000000  0.87277300  0.67715400  1
  Li  Li1  1  0.50000000  0.84236900  0.17149900  1
  Li  Li2  1  0.50000000  0.15909200  0.33456400  1
  Li  Li3  1  0.50000000  0.12819900  0.81225400  1
  Li  Li4  1  0.00000000  0.84179200  0.42014800  1
  Li  Li5  1  0.00000000  0.88016400  0.91501200  1
  Li  Li6  1  0.00000000  0.15666500  0.08627200  1
  Li  Li7  1  0.00000000  0.13440400  0.59182500  1
  V  V0  1  0.50000000  0.49941900  0.00715300  1
  V  V1  1  0.50000000  0.49803300  0.49636800  1
  V  V2  1  0.00000000  0.50073700  0.25102900  1
  V  V3  1  0.00000000  0.48150700  0.74011000  1
  O  O0  1  0.50000000  0.34520600  0.66604100  1
  O  O1  1  0.50000000  0.34687800  0.16942800  1
  O  O2  1  0.50000000  0.65208400  0.33128200  1
  O  O3  1  0.00000000  0.34774600  0.41477500  1
  O  O4  1  0.00000000  0.37010700  0.91905000  1
  O  O5  1  0.00000000  0.65542900  0.08325400  1
  O  O6  1  0.00000000  0.64010200  0.58110600  1
  O  O7  1  0.00000000  0.99618800  0.75140900  1
  F  F0  1  0.50000000  0.65172400  0.82812700  1
  F  F1  1  0.50000000  0.00296100  0.01050300  1
  F  F2  1  0.50000000  0.99684200  0.49100800  1
  F  F3  1  0.00000000  0.99957900  0.25062700  1
loop_
_geom_bond_atom_site_label_1
_geom_bond_atom_site_label_2
_geom_bond_distance
_geom_bond_site_symmetry_2
Li0 O7 1.937371 1_655
Li0 O7 1.937371 1_555
Li0 O6 2.513655 1_555
Li0 O6 2.513655 1_655
Li1 O2 2.138117 1_555
Li1 O5 2.257859 1_655
Li1 O5 2.257859 1_555
Li2 O1 2.168789 1_555
Li2 O3 2.232176 1_655
Li2 O3 2.232176 1_555
Li3 O7 1.916866 1_545
Li3 O7 1.916866 1_645
Li3 O0 2.171079 1_555
Li3 O4 2.608466 1_555
Li3 O4 2.608466 1_655
Li4 O6 2.201424 1_555
Li4 O2 2.273286 1_455
Li4 O2 2.273286 1_555
Li5 O7 1.874738 1_555
Li5 O5 2.369507 1_556
Li6 O1 2.251435 1_555
Li6 O1 2.251435 1_455
Li6 O4 2.306041 1_554
Li7 O7 1.915646 1_545
Li7 O0 2.316568 1_455
Li7 O0 2.316568 1_555
Li7 O3 2.380891 1_555
O0 V3 1.983973 1_655
O0 V3 1.983973 1_555
O0 V1 2.059109 1_555
O1 V0 1.994368 1_555
O1 V2 2.085295 1_555
O1 V2 2.085295 1_655
O2 V1 2.024411 1_555
O2 V2 2.069248 1_655
O2 V2 2.069248 1_555
O3 V2 2.008735 1_555
O3 V1 2.070767 1_555
O3 V1 2.070767 1_455
O4 V3 2.003796 1_555
O4 V0 2.020872 1_456
O4 V0 2.020872 1_556
O5 V2 2.050007 1_555
O5 V0 2.071023 1_455
O5 V0 2.071023 1_555
O6 V3 1.991382 1_555
O6 V1 2.052444 1_555
O6 V1 2.052444 1_455
F0 V0 2.138790 1_556
F0 V3 2.182395 1_555
F0 V3 2.182395 1_655
F0 Li0 2.225815 1_555
F0 Li5 2.454173 1_555
F0 Li5 2.454173 1_655
F1 Li1 2.016372 1_545
F1 Li5 2.034956 1_544
F1 Li5 2.034956 1_644
F1 Li6 2.060099 1_555
F1 Li6 2.060099 1_655
F1 Li3 2.225211 1_554
F2 Li2 1.985526 1_565
F2 Li4 2.046197 1_655
F2 Li4 2.046197 1_555
F2 Li0 2.108440 1_555
F2 Li7 2.114363 1_565
F2 Li7 2.114363 1_665
F3 Li6 2.030324 1_565
F3 Li4 2.077201 1_555
F3 Li1 2.088571 1_455
F3 Li1 2.088571 1_555
F3 Li2 2.118845 1_565
F3 Li2 2.118845 1_465
