# generated using pymatgen
data_Li4Mn5O10
_symmetry_space_group_name_H-M   'P 1'
_cell_length_a   6.58500200
_cell_length_b   7.95256105
_cell_length_c   7.96102813
_cell_angle_alpha   95.65569164
_cell_angle_beta   114.34349916
_cell_angle_gamma   91.06665191
_symmetry_Int_Tables_number   1
_chemical_formula_structural   Li4Mn5O10
_chemical_formula_sum   'Li8 Mn10 O20'
_cell_volume   377.17716210
_cell_formula_units_Z   2
loop_
 _symmetry_equiv_pos_site_id
 _symmetry_equiv_pos_as_xyz
  1  'x, y, z'
loop_
 _atom_site_type_symbol
 _atom_site_label
 _atom_site_symmetry_multiplicity
 _atom_site_fract_x
 _atom_site_fract_y
 _atom_site_fract_z
 _atom_site_occupancy
  Li  Li0  1  0.31777500  0.79859100  0.23545500  1
  Li  Li1  1  0.39362600  0.90421300  0.58958600  1
  Li  Li2  1  0.75957800  0.75037600  0.51325600  1
  Li  Li3  1  0.24042200  0.24962400  0.48674400  1
  Li  Li4  1  0.60637400  0.09578700  0.41041400  1
  Li  Li5  1  0.68222500  0.20140900  0.76454500  1
  Li  Li6  1  0.90617100  0.40808200  0.58369700  1
  Li  Li7  1  0.09382900  0.59191800  0.41630300  1
  Mn  Mn0  1  0.85316500  0.84752000  0.89227800  1
  Mn  Mn1  1  0.14683500  0.15248000  0.10772200  1
  Mn  Mn2  1  0.04339200  0.04824200  0.68919900  1
  Mn  Mn3  1  0.95660800  0.95175800  0.31080100  1
  Mn  Mn4  1  0.50000000  0.00000000  0.00000000  1
  Mn  Mn5  1  0.53939700  0.54774500  0.69097100  1
  Mn  Mn6  1  0.46060300  0.45225500  0.30902900  1
  Mn  Mn7  1  0.00000000  0.50000000  0.00000000  1
  Mn  Mn8  1  0.34700000  0.35172000  0.88249900  1
  Mn  Mn9  1  0.65300000  0.64828000  0.11750100  1
  O  O0  1  0.25300300  0.01519400  0.34572100  1
  O  O1  1  0.74699700  0.98480600  0.65427900  1
  O  O2  1  0.63512100  0.89366000  0.24110200  1
  O  O3  1  0.14946400  0.94864200  0.93494100  1
  O  O4  1  0.05645300  0.85094900  0.53436800  1
  O  O5  1  0.14901000  0.37490900  0.24012400  1
  O  O6  1  0.55576800  0.76097800  0.86397800  1
  O  O7  1  0.64728000  0.42806700  0.91385200  1
  O  O8  1  0.56783500  0.34704400  0.53394900  1
  O  O9  1  0.44423200  0.23902200  0.13602200  1
  O  O10  1  0.03846200  0.27319400  0.83213300  1
  O  O11  1  0.94354700  0.14905100  0.46563200  1
  O  O12  1  0.85053600  0.05135800  0.06505900  1
  O  O13  1  0.96153800  0.72680600  0.16786700  1
  O  O14  1  0.36487900  0.10634000  0.75889800  1
  O  O15  1  0.43216500  0.65295600  0.46605100  1
  O  O16  1  0.35272000  0.57193300  0.08614800  1
  O  O17  1  0.85099000  0.62509100  0.75987600  1
  O  O18  1  0.75030800  0.53824900  0.34354100  1
  O  O19  1  0.24969200  0.46175100  0.65645900  1
loop_
_geom_bond_atom_site_label_1
_geom_bond_atom_site_label_2
_geom_bond_distance
_geom_bond_site_symmetry_2
Li0 O0 1.989390 1_565
Li0 O16 2.129202 1_555
Li0 O15 2.142518 1_555
Li0 O2 2.190342 1_555
Li0 O13 2.228745 1_455
Li0 O3 2.608037 1_554
Li1 O14 2.056969 1_565
Li1 O0 2.071615 1_565
Li1 O4 2.103799 1_555
Li1 O15 2.204875 1_555
Li1 O1 2.232069 1_555
Li1 O6 2.412925 1_555
Li2 O4 2.033245 1_655
Li2 O18 2.038125 1_555
Li2 O1 2.100682 1_555
Li2 O15 2.145299 1_555
Li2 O17 2.154840 1_555
Li2 O2 2.392035 1_555
Li3 O11 2.033245 1_455
Li3 O19 2.038125 1_555
Li3 O0 2.100682 1_555
Li3 O8 2.145299 1_555
Li3 O5 2.154840 1_555
Li3 O14 2.392035 1_555
Li4 O2 2.056969 1_545
Li4 O1 2.071615 1_545
Li4 O11 2.103799 1_555
Li4 O8 2.204875 1_555
Li4 O0 2.232069 1_555
Li4 O9 2.412925 1_555
Li5 O1 1.989390 1_545
Li5 O7 2.129202 1_555
Li5 O8 2.142518 1_555
Li5 O14 2.190342 1_555
Li5 O10 2.228745 1_655
Li5 O12 2.608037 1_556
Li6 O19 2.114192 1_655
Li6 O8 2.133217 1_555
Li6 O18 2.142941 1_555
Li6 O10 2.203143 1_655
Li6 O11 2.239514 1_555
Li6 O17 2.245875 1_555
Li7 O18 2.114192 1_455
Li7 O15 2.133217 1_555
Li7 O19 2.142941 1_555
Li7 O13 2.203143 1_455
Li7 O4 2.239514 1_555
Li7 O5 2.245875 1_555
Mn0 O17 1.964509 1_555
Mn0 O3 1.977470 1_655
Mn0 O6 1.978664 1_555
Mn0 O12 2.025162 1_566
Mn0 O1 2.148206 1_555
Mn0 O13 2.322545 1_556
Mn1 O5 1.964509 1_555
Mn1 O12 1.977470 1_455
Mn1 O9 1.978664 1_555
Mn1 O3 2.025162 1_544
Mn1 O0 2.148206 1_555
Mn1 O10 2.322545 1_554
Mn2 O11 1.891796 1_455
Mn2 O1 1.905135 1_445
Mn2 O4 1.923457 1_545
Mn2 O14 1.986871 1_555
Mn2 O10 2.031646 1_555
Mn2 O3 2.035209 1_545
Mn3 O4 1.891796 1_655
Mn3 O0 1.905135 1_665
Mn3 O11 1.923457 1_565
Mn3 O2 1.986871 1_555
Mn3 O13 2.031646 1_555
Mn3 O12 2.035209 1_565
Mn4 O2 2.032489 1_545
Mn4 O14 2.032489 1_554
Mn4 O3 2.168136 1_544
Mn4 O12 2.168136 1_555
Mn4 O6 2.206532 1_544
Mn4 O9 2.206532 1_555
Mn5 O19 1.914367 1_555
Mn5 O15 1.918285 1_555
Mn5 O17 1.961607 1_555
Mn5 O7 1.969187 1_555
Mn5 O8 1.988986 1_555
Mn5 O6 2.048077 1_555
Mn6 O18 1.914367 1_555
Mn6 O8 1.918285 1_555
Mn6 O5 1.961607 1_555
Mn6 O16 1.969187 1_555
Mn6 O15 1.988986 1_555
Mn6 O9 2.048077 1_555
Mn7 O5 2.114602 1_555
Mn7 O17 2.114602 1_454
Mn7 O16 2.179982 1_555
Mn7 O7 2.179982 1_454
Mn7 O13 2.219085 1_455
Mn7 O10 2.219085 1_554
Mn8 O19 1.948108 1_555
Mn8 O7 1.964529 1_555
Mn8 O10 1.977487 1_555
Mn8 O14 2.125007 1_555
Mn8 O9 2.144593 1_556
Mn8 O16 2.254856 1_556
Mn9 O18 1.948108 1_555
Mn9 O16 1.964529 1_555
Mn9 O13 1.977487 1_555
Mn9 O2 2.125007 1_555
Mn9 O6 2.144593 1_554
Mn9 O7 2.254856 1_554
