# generated using pymatgen
data_Y3AlO6
_symmetry_space_group_name_H-M   'P 1'
_cell_length_a   7.06622852
_cell_length_b   7.06622852
_cell_length_c   5.35291795
_cell_angle_alpha   90.00000000
_cell_angle_beta   90.00000000
_cell_angle_gamma   102.81019096
_symmetry_Int_Tables_number   1
_chemical_formula_structural   Y3AlO6
_chemical_formula_sum   'Y6 Al2 O12'
_cell_volume   260.62707130
_cell_formula_units_Z   2
loop_
 _symmetry_equiv_pos_site_id
 _symmetry_equiv_pos_as_xyz
  1  'x, y, z'
loop_
 _atom_site_type_symbol
 _atom_site_label
 _atom_site_symmetry_multiplicity
 _atom_site_fract_x
 _atom_site_fract_y
 _atom_site_fract_z
 _atom_site_occupancy
  Y  Y0  1  0.08662536  0.29863006  0.46940228  1
  Y  Y1  1  0.29863006  0.08662536  0.96940228  1
  Y  Y2  1  0.60317410  0.39682590  0.42469883  1
  Y  Y3  1  0.39682590  0.60317410  0.92469883  1
  Y  Y4  1  0.91337464  0.70136994  0.96940228  1
  Y  Y5  1  0.70136994  0.91337464  0.46940228  1
  Al  Al0  1  0.80553378  0.19446622  0.00602052  1
  Al  Al1  1  0.19446622  0.80553378  0.50602052  1
  O  O0  1  0.32350850  0.35538663  0.19827515  1
  O  O1  1  0.35538663  0.32350850  0.69827515  1
  O  O2  1  0.58487480  0.10905324  0.17017648  1
  O  O3  1  0.10905324  0.58487480  0.67017648  1
  O  O4  1  0.95484295  0.04515705  0.13094634  1
  O  O5  1  0.78627268  0.21372732  0.67867548  1
  O  O6  1  0.21372732  0.78627268  0.17867548  1
  O  O7  1  0.04515705  0.95484295  0.63094634  1
  O  O8  1  0.89094676  0.41512520  0.17017648  1
  O  O9  1  0.41512520  0.89094676  0.67017648  1
  O  O10  1  0.67649150  0.64461337  0.69827515  1
  O  O11  1  0.64461337  0.67649150  0.19827515  1
loop_
_geom_bond_atom_site_label_1
_geom_bond_atom_site_label_2
_geom_bond_distance
_geom_bond_site_symmetry_2
Al0 O5 1.765119 1_554
Al0 O8 1.774904 1_555
Al0 O2 1.774904 1_555
Al0 O4 1.779626 1_555
Al1 O6 1.765119 1_555
Al1 O9 1.774904 1_555
Al1 O3 1.774904 1_555
Al1 O7 1.779626 1_555
O0 Y0 2.184338 1_555
O0 Y1 2.233944 1_554
O0 Y3 2.253096 1_554
O0 Y2 2.281105 1_555
O1 Y1 2.184338 1_555
O1 Y0 2.233944 1_555
O1 Y2 2.253096 1_555
O1 Y3 2.281105 1_555
O2 Y1 2.264775 1_554
O2 Y5 2.379032 1_545
O2 Y2 2.427209 1_555
O3 Y0 2.264775 1_555
O3 Y4 2.379032 1_455
O3 Y3 2.427209 1_555
O4 Y1 2.533645 1_654
O4 Y4 2.533645 1_544
O4 Y0 2.572532 1_655
O4 Y5 2.572532 1_545
O5 Y0 2.356822 1_655
O5 Y5 2.356822 1_545
O5 Y2 2.436907 1_555
O6 Y1 2.356822 1_564
O6 Y4 2.356822 1_454
O6 Y3 2.436907 1_554
O7 Y0 2.533645 1_565
O7 Y5 2.533645 1_455
O7 Y4 2.572532 1_455
O7 Y1 2.572532 1_565
O8 Y4 2.264775 1_554
O8 Y0 2.379032 1_655
O8 Y2 2.427209 1_555
O9 Y5 2.264775 1_555
O9 Y1 2.379032 1_565
O9 Y3 2.427209 1_555
O10 Y4 2.184338 1_555
O10 Y5 2.233944 1_555
O10 Y2 2.253096 1_555
O10 Y3 2.281105 1_555
O11 Y5 2.184338 1_555
O11 Y4 2.233944 1_554
O11 Y3 2.253096 1_554
O11 Y2 2.281105 1_555
