# generated using pymatgen
data_Li8HfO6
_symmetry_space_group_name_H-M   'P 1'
_cell_length_a   5.98330798
_cell_length_b   5.98330752
_cell_length_c   5.98330782
_cell_angle_alpha   53.98637147
_cell_angle_beta   53.98637461
_cell_angle_gamma   53.98637086
_symmetry_Int_Tables_number   1
_chemical_formula_structural   Li8HfO6
_chemical_formula_sum   'Li8 Hf1 O6'
_cell_volume   130.18764796
_cell_formula_units_Z   1
loop_
 _symmetry_equiv_pos_site_id
 _symmetry_equiv_pos_as_xyz
  1  'x, y, z'
loop_
 _atom_site_type_symbol
 _atom_site_label
 _atom_site_symmetry_multiplicity
 _atom_site_fract_x
 _atom_site_fract_y
 _atom_site_fract_z
 _atom_site_occupancy
  Li  Li0  1  0.10308755  0.76554030  0.49615474  1
  Li  Li1  1  0.50384426  0.89691245  0.23445970  1
  Li  Li2  1  0.23445970  0.50384426  0.89691245  1
  Li  Li3  1  0.34447997  0.34447997  0.34447997  1
  Li  Li4  1  0.65552003  0.65552003  0.65552003  1
  Li  Li5  1  0.76554030  0.49615474  0.10308755  1
  Li  Li6  1  0.49615474  0.10308755  0.76554030  1
  Li  Li7  1  0.89691245  0.23445970  0.50384426  1
  Hf  Hf0  1  0.00000000  -0.00000000  -0.00000000  1
  O  O0  1  0.23486093  0.90762104  0.61435581  1
  O  O1  1  0.38564419  0.76513907  0.09237896  1
  O  O2  1  0.09237896  0.38564419  0.76513907  1
  O  O3  1  0.90762104  0.61435581  0.23486093  1
  O  O4  1  0.61435581  0.23486093  0.90762104  1
  O  O5  1  0.76513907  0.09237896  0.38564419  1
loop_
_geom_bond_atom_site_label_1
_geom_bond_atom_site_label_2
_geom_bond_distance
_geom_bond_site_symmetry_2
Li0 O2 1.873250 1_555
Li0 O5 1.936960 1_465
Li0 O1 1.973279 1_555
Li0 O0 1.998863 1_555
Li1 O0 1.873250 1_555
Li1 O4 1.936962 1_564
Li1 O3 1.973283 1_555
Li1 O1 1.998858 1_555
Li2 O4 1.873250 1_555
Li2 O3 1.936962 1_456
Li2 O0 1.973283 1_555
Li2 O2 1.998858 1_555
Li3 O1 2.120950 1_555
Li3 O5 2.120950 1_555
Li3 O2 2.120950 1_555
Li3 O0 2.382664 1_545
Li3 O3 2.382664 1_455
Li3 O4 2.382664 1_554
Li4 O4 2.120950 1_555
Li4 O0 2.120950 1_555
Li4 O3 2.120950 1_555
Li4 O5 2.382664 1_565
Li4 O2 2.382664 1_655
Li4 O1 2.382664 1_556
Li5 O1 1.873250 1_555
Li5 O2 1.936960 1_654
Li5 O5 1.973279 1_555
Li5 O3 1.998863 1_555
Li6 O5 1.873250 1_555
Li6 O1 1.936960 1_546
Li6 O2 1.973279 1_555
Li6 O4 1.998863 1_555
Li7 O3 1.873249 1_555
Li7 O0 1.936962 1_645
Li7 O4 1.973284 1_555
Li7 O5 1.998858 1_555
Hf0 O3 2.092324 1_445
Hf0 O2 2.092324 1_554
Hf0 O4 2.092324 1_454
Hf0 O1 2.092324 1_545
Hf0 O0 2.092324 1_544
Hf0 O5 2.092324 1_455
