# generated using pymatgen
data_Li6Mn5Fe(BO3)6
_symmetry_space_group_name_H-M   'P 1'
_cell_length_a   8.86578279
_cell_length_b   8.86578279
_cell_length_c   8.26034051
_cell_angle_alpha   62.26613780
_cell_angle_beta   62.26613780
_cell_angle_gamma   42.15371034
_symmetry_Int_Tables_number   1
_chemical_formula_structural   Li6Mn5Fe(BO3)6
_chemical_formula_sum   'Li6 Mn5 Fe1 B6 O18'
_cell_volume   377.68593740
_cell_formula_units_Z   1
loop_
 _symmetry_equiv_pos_site_id
 _symmetry_equiv_pos_as_xyz
  1  'x, y, z'
loop_
 _atom_site_type_symbol
 _atom_site_label
 _atom_site_symmetry_multiplicity
 _atom_site_fract_x
 _atom_site_fract_y
 _atom_site_fract_z
 _atom_site_occupancy
  Li  Li0  1  0.24209300  0.74096500  0.30098200  1
  Li  Li1  1  0.74096500  0.24209300  0.30098200  1
  Li  Li2  1  0.40129700  0.90020400  0.71676900  1
  Li  Li3  1  0.90020400  0.40129700  0.71676900  1
  Li  Li4  1  0.10802700  0.60845300  0.98239700  1
  Li  Li5  1  0.60845300  0.10802700  0.98239700  1
  Mn  Mn0  1  0.17951700  0.17951700  0.01219000  1
  Mn  Mn1  1  0.50600700  0.50600700  0.62770000  1
  Mn  Mn2  1  0.00609200  0.00609200  0.62866000  1
  Mn  Mn3  1  0.81438900  0.81438900  0.35936400  1
  Mn  Mn4  1  0.31391600  0.31391600  0.35990500  1
  Fe  Fe0  1  0.68025300  0.68025300  0.00850900  1
  B  B0  1  0.58478500  0.08090800  0.66757300  1
  B  B1  1  0.08090800  0.58478500  0.66757300  1
  B  B2  1  0.41804300  0.91548200  0.33186000  1
  B  B3  1  0.91548200  0.41804300  0.33186000  1
  B  B4  1  0.99993800  0.99993800  0.00004500  1
  B  B5  1  0.50019200  0.50019200  0.00177700  1
  O  O0  1  0.46028900  0.46028900  0.19516800  1
  O  O1  1  0.96108200  0.96108200  0.19367600  1
  O  O2  1  0.03999200  0.54007000  0.55960200  1
  O  O3  1  0.54007000  0.03999200  0.55960200  1
  O  O4  1  0.09660000  0.09660000  0.88419600  1
  O  O5  1  0.59736500  0.59736500  0.88930100  1
  O  O6  1  0.67976200  0.17933000  0.58172000  1
  O  O7  1  0.17933000  0.67976200  0.58172000  1
  O  O8  1  0.02498600  0.53288900  0.86134800  1
  O  O9  1  0.53288900  0.02498600  0.86134800  1
  O  O10  1  0.37820700  0.87359000  0.21988900  1
  O  O11  1  0.87359000  0.37820700  0.21988900  1
  O  O12  1  0.44367700  0.44367700  0.92092900  1
  O  O13  1  0.94209100  0.94209100  0.92206800  1
  O  O14  1  0.51389200  0.01322800  0.25013800  1
  O  O15  1  0.01322800  0.51389200  0.25013800  1
  O  O16  1  0.36137300  0.86101500  0.52597500  1
  O  O17  1  0.86101500  0.36137300  0.52597500  1
loop_
_geom_bond_atom_site_label_1
_geom_bond_atom_site_label_2
_geom_bond_distance
_geom_bond_site_symmetry_2
Li0 O10 1.976347 1_555
Li0 O0 2.002911 1_555
Li0 O1 2.009389 1_455
Li0 O7 2.014274 1_555
Li1 O11 1.976347 1_555
Li1 O0 2.002911 1_555
Li1 O1 2.009389 1_545
Li1 O6 2.014274 1_555
Li2 O16 1.985205 1_555
Li2 O3 2.002937 1_565
Li2 O4 2.007964 1_565
Li2 O5 2.021362 1_555
Li3 O17 1.985205 1_555
Li3 O2 2.002937 1_655
Li3 O4 2.007964 1_655
Li3 O5 2.021362 1_555
Li4 O15 1.972186 1_556
Li4 O13 2.005106 1_455
Li4 O8 2.007629 1_555
Li4 O12 2.021327 1_555
Li5 O14 1.972186 1_556
Li5 O13 2.005106 1_545
Li5 O9 2.007629 1_555
Li5 O12 2.021327 1_555
Mn0 O4 2.108716 1_554
Mn0 O11 2.191080 1_455
Mn0 O10 2.191080 1_545
Mn0 O8 2.199151 1_554
Mn0 O9 2.199151 1_554
Mn1 O12 2.106860 1_555
Mn1 O6 2.183954 1_555
Mn1 O7 2.183954 1_555
Mn1 O16 2.194064 1_555
Mn1 O17 2.194064 1_555
Mn2 O13 2.106052 1_445
Mn2 O7 2.186565 1_545
Mn2 O6 2.186565 1_455
Mn2 O16 2.194793 1_545
Mn2 O17 2.194793 1_455
Mn3 O1 2.109627 1_555
Mn3 O2 2.184922 1_655
Mn3 O3 2.184922 1_565
Mn3 O14 2.193793 1_565
Mn3 O15 2.193793 1_655
Mn4 O0 2.104665 1_555
Mn4 O2 2.183835 1_555
Mn4 O3 2.183835 1_555
Mn4 O14 2.194967 1_555
Mn4 O15 2.194967 1_555
Fe0 O5 2.048752 1_554
Fe0 O8 2.150694 1_654
Fe0 O9 2.150694 1_564
Fe0 O10 2.187662 1_555
Fe0 O11 2.187662 1_555
B0 O3 1.388385 1_555
B0 O6 1.389625 1_555
B0 O9 1.390589 1_555
B1 O2 1.388385 1_555
B1 O7 1.389625 1_555
B1 O8 1.390589 1_555
B2 O10 1.391544 1_555
B2 O14 1.393662 1_565
B2 O16 1.394970 1_555
B3 O11 1.391544 1_555
B3 O15 1.393662 1_655
B3 O17 1.394970 1_555
B4 O13 1.394932 1_554
B4 O1 1.394959 1_555
B4 O4 1.395333 1_664
B5 O0 1.391335 1_555
B5 O12 1.393990 1_554
B5 O5 1.399332 1_554
