# generated using pymatgen
data_YIO
_symmetry_space_group_name_H-M   'P 1'
_cell_length_a   11.06656699
_cell_length_b   11.06656699
_cell_length_c   11.06656700
_cell_angle_alpha   20.54239220
_cell_angle_beta   20.54239220
_cell_angle_gamma   20.54239557
_symmetry_Int_Tables_number   1
_chemical_formula_structural   YIO
_chemical_formula_sum   'Y2 I2 O2'
_cell_volume   146.07066146
_cell_formula_units_Z   2
loop_
 _symmetry_equiv_pos_site_id
 _symmetry_equiv_pos_as_xyz
  1  'x, y, z'
loop_
 _atom_site_type_symbol
 _atom_site_label
 _atom_site_symmetry_multiplicity
 _atom_site_fract_x
 _atom_site_fract_y
 _atom_site_fract_z
 _atom_site_occupancy
  Y  Y0  1  0.28979300  0.28979300  0.28979300  1
  Y  Y1  1  0.71020700  0.71020700  0.71020700  1
  I  I0  1  0.11095800  0.11095800  0.11095800  1
  I  I1  1  0.88904200  0.88904200  0.88904200  1
  O  O0  1  0.36001300  0.36001300  0.36001300  1
  O  O1  1  0.63998700  0.63998700  0.63998700  1
loop_
_geom_bond_atom_site_label_1
_geom_bond_atom_site_label_2
_geom_bond_distance
_geom_bond_site_symmetry_2
I0 Y1 3.160540 1_445
I0 Y1 3.160540 1_544
I0 Y1 3.160540 1_454
I1 Y0 3.160540 1_665
I1 Y0 3.160540 1_566
I1 Y0 3.160540 1_656
O0 Y0 2.281335 1_555
O0 Y1 2.343436 1_554
O0 Y1 2.343436 1_455
O0 Y1 2.343436 1_545
O1 Y1 2.281335 1_555
O1 Y0 2.343436 1_556
O1 Y0 2.343436 1_655
O1 Y0 2.343436 1_565
