# generated using pymatgen
data_Li2Co(SiO3)2
_symmetry_space_group_name_H-M   'P 1'
_cell_length_a   15.73318685
_cell_length_b   11.97912255
_cell_length_c   11.14388807
_cell_angle_alpha   85.67115547
_cell_angle_beta   49.39547802
_cell_angle_gamma   44.93336651
_symmetry_Int_Tables_number   1
_chemical_formula_structural   Li2Co(SiO3)2
_chemical_formula_sum   'Li12 Co6 Si12 O36'
_cell_volume   783.35100482
_cell_formula_units_Z   6
loop_
 _symmetry_equiv_pos_site_id
 _symmetry_equiv_pos_as_xyz
  1  'x, y, z'
loop_
 _atom_site_type_symbol
 _atom_site_label
 _atom_site_symmetry_multiplicity
 _atom_site_fract_x
 _atom_site_fract_y
 _atom_site_fract_z
 _atom_site_occupancy
  Li  Li0  1  0.98883700  0.98883700  0.51116300  1
  Li  Li1  1  0.64503100  0.64503100  0.85496900  1
  Li  Li2  1  0.10643100  0.45511600  0.53685200  1
  Li  Li3  1  0.79647100  0.06254100  0.92454300  1
  Li  Li4  1  0.32545700  0.03355600  0.45352900  1
  Li  Li5  1  0.71314800  0.34839900  0.14356900  1
  Li  Li6  1  0.73883700  0.73883700  0.26116300  1
  Li  Li7  1  0.39503100  0.39503100  0.60496900  1
  Li  Li8  1  0.34839900  0.71314800  0.79488400  1
  Li  Li9  1  0.03355600  0.32545700  0.18745900  1
  Li  Li10  1  0.06254100  0.79647100  0.21644400  1
  Li  Li11  1  0.45511600  0.10643100  0.90160100  1
  Co  Co0  1  0.86826500  0.86826500  0.63173500  1
  Co  Co1  1  0.92327300  0.21693800  0.74458400  1
  Co  Co2  1  0.50541600  0.13479600  0.32672700  1
  Co  Co3  1  0.61826500  0.61826500  0.38173500  1
  Co  Co4  1  0.13479600  0.50541600  0.03306200  1
  Co  Co5  1  0.21693800  0.92327300  0.11520400  1
  Si  Si0  1  0.15872900  0.15872900  0.34127100  1
  Si  Si1  1  0.48495600  0.48495600  0.01504400  1
  Si  Si2  1  0.56057200  0.95203800  0.05019200  1
  Si  Si3  1  0.28727000  0.57364200  0.42941500  1
  Si  Si4  1  0.82058500  0.54032700  0.96273000  1
  Si  Si5  1  0.19980800  0.81280200  0.68942800  1
  Si  Si6  1  0.23495600  0.23495600  0.76504400  1
  Si  Si7  1  0.90872900  0.90872900  0.09127100  1
  Si  Si8  1  0.81280200  0.19980800  0.29796200  1
  Si  Si9  1  0.54032700  0.82058500  0.67635800  1
  Si  Si10  1  0.57364200  0.28727000  0.70967300  1
  Si  Si11  1  0.95203800  0.56057200  0.43719800  1
  O  O0  1  0.74706600  0.29413600  0.77478400  1
  O  O1  1  0.60169900  0.02388200  0.92180700  1
  O  O2  1  0.02900200  0.82600900  0.60270800  1
  O  O3  1  0.47024700  0.41550100  0.15822000  1
  O  O4  1  0.18109100  0.06895600  0.45118400  1
  O  O5  1  0.80472600  0.67509100  0.88624900  1
  O  O6  1  0.42338200  0.97763700  0.08823800  1
  O  O7  1  0.75679200  0.49088500  0.94030700  1
  O  O8  1  0.40122800  0.11717700  0.29903300  1
  O  O9  1  0.95096700  0.06743800  0.84877200  1
  O  O10  1  0.30969300  0.43798400  0.49320800  1
  O  O11  1  0.16176200  0.73925800  0.82661800  1
  O  O12  1  0.36375100  0.61606500  0.44527400  1
  O  O13  1  0.79881600  0.95123100  0.06890900  1
  O  O14  1  0.09178000  0.29396800  0.77975300  1
  O  O15  1  0.64729200  0.70771900  0.22099800  1
  O  O16  1  0.32819300  0.79738800  0.64830100  1
  O  O17  1  0.47521600  0.06598600  0.50293400  1
  O  O18  1  0.06598600  0.47521600  0.95586400  1
  O  O19  1  0.79738800  0.32819300  0.22611800  1
  O  O20  1  0.70771900  0.64729200  0.42399100  1
  O  O21  1  0.29396800  0.09178000  0.83449900  1
  O  O22  1  0.95123100  0.79881600  0.18104400  1
  O  O23  1  0.61606500  0.36375100  0.57490900  1
  O  O24  1  0.73925800  0.16176200  0.27236300  1
  O  O25  1  0.43798400  0.30969300  0.75911500  1
  O  O26  1  0.06743800  0.95096700  0.13282300  1
  O  O27  1  0.11717700  0.40122800  0.18256200  1
  O  O28  1  0.49088500  0.75679200  0.81201600  1
  O  O29  1  0.97763700  0.42338200  0.51074200  1
  O  O30  1  0.67509100  0.80472600  0.63393500  1
  O  O31  1  0.06895600  0.18109100  0.29876900  1
  O  O32  1  0.41550100  0.47024700  0.95603200  1
  O  O33  1  0.82600900  0.02900200  0.54228100  1
  O  O34  1  0.02388200  0.60169900  0.45261200  1
  O  O35  1  0.29413600  0.74706600  0.18401400  1
loop_
_geom_bond_atom_site_label_1
_geom_bond_atom_site_label_2
_geom_bond_distance
_geom_bond_site_symmetry_2
Li0 O0 1.963242 1_565
Li0 O35 1.963242 1_655
Li0 O33 2.009537 1_565
Li0 O2 2.009537 1_655
Li1 O7 2.172636 1_555
Li1 O28 2.172636 1_555
Li1 O6 2.210112 1_556
Li1 O29 2.210115 1_555
Li2 O34 1.939232 1_555
Li2 O8 1.989731 1_555
Li2 O5 2.101747 1_455
Li2 O29 2.491992 1_455
Li3 O13 2.012787 1_546
Li3 O2 2.013377 1_645
Li3 O9 2.036564 1_555
Li3 O3 2.130817 1_556
Li4 O4 2.012794 1_555
Li4 O15 2.013380 1_545
Li4 O8 2.036553 1_555
Li4 O14 2.130813 1_555
Li5 O19 1.939232 1_555
Li5 O9 1.989731 1_554
Li5 O12 2.101750 1_555
Li5 O24 2.491983 1_555
Li6 O17 1.963242 1_565
Li6 O18 1.963242 1_654
Li6 O15 2.009537 1_555
Li6 O20 2.009537 1_555
Li7 O10 2.172636 1_555
Li7 O25 2.172636 1_555
Li7 O24 2.210119 1_555
Li7 O11 2.210121 1_555
Li8 O16 1.939232 1_555
Li8 O26 1.989731 1_556
Li8 O23 2.101750 1_555
Li8 O11 2.491977 1_555
Li9 O31 2.012786 1_555
Li9 O20 2.013383 1_455
Li9 O27 2.036549 1_555
Li9 O21 2.130820 1_554
Li10 O22 2.012778 1_455
Li10 O33 2.013385 1_465
Li10 O26 2.036559 1_555
Li10 O32 2.130819 1_554
Li11 O1 1.939232 1_555
Li11 O27 1.989731 1_556
Li11 O30 2.101742 1_545
Li11 O6 2.491985 1_546
Co0 O1 1.925350 1_565
Co0 O34 1.925350 1_655
Co0 O33 1.975775 1_565
Co0 O2 1.975775 1_655
Co1 O4 1.927982 1_655
Co1 O0 1.963859 1_555
Co1 O7 1.964990 1_555
Co1 O9 1.996233 1_555
Co2 O13 1.927976 1_545
Co2 O17 1.963865 1_555
Co2 O10 1.964980 1_555
Co2 O8 1.996242 1_555
Co3 O16 1.925350 1_555
Co3 O19 1.925350 1_555
Co3 O15 1.975775 1_555
Co3 O20 1.975775 1_555
Co4 O22 1.927976 1_455
Co4 O18 1.963874 1_554
Co4 O25 1.964981 1_554
Co4 O27 1.996234 1_555
Co5 O31 1.927986 1_565
Co5 O35 1.963867 1_555
Co5 O28 1.964986 1_554
Co5 O26 1.996226 1_555
O0 Si1 1.614012 1_556
O1 Si2 1.613644 1_546
O2 Si3 1.629197 1_555
O3 Si3 1.681575 1_555
O3 Si1 1.697976 1_555
O4 Si0 1.614602 1_555
O5 Si2 1.684132 1_556
O5 Si4 1.701058 1_555
O6 Si2 1.680453 1_555
O6 Si0 1.687020 1_565
O7 Si4 1.615864 1_555
O8 Si2 1.626446 1_545
O9 Si5 1.626446 1_645
O10 Si3 1.615864 1_555
O11 Si5 1.680445 1_555
O11 Si7 1.687024 1_456
O12 Si5 1.684137 1_555
O12 Si3 1.701048 1_555
O13 Si7 1.614602 1_555
O14 Si4 1.681575 1_455
O14 Si6 1.697976 1_555
O15 Si4 1.629197 1_554
O16 Si5 1.613644 1_555
O17 Si6 1.614012 1_555
O18 Si6 1.614012 1_555
O19 Si8 1.613644 1_555
O20 Si9 1.629197 1_555
O21 Si9 1.681575 1_545
O21 Si6 1.697976 1_555
O22 Si7 1.614602 1_555
O23 Si8 1.684129 1_555
O23 Si10 1.701054 1_555
O24 Si8 1.680437 1_555
O24 Si7 1.687028 1_545
O25 Si10 1.615864 1_555
O26 Si8 1.626446 1_465
O27 Si11 1.626446 1_455
O28 Si9 1.615864 1_555
O29 Si11 1.680447 1_555
O29 Si0 1.687019 1_655
O30 Si11 1.684129 1_555
O30 Si9 1.701063 1_555
O31 Si0 1.614602 1_555
O32 Si10 1.681575 1_555
O32 Si1 1.697976 1_556
O33 Si10 1.629197 1_555
O34 Si11 1.613644 1_455
O35 Si1 1.614012 1_555
