# generated using pymatgen
data_Ba2B2O5
_symmetry_space_group_name_H-M   'P 1'
_cell_length_a   4.38263547
_cell_length_b   10.36685935
_cell_length_c   12.83848963
_cell_angle_alpha   77.91397473
_cell_angle_beta   90.00000000
_cell_angle_gamma   90.00000000
_symmetry_Int_Tables_number   1
_chemical_formula_structural   Ba2B2O5
_chemical_formula_sum   'Ba8 B8 O20'
_cell_volume   570.37669610
_cell_formula_units_Z   4
loop_
 _symmetry_equiv_pos_site_id
 _symmetry_equiv_pos_as_xyz
  1  'x, y, z'
loop_
 _atom_site_type_symbol
 _atom_site_label
 _atom_site_symmetry_multiplicity
 _atom_site_fract_x
 _atom_site_fract_y
 _atom_site_fract_z
 _atom_site_occupancy
  Ba  Ba0  1  0.72221382  0.92612689  0.65760413  1
  Ba  Ba1  1  0.77778618  0.92612689  0.15760413  1
  Ba  Ba2  1  0.20228667  0.58870631  0.61105722  1
  Ba  Ba3  1  0.29771333  0.58870631  0.11105722  1
  Ba  Ba4  1  0.70228667  0.41129369  0.88894278  1
  Ba  Ba5  1  0.79771333  0.41129369  0.38894278  1
  Ba  Ba6  1  0.22221382  0.07387311  0.84239587  1
  Ba  Ba7  1  0.27778618  0.07387311  0.34239587  1
  B  B0  1  0.69550124  0.79201928  0.93753025  1
  B  B1  1  0.80449876  0.79201928  0.43753025  1
  B  B2  1  0.29859811  0.68437798  0.82210168  1
  B  B3  1  0.20140189  0.68437798  0.32210168  1
  B  B4  1  0.79859811  0.31562202  0.67789832  1
  B  B5  1  0.70140189  0.31562202  0.17789832  1
  B  B6  1  0.19550124  0.20798072  0.56246975  1
  B  B7  1  0.30449876  0.20798072  0.06246975  1
  O  O0  1  0.71483332  0.91603395  0.87765058  1
  O  O1  1  0.78516668  0.91603395  0.37765058  1
  O  O2  1  0.51765852  0.69168805  0.90380141  1
  O  O3  1  0.67962298  0.75138036  0.53604395  1
  O  O4  1  0.23419746  0.78773367  0.74159157  1
  O  O5  1  0.98234148  0.69168805  0.40380141  1
  O  O6  1  0.82037702  0.75138036  0.03604395  1
  O  O7  1  0.26580254  0.78773367  0.24159157  1
  O  O8  1  0.18593625  0.56026441  0.82922189  1
  O  O9  1  0.68593625  0.43973559  0.67077811  1
  O  O10  1  0.31406375  0.56026441  0.32922189  1
  O  O11  1  0.81406375  0.43973559  0.17077811  1
  O  O12  1  0.73419746  0.21226633  0.75840843  1
  O  O13  1  0.17962298  0.24861964  0.96395605  1
  O  O14  1  0.01765852  0.30831195  0.59619859  1
  O  O15  1  0.76580254  0.21226633  0.25840843  1
  O  O16  1  0.32037702  0.24861964  0.46395605  1
  O  O17  1  0.48234148  0.30831195  0.09619859  1
  O  O18  1  0.21483332  0.08396605  0.62234942  1
  O  O19  1  0.28516668  0.08396605  0.12234942  1
loop_
_geom_bond_atom_site_label_1
_geom_bond_atom_site_label_2
_geom_bond_distance
_geom_bond_site_symmetry_2
Ba0 O3 2.633666 1_555
Ba0 O4 2.673514 1_555
Ba0 O18 2.689488 1_665
Ba0 O18 2.741691 1_565
Ba0 O4 2.758266 1_655
Ba0 O0 2.805209 1_555
Ba1 O6 2.633666 1_555
Ba1 O7 2.673514 1_655
Ba1 O19 2.689488 1_565
Ba1 O19 2.741691 1_665
Ba1 O7 2.758266 1_555
Ba1 O1 2.805209 1_555
Ba2 O9 2.640079 1_555
Ba2 O3 2.732727 1_555
Ba2 O8 2.755232 1_555
Ba2 O9 2.756468 1_455
Ba2 O5 2.821258 1_455
Ba2 O3 2.887633 1_455
Ba2 O4 2.921168 1_555
Ba2 O14 3.061515 1_555
Ba3 O11 2.640079 1_455
Ba3 O6 2.732727 1_455
Ba3 O10 2.755232 1_555
Ba3 O11 2.756468 1_555
Ba3 O2 2.821258 1_554
Ba3 O6 2.887633 1_555
Ba3 O7 2.921168 1_555
Ba3 O17 3.061515 1_555
Ba4 O8 2.640079 1_655
Ba4 O13 2.732727 1_655
Ba4 O9 2.755232 1_555
Ba4 O8 2.756468 1_555
Ba4 O17 2.821258 1_556
Ba4 O13 2.887633 1_555
Ba4 O12 2.921168 1_555
Ba4 O2 3.061515 1_555
Ba5 O10 2.640079 1_555
Ba5 O16 2.732727 1_555
Ba5 O11 2.755232 1_555
Ba5 O10 2.756468 1_655
Ba5 O14 2.821258 1_655
Ba5 O16 2.887633 1_655
Ba5 O15 2.921168 1_555
Ba5 O5 3.061515 1_555
Ba6 O13 2.633666 1_555
Ba6 O12 2.673514 1_455
Ba6 O0 2.689488 1_545
Ba6 O0 2.741691 1_445
Ba6 O12 2.758266 1_555
Ba6 O18 2.805209 1_555
Ba7 O16 2.633666 1_555
Ba7 O15 2.673514 1_555
Ba7 O1 2.689488 1_445
Ba7 O1 2.741691 1_545
Ba7 O15 2.758266 1_455
Ba7 O19 2.805209 1_555
B0 O0 1.355422 1_555
B0 O6 1.361439 1_556
B0 O2 1.437173 1_555
B1 O1 1.355422 1_555
B1 O3 1.361439 1_555
B1 O5 1.437173 1_555
B2 O4 1.353635 1_555
B2 O8 1.363236 1_555
B2 O2 1.435598 1_555
B3 O7 1.353635 1_555
B3 O10 1.363236 1_555
B3 O5 1.435598 1_455
B4 O12 1.353635 1_555
B4 O9 1.363236 1_555
B4 O14 1.435598 1_655
B5 O15 1.353635 1_555
B5 O11 1.363236 1_555
B5 O17 1.435598 1_555
B6 O18 1.355422 1_555
B6 O16 1.361439 1_555
B6 O14 1.437173 1_555
B7 O19 1.355422 1_555
B7 O13 1.361439 1_554
B7 O17 1.437173 1_555
