# generated using pymatgen
data_Bi2(SO4)3
_symmetry_space_group_name_H-M   'P 1'
_cell_length_a   8.53553828
_cell_length_b   8.53553828
_cell_length_c   9.33648939
_cell_angle_alpha   68.34073344
_cell_angle_beta   68.34073344
_cell_angle_gamma   65.82610804
_symmetry_Int_Tables_number   1
_chemical_formula_structural   Bi2(SO4)3
_chemical_formula_sum   'Bi4 S6 O24'
_cell_volume   557.37057307
_cell_formula_units_Z   2
loop_
 _symmetry_equiv_pos_site_id
 _symmetry_equiv_pos_as_xyz
  1  'x, y, z'
loop_
 _atom_site_type_symbol
 _atom_site_label
 _atom_site_symmetry_multiplicity
 _atom_site_fract_x
 _atom_site_fract_y
 _atom_site_fract_z
 _atom_site_occupancy
  Bi  Bi0  1  0.37069600  0.86279200  0.47925500  1
  Bi  Bi1  1  0.86279200  0.37069600  0.97925500  1
  Bi  Bi2  1  0.13720800  0.62930400  0.02074500  1
  Bi  Bi3  1  0.62930400  0.13720800  0.52074500  1
  S  S0  1  0.75473000  0.54550400  0.32425700  1
  S  S1  1  0.54550400  0.75473000  0.82425700  1
  S  S2  1  0.05917100  0.94082900  0.25000000  1
  S  S3  1  0.94082900  0.05917100  0.75000000  1
  S  S4  1  0.45449600  0.24527000  0.17574300  1
  S  S5  1  0.24527000  0.45449600  0.67574300  1
  O  O0  1  0.88920600  0.95179600  0.37478900  1
  O  O1  1  0.95179600  0.88920600  0.87478900  1
  O  O2  1  0.86307800  0.51074500  0.42560600  1
  O  O3  1  0.62022900  0.72792700  0.30526100  1
  O  O4  1  0.86983400  0.53746900  0.15167600  1
  O  O5  1  0.51074500  0.86307800  0.92560600  1
  O  O6  1  0.20746400  0.89834700  0.31975300  1
  O  O7  1  0.65799300  0.41379700  0.37236500  1
  O  O8  1  0.72792700  0.62022900  0.80526100  1
  O  O9  1  0.53746900  0.86983400  0.65167600  1
  O  O10  1  0.89834700  0.20746400  0.81975300  1
  O  O11  1  0.58620300  0.34200700  0.12763500  1
  O  O12  1  0.41379700  0.65799300  0.87236500  1
  O  O13  1  0.10165300  0.79253600  0.18024700  1
  O  O14  1  0.46253100  0.13016600  0.34832400  1
  O  O15  1  0.27207300  0.37977100  0.19473900  1
  O  O16  1  0.34200700  0.58620300  0.62763500  1
  O  O17  1  0.79253600  0.10165300  0.68024700  1
  O  O18  1  0.48925500  0.13692200  0.07439400  1
  O  O19  1  0.13016600  0.46253100  0.84832400  1
  O  O20  1  0.37977100  0.27207300  0.69473900  1
  O  O21  1  0.13692200  0.48925500  0.57439400  1
  O  O22  1  0.04820400  0.11079400  0.12521100  1
  O  O23  1  0.11079400  0.04820400  0.62521100  1
loop_
_geom_bond_atom_site_label_1
_geom_bond_atom_site_label_2
_geom_bond_distance
_geom_bond_site_symmetry_2
Bi0 O6 2.258909 1_555
Bi0 O3 2.306258 1_555
Bi0 O16 2.315495 1_555
Bi0 O23 2.401648 1_565
Bi0 O14 2.452669 1_565
Bi0 O9 2.540571 1_555
Bi1 O10 2.258909 1_555
Bi1 O8 2.306258 1_555
Bi1 O11 2.315495 1_556
Bi1 O22 2.401648 1_656
Bi1 O19 2.452669 1_655
Bi1 O4 2.540571 1_556
Bi2 O13 2.258909 1_555
Bi2 O15 2.306258 1_555
Bi2 O12 2.315495 1_554
Bi2 O1 2.401648 1_454
Bi2 O4 2.452669 1_455
Bi2 O19 2.540571 1_554
Bi3 O17 2.258909 1_555
Bi3 O20 2.306258 1_555
Bi3 O7 2.315495 1_555
Bi3 O0 2.401648 1_545
Bi3 O9 2.452669 1_545
Bi3 O14 2.540571 1_555
O0 S2 1.480690 1_655
O1 S3 1.480690 1_565
O2 S0 1.432721 1_555
O3 S0 1.502109 1_555
O4 S0 1.556941 1_555
O5 S1 1.432721 1_555
O6 S2 1.488633 1_555
O7 S0 1.503688 1_555
O8 S1 1.502109 1_555
O9 S1 1.556941 1_555
O10 S3 1.488633 1_555
O11 S4 1.503688 1_555
O12 S1 1.503688 1_555
O13 S2 1.488633 1_555
O14 S4 1.556941 1_555
O15 S4 1.502109 1_555
O16 S5 1.503688 1_555
O17 S3 1.488633 1_555
O18 S4 1.432721 1_555
O19 S5 1.556941 1_555
O20 S5 1.502109 1_555
O21 S5 1.432721 1_555
O22 S2 1.480690 1_545
O23 S3 1.480690 1_455
