# generated using pymatgen
data_ReAgO4
_symmetry_space_group_name_H-M   'P 1'
_cell_length_a   5.37651032
_cell_length_b   5.37644102
_cell_length_c   6.89434448
_cell_angle_alpha   112.90921152
_cell_angle_beta   112.93854659
_cell_angle_gamma   90.01994216
_symmetry_Int_Tables_number   1
_chemical_formula_structural   ReAgO4
_chemical_formula_sum   'Re2 Ag2 O8'
_cell_volume   166.31709671
_cell_formula_units_Z   2
loop_
 _symmetry_equiv_pos_site_id
 _symmetry_equiv_pos_as_xyz
  1  'x, y, z'
loop_
 _atom_site_type_symbol
 _atom_site_label
 _atom_site_symmetry_multiplicity
 _atom_site_fract_x
 _atom_site_fract_y
 _atom_site_fract_z
 _atom_site_occupancy
  Re  Re0  1  0.87515680  0.62503216  0.75010061  1
  Re  Re1  1  0.12484320  0.37496784  0.24989939  1
  Ag  Ag0  1  0.62483053  0.87531901  0.25002523  1
  Ag  Ag1  1  0.37516947  0.12468099  0.74997477  1
  O  O0  1  0.19231306  0.84846129  0.92197024  1
  O  O1  1  0.07354981  0.69209456  0.42177348  1
  O  O2  1  0.34821070  0.22988983  0.42197786  1
  O  O3  1  0.72986725  0.57364583  0.92207602  1
  O  O4  1  0.27013275  0.42635417  0.07792398  1
  O  O5  1  0.65178930  0.77011017  0.57802214  1
  O  O6  1  0.92645019  0.30790544  0.57822652  1
  O  O7  1  0.80768694  0.15153871  0.07802976  1
loop_
_geom_bond_atom_site_label_1
_geom_bond_atom_site_label_2
_geom_bond_distance
_geom_bond_site_symmetry_2
Ag0 O0 2.487908 1_554
Ag0 O5 2.488969 1_555
Ag0 O6 2.489767 1_565
Ag0 O3 2.490491 1_554
Ag0 O7 2.618556 1_565
Ag0 O2 2.620735 1_565
Ag0 O4 2.621912 1_555
Ag0 O1 2.622193 1_655
Ag1 O7 2.487908 1_556
Ag1 O2 2.488969 1_555
Ag1 O1 2.489767 1_545
Ag1 O4 2.490491 1_556
Ag1 O0 2.618556 1_545
Ag1 O5 2.620735 1_545
Ag1 O3 2.621912 1_555
Ag1 O6 2.622193 1_455
O0 Re0 1.752189 1_455
O1 Re1 1.751958 1_555
O2 Re1 1.751754 1_555
O3 Re0 1.751893 1_555
O4 Re1 1.751893 1_555
O5 Re0 1.751754 1_555
O6 Re0 1.751958 1_555
O7 Re1 1.752189 1_655
