# generated using pymatgen
data_LiNiPO4
_symmetry_space_group_name_H-M   'P 1'
_cell_length_a   7.67290200
_cell_length_b   8.55584800
_cell_length_c   17.04644051
_cell_angle_alpha   60.14824666
_cell_angle_beta   90.00000000
_cell_angle_gamma   90.00000000
_symmetry_Int_Tables_number   1
_chemical_formula_structural   LiNiPO4
_chemical_formula_sum   'Li12 Ni12 P12 O48'
_cell_volume   970.58567480
_cell_formula_units_Z   12
loop_
 _symmetry_equiv_pos_site_id
 _symmetry_equiv_pos_as_xyz
  1  'x, y, z'
loop_
 _atom_site_type_symbol
 _atom_site_label
 _atom_site_symmetry_multiplicity
 _atom_site_fract_x
 _atom_site_fract_y
 _atom_site_fract_z
 _atom_site_occupancy
  Li  Li0  1  0.74826900  0.93836200  0.09559000  1
  Li  Li1  1  0.77804600  0.36767300  0.72887400  1
  Li  Li2  1  0.74366300  0.67533300  0.43465500  1
  Li  Li3  1  0.24366300  0.32466700  0.06534500  1
  Li  Li4  1  0.27804600  0.63232700  0.77112600  1
  Li  Li5  1  0.24826900  0.06163800  0.40441000  1
  Li  Li6  1  0.75173100  0.93836200  0.59559000  1
  Li  Li7  1  0.72195400  0.36767300  0.22887400  1
  Li  Li8  1  0.75633700  0.67533300  0.93465500  1
  Li  Li9  1  0.25633700  0.32466700  0.56534500  1
  Li  Li10  1  0.22195400  0.63232700  0.27112600  1
  Li  Li11  1  0.25173100  0.06163800  0.90441000  1
  Ni  Ni0  1  0.06092000  0.69821100  0.55737800  1
  Ni  Ni1  1  0.98127600  0.36366300  0.89965000  1
  Ni  Ni2  1  0.16843900  0.00519500  0.24899600  1
  Ni  Ni3  1  0.66843900  0.99480500  0.25100400  1
  Ni  Ni4  1  0.48127600  0.63633700  0.60035000  1
  Ni  Ni5  1  0.56092000  0.30178900  0.94262200  1
  Ni  Ni6  1  0.43908000  0.69821100  0.05737800  1
  Ni  Ni7  1  0.51872400  0.36366300  0.39965000  1
  Ni  Ni8  1  0.33156100  0.00519500  0.74899600  1
  Ni  Ni9  1  0.83156100  0.99480500  0.75100400  1
  Ni  Ni10  1  0.01872400  0.63633700  0.10035000  1
  Ni  Ni11  1  0.93908000  0.30178900  0.44262200  1
  P  P0  1  0.33398900  0.95863600  0.09113600  1
  P  P1  1  0.15942500  0.37618700  0.72088400  1
  P  P2  1  0.33767900  0.68330900  0.42586600  1
  P  P3  1  0.83767900  0.31669100  0.07413400  1
  P  P4  1  0.65942500  0.62381300  0.77911600  1
  P  P5  1  0.83398900  0.04136400  0.40886400  1
  P  P6  1  0.16601100  0.95863600  0.59113600  1
  P  P7  1  0.34057500  0.37618700  0.22088400  1
  P  P8  1  0.16232100  0.68330900  0.92586600  1
  P  P9  1  0.66232100  0.31669100  0.57413400  1
  P  P10  1  0.84057500  0.62381300  0.27911600  1
  P  P11  1  0.66601100  0.04136400  0.90886400  1
  O  O0  1  0.49358400  0.15017600  0.88267900  1
  O  O1  1  0.62229900  0.40625200  0.63153400  1
  O  O2  1  0.76999400  0.10545600  0.96668100  1
  O  O3  1  0.75767000  0.76072700  0.30303900  1
  O  O4  1  0.20054600  0.57767900  0.50064000  1
  O  O5  1  0.99117000  0.44904700  0.66467200  1
  O  O6  1  0.12476500  0.28760200  0.82378000  1
  O  O7  1  0.22352200  0.90235500  0.17811800  1
  O  O8  1  0.50668300  0.70329100  0.47015800  1
  O  O9  1  0.37085400  0.16337400  0.04028300  1
  O  O10  1  0.26610200  0.87842600  0.36418200  1
  O  O11  1  0.28589100  0.53844800  0.68867500  1
  O  O12  1  0.76610200  0.12157400  0.13581800  1
  O  O13  1  0.78589100  0.46155200  0.81132500  1
  O  O14  1  0.87085400  0.83662600  0.45971700  1
  O  O15  1  0.00668300  0.29670900  0.02984200  1
  O  O16  1  0.72352200  0.09764500  0.32188200  1
  O  O17  1  0.62476500  0.71239800  0.67622000  1
  O  O18  1  0.49117000  0.55095300  0.83532800  1
  O  O19  1  0.25767000  0.23927300  0.19696100  1
  O  O20  1  0.70054600  0.42232100  0.99936000  1
  O  O21  1  0.26999400  0.89454400  0.53331900  1
  O  O22  1  0.12229900  0.59374800  0.86846600  1
  O  O23  1  0.99358400  0.84982400  0.61732100  1
  O  O24  1  0.00641600  0.15017600  0.38267900  1
  O  O25  1  0.87770100  0.40625200  0.13153400  1
  O  O26  1  0.73000600  0.10545600  0.46668100  1
  O  O27  1  0.29945400  0.57767900  0.00064000  1
  O  O28  1  0.74233000  0.76072700  0.80303900  1
  O  O29  1  0.50883000  0.44904700  0.16467200  1
  O  O30  1  0.37523500  0.28760200  0.32378000  1
  O  O31  1  0.27647800  0.90235500  0.67811800  1
  O  O32  1  0.99331700  0.70329100  0.97015800  1
  O  O33  1  0.12914600  0.16337400  0.54028300  1
  O  O34  1  0.21410900  0.53844800  0.18867500  1
  O  O35  1  0.23389800  0.87842600  0.86418200  1
  O  O36  1  0.71410900  0.46155200  0.31132500  1
  O  O37  1  0.73389800  0.12157400  0.63581800  1
  O  O38  1  0.62914600  0.83662600  0.95971700  1
  O  O39  1  0.49331700  0.29670900  0.52984200  1
  O  O40  1  0.77647800  0.09764500  0.82188200  1
  O  O41  1  0.87523500  0.71239800  0.17622000  1
  O  O42  1  0.00883000  0.55095300  0.33532800  1
  O  O43  1  0.79945400  0.42232100  0.49936000  1
  O  O44  1  0.24233000  0.23927300  0.69696100  1
  O  O45  1  0.23000600  0.89454400  0.03331900  1
  O  O46  1  0.37770100  0.59374800  0.36846600  1
  O  O47  1  0.50641600  0.84982400  0.11732100  1
loop_
_geom_bond_atom_site_label_1
_geom_bond_atom_site_label_2
_geom_bond_distance
_geom_bond_site_symmetry_2
Li0 O2 1.942404 1_564
Li0 O47 1.968598 1_555
Li0 O41 1.982562 1_555
Li0 O12 2.004055 1_565
Li1 O5 1.896858 1_555
Li1 O1 1.935223 1_555
Li1 O13 1.935988 1_555
Li1 O40 2.050587 1_555
Li2 O14 1.904273 1_555
Li2 O43 1.925859 1_555
Li2 O8 1.968224 1_555
Li2 O3 1.986749 1_555
Li3 O9 1.904273 1_555
Li3 O27 1.925859 1_555
Li3 O15 1.968224 1_555
Li3 O19 1.986749 1_555
Li4 O18 1.896858 1_555
Li4 O22 1.935223 1_555
Li4 O11 1.935988 1_555
Li4 O31 2.050587 1_555
Li5 O21 1.942404 1_545
Li5 O24 1.968598 1_555
Li5 O30 1.982562 1_555
Li5 O10 2.004055 1_545
Li6 O26 1.942404 1_565
Li6 O23 1.968598 1_555
Li6 O17 1.982562 1_555
Li6 O37 2.004055 1_565
Li7 O29 1.896858 1_555
Li7 O25 1.935223 1_555
Li7 O36 1.935988 1_555
Li7 O16 2.050587 1_555
Li8 O38 1.904273 1_555
Li8 O20 1.925859 1_555
Li8 O32 1.968224 1_555
Li8 O28 1.986749 1_555
Li9 O33 1.904273 1_555
Li9 O4 1.925859 1_555
Li9 O39 1.968224 1_555
Li9 O44 1.986749 1_555
Li10 O42 1.896858 1_555
Li10 O46 1.935223 1_555
Li10 O34 1.935988 1_555
Li10 O7 2.050587 1_555
Li11 O45 1.942404 1_546
Li11 O0 1.968598 1_555
Li11 O6 1.982562 1_555
Li11 O35 2.004055 1_545
Ni0 O4 2.034606 1_555
Ni0 O5 2.072354 1_455
Ni0 O23 2.076836 1_455
Ni0 O14 2.082802 1_455
Ni0 O21 2.208518 1_555
Ni1 O13 1.990107 1_555
Ni1 O15 2.006457 1_656
Ni1 O6 2.036216 1_655
Ni1 O22 2.070493 1_655
Ni1 O2 2.510227 1_555
Ni2 O7 1.863045 1_545
Ni2 O10 1.863653 1_545
Ni2 O19 1.870299 1_555
Ni3 O16 1.863045 1_565
Ni3 O12 1.863653 1_565
Ni3 O3 1.870299 1_555
Ni4 O11 1.990107 1_555
Ni4 O8 2.006457 1_555
Ni4 O17 2.036216 1_555
Ni4 O1 2.070493 1_555
Ni4 O21 2.510227 1_555
Ni5 O20 2.034606 1_555
Ni5 O18 2.072354 1_555
Ni5 O0 2.076836 1_555
Ni5 O9 2.082802 1_556
Ni5 O2 2.208518 1_555
Ni6 O27 2.034606 1_555
Ni6 O29 2.072354 1_555
Ni6 O47 2.076836 1_555
Ni6 O38 2.082802 1_554
Ni6 O45 2.208518 1_555
Ni7 O36 1.990107 1_555
Ni7 O39 2.006457 1_555
Ni7 O30 2.036216 1_555
Ni7 O46 2.070493 1_555
Ni7 O26 2.510227 1_555
Ni8 O31 1.863045 1_545
Ni8 O35 1.863653 1_545
Ni8 O44 1.870299 1_555
Ni9 O40 1.863045 1_565
Ni9 O37 1.863653 1_565
Ni9 O28 1.870299 1_555
Ni10 O34 1.990107 1_555
Ni10 O32 2.006457 1_454
Ni10 O41 2.036216 1_455
Ni10 O25 2.070493 1_455
Ni10 O45 2.510227 1_555
Ni11 O43 2.034606 1_555
Ni11 O42 2.072354 1_655
Ni11 O24 2.076836 1_655
Ni11 O33 2.082802 1_655
Ni11 O26 2.208518 1_555
O0 P11 1.550045 1_555
O1 P9 1.544433 1_555
O2 P11 1.564177 1_555
O3 P10 1.555227 1_555
O4 P2 1.549777 1_555
O5 P1 1.542341 1_655
O6 P1 1.548639 1_555
O7 P0 1.561416 1_555
O8 P2 1.552208 1_555
O9 P0 1.545400 1_545
O10 P2 1.564177 1_555
O11 P1 1.552921 1_555
O12 P3 1.564177 1_555
O13 P4 1.552921 1_555
O14 P5 1.545400 1_565
O15 P3 1.552208 1_455
O16 P5 1.561416 1_555
O17 P4 1.548639 1_555
O18 P4 1.542341 1_555
O19 P7 1.555227 1_555
O20 P3 1.549777 1_556
O21 P6 1.564177 1_555
O22 P8 1.544433 1_555
O23 P6 1.550045 1_655
O24 P5 1.550045 1_455
O25 P3 1.544433 1_555
O26 P5 1.564177 1_555
O27 P8 1.549777 1_554
O28 P4 1.555227 1_555
O29 P7 1.542341 1_555
O30 P7 1.548639 1_555
O31 P6 1.561416 1_555
O32 P8 1.552208 1_655
O33 P6 1.545400 1_545
O34 P7 1.552921 1_555
O35 P8 1.564177 1_555
O36 P10 1.552921 1_555
O37 P9 1.564177 1_555
O38 P11 1.545400 1_565
O39 P9 1.552208 1_555
O40 P11 1.561416 1_555
O41 P10 1.548639 1_555
O42 P10 1.542341 1_455
O43 P9 1.549777 1_555
O44 P1 1.555227 1_555
O45 P0 1.564177 1_555
O46 P2 1.544433 1_555
O47 P0 1.550045 1_555
