# generated using pymatgen
data_MnFe(PO4)2
_symmetry_space_group_name_H-M   'P 1'
_cell_length_a   8.49985308
_cell_length_b   8.60346214
_cell_length_c   8.60346236
_cell_angle_alpha   60.00000397
_cell_angle_beta   59.59594567
_cell_angle_gamma   59.59594377
_symmetry_Int_Tables_number   1
_chemical_formula_structural   MnFe(PO4)2
_chemical_formula_sum   'Mn3 Fe3 P6 O24'
_cell_volume   442.14366733
_cell_formula_units_Z   3
loop_
 _symmetry_equiv_pos_site_id
 _symmetry_equiv_pos_as_xyz
  1  'x, y, z'
loop_
 _atom_site_type_symbol
 _atom_site_label
 _atom_site_symmetry_multiplicity
 _atom_site_fract_x
 _atom_site_fract_y
 _atom_site_fract_z
 _atom_site_occupancy
  Mn  Mn0  1  0.07446700  0.64184500  0.64184500  1
  Mn  Mn1  1  0.43296200  0.85567900  0.85567900  1
  Mn  Mn2  1  0.92696500  0.35767900  0.35767900  1
  Fe  Fe0  1  0.99965200  0.00011600  0.00011600  1
  Fe  Fe1  1  0.56358600  0.14547100  0.14547100  1
  Fe  Fe2  1  0.50249600  0.49916800  0.49916800  1
  P  P0  1  0.24529700  0.25103200  0.54579200  1
  P  P1  1  0.24529700  0.95787900  0.25103200  1
  P  P2  1  0.24529700  0.54579200  0.95787900  1
  P  P3  1  0.75472500  0.45707900  0.03922700  1
  P  P4  1  0.75472500  0.03922700  0.74896900  1
  P  P5  1  0.75472500  0.74896900  0.45707900  1
  O  O0  1  0.06041600  0.11578900  0.31187800  1
  O  O1  1  0.06041600  0.51191800  0.11578900  1
  O  O2  1  0.06041600  0.31187800  0.51191800  1
  O  O3  1  0.21820400  0.09218200  0.74836200  1
  O  O4  1  0.43120200  0.18561800  0.38949100  1
  O  O5  1  0.27049500  0.41176300  0.56003200  1
  O  O6  1  0.21820400  0.94125000  0.09218200  1
  O  O7  1  0.27049500  0.75771000  0.41176300  1
  O  O8  1  0.56759600  0.60923400  0.00620300  1
  O  O9  1  0.27049500  0.56003200  0.75771000  1
  O  O10  1  0.78323400  0.25476300  0.05232500  1
  O  O11  1  0.56759600  0.00620300  0.81696700  1
  O  O12  1  0.43120200  0.99369000  0.18561800  1
  O  O13  1  0.21820400  0.74836200  0.94125000  1
  O  O14  1  0.72953000  0.44417900  0.23820300  1
  O  O15  1  0.43120200  0.38949100  0.99369000  1
  O  O16  1  0.72953000  0.23820300  0.58808800  1
  O  O17  1  0.78323400  0.05232500  0.90967700  1
  O  O18  1  0.72953000  0.58808800  0.44417900  1
  O  O19  1  0.56759600  0.81696700  0.60923400  1
  O  O20  1  0.78323400  0.90967700  0.25476300  1
  O  O21  1  0.93925600  0.68083700  0.49690700  1
  O  O22  1  0.93925600  0.49690700  0.88300000  1
  O  O23  1  0.93925600  0.88300000  0.68083700  1
loop_
_geom_bond_atom_site_label_1
_geom_bond_atom_site_label_2
_geom_bond_distance
_geom_bond_site_symmetry_2
Mn0 O23 1.905324 1_455
Mn0 O22 1.905331 1_455
Mn0 O21 1.905339 1_455
Mn0 O9 2.014404 1_555
Mn0 O7 2.014410 1_555
Mn0 O5 2.014417 1_555
Mn1 O19 1.944357 1_555
Mn1 O8 1.944361 1_556
Mn1 O11 1.944365 1_565
Mn1 O6 2.095835 1_556
Mn1 O3 2.095838 1_565
Mn1 O13 2.095841 1_555
Mn2 O2 1.936774 1_655
Mn2 O1 1.936778 1_655
Mn2 O0 1.936782 1_655
Mn2 O18 2.035576 1_555
Mn2 O16 2.035583 1_555
Mn2 O14 2.035589 1_555
Fe0 O10 2.110428 1_555
Fe0 O20 2.110431 1_545
Fe0 O17 2.110434 1_554
Fe0 O6 2.114408 1_645
Fe0 O3 2.114415 1_654
Fe0 O13 2.114420 1_644
Fe1 O12 1.932243 1_545
Fe1 O15 1.932251 1_554
Fe1 O4 1.932258 1_555
Fe1 O17 2.126247 1_554
Fe1 O20 2.126247 1_545
Fe1 O10 2.126247 1_555
Fe2 O14 2.177456 1_555
Fe2 O16 2.177456 1_555
Fe2 O18 2.177456 1_555
Fe2 O9 2.188692 1_555
Fe2 O7 2.188692 1_555
Fe2 O5 2.188692 1_555
O0 P1 1.518818 1_545
O1 P2 1.518816 1_554
O2 P0 1.518813 1_555
O3 P0 1.577548 1_555
O4 P0 1.525717 1_555
O5 P0 1.571273 1_555
O6 P1 1.577559 1_555
O7 P1 1.571274 1_555
O8 P3 1.517311 1_555
O9 P2 1.571273 1_555
O10 P3 1.582950 1_555
O11 P4 1.517311 1_555
O12 P1 1.525722 1_555
O13 P2 1.577542 1_555
O14 P3 1.565794 1_555
O15 P2 1.525719 1_555
O16 P4 1.565794 1_555
O17 P4 1.582942 1_555
O18 P5 1.565794 1_555
O19 P5 1.517311 1_555
O20 P5 1.582947 1_555
O21 P5 1.527646 1_555
O22 P3 1.527646 1_556
O23 P4 1.527646 1_565
