# generated using pymatgen
data_V10O9
_symmetry_space_group_name_H-M   'P 1'
_cell_length_a   5.31739600
_cell_length_b   6.24378204
_cell_length_c   6.93728494
_cell_angle_alpha   103.21873044
_cell_angle_beta   97.23681892
_cell_angle_gamma   106.78971934
_symmetry_Int_Tables_number   1
_chemical_formula_structural   V10O9
_chemical_formula_sum   'V10 O9'
_cell_volume   210.05610789
_cell_formula_units_Z   1
loop_
 _symmetry_equiv_pos_site_id
 _symmetry_equiv_pos_as_xyz
  1  'x, y, z'
loop_
 _atom_site_type_symbol
 _atom_site_label
 _atom_site_symmetry_multiplicity
 _atom_site_fract_x
 _atom_site_fract_y
 _atom_site_fract_z
 _atom_site_occupancy
  V  V0  1  0.89349000  0.55120100  0.80158700  1
  V  V1  1  0.10651000  0.44879900  0.19841300  1
  V  V2  1  0.71003000  0.14041400  0.39616500  1
  V  V3  1  0.28997000  0.85958600  0.60383500  1
  V  V4  1  0.90392300  0.04744000  0.78838100  1
  V  V5  1  0.09607700  0.95256000  0.21161900  1
  V  V6  1  0.71607100  0.66314300  0.40794200  1
  V  V7  1  0.28392900  0.33685700  0.59205800  1
  V  V8  1  0.49777300  0.74946500  0.99772700  1
  V  V9  1  0.50222700  0.25053500  0.00227300  1
  O  O0  1  0.80028800  0.60090300  0.10332900  1
  O  O1  1  0.19971200  0.39909700  0.89667100  1
  O  O2  1  0.60295500  0.19756600  0.69270500  1
  O  O3  1  0.39704500  0.80243400  0.30729500  1
  O  O4  1  0.80560800  0.09796500  0.09237800  1
  O  O5  1  0.19439200  0.90203500  0.90762200  1
  O  O6  1  0.58865700  0.69698500  0.69593300  1
  O  O7  1  0.41134300  0.30301500  0.30406700  1
  O  O8  1  0.00000000  0.50000000  0.50000000  1
loop_
_geom_bond_atom_site_label_1
_geom_bond_atom_site_label_2
_geom_bond_distance
_geom_bond_site_symmetry_2
O0 V0 2.185595 1_554
O0 V6 2.186436 1_555
O0 V9 2.191966 1_555
O0 V5 2.193617 1_655
O0 V8 2.204673 1_554
O0 V1 2.213075 1_655
O1 V1 2.185595 1_556
O1 V7 2.186436 1_555
O1 V8 2.191966 1_555
O1 V4 2.193617 1_455
O1 V9 2.204673 1_556
O1 V0 2.213075 1_455
O2 V3 2.172701 1_545
O2 V2 2.181800 1_555
O2 V4 2.182637 1_555
O2 V0 2.192063 1_555
O2 V7 2.225593 1_555
O2 V9 2.252906 1_556
O3 V2 2.172701 1_565
O3 V3 2.181800 1_555
O3 V5 2.182637 1_555
O3 V1 2.192063 1_555
O3 V6 2.225593 1_555
O3 V8 2.252906 1_554
O4 V5 2.173889 1_645
O4 V9 2.192418 1_555
O4 V1 2.200291 1_655
O4 V2 2.205023 1_555
O4 V8 2.205308 1_544
O4 V4 2.211134 1_554
O5 V4 2.173889 1_465
O5 V8 2.192418 1_555
O5 V0 2.200291 1_455
O5 V3 2.205023 1_555
O5 V9 2.205308 1_566
O5 V5 2.211134 1_556
O6 V6 2.173899 1_555
O6 V8 2.181021 1_555
O6 V0 2.202572 1_555
O6 V3 2.221254 1_555
O6 V4 2.231096 1_565
O6 V7 2.249609 1_555
O7 V7 2.173899 1_555
O7 V9 2.181021 1_555
O7 V1 2.202572 1_555
O7 V2 2.221254 1_555
O7 V5 2.231096 1_545
O7 V6 2.249609 1_555
O8 V7 2.160533 1_555
O8 V6 2.160533 1_455
O8 V0 2.213025 1_455
O8 V1 2.213025 1_555
O8 V3 2.217586 1_555
O8 V2 2.217586 1_455
