# generated using pymatgen
data_Na4Ni3O7
_symmetry_space_group_name_H-M   'P 1'
_cell_length_a   7.00620661
_cell_length_b   7.00620661
_cell_length_c   7.00620654
_cell_angle_alpha   69.27078778
_cell_angle_beta   69.27078778
_cell_angle_gamma   69.27078008
_symmetry_Int_Tables_number   1
_chemical_formula_structural   Na4Ni3O7
_chemical_formula_sum   'Na8 Ni6 O14'
_cell_volume   290.36577494
_cell_formula_units_Z   2
loop_
 _symmetry_equiv_pos_site_id
 _symmetry_equiv_pos_as_xyz
  1  'x, y, z'
loop_
 _atom_site_type_symbol
 _atom_site_label
 _atom_site_symmetry_multiplicity
 _atom_site_fract_x
 _atom_site_fract_y
 _atom_site_fract_z
 _atom_site_occupancy
  Na  Na0  1  0.57583100  0.15643300  0.28334800  1
  Na  Na1  1  0.15643300  0.28334800  0.57583100  1
  Na  Na2  1  0.71665200  0.42416900  0.84356700  1
  Na  Na3  1  0.50000000  0.50000000  0.50000000  1
  Na  Na4  1  0.28334800  0.57583100  0.15643300  1
  Na  Na5  1  0.84356700  0.71665200  0.42416900  1
  Na  Na6  1  0.42416900  0.84356700  0.71665200  1
  Na  Na7  1  0.00000000  0.00000000  0.00000000  1
  Ni  Ni0  1  0.35626900  0.20966200  0.93166600  1
  Ni  Ni1  1  0.93166600  0.35626900  0.20966200  1
  Ni  Ni2  1  0.79033800  0.06833400  0.64373100  1
  Ni  Ni3  1  0.64373100  0.79033800  0.06833400  1
  Ni  Ni4  1  0.20966200  0.93166600  0.35626900  1
  Ni  Ni5  1  0.06833400  0.64373100  0.79033800  1
  O  O0  1  0.66381800  0.08174100  0.95394500  1
  O  O1  1  0.49259700  0.16119700  0.64534100  1
  O  O2  1  0.22845200  0.22845200  0.22845200  1
  O  O3  1  0.64534100  0.49259700  0.16119700  1
  O  O4  1  0.35465900  0.50740300  0.83880300  1
  O  O5  1  0.83880300  0.35465900  0.50740300  1
  O  O6  1  0.50740300  0.83880300  0.35465900  1
  O  O7  1  0.77154800  0.77154800  0.77154800  1
  O  O8  1  0.04605500  0.33618200  0.91825900  1
  O  O9  1  0.16119700  0.64534100  0.49259700  1
  O  O10  1  0.95394500  0.66381800  0.08174100  1
  O  O11  1  0.33618200  0.91825900  0.04605500  1
  O  O12  1  0.08174100  0.95394500  0.66381800  1
  O  O13  1  0.91825900  0.04605500  0.33618200  1
loop_
_geom_bond_atom_site_label_1
_geom_bond_atom_site_label_2
_geom_bond_distance
_geom_bond_site_symmetry_2
Na0 O6 2.287008 1_545
Na0 O0 2.366340 1_554
Na0 O13 2.367169 1_555
Na0 O3 2.367860 1_555
Na0 O1 2.402633 1_555
Na0 O2 2.445788 1_555
Na1 O5 2.287007 1_455
Na1 O12 2.366340 1_545
Na1 O8 2.367169 1_555
Na1 O1 2.367860 1_555
Na1 O9 2.402633 1_555
Na1 O2 2.445788 1_555
Na2 O3 2.287007 1_556
Na2 O8 2.366340 1_655
Na2 O0 2.367169 1_555
Na2 O5 2.367860 1_555
Na2 O4 2.402632 1_555
Na2 O7 2.445789 1_555
Na3 O5 2.238936 1_555
Na3 O9 2.238936 1_555
Na3 O4 2.238936 1_555
Na3 O3 2.238936 1_555
Na3 O6 2.238936 1_555
Na3 O1 2.238936 1_555
Na4 O4 2.287007 1_554
Na4 O10 2.366340 1_455
Na4 O11 2.367169 1_555
Na4 O9 2.367860 1_555
Na4 O3 2.402632 1_555
Na4 O2 2.445789 1_555
Na5 O9 2.287007 1_655
Na5 O13 2.366340 1_565
Na5 O10 2.367169 1_555
Na5 O6 2.367860 1_555
Na5 O5 2.402633 1_555
Na5 O7 2.445788 1_555
Na6 O1 2.287008 1_565
Na6 O11 2.366340 1_556
Na6 O12 2.367169 1_555
Na6 O4 2.367860 1_555
Na6 O6 2.402633 1_555
Na6 O7 2.445788 1_555
Na7 O11 2.330691 1_545
Na7 O0 2.330691 1_454
Na7 O13 2.330691 1_455
Na7 O12 2.330691 1_544
Na7 O8 2.330692 1_554
Na7 O10 2.330692 1_445
Ni0 O11 1.948234 1_546
Ni0 O4 1.950061 1_555
Ni0 O2 1.983708 1_556
Ni0 O1 1.986973 1_555
Ni0 O8 2.059148 1_555
Ni0 O0 2.059743 1_555
Ni1 O8 1.948234 1_654
Ni1 O5 1.950060 1_555
Ni1 O2 1.983708 1_655
Ni1 O3 1.986973 1_555
Ni1 O13 2.059148 1_555
Ni1 O10 2.059744 1_555
Ni2 O12 1.948234 1_645
Ni2 O1 1.950060 1_555
Ni2 O7 1.983708 1_545
Ni2 O5 1.986973 1_555
Ni2 O0 2.059148 1_555
Ni2 O13 2.059744 1_555
Ni3 O0 1.948234 1_564
Ni3 O3 1.950061 1_555
Ni3 O7 1.983708 1_554
Ni3 O6 1.986973 1_555
Ni3 O10 2.059148 1_555
Ni3 O11 2.059743 1_555
Ni4 O13 1.948234 1_465
Ni4 O6 1.950060 1_555
Ni4 O2 1.983708 1_565
Ni4 O9 1.986973 1_555
Ni4 O11 2.059148 1_555
Ni4 O12 2.059744 1_555
Ni5 O10 1.948234 1_456
Ni5 O9 1.950060 1_555
Ni5 O7 1.983708 1_455
Ni5 O4 1.986973 1_555
Ni5 O12 2.059148 1_555
Ni5 O8 2.059744 1_555
