# generated using pymatgen
data_Li3Fe8(BO3)8
_symmetry_space_group_name_H-M   'P 1'
_cell_length_a   5.21989900
_cell_length_b   9.11484674
_cell_length_c   10.19454819
_cell_angle_alpha   89.31346867
_cell_angle_beta   89.44860687
_cell_angle_gamma   89.42140935
_symmetry_Int_Tables_number   1
_chemical_formula_structural   Li3Fe8(BO3)8
_chemical_formula_sum   'Li3 Fe8 B8 O24'
_cell_volume   484.96066961
_cell_formula_units_Z   1
loop_
 _symmetry_equiv_pos_site_id
 _symmetry_equiv_pos_as_xyz
  1  'x, y, z'
loop_
 _atom_site_type_symbol
 _atom_site_label
 _atom_site_symmetry_multiplicity
 _atom_site_fract_x
 _atom_site_fract_y
 _atom_site_fract_z
 _atom_site_occupancy
  Li  Li0  1  0.14930500  0.17299800  0.65824700  1
  Li  Li1  1  0.18678500  0.16972900  0.16974900  1
  Li  Li2  1  0.33400100  0.32593300  0.90543100  1
  Fe  Fe0  1  0.16586000  0.82685800  0.63214400  1
  Fe  Fe1  1  0.18893400  0.50828000  0.13150200  1
  Fe  Fe2  1  0.32042400  0.98891000  0.87926700  1
  Fe  Fe3  1  0.33719200  0.66287000  0.37684800  1
  Fe  Fe4  1  0.65280300  0.35218600  0.62127400  1
  Fe  Fe5  1  0.67130600  0.99524600  0.12367600  1
  Fe  Fe6  1  0.81462300  0.16223200  0.38396700  1
  Fe  Fe7  1  0.83325000  0.50172600  0.87899000  1
  B  B0  1  0.15007400  0.49779800  0.63000300  1
  B  B1  1  0.16689500  0.83938600  0.13549100  1
  B  B2  1  0.32930000  0.99395300  0.37752300  1
  B  B3  1  0.33920100  0.65941800  0.87235200  1
  B  B4  1  0.66655200  0.00214400  0.62888500  1
  B  B5  1  0.67604200  0.32187000  0.11860500  1
  B  B6  1  0.84168800  0.50027500  0.37399600  1
  B  B7  1  0.82482600  0.17457200  0.87949300  1
  O  O0  1  0.09800300  0.50689800  0.33587400  1
  O  O1  1  0.08721500  0.16846700  0.86194000  1
  O  O2  1  0.21410400  0.78384800  0.82428300  1
  O  O3  1  0.24702200  0.86374200  0.43460400  1
  O  O4  1  0.16765700  0.11190400  0.36026100  1
  O  O5  1  0.19671900  0.53782800  0.91582200  1
  O  O6  1  0.28024500  0.36778600  0.63134200  1
  O  O7  1  0.30478400  0.96499600  0.09337400  1
  O  O8  1  0.25621900  0.62663800  0.57696700  1
  O  O9  1  0.30049600  0.71787500  0.18082100  1
  O  O10  1  0.41342200  0.32245400  0.10845100  1
  O  O11  1  0.40284700  0.00259000  0.66027400  1
  O  O12  1  0.58201700  0.00527900  0.33173400  1
  O  O13  1  0.59766800  0.65507400  0.88088800  1
  O  O14  1  0.68798900  0.30184700  0.84199000  1
  O  O15  1  0.74637100  0.36460300  0.41594600  1
  O  O16  1  0.68660700  0.62019800  0.37319400  1
  O  O17  1  0.68656300  0.05898800  0.93351200  1
  O  O18  1  0.82686400  0.43521000  0.07405800  1
  O  O19  1  0.81838400  0.88214700  0.64047300  1
  O  O20  1  0.77746900  0.13454700  0.58186700  1
  O  O21  1  0.80508900  0.19599700  0.17279500  1
  O  O22  1  0.90818000  0.84388500  0.13022700  1
  O  O23  1  0.90474300  0.50529800  0.68326200  1
loop_
_geom_bond_atom_site_label_1
_geom_bond_atom_site_label_2
_geom_bond_distance
_geom_bond_site_symmetry_2
Li0 O6 1.924550 1_555
Li0 O11 2.030465 1_555
Li0 O1 2.098596 1_555
Li0 O20 2.132084 1_455
Li1 O10 1.930305 1_555
Li1 O21 2.004335 1_455
Li1 O4 2.008145 1_555
Li1 O7 2.114322 1_545
Li2 O14 1.962904 1_555
Li2 O1 1.994904 1_555
Li2 O5 2.056816 1_555
Li2 O10 2.114520 1_556
Fe0 O19 1.878992 1_455
Fe0 O8 1.967618 1_555
Fe0 O2 2.010717 1_555
Fe0 O11 2.058166 1_565
Fe0 O3 2.078042 1_555
Fe1 O10 2.064310 1_555
Fe1 O9 2.071899 1_555
Fe1 O18 2.101091 1_455
Fe1 O0 2.132323 1_555
Fe1 O5 2.212023 1_554
Fe2 O1 2.036820 1_565
Fe2 O2 2.041523 1_555
Fe2 O17 2.102378 1_565
Fe2 O7 2.191801 1_556
Fe2 O11 2.271737 1_565
Fe3 O16 1.861191 1_555
Fe3 O0 1.953094 1_555
Fe3 O3 1.980801 1_555
Fe3 O9 2.064728 1_555
Fe3 O8 2.102354 1_555
Fe4 O6 1.950280 1_555
Fe4 O23 2.037330 1_555
Fe4 O20 2.123229 1_555
Fe4 O15 2.146792 1_555
Fe4 O14 2.299722 1_555
Fe5 O22 1.844344 1_555
Fe5 O7 1.963641 1_555
Fe5 O17 2.018213 1_564
Fe5 O21 2.034977 1_565
Fe5 O12 2.170078 1_565
Fe6 O15 1.906460 1_555
Fe6 O4 1.908342 1_655
Fe6 O12 1.967278 1_555
Fe6 O20 2.037856 1_555
Fe6 O21 2.172011 1_555
Fe7 O13 1.852494 1_555
Fe7 O5 1.969313 1_655
Fe7 O14 2.021457 1_555
Fe7 O23 2.026361 1_555
Fe7 O18 2.072096 1_556
B0 O6 1.360046 1_555
B0 O23 1.387499 1_455
B0 O8 1.403779 1_555
B1 O22 1.352237 1_455
B1 O9 1.380186 1_555
B1 O7 1.418508 1_555
B2 O4 1.370677 1_565
B2 O3 1.385870 1_555
B2 O12 1.399456 1_565
B3 O13 1.352961 1_555
B3 O2 1.389512 1_555
B3 O5 1.405826 1_555
B4 O19 1.348920 1_545
B4 O11 1.410193 1_555
B4 O20 1.419972 1_555
B5 O18 1.375352 1_555
B5 O10 1.375698 1_555
B5 O21 1.432354 1_555
B6 O16 1.353601 1_555
B6 O0 1.391339 1_655
B6 O15 1.398340 1_555
B7 O1 1.380226 1_655
B7 O17 1.388480 1_555
B7 O14 1.407149 1_555
