# generated using pymatgen
data_Mn2V(PO5)2
_symmetry_space_group_name_H-M   'P 1'
_cell_length_a   8.89711900
_cell_length_b   8.91433700
_cell_length_c   9.44082920
_cell_angle_alpha   80.59230135
_cell_angle_beta   90.00000000
_cell_angle_gamma   90.00000000
_symmetry_Int_Tables_number   1
_chemical_formula_structural   Mn2V(PO5)2
_chemical_formula_sum   'Mn8 V4 P8 O40'
_cell_volume   738.69945766
_cell_formula_units_Z   4
loop_
 _symmetry_equiv_pos_site_id
 _symmetry_equiv_pos_as_xyz
  1  'x, y, z'
loop_
 _atom_site_type_symbol
 _atom_site_label
 _atom_site_symmetry_multiplicity
 _atom_site_fract_x
 _atom_site_fract_y
 _atom_site_fract_z
 _atom_site_occupancy
  Mn  Mn0  1  0.07197000  0.77619700  0.38322000  1
  Mn  Mn1  1  0.57197000  0.22380300  0.11678000  1
  Mn  Mn2  1  0.92803000  0.22380300  0.61678000  1
  Mn  Mn3  1  0.42803000  0.77619700  0.88322000  1
  Mn  Mn4  1  0.73897600  0.84621400  0.13766300  1
  Mn  Mn5  1  0.23897600  0.15378600  0.36233700  1
  Mn  Mn6  1  0.26102400  0.15378600  0.86233700  1
  Mn  Mn7  1  0.76102400  0.84621400  0.63766300  1
  V  V0  1  0.49760600  0.57788200  0.23219700  1
  V  V1  1  0.99760600  0.42211800  0.26780300  1
  V  V2  1  0.50239400  0.42211800  0.76780300  1
  V  V3  1  0.00239400  0.57788200  0.73219700  1
  P  P0  1  0.35062600  0.92850000  0.15298600  1
  P  P1  1  0.85062600  0.07150000  0.34701400  1
  P  P2  1  0.64937400  0.07150000  0.84701400  1
  P  P3  1  0.14937400  0.92850000  0.65298600  1
  P  P4  1  0.24503100  0.47334000  0.00867300  1
  P  P5  1  0.74503100  0.52666000  0.49132700  1
  P  P6  1  0.75496900  0.52666000  0.99132700  1
  P  P7  1  0.25496900  0.47334000  0.50867300  1
  O  O0  1  0.15763700  0.95538700  0.48325800  1
  O  O1  1  0.65763700  0.04461300  0.01674200  1
  O  O2  1  0.84236300  0.04461300  0.51674200  1
  O  O3  1  0.34236300  0.95538700  0.98325800  1
  O  O4  1  0.87349100  0.91085600  0.30341200  1
  O  O5  1  0.37349100  0.08914400  0.19658800  1
  O  O6  1  0.12650900  0.08914400  0.69658800  1
  O  O7  1  0.62650900  0.91085600  0.80341200  1
  O  O8  1  0.20881600  0.85687500  0.21740300  1
  O  O9  1  0.70881600  0.14312500  0.28259700  1
  O  O10  1  0.79118400  0.14312500  0.78259700  1
  O  O11  1  0.29118400  0.85687500  0.71740300  1
  O  O12  1  0.01776300  0.60717300  0.27149600  1
  O  O13  1  0.51776300  0.39282700  0.22850400  1
  O  O14  1  0.98223700  0.39282700  0.72850400  1
  O  O15  1  0.48223700  0.60717300  0.77149600  1
  O  O16  1  0.34970300  0.59711000  0.05739700  1
  O  O17  1  0.84970300  0.40289000  0.44260300  1
  O  O18  1  0.65029700  0.40289000  0.94260300  1
  O  O19  1  0.15029700  0.59711000  0.55739700  1
  O  O20  1  0.49220400  0.82295400  0.19188600  1
  O  O21  1  0.99220400  0.17704600  0.30811400  1
  O  O22  1  0.50779600  0.17704600  0.80811400  1
  O  O23  1  0.00779600  0.82295400  0.69188600  1
  O  O24  1  0.65593000  0.64523600  0.06057300  1
  O  O25  1  0.15593000  0.35476400  0.43942700  1
  O  O26  1  0.34407000  0.35476400  0.93942700  1
  O  O27  1  0.84407000  0.64523600  0.56057300  1
  O  O28  1  0.59762200  0.84179100  0.53940600  1
  O  O29  1  0.09762200  0.15820900  0.96059400  1
  O  O30  1  0.40237800  0.15820900  0.46059400  1
  O  O31  1  0.90237800  0.84179100  0.03940600  1
  O  O32  1  0.16846300  0.38202500  0.14180600  1
  O  O33  1  0.66846300  0.61797500  0.35819400  1
  O  O34  1  0.83153700  0.61797500  0.85819400  1
  O  O35  1  0.33153700  0.38202500  0.64180600  1
  O  O36  1  0.35807900  0.56065500  0.39507700  1
  O  O37  1  0.85807900  0.43934500  0.10492300  1
  O  O38  1  0.64192100  0.43934500  0.60492300  1
  O  O39  1  0.14192100  0.56065500  0.89507700  1
loop_
_geom_bond_atom_site_label_1
_geom_bond_atom_site_label_2
_geom_bond_distance
_geom_bond_site_symmetry_2
Mn0 O8 2.020445 1_555
Mn0 O12 2.033456 1_555
Mn0 O0 2.125477 1_555
Mn0 O4 2.198030 1_455
Mn0 O19 2.209081 1_555
Mn1 O9 2.020445 1_555
Mn1 O13 2.033456 1_555
Mn1 O1 2.125477 1_555
Mn1 O5 2.198030 1_555
Mn1 O18 2.209081 1_554
Mn2 O10 2.020445 1_555
Mn2 O14 2.033456 1_555
Mn2 O2 2.125477 1_555
Mn2 O6 2.198030 1_655
Mn2 O17 2.209081 1_555
Mn3 O11 2.020445 1_555
Mn3 O15 2.033456 1_555
Mn3 O3 2.125477 1_555
Mn3 O7 2.198030 1_555
Mn3 O16 2.209081 1_556
Mn4 O31 1.728456 1_555
Mn4 O1 2.072398 1_565
Mn4 O4 2.123154 1_555
Mn4 O24 2.170636 1_555
Mn4 O20 2.256286 1_555
Mn5 O30 1.728456 1_555
Mn5 O0 2.072398 1_545
Mn5 O5 2.123154 1_555
Mn5 O25 2.170636 1_555
Mn5 O21 2.256286 1_455
Mn6 O29 1.728456 1_555
Mn6 O3 2.072398 1_545
Mn6 O6 2.123154 1_555
Mn6 O26 2.170636 1_555
Mn6 O22 2.256286 1_555
Mn7 O28 1.728456 1_555
Mn7 O2 2.072398 1_565
Mn7 O7 2.123154 1_555
Mn7 O27 2.170636 1_555
Mn7 O23 2.256286 1_655
O0 P3 1.582686 1_555
O1 P2 1.582686 1_554
O2 P1 1.582686 1_555
O3 P0 1.582686 1_556
O4 P1 1.566610 1_565
O5 P0 1.566610 1_545
O6 P3 1.566610 1_545
O7 P2 1.566610 1_565
O8 P0 1.497485 1_555
O9 P1 1.497485 1_555
O10 P2 1.497485 1_555
O11 P3 1.497485 1_555
O12 V1 1.665383 1_455
O13 V0 1.665383 1_555
O14 V3 1.665383 1_655
O15 V2 1.665383 1_555
O16 P4 1.569116 1_555
O16 V0 2.095680 1_555
O17 P5 1.569116 1_555
O17 V1 2.095680 1_555
O18 P6 1.569116 1_555
O18 V2 2.095680 1_555
O19 P7 1.569116 1_555
O19 V3 2.095680 1_555
O20 P0 1.579188 1_555
O20 V0 2.155935 1_555
O21 P1 1.579188 1_555
O21 V1 2.155935 1_555
O22 P2 1.579188 1_555
O22 V2 2.155935 1_555
O23 P3 1.579188 1_555
O23 V3 2.155935 1_555
O24 P6 1.595943 1_554
O24 V0 2.156844 1_555
O25 P7 1.595943 1_555
O25 V1 2.156844 1_455
O26 P4 1.595943 1_556
O26 V2 2.156844 1_555
O27 P5 1.595943 1_555
O27 V3 2.156844 1_655
O32 P4 1.540125 1_555
O32 V1 1.998119 1_455
O33 P5 1.540125 1_555
O33 V0 1.998119 1_555
O34 P6 1.540125 1_555
O34 V3 1.998119 1_655
O35 P7 1.540125 1_555
O35 V2 1.998119 1_555
O36 P7 1.524685 1_555
O36 V0 1.962656 1_555
O37 P6 1.524685 1_554
O37 V1 1.962656 1_555
O38 P5 1.524685 1_555
O38 V2 1.962656 1_555
O39 P4 1.524685 1_556
O39 V3 1.962656 1_555
