# generated using pymatgen
data_Sr3La9Mn11NiO36
_symmetry_space_group_name_H-M   'P 1'
_cell_length_a   5.57836300
_cell_length_b   9.58407837
_cell_length_c   13.56696965
_cell_angle_alpha   90.07810892
_cell_angle_beta   90.00434565
_cell_angle_gamma   90.04029922
_symmetry_Int_Tables_number   1
_chemical_formula_structural   Sr3La9Mn11NiO36
_chemical_formula_sum   'Sr3 La9 Mn11 Ni1 O36'
_cell_volume   725.33639435
_cell_formula_units_Z   1
loop_
 _symmetry_equiv_pos_site_id
 _symmetry_equiv_pos_as_xyz
  1  'x, y, z'
loop_
 _atom_site_type_symbol
 _atom_site_label
 _atom_site_symmetry_multiplicity
 _atom_site_fract_x
 _atom_site_fract_y
 _atom_site_fract_z
 _atom_site_occupancy
  Sr  Sr0  1  0.00493500  0.83120300  0.41951400  1
  Sr  Sr1  1  0.50576000  0.33543600  0.41571300  1
  Sr  Sr2  1  0.50572200  0.00230700  0.74667600  1
  La  La0  1  0.00465400  0.16729100  0.08548300  1
  La  La1  1  0.00380300  0.49720000  0.75190700  1
  La  La2  1  0.49342600  0.99685000  0.25618900  1
  La  La3  1  0.49257500  0.66670400  0.58362400  1
  La  La4  1  0.49120200  0.33221300  0.91893700  1
  La  La5  1  0.50514000  0.66632300  0.08156000  1
  La  La6  1  0.99174500  0.50329800  0.24891100  1
  La  La7  1  0.99246600  0.16701100  0.57870400  1
  La  La8  1  0.99035800  0.83492100  0.91262000  1
  Mn  Mn0  1  0.00041900  0.16705900  0.33405400  1
  Mn  Mn1  1  0.99903900  0.83436600  0.66640800  1
  Mn  Mn2  1  0.00198000  0.83293500  0.16639700  1
  Mn  Mn3  1  0.00017600  0.49999500  0.49951900  1
  Mn  Mn4  1  0.99699800  0.16636700  0.83306600  1
  Mn  Mn5  1  0.50054100  0.33353700  0.16722300  1
  Mn  Mn6  1  0.49976400  0.66651500  0.83338100  1
  Mn  Mn7  1  0.49956500  0.00003100  0.50013200  1
  Mn  Mn8  1  0.49971200  0.99985200  0.99980900  1
  Mn  Mn9  1  0.49935400  0.66663000  0.33426400  1
  Mn  Mn10  1  0.50136100  0.33246400  0.66598700  1
  Ni  Ni0  1  0.99940100  0.50017500  0.99996700  1
  O  O0  1  0.06962800  0.66940600  0.08679700  1
  O  O1  1  0.05345900  0.33141600  0.41769700  1
  O  O2  1  0.05554300  0.99802600  0.75444700  1
  O  O3  1  0.24969500  0.38614200  0.07371400  1
  O  O4  1  0.24801200  0.06218700  0.40578400  1
  O  O5  1  0.24650600  0.71987100  0.74005700  1
  O  O6  1  0.25116000  0.77175500  0.26011000  1
  O  O7  1  0.24423300  0.44100200  0.59964200  1
  O  O8  1  0.24356600  0.10861600  0.93301200  1
  O  O9  1  0.25917700  0.22172300  0.23719600  1
  O  O10  1  0.26185000  0.55618000  0.90377900  1
  O  O11  1  0.25994000  0.89068500  0.57694200  1
  O  O12  1  0.25563600  0.94157700  0.09844500  1
  O  O13  1  0.26354900  0.60155100  0.43202100  1
  O  O14  1  0.25694300  0.27547700  0.76574000  1
  O  O15  1  0.43011300  0.50136000  0.24814100  1
  O  O16  1  0.43013600  0.16684100  0.58391400  1
  O  O17  1  0.42892600  0.83037900  0.91994800  1
  O  O18  1  0.56791200  0.16723100  0.08303700  1
  O  O19  1  0.55314100  0.83553000  0.41440100  1
  O  O20  1  0.56681900  0.50077300  0.74844500  1
  O  O21  1  0.74342100  0.72609600  0.23375700  1
  O  O22  1  0.74990400  0.39538300  0.57303900  1
  O  O23  1  0.74991600  0.06202300  0.90709300  1
  O  O24  1  0.73769800  0.44341600  0.09615700  1
  O  O25  1  0.74956000  0.10432900  0.42548900  1
  O  O26  1  0.74712400  0.77017400  0.76189700  1
  O  O27  1  0.75582400  0.89106900  0.06757000  1
  O  O28  1  0.76309900  0.56648500  0.40164800  1
  O  O29  1  0.76259700  0.23257900  0.73416700  1
  O  O30  1  0.76144700  0.27710200  0.25502500  1
  O  O31  1  0.74977300  0.61338800  0.92621000  1
  O  O32  1  0.76164400  0.94134900  0.59087100  1
  O  O33  1  0.93063600  0.00218200  0.24387400  1
  O  O34  1  0.93362100  0.66526400  0.58665000  1
  O  O35  1  0.92769600  0.33075200  0.91323700  1
loop_
_geom_bond_atom_site_label_1
_geom_bond_atom_site_label_2
_geom_bond_distance
_geom_bond_site_symmetry_2
La0 O18 2.436529 1_455
La0 O3 2.508056 1_555
La0 O8 2.523827 1_554
La0 O9 2.553463 1_555
La0 O12 2.583810 1_545
La0 O33 2.701986 1_455
La0 O35 2.847855 1_454
La0 O30 2.869655 1_455
La0 O23 2.980839 1_454
La0 O27 2.997863 1_445
La0 O24 3.040823 1_455
La0 O18 3.142236 1_555
La1 O20 2.438370 1_455
La1 O7 2.520864 1_555
La1 O5 2.531822 1_555
La1 O14 2.559337 1_555
La1 O10 2.575322 1_555
La1 O35 2.743072 1_455
La1 O34 2.790176 1_455
La1 O29 2.879917 1_455
La1 O31 2.972499 1_455
La1 O22 2.972909 1_455
La1 O26 2.986204 1_455
La1 O20 3.141226 1_555
La2 O33 2.445148 1_565
La2 O4 2.526567 1_565
La2 O9 2.534609 1_565
La2 O6 2.545492 1_555
La2 O12 2.572105 1_555
La2 O19 2.668022 1_555
La2 O18 2.892630 1_565
La2 O25 2.892965 1_565
La2 O21 2.962107 1_555
La2 O30 3.073185 1_565
La2 O27 3.116791 1_555
La2 O33 3.144332 1_465
La3 O34 2.460703 1_555
La3 O13 2.499505 1_555
La3 O11 2.510945 1_555
La3 O7 2.577345 1_555
La3 O5 2.578096 1_555
La3 O20 2.776921 1_555
La3 O19 2.830650 1_555
La3 O26 2.973282 1_555
La3 O22 2.974450 1_555
La3 O32 3.030652 1_555
La3 O28 3.048167 1_555
La3 O34 3.118343 1_455
La4 O35 2.436205 1_555
La4 O10 2.508334 1_555
La4 O14 2.513700 1_555
La4 O3 2.547542 1_556
La4 O8 2.556180 1_555
La4 O18 2.765918 1_556
La4 O20 2.854360 1_555
La4 O24 2.966129 1_556
La4 O23 2.969584 1_555
La4 O31 3.057125 1_555
La4 O29 3.079581 1_555
La4 O35 3.144407 1_455
La5 O0 2.430687 1_555
La5 O24 2.508232 1_555
La5 O21 2.520694 1_555
La5 O31 2.561299 1_554
La5 O27 2.574515 1_555
La5 O17 2.733238 1_554
La5 O15 2.791297 1_555
La5 O10 2.960449 1_554
La5 O6 2.981970 1_555
La5 O12 2.992082 1_555
La5 O3 3.040786 1_555
La5 O0 3.149832 1_655
La6 O15 2.445482 1_655
La6 O28 2.507100 1_555
La6 O30 2.520633 1_555
La6 O21 2.554612 1_555
La6 O24 2.574448 1_555
La6 O0 2.751228 1_655
La6 O1 2.843745 1_655
La6 O6 2.954786 1_655
La6 O3 2.996069 1_655
La6 O13 3.057481 1_655
La6 O9 3.088365 1_655
La6 O15 3.133046 1_555
La7 O16 2.442502 1_655
La7 O32 2.521867 1_545
La7 O29 2.546697 1_555
La7 O25 2.552026 1_555
La7 O22 2.575258 1_555
La7 O1 2.716385 1_655
La7 O2 2.905665 1_645
La7 O4 2.922542 1_655
La7 O7 2.990235 1_655
La7 O11 3.040704 1_645
La7 O14 3.112292 1_655
La7 O16 3.137682 1_555
La8 O17 2.448923 1_655
La8 O31 2.517971 1_555
La8 O26 2.530310 1_555
La8 O27 2.533544 1_556
La8 O23 2.558632 1_565
La8 O2 2.681292 1_655
La8 O0 2.882184 1_656
La8 O5 2.955377 1_655
La8 O8 2.990842 1_665
La8 O10 3.074031 1_655
La8 O12 3.095300 1_656
La8 O17 3.133730 1_555
Mn0 O1 1.962392 1_555
Mn0 O25 1.964604 1_455
Mn0 O4 1.967053 1_555
Mn0 O30 2.010924 1_455
Mn0 O9 2.021359 1_555
Mn0 O33 2.034507 1_455
Mn1 O32 1.964641 1_555
Mn1 O11 1.970724 1_655
Mn1 O34 1.981163 1_555
Mn1 O2 1.995100 1_655
Mn1 O26 2.008192 1_555
Mn1 O5 2.028078 1_655
Mn2 O0 1.939403 1_555
Mn2 O33 1.972490 1_465
Mn2 O6 1.973659 1_555
Mn2 O12 1.984187 1_555
Mn2 O21 1.991142 1_455
Mn2 O27 1.999124 1_455
Mn3 O28 1.980254 1_455
Mn3 O1 1.981630 1_555
Mn3 O13 1.986223 1_555
Mn3 O22 1.987513 1_455
Mn3 O7 2.005303 1_555
Mn3 O34 2.009950 1_455
Mn4 O35 1.952147 1_555
Mn4 O2 1.960479 1_645
Mn4 O23 1.977246 1_555
Mn4 O29 1.978885 1_555
Mn4 O14 2.007788 1_655
Mn4 O8 2.009895 1_655
Mn5 O24 1.946734 1_555
Mn5 O3 1.955545 1_555
Mn5 O30 1.957651 1_555
Mn5 O9 1.965550 1_555
Mn5 O15 1.985629 1_555
Mn5 O18 1.995538 1_555
Mn6 O10 1.947503 1_555
Mn6 O31 1.947529 1_555
Mn6 O26 1.957670 1_555
Mn6 O5 1.965447 1_555
Mn6 O20 1.996738 1_555
Mn6 O17 1.999457 1_555
Mn7 O19 1.980782 1_545
Mn7 O4 1.991335 1_555
Mn7 O25 1.992621 1_555
Mn7 O32 1.992971 1_545
Mn7 O11 1.993042 1_545
Mn7 O16 1.998476 1_555
Mn8 O23 1.971418 1_565
Mn8 O8 1.988472 1_565
Mn8 O12 1.989407 1_556
Mn8 O17 1.990536 1_555
Mn8 O27 1.994434 1_556
Mn8 O18 1.996805 1_566
Mn9 O13 1.969688 1_555
Mn9 O19 1.971519 1_555
Mn9 O28 1.981354 1_555
Mn9 O6 1.987117 1_555
Mn9 O15 2.004338 1_555
Mn9 O21 2.009759 1_555
Mn10 O22 1.969075 1_555
Mn10 O29 1.974806 1_555
Mn10 O16 1.977774 1_555
Mn10 O7 1.988492 1_555
Mn10 O20 1.995263 1_555
Mn10 O14 1.997522 1_555
Ni0 O31 2.030421 1_555
Ni0 O24 2.032560 1_556
Ni0 O10 2.033611 1_655
Ni0 O3 2.037120 1_656
Ni0 O0 2.040995 1_656
Ni0 O35 2.043269 1_555
O1 Sr1 2.523512 1_555
O1 Sr1 3.055651 1_455
O2 Sr2 2.513790 1_565
O2 Sr2 3.069210 1_465
O4 Sr0 2.602128 1_545
O4 Sr1 2.989562 1_555
O5 Sr2 3.069209 1_565
O6 Sr0 2.624189 1_555
O7 Sr1 3.061793 1_555
O8 Sr2 3.092445 1_555
O9 Sr1 2.989277 1_555
O11 Sr0 2.627801 1_555
O11 Sr2 2.884057 1_565
O13 Sr0 2.638157 1_555
O13 Sr1 2.895301 1_555
O14 Sr2 2.974980 1_555
O15 Sr1 2.808221 1_555
O16 Sr2 2.747872 1_555
O16 Sr1 2.829404 1_555
O17 Sr2 2.904228 1_565
O19 Sr0 2.521592 1_655
O19 Sr0 3.059137 1_555
O21 Sr0 3.079704 1_655
O22 Sr1 2.595355 1_555
O23 Sr2 2.629602 1_555
O25 Sr1 2.603499 1_555
O25 Sr0 2.982083 1_645
O26 Sr2 2.609813 1_565
O28 Sr1 2.645262 1_555
O28 Sr0 2.882518 1_655
O29 Sr2 2.636160 1_555
O30 Sr1 2.664175 1_555
O32 Sr2 2.616459 1_565
O32 Sr0 2.890807 1_655
O33 Sr0 2.923477 1_645
O34 Sr0 2.799698 1_655
