# generated using pymatgen
data_LiTi3Sb(PO4)6
_symmetry_space_group_name_H-M   'P 1'
_cell_length_a   8.83051547
_cell_length_b   8.83051547
_cell_length_c   8.83051558
_cell_angle_alpha   58.50240473
_cell_angle_beta   58.50240473
_cell_angle_gamma   58.50240306
_symmetry_Int_Tables_number   1
_chemical_formula_structural   LiTi3Sb(PO4)6
_chemical_formula_sum   'Li1 Ti3 Sb1 P6 O24'
_cell_volume   470.22330095
_cell_formula_units_Z   1
loop_
 _symmetry_equiv_pos_site_id
 _symmetry_equiv_pos_as_xyz
  1  'x, y, z'
loop_
 _atom_site_type_symbol
 _atom_site_label
 _atom_site_symmetry_multiplicity
 _atom_site_fract_x
 _atom_site_fract_y
 _atom_site_fract_z
 _atom_site_occupancy
  Li  Li0  1  0.99639000  0.99639000  0.99639000  1
  Ti  Ti0  1  0.85566900  0.85566900  0.85566900  1
  Ti  Ti1  1  0.64020000  0.64020000  0.64020000  1
  Ti  Ti2  1  0.36071600  0.36071600  0.36071600  1
  Sb  Sb0  1  0.14534400  0.14534400  0.14534400  1
  P  P0  1  0.96557300  0.25022600  0.54104600  1
  P  P1  1  0.54104600  0.96557300  0.25022600  1
  P  P2  1  0.25022600  0.54104600  0.96557300  1
  P  P3  1  0.75036500  0.46397000  0.03311500  1
  P  P4  1  0.46397000  0.03311500  0.75036500  1
  P  P5  1  0.03311500  0.75036500  0.46397000  1
  O  O0  1  0.86209700  0.72279800  0.49393800  1
  O  O1  1  0.72279800  0.49393800  0.86209700  1
  O  O2  1  0.94055200  0.07639800  0.72292000  1
  O  O3  1  0.49393800  0.86209700  0.72279800  1
  O  O4  1  0.78627500  0.42251600  0.56482400  1
  O  O5  1  0.98176300  0.22185100  0.37069100  1
  O  O6  1  0.72292000  0.94055200  0.07639800  1
  O  O7  1  0.56482400  0.78627500  0.42251600  1
  O  O8  1  0.42251600  0.56482400  0.78627500  1
  O  O9  1  0.78997300  0.62985400  0.00356000  1
  O  O10  1  0.92530900  0.27344500  0.05717100  1
  O  O11  1  0.62985400  0.00356000  0.78997300  1
  O  O12  1  0.37069100  0.98176300  0.22185100  1
  O  O13  1  0.07639800  0.72292000  0.94055200  1
  O  O14  1  0.22185100  0.37069100  0.98176300  1
  O  O15  1  0.58022300  0.43584000  0.21439000  1
  O  O16  1  0.43584000  0.21439000  0.58022300  1
  O  O17  1  0.27344500  0.05717100  0.92530900  1
  O  O18  1  0.00356000  0.78997300  0.62985400  1
  O  O19  1  0.21439000  0.58022300  0.43584000  1
  O  O20  1  0.50227700  0.13980600  0.27891300  1
  O  O21  1  0.05717100  0.92530900  0.27344500  1
  O  O22  1  0.27891300  0.50227700  0.13980600  1
  O  O23  1  0.13980600  0.27891300  0.50227700  1
loop_
_geom_bond_atom_site_label_1
_geom_bond_atom_site_label_2
_geom_bond_distance
_geom_bond_site_symmetry_2
Li0 O13 2.381459 1_655
Li0 O6 2.381459 1_556
Li0 O2 2.381459 1_565
Li0 O10 2.466386 1_566
Li0 O17 2.466386 1_665
Li0 O21 2.466386 1_656
O0 P5 1.519590 1_655
O0 Ti1 1.975907 1_555
O1 P3 1.519590 1_556
O1 Ti1 1.975907 1_555
O2 P0 1.546599 1_555
O2 Ti0 1.989009 1_545
O3 P4 1.519590 1_565
O3 Ti1 1.975907 1_555
O4 P0 1.528058 1_555
O4 Ti1 1.910723 1_555
O5 P0 1.574139 1_555
O5 Sb0 1.970860 1_655
O6 P1 1.546599 1_555
O6 Ti0 1.989009 1_554
O7 P1 1.528058 1_555
O7 Ti1 1.910723 1_555
O8 P2 1.528058 1_555
O8 Ti1 1.910723 1_555
O9 P3 1.541656 1_555
O9 Ti0 1.927260 1_554
O10 P3 1.586143 1_555
O10 Sb0 2.006238 1_655
O11 P4 1.541656 1_555
O11 Ti0 1.927260 1_545
O12 P1 1.574139 1_555
O12 Sb0 1.970860 1_565
O13 P2 1.546599 1_555
O13 Ti0 1.989009 1_455
O14 P2 1.574139 1_555
O14 Sb0 1.970860 1_556
O15 P3 1.530634 1_555
O15 Ti2 1.922951 1_555
O16 P4 1.530634 1_555
O16 Ti2 1.922951 1_555
O17 P4 1.586143 1_555
O17 Sb0 2.006238 1_556
O18 P5 1.541656 1_555
O18 Ti0 1.927260 1_455
O19 P5 1.530634 1_555
O19 Ti2 1.922951 1_555
O20 P1 1.521451 1_545
O20 Ti2 1.967401 1_555
O21 P5 1.586143 1_555
O21 Sb0 2.006238 1_565
O22 P2 1.521451 1_554
O22 Ti2 1.967401 1_555
O23 P0 1.521451 1_455
O23 Ti2 1.967401 1_555
