# generated using pymatgen
data_In3Cu3O8
_symmetry_space_group_name_H-M   'P 1'
_cell_length_a   6.19008858
_cell_length_b   10.25796604
_cell_length_c   6.02600578
_cell_angle_alpha   89.82762857
_cell_angle_beta   69.91404077
_cell_angle_gamma   89.95839947
_symmetry_Int_Tables_number   1
_chemical_formula_structural   In3Cu3O8
_chemical_formula_sum   'In6 Cu6 O16'
_cell_volume   359.36335611
_cell_formula_units_Z   2
loop_
 _symmetry_equiv_pos_site_id
 _symmetry_equiv_pos_as_xyz
  1  'x, y, z'
loop_
 _atom_site_type_symbol
 _atom_site_label
 _atom_site_symmetry_multiplicity
 _atom_site_fract_x
 _atom_site_fract_y
 _atom_site_fract_z
 _atom_site_occupancy
  In  In0  1  0.46014400  0.16670500  0.01512200  1
  In  In1  1  0.50010600  0.50002200  0.99988500  1
  In  In2  1  0.49993900  0.00000600  0.50008900  1
  In  In3  1  0.53954300  0.83316700  0.98502900  1
  In  In4  1  0.46017600  0.33331400  0.51514800  1
  In  In5  1  0.53995900  0.66663000  0.48475500  1
  Cu  Cu0  1  0.99996100  0.00006900  0.99996600  1
  Cu  Cu1  1  0.98472500  0.30745100  0.98441200  1
  Cu  Cu2  1  0.98488900  0.19262400  0.48425600  1
  Cu  Cu3  1  0.01542400  0.69252700  0.01528300  1
  Cu  Cu4  1  0.00003700  0.50009800  0.49999600  1
  Cu  Cu5  1  0.01503400  0.80726200  0.51612100  1
  O  O0  1  0.02089700  0.15511500  0.16134400  1
  O  O1  1  0.67346800  0.01006500  0.10880800  1
  O  O2  1  0.65756200  0.32866600  0.11594700  1
  O  O3  1  0.30508600  0.15960000  0.40928600  1
  O  O4  1  0.02072200  0.34419600  0.66085200  1
  O  O5  1  0.32647800  0.51017900  0.39117500  1
  O  O6  1  0.32632500  0.98986300  0.89127300  1
  O  O7  1  0.69483500  0.65940000  0.09064900  1
  O  O8  1  0.65777900  0.17134000  0.61592100  1
  O  O9  1  0.97936800  0.65605700  0.33918400  1
  O  O10  1  0.30512900  0.34057500  0.90915600  1
  O  O11  1  0.34182100  0.82852800  0.38454500  1
  O  O12  1  0.67366600  0.48977800  0.60868100  1
  O  O13  1  0.34256900  0.67127300  0.88382300  1
  O  O14  1  0.69520400  0.84029700  0.59090600  1
  O  O15  1  0.97915300  0.84516100  0.83828500  1
loop_
_geom_bond_atom_site_label_1
_geom_bond_atom_site_label_2
_geom_bond_distance
_geom_bond_site_symmetry_2
In0 O10 2.218350 1_554
In0 O6 2.229090 1_544
In0 O3 2.236396 1_555
In0 O2 2.267538 1_555
In0 O1 2.268868 1_555
In0 O8 2.294292 1_554
In0 O0 2.556882 1_555
In1 O7 2.210445 1_556
In1 O10 2.211846 1_555
In1 O12 2.232562 1_555
In1 O13 2.232627 1_555
In1 O5 2.233029 1_556
In1 O2 2.233200 1_556
In2 O3 2.208938 1_555
In2 O14 2.211456 1_545
In2 O6 2.231855 1_545
In2 O1 2.232275 1_555
In2 O8 2.238094 1_555
In2 O11 2.239388 1_545
In3 O7 2.217508 1_556
In3 O1 2.229682 1_566
In3 O14 2.236421 1_555
In3 O13 2.266345 1_555
In3 O6 2.269025 1_555
In3 O11 2.296028 1_556
In3 O15 2.559136 1_555
In4 O3 2.221241 1_555
In4 O5 2.224624 1_555
In4 O10 2.236009 1_555
In4 O8 2.264235 1_555
In4 O12 2.271621 1_555
In4 O2 2.294292 1_555
In4 O4 2.557893 1_555
In5 O14 2.222128 1_555
In5 O12 2.224412 1_555
In5 O7 2.236470 1_555
In5 O11 2.264228 1_555
In5 O5 2.271617 1_555
In5 O13 2.293601 1_555
In5 O9 2.557510 1_555
Cu0 O15 1.893856 1_545
Cu0 O0 1.894255 1_656
Cu0 O6 1.900659 1_645
Cu0 O1 1.901278 1_556
Cu1 O10 1.907086 1_655
Cu1 O2 1.916970 1_556
Cu1 O4 1.921103 1_655
Cu1 O0 1.944799 1_656
Cu2 O3 1.905854 1_655
Cu2 O8 1.916582 1_555
Cu2 O0 1.921096 1_655
Cu2 O4 1.942088 1_655
Cu3 O7 1.908110 1_455
Cu3 O13 1.916890 1_554
Cu3 O9 1.922478 1_455
Cu3 O15 1.947668 1_454
Cu4 O4 1.894508 1_555
Cu4 O9 1.894835 1_455
Cu4 O12 1.900710 1_455
Cu4 O5 1.900969 1_555
Cu5 O14 1.903830 1_455
Cu5 O11 1.914705 1_555
Cu5 O15 1.917709 1_455
Cu5 O9 1.939969 1_455
