# generated using pymatgen
data_Yb2TiO5
_symmetry_space_group_name_H-M   'P 1'
_cell_length_a   5.73244965
_cell_length_b   5.73244965
_cell_length_c   10.29331072
_cell_angle_alpha   90.00000000
_cell_angle_beta   90.00000000
_cell_angle_gamma   139.21368866
_symmetry_Int_Tables_number   1
_chemical_formula_structural   Yb2TiO5
_chemical_formula_sum   'Yb4 Ti2 O10'
_cell_volume   220.95720649
_cell_formula_units_Z   2
loop_
 _symmetry_equiv_pos_site_id
 _symmetry_equiv_pos_as_xyz
  1  'x, y, z'
loop_
 _atom_site_type_symbol
 _atom_site_label
 _atom_site_symmetry_multiplicity
 _atom_site_fract_x
 _atom_site_fract_y
 _atom_site_fract_z
 _atom_site_occupancy
  Yb  Yb0  1  0.14270383  0.85729617  0.93116209  1
  Yb  Yb1  1  0.14270383  0.85729617  0.56883791  1
  Yb  Yb2  1  0.85729617  0.14270383  0.06883791  1
  Yb  Yb3  1  0.85729617  0.14270383  0.43116209  1
  Ti  Ti0  1  0.17321733  0.82678267  0.25000000  1
  Ti  Ti1  1  0.82678267  0.17321733  0.75000000  1
  O  O0  1  0.05014608  0.94985392  0.37782906  1
  O  O1  1  0.05014608  0.94985392  0.12217094  1
  O  O2  1  0.70797105  0.29202895  0.91028745  1
  O  O3  1  0.70797105  0.29202895  0.58971255  1
  O  O4  1  0.27218487  0.72781513  0.75000000  1
  O  O5  1  0.72781513  0.27218487  0.25000000  1
  O  O6  1  0.29202895  0.70797105  0.08971255  1
  O  O7  1  0.29202895  0.70797105  0.41028745  1
  O  O8  1  0.94985392  0.05014608  0.62217094  1
  O  O9  1  0.94985392  0.05014608  0.87782906  1
loop_
_geom_bond_atom_site_label_1
_geom_bond_atom_site_label_2
_geom_bond_distance
_geom_bond_site_symmetry_2
O0 Ti0 1.865600 1_555
O0 Yb3 2.143904 1_465
O0 Yb1 2.203393 1_555
O1 Ti0 1.865600 1_555
O1 Yb2 2.143904 1_465
O1 Yb0 2.203393 1_554
O2 Ti1 2.086221 1_555
O2 Yb0 2.127964 1_655
O2 Yb0 2.127964 1_545
O2 Yb2 2.288777 1_556
O3 Ti1 2.086221 1_555
O3 Yb1 2.127964 1_655
O3 Yb1 2.127964 1_545
O3 Yb3 2.288777 1_555
O4 Ti1 2.081916 1_565
O4 Ti1 2.081916 1_455
O4 Yb0 2.326680 1_555
O4 Yb1 2.326680 1_555
O5 Ti0 2.081916 1_655
O5 Ti0 2.081916 1_545
O5 Yb3 2.326680 1_555
O5 Yb2 2.326680 1_555
O6 Ti0 2.086221 1_555
O6 Yb2 2.127964 1_565
O6 Yb2 2.127964 1_455
O6 Yb0 2.288777 1_554
O7 Ti0 2.086221 1_555
O7 Yb3 2.127964 1_565
O7 Yb3 2.127964 1_455
O7 Yb1 2.288777 1_555
O8 Ti1 1.865600 1_555
O8 Yb1 2.143904 1_645
O8 Yb3 2.203393 1_555
O9 Ti1 1.865600 1_555
O9 Yb0 2.143904 1_645
O9 Yb2 2.203393 1_556
