# generated using pymatgen
data_Mn2P4O13
_symmetry_space_group_name_H-M   'P 1'
_cell_length_a   7.04551554
_cell_length_b   7.04551554
_cell_length_c   14.37349534
_cell_angle_alpha   67.98791168
_cell_angle_beta   67.98791168
_cell_angle_gamma   52.24712572
_symmetry_Int_Tables_number   1
_chemical_formula_structural   Mn2P4O13
_chemical_formula_sum   'Mn4 P8 O26'
_cell_volume   512.62349588
_cell_formula_units_Z   2
loop_
 _symmetry_equiv_pos_site_id
 _symmetry_equiv_pos_as_xyz
  1  'x, y, z'
loop_
 _atom_site_type_symbol
 _atom_site_label
 _atom_site_symmetry_multiplicity
 _atom_site_fract_x
 _atom_site_fract_y
 _atom_site_fract_z
 _atom_site_occupancy
  Mn  Mn0  1  0.69426800  0.75078700  0.89419200  1
  Mn  Mn1  1  0.24921300  0.30573200  0.60580800  1
  Mn  Mn2  1  0.75078700  0.69426800  0.39419200  1
  Mn  Mn3  1  0.30573200  0.24921300  0.10580800  1
  P  P0  1  0.80845800  0.14452500  0.86181000  1
  P  P1  1  0.14452500  0.80845800  0.36181000  1
  P  P2  1  0.18329000  0.24202300  0.84285800  1
  P  P3  1  0.75797700  0.81671000  0.65714200  1
  P  P4  1  0.24202300  0.18329000  0.34285800  1
  P  P5  1  0.81671000  0.75797700  0.15714200  1
  P  P6  1  0.85547500  0.19154200  0.63819000  1
  P  P7  1  0.19154200  0.85547500  0.13819000  1
  O  O0  1  0.61969300  0.31615500  0.93283800  1
  O  O1  1  0.87725500  0.88177300  0.88943800  1
  O  O2  1  0.31615500  0.61969300  0.43283800  1
  O  O3  1  0.90008400  0.92483300  0.65988200  1
  O  O4  1  0.99042700  0.43877300  0.90678600  1
  O  O5  1  0.39662400  0.06197200  0.89967600  1
  O  O6  1  0.26856300  0.33611900  0.73163600  1
  O  O7  1  0.88177300  0.87725500  0.38943800  1
  O  O8  1  0.92483300  0.90008400  0.15988200  1
  O  O9  1  0.66388100  0.73143700  0.76836400  1
  O  O10  1  0.93802800  0.60337600  0.60032400  1
  O  O11  1  0.56122700  0.00957300  0.59321400  1
  O  O12  1  0.43877300  0.99042700  0.40678600  1
  O  O13  1  0.06197200  0.39662400  0.39967600  1
  O  O14  1  0.33611900  0.26856300  0.23163600  1
  O  O15  1  0.07516700  0.09991600  0.84011800  1
  O  O16  1  0.11822700  0.12274500  0.61056200  1
  O  O17  1  0.73143700  0.66388100  0.26836400  1
  O  O18  1  0.60337600  0.93802800  0.10032400  1
  O  O19  1  0.00957300  0.56122700  0.09321400  1
  O  O20  1  0.73707800  0.26292200  0.75000000  1
  O  O21  1  0.09991600  0.07516700  0.34011800  1
  O  O22  1  0.68384500  0.38030700  0.56716200  1
  O  O23  1  0.12274500  0.11822700  0.11056200  1
  O  O24  1  0.26292200  0.73707800  0.25000000  1
  O  O25  1  0.38030700  0.68384500  0.06716200  1
loop_
_geom_bond_atom_site_label_1
_geom_bond_atom_site_label_2
_geom_bond_distance
_geom_bond_site_symmetry_2
Mn0 O5 1.893782 1_565
Mn0 O4 1.893993 1_555
Mn0 O9 1.961181 1_555
Mn0 O1 1.965220 1_555
Mn1 O10 1.893782 1_455
Mn1 O11 1.893993 1_555
Mn1 O6 1.961181 1_555
Mn1 O16 1.965220 1_555
Mn2 O13 1.893782 1_655
Mn2 O12 1.893993 1_555
Mn2 O17 1.961181 1_555
Mn2 O7 1.965220 1_555
Mn3 O18 1.893782 1_545
Mn3 O19 1.893993 1_555
Mn3 O14 1.961181 1_555
Mn3 O23 1.965220 1_555
O0 P0 1.487145 1_555
O1 P0 1.521225 1_565
O2 P1 1.487145 1_555
O3 P3 1.603214 1_555
O3 P6 1.624225 1_565
O4 P2 1.524677 1_655
O5 P2 1.531050 1_555
O6 P2 1.526251 1_555
O7 P1 1.521225 1_655
O8 P5 1.603214 1_555
O8 P7 1.624225 1_655
O9 P3 1.526251 1_555
O10 P3 1.531050 1_555
O11 P3 1.524677 1_545
O12 P4 1.524677 1_565
O13 P4 1.531050 1_555
O14 P4 1.526251 1_555
O15 P2 1.603214 1_555
O15 P0 1.624225 1_455
O16 P6 1.521225 1_455
O17 P5 1.526251 1_555
O18 P5 1.531050 1_555
O19 P5 1.524677 1_455
O20 P6 1.618260 1_555
O20 P0 1.618260 1_555
O21 P4 1.603214 1_555
O21 P1 1.624225 1_545
O22 P6 1.487145 1_555
O23 P7 1.521225 1_545
O24 P7 1.618260 1_555
O24 P1 1.618260 1_555
O25 P7 1.487145 1_555
