# generated using pymatgen
data_LiVBO4
_symmetry_space_group_name_H-M   'P 1'
_cell_length_a   8.03759544
_cell_length_b   8.03759544
_cell_length_c   8.03759625
_cell_angle_alpha   106.60052002
_cell_angle_beta   106.60052002
_cell_angle_gamma   106.60051849
_symmetry_Int_Tables_number   1
_chemical_formula_structural   LiVBO4
_chemical_formula_sum   'Li6 V6 B6 O24'
_cell_volume   437.06515934
_cell_formula_units_Z   6
loop_
 _symmetry_equiv_pos_site_id
 _symmetry_equiv_pos_as_xyz
  1  'x, y, z'
loop_
 _atom_site_type_symbol
 _atom_site_label
 _atom_site_symmetry_multiplicity
 _atom_site_fract_x
 _atom_site_fract_y
 _atom_site_fract_z
 _atom_site_occupancy
  Li  Li0  1  0.91546700  0.52443800  0.76393200  1
  Li  Li1  1  0.47556200  0.23606800  0.08453300  1
  Li  Li2  1  0.23606800  0.08453300  0.47556200  1
  Li  Li3  1  0.76393200  0.91546700  0.52443800  1
  Li  Li4  1  0.52443800  0.76393200  0.91546700  1
  Li  Li5  1  0.08453300  0.47556200  0.23606800  1
  V  V0  1  0.86285700  0.14749200  0.29756400  1
  V  V1  1  0.70243600  0.13714300  0.85250800  1
  V  V2  1  0.85250800  0.70243600  0.13714300  1
  V  V3  1  0.14749200  0.29756400  0.86285700  1
  V  V4  1  0.29756400  0.86285700  0.14749200  1
  V  V5  1  0.13714300  0.85250800  0.70243600  1
  B  B0  1  0.61649400  0.23124000  0.45455400  1
  B  B1  1  0.76876000  0.54544600  0.38350600  1
  B  B2  1  0.54544600  0.38350600  0.76876000  1
  B  B3  1  0.45455400  0.61649400  0.23124000  1
  B  B4  1  0.23124000  0.45455400  0.61649400  1
  B  B5  1  0.38350600  0.76876000  0.54544600  1
  O  O0  1  0.70614500  0.04901700  0.04821400  1
  O  O1  1  0.95178600  0.29385500  0.95098300  1
  O  O2  1  0.73774400  0.12126600  0.45152600  1
  O  O3  1  0.54847400  0.26225600  0.87873400  1
  O  O4  1  0.41309100  0.09155200  0.34506900  1
  O  O5  1  0.65450100  0.33552100  0.65247200  1
  O  O6  1  0.87873400  0.54847400  0.26225600  1
  O  O7  1  0.66447900  0.34752800  0.34549900  1
  O  O8  1  0.90844800  0.65493100  0.58690900  1
  O  O9  1  0.65493100  0.58690900  0.90844800  1
  O  O10  1  0.34752800  0.34549900  0.66447900  1
  O  O11  1  0.95098300  0.95178600  0.29385500  1
  O  O12  1  0.04901700  0.04821400  0.70614500  1
  O  O13  1  0.65247200  0.65450100  0.33552100  1
  O  O14  1  0.34506900  0.41309100  0.09155200  1
  O  O15  1  0.09155200  0.34506900  0.41309100  1
  O  O16  1  0.33552100  0.65247200  0.65450100  1
  O  O17  1  0.12126600  0.45152600  0.73774400  1
  O  O18  1  0.34549900  0.66447900  0.34752800  1
  O  O19  1  0.58690900  0.90844800  0.65493100  1
  O  O20  1  0.45152600  0.73774400  0.12126600  1
  O  O21  1  0.26225600  0.87873400  0.54847400  1
  O  O22  1  0.04821400  0.70614500  0.04901700  1
  O  O23  1  0.29385500  0.95098300  0.95178600  1
loop_
_geom_bond_atom_site_label_1
_geom_bond_atom_site_label_2
_geom_bond_distance
_geom_bond_site_symmetry_2
Li0 O17 1.950961 1_655
Li0 O5 1.958833 1_555
Li0 O8 1.992085 1_555
Li0 O22 2.079032 1_656
Li1 O3 1.950961 1_554
Li1 O7 1.958833 1_555
Li1 O14 1.992085 1_555
Li1 O23 2.079032 1_544
Li2 O21 1.950961 1_545
Li2 O10 1.958833 1_555
Li2 O4 1.992085 1_555
Li2 O11 2.079032 1_445
Li3 O2 1.950961 1_565
Li3 O13 1.958833 1_555
Li3 O19 1.992085 1_555
Li3 O12 2.079032 1_665
Li4 O20 1.950961 1_556
Li4 O16 1.958833 1_555
Li4 O9 1.992085 1_555
Li4 O0 2.079032 1_566
Li5 O6 1.950961 1_455
Li5 O18 1.958833 1_555
Li5 O15 1.992085 1_555
Li5 O1 2.079032 1_454
B0 O5 1.463079 1_555
B0 O2 1.491698 1_555
B0 O7 1.498671 1_555
B0 O4 1.507430 1_555
B1 O7 1.463078 1_555
B1 O6 1.491698 1_555
B1 O13 1.498671 1_555
B1 O8 1.507430 1_555
B2 O10 1.463078 1_555
B2 O3 1.491698 1_555
B2 O5 1.498671 1_555
B2 O9 1.507430 1_555
B3 O13 1.463078 1_555
B3 O20 1.491698 1_555
B3 O18 1.498671 1_555
B3 O14 1.507430 1_555
B4 O16 1.463078 1_555
B4 O17 1.491698 1_555
B4 O10 1.498671 1_555
B4 O15 1.507430 1_555
B5 O18 1.463079 1_555
B5 O21 1.491698 1_555
B5 O16 1.498671 1_555
B5 O19 1.507430 1_555
O0 V0 1.819681 1_555
O0 V1 1.897069 1_554
O1 V1 1.819681 1_555
O1 V3 1.897068 1_655
O2 V0 1.823742 1_555
O3 V1 1.823742 1_555
O4 V4 1.810286 1_545
O6 V2 1.823742 1_555
O8 V5 1.810286 1_655
O9 V2 1.810286 1_556
O11 V2 1.819681 1_555
O11 V0 1.897068 1_565
O12 V3 1.819681 1_555
O12 V5 1.897068 1_545
O14 V3 1.810286 1_554
O15 V0 1.810286 1_455
O17 V3 1.823742 1_555
O19 V1 1.810286 1_565
O20 V4 1.823742 1_555
O21 V5 1.823742 1_555
O22 V4 1.819681 1_555
O22 V2 1.897068 1_455
O23 V5 1.819681 1_555
O23 V4 1.897069 1_556
