# generated using pymatgen
data_Mg3B2P2(H9O10)2
_symmetry_space_group_name_H-M   'P 1'
_cell_length_a   6.36484300
_cell_length_b   6.36772723
_cell_length_c   9.90827805
_cell_angle_alpha   84.06365060
_cell_angle_beta   85.19211568
_cell_angle_gamma   73.27630115
_symmetry_Int_Tables_number   1
_chemical_formula_structural   Mg3B2P2(H9O10)2
_chemical_formula_sum   'Mg3 B2 P2 H18 O20'
_cell_volume   381.91424691
_cell_formula_units_Z   1
loop_
 _symmetry_equiv_pos_site_id
 _symmetry_equiv_pos_as_xyz
  1  'x, y, z'
loop_
 _atom_site_type_symbol
 _atom_site_label
 _atom_site_symmetry_multiplicity
 _atom_site_fract_x
 _atom_site_fract_y
 _atom_site_fract_z
 _atom_site_occupancy
  Mg  Mg0  1  0.00000000  0.00000000  0.00000000  1
  Mg  Mg1  1  0.68309400  0.65781400  0.66792600  1
  Mg  Mg2  1  0.31690600  0.34218600  0.33207400  1
  B  B0  1  0.77280700  0.12116400  0.71208600  1
  B  B1  1  0.22719300  0.87883600  0.28791400  1
  P  P0  1  0.14299900  0.75663100  0.72152100  1
  P  P1  1  0.85700100  0.24336900  0.27847900  1
  H  H0  1  0.29738200  0.69440900  0.12323300  1
  H  H1  1  0.70261800  0.30559100  0.87676700  1
  H  H2  1  0.50440200  0.91026500  0.36592600  1
  H  H3  1  0.49559800  0.08973500  0.63407400  1
  H  H4  1  0.31023400  0.68205000  0.46208400  1
  H  H5  1  0.68976600  0.31795000  0.53791600  1
  H  H6  1  0.13074700  0.34955700  0.85230100  1
  H  H7  1  0.86925300  0.65044300  0.14769900  1
  H  H8  1  0.33181700  0.13818300  0.86240800  1
  H  H9  1  0.66818300  0.86181700  0.13759200  1
  H  H10  1  0.31860800  0.34416600  0.05481900  1
  H  H11  1  0.68139200  0.65583400  0.94518100  1
  H  H12  1  0.44511300  0.66159100  0.89272100  1
  H  H13  1  0.55488700  0.33840900  0.10727900  1
  H  H14  1  0.15695900  0.15949400  0.56669200  1
  H  H15  1  0.84304100  0.84050600  0.43330800  1
  H  H16  1  0.16892400  0.38984700  0.60014000  1
  H  H17  1  0.83107600  0.61015300  0.39986000  1
  O  O0  1  0.18441800  0.77263100  0.87138600  1
  O  O1  1  0.81558200  0.22736900  0.12861400  1
  O  O2  1  0.01814800  0.58205600  0.71240600  1
  O  O3  1  0.98185200  0.41794400  0.28759400  1
  O  O4  1  0.35603800  0.70850400  0.63144000  1
  O  O5  1  0.64396200  0.29149600  0.36856000  1
  O  O6  1  0.99751300  0.98884400  0.66279100  1
  O  O7  1  0.00248700  0.01115600  0.33720900  1
  O  O8  1  0.77599100  0.15103000  0.85766600  1
  O  O9  1  0.22400900  0.84897000  0.14233400  1
  O  O10  1  0.61304800  0.99756800  0.69141000  1
  O  O11  1  0.38695200  0.00243200  0.30859000  1
  O  O12  1  0.72323000  0.33317100  0.63236000  1
  O  O13  1  0.27677000  0.66682900  0.36764000  1
  O  O14  1  0.20575000  0.22393200  0.91615900  1
  O  O15  1  0.79425000  0.77606800  0.08384100  1
  O  O16  1  0.61004900  0.59709000  0.87881700  1
  O  O17  1  0.38995100  0.40291000  0.12118300  1
  O  O18  1  0.75414900  0.73498800  0.45584800  1
  O  O19  1  0.24585100  0.26501200  0.54415200  1
loop_
_geom_bond_atom_site_label_1
_geom_bond_atom_site_label_2
_geom_bond_distance
_geom_bond_site_symmetry_2
Mg0 O9 2.052811 1_545
Mg0 O8 2.052811 1_454
Mg0 O1 2.061740 1_455
Mg0 O0 2.061740 1_544
Mg0 O15 2.255142 1_445
Mg0 O14 2.255142 1_554
Mg1 O4 2.069662 1_555
Mg1 O12 2.072338 1_555
Mg1 O10 2.113079 1_555
Mg1 O2 2.120447 1_655
Mg1 O16 2.122602 1_555
Mg1 O18 2.148630 1_555
Mg2 O5 2.069662 1_555
Mg2 O13 2.072338 1_555
Mg2 O11 2.113079 1_555
Mg2 O3 2.120447 1_455
Mg2 O17 2.122602 1_555
Mg2 O19 2.148630 1_555
B0 O12 1.456752 1_555
B0 O8 1.476853 1_555
B0 O10 1.491370 1_545
B0 O6 1.506160 1_545
B1 O13 1.456752 1_555
B1 O9 1.476853 1_555
B1 O11 1.491370 1_565
B1 O7 1.506160 1_565
H0 O9 0.990837 1_555
H1 O8 0.990837 1_555
H2 O11 0.987797 1_565
H3 O10 0.987797 1_545
H4 O13 0.997242 1_555
H5 O12 0.997242 1_555
H6 O14 0.997149 1_555
H7 O15 0.997149 1_555
H8 O14 0.980813 1_555
H9 O15 0.980813 1_555
H10 O17 0.988525 1_555
H11 O16 0.988525 1_555
H12 O16 1.014421 1_555
H12 O0 1.628044 1_555
H13 O17 1.014421 1_555
H13 O1 1.628044 1_555
H14 O19 0.993990 1_555
H15 O18 0.993990 1_555
H16 O19 1.000527 1_555
H17 O18 1.000527 1_555
O0 P0 1.548286 1_555
O1 P1 1.548286 1_555
O2 P0 1.554537 1_555
O3 P1 1.554537 1_555
O4 P0 1.530927 1_555
O5 P1 1.530927 1_555
O6 P0 1.583313 1_655
O7 P1 1.583313 1_455
