# generated using pymatgen
data_Lu2Pt2O7
_symmetry_space_group_name_H-M   'P 1'
_cell_length_a   7.10241910
_cell_length_b   7.10241910
_cell_length_c   7.10241910
_cell_angle_alpha   60.00000000
_cell_angle_beta   60.00000000
_cell_angle_gamma   60.00000000
_symmetry_Int_Tables_number   1
_chemical_formula_structural   Lu2Pt2O7
_chemical_formula_sum   'Lu4 Pt4 O14'
_cell_volume   253.34007184
_cell_formula_units_Z   2
loop_
 _symmetry_equiv_pos_site_id
 _symmetry_equiv_pos_as_xyz
  1  'x, y, z'
loop_
 _atom_site_type_symbol
 _atom_site_label
 _atom_site_symmetry_multiplicity
 _atom_site_fract_x
 _atom_site_fract_y
 _atom_site_fract_z
 _atom_site_occupancy
  Lu  Lu0  1  0.62500000  0.62500000  0.12500000  1
  Lu  Lu1  1  0.62500000  0.62500000  0.62500000  1
  Lu  Lu2  1  0.62500000  0.12500000  0.62500000  1
  Lu  Lu3  1  0.12500000  0.62500000  0.62500000  1
  Pt  Pt0  1  0.12500000  0.12500000  0.12500000  1
  Pt  Pt1  1  0.62500000  0.12500000  0.12500000  1
  Pt  Pt2  1  0.12500000  0.12500000  0.62500000  1
  Pt  Pt3  1  0.12500000  0.62500000  0.12500000  1
  O  O0  1  0.03044145  0.46955855  0.46955855  1
  O  O1  1  0.78044145  0.78044145  0.21955855  1
  O  O2  1  0.78044145  0.21955855  0.21955855  1
  O  O3  1  0.46955855  0.03044145  0.46955855  1
  O  O4  1  0.75000000  0.75000000  0.75000000  1
  O  O5  1  0.03044145  0.46955855  0.03044145  1
  O  O6  1  0.03044145  0.03044145  0.46955855  1
  O  O7  1  0.21955855  0.78044145  0.21955855  1
  O  O8  1  0.21955855  0.21955855  0.78044145  1
  O  O9  1  0.78044145  0.21955855  0.78044145  1
  O  O10  1  0.50000000  0.50000000  0.50000000  1
  O  O11  1  0.46955855  0.03044145  0.03044145  1
  O  O12  1  0.46955855  0.46955855  0.03044145  1
  O  O13  1  0.21955855  0.78044145  0.78044145  1
loop_
_geom_bond_atom_site_label_1
_geom_bond_atom_site_label_2
_geom_bond_distance
_geom_bond_site_symmetry_2
Lu0 O4 2.174663 1_554
Lu0 O10 2.174663 1_555
Lu0 O2 2.364413 1_555
Lu0 O12 2.364413 1_555
Lu0 O1 2.364413 1_555
Lu0 O7 2.364413 1_555
Lu0 O5 2.364413 1_655
Lu0 O11 2.364413 1_565
Lu1 O10 2.174663 1_555
Lu1 O4 2.174663 1_555
Lu1 O13 2.364413 1_555
Lu1 O9 2.364413 1_555
Lu1 O1 2.364413 1_555
Lu1 O3 2.364413 1_565
Lu1 O12 2.364413 1_556
Lu1 O0 2.364413 1_655
Lu2 O10 2.174663 1_555
Lu2 O4 2.174663 1_545
Lu2 O8 2.364413 1_555
Lu2 O2 2.364413 1_555
Lu2 O3 2.364413 1_555
Lu2 O9 2.364413 1_555
Lu2 O11 2.364413 1_556
Lu2 O6 2.364413 1_655
Lu3 O10 2.174663 1_555
Lu3 O4 2.174663 1_455
Lu3 O8 2.364413 1_555
Lu3 O0 2.364413 1_555
Lu3 O13 2.364413 1_555
Lu3 O7 2.364413 1_555
Lu3 O5 2.364413 1_556
Lu3 O6 2.364413 1_565
O0 Pt2 2.013666 1_555
O0 Pt3 2.013666 1_555
O1 Pt3 2.013666 1_655
O1 Pt1 2.013666 1_565
O2 Pt1 2.013666 1_555
O2 Pt0 2.013666 1_655
O3 Pt1 2.013666 1_555
O3 Pt2 2.013666 1_555
O5 Pt3 2.013666 1_555
O5 Pt0 2.013666 1_555
O6 Pt2 2.013666 1_555
O6 Pt0 2.013666 1_555
O7 Pt3 2.013666 1_555
O7 Pt0 2.013666 1_565
O8 Pt2 2.013666 1_555
O8 Pt0 2.013666 1_556
O9 Pt1 2.013666 1_556
O9 Pt2 2.013666 1_655
O11 Pt1 2.013666 1_555
O11 Pt0 2.013666 1_555
O12 Pt3 2.013666 1_555
O12 Pt1 2.013666 1_555
O13 Pt3 2.013666 1_556
O13 Pt2 2.013666 1_565
