# generated using pymatgen
data_Li4Ti3(CoO3)6
_symmetry_space_group_name_H-M   'P 1'
_cell_length_a   8.82142162
_cell_length_b   24.64260355
_cell_length_c   2.87656000
_cell_angle_alpha   90.00000000
_cell_angle_beta   90.00000000
_cell_angle_gamma   90.04175117
_symmetry_Int_Tables_number   1
_chemical_formula_structural   Li4Ti3(CoO3)6
_chemical_formula_sum   'Li8 Ti6 Co12 O36'
_cell_volume   625.31448865
_cell_formula_units_Z   2
loop_
 _symmetry_equiv_pos_site_id
 _symmetry_equiv_pos_as_xyz
  1  'x, y, z'
loop_
 _atom_site_type_symbol
 _atom_site_label
 _atom_site_symmetry_multiplicity
 _atom_site_fract_x
 _atom_site_fract_y
 _atom_site_fract_z
 _atom_site_occupancy
  Li  Li0  1  0.18700200  0.99326700  0.00000000  1
  Li  Li1  1  0.19088200  0.20886900  0.00000000  1
  Li  Li2  1  0.30884100  0.70837600  0.00000000  1
  Li  Li3  1  0.31600600  0.49345100  0.00000000  1
  Li  Li4  1  0.67820600  0.50307400  0.00000000  1
  Li  Li5  1  0.68902800  0.29599400  0.00000000  1
  Li  Li6  1  0.81179400  0.79579100  0.00000000  1
  Li  Li7  1  0.81868500  0.00234000  0.00000000  1
  Ti  Ti0  1  0.01414400  0.10367400  0.00000000  1
  Ti  Ti1  1  0.48307300  0.60322400  0.00000000  1
  Ti  Ti2  1  0.51093900  0.39490700  0.00000100  1
  Ti  Ti3  1  0.65076200  0.69503300  0.50000000  1
  Ti  Ti4  1  0.84933800  0.19555000  0.50000000  1
  Ti  Ti5  1  0.99808200  0.89301900  0.00000000  1
  Co  Co0  1  0.99647800  0.50088400  0.00000000  1
  Co  Co1  1  0.03060300  0.31241200  0.00000000  1
  Co  Co2  1  0.12964000  0.58592400  0.50000000  1
  Co  Co3  1  0.14688700  0.80510000  0.49999900  1
  Co  Co4  1  0.35199900  0.30514300  0.50000100  1
  Co  Co5  1  0.36971700  0.08614900  0.50000000  1
  Co  Co6  1  0.46908400  0.81189500  0.00000000  1
  Co  Co7  1  0.50285800  0.00080100  0.00000000  1
  Co  Co8  1  0.51112300  0.19062300  0.00000000  1
  Co  Co9  1  0.63329500  0.91436700  0.50000000  1
  Co  Co10  1  0.86849300  0.41457900  0.50000000  1
  Co  Co11  1  0.99028800  0.69142700  0.00000000  1
  O  O0  1  0.00388600  0.42598100  0.00000000  1
  O  O1  1  0.99290500  0.57574600  0.99999900  1
  O  O2  1  0.04518000  0.94162100  0.50000000  1
  O  O3  1  0.05765600  0.16155100  0.50000000  1
  O  O4  1  0.10321300  0.66180700  0.50000000  1
  O  O5  1  0.11305600  0.75799000  0.99999900  1
  O  O6  1  0.14014300  0.50763200  0.49999900  1
  O  O7  1  0.14991100  0.28181000  0.50000000  1
  O  O8  1  0.18781000  0.85476500  0.00000000  1
  O  O9  1  0.22711700  0.08662900  0.00000000  1
  O  O10  1  0.27494500  0.58615500  0.00000000  1
  O  O11  1  0.31190900  0.35357700  0.00000100  1
  O  O12  1  0.35131800  0.78193200  0.49999900  1
  O  O13  1  0.35840700  0.00913600  0.50000000  1
  O  O14  1  0.38757800  0.25797500  0.99999800  1
  O  O15  1  0.39566400  0.16070800  0.50000000  1
  O  O16  1  0.44300200  0.66160000  0.50000000  1
  O  O17  1  0.45225800  0.44139800  0.50000100  1
  O  O18  1  0.50558900  0.07770100  0.00000000  1
  O  O19  1  0.49757000  0.92454800  0.00000000  1
  O  O20  1  0.53910400  0.55592600  0.50000000  1
  O  O21  1  0.55109700  0.33621100  0.50000000  1
  O  O22  1  0.58544000  0.84143800  0.50000000  1
  O  O23  1  0.60997900  0.74619700  0.00000000  1
  O  O24  1  0.64837900  0.99115700  0.50000000  1
  O  O25  1  0.63769200  0.21651100  0.50000000  1
  O  O26  1  0.68391300  0.64300600  0.00000000  1
  O  O27  1  0.71989000  0.41100000  0.00000000  1
  O  O28  1  0.77560000  0.91122700  0.00000000  1
  O  O29  1  0.81659700  0.14253700  0.00000000  1
  O  O30  1  0.86307200  0.71660600  0.50000000  1
  O  O31  1  0.85217600  0.49277300  0.50000000  1
  O  O32  1  0.89035200  0.24554900  0.00000000  1
  O  O33  1  0.91343300  0.34051500  0.50000000  1
  O  O34  1  0.94481700  0.83687500  0.50000000  1
  O  O35  1  0.96209200  0.05633800  0.50000000  1
loop_
_geom_bond_atom_site_label_1
_geom_bond_atom_site_label_2
_geom_bond_distance
_geom_bond_site_symmetry_2
Li0 O13 2.122961 1_564
Li0 O13 2.122961 1_565
Li0 O2 2.291561 1_554
Li0 O2 2.291561 1_555
Li0 O9 2.327484 1_565
Li1 O14 2.114707 1_554
Li1 O3 2.192600 1_555
Li1 O3 2.192600 1_554
Li1 O7 2.330466 1_554
Li1 O7 2.330466 1_555
Li1 O15 2.596849 1_555
Li1 O15 2.596849 1_554
Li2 O5 2.116779 1_554
Li2 O16 2.190882 1_555
Li2 O16 2.190882 1_554
Li2 O12 2.343847 1_555
Li2 O12 2.343850 1_554
Li2 O4 2.583197 1_554
Li2 O4 2.583197 1_555
Li3 O6 2.144359 1_555
Li3 O6 2.144363 1_554
Li3 O17 2.271764 1_554
Li3 O17 2.271768 1_555
Li3 O10 2.313266 1_555
Li4 O31 2.118689 1_555
Li4 O31 2.118689 1_554
Li4 O20 2.296295 1_554
Li4 O20 2.296295 1_555
Li4 O27 2.298811 1_555
Li5 O21 2.129099 1_555
Li5 O21 2.129099 1_554
Li5 O32 2.168537 1_555
Li5 O25 2.471602 1_555
Li5 O25 2.471602 1_554
Li6 O34 2.113976 1_554
Li6 O34 2.113976 1_555
Li6 O23 2.158673 1_555
Li6 O30 2.466216 1_554
Li6 O30 2.466216 1_555
Li7 O24 2.097860 1_544
Li7 O24 2.097860 1_545
Li7 O28 2.276930 1_545
Li7 O35 2.331778 1_554
Li7 O35 2.331778 1_555
Co0 O1 1.845087 1_554
Co0 O0 1.847009 1_655
Co0 O6 1.924087 1_655
Co0 O6 1.924091 1_654
Co0 O31 1.930965 1_555
Co0 O31 1.930965 1_554
Co1 O33 1.902008 1_455
Co1 O33 1.902008 1_454
Co1 O7 1.935504 1_555
Co1 O7 1.935504 1_554
Co1 O32 2.059750 1_455
Co2 O4 1.884599 1_555
Co2 O1 1.893679 1_455
Co2 O1 1.893683 1_454
Co2 O10 1.926570 1_555
Co2 O10 1.926570 1_556
Co2 O6 1.931610 1_555
Co3 O5 1.872145 1_555
Co3 O5 1.872145 1_554
Co3 O12 1.891983 1_555
Co3 O8 1.922547 1_555
Co3 O8 1.922551 1_556
Co3 O34 1.947465 1_455
Co4 O7 1.872738 1_555
Co4 O14 1.875820 1_555
Co4 O14 1.875834 1_554
Co4 O11 1.902333 1_555
Co4 O11 1.902333 1_556
Co4 O21 1.915428 1_555
Co5 O15 1.851365 1_555
Co5 O18 1.883867 1_555
Co5 O18 1.883867 1_556
Co5 O13 1.900349 1_555
Co5 O9 1.910814 1_555
Co5 O9 1.910814 1_556
Co6 O22 1.910790 1_554
Co6 O22 1.910790 1_555
Co6 O12 1.921444 1_555
Co6 O12 1.921448 1_554
Co6 O23 2.041759 1_555
Co7 O19 1.879617 1_545
Co7 O18 1.895152 1_555
Co7 O13 1.932606 1_554
Co7 O13 1.932606 1_555
Co7 O24 1.942541 1_545
Co7 O24 1.942541 1_544
Co8 O15 1.910069 1_554
Co8 O15 1.910069 1_555
Co8 O25 1.929042 1_555
Co8 O25 1.929042 1_554
Co8 O14 1.986226 1_554
Co9 O22 1.845776 1_555
Co9 O19 1.888261 1_556
Co9 O19 1.888261 1_555
Co9 O24 1.896881 1_555
Co9 O28 1.910664 1_555
Co9 O28 1.910664 1_556
Co10 O33 1.867970 1_555
Co10 O0 1.890397 1_655
Co10 O0 1.890397 1_656
Co10 O31 1.932377 1_555
Co10 O27 1.947997 1_555
Co10 O27 1.947997 1_556
Co11 O4 1.896000 1_655
Co11 O4 1.896000 1_654
Co11 O30 1.927186 1_554
Co11 O30 1.927186 1_555
Co11 O5 1.964895 1_654
O2 Ti5 1.917023 1_456
O2 Ti5 1.917023 1_455
O3 Ti4 2.020196 1_455
O3 Ti0 2.061394 1_555
O3 Ti0 2.061394 1_556
O8 Ti5 1.921488 1_455
O9 Ti0 1.925405 1_555
O10 Ti1 1.883252 1_555
O11 Ti2 2.029106 1_555
O16 Ti3 2.008856 1_555
O16 Ti1 2.064880 1_555
O16 Ti1 2.064880 1_556
O17 Ti2 1.910500 1_556
O17 Ti2 1.910500 1_555
O20 Ti1 1.916323 1_555
O20 Ti1 1.916323 1_556
O21 Ti2 2.070512 1_555
O21 Ti2 2.070516 1_556
O23 Ti3 1.946379 1_555
O23 Ti3 1.946379 1_554
O25 Ti4 1.937517 1_555
O26 Ti3 1.948961 1_555
O26 Ti3 1.948961 1_554
O26 Ti1 2.024209 1_555
O27 Ti2 1.885141 1_555
O28 Ti5 2.013563 1_555
O29 Ti4 1.964215 1_555
O29 Ti4 1.964215 1_554
O29 Ti0 1.989072 1_655
O30 Ti3 1.946491 1_555
O32 Ti4 1.927948 1_555
O32 Ti4 1.927948 1_554
O34 Ti5 2.050037 1_555
O34 Ti5 2.050037 1_556
O35 Ti0 1.907718 1_655
O35 Ti0 1.907718 1_656
