# generated using pymatgen
data_FeOF
_symmetry_space_group_name_H-M   'P 1'
_cell_length_a   3.08052500
_cell_length_b   4.77832800
_cell_length_c   14.33523560
_cell_angle_alpha   89.23864571
_cell_angle_beta   90.00000000
_cell_angle_gamma   90.00000000
_symmetry_Int_Tables_number   1
_chemical_formula_structural   FeOF
_chemical_formula_sum   'Fe6 O6 F6'
_cell_volume   210.99258194
_cell_formula_units_Z   6
loop_
 _symmetry_equiv_pos_site_id
 _symmetry_equiv_pos_as_xyz
  1  'x, y, z'
loop_
 _atom_site_type_symbol
 _atom_site_label
 _atom_site_symmetry_multiplicity
 _atom_site_fract_x
 _atom_site_fract_y
 _atom_site_fract_z
 _atom_site_occupancy
  Fe  Fe0  1  0.00000000  0.99084200  0.99929700  1
  Fe  Fe1  1  0.00000000  0.99402700  0.33260600  1
  Fe  Fe2  1  0.00000000  0.97697500  0.66663000  1
  Fe  Fe3  1  0.50000000  0.42167500  0.16544500  1
  Fe  Fe4  1  0.50000000  0.56219700  0.49956800  1
  Fe  Fe5  1  0.50000000  0.55771500  0.83471800  1
  O  O0  1  0.50000000  0.82606300  0.59956000  1
  O  O1  1  0.50000000  0.80048200  0.93932000  1
  O  O2  1  0.00000000  0.71032500  0.76834700  1
  O  O3  1  0.00000000  0.70179600  0.42912300  1
  O  O4  1  0.00000000  0.28244000  0.23822900  1
  O  O5  1  0.50000000  0.17641900  0.06377800  1
  F  F0  1  0.50000000  0.79567500  0.26804300  1
  F  F1  1  0.00000000  0.67175100  0.10971700  1
  F  F2  1  0.00000000  0.32311200  0.56275600  1
  F  F3  1  0.00000000  0.30716900  0.89312700  1
  F  F4  1  0.50000000  0.18922600  0.40134200  1
  F  F5  1  0.50000000  0.21211200  0.72839800  1
loop_
_geom_bond_atom_site_label_1
_geom_bond_atom_site_label_2
_geom_bond_distance
_geom_bond_site_symmetry_2
Fe0 O1 1.989924 1_555
Fe0 O1 1.989924 1_455
Fe0 O5 2.008715 1_566
Fe0 O5 2.008715 1_466
Fe1 O4 1.918354 1_565
Fe1 O3 1.952653 1_555
Fe2 O2 1.923597 1_555
Fe2 O0 1.958378 1_555
Fe2 O0 1.958378 1_455
Fe3 O5 1.882245 1_555
Fe3 O4 1.971099 1_655
Fe3 O4 1.971099 1_555
Fe4 O0 1.921563 1_555
Fe4 O3 1.954290 1_555
Fe4 O3 1.954290 1_655
Fe5 O1 1.907972 1_555
Fe5 O2 1.947044 1_555
Fe5 O2 1.947044 1_655
F0 Fe1 2.037309 1_655
F0 Fe1 2.037309 1_555
F0 Fe3 2.329531 1_555
F1 Fe3 2.100746 1_555
F1 Fe3 2.100746 1_455
F1 Fe0 2.183162 1_554
F2 Fe4 2.114367 1_555
F2 Fe4 2.114367 1_455
F2 Fe2 2.210750 1_545
F3 Fe5 2.116629 1_555
F3 Fe5 2.116629 1_455
F3 Fe0 2.130713 1_545
F4 Fe1 2.058572 1_545
F4 Fe1 2.058572 1_645
F4 Fe4 2.285951 1_555
F5 Fe2 2.108382 1_645
F5 Fe2 2.108382 1_545
F5 Fe5 2.262073 1_555
