# generated using pymatgen
data_Ba3DyUFeO9
_symmetry_space_group_name_H-M   'P 1'
_cell_length_a   5.99836074
_cell_length_b   5.99836074
_cell_length_c   17.31818700
_cell_angle_alpha   90.00000000
_cell_angle_beta   90.00000000
_cell_angle_gamma   120.00000820
_symmetry_Int_Tables_number   1
_chemical_formula_structural   Ba3DyUFeO9
_chemical_formula_sum   'Ba6 Dy2 U2 Fe2 O18'
_cell_volume   539.63260515
_cell_formula_units_Z   2
loop_
 _symmetry_equiv_pos_site_id
 _symmetry_equiv_pos_as_xyz
  1  'x, y, z'
loop_
 _atom_site_type_symbol
 _atom_site_label
 _atom_site_symmetry_multiplicity
 _atom_site_fract_x
 _atom_site_fract_y
 _atom_site_fract_z
 _atom_site_occupancy
  Ba  Ba0  1  0.66666700  0.33333300  0.94804000  1
  Ba  Ba1  1  0.33333300  0.66666700  0.81869300  1
  Ba  Ba2  1  0.33333300  0.66666700  0.55274100  1
  Ba  Ba3  1  0.00000000  0.00000000  0.69697100  1
  Ba  Ba4  1  0.66666700  0.33333300  0.18370200  1
  Ba  Ba5  1  0.33333300  0.66666700  0.05511700  1
  Dy  Dy0  1  0.00000000  0.00000000  0.34042200  1
  Dy  Dy1  1  0.66666700  0.33333300  0.38464500  1
  U  U0  1  0.00000000  0.00000000  0.00108600  1
  U  U1  1  0.66666700  0.33333300  0.63873900  1
  Fe  Fe0  1  0.33333300  0.66666700  0.35272800  1
  Fe  Fe1  1  0.00000000  0.00000000  0.50294700  1
  O  O0  1  0.16515700  0.33031300  0.93249900  1
  O  O1  1  0.98844000  0.49422000  0.70605200  1
  O  O2  1  0.16515700  0.83484300  0.93249900  1
  O  O3  1  0.50578000  0.49422000  0.70605200  1
  O  O4  1  0.50578000  0.01156000  0.70605200  1
  O  O5  1  0.66968700  0.83484300  0.93249900  1
  O  O6  1  0.69116500  0.84558300  0.42631600  1
  O  O7  1  0.83915900  0.67831900  0.57009300  1
  O  O8  1  0.83915900  0.16084100  0.57009300  1
  O  O9  1  0.15441700  0.84558300  0.42631600  1
  O  O10  1  0.15441700  0.30883500  0.42631600  1
  O  O11  1  0.32168100  0.16084100  0.57009300  1
  O  O12  1  0.50440600  0.00881300  0.30409600  1
  O  O13  1  0.33067600  0.16533800  0.06900000  1
  O  O14  1  0.50440600  0.49559400  0.30409600  1
  O  O15  1  0.83466200  0.16533800  0.06900000  1
  O  O16  1  0.99118700  0.49559400  0.30409600  1
  O  O17  1  0.83466200  0.66932400  0.06900000  1
loop_
_geom_bond_atom_site_label_1
_geom_bond_atom_site_label_2
_geom_bond_distance
_geom_bond_site_symmetry_2
Ba0 O15 2.726640 1_556
Ba0 O17 2.726643 1_556
Ba0 O13 2.726643 1_556
Ba0 O2 3.011273 1_655
Ba0 O2 3.011273 1_545
Ba0 O0 3.011273 1_555
Ba0 O5 3.011273 1_555
Ba0 O5 3.011273 1_545
Ba0 O0 3.011273 1_655
Ba1 O2 2.633897 1_555
Ba1 O5 2.633904 1_555
Ba1 O0 2.633904 1_555
Ba1 O1 2.648642 1_455
Ba1 O4 2.648642 1_565
Ba1 O3 2.648646 1_555
Ba2 O6 2.872106 1_555
Ba2 O10 2.872106 1_555
Ba2 O9 2.872106 1_555
Ba2 O8 3.014805 1_565
Ba2 O8 3.014805 1_455
Ba2 O7 3.014805 1_555
Ba2 O11 3.014805 1_555
Ba2 O11 3.014805 1_565
Ba2 O7 3.014805 1_455
Ba2 O1 3.203017 1_455
Ba2 O4 3.203017 1_565
Ba2 O3 3.203020 1_555
Ba3 O7 2.760527 1_445
Ba3 O11 2.760527 1_555
Ba3 O8 2.760531 1_455
Ba3 O3 3.003901 1_445
Ba3 O3 3.003901 1_555
Ba3 O1 3.003901 1_445
Ba3 O4 3.003901 1_555
Ba3 O1 3.003901 1_455
Ba3 O4 3.003901 1_455
Ba4 O15 2.644287 1_555
Ba4 O17 2.644290 1_555
Ba4 O13 2.644290 1_555
Ba4 O16 2.681259 1_555
Ba4 O12 2.681259 1_555
Ba4 O14 2.681266 1_555
Ba5 O2 2.749956 1_554
Ba5 O5 2.749962 1_554
Ba5 O0 2.749962 1_554
Ba5 O17 3.008831 1_455
Ba5 O13 3.008831 1_565
Ba5 O15 3.008833 1_565
Ba5 O15 3.008833 1_455
Ba5 O13 3.008837 1_555
Ba5 O17 3.008837 1_555
Dy0 O9 2.187819 1_545
Dy0 O10 2.187823 1_555
Dy0 O6 2.187823 1_445
Dy0 O16 3.064788 1_445
Dy0 O12 3.064788 1_555
Dy0 O14 3.064791 1_445
Dy0 O14 3.064791 1_555
Dy0 O12 3.064794 1_455
Dy0 O16 3.064794 1_455
Dy1 O16 2.188110 1_555
Dy1 O12 2.188110 1_555
Dy1 O14 2.188118 1_555
Dy1 O6 3.087401 1_545
Dy1 O10 3.087401 1_655
Dy1 O9 3.087407 1_655
Dy1 O9 3.087407 1_545
Dy1 O10 3.087413 1_555
Dy1 O6 3.087413 1_555
Fe0 O12 1.966807 1_565
Fe0 O16 1.966807 1_455
Fe0 O14 1.966807 1_555
Fe0 O6 2.253756 1_555
Fe0 O10 2.253756 1_555
Fe0 O9 2.253756 1_555
Fe1 O11 2.035832 1_555
Fe1 O7 2.035832 1_445
Fe1 O8 2.035836 1_455
Fe1 O9 2.082074 1_545
Fe1 O10 2.082078 1_555
Fe1 O6 2.082078 1_445
O0 U0 2.086898 1_556
O1 U1 2.037877 1_555
O2 U0 2.086903 1_566
O3 U1 2.037881 1_555
O4 U1 2.037877 1_555
O5 U0 2.086898 1_666
O7 U1 2.150572 1_555
O8 U1 2.150564 1_555
O11 U1 2.150572 1_555
O13 U0 2.081842 1_555
O15 U0 2.081843 1_655
O17 U0 2.081842 1_665
