# generated using pymatgen
data_Ba3Y2Br12
_symmetry_space_group_name_H-M   'P 1'
_cell_length_a   13.40670700
_cell_length_b   12.87532800
_cell_length_c   20.60916275
_cell_angle_alpha   55.39503889
_cell_angle_beta   90.00000000
_cell_angle_gamma   90.00000000
_symmetry_Int_Tables_number   1
_chemical_formula_structural   Ba3Y2Br12
_chemical_formula_sum   'Ba12 Y8 Br48'
_cell_volume   2928.10478865
_cell_formula_units_Z   4
loop_
 _symmetry_equiv_pos_site_id
 _symmetry_equiv_pos_as_xyz
  1  'x, y, z'
loop_
 _atom_site_type_symbol
 _atom_site_label
 _atom_site_symmetry_multiplicity
 _atom_site_fract_x
 _atom_site_fract_y
 _atom_site_fract_z
 _atom_site_occupancy
  Ba  Ba0  1  0.20471500  0.43421600  0.52907700  1
  Ba  Ba1  1  0.13008600  0.71697000  0.15282700  1
  Ba  Ba2  1  0.33973600  0.97279900  0.90059800  1
  Ba  Ba3  1  0.63008600  0.28303000  0.34717300  1
  Ba  Ba4  1  0.83973600  0.02720100  0.59940200  1
  Ba  Ba5  1  0.70471500  0.56578400  0.97092300  1
  Ba  Ba6  1  0.29528500  0.43421600  0.02907700  1
  Ba  Ba7  1  0.16026400  0.97279900  0.40059800  1
  Ba  Ba8  1  0.36991400  0.71697000  0.65282700  1
  Ba  Ba9  1  0.66026400  0.02720100  0.09940200  1
  Ba  Ba10  1  0.86991400  0.28303000  0.84717300  1
  Ba  Ba11  1  0.79528500  0.56578400  0.47092300  1
  Y  Y0  1  0.47979400  0.62823600  0.13214000  1
  Y  Y1  1  0.97979400  0.37176400  0.36786000  1
  Y  Y2  1  0.52588000  0.11630100  0.63949500  1
  Y  Y3  1  0.02588000  0.88369900  0.86050500  1
  Y  Y4  1  0.97412000  0.11630100  0.13949500  1
  Y  Y5  1  0.47412000  0.88369900  0.36050500  1
  Y  Y6  1  0.02020600  0.62823600  0.63214000  1
  Y  Y7  1  0.52020600  0.37176400  0.86786000  1
  Br  Br0  1  0.62919700  0.80721000  0.06822900  1
  Br  Br1  1  0.63499200  0.34431900  0.54209600  1
  Br  Br2  1  0.80048100  0.51559000  0.33363400  1
  Br  Br3  1  0.92160800  0.10976800  0.78679200  1
  Br  Br4  1  0.12251600  0.54611700  0.35079800  1
  Br  Br5  1  0.35279200  0.82782400  0.09626800  1
  Br  Br6  1  0.10736800  0.94213400  0.96712300  1
  Br  Br7  1  0.47649800  0.15838800  0.75201700  1
  Br  Br8  1  0.19124800  0.02080000  0.76791500  1
  Br  Br9  1  0.35941100  0.23835000  0.54302300  1
  Br  Br10  1  0.98892700  0.48287900  0.20918400  1
  Br  Br11  1  0.45556800  0.68569100  0.97419500  1
  Br  Br12  1  0.48892700  0.51712100  0.29081600  1
  Br  Br13  1  0.95556800  0.31430900  0.52580500  1
  Br  Br14  1  0.85941100  0.76165000  0.95697700  1
  Br  Br15  1  0.69124800  0.97920000  0.73208500  1
  Br  Br16  1  0.60736800  0.05786600  0.53287700  1
  Br  Br17  1  0.85279200  0.17217600  0.40373200  1
  Br  Br18  1  0.97649800  0.84161200  0.74798300  1
  Br  Br19  1  0.62251600  0.45388300  0.14920200  1
  Br  Br20  1  0.30048100  0.48441000  0.16636600  1
  Br  Br21  1  0.12919700  0.19279000  0.43177100  1
  Br  Br22  1  0.42160800  0.89023200  0.71320800  1
  Br  Br23  1  0.13499200  0.65568100  0.95790400  1
  Br  Br24  1  0.86500800  0.34431900  0.04209600  1
  Br  Br25  1  0.57839200  0.10976800  0.28679200  1
  Br  Br26  1  0.87080300  0.80721000  0.56822900  1
  Br  Br27  1  0.69951900  0.51559000  0.83363400  1
  Br  Br28  1  0.37748400  0.54611700  0.85079800  1
  Br  Br29  1  0.02350200  0.15838800  0.25201700  1
  Br  Br30  1  0.14720800  0.82782400  0.59626800  1
  Br  Br31  1  0.39263200  0.94213400  0.46712300  1
  Br  Br32  1  0.30875200  0.02080000  0.26791500  1
  Br  Br33  1  0.14058900  0.23835000  0.04302300  1
  Br  Br34  1  0.04443200  0.68569100  0.47419500  1
  Br  Br35  1  0.51107300  0.48287900  0.70918400  1
  Br  Br36  1  0.54443200  0.31430900  0.02580500  1
  Br  Br37  1  0.01107300  0.51712100  0.79081600  1
  Br  Br38  1  0.64058900  0.76165000  0.45697700  1
  Br  Br39  1  0.80875200  0.97920000  0.23208500  1
  Br  Br40  1  0.52350200  0.84161200  0.24798300  1
  Br  Br41  1  0.89263200  0.05786600  0.03287700  1
  Br  Br42  1  0.64720800  0.17217600  0.90373200  1
  Br  Br43  1  0.87748400  0.45388300  0.64920200  1
  Br  Br44  1  0.07839200  0.89023200  0.21320800  1
  Br  Br45  1  0.19951900  0.48441000  0.66636600  1
  Br  Br46  1  0.36500800  0.65568100  0.45790400  1
  Br  Br47  1  0.37080300  0.19279000  0.93177100  1
loop_
_geom_bond_atom_site_label_1
_geom_bond_atom_site_label_2
_geom_bond_distance
_geom_bond_site_symmetry_2
Ba0 Br9 3.149657 1_555
Ba0 Br46 3.185874 1_555
Ba0 Br45 3.241141 1_555
Ba0 Br4 3.282863 1_555
Ba0 Br34 3.495827 1_555
Ba0 Br13 3.696411 1_455
Ba1 Br10 3.168360 1_455
Ba1 Br44 3.187228 1_555
Ba1 Br5 3.228141 1_555
Ba1 Br6 3.246912 1_554
Ba1 Br4 3.361790 1_555
Ba1 Br20 3.648737 1_555
Ba2 Br8 3.146880 1_565
Ba2 Br7 3.183925 1_565
Ba2 Br47 3.267401 1_565
Ba2 Br6 3.335534 1_555
Ba2 Br5 3.350670 1_556
Ba2 Br11 3.465342 1_555
Ba3 Br12 3.168360 1_555
Ba3 Br25 3.187228 1_555
Ba3 Br17 3.228141 1_555
Ba3 Br16 3.246912 1_555
Ba3 Br19 3.361790 1_555
Ba3 Br2 3.648737 1_555
Ba4 Br15 3.146880 1_545
Ba4 Br18 3.183925 1_545
Ba4 Br26 3.267401 1_545
Ba4 Br16 3.335534 1_555
Ba4 Br17 3.350670 1_555
Ba4 Br13 3.465342 1_555
Ba5 Br14 3.149657 1_555
Ba5 Br24 3.185874 1_556
Ba5 Br27 3.241141 1_555
Ba5 Br19 3.282863 1_556
Ba5 Br36 3.495827 1_556
Ba5 Br11 3.696411 1_555
Ba6 Br33 3.149657 1_555
Ba6 Br23 3.185874 1_554
Ba6 Br20 3.241141 1_555
Ba6 Br28 3.282863 1_554
Ba6 Br11 3.495827 1_554
Ba6 Br36 3.696411 1_555
Ba7 Br32 3.146880 1_565
Ba7 Br29 3.183925 1_565
Ba7 Br21 3.267401 1_565
Ba7 Br31 3.335534 1_555
Ba7 Br30 3.350670 1_555
Ba7 Br34 3.465342 1_555
Ba8 Br35 3.168360 1_555
Ba8 Br22 3.187228 1_555
Ba8 Br30 3.228141 1_555
Ba8 Br31 3.246912 1_555
Ba8 Br28 3.361790 1_555
Ba8 Br45 3.648737 1_555
Ba9 Br39 3.146880 1_545
Ba9 Br40 3.183925 1_545
Ba9 Br0 3.267401 1_545
Ba9 Br41 3.335534 1_555
Ba9 Br42 3.350670 1_554
Ba9 Br36 3.465342 1_555
Ba10 Br37 3.168360 1_655
Ba10 Br3 3.187228 1_555
Ba10 Br42 3.228141 1_555
Ba10 Br41 3.246912 1_556
Ba10 Br43 3.361790 1_555
Ba10 Br27 3.648737 1_555
Ba11 Br38 3.149657 1_555
Ba11 Br1 3.185874 1_555
Ba11 Br2 3.241141 1_555
Ba11 Br43 3.282863 1_555
Ba11 Br13 3.495827 1_555
Ba11 Br34 3.696411 1_655
Br0 Y0 2.758530 1_555
Br1 Y2 2.845102 1_555
Br2 Y1 2.867456 1_555
Br3 Y3 2.777028 1_645
Br4 Y1 2.815607 1_455
Br5 Y0 2.809179 1_555
Br6 Y3 2.909551 1_555
Br7 Y2 2.745349 1_555
Br8 Y3 2.801175 1_545
Br9 Y2 2.802603 1_555
Br10 Y1 2.727979 1_555
Br11 Y0 2.917780 1_556
Br12 Y0 2.727979 1_555
Br13 Y1 2.917780 1_555
Br14 Y3 2.802603 1_655
Br15 Y2 2.801175 1_565
Br16 Y2 2.909551 1_555
Br17 Y1 2.809179 1_555
Br18 Y3 2.745349 1_655
Br19 Y0 2.815607 1_555
Br20 Y0 2.867456 1_555
Br21 Y1 2.758530 1_455
Br22 Y2 2.777028 1_565
Br23 Y3 2.845102 1_555
Br24 Y4 2.845102 1_555
Br25 Y5 2.777028 1_545
Br26 Y6 2.758530 1_655
Br27 Y7 2.867456 1_555
Br28 Y7 2.815607 1_555
Br29 Y4 2.745349 1_455
Br30 Y6 2.809179 1_555
Br31 Y5 2.909551 1_555
Br32 Y5 2.801175 1_545
Br33 Y4 2.802603 1_455
Br34 Y6 2.917780 1_555
Br35 Y7 2.727979 1_555
Br36 Y7 2.917780 1_554
Br37 Y6 2.727979 1_555
Br38 Y5 2.802603 1_555
Br39 Y4 2.801175 1_565
Br40 Y5 2.745349 1_555
Br41 Y4 2.909551 1_555
Br42 Y7 2.809179 1_555
Br43 Y6 2.815607 1_655
Br44 Y4 2.777028 1_465
Br45 Y6 2.867456 1_555
Br46 Y5 2.845102 1_555
Br47 Y7 2.758530 1_555
