# generated using pymatgen
data_Li11(RuO3)8
_symmetry_space_group_name_H-M   'P 1'
_cell_length_a   5.09242700
_cell_length_b   8.78016898
_cell_length_c   9.95852058
_cell_angle_alpha   98.74834082
_cell_angle_beta   94.61532123
_cell_angle_gamma   91.46448872
_symmetry_Int_Tables_number   1
_chemical_formula_structural   Li11(RuO3)8
_chemical_formula_sum   'Li11 Ru8 O24'
_cell_volume   438.33877494
_cell_formula_units_Z   1
loop_
 _symmetry_equiv_pos_site_id
 _symmetry_equiv_pos_as_xyz
  1  'x, y, z'
loop_
 _atom_site_type_symbol
 _atom_site_label
 _atom_site_symmetry_multiplicity
 _atom_site_fract_x
 _atom_site_fract_y
 _atom_site_fract_z
 _atom_site_occupancy
  Li  Li0  1  0.61097300  0.80414700  0.24912100  1
  Li  Li1  1  0.18202300  0.96283700  0.25739000  1
  Li  Li2  1  0.88971800  0.70119000  0.74999900  1
  Li  Li3  1  0.38411100  0.87188400  0.75237400  1
  Li  Li4  1  0.11551300  0.62673200  0.25048800  1
  Li  Li5  1  0.64617300  0.42595200  0.24378700  1
  Li  Li6  1  0.34514200  0.55144400  0.74572200  1
  Li  Li7  1  0.88091200  0.37482500  0.74769800  1
  Li  Li8  1  0.10445400  0.29395700  0.25124600  1
  Li  Li9  1  0.84691600  0.05234000  0.75278900  1
  Li  Li10  1  0.39088200  0.20180900  0.74949700  1
  Ru  Ru0  1  0.77536300  0.92557400  0.00369100  1
  Ru  Ru1  1  0.72023700  0.57427700  0.99783400  1
  Ru  Ru2  1  0.00320600  0.84942700  0.50219900  1
  Ru  Ru3  1  0.50091600  0.66103900  0.49795900  1
  Ru  Ru4  1  0.49857600  0.33838200  0.49991800  1
  Ru  Ru5  1  0.99092000  0.14463400  0.49922000  1
  Ru  Ru6  1  0.27810500  0.42956700  0.99900500  1
  Ru  Ru7  1  0.23254600  0.07787300  0.00071200  1
  O  O0  1  0.83886500  0.96946100  0.36936100  1
  O  O1  1  0.45625400  0.94594600  0.10360000  1
  O  O2  1  0.90350700  0.76555100  0.10973100  1
  O  O3  1  0.70252900  0.84152500  0.61611900  1
  O  O4  1  0.80621300  0.66392900  0.38901100  1
  O  O5  1  0.30190100  0.80366800  0.38405300  1
  O  O6  1  0.95508700  0.44907300  0.11018700  1
  O  O7  1  0.04453700  0.90757400  0.86811800  1
  O  O8  1  0.59140300  0.73269600  0.88743400  1
  O  O9  1  0.45711600  0.59813300  0.13312800  1
  O  O10  1  0.19894100  0.70153400  0.61301000  1
  O  O11  1  0.65350400  0.52390000  0.62681300  1
  O  O12  1  0.34838700  0.47287400  0.37067100  1
  O  O13  1  0.80478200  0.29554400  0.39603900  1
  O  O14  1  0.54270900  0.40495600  0.86444400  1
  O  O15  1  0.40279800  0.27154100  0.10485800  1
  O  O16  1  0.96934700  0.09094600  0.13231900  1
  O  O17  1  0.04081300  0.55263800  0.88621500  1
  O  O18  1  0.69809100  0.19819400  0.61634700  1
  O  O19  1  0.19561600  0.33198600  0.61103300  1
  O  O20  1  0.28909600  0.16112400  0.39388900  1
  O  O21  1  0.09941600  0.23480000  0.89003000  1
  O  O22  1  0.55265700  0.05087800  0.88843100  1
  O  O23  1  0.16524700  0.02513900  0.63451200  1
loop_
_geom_bond_atom_site_label_1
_geom_bond_atom_site_label_2
_geom_bond_distance
_geom_bond_site_symmetry_2
Li0 O0 2.012211 1_555
Li0 O9 2.089594 1_555
Li0 O2 2.115760 1_555
Li0 O5 2.150486 1_555
Li0 O1 2.164759 1_555
Li0 O4 2.192333 1_555
Li1 O16 2.064185 1_465
Li1 O20 2.070857 1_565
Li1 O5 2.091112 1_555
Li1 O0 2.144665 1_455
Li1 O1 2.145567 1_555
Li1 O2 2.436885 1_455
Li2 O7 2.101960 1_655
Li2 O11 2.112092 1_555
Li2 O8 2.120955 1_555
Li2 O17 2.134225 1_655
Li2 O3 2.135341 1_555
Li2 O10 2.165055 1_655
Li3 O10 2.034284 1_555
Li3 O22 2.034353 1_565
Li3 O7 2.157706 1_555
Li3 O8 2.180440 1_555
Li3 O23 2.185653 1_565
Li3 O3 2.192649 1_555
Li4 O6 2.034939 1_455
Li4 O5 2.043636 1_555
Li4 O9 2.171498 1_555
Li4 O4 2.174732 1_455
Li4 O2 2.226988 1_455
Li4 O12 2.238080 1_555
Li5 O12 2.061053 1_555
Li5 O15 2.087066 1_555
Li5 O13 2.154200 1_555
Li5 O6 2.165341 1_555
Li5 O9 2.199366 1_555
Li5 O4 2.434283 1_555
Li6 O11 2.039152 1_555
Li6 O14 2.098003 1_555
Li6 O10 2.111682 1_555
Li6 O17 2.169034 1_555
Li6 O8 2.242078 1_555
Li6 O19 2.250825 1_555
Li7 O18 2.023873 1_555
Li7 O17 2.025452 1_655
Li7 O14 2.154034 1_555
Li7 O19 2.188195 1_655
Li7 O11 2.199087 1_555
Li7 O21 2.259410 1_655
Li8 O16 2.053595 1_455
Li8 O12 2.125910 1_555
Li8 O20 2.146460 1_555
Li8 O15 2.180972 1_555
Li8 O13 2.181121 1_455
Li8 O6 2.206745 1_455
Li9 O7 2.066618 1_645
Li9 O23 2.076968 1_655
Li9 O22 2.097696 1_555
Li9 O18 2.115136 1_555
Li9 O3 2.195965 1_545
Li9 O21 2.243581 1_655
Li10 O23 2.048052 1_555
Li10 O14 2.062907 1_555
Li10 O21 2.116251 1_555
Li10 O19 2.124474 1_555
Li10 O18 2.128442 1_555
Li10 O22 2.186147 1_555
O0 Ru5 1.952048 1_565
O0 Ru2 1.962687 1_655
O1 Ru0 1.970681 1_555
O1 Ru7 1.982431 1_565
O2 Ru0 1.975445 1_555
O2 Ru1 2.028904 1_554
O3 Ru2 1.983534 1_655
O3 Ru3 2.026126 1_555
O4 Ru3 1.967918 1_555
O4 Ru2 2.026238 1_655
O5 Ru2 2.008696 1_555
O5 Ru3 2.047947 1_555
O6 Ru1 2.028959 1_554
O6 Ru6 2.052050 1_654
O7 Ru0 1.992665 1_456
O7 Ru7 2.004691 1_566
O8 Ru1 1.992395 1_555
O8 Ru0 2.057640 1_556
O9 Ru1 1.968145 1_554
O9 Ru6 1.984764 1_554
O10 Ru3 1.997872 1_555
O10 Ru2 2.054868 1_555
O11 Ru4 2.005076 1_555
O11 Ru3 2.014352 1_555
O12 Ru4 1.996528 1_555
O12 Ru3 2.019543 1_555
O13 Ru4 1.953037 1_555
O13 Ru5 2.007883 1_555
O14 Ru6 1.968616 1_555
O14 Ru1 1.982260 1_555
O15 Ru6 1.954939 1_554
O15 Ru7 1.990552 1_555
O16 Ru7 1.942200 1_655
O16 Ru0 1.970337 1_545
O17 Ru6 2.026578 1_555
O17 Ru1 2.044601 1_455
O18 Ru5 1.988538 1_555
O18 Ru4 2.049428 1_555
O19 Ru4 1.974091 1_555
O19 Ru5 2.049588 1_455
O20 Ru5 1.928259 1_455
O20 Ru4 1.977146 1_555
O21 Ru7 1.990591 1_556
O21 Ru6 2.031542 1_555
O22 Ru0 2.013093 1_546
O22 Ru7 2.048481 1_556
O23 Ru2 1.984656 1_545
O23 Ru5 1.997310 1_455
