# generated using pymatgen
data_LiFe2(BO3)2
_symmetry_space_group_name_H-M   'P 1'
_cell_length_a   5.27757800
_cell_length_b   9.05639125
_cell_length_c   11.30593421
_cell_angle_alpha   113.23796815
_cell_angle_beta   101.96134284
_cell_angle_gamma   90.09029899
_symmetry_Int_Tables_number   1
_chemical_formula_structural   LiFe2(BO3)2
_chemical_formula_sum   'Li4 Fe8 B8 O24'
_cell_volume   483.66428345
_cell_formula_units_Z   4
loop_
 _symmetry_equiv_pos_site_id
 _symmetry_equiv_pos_as_xyz
  1  'x, y, z'
loop_
 _atom_site_type_symbol
 _atom_site_label
 _atom_site_symmetry_multiplicity
 _atom_site_fract_x
 _atom_site_fract_y
 _atom_site_fract_z
 _atom_site_occupancy
  Li  Li0  1  0.35021900  0.71677800  0.41192400  1
  Li  Li1  1  0.60373600  0.95649500  0.91659800  1
  Li  Li2  1  0.92511300  0.56742300  0.16030700  1
  Li  Li3  1  0.68247500  0.34164400  0.66008800  1
  Fe  Fe0  1  0.40482500  0.73726400  0.12910000  1
  Fe  Fe1  1  0.09725100  0.76333600  0.87063800  1
  Fe  Fe2  1  0.84150800  0.86058600  0.38362800  1
  Fe  Fe3  1  0.65745500  0.66273700  0.62699700  1
  Fe  Fe4  1  0.35292400  0.34990700  0.37424600  1
  Fe  Fe5  1  0.15788600  0.14378500  0.63524800  1
  Fe  Fe6  1  0.90383300  0.21886400  0.13532900  1
  Fe  Fe7  1  0.59741800  0.28378300  0.88512200  1
  B  B0  1  0.63754000  0.98949600  0.62431200  1
  B  B1  1  0.88489500  0.88106900  0.11890700  1
  B  B2  1  0.15965600  0.47314100  0.62962500  1
  B  B3  1  0.40972300  0.40868100  0.13689800  1
  B  B4  1  0.85882200  0.51915800  0.37607100  1
  B  B5  1  0.60600300  0.61566500  0.87467600  1
  B  B6  1  0.34512200  0.02314600  0.37868200  1
  B  B7  1  0.09143900  0.09507300  0.87520600  1
  O  O0  1  0.11473900  0.84397600  0.07433900  1
  O  O1  1  0.43967900  0.86876600  0.32679200  1
  O  O2  1  0.22315200  0.96317800  0.87838600  1
  O  O3  1  0.50090800  0.85209500  0.60706500  1
  O  O4  1  0.87560400  0.98080700  0.58991800  1
  O  O5  1  0.78703700  0.77331000  0.16431000  1
  O  O6  1  0.28275200  0.54342400  0.13732500  1
  O  O7  1  0.05183000  0.62098800  0.67672900  1
  O  O8  1  0.71344800  0.73312800  0.84119200  1
  O  O9  1  0.61712700  0.53191800  0.41250900  1
  O  O10  1  0.97398500  0.64653500  0.36326700  1
  O  O11  1  0.38874100  0.65694500  0.93017700  1
  O  O12  1  0.64600100  0.38435900  0.09882700  1
  O  O13  1  0.38991800  0.46239700  0.58360000  1
  O  O14  1  0.29579900  0.30316300  0.17701300  1
  O  O15  1  0.97764100  0.37637500  0.35067500  1
  O  O16  1  0.70570500  0.47385900  0.85424500  1
  O  O17  1  0.20416900  0.19798500  0.83191000  1
  O  O18  1  0.13833200  0.03345200  0.43693900  1
  O  O19  1  0.46364500  0.15256900  0.37260900  1
  O  O20  1  0.03842000  0.34249900  0.63425500  1
  O  O21  1  0.75782000  0.00626800  0.11088900  1
  O  O22  1  0.53962700  0.14137600  0.66687700  1
  O  O23  1  0.85817700  0.12183800  0.91503600  1
loop_
_geom_bond_atom_site_label_1
_geom_bond_atom_site_label_2
_geom_bond_distance
_geom_bond_site_symmetry_2
Li0 O10 1.979151 1_455
Li0 O3 2.034196 1_555
Li0 O1 2.067778 1_555
Li0 O9 2.190756 1_555
Li1 O2 1.971284 1_555
Li1 O8 2.000404 1_555
Li1 O23 2.017451 1_565
Li1 O21 2.041269 1_566
Li2 O6 1.958903 1_655
Li2 O5 1.990259 1_555
Li2 O12 2.014983 1_555
Li2 O10 2.074140 1_555
Li3 O20 1.960456 1_655
Li3 O22 1.998324 1_555
Li3 O16 2.020210 1_555
Li3 O13 2.127393 1_555
Fe0 O6 1.911946 1_555
Fe0 O0 1.935208 1_555
Fe0 O5 1.973951 1_555
Fe0 O1 2.043581 1_555
Fe0 O11 2.055267 1_554
Fe1 O2 1.889893 1_555
Fe1 O11 1.958388 1_555
Fe1 O8 1.983784 1_455
Fe1 O7 2.019075 1_555
Fe1 O0 2.104826 1_556
Fe2 O10 2.004634 1_555
Fe2 O18 2.030879 1_665
Fe2 O1 2.094973 1_555
Fe2 O4 2.116377 1_555
Fe2 O5 2.238982 1_555
Fe3 O3 1.976486 1_555
Fe3 O7 2.115715 1_655
Fe3 O13 2.128035 1_555
Fe3 O8 2.200635 1_555
Fe3 O9 2.201743 1_555
Fe4 O19 1.875485 1_555
Fe4 O15 1.970868 1_455
Fe4 O9 2.007111 1_555
Fe4 O14 2.053924 1_555
Fe4 O13 2.140895 1_555
Fe5 O20 1.911257 1_555
Fe5 O4 1.933984 1_445
Fe5 O22 1.973552 1_555
Fe5 O17 2.039021 1_555
Fe5 O18 2.042520 1_555
Fe6 O21 1.965809 1_555
Fe6 O14 2.095518 1_655
Fe6 O12 2.128381 1_555
Fe6 O15 2.231333 1_555
Fe6 O23 2.248772 1_554
Fe7 O16 1.991353 1_555
Fe7 O23 2.089048 1_555
Fe7 O17 2.093201 1_555
Fe7 O12 2.176918 1_556
Fe7 O22 2.240623 1_555
B0 O3 1.361555 1_555
B0 O4 1.383698 1_555
B0 O22 1.404833 1_565
B1 O21 1.342352 1_565
B1 O0 1.399725 1_655
B1 O5 1.409335 1_555
B2 O20 1.368330 1_555
B2 O7 1.401996 1_555
B2 O13 1.406962 1_555
B3 O14 1.390541 1_555
B3 O12 1.391856 1_555
B3 O6 1.391913 1_555
B4 O10 1.373727 1_555
B4 O15 1.389956 1_555
B4 O9 1.410974 1_555
B5 O16 1.340877 1_555
B5 O11 1.400967 1_555
B5 O8 1.414699 1_555
B6 O19 1.359710 1_555
B6 O18 1.372348 1_555
B6 O1 1.422768 1_545
B7 O23 1.386231 1_455
B7 O2 1.391924 1_545
B7 O17 1.393263 1_555
