# generated using pymatgen
data_LiNiBO3
_symmetry_space_group_name_H-M   'P 1'
_cell_length_a   3.12522900
_cell_length_b   14.08339178
_cell_length_c   14.08597910
_cell_angle_alpha   60.07107447
_cell_angle_beta   89.49982426
_cell_angle_gamma   89.30175687
_symmetry_Int_Tables_number   1
_chemical_formula_structural   LiNiBO3
_chemical_formula_sum   'Li9 Ni9 B9 O27'
_cell_volume   537.25824753
_cell_formula_units_Z   9
loop_
 _symmetry_equiv_pos_site_id
 _symmetry_equiv_pos_as_xyz
  1  'x, y, z'
loop_
 _atom_site_type_symbol
 _atom_site_label
 _atom_site_symmetry_multiplicity
 _atom_site_fract_x
 _atom_site_fract_y
 _atom_site_fract_z
 _atom_site_occupancy
  Li  Li0  1  0.49399300  0.09825400  0.12626100  1
  Li  Li1  1  0.51252200  0.10779800  0.43550200  1
  Li  Li2  1  0.44683900  0.45570800  0.10829000  1
  Li  Li3  1  0.47956400  0.12821200  0.77236000  1
  Li  Li4  1  0.54631500  0.43574100  0.45580600  1
  Li  Li5  1  0.49440700  0.44144200  0.75360400  1
  Li  Li6  1  0.52100900  0.77361600  0.09833300  1
  Li  Li7  1  0.52376900  0.80461700  0.44231600  1
  Li  Li8  1  0.48926700  0.75260300  0.80558800  1
  Ni  Ni0  1  0.93962900  0.25017100  0.20161500  1
  Ni  Ni1  1  0.99945600  0.20022600  0.54826000  1
  Ni  Ni2  1  0.00380200  0.21292200  0.90438300  1
  Ni  Ni3  1  0.04917700  0.54787500  0.25035100  1
  Ni  Ni4  1  0.04609700  0.58118000  0.53731600  1
  Ni  Ni5  1  0.95156800  0.53599300  0.88259200  1
  Ni  Ni6  1  0.03236300  0.88146200  0.21331700  1
  Ni  Ni7  1  0.00370400  0.88227500  0.58054800  1
  Ni  Ni8  1  0.96820800  0.90461300  0.88223700  1
  B  B0  1  0.98826900  0.00457800  0.33564300  1
  B  B1  1  0.00080500  0.33305400  0.33317500  1
  B  B2  1  0.99821600  0.33558600  0.65895000  1
  B  B3  1  0.00460800  0.65860200  0.00533600  1
  B  B4  1  0.46509200  0.33091500  0.99244700  1
  B  B5  1  0.54596500  0.67556600  0.33186900  1
  B  B6  1  0.01240100  0.66580200  0.66751600  1
  B  B7  1  0.99383900  0.99970700  0.00004400  1
  B  B8  1  0.48526900  0.99151800  0.67649300  1
  O  O0  1  0.99161300  0.02938500  0.08022000  1
  O  O1  1  0.02161000  0.00827700  0.43206700  1
  O  O2  1  0.89540800  0.09937200  0.23710900  1
  O  O3  1  0.43811000  0.31601700  0.09664200  1
  O  O4  1  0.50082300  0.09543900  0.58675600  1
  O  O5  1  0.00360800  0.22058600  0.39691100  1
  O  O6  1  0.93738400  0.38155700  0.22190300  1
  O  O7  1  0.95503200  0.07933900  0.89072100  1
  O  O8  1  0.96326400  0.55882700  0.00885700  1
  O  O9  1  0.92214600  0.23613700  0.66293400  1
  O  O10  1  0.06151000  0.39655400  0.38098600  1
  O  O11  1  0.10992200  0.66207500  0.09968500  1
  O  O12  1  0.03158600  0.33747500  0.75612000  1
  O  O13  1  0.03640200  0.43197000  0.55925500  1
  O  O14  1  0.50295400  0.24139200  0.97728200  1
  O  O15  1  0.54774600  0.58591500  0.31720700  1
  O  O16  1  0.54859800  0.66071600  0.43664200  1
  O  O17  1  0.45476600  0.43569400  0.90272200  1
  O  O18  1  0.03564200  0.89036900  0.02928400  1
  O  O19  1  0.53755500  0.78011600  0.24185800  1
  O  O20  1  0.94623100  0.56146200  0.68412800  1
  O  O21  1  0.04453500  0.68224100  0.75613200  1
  O  O22  1  0.04536200  0.75355300  0.56165500  1
  O  O23  1  0.03956600  0.90541200  0.33804900  1
  O  O24  1  0.94740200  0.75570500  0.90723300  1
  O  O25  1  0.49406700  0.90145000  0.66173700  1
  O  O26  1  0.46518700  0.97740000  0.78083600  1
loop_
_geom_bond_atom_site_label_1
_geom_bond_atom_site_label_2
_geom_bond_distance
_geom_bond_site_symmetry_2
Li0 O2 2.017732 1_555
Li0 O14 2.060919 1_554
Li0 O0 2.086429 1_555
Li0 O0 2.123427 1_455
Li0 O2 2.431176 1_455
Li1 O4 2.049311 1_555
Li1 O5 2.087426 1_655
Li1 O5 2.107165 1_555
Li1 O1 2.107603 1_555
Li1 O1 2.123703 1_655
Li2 O3 2.054630 1_555
Li2 O8 2.075702 1_455
Li2 O6 2.082819 1_555
Li2 O6 2.124865 1_455
Li2 O8 2.159533 1_555
Li3 O9 2.067723 1_555
Li3 O26 2.067996 1_545
Li3 O7 2.081992 1_555
Li3 O7 2.185259 1_455
Li3 O9 2.316337 1_455
Li4 O15 2.040703 1_555
Li4 O10 2.083163 1_555
Li4 O13 2.105198 1_655
Li4 O10 2.129987 1_655
Li4 O13 2.133082 1_555
Li5 O20 2.047468 1_555
Li5 O12 2.058213 1_555
Li5 O17 2.063957 1_555
Li5 O12 2.202930 1_655
Li5 O20 2.248966 1_455
Li6 O11 2.034080 1_555
Li6 O19 2.069999 1_555
Li6 O18 2.078395 1_555
Li6 O18 2.162809 1_655
Li6 O11 2.399105 1_655
Li7 O16 2.068154 1_555
Li7 O22 2.086721 1_555
Li7 O23 2.090008 1_555
Li7 O23 2.169032 1_655
Li7 O22 2.193889 1_655
Li8 O21 2.034296 1_555
Li8 O24 2.049777 1_555
Li8 O25 2.064491 1_555
Li8 O24 2.222146 1_455
Li8 O21 2.259309 1_655
Ni0 O2 1.930245 1_555
Ni0 O6 2.008196 1_555
Ni0 O3 2.024855 1_655
Ni0 O3 2.034639 1_555
Ni1 O9 1.930990 1_555
Ni1 O5 2.004247 1_655
Ni1 O4 2.021631 1_655
Ni1 O4 2.035463 1_555
Ni2 O12 1.947072 1_555
Ni2 O7 1.992066 1_455
Ni2 O14 2.008164 1_455
Ni2 O14 2.025520 1_555
Ni3 O11 1.929052 1_555
Ni3 O10 2.003830 1_555
Ni3 O15 2.021592 1_455
Ni3 O15 2.037418 1_555
Ni4 O13 1.966117 1_555
Ni4 O20 1.966956 1_455
Ni4 O16 2.023387 1_455
Ni4 O16 2.037374 1_555
Ni5 O8 1.959641 1_556
Ni5 O21 1.960675 1_655
Ni5 O17 2.025530 1_655
Ni5 O17 2.032837 1_555
Ni6 O23 1.947679 1_555
Ni6 O0 1.992853 1_465
Ni6 O19 2.015062 1_455
Ni6 O19 2.018692 1_555
Ni7 O1 1.955350 1_565
Ni7 O22 1.961943 1_555
Ni7 O25 2.019458 1_555
Ni7 O25 2.045358 1_455
Ni8 O24 1.947377 1_555
Ni8 O18 1.991712 1_656
Ni8 O26 2.010557 1_655
Ni8 O26 2.025143 1_555
B0 O23 1.387347 1_645
B0 O1 1.389805 1_655
B0 O2 1.393390 1_555
B1 O5 1.376865 1_555
B1 O6 1.377073 1_455
B1 O10 1.377193 1_555
B2 O12 1.387052 1_655
B2 O13 1.388445 1_655
B2 O9 1.396690 1_555
B3 O24 1.387212 1_454
B3 O8 1.388679 1_455
B3 O11 1.396370 1_555
B4 O3 1.377038 1_556
B4 O14 1.383432 1_555
B4 O17 1.383642 1_555
B5 O15 1.377254 1_555
B5 O19 1.383128 1_555
B5 O16 1.383496 1_555
B6 O21 1.383083 1_555
B6 O20 1.385744 1_455
B6 O22 1.386723 1_555
B7 O7 1.385806 1_564
B7 O0 1.386003 1_565
B7 O18 1.386009 1_655
B8 O4 1.377244 1_565
B8 O26 1.382314 1_555
B8 O25 1.383869 1_555
