# generated using pymatgen
data_Mn12O7F17
_symmetry_space_group_name_H-M   'P 1'
_cell_length_a   4.90878200
_cell_length_b   5.57366967
_cell_length_c   16.11408316
_cell_angle_alpha   96.69044864
_cell_angle_beta   90.31131861
_cell_angle_gamma   93.35674860
_symmetry_Int_Tables_number   1
_chemical_formula_structural   Mn12O7F17
_chemical_formula_sum   'Mn12 O7 F17'
_cell_volume   437.09316569
_cell_formula_units_Z   1
loop_
 _symmetry_equiv_pos_site_id
 _symmetry_equiv_pos_as_xyz
  1  'x, y, z'
loop_
 _atom_site_type_symbol
 _atom_site_label
 _atom_site_symmetry_multiplicity
 _atom_site_fract_x
 _atom_site_fract_y
 _atom_site_fract_z
 _atom_site_occupancy
  Mn  Mn0  1  0.96947400  0.89989600  0.00184500  1
  Mn  Mn1  1  0.50806900  0.17280800  0.16410300  1
  Mn  Mn2  1  0.01548100  0.00889000  0.33162000  1
  Mn  Mn3  1  0.51408300  0.93438000  0.51037600  1
  Mn  Mn4  1  0.95257700  0.93206900  0.66416500  1
  Mn  Mn5  1  0.45825400  0.04547600  0.81564600  1
  Mn  Mn6  1  0.01094200  0.60211400  0.17308300  1
  Mn  Mn7  1  0.52614500  0.41611200  0.00137900  1
  Mn  Mn8  1  0.48239100  0.39346400  0.66604300  1
  Mn  Mn9  1  0.91154900  0.43033400  0.53140300  1
  Mn  Mn10  1  0.52232600  0.53113700  0.32572900  1
  Mn  Mn11  1  0.00617100  0.55965300  0.83799200  1
  O  O0  1  0.73898800  0.16269300  0.60740300  1
  O  O1  1  0.25164200  0.14494000  0.71199600  1
  O  O2  1  0.72432700  0.39472100  0.10568100  1
  O  O3  1  0.32344900  0.43509700  0.22062900  1
  O  O4  1  0.78657000  0.61962700  0.94768500  1
  O  O5  1  0.71245600  0.64729400  0.61998000  1
  O  O6  1  0.82436100  0.70652800  0.27768600  1
  F  F0  1  0.75533400  0.20549300  0.27222400  1
  F  F1  1  0.24622600  0.15995500  0.04945600  1
  F  F2  1  0.25211000  0.31187700  0.37251700  1
  F  F3  1  0.72390700  0.10894600  0.94053100  1
  F  F4  1  0.28445900  0.28703700  0.54486900  1
  F  F5  1  0.29230500  0.35293800  0.89551900  1
  F  F6  1  0.71998600  0.33630400  0.77811300  1
  F  F7  1  0.79599900  0.12347000  0.43960200  1
  F  F8  1  0.20755500  0.65495300  0.06207100  1
  F  F9  1  0.29900200  0.83254700  0.38966500  1
  F  F10  1  0.26843700  0.64202200  0.73605500  1
  F  F11  1  0.70813900  0.61281000  0.43996500  1
  F  F12  1  0.73543600  0.90933500  0.10875000  1
  F  F13  1  0.81090500  0.85663000  0.78158000  1
  F  F14  1  0.17335200  0.77529000  0.56022500  1
  F  F15  1  0.23482200  0.85418100  0.90040200  1
  F  F16  1  0.25277300  0.93897600  0.21400900  1
loop_
_geom_bond_atom_site_label_1
_geom_bond_atom_site_label_2
_geom_bond_distance
_geom_bond_site_symmetry_2
Mn0 O4 1.875525 1_554
Mn1 O3 1.908405 1_555
Mn1 O2 1.916102 1_555
Mn2 O6 1.985023 1_445
Mn3 O0 2.153103 1_565
Mn3 O5 2.729515 1_555
Mn4 O1 1.930694 1_665
Mn4 O5 1.980929 1_555
Mn4 O0 2.002389 1_565
Mn5 O1 2.094947 1_555
Mn6 O6 1.967064 1_455
Mn6 O2 1.998927 1_455
Mn6 O3 2.031615 1_555
Mn7 O4 1.934022 1_554
Mn7 O2 1.956523 1_555
Mn8 O1 1.953064 1_555
Mn8 O5 1.973478 1_555
Mn8 O0 2.013282 1_555
Mn9 O5 2.050880 1_555
Mn9 O0 2.175227 1_555
Mn10 O6 1.942227 1_555
Mn10 O3 1.953826 1_555
Mn11 O4 2.079281 1_455
F0 Mn2 2.035326 1_655
F0 Mn1 2.102166 1_555
F0 Mn10 2.288043 1_555
F1 Mn0 2.008514 1_445
F1 Mn7 2.136871 1_555
F1 Mn1 2.236690 1_555
F2 Mn10 1.963943 1_555
F2 Mn2 2.034220 1_555
F3 Mn0 2.051017 1_546
F3 Mn7 2.156086 1_556
F3 Mn5 2.372132 1_555
F4 Mn9 2.059885 1_455
F4 Mn8 2.179580 1_555
F4 Mn3 2.335533 1_545
F5 Mn7 2.035411 1_556
F5 Mn11 2.140990 1_555
F5 Mn5 2.217618 1_555
F6 Mn11 1.988678 1_655
F6 Mn5 2.153379 1_555
F6 Mn8 2.208561 1_555
F7 Mn2 2.106737 1_655
F7 Mn3 2.110191 1_545
F7 Mn9 2.173265 1_555
F8 Mn6 2.080012 1_555
F8 Mn0 2.157493 1_455
F8 Mn7 2.265266 1_555
F9 Mn2 2.034236 1_565
F9 Mn3 2.206964 1_555
F9 Mn10 2.215881 1_555
F10 Mn8 2.028344 1_555
F10 Mn11 2.166997 1_555
F10 Mn5 2.576715 1_565
F10 Mn4 2.658922 1_455
F11 Mn10 2.040987 1_555
F11 Mn9 2.157441 1_555
F11 Mn3 2.268261 1_555
F12 Mn1 2.023694 1_565
F12 Mn0 2.073086 1_555
F12 Mn6 2.550564 1_655
F13 Mn4 2.098965 1_555
F13 Mn5 2.120133 1_565
F13 Mn11 2.238723 1_655
F14 Mn3 2.058130 1_555
F14 Mn4 2.129072 1_455
F14 Mn9 2.249450 1_455
F15 Mn11 2.086458 1_555
F15 Mn0 2.097282 1_456
F15 Mn5 2.103259 1_565
F16 Mn1 1.994922 1_565
F16 Mn6 2.193468 1_555
F16 Mn2 2.237289 1_565
