# generated using pymatgen
data_LiFeS2
_symmetry_space_group_name_H-M   'P 1'
_cell_length_a   3.41346440
_cell_length_b   3.41346440
_cell_length_c   5.73050200
_cell_angle_alpha   90.00000000
_cell_angle_beta   90.00000000
_cell_angle_gamma   120.00000774
_symmetry_Int_Tables_number   1
_chemical_formula_structural   LiFeS2
_chemical_formula_sum   'Li1 Fe1 S2'
_cell_volume   57.82478434
_cell_formula_units_Z   1
loop_
 _symmetry_equiv_pos_site_id
 _symmetry_equiv_pos_as_xyz
  1  'x, y, z'
loop_
 _atom_site_type_symbol
 _atom_site_label
 _atom_site_symmetry_multiplicity
 _atom_site_fract_x
 _atom_site_fract_y
 _atom_site_fract_z
 _atom_site_occupancy
  Li  Li0  1  0.00000000  0.00000000  0.50000000  1
  Fe  Fe0  1  0.00000000  0.00000000  0.00000000  1
  S  S0  1  0.33333300  0.66666700  0.20874200  1
  S  S1  1  0.66666700  0.33333300  0.79125800  1
loop_
_geom_bond_atom_site_label_1
_geom_bond_atom_site_label_2
_geom_bond_distance
_geom_bond_site_symmetry_2
Li0 S1 2.582566 1_455
Li0 S0 2.582566 1_545
Li0 S1 2.582568 1_445
Li0 S1 2.582568 1_555
Li0 S0 2.582568 1_555
Li0 S0 2.582568 1_445
Fe0 S0 2.305383 1_545
Fe0 S1 2.305383 1_454
Fe0 S0 2.305385 1_445
Fe0 S0 2.305385 1_555
Fe0 S1 2.305385 1_554
Fe0 S1 2.305385 1_444
