# generated using pymatgen
data_LiV4OF11
_symmetry_space_group_name_H-M   'P 1'
_cell_length_a   5.40940100
_cell_length_b   5.64701046
_cell_length_c   16.67548635
_cell_angle_alpha   82.92338610
_cell_angle_beta   81.16071369
_cell_angle_gamma   61.63212859
_symmetry_Int_Tables_number   1
_chemical_formula_structural   LiV4OF11
_chemical_formula_sum   'Li2 V8 O2 F22'
_cell_volume   442.15395227
_cell_formula_units_Z   2
loop_
 _symmetry_equiv_pos_site_id
 _symmetry_equiv_pos_as_xyz
  1  'x, y, z'
loop_
 _atom_site_type_symbol
 _atom_site_label
 _atom_site_symmetry_multiplicity
 _atom_site_fract_x
 _atom_site_fract_y
 _atom_site_fract_z
 _atom_site_occupancy
  Li  Li0  1  0.03712800  0.10090500  0.81804900  1
  Li  Li1  1  0.85842600  0.70306600  0.57522000  1
  V  V0  1  0.50593700  0.49573100  0.49863000  1
  V  V1  1  0.61563200  0.62920300  0.12432100  1
  V  V2  1  0.73769300  0.75744700  0.74762300  1
  V  V3  1  0.24664100  0.25179600  0.24917100  1
  V  V4  1  0.87882600  0.87697200  0.37343700  1
  V  V5  1  0.16084100  0.10442300  0.62602400  1
  V  V6  1  0.39994500  0.36036100  0.88158200  1
  V  V7  1  0.98358000  0.00872300  0.99982100  1
  O  O0  1  0.51939800  0.90855100  0.66088100  1
  O  O1  1  0.74097800  0.17015200  0.91195500  1
  F  F0  1  0.23322900  0.83985400  0.08689000  1
  F  F1  1  0.18741900  0.80048900  0.56388600  1
  F  F2  1  0.70214400  0.31586800  0.06493400  1
  F  F3  1  0.53030900  0.94003100  0.18790400  1
  F  F4  1  0.56495100  0.51186600  0.78482700  1
  F  F5  1  0.03427600  0.04071900  0.28417500  1
  F  F6  1  0.75334600  0.34585200  0.58867200  1
  F  F7  1  0.78380300  0.78651600  0.03718600  1
  F  F8  1  0.72228700  0.72364800  0.47142600  1
  F  F9  1  0.00390200  0.41814600  0.16259700  1
  F  F10  1  0.96090900  0.56055200  0.31516000  1
  F  F11  1  0.04692400  0.45555900  0.67819100  1
  F  F12  1  0.00169400  0.57123300  0.83452500  1
  F  F13  1  0.28394200  0.28776800  0.53173200  1
  F  F14  1  0.48780800  0.08462100  0.33950500  1
  F  F15  1  0.19263900  0.22593700  0.96498900  1
  F  F16  1  0.96544900  0.97818800  0.72326900  1
  F  F17  1  0.26581200  0.67043900  0.40868200  1
  F  F18  1  0.45417900  0.46513600  0.21366900  1
  F  F19  1  0.42594700  0.06137600  0.81554100  1
  F  F20  1  0.27529400  0.70876400  0.93059000  1
  F  F21  1  0.80140700  0.18230800  0.43687400  1
loop_
_geom_bond_atom_site_label_1
_geom_bond_atom_site_label_2
_geom_bond_distance
_geom_bond_site_symmetry_2
Li0 O1 1.988984 1_455
Li1 O0 2.081186 1_555
O0 V5 1.863514 1_565
O0 V2 1.864964 1_555
O1 V6 1.756028 1_555
O1 V7 1.955781 1_555
F0 V7 1.969479 1_464
F0 V1 1.989774 1_555
F1 V0 2.045005 1_555
F1 V5 2.048905 1_565
F1 Li1 2.075318 1_455
F2 V1 1.957796 1_555
F2 V7 1.987908 1_554
F3 V3 1.972851 1_565
F3 V1 1.989078 1_555
F4 V2 2.005623 1_555
F4 V6 2.018617 1_555
F5 V4 1.947515 1_445
F5 V3 2.001201 1_555
F6 V0 1.997507 1_555
F6 V5 2.112486 1_655
F6 Li1 2.319781 1_555
F7 V1 1.942075 1_555
F7 V7 2.004902 1_564
F8 Li1 1.952533 1_555
F8 V4 2.014836 1_555
F8 V0 2.087168 1_555
F9 V3 1.940894 1_555
F9 V1 2.021138 1_455
F10 V4 1.968655 1_555
F10 V3 2.007238 1_655
F11 V5 2.041419 1_555
F11 V2 2.055763 1_455
F11 Li1 2.129341 1_455
F12 V2 2.019582 1_455
F12 V6 2.127513 1_555
F13 V5 1.979889 1_555
F13 V0 2.025481 1_555
F13 Li1 2.469908 1_455
F14 V3 1.986326 1_555
F14 V4 2.004137 1_545
F15 V6 1.958996 1_555
F15 V7 2.015338 1_455
F16 Li0 1.960126 1_665
F16 V5 2.039442 1_665
F16 V2 2.101786 1_555
F17 V0 1.981600 1_555
F17 V4 1.994244 1_455
F18 V1 1.967206 1_555
F18 V3 1.991848 1_555
F19 Li0 2.001119 1_555
F19 V2 2.052757 1_545
F19 V6 2.065920 1_555
F20 V6 1.989852 1_555
F20 V7 2.018423 1_465
F21 V4 1.973446 1_545
F21 V0 2.000691 1_555
