# generated using pymatgen
data_LiMnO2
_symmetry_space_group_name_H-M   'P 1'
_cell_length_a   3.13200081
_cell_length_b   10.17897567
_cell_length_c   4.97416576
_cell_angle_alpha   89.99997614
_cell_angle_beta   89.99564364
_cell_angle_gamma   99.44101897
_symmetry_Int_Tables_number   1
_chemical_formula_structural   LiMnO2
_chemical_formula_sum   'Li4 Mn4 O8'
_cell_volume   156.43123147
_cell_formula_units_Z   4
loop_
 _symmetry_equiv_pos_site_id
 _symmetry_equiv_pos_as_xyz
  1  'x, y, z'
loop_
 _atom_site_type_symbol
 _atom_site_label
 _atom_site_symmetry_multiplicity
 _atom_site_fract_x
 _atom_site_fract_y
 _atom_site_fract_z
 _atom_site_occupancy
  Li  Li0  1  0.61666400  0.24215800  0.15297100  1
  Li  Li1  1  0.11669800  0.24217500  0.65307900  1
  Li  Li2  1  0.11663100  0.74217600  0.34692500  1
  Li  Li3  1  0.61663000  0.74214700  0.84701700  1
  Mn  Mn0  1  0.95924000  0.49909000  0.70512800  1
  Mn  Mn1  1  0.95892200  0.99894800  0.29488500  1
  Mn  Mn2  1  0.45906000  0.49902600  0.20530100  1
  Mn  Mn3  1  0.45894300  0.99893900  0.79473100  1
  O  O0  1  0.46743400  0.88670500  0.11302600  1
  O  O1  1  0.96734300  0.88668300  0.61303100  1
  O  O2  1  0.96748800  0.38681300  0.38696100  1
  O  O3  1  0.46755100  0.38683200  0.88696600  1
  O  O4  1  0.95672300  0.11306700  0.97728200  1
  O  O5  1  0.45673600  0.11308500  0.47727200  1
  O  O6  1  0.45688900  0.61321200  0.52271800  1
  O  O7  1  0.95685000  0.61318800  0.02270400  1
loop_
_geom_bond_atom_site_label_1
_geom_bond_atom_site_label_2
_geom_bond_distance
_geom_bond_site_symmetry_2
Li0 O4 2.020816 1_554
Li0 O2 2.049268 1_555
Li0 O5 2.088829 1_555
Li0 O3 2.088830 1_554
Li0 O4 2.423185 1_454
Li1 O5 2.021021 1_555
Li1 O3 2.049027 1_555
Li1 O4 2.088682 1_455
Li1 O2 2.089018 1_455
Li1 O5 2.423443 1_455
Li2 O6 2.020553 1_555
Li2 O0 2.048079 1_555
Li2 O7 2.088008 1_455
Li2 O1 2.088030 1_455
Li2 O6 2.422262 1_455
Li3 O7 2.020212 1_556
Li3 O1 2.048252 1_555
Li3 O6 2.087973 1_555
Li3 O0 2.088011 1_556
Li3 O7 2.422142 1_456
Mn0 O2 1.954779 1_555
Mn0 O7 1.961411 1_556
Mn0 O3 1.979346 1_555
Mn0 O6 2.001956 1_655
Mn0 O6 2.290845 1_555
Mn0 O3 2.292463 1_655
Mn1 O1 1.954684 1_555
Mn1 O4 1.961586 1_564
Mn1 O0 1.979003 1_555
Mn1 O5 2.002434 1_665
Mn1 O5 2.290402 1_565
Mn1 O0 2.292805 1_655
Mn2 O3 1.955043 1_554
Mn2 O6 1.961237 1_555
Mn2 O2 1.978486 1_455
Mn2 O7 2.002863 1_555
Mn2 O7 2.291126 1_455
Mn2 O2 2.292118 1_555
Mn3 O0 1.955123 1_556
Mn3 O5 1.961175 1_565
Mn3 O1 1.978941 1_455
Mn3 O4 2.002689 1_565
Mn3 O4 2.290750 1_465
Mn3 O1 2.292301 1_555
