# generated using pymatgen
data_Na5Mn11O24
_symmetry_space_group_name_H-M   'P 1'
_cell_length_a   6.13623232
_cell_length_b   6.13623232
_cell_length_c   14.84363468
_cell_angle_alpha   87.19077148
_cell_angle_beta   87.19077148
_cell_angle_gamma   58.56712308
_symmetry_Int_Tables_number   1
_chemical_formula_structural   Na5Mn11O24
_chemical_formula_sum   'Na5 Mn11 O24'
_cell_volume   476.13958016
_cell_formula_units_Z   1
loop_
 _symmetry_equiv_pos_site_id
 _symmetry_equiv_pos_as_xyz
  1  'x, y, z'
loop_
 _atom_site_type_symbol
 _atom_site_label
 _atom_site_symmetry_multiplicity
 _atom_site_fract_x
 _atom_site_fract_y
 _atom_site_fract_z
 _atom_site_occupancy
  Na  Na0  1  0.34955300  0.34955300  0.69837300  1
  Na  Na1  1  0.00361900  0.00361900  0.62380000  1
  Na  Na2  1  0.99654600  0.99654600  0.37650100  1
  Na  Na3  1  0.64908900  0.64908900  0.30394500  1
  Na  Na4  1  0.67358700  0.67358700  0.04324400  1
  Mn  Mn0  1  0.83662000  0.83662000  0.83864700  1
  Mn  Mn1  1  0.99995200  0.99995200  0.99822200  1
  Mn  Mn2  1  0.83789800  0.33874400  0.83616500  1
  Mn  Mn3  1  0.33874400  0.83789800  0.83616500  1
  Mn  Mn4  1  0.68197300  0.68197300  0.66795500  1
  Mn  Mn5  1  0.31751100  0.31751100  0.33308000  1
  Mn  Mn6  1  0.50016900  0.00025200  0.50053300  1
  Mn  Mn7  1  0.00025200  0.50016900  0.50053300  1
  Mn  Mn8  1  0.16288700  0.65808800  0.16351700  1
  Mn  Mn9  1  0.65808800  0.16288700  0.16351700  1
  Mn  Mn10  1  0.16369900  0.16369900  0.16067300  1
  O  O0  1  0.14465600  0.71851600  0.91486300  1
  O  O1  1  0.71851600  0.14465600  0.91486300  1
  O  O2  1  0.14156300  0.14156300  0.91162000  1
  O  O3  1  0.00711800  0.00711800  0.77266400  1
  O  O4  1  0.81937200  0.81937200  0.57230600  1
  O  O5  1  0.32270900  0.32270900  0.55521100  1
  O  O6  1  0.66400000  0.66400000  0.90092200  1
  O  O7  1  0.53727600  0.53727600  0.76034000  1
  O  O8  1  0.53516900  0.96210400  0.76396200  1
  O  O9  1  0.14555800  0.59912300  0.40055300  1
  O  O10  1  0.59912300  0.14555800  0.40055300  1
  O  O11  1  0.96210400  0.53516900  0.76396200  1
  O  O12  1  0.03526700  0.46497300  0.23447000  1
  O  O13  1  0.46497300  0.03526700  0.23447000  1
  O  O14  1  0.40071400  0.85459000  0.59927600  1
  O  O15  1  0.85459000  0.40071400  0.59927600  1
  O  O16  1  0.46230600  0.46230600  0.23874900  1
  O  O17  1  0.33542000  0.33542000  0.09555700  1
  O  O18  1  0.67794400  0.67794400  0.44571700  1
  O  O19  1  0.99248900  0.99248900  0.22750000  1
  O  O20  1  0.18097600  0.18097600  0.42816300  1
  O  O21  1  0.86009000  0.86009000  0.08906100  1
  O  O22  1  0.85593700  0.27862800  0.08636800  1
  O  O23  1  0.27862800  0.85593700  0.08636800  1
loop_
_geom_bond_atom_site_label_1
_geom_bond_atom_site_label_2
_geom_bond_distance
_geom_bond_site_symmetry_2
Na0 O5 2.160325 1_555
Na0 O8 2.225983 1_545
Na0 O11 2.225983 1_455
Na0 O7 2.256443 1_555
Na1 O15 2.127845 1_455
Na1 O14 2.127845 1_545
Na1 O4 2.154825 1_445
Na1 O3 2.212104 1_555
Na2 O9 2.128758 1_655
Na2 O10 2.128758 1_565
Na2 O20 2.157670 1_665
Na2 O19 2.214581 1_555
Na3 O18 2.144061 1_555
Na3 O13 2.244462 1_565
Na3 O12 2.244462 1_655
Na3 O16 2.269669 1_555
Na4 O6 2.120819 1_554
Na4 O21 2.144890 1_555
Na4 O23 2.150613 1_555
Na4 O22 2.150613 1_555
Mn0 O11 1.968582 1_555
Mn0 O8 1.968582 1_555
Mn0 O6 2.019091 1_555
Mn0 O1 2.019501 1_565
Mn0 O0 2.019501 1_655
Mn0 O3 2.022167 1_665
Mn1 O2 1.931638 1_665
Mn1 O1 1.950448 1_565
Mn1 O0 1.950448 1_655
Mn1 O21 1.957701 1_556
Mn1 O22 1.986675 1_566
Mn1 O23 1.986675 1_656
Mn2 O7 1.969513 1_555
Mn2 O2 1.977565 1_655
Mn2 O6 1.977936 1_555
Mn2 O11 1.983370 1_555
Mn2 O3 1.998960 1_655
Mn2 O1 2.002340 1_555
Mn3 O7 1.969513 1_555
Mn3 O2 1.977565 1_565
Mn3 O6 1.977936 1_555
Mn3 O8 1.983370 1_555
Mn3 O3 1.998960 1_565
Mn3 O0 2.002340 1_555
Mn4 O15 1.816530 1_555
Mn4 O14 1.816530 1_555
Mn4 O4 1.985996 1_555
Mn4 O7 2.010177 1_555
Mn4 O11 2.072773 1_555
Mn4 O8 2.072773 1_555
Mn5 O10 1.807446 1_555
Mn5 O9 1.807446 1_555
Mn5 O20 1.973863 1_555
Mn5 O16 2.029514 1_555
Mn5 O12 2.108304 1_555
Mn5 O13 2.108304 1_555
Mn6 O5 1.892918 1_555
Mn6 O18 1.893163 1_545
Mn6 O14 1.916371 1_545
Mn6 O10 1.926864 1_555
Mn6 O4 2.006144 1_545
Mn6 O20 2.010987 1_555
Mn7 O5 1.892918 1_555
Mn7 O18 1.893163 1_455
Mn7 O15 1.916371 1_455
Mn7 O9 1.926864 1_555
Mn7 O4 2.006144 1_455
Mn7 O20 2.010987 1_555
Mn8 O16 1.957920 1_555
Mn8 O21 1.968520 1_455
Mn8 O12 1.972666 1_555
Mn8 O17 1.990856 1_555
Mn8 O23 1.993249 1_555
Mn8 O19 2.015375 1_455
Mn9 O16 1.957920 1_555
Mn9 O21 1.968520 1_545
Mn9 O13 1.972666 1_555
Mn9 O17 1.990856 1_555
Mn9 O22 1.993249 1_555
Mn9 O19 2.015375 1_545
Mn10 O13 1.957797 1_555
Mn10 O12 1.957797 1_555
Mn10 O23 2.004775 1_545
Mn10 O22 2.004775 1_455
Mn10 O17 2.028124 1_555
Mn10 O19 2.034285 1_445
