# generated using pymatgen
data_NbV3Cu2(PO4)6
_symmetry_space_group_name_H-M   'P 1'
_cell_length_a   8.70696707
_cell_length_b   8.70696707
_cell_length_c   8.70696649
_cell_angle_alpha   59.92084440
_cell_angle_beta   59.92084440
_cell_angle_gamma   59.92084698
_symmetry_Int_Tables_number   1
_chemical_formula_structural   NbV3Cu2(PO4)6
_chemical_formula_sum   'Nb1 V3 Cu2 P6 O24'
_cell_volume   465.91338839
_cell_formula_units_Z   1
loop_
 _symmetry_equiv_pos_site_id
 _symmetry_equiv_pos_as_xyz
  1  'x, y, z'
loop_
 _atom_site_type_symbol
 _atom_site_label
 _atom_site_symmetry_multiplicity
 _atom_site_fract_x
 _atom_site_fract_y
 _atom_site_fract_z
 _atom_site_occupancy
  Nb  Nb0  1  0.14072800  0.14072800  0.14072800  1
  V  V0  1  0.64185500  0.64185500  0.64185500  1
  V  V1  1  0.85714900  0.85714900  0.85714900  1
  V  V2  1  0.35738700  0.35738700  0.35738700  1
  Cu  Cu0  1  0.99708800  0.99708800  0.99708800  1
  Cu  Cu1  1  0.50005900  0.50005900  0.50005900  1
  P  P0  1  0.95866900  0.54568700  0.25169700  1
  P  P1  1  0.54568700  0.25169700  0.95866900  1
  P  P2  1  0.25169700  0.95866900  0.54568700  1
  P  P3  1  0.74184600  0.03861700  0.46737000  1
  P  P4  1  0.46737000  0.74184600  0.03861700  1
  P  P5  1  0.03861700  0.46737000  0.74184600  1
  O  O0  1  0.50402100  0.30273900  0.12354200  1
  O  O1  1  0.30273900  0.12354200  0.50402100  1
  O  O2  1  0.12354200  0.50402100  0.30273900  1
  O  O3  1  0.93999800  0.73182100  0.08295000  1
  O  O4  1  0.99998500  0.37817200  0.19780600  1
  O  O5  1  0.76904000  0.55919100  0.41703800  1
  O  O6  1  0.73182100  0.08295000  0.93999800  1
  O  O7  1  0.55919100  0.41703800  0.76904000  1
  O  O8  1  0.80142400  0.00272300  0.62445100  1
  O  O9  1  0.41703800  0.76904000  0.55919100  1
  O  O10  1  0.91120500  0.05924900  0.27463000  1
  O  O11  1  0.62445100  0.80142400  0.00272300  1
  O  O12  1  0.37817200  0.19780600  0.99998500  1
  O  O13  1  0.08295000  0.93999800  0.73182100  1
  O  O14  1  0.58039100  0.23071800  0.44196400  1
  O  O15  1  0.19780600  0.99998500  0.37817200  1
  O  O16  1  0.44196400  0.58039100  0.23071800  1
  O  O17  1  0.27463000  0.91120500  0.05924900  1
  O  O18  1  0.23071800  0.44196400  0.58039100  1
  O  O19  1  0.00272300  0.62445100  0.80142400  1
  O  O20  1  0.05924900  0.27463000  0.91120500  1
  O  O21  1  0.87580700  0.49914900  0.69380700  1
  O  O22  1  0.69380700  0.87580700  0.49914900  1
  O  O23  1  0.49914900  0.69380700  0.87580700  1
loop_
_geom_bond_atom_site_label_1
_geom_bond_atom_site_label_2
_geom_bond_distance
_geom_bond_site_symmetry_2
Nb0 O15 1.975548 1_545
Nb0 O12 1.975548 1_554
Nb0 O4 1.975548 1_455
Nb0 O20 2.028032 1_554
Nb0 O10 2.028032 1_455
Nb0 O17 2.028032 1_545
Cu0 O13 2.277734 1_655
Cu0 O3 2.277734 1_556
Cu0 O6 2.277734 1_565
Cu0 O10 2.405369 1_566
Cu0 O20 2.405370 1_665
Cu0 O17 2.405370 1_656
Cu1 O7 2.326209 1_555
Cu1 O5 2.326209 1_555
Cu1 O9 2.326209 1_555
Cu1 O16 2.331308 1_555
Cu1 O18 2.331308 1_555
Cu1 O14 2.331308 1_555
O0 P1 1.531590 1_554
O0 V2 1.938685 1_555
O1 P2 1.531590 1_545
O1 V2 1.938686 1_555
O2 P0 1.531590 1_455
O2 V2 1.938686 1_555
O3 P0 1.549251 1_555
O3 V1 2.014572 1_554
O4 P0 1.570930 1_555
O5 P0 1.550768 1_555
O5 V0 2.004121 1_555
O6 P1 1.549251 1_555
O6 V1 2.014572 1_545
O7 P1 1.550768 1_555
O7 V0 2.004121 1_555
O8 P3 1.535440 1_555
O8 V1 1.934362 1_545
O9 P2 1.550768 1_555
O9 V0 2.004121 1_555
O10 P3 1.582968 1_555
O11 P4 1.535440 1_555
O11 V1 1.934362 1_554
O12 P1 1.570930 1_555
O13 P2 1.549251 1_555
O13 V1 2.014572 1_455
O14 P3 1.551348 1_555
O14 V2 2.000350 1_555
O15 P2 1.570930 1_555
O16 P4 1.551348 1_555
O16 V2 2.000349 1_555
O17 P4 1.582968 1_555
O18 P5 1.551348 1_555
O18 V2 2.000349 1_555
O19 P5 1.535440 1_555
O19 V1 1.934362 1_455
O20 P5 1.582968 1_555
O21 P5 1.531736 1_655
O21 V0 1.929003 1_555
O22 P3 1.531736 1_565
O22 V0 1.929003 1_555
O23 P4 1.531735 1_556
O23 V0 1.929003 1_555
