# generated using pymatgen
data_LiSi2(BiO3)3
_symmetry_space_group_name_H-M   'P 1'
_cell_length_a   10.72627100
_cell_length_b   7.64721900
_cell_length_c   10.72527435
_cell_angle_alpha   89.56272128
_cell_angle_beta   90.00000000
_cell_angle_gamma   90.00000000
_symmetry_Int_Tables_number   1
_chemical_formula_structural   LiSi2(BiO3)3
_chemical_formula_sum   'Li4 Si8 Bi12 O36'
_cell_volume   879.72727087
_cell_formula_units_Z   4
loop_
 _symmetry_equiv_pos_site_id
 _symmetry_equiv_pos_as_xyz
  1  'x, y, z'
loop_
 _atom_site_type_symbol
 _atom_site_label
 _atom_site_symmetry_multiplicity
 _atom_site_fract_x
 _atom_site_fract_y
 _atom_site_fract_z
 _atom_site_occupancy
  Li  Li0  1  0.46027900  0.12597700  0.64567900  1
  Li  Li1  1  0.03972100  0.12597700  0.14567900  1
  Li  Li2  1  0.96027900  0.87402300  0.85432100  1
  Li  Li3  1  0.53972100  0.87402300  0.35432100  1
  Si  Si0  1  0.12775200  0.17517500  0.69570000  1
  Si  Si1  1  0.37224800  0.17517500  0.19570000  1
  Si  Si2  1  0.62780800  0.39546500  0.81044300  1
  Si  Si3  1  0.87219200  0.39546500  0.31044300  1
  Si  Si4  1  0.12780800  0.60453500  0.68955700  1
  Si  Si5  1  0.37219200  0.60453500  0.18955700  1
  Si  Si6  1  0.62775200  0.82482500  0.80430000  1
  Si  Si7  1  0.87224800  0.82482500  0.30430000  1
  Bi  Bi0  1  0.80235100  0.11864800  0.59072000  1
  Bi  Bi1  1  0.69764900  0.11864800  0.09072000  1
  Bi  Bi2  1  0.93588600  0.33524500  0.89787500  1
  Bi  Bi3  1  0.29943400  0.36561700  0.90930100  1
  Bi  Bi4  1  0.56411400  0.33524500  0.39787500  1
  Bi  Bi5  1  0.20056600  0.36561700  0.40930100  1
  Bi  Bi6  1  0.79943400  0.63438300  0.59069900  1
  Bi  Bi7  1  0.43588600  0.66475500  0.60212500  1
  Bi  Bi8  1  0.70056600  0.63438300  0.09069900  1
  Bi  Bi9  1  0.06411400  0.66475500  0.10212500  1
  Bi  Bi10  1  0.30235100  0.88135200  0.90928000  1
  Bi  Bi11  1  0.19764900  0.88135200  0.40928000  1
  O  O0  1  0.99675000  0.11060000  0.75940600  1
  O  O1  1  0.50325000  0.11060000  0.25940600  1
  O  O2  1  0.61565700  0.12316800  0.51996600  1
  O  O3  1  0.25126100  0.10475000  0.77200000  1
  O  O4  1  0.88434300  0.12316800  0.01996600  1
  O  O5  1  0.24873900  0.10475000  0.27200000  1
  O  O6  1  0.13495200  0.14979200  0.54409600  1
  O  O7  1  0.36504800  0.14979200  0.04409600  1
  O  O8  1  0.49580800  0.31361100  0.77370700  1
  O  O9  1  0.00419200  0.31361100  0.27370700  1
  O  O10  1  0.38646300  0.35769700  0.49792700  1
  O  O11  1  0.74870900  0.32875600  0.72667400  1
  O  O12  1  0.11353700  0.35769700  0.99792700  1
  O  O13  1  0.75129100  0.32875600  0.22667400  1
  O  O14  1  0.66502300  0.38473700  0.96019300  1
  O  O15  1  0.13073000  0.38950900  0.72371600  1
  O  O16  1  0.83497700  0.38473700  0.46019300  1
  O  O17  1  0.36927000  0.38950900  0.22371600  1
  O  O18  1  0.63073000  0.61049100  0.77628400  1
  O  O19  1  0.16502300  0.61526300  0.53980700  1
  O  O20  1  0.86927000  0.61049100  0.27628400  1
  O  O21  1  0.33497700  0.61526300  0.03980700  1
  O  O22  1  0.24870900  0.67124400  0.77332600  1
  O  O23  1  0.88646300  0.64230300  0.00207300  1
  O  O24  1  0.25129100  0.67124400  0.27332600  1
  O  O25  1  0.61353700  0.64230300  0.50207300  1
  O  O26  1  0.99580800  0.68638900  0.72629300  1
  O  O27  1  0.50419200  0.68638900  0.22629300  1
  O  O28  1  0.63495200  0.85020800  0.95590400  1
  O  O29  1  0.86504800  0.85020800  0.45590400  1
  O  O30  1  0.75126100  0.89525000  0.72800000  1
  O  O31  1  0.11565700  0.87683200  0.98003400  1
  O  O32  1  0.74873900  0.89525000  0.22800000  1
  O  O33  1  0.38434300  0.87683200  0.48003400  1
  O  O34  1  0.49675000  0.88940000  0.74059400  1
  O  O35  1  0.00325000  0.88940000  0.24059400  1
loop_
_geom_bond_atom_site_label_1
_geom_bond_atom_site_label_2
_geom_bond_distance
_geom_bond_site_symmetry_2
Li0 O8 2.029700 1_555
Li0 O34 2.105771 1_545
Li0 O2 2.143940 1_555
Li0 O10 2.497055 1_555
Li0 O3 2.623936 1_555
Li1 O9 2.029700 1_555
Li1 O35 2.105771 1_545
Li1 O4 2.143940 1_455
Li1 O12 2.497055 1_554
Li1 O5 2.623936 1_555
Li2 O26 2.029700 1_555
Li2 O0 2.105771 1_565
Li2 O31 2.143940 1_655
Li2 O23 2.497055 1_556
Li2 O30 2.623936 1_555
Li3 O27 2.029700 1_555
Li3 O1 2.105771 1_565
Li3 O33 2.143940 1_555
Li3 O25 2.497055 1_555
Li3 O32 2.623936 1_555
Bi0 O2 2.141678 1_555
Bi0 O11 2.252693 1_555
Bi0 O30 2.312643 1_545
Bi0 O16 2.485838 1_555
Bi0 O29 2.608136 1_545
Bi0 O0 2.761026 1_555
Bi1 O4 2.141678 1_555
Bi1 O13 2.252693 1_555
Bi1 O32 2.312643 1_545
Bi1 O14 2.485838 1_554
Bi1 O28 2.608136 1_544
Bi1 O1 2.761026 1_555
Bi2 O4 2.148991 1_556
Bi2 O12 2.194279 1_655
Bi2 O0 2.371062 1_555
Bi2 O23 2.661535 1_556
Bi2 O11 2.721453 1_555
Bi3 O12 2.209587 1_555
Bi3 O7 2.296304 1_556
Bi3 O21 2.406239 1_556
Bi3 O3 2.541656 1_555
Bi3 O8 2.592043 1_555
Bi3 O15 2.695227 1_555
Bi3 O22 2.798810 1_555
Bi4 O2 2.148991 1_555
Bi4 O10 2.194279 1_555
Bi4 O1 2.371062 1_555
Bi4 O25 2.661535 1_555
Bi4 O13 2.721453 1_555
Bi5 O10 2.209587 1_555
Bi5 O6 2.296304 1_555
Bi5 O19 2.406239 1_555
Bi5 O5 2.541656 1_555
Bi5 O9 2.592043 1_555
Bi5 O17 2.695227 1_555
Bi5 O24 2.798810 1_555
Bi6 O25 2.209587 1_555
Bi6 O29 2.296304 1_555
Bi6 O16 2.406239 1_555
Bi6 O30 2.541656 1_555
Bi6 O26 2.592043 1_555
Bi6 O18 2.695227 1_555
Bi6 O11 2.798810 1_555
Bi7 O33 2.148991 1_555
Bi7 O25 2.194279 1_555
Bi7 O34 2.371062 1_555
Bi7 O10 2.661535 1_555
Bi7 O22 2.721453 1_555
Bi8 O23 2.209587 1_555
Bi8 O28 2.296304 1_554
Bi8 O14 2.406239 1_554
Bi8 O32 2.541656 1_555
Bi8 O27 2.592043 1_555
Bi8 O20 2.695227 1_555
Bi8 O13 2.798810 1_555
Bi9 O31 2.148991 1_554
Bi9 O23 2.194279 1_455
Bi9 O35 2.371062 1_555
Bi9 O12 2.661535 1_554
Bi9 O24 2.721453 1_555
Bi10 O31 2.141678 1_555
Bi10 O22 2.252693 1_555
Bi10 O3 2.312643 1_565
Bi10 O21 2.485838 1_556
Bi10 O7 2.608136 1_566
Bi10 O34 2.761026 1_555
Bi11 O33 2.141678 1_555
Bi11 O24 2.252693 1_555
Bi11 O5 2.312643 1_565
Bi11 O19 2.485838 1_555
Bi11 O6 2.608136 1_565
Bi11 O35 2.761026 1_555
O0 Si0 1.637083 1_655
O1 Si1 1.637083 1_555
O3 Si0 1.645620 1_555
O5 Si1 1.645620 1_555
O6 Si0 1.640829 1_555
O7 Si1 1.640829 1_555
O8 Si2 1.598595 1_555
O9 Si3 1.598595 1_455
O11 Si2 1.660173 1_555
O13 Si3 1.660173 1_555
O14 Si2 1.656397 1_555
O15 Si0 1.668934 1_555
O15 Si4 1.682231 1_555
O16 Si3 1.656397 1_555
O17 Si1 1.668934 1_555
O17 Si5 1.682231 1_555
O18 Si6 1.668934 1_555
O18 Si2 1.682231 1_555
O19 Si4 1.656397 1_555
O20 Si7 1.668934 1_555
O20 Si3 1.682231 1_555
O21 Si5 1.656397 1_555
O22 Si4 1.660173 1_555
O24 Si5 1.660173 1_555
O26 Si4 1.598595 1_655
O27 Si5 1.598595 1_555
O28 Si6 1.640829 1_555
O29 Si7 1.640829 1_555
O30 Si6 1.645620 1_555
O32 Si7 1.645620 1_555
O34 Si6 1.637083 1_555
O35 Si7 1.637083 1_455
