# generated using pymatgen
data_Li32Mn3Cr13O48
_symmetry_space_group_name_H-M   'P 1'
_cell_length_a   5.03853100
_cell_length_b   8.69274284
_cell_length_c   19.49329792
_cell_angle_alpha   98.08293892
_cell_angle_beta   95.04290775
_cell_angle_gamma   89.69789004
_symmetry_Int_Tables_number   1
_chemical_formula_structural   Li32Mn3Cr13O48
_chemical_formula_sum   'Li32 Mn3 Cr13 O48'
_cell_volume   842.00463414
_cell_formula_units_Z   1
loop_
 _symmetry_equiv_pos_site_id
 _symmetry_equiv_pos_as_xyz
  1  'x, y, z'
loop_
 _atom_site_type_symbol
 _atom_site_label
 _atom_site_symmetry_multiplicity
 _atom_site_fract_x
 _atom_site_fract_y
 _atom_site_fract_z
 _atom_site_occupancy
  Li  Li0  1  0.98934000  0.16916300  0.25000100  1
  Li  Li1  1  0.87489500  0.37547800  0.37514400  1
  Li  Li2  1  0.75108100  0.25058800  0.00009200  1
  Li  Li3  1  0.74333300  0.92012600  0.99966700  1
  Li  Li4  1  0.99347400  0.16943400  0.74891100  1
  Li  Li5  1  0.75759300  0.58044300  0.49999500  1
  Li  Li6  1  0.87379300  0.37636000  0.87522800  1
  Li  Li7  1  0.75167300  0.24951500  0.50018000  1
  Li  Li8  1  0.74239000  0.92069600  0.49921500  1
  Li  Li9  1  0.62661700  0.12550300  0.12467600  1
  Li  Li10  1  0.75788100  0.57887000  0.99937100  1
  Li  Li11  1  0.51132500  0.33151300  0.25042400  1
  Li  Li12  1  0.62473900  0.12665200  0.62519500  1
  Li  Li13  1  0.50187500  0.00057800  0.25059700  1
  Li  Li14  1  0.48986700  0.66869500  0.24954500  1
  Li  Li15  1  0.50692000  0.33056700  0.74934900  1
  Li  Li16  1  0.37358300  0.87433800  0.37498700  1
  Li  Li17  1  0.50016000  0.00016100  0.75001300  1
  Li  Li18  1  0.24840900  0.75012400  0.99929500  1
  Li  Li19  1  0.49335300  0.66923200  0.75052300  1
  Li  Li20  1  0.24089300  0.41892800  0.99975200  1
  Li  Li21  1  0.37576800  0.87435600  0.87474200  1
  Li  Li22  1  0.25467900  0.08011300  0.50025400  1
  Li  Li23  1  0.25220100  0.74844000  0.49997200  1
  Li  Li24  1  0.12279400  0.62392600  0.12519800  1
  Li  Li25  1  0.24366800  0.42181900  0.50095300  1
  Li  Li26  1  0.00785100  0.83091300  0.25060400  1
  Li  Li27  1  0.25814100  0.07934200  0.00037800  1
  Li  Li28  1  0.12711200  0.62313200  0.62475900  1
  Li  Li29  1  0.99912900  0.50088400  0.24974300  1
  Li  Li30  1  0.00611300  0.83076000  0.75113200  1
  Li  Li31  1  0.00013500  0.49929200  0.74995500  1
  Mn  Mn0  1  0.87475300  0.04171100  0.37472900  1
  Mn  Mn1  1  0.87182300  0.70896600  0.87393700  1
  Mn  Mn2  1  0.12838100  0.29071400  0.62596200  1
  Cr  Cr0  1  0.87338800  0.71195200  0.37549300  1
  Cr  Cr1  1  0.88035100  0.04559600  0.87534600  1
  Cr  Cr2  1  0.62802300  0.79686900  0.12599700  1
  Cr  Cr3  1  0.62004700  0.46111200  0.12546800  1
  Cr  Cr4  1  0.62163500  0.79612400  0.62387800  1
  Cr  Cr5  1  0.62998200  0.45890100  0.62525500  1
  Cr  Cr6  1  0.38125500  0.53933000  0.37546800  1
  Cr  Cr7  1  0.36736000  0.20632000  0.37462900  1
  Cr  Cr8  1  0.37038900  0.54163100  0.87460300  1
  Cr  Cr9  1  0.37936400  0.20507900  0.87609200  1
  Cr  Cr10  1  0.12244600  0.95262800  0.12408300  1
  Cr  Cr11  1  0.12973300  0.28852900  0.12455900  1
  Cr  Cr12  1  0.12075900  0.95396000  0.62463800  1
  O  O0  1  0.96365500  0.10192200  0.06852200  1
  O  O1  1  0.93618200  0.78698300  0.06881500  1
  O  O2  1  0.92623300  0.42702800  0.06817800  1
  O  O3  1  0.96601500  0.10786700  0.56961400  1
  O  O4  1  0.81373700  0.96288300  0.18121600  1
  O  O5  1  0.82397100  0.32335100  0.18193700  1
  O  O6  1  0.93454600  0.78878900  0.56837800  1
  O  O7  1  0.92657800  0.42651100  0.56829300  1
  O  O8  1  0.78621400  0.64792000  0.18163400  1
  O  O9  1  0.71357000  0.85800300  0.31920800  1
  O  O10  1  0.81496700  0.95949100  0.68140600  1
  O  O11  1  0.82731900  0.32005200  0.68251800  1
  O  O12  1  0.66924800  0.53593500  0.31894000  1
  O  O13  1  0.67991600  0.17807300  0.31791200  1
  O  O14  1  0.77915900  0.64062300  0.68019400  1
  O  O15  1  0.71131900  0.85603500  0.81906600  1
  O  O16  1  0.46873200  0.60580000  0.06960000  1
  O  O17  1  0.58255900  0.71565900  0.43128100  1
  O  O18  1  0.57435600  0.07392800  0.43152600  1
  O  O19  1  0.68079900  0.53538000  0.81899500  1
  O  O20  1  0.68226100  0.17304300  0.81783300  1
  O  O21  1  0.43344500  0.92283700  0.06729800  1
  O  O22  1  0.41827900  0.28387500  0.06887900  1
  O  O23  1  0.53291800  0.39524800  0.43136800  1
  O  O24  1  0.46500300  0.60961400  0.56842300  1
  O  O25  1  0.57268000  0.71237000  0.93052200  1
  O  O26  1  0.56813900  0.07366700  0.93279800  1
  O  O27  1  0.31666900  0.82674000  0.18275800  1
  O  O28  1  0.33116800  0.46624100  0.18129200  1
  O  O29  1  0.43299600  0.92586500  0.56697600  1
  O  O30  1  0.42713800  0.28729000  0.56935300  1
  O  O31  1  0.53403400  0.39100200  0.93172000  1
  O  O32  1  0.28122500  0.14383600  0.18039600  1
  O  O33  1  0.21866100  0.35214500  0.31854500  1
  O  O34  1  0.31623200  0.82693000  0.68238200  1
  O  O35  1  0.32027100  0.46439600  0.68105200  1
  O  O36  1  0.17254100  0.67657600  0.31813200  1
  O  O37  1  0.17400500  0.03332200  0.31868200  1
  O  O38  1  0.28844500  0.14329600  0.68088600  1
  O  O39  1  0.22016600  0.35972300  0.81968400  1
  O  O40  1  0.07626500  0.57304100  0.43207400  1
  O  O41  1  0.07025600  0.21385700  0.43040800  1
  O  O42  1  0.17276300  0.67943300  0.81759500  1
  O  O43  1  0.18345900  0.04031300  0.81871600  1
  O  O44  1  0.03851300  0.89684200  0.43131700  1
  O  O45  1  0.07251800  0.57314700  0.93174300  1
  O  O46  1  0.06717200  0.21189900  0.93147400  1
  O  O47  1  0.03322400  0.89185200  0.93047700  1
loop_
_geom_bond_atom_site_label_1
_geom_bond_atom_site_label_2
_geom_bond_distance
_geom_bond_site_symmetry_2
Li0 O37 2.065553 1_655
Li0 O32 2.077432 1_655
Li0 O13 2.126456 1_555
Li0 O5 2.131908 1_555
Li0 O33 2.191050 1_655
Li0 O4 2.219931 1_545
Li1 O41 2.080355 1_655
Li1 O12 2.105799 1_555
Li1 O13 2.107400 1_555
Li1 O23 2.115557 1_555
Li1 O40 2.120095 1_655
Li1 O33 2.127869 1_655
Li2 O2 2.031904 1_555
Li2 O26 2.042226 1_554
Li2 O31 2.156219 1_554
Li2 O46 2.163585 1_654
Li2 O0 2.194450 1_555
Li2 O22 2.230365 1_555
Li3 O47 2.064525 1_655
Li3 O1 2.072960 1_556
Li3 O21 2.128208 1_556
Li3 O26 2.129376 1_565
Li3 O0 2.165939 1_566
Li3 O25 2.223890 1_555
Li4 O43 2.053508 1_655
Li4 O38 2.068095 1_655
Li4 O11 2.089154 1_555
Li4 O20 2.150074 1_555
Li4 O10 2.237184 1_545
Li4 O39 2.246156 1_655
Li5 O17 2.043925 1_555
Li5 O24 2.064834 1_555
Li5 O7 2.139534 1_555
Li5 O40 2.164230 1_655
Li5 O23 2.193194 1_555
Li5 O6 2.231836 1_555
Li6 O19 2.069421 1_555
Li6 O46 2.105608 1_655
Li6 O45 2.106331 1_655
Li6 O31 2.109297 1_555
Li6 O39 2.127086 1_655
Li6 O20 2.139814 1_555
Li7 O7 2.034917 1_555
Li7 O18 2.036827 1_555
Li7 O3 2.170731 1_555
Li7 O41 2.186907 1_655
Li7 O23 2.195946 1_555
Li7 O30 2.203928 1_555
Li8 O6 2.064794 1_555
Li8 O44 2.070668 1_655
Li8 O18 2.125568 1_565
Li8 O29 2.126375 1_555
Li8 O17 2.177801 1_555
Li8 O3 2.218020 1_565
Li9 O4 2.084066 1_545
Li9 O0 2.093814 1_555
Li9 O22 2.094114 1_555
Li9 O5 2.115565 1_555
Li9 O32 2.124710 1_555
Li9 O21 2.138826 1_545
Li10 O25 2.055499 1_555
Li10 O16 2.075664 1_556
Li10 O2 2.132316 1_556
Li10 O45 2.145160 1_655
Li10 O31 2.197826 1_555
Li10 O1 2.242092 1_556
Li11 O28 2.056500 1_555
Li11 O33 2.060197 1_555
Li11 O13 2.125177 1_555
Li11 O5 2.147269 1_555
Li11 O12 2.176079 1_555
Li11 O32 2.232615 1_555
Li12 O38 2.084989 1_555
Li12 O30 2.085266 1_555
Li12 O11 2.099075 1_555
Li12 O3 2.105265 1_555
Li12 O10 2.116411 1_545
Li12 O29 2.129717 1_545
Li13 O27 2.034462 1_545
Li13 O13 2.036045 1_555
Li13 O4 2.156190 1_545
Li13 O9 2.159612 1_545
Li13 O37 2.201315 1_555
Li13 O32 2.203767 1_555
Li14 O12 2.047359 1_555
Li14 O8 2.071719 1_555
Li14 O27 2.152797 1_555
Li14 O28 2.162424 1_555
Li14 O36 2.167363 1_555
Li14 O9 2.223638 1_555
Li15 O35 2.052833 1_555
Li15 O39 2.068386 1_555
Li15 O11 2.155531 1_555
Li15 O20 2.175237 1_555
Li15 O38 2.189191 1_555
Li15 O19 2.215424 1_555
Li16 O37 2.084146 1_565
Li16 O44 2.087161 1_555
Li16 O9 2.101994 1_555
Li16 O17 2.103019 1_555
Li16 O36 2.120116 1_555
Li16 O18 2.129078 1_565
Li17 O20 2.022541 1_555
Li17 O34 2.026356 1_545
Li17 O10 2.159523 1_545
Li17 O43 2.167964 1_555
Li17 O38 2.169474 1_555
Li17 O15 2.172994 1_545
Li18 O21 2.029359 1_556
Li18 O45 2.031171 1_555
Li18 O1 2.159024 1_456
Li18 O47 2.165164 1_555
Li18 O25 2.197750 1_555
Li18 O16 2.210394 1_556
Li19 O19 2.056912 1_555
Li19 O14 2.064577 1_555
Li19 O42 2.159554 1_555
Li19 O34 2.175020 1_555
Li19 O15 2.186064 1_555
Li19 O35 2.212597 1_555
Li20 O22 2.053024 1_556
Li20 O31 2.061364 1_555
Li20 O45 2.136466 1_555
Li20 O2 2.154499 1_456
Li20 O46 2.216884 1_555
Li20 O16 2.221122 1_556
Li21 O15 2.081540 1_555
Li21 O25 2.091789 1_555
Li21 O42 2.108406 1_555
Li21 O43 2.110701 1_565
Li21 O47 2.112520 1_555
Li21 O26 2.120253 1_565
Li22 O3 2.062025 1_455
Li22 O41 2.068860 1_555
Li22 O29 2.137519 1_545
Li22 O44 2.165433 1_545
Li22 O18 2.179528 1_555
Li22 O30 2.222908 1_555
Li23 O40 2.025539 1_555
Li23 O29 2.038053 1_555
Li23 O24 2.138705 1_555
Li23 O6 2.168073 1_455
Li23 O44 2.198179 1_555
Li23 O17 2.219080 1_555
Li24 O1 2.084104 1_455
Li24 O28 2.093151 1_555
Li24 O8 2.095109 1_455
Li24 O2 2.105986 1_455
Li24 O16 2.125730 1_555
Li24 O27 2.142564 1_555
Li25 O30 2.051901 1_555
Li25 O23 2.067164 1_555
Li25 O40 2.127855 1_555
Li25 O7 2.151810 1_455
Li25 O24 2.189963 1_555
Li25 O41 2.242502 1_555
Li26 O4 2.072217 1_455
Li26 O9 2.073346 1_455
Li26 O36 2.124642 1_555
Li26 O27 2.125848 1_555
Li26 O37 2.172869 1_565
Li26 O8 2.176778 1_455
Li27 O46 2.062529 1_554
Li27 O0 2.067547 1_455
Li27 O26 2.126065 1_554
Li27 O21 2.148616 1_545
Li27 O22 2.180201 1_555
Li27 O47 2.218264 1_544
Li28 O35 2.068626 1_555
Li28 O24 2.099643 1_555
Li28 O7 2.108883 1_455
Li28 O6 2.113243 1_455
Li28 O14 2.132720 1_455
Li28 O34 2.139670 1_555
Li29 O36 2.027282 1_655
Li29 O5 2.035489 1_555
Li29 O8 2.181643 1_555
Li29 O33 2.214889 1_655
Li29 O28 2.223549 1_655
Li29 O12 2.224448 1_555
Li30 O10 2.052653 1_455
Li30 O15 2.066076 1_455
Li30 O42 2.095316 1_555
Li30 O34 2.143301 1_555
Li30 O43 2.233300 1_565
Li30 O14 2.247401 1_455
Li31 O11 2.037402 1_455
Li31 O42 2.044328 1_555
Li31 O39 2.175594 1_555
Li31 O19 2.180620 1_455
Li31 O35 2.181519 1_555
Li31 O14 2.188025 1_455
Mn0 O44 1.924354 1_645
Mn0 O37 1.933504 1_655
Mn0 O9 1.937574 1_545
Mn0 O41 1.938677 1_655
Mn0 O13 1.939391 1_555
Mn0 O18 1.948855 1_555
Mn1 O15 1.911554 1_555
Mn1 O19 1.931305 1_555
Mn1 O47 1.940825 1_655
Mn1 O25 1.942152 1_555
Mn1 O42 1.944397 1_655
Mn1 O45 1.961480 1_655
Mn2 O38 1.913634 1_555
Mn2 O35 1.935034 1_555
Mn2 O30 1.940831 1_555
Mn2 O3 1.940843 1_455
Mn2 O11 1.947393 1_455
Mn2 O7 1.962300 1_455
Cr0 O17 1.897559 1_555
Cr0 O9 1.920856 1_555
Cr0 O36 1.952301 1_655
Cr0 O44 1.955140 1_655
Cr0 O40 1.970482 1_655
Cr0 O12 1.989290 1_555
Cr1 O46 1.887192 1_655
Cr1 O20 1.902981 1_555
Cr1 O47 1.944704 1_645
Cr1 O43 1.958190 1_655
Cr1 O15 1.996588 1_545
Cr1 O26 2.004300 1_555
Cr2 O4 1.875406 1_555
Cr2 O21 1.900865 1_555
Cr2 O8 1.928734 1_555
Cr2 O1 1.984078 1_555
Cr2 O16 1.989183 1_555
Cr2 O27 1.993181 1_555
Cr3 O28 1.889136 1_555
Cr3 O16 1.891640 1_555
Cr3 O5 1.964774 1_555
Cr3 O8 1.972274 1_555
Cr3 O2 1.979896 1_555
Cr3 O22 1.991348 1_555
Cr4 O29 1.887011 1_555
Cr4 O10 1.896803 1_555
Cr4 O24 1.946948 1_555
Cr4 O14 1.978649 1_555
Cr4 O6 1.984853 1_555
Cr4 O34 1.989584 1_555
Cr5 O14 1.898019 1_555
Cr5 O7 1.935158 1_555
Cr5 O30 1.954624 1_555
Cr5 O11 1.965327 1_555
Cr5 O24 1.967092 1_555
Cr5 O35 1.975708 1_555
Cr6 O23 1.888735 1_555
Cr6 O12 1.895304 1_555
Cr6 O40 1.966551 1_555
Cr6 O33 1.973963 1_555
Cr6 O17 1.978715 1_555
Cr6 O36 1.983315 1_555
Cr7 O33 1.897134 1_555
Cr7 O41 1.921600 1_555
Cr7 O37 1.940994 1_555
Cr7 O18 1.945575 1_555
Cr7 O23 1.989407 1_555
Cr7 O13 1.997095 1_555
Cr8 O39 1.900933 1_555
Cr8 O45 1.942151 1_555
Cr8 O25 1.948221 1_555
Cr8 O42 1.956675 1_555
Cr8 O31 1.967529 1_555
Cr8 O19 1.976029 1_555
Cr9 O26 1.894804 1_555
Cr9 O43 1.909706 1_555
Cr9 O31 1.940904 1_555
Cr9 O20 1.976793 1_555
Cr9 O39 1.977070 1_555
Cr9 O46 1.980621 1_555
Cr10 O1 1.874850 1_455
Cr10 O27 1.899287 1_555
Cr10 O0 1.931152 1_465
Cr10 O4 1.985663 1_455
Cr10 O32 1.988521 1_565
Cr10 O21 1.991938 1_555
Cr11 O22 1.886219 1_555
Cr11 O32 1.891600 1_555
Cr11 O2 1.967147 1_455
Cr11 O0 1.969787 1_455
Cr11 O5 1.979613 1_455
Cr11 O28 1.994577 1_555
Cr12 O6 1.880167 1_455
Cr12 O34 1.897249 1_555
Cr12 O3 1.947768 1_465
Cr12 O10 1.970977 1_455
Cr12 O38 1.992287 1_565
Cr12 O29 2.006916 1_555
