# generated using pymatgen
data_Li2Mn3(BO3)3
_symmetry_space_group_name_H-M   'P 1'
_cell_length_a   8.25797000
_cell_length_b   8.84039270
_cell_length_c   9.49823313
_cell_angle_alpha   111.47038708
_cell_angle_beta   89.51978453
_cell_angle_gamma   117.68392466
_symmetry_Int_Tables_number   1
_chemical_formula_structural   Li2Mn3(BO3)3
_chemical_formula_sum   'Li6 Mn9 B9 O27'
_cell_volume   560.31427137
_cell_formula_units_Z   3
loop_
 _symmetry_equiv_pos_site_id
 _symmetry_equiv_pos_as_xyz
  1  'x, y, z'
loop_
 _atom_site_type_symbol
 _atom_site_label
 _atom_site_symmetry_multiplicity
 _atom_site_fract_x
 _atom_site_fract_y
 _atom_site_fract_z
 _atom_site_occupancy
  Li  Li0  1  0.29163400  0.28071300  0.58632900  1
  Li  Li1  1  0.30309800  0.27343800  0.26023100  1
  Li  Li2  1  0.98172900  0.69987600  0.07728800  1
  Li  Li3  1  0.97854200  0.69688700  0.73876300  1
  Li  Li4  1  0.72575900  0.02136500  0.49770500  1
  Li  Li5  1  0.71074200  0.01748300  0.83604600  1
  Mn  Mn0  1  0.00975700  0.37962400  0.45615600  1
  Mn  Mn1  1  0.01189300  0.35355700  0.11667200  1
  Mn  Mn2  1  0.01313800  0.36281900  0.78681000  1
  Mn  Mn3  1  0.33951500  0.99417300  0.66238500  1
  Mn  Mn4  1  0.36132600  0.99668200  0.99518000  1
  Mn  Mn5  1  0.38208400  0.98388600  0.32638300  1
  Mn  Mn6  1  0.62586000  0.64677400  0.88826100  1
  Mn  Mn7  1  0.62218900  0.63129000  0.21007000  1
  Mn  Mn8  1  0.63752200  0.64450300  0.55085200  1
  B  B0  1  0.99459300  0.98793700  0.99705700  1
  B  B1  1  0.33185100  0.66421900  0.06628400  1
  B  B2  1  0.32833600  0.66933100  0.72009300  1
  B  B3  1  0.01126600  0.00415800  0.33749100  1
  B  B4  1  0.34690900  0.66917100  0.37920800  1
  B  B5  1  0.66767600  0.33152400  0.27661100  1
  B  B6  1  0.66284400  0.33445800  0.60637600  1
  B  B7  1  0.67285100  0.33973700  0.95107500  1
  B  B8  1  0.98811600  0.99882100  0.66694100  1
  O  O0  1  0.26283400  0.79121900  0.11152900  1
  O  O1  1  0.24882600  0.78402300  0.76069400  1
  O  O2  1  0.27879700  0.79271400  0.41463300  1
  O  O3  1  0.21326800  0.47836900  0.98756000  1
  O  O4  1  0.21438300  0.47570800  0.64525600  1
  O  O5  1  0.23023400  0.47877100  0.32431000  1
  O  O6  1  0.17665800  0.11319900  0.68421600  1
  O  O7  1  0.18454900  0.09798600  0.05098500  1
  O  O8  1  0.20639500  0.09909800  0.36559600  1
  O  O9  1  0.52381600  0.73847400  0.10512700  1
  O  O10  1  0.52009100  0.74696100  0.75374900  1
  O  O11  1  0.54273900  0.74477300  0.40219500  1
  O  O12  1  0.57374300  0.43857300  0.64578400  1
  O  O13  1  0.59943200  0.45638300  0.30785900  1
  O  O14  1  0.60399000  0.46412800  0.00129900  1
  O  O15  1  0.53264300  0.14332800  0.22155200  1
  O  O16  1  0.55244200  0.14850800  0.87708200  1
  O  O17  1  0.55548500  0.13792300  0.53086500  1
  O  O18  1  0.90501300  0.81287300  0.26307200  1
  O  O19  1  0.91459300  0.81067200  0.63011500  1
  O  O20  1  0.91356000  0.79318100  0.93730400  1
  O  O21  1  0.85419900  0.41629100  0.64044100  1
  O  O22  1  0.85338600  0.38910900  0.29768400  1
  O  O23  1  0.86297800  0.41260700  0.97484200  1
  O  O24  1  0.86809000  0.07388800  0.68671900  1
  O  O25  1  0.88710200  0.07039200  0.00301200  1
  O  O26  1  0.92146000  0.10842700  0.38624900  1
loop_
_geom_bond_atom_site_label_1
_geom_bond_atom_site_label_2
_geom_bond_distance
_geom_bond_site_symmetry_2
Li0 O6 1.909344 1_555
Li0 O8 1.994829 1_555
Li0 O4 2.000342 1_555
Li0 O12 2.029271 1_555
Li1 O7 1.918138 1_555
Li1 O8 1.996693 1_555
Li1 O5 2.056093 1_555
Li1 O13 2.148068 1_555
Li2 O18 1.947305 1_555
Li2 O20 2.002991 1_554
Li2 O0 2.055521 1_655
Li2 O23 2.061765 1_554
Li3 O19 1.902182 1_555
Li3 O20 1.949658 1_555
Li3 O1 1.977707 1_655
Li3 O21 2.008302 1_555
Li4 O26 1.933096 1_555
Li4 O24 1.933447 1_555
Li4 O11 2.012811 1_545
Li4 O17 2.058985 1_555
Li5 O25 1.928101 1_556
Li5 O24 1.957936 1_555
Li5 O10 1.990650 1_545
Li5 O16 2.066495 1_555
Mn0 O26 1.984672 1_455
Mn0 O22 2.041012 1_455
Mn0 O4 2.098400 1_555
Mn0 O21 2.180129 1_455
Mn0 O5 2.221240 1_555
Mn1 O25 2.034014 1_455
Mn1 O22 2.171880 1_455
Mn1 O3 2.176735 1_554
Mn1 O23 2.176831 1_454
Mn1 O5 2.229981 1_555
Mn2 O24 2.064320 1_455
Mn2 O3 2.113969 1_555
Mn2 O23 2.194455 1_455
Mn2 O21 2.228703 1_455
Mn2 O4 2.229178 1_555
Mn3 O6 2.027161 1_565
Mn3 O1 2.202183 1_555
Mn3 O16 2.214949 1_565
Mn3 O2 2.254529 1_555
Mn3 O17 2.318418 1_565
Mn4 O7 2.017024 1_566
Mn4 O15 2.147436 1_566
Mn4 O16 2.157486 1_565
Mn4 O1 2.168996 1_555
Mn4 O0 2.294262 1_556
Mn5 O15 1.975425 1_565
Mn5 O0 1.991505 1_555
Mn5 O2 1.992976 1_555
Mn5 O17 1.993908 1_565
Mn5 O8 2.089815 1_565
Mn6 O20 2.063162 1_555
Mn6 O10 2.178431 1_555
Mn6 O14 2.188002 1_556
Mn6 O9 2.234614 1_556
Mn6 O12 2.248255 1_555
Mn7 O14 1.947308 1_555
Mn7 O9 1.992877 1_555
Mn7 O11 2.004586 1_555
Mn7 O13 2.016761 1_555
Mn7 O18 2.056587 1_555
Mn8 O19 2.013964 1_555
Mn8 O12 2.169661 1_555
Mn8 O13 2.215369 1_555
Mn8 O11 2.229692 1_555
Mn8 O10 2.231991 1_555
B0 O25 1.375748 1_566
B0 O7 1.378463 1_666
B0 O20 1.398115 1_555
B1 O3 1.354781 1_554
B1 O9 1.394849 1_555
B1 O0 1.416794 1_555
B2 O10 1.385199 1_555
B2 O1 1.391395 1_555
B2 O4 1.394473 1_555
B3 O18 1.373247 1_445
B3 O26 1.389635 1_455
B3 O8 1.399550 1_555
B4 O5 1.375650 1_555
B4 O2 1.386015 1_555
B4 O11 1.415757 1_555
B5 O22 1.362439 1_555
B5 O15 1.390657 1_555
B5 O13 1.399802 1_555
B6 O21 1.378437 1_555
B6 O12 1.378814 1_555
B6 O17 1.409355 1_555
B7 O23 1.375036 1_555
B7 O16 1.385855 1_555
B7 O14 1.397382 1_556
B8 O6 1.376042 1_665
B8 O19 1.377271 1_555
B8 O24 1.405314 1_565
