# generated using pymatgen
data_Sr3(AsO4)2
_symmetry_space_group_name_H-M   'P 1'
_cell_length_a   10.42159720
_cell_length_b   5.99717440
_cell_length_c   9.41866250
_cell_angle_alpha   50.94157394
_cell_angle_beta   90.00000000
_cell_angle_gamma   90.00000000
_symmetry_Int_Tables_number   1
_chemical_formula_structural   Sr3(AsO4)2
_chemical_formula_sum   'Sr6 As4 O16'
_cell_volume   457.10270835
_cell_formula_units_Z   2
loop_
 _symmetry_equiv_pos_site_id
 _symmetry_equiv_pos_as_xyz
  1  'x, y, z'
loop_
 _atom_site_type_symbol
 _atom_site_label
 _atom_site_symmetry_multiplicity
 _atom_site_fract_x
 _atom_site_fract_y
 _atom_site_fract_z
 _atom_site_occupancy
  Sr  Sr0  1  0.00000000  0.50000000  0.50000000  1
  Sr  Sr1  1  0.35911423  0.34163667  0.67894957  1
  Sr  Sr2  1  0.85911423  0.65836333  0.82105043  1
  Sr  Sr3  1  0.50000000  0.50000000  -0.00000000  1
  Sr  Sr4  1  0.14088577  0.34163667  0.17894957  1
  Sr  Sr5  1  0.64088577  0.65836333  0.32105043  1
  As  As0  1  0.30454326  0.82611452  0.17510248  1
  As  As1  1  0.80454326  0.17388548  0.32489752  1
  As  As2  1  0.19545674  0.82611452  0.67510248  1
  As  As3  1  0.69545674  0.17388548  0.82489752  1
  O  O0  1  0.85048076  0.28533827  0.77478774  1
  O  O1  1  0.40630447  0.60138263  0.35174619  1
  O  O2  1  0.65131175  0.17196182  0.00060510  1
  O  O3  1  0.82138206  0.84018261  0.39032632  1
  O  O4  1  0.15131175  0.82803818  0.49939490  1
  O  O5  1  0.35048076  0.71466173  0.72521226  1
  O  O6  1  0.32138206  0.15981739  0.10967368  1
  O  O7  1  0.90630447  0.39861737  0.14825381  1
  O  O8  1  0.09369553  0.60138263  0.85174619  1
  O  O9  1  0.67861794  0.84018261  0.89032632  1
  O  O10  1  0.64951924  0.28533827  0.27478774  1
  O  O11  1  0.84868825  0.17196182  0.50060510  1
  O  O12  1  0.17861794  0.15981739  0.60967368  1
  O  O13  1  0.34868825  0.82803818  0.99939490  1
  O  O14  1  0.59369553  0.39861737  0.64825381  1
  O  O15  1  0.14951924  0.71466173  0.22521226  1
loop_
_geom_bond_atom_site_label_1
_geom_bond_atom_site_label_2
_geom_bond_distance
_geom_bond_site_symmetry_2
As0 O6 1.691579 1_565
As0 O15 1.697679 1_555
As0 O1 1.698045 1_555
As0 O13 1.710709 1_554
As1 O3 1.691579 1_545
As1 O10 1.697679 1_555
As1 O7 1.698045 1_555
As1 O11 1.710709 1_555
As2 O12 1.691579 1_565
As2 O5 1.697679 1_555
As2 O8 1.698045 1_555
As2 O4 1.710709 1_555
As3 O9 1.691579 1_545
As3 O0 1.697679 1_555
As3 O14 1.698045 1_555
As3 O2 1.710709 1_556
O0 Sr2 2.535941 1_555
O0 Sr0 2.566108 1_655
O1 Sr5 2.460177 1_555
O1 Sr1 2.473074 1_555
O2 Sr3 2.518497 1_555
O2 Sr5 2.625428 1_545
O3 Sr0 2.457336 1_655
O3 Sr5 2.459617 1_555
O4 Sr0 2.518497 1_555
O4 Sr4 2.625428 1_565
O5 Sr1 2.535941 1_555
O5 Sr3 2.566108 1_556
O6 Sr3 2.457336 1_555
O6 Sr4 2.459617 1_555
O7 Sr4 2.460177 1_655
O7 Sr2 2.473074 1_554
O8 Sr2 2.460177 1_455
O8 Sr4 2.473074 1_556
O9 Sr3 2.457336 1_556
O9 Sr2 2.459617 1_555
O10 Sr5 2.535941 1_555
O10 Sr3 2.566108 1_555
O11 Sr0 2.518497 1_655
O11 Sr2 2.625428 1_545
O12 Sr0 2.457336 1_555
O12 Sr1 2.459617 1_555
O13 Sr3 2.518497 1_556
O13 Sr1 2.625428 1_565
O14 Sr1 2.460177 1_555
O14 Sr5 2.473074 1_555
O15 Sr4 2.535941 1_555
O15 Sr0 2.566108 1_555
