# generated using pymatgen
data_H6PbCBr3N
_symmetry_space_group_name_H-M   'P 1'
_cell_length_a   8.06459100
_cell_length_b   8.77600700
_cell_length_c   12.08306300
_cell_angle_alpha   90.00000000
_cell_angle_beta   90.00000000
_cell_angle_gamma   90.00000000
_symmetry_Int_Tables_number   1
_chemical_formula_structural   H6PbCBr3N
_chemical_formula_sum   'H24 Pb4 C4 Br12 N4'
_cell_volume   855.17766092
_cell_formula_units_Z   4
loop_
 _symmetry_equiv_pos_site_id
 _symmetry_equiv_pos_as_xyz
  1  'x, y, z'
loop_
 _atom_site_type_symbol
 _atom_site_label
 _atom_site_symmetry_multiplicity
 _atom_site_fract_x
 _atom_site_fract_y
 _atom_site_fract_z
 _atom_site_occupancy
  H  H0  1  0.50873500  0.65522500  0.31927000  1
  H  H1  1  0.00873500  0.84477500  0.18073000  1
  H  H2  1  0.49126500  0.34477500  0.81927000  1
  H  H3  1  0.99126500  0.15522500  0.68073000  1
  H  H4  1  0.49126500  0.34477500  0.68073000  1
  H  H5  1  0.99126500  0.15522500  0.81927000  1
  H  H6  1  0.50873500  0.65522500  0.18073000  1
  H  H7  1  0.00873500  0.84477500  0.31927000  1
  H  H8  1  0.67827200  0.59530400  0.25000000  1
  H  H9  1  0.17827200  0.90469600  0.25000000  1
  H  H10  1  0.32172800  0.40469600  0.75000000  1
  H  H11  1  0.82172800  0.09530400  0.75000000  1
  H  H12  1  0.52402800  0.37841100  0.32436500  1
  H  H13  1  0.02402800  0.12158900  0.17563500  1
  H  H14  1  0.47597200  0.62158900  0.82436500  1
  H  H15  1  0.97597200  0.87841100  0.67563500  1
  H  H16  1  0.47597200  0.62158900  0.67563500  1
  H  H17  1  0.97597200  0.87841100  0.82436500  1
  H  H18  1  0.52402800  0.37841100  0.17563500  1
  H  H19  1  0.02402800  0.12158900  0.32436500  1
  H  H20  1  0.34586900  0.44386200  0.25000000  1
  H  H21  1  0.84586900  0.05613800  0.25000000  1
  H  H22  1  0.65413100  0.55613800  0.75000000  1
  H  H23  1  0.15413100  0.94386200  0.75000000  1
  Pb  Pb0  1  0.50000000  0.00000000  0.00000000  1
  Pb  Pb1  1  0.00000000  0.50000000  0.50000000  1
  Pb  Pb2  1  0.50000000  0.00000000  0.50000000  1
  Pb  Pb3  1  0.00000000  0.50000000  0.00000000  1
  C  C0  1  0.48106500  0.43774800  0.25000000  1
  C  C1  1  0.98106500  0.06225200  0.25000000  1
  C  C2  1  0.51893500  0.56225200  0.75000000  1
  C  C3  1  0.01893500  0.93774800  0.75000000  1
  Br  Br0  1  0.46697100  0.01811500  0.25000000  1
  Br  Br1  1  0.96697100  0.48188500  0.25000000  1
  Br  Br2  1  0.53302900  0.98188500  0.75000000  1
  Br  Br3  1  0.03302900  0.51811500  0.75000000  1
  Br  Br4  1  0.79577600  0.78895300  0.02936000  1
  Br  Br5  1  0.29577600  0.71104700  0.47064000  1
  Br  Br6  1  0.20422400  0.21104700  0.52936000  1
  Br  Br7  1  0.70422400  0.28895300  0.97064000  1
  Br  Br8  1  0.20422400  0.21104700  0.97064000  1
  Br  Br9  1  0.70422400  0.28895300  0.52936000  1
  Br  Br10  1  0.79577600  0.78895300  0.47064000  1
  Br  Br11  1  0.29577600  0.71104700  0.02936000  1
  N  N0  1  0.54913500  0.59625000  0.25000000  1
  N  N1  1  0.04913500  0.90375000  0.25000000  1
  N  N2  1  0.45086500  0.40375000  0.75000000  1
  N  N3  1  0.95086500  0.09625000  0.75000000  1
loop_
_geom_bond_atom_site_label_1
_geom_bond_atom_site_label_2
_geom_bond_distance
_geom_bond_site_symmetry_2
H0 N0 1.036621 1_555
H1 N1 1.036621 1_555
H2 N2 1.036621 1_555
H3 N3 1.036621 1_555
H4 N2 1.036621 1_555
H5 N3 1.036621 1_555
H6 N0 1.036621 1_555
H7 N1 1.036621 1_555
H8 N0 1.041470 1_555
H9 N1 1.041470 1_555
H10 N2 1.041470 1_555
H11 N3 1.041470 1_555
C0 H20 1.091620 1_555
C0 H12 1.094817 1_555
C0 H18 1.094817 1_555
C0 N0 1.495418 1_555
C1 H21 1.091620 1_555
C1 H19 1.094817 1_655
C1 H13 1.094817 1_655
C1 N1 1.495418 1_645
C2 H22 1.091620 1_555
C2 H14 1.094817 1_555
C2 H16 1.094817 1_555
C2 N2 1.495418 1_555
C3 H23 1.091620 1_555
C3 H15 1.094817 1_455
C3 H17 1.094817 1_455
C3 N3 1.495418 1_465
Br0 Pb2 3.036651 1_555
Br0 Pb0 3.036651 1_555
Br1 Pb3 3.036651 1_655
Br1 Pb1 3.036651 1_655
Br2 Pb2 3.036651 1_565
Br2 Pb0 3.036651 1_566
Br3 Pb3 3.036651 1_556
Br3 Pb1 3.036651 1_555
Br4 Pb0 3.040728 1_565
Br4 Pb3 3.044497 1_655
Br5 Pb1 3.040728 1_555
Br5 Pb2 3.044497 1_565
Br6 Pb2 3.040728 1_555
Br6 Pb1 3.044497 1_555
Br7 Pb3 3.040728 1_656
Br7 Pb0 3.044497 1_556
Br8 Pb0 3.040728 1_556
Br8 Pb3 3.044497 1_556
Br9 Pb1 3.040728 1_655
Br9 Pb2 3.044497 1_555
Br10 Pb2 3.040728 1_565
Br10 Pb1 3.044497 1_655
Br11 Pb3 3.040728 1_555
Br11 Pb0 3.044497 1_565
