# generated using pymatgen
data_Li2VSiO4
_symmetry_space_group_name_H-M   'P 1'
_cell_length_a   5.26255000
_cell_length_b   8.29910365
_cell_length_c   8.29882914
_cell_angle_alpha   109.17678234
_cell_angle_beta   90.00069218
_cell_angle_gamma   90.00068527
_symmetry_Int_Tables_number   1
_chemical_formula_structural   Li2VSiO4
_chemical_formula_sum   'Li8 V4 Si4 O16'
_cell_volume   342.33444880
_cell_formula_units_Z   4
loop_
 _symmetry_equiv_pos_site_id
 _symmetry_equiv_pos_as_xyz
  1  'x, y, z'
loop_
 _atom_site_type_symbol
 _atom_site_label
 _atom_site_symmetry_multiplicity
 _atom_site_fract_x
 _atom_site_fract_y
 _atom_site_fract_z
 _atom_site_occupancy
  Li  Li0  1  0.32427500  0.36825800  0.61816700  1
  Li  Li1  1  0.32419600  0.86816600  0.11796900  1
  Li  Li2  1  0.67576000  0.11804000  0.36821700  1
  Li  Li3  1  0.67567500  0.61808400  0.86819200  1
  Li  Li4  1  0.32430500  0.11809800  0.86819200  1
  Li  Li5  1  0.32425800  0.61803900  0.36823100  1
  Li  Li6  1  0.67573200  0.86825100  0.61815300  1
  Li  Li7  1  0.67579700  0.36816000  0.11796800  1
  V  V0  1  0.80427400  0.98319700  0.98317700  1
  V  V1  1  0.19571600  0.48320400  0.98318100  1
  V  V2  1  0.80425100  0.48306900  0.48305500  1
  V  V3  1  0.19577500  0.98305400  0.48304500  1
  Si  Si0  1  0.17444900  0.25207500  0.25209400  1
  Si  Si1  1  0.17429700  0.75210700  0.75208300  1
  Si  Si2  1  0.82555900  0.75208200  0.25210100  1
  Si  Si3  1  0.82568800  0.25209700  0.75207300  1
  O  O0  1  0.18995700  0.42412700  0.42421900  1
  O  O1  1  0.18974000  0.92423700  0.92415600  1
  O  O2  1  0.81004600  0.92413800  0.42422000  1
  O  O3  1  0.81025600  0.42422500  0.92415100  1
  O  O4  1  0.86532400  0.21186400  0.21188600  1
  O  O5  1  0.86523700  0.71179600  0.71178700  1
  O  O6  1  0.13474500  0.21179700  0.71178600  1
  O  O7  1  0.13469200  0.71188500  0.21191000  1
  O  O8  1  0.68762900  0.29792600  0.59448800  1
  O  O9  1  0.68763000  0.79800600  0.09451300  1
  O  O10  1  0.31240100  0.09447200  0.29794600  1
  O  O11  1  0.31227400  0.59456900  0.79804200  1
  O  O12  1  0.31237600  0.79792400  0.59450100  1
  O  O13  1  0.31236500  0.29801400  0.09451100  1
  O  O14  1  0.68770100  0.09455500  0.79802000  1
  O  O15  1  0.68762000  0.59447800  0.29796100  1
loop_
_geom_bond_atom_site_label_1
_geom_bond_atom_site_label_2
_geom_bond_distance
_geom_bond_site_symmetry_2
Li0 O0 1.948208 1_555
Li0 O11 1.979380 1_555
Li0 O6 1.986774 1_555
Li0 O8 1.990071 1_555
Li1 O1 1.948313 1_554
Li1 O10 1.979691 1_565
Li1 O7 1.987157 1_555
Li1 O9 1.990100 1_555
Li2 O2 1.948419 1_545
Li2 O8 1.979141 1_555
Li2 O4 1.987039 1_555
Li2 O10 1.989939 1_555
Li3 O3 1.948474 1_555
Li3 O9 1.979579 1_556
Li3 O5 1.986951 1_555
Li3 O11 1.989889 1_555
Li4 O1 1.948470 1_545
Li4 O13 1.979545 1_556
Li4 O6 1.986880 1_555
Li4 O14 1.989930 1_555
Li5 O0 1.948449 1_555
Li5 O12 1.979137 1_555
Li5 O7 1.987084 1_555
Li5 O15 1.989970 1_555
Li6 O2 1.948174 1_555
Li6 O14 1.979302 1_565
Li6 O5 1.986750 1_555
Li6 O12 1.990052 1_555
Li7 O3 1.948334 1_554
Li7 O15 1.979822 1_555
Li7 O4 1.987205 1_555
Li7 O13 1.990041 1_555
O0 Si0 1.657090 1_555
O0 V2 2.107345 1_455
O1 Si1 1.657198 1_555
O1 V0 2.106391 1_455
O2 Si2 1.657085 1_555
O2 V3 2.107391 1_655
O3 Si3 1.657213 1_555
O3 V1 2.106374 1_655
O4 Si0 1.672112 1_655
O4 V0 2.222767 1_544
O4 V2 2.627906 1_555
O5 Si1 1.671988 1_655
O5 V2 2.223113 1_555
O5 V0 2.629825 1_555
O6 Si3 1.671966 1_455
O6 V3 2.223279 1_545
O6 V1 2.629870 1_555
O7 Si2 1.672134 1_455
O7 V1 2.222922 1_554
O7 V3 2.627565 1_555
O8 Si3 1.646069 1_555
O8 V2 2.127495 1_555
O9 Si2 1.646177 1_555
O9 V0 2.127333 1_554
O10 Si0 1.646086 1_555
O10 V3 2.127083 1_545
O11 Si1 1.646112 1_555
O11 V1 2.126971 1_555
O12 Si1 1.646055 1_555
O12 V3 2.127503 1_555
O13 Si0 1.646182 1_555
O13 V1 2.127304 1_554
O14 Si3 1.646105 1_555
O14 V0 2.127080 1_545
O15 Si2 1.646086 1_555
O15 V2 2.127000 1_555
