# generated using pymatgen
data_Li6Bi5O14
_symmetry_space_group_name_H-M   'P 1'
_cell_length_a   8.20265854
_cell_length_b   8.20265854
_cell_length_c   10.66687200
_cell_angle_alpha   90.00000000
_cell_angle_beta   90.00000000
_cell_angle_gamma   95.33632883
_symmetry_Int_Tables_number   1
_chemical_formula_structural   Li6Bi5O14
_chemical_formula_sum   'Li12 Bi10 O28'
_cell_volume   714.59503862
_cell_formula_units_Z   2
loop_
 _symmetry_equiv_pos_site_id
 _symmetry_equiv_pos_as_xyz
  1  'x, y, z'
loop_
 _atom_site_type_symbol
 _atom_site_label
 _atom_site_symmetry_multiplicity
 _atom_site_fract_x
 _atom_site_fract_y
 _atom_site_fract_z
 _atom_site_occupancy
  Li  Li0  1  0.18483200  0.35369500  0.97644000  1
  Li  Li1  1  0.35369500  0.18483200  0.47644000  1
  Li  Li2  1  0.20438800  0.50489700  0.51058900  1
  Li  Li3  1  0.50489700  0.20438800  0.01058900  1
  Li  Li4  1  0.99360100  0.00639900  0.95557700  1
  Li  Li5  1  0.72768600  0.27231400  0.43306900  1
  Li  Li6  1  0.27231400  0.72768600  0.93306900  1
  Li  Li7  1  0.00639900  0.99360100  0.45557700  1
  Li  Li8  1  0.79561200  0.49510300  0.01058900  1
  Li  Li9  1  0.49510300  0.79561200  0.51058900  1
  Li  Li10  1  0.64630500  0.81516800  0.97644000  1
  Li  Li11  1  0.81516800  0.64630500  0.47644000  1
  Bi  Bi0  1  0.06516800  0.23837200  0.23538200  1
  Bi  Bi1  1  0.23837200  0.06516800  0.73538200  1
  Bi  Bi2  1  0.00079200  0.62828200  0.23018400  1
  Bi  Bi3  1  0.62828200  0.00079200  0.73018400  1
  Bi  Bi4  1  0.53752400  0.46247600  0.24690100  1
  Bi  Bi5  1  0.46247600  0.53752400  0.74690100  1
  Bi  Bi6  1  0.37171800  0.99920800  0.23018400  1
  Bi  Bi7  1  0.99920800  0.37171800  0.73018400  1
  Bi  Bi8  1  0.93483200  0.76162800  0.73538200  1
  Bi  Bi9  1  0.76162800  0.93483200  0.23538200  1
  O  O0  1  0.19231600  0.08078000  0.35914700  1
  O  O1  1  0.08078000  0.19231600  0.85914700  1
  O  O2  1  0.19963500  0.27539800  0.61787500  1
  O  O3  1  0.27539800  0.19963500  0.11787500  1
  O  O4  1  0.57564800  0.99443400  0.09743600  1
  O  O5  1  0.99443400  0.57564800  0.59743600  1
  O  O6  1  0.14614900  0.45795700  0.33576200  1
  O  O7  1  0.45795700  0.14614900  0.83576200  1
  O  O8  1  0.51334000  0.21479300  0.33267900  1
  O  O9  1  0.21479300  0.51334000  0.83267900  1
  O  O10  1  0.13427300  0.86572700  0.85608500  1
  O  O11  1  0.58909100  0.41090900  0.06259400  1
  O  O12  1  0.22222000  0.77778000  0.16040000  1
  O  O13  1  0.86572700  0.13427300  0.35608500  1
  O  O14  1  0.05962800  0.94037200  0.61850700  1
  O  O15  1  0.77778000  0.22222000  0.66040000  1
  O  O16  1  0.41090900  0.58909100  0.56259400  1
  O  O17  1  0.94037200  0.05962800  0.11850700  1
  O  O18  1  0.78520700  0.48666000  0.33267900  1
  O  O19  1  0.48666000  0.78520700  0.83267900  1
  O  O20  1  0.85385100  0.54204300  0.83576200  1
  O  O21  1  0.54204300  0.85385100  0.33576200  1
  O  O22  1  0.00556600  0.42435200  0.09743600  1
  O  O23  1  0.42435200  0.00556600  0.59743600  1
  O  O24  1  0.80036500  0.72460200  0.11787500  1
  O  O25  1  0.72460200  0.80036500  0.61787500  1
  O  O26  1  0.91922000  0.80768400  0.35914700  1
  O  O27  1  0.80768400  0.91922000  0.85914700  1
loop_
_geom_bond_atom_site_label_1
_geom_bond_atom_site_label_2
_geom_bond_distance
_geom_bond_site_symmetry_2
Li0 O1 1.958564 1_555
Li0 O9 2.016662 1_555
Li0 O22 2.079050 1_556
Li0 O3 2.144648 1_556
Li1 O0 1.958564 1_555
Li1 O8 2.016662 1_555
Li1 O23 2.079050 1_555
Li1 O2 2.144648 1_555
Li2 O16 1.853854 1_555
Li2 O6 1.954467 1_555
Li2 O5 2.084899 1_455
Li2 O2 2.200306 1_555
Li3 O11 1.853854 1_555
Li3 O7 1.954467 1_554
Li3 O4 2.084899 1_545
Li3 O3 2.200306 1_555
Li4 O17 1.853973 1_556
Li4 O27 1.921515 1_545
Li4 O1 1.921515 1_655
Li4 O10 2.009190 1_645
Li5 O13 1.864680 1_555
Li5 O18 2.075168 1_555
Li5 O8 2.075168 1_555
Li5 O15 2.499856 1_555
Li6 O10 1.864680 1_555
Li6 O19 2.075168 1_555
Li6 O9 2.075168 1_555
Li6 O12 2.499856 1_556
Li7 O14 1.853973 1_555
Li7 O26 1.921515 1_455
Li7 O0 1.921515 1_565
Li7 O13 2.009190 1_465
Li8 O11 1.853854 1_555
Li8 O20 1.954467 1_554
Li8 O22 2.084899 1_655
Li8 O24 2.200306 1_555
Li9 O16 1.853854 1_555
Li9 O21 1.954467 1_555
Li9 O23 2.084899 1_565
Li9 O25 2.200306 1_555
Li10 O27 1.958564 1_555
Li10 O19 2.016662 1_555
Li10 O4 2.079050 1_556
Li10 O24 2.144648 1_556
Li11 O26 1.958564 1_555
Li11 O18 2.016662 1_555
Li11 O5 2.079050 1_555
Li11 O25 2.144648 1_555
Bi0 O17 2.114857 1_455
Bi0 O6 2.146959 1_555
Bi0 O3 2.178918 1_555
Bi0 O0 2.180003 1_555
Bi0 O13 2.191650 1_455
Bi0 O22 2.206844 1_555
Bi1 O14 2.114857 1_545
Bi1 O7 2.146959 1_555
Bi1 O2 2.178918 1_555
Bi1 O1 2.180003 1_555
Bi1 O10 2.191650 1_545
Bi1 O23 2.206844 1_555
Bi2 O26 2.165350 1_455
Bi2 O22 2.194754 1_555
Bi2 O12 2.223177 1_555
Bi2 O6 2.225240 1_555
Bi2 O24 2.236928 1_455
Bi2 O18 2.299963 1_455
Bi3 O27 2.165350 1_545
Bi3 O23 2.194754 1_555
Bi3 O15 2.223177 1_555
Bi3 O7 2.225240 1_555
Bi3 O25 2.236928 1_545
Bi3 O19 2.299963 1_545
Bi4 O11 2.063053 1_555
Bi4 O18 2.220185 1_555
Bi4 O8 2.220185 1_555
Bi5 O16 2.063053 1_555
Bi5 O9 2.220185 1_555
Bi5 O19 2.220185 1_555
Bi6 O0 2.165350 1_565
Bi6 O4 2.194754 1_555
Bi6 O12 2.223177 1_555
Bi6 O21 2.225240 1_555
Bi6 O3 2.236928 1_565
Bi6 O8 2.299963 1_565
Bi7 O1 2.165350 1_655
Bi7 O5 2.194754 1_555
Bi7 O15 2.223177 1_555
Bi7 O20 2.225240 1_555
Bi7 O2 2.236928 1_655
Bi7 O9 2.299963 1_655
Bi8 O14 2.114857 1_655
Bi8 O20 2.146959 1_555
Bi8 O25 2.178918 1_555
Bi8 O27 2.180003 1_555
Bi8 O10 2.191650 1_655
Bi8 O5 2.206844 1_555
Bi9 O17 2.114857 1_565
Bi9 O21 2.146959 1_555
Bi9 O24 2.178918 1_555
Bi9 O26 2.180003 1_555
Bi9 O13 2.191650 1_565
Bi9 O4 2.206844 1_555
