# generated using pymatgen
data_Li6MnV3(PO4)6
_symmetry_space_group_name_H-M   'P 1'
_cell_length_a   10.26447484
_cell_length_b   10.26447484
_cell_length_c   10.26447439
_cell_angle_alpha   109.66044388
_cell_angle_beta   109.66044388
_cell_angle_gamma   109.66044354
_symmetry_Int_Tables_number   1
_chemical_formula_structural   Li6MnV3(PO4)6
_chemical_formula_sum   'Li12 Mn2 V6 P12 O48'
_cell_volume   826.62395210
_cell_formula_units_Z   2
loop_
 _symmetry_equiv_pos_site_id
 _symmetry_equiv_pos_as_xyz
  1  'x, y, z'
loop_
 _atom_site_type_symbol
 _atom_site_label
 _atom_site_symmetry_multiplicity
 _atom_site_fract_x
 _atom_site_fract_y
 _atom_site_fract_z
 _atom_site_occupancy
  Li  Li0  1  0.37321700  0.12678300  0.25000000  1
  Li  Li1  1  0.62390400  0.25000000  0.87609600  1
  Li  Li2  1  0.25000000  0.87609600  0.62390400  1
  Li  Li3  1  0.12678300  0.25000000  0.37321700  1
  Li  Li4  1  0.75000000  0.62678300  0.87321700  1
  Li  Li5  1  0.87609600  0.62390400  0.25000000  1
  Li  Li6  1  0.12390400  0.37609600  0.75000000  1
  Li  Li7  1  0.25000000  0.37321700  0.12678300  1
  Li  Li8  1  0.87321700  0.75000000  0.62678300  1
  Li  Li9  1  0.75000000  0.12390400  0.37609600  1
  Li  Li10  1  0.37609600  0.75000000  0.12390400  1
  Li  Li11  1  0.62678300  0.87321700  0.75000000  1
  Mn  Mn0  1  0.00000000  0.00000000  0.00000000  1
  Mn  Mn1  1  0.50000000  0.50000000  0.50000000  1
  V  V0  1  0.50000000  0.00000000  0.50000000  1
  V  V1  1  0.50000000  0.00000000  0.00000000  1
  V  V2  1  0.00000000  0.50000000  0.00000000  1
  V  V3  1  0.00000000  0.50000000  0.50000000  1
  V  V4  1  0.00000000  0.00000000  0.50000000  1
  V  V5  1  0.50000000  0.50000000  0.00000000  1
  P  P0  1  0.75191100  0.37602700  0.62545600  1
  P  P1  1  0.12397300  0.74808900  0.87454400  1
  P  P2  1  0.37454400  0.24808900  0.62397300  1
  P  P3  1  0.12545600  0.87602700  0.25191100  1
  P  P4  1  0.62397300  0.37454400  0.24808900  1
  P  P5  1  0.25191100  0.12545600  0.87602700  1
  P  P6  1  0.74808900  0.87454400  0.12397300  1
  P  P7  1  0.87454400  0.12397300  0.74808900  1
  P  P8  1  0.37602700  0.62545600  0.75191100  1
  P  P9  1  0.62545600  0.75191100  0.37602700  1
  P  P10  1  0.87602700  0.25191100  0.12545600  1
  P  P11  1  0.24808900  0.62397300  0.37454400  1
  O  O0  1  0.59112100  0.20031500  0.20461600  1
  O  O1  1  0.79538400  0.40887900  0.79968500  1
  O  O2  1  0.88233100  0.39014700  0.09051800  1
  O  O3  1  0.61150500  0.20134200  0.49441900  1
  O  O4  1  0.29865800  0.88849500  0.00558100  1
  O  O5  1  0.29968500  0.90887900  0.29538400  1
  O  O6  1  0.40948200  0.10985300  0.61766900  1
  O  O7  1  0.37968000  0.28723100  0.49250400  1
  O  O8  1  0.50558100  0.38849500  0.79865800  1
  O  O9  1  0.61766900  0.40948200  0.10985300  1
  O  O10  1  0.99250400  0.78723100  0.87968000  1
  O  O11  1  0.10985300  0.61766900  0.40948200  1
  O  O12  1  0.39014700  0.09051800  0.88233100  1
  O  O13  1  0.99441900  0.70134200  0.11150500  1
  O  O14  1  0.12032000  0.00749600  0.21276900  1
  O  O15  1  0.09051800  0.88233100  0.39014700  1
  O  O16  1  0.71276900  0.50749600  0.62032000  1
  O  O17  1  0.09112100  0.70461600  0.70031500  1
  O  O18  1  0.20031500  0.20461600  0.59112100  1
  O  O19  1  0.49250400  0.37968000  0.28723100  1
  O  O20  1  0.29538400  0.29968500  0.90887900  1
  O  O21  1  0.11150500  0.99441900  0.70134200  1
  O  O22  1  0.78723100  0.87968000  0.99250400  1
  O  O23  1  0.79865800  0.50558100  0.38849500  1
  O  O24  1  0.20134200  0.49441900  0.61150500  1
  O  O25  1  0.21276900  0.12032000  0.00749600  1
  O  O26  1  0.88849500  0.00558100  0.29865800  1
  O  O27  1  0.70461600  0.70031500  0.09112100  1
  O  O28  1  0.50749600  0.62032000  0.71276900  1
  O  O29  1  0.79968500  0.79538400  0.40887900  1
  O  O30  1  0.90887900  0.29538400  0.29968500  1
  O  O31  1  0.28723100  0.49250400  0.37968000  1
  O  O32  1  0.90948200  0.11766900  0.60985300  1
  O  O33  1  0.87968000  0.99250400  0.78723100  1
  O  O34  1  0.00558100  0.29865800  0.88849500  1
  O  O35  1  0.60985300  0.90948200  0.11766900  1
  O  O36  1  0.89014700  0.38233100  0.59051800  1
  O  O37  1  0.00749600  0.21276900  0.12032000  1
  O  O38  1  0.38233100  0.59051800  0.89014700  1
  O  O39  1  0.49441900  0.61150500  0.20134200  1
  O  O40  1  0.62032000  0.71276900  0.50749600  1
  O  O41  1  0.59051800  0.89014700  0.38233100  1
  O  O42  1  0.70031500  0.09112100  0.70461600  1
  O  O43  1  0.70134200  0.11150500  0.99441900  1
  O  O44  1  0.38849500  0.79865800  0.50558100  1
  O  O45  1  0.11766900  0.60985300  0.90948200  1
  O  O46  1  0.20461600  0.59112100  0.20031500  1
  O  O47  1  0.40887900  0.79968500  0.79538400  1
loop_
_geom_bond_atom_site_label_1
_geom_bond_atom_site_label_2
_geom_bond_distance
_geom_bond_site_symmetry_2
Li0 O19 2.294036 1_555
Li0 O14 2.294036 1_555
Li0 O0 2.364556 1_555
Li0 O5 2.364556 1_545
Li0 O25 2.443278 1_555
Li0 O7 2.443278 1_555
Li0 O3 2.486311 1_555
Li0 O4 2.486311 1_545
Li1 O6 2.307217 1_555
Li1 O2 2.307217 1_556
Li1 O43 2.323849 1_555
Li1 O8 2.323849 1_555
Li1 O9 2.443725 1_556
Li1 O12 2.443725 1_555
Li1 O42 2.496184 1_555
Li1 O1 2.496184 1_555
Li2 O12 2.307217 1_565
Li2 O11 2.307217 1_555
Li2 O44 2.323849 1_555
Li2 O21 2.323849 1_555
Li2 O15 2.443725 1_555
Li2 O6 2.443725 1_565
Li2 O47 2.496184 1_555
Li2 O17 2.496184 1_555
Li3 O37 2.294036 1_555
Li3 O7 2.294036 1_555
Li3 O18 2.364556 1_555
Li3 O30 2.364556 1_455
Li3 O14 2.443278 1_555
Li3 O31 2.443278 1_555
Li3 O24 2.486311 1_555
Li3 O26 2.486311 1_455
Li4 O16 2.294036 1_555
Li4 O22 2.294036 1_555
Li4 O27 2.364556 1_556
Li4 O1 2.364556 1_555
Li4 O28 2.443278 1_555
Li4 O10 2.443278 1_555
Li4 O13 2.486311 1_556
Li4 O8 2.486311 1_555
Li5 O9 2.307217 1_555
Li5 O15 2.307217 1_655
Li5 O13 2.323849 1_555
Li5 O23 2.323849 1_555
Li5 O11 2.443725 1_655
Li5 O2 2.443725 1_555
Li5 O29 2.496184 1_555
Li5 O27 2.496184 1_555
Li6 O38 2.307217 1_555
Li6 O32 2.307217 1_455
Li6 O24 2.323849 1_555
Li6 O34 2.323849 1_555
Li6 O36 2.443725 1_455
Li6 O45 2.443725 1_555
Li6 O18 2.496184 1_555
Li6 O20 2.496184 1_555
Li7 O31 2.294036 1_555
Li7 O25 2.294036 1_555
Li7 O20 2.364556 1_554
Li7 O46 2.364556 1_555
Li7 O19 2.443278 1_555
Li7 O37 2.443278 1_555
Li7 O34 2.486311 1_554
Li7 O39 2.486311 1_555
Li8 O10 2.294036 1_555
Li8 O40 2.294036 1_555
Li8 O29 2.364556 1_555
Li8 O17 2.364556 1_655
Li8 O33 2.443278 1_555
Li8 O16 2.443278 1_555
Li8 O23 2.486311 1_555
Li8 O21 2.486311 1_655
Li9 O35 2.307217 1_545
Li9 O36 2.307217 1_555
Li9 O3 2.323849 1_555
Li9 O26 2.323849 1_555
Li9 O32 2.443725 1_555
Li9 O41 2.443725 1_545
Li9 O0 2.496184 1_555
Li9 O30 2.496184 1_555
Li10 O41 2.307217 1_555
Li10 O45 2.307217 1_554
Li10 O4 2.323849 1_555
Li10 O39 2.323849 1_555
Li10 O38 2.443725 1_554
Li10 O35 2.443725 1_555
Li10 O5 2.496184 1_555
Li10 O46 2.496184 1_555
Li11 O33 2.294036 1_555
Li11 O28 2.294036 1_555
Li11 O42 2.364556 1_565
Li11 O47 2.364556 1_555
Li11 O22 2.443278 1_555
Li11 O40 2.443278 1_555
Li11 O43 2.486311 1_565
Li11 O44 2.486311 1_555
Mn0 O14 2.075796 1_555
Mn0 O33 2.075796 1_444
Mn0 O37 2.075796 1_555
Mn0 O10 2.075796 1_444
Mn0 O22 2.075796 1_444
Mn0 O25 2.075796 1_555
Mn1 O19 2.075796 1_555
Mn1 O28 2.075796 1_555
Mn1 O31 2.075796 1_555
Mn1 O16 2.075796 1_555
Mn1 O7 2.075796 1_555
Mn1 O40 2.075796 1_555
O0 P4 1.570692 1_555
O0 V1 1.997977 1_555
O1 P0 1.570692 1_555
O1 V2 1.997977 1_656
O2 P10 1.562807 1_555
O2 V2 2.034005 1_655
O3 P0 1.560499 1_555
O3 V0 2.028920 1_555
O4 P1 1.560499 1_554
O4 V1 2.028920 1_565
O5 P3 1.570692 1_555
O5 V0 1.997977 1_565
O6 P2 1.562807 1_555
O6 V0 2.034005 1_555
O7 P2 1.543919 1_555
O8 P2 1.560499 1_555
O8 V5 2.028920 1_556
O9 P4 1.562807 1_555
O9 V5 2.034005 1_555
O10 P1 1.543919 1_655
O11 P11 1.562807 1_555
O11 V3 2.034005 1_555
O12 P5 1.562807 1_555
O12 V1 2.034005 1_556
O13 P3 1.560499 1_655
O13 V2 2.028920 1_655
O14 P3 1.543919 1_545
O15 P3 1.562807 1_555
O15 V4 2.034005 1_565
O16 P0 1.543919 1_555
O17 P1 1.570692 1_555
O17 V3 1.997977 1_555
O18 P2 1.570692 1_555
O18 V4 1.997977 1_555
O19 P4 1.543919 1_555
O20 P5 1.570692 1_555
O20 V5 1.997977 1_556
O21 P5 1.560499 1_565
O21 V4 2.028920 1_565
O22 P6 1.543919 1_556
O23 P4 1.560499 1_555
O23 V3 2.028920 1_655
O24 P8 1.560499 1_555
O24 V3 2.028920 1_555
O25 P5 1.543919 1_554
O26 P6 1.560499 1_545
O26 V4 2.028920 1_655
O27 P6 1.570692 1_555
O27 V5 1.997977 1_555
O28 P8 1.543919 1_555
O29 P9 1.570692 1_555
O29 V4 1.997977 1_665
O30 P10 1.570692 1_555
O30 V3 1.997977 1_655
O31 P11 1.543919 1_555
O32 P7 1.562807 1_555
O32 V4 2.034005 1_655
O33 P7 1.543919 1_565
O34 P7 1.560499 1_455
O34 V2 2.028920 1_556
O35 P6 1.562807 1_555
O35 V1 2.034005 1_565
O36 P0 1.562807 1_555
O36 V3 2.034005 1_655
O37 P10 1.543919 1_455
O38 P8 1.562807 1_555
O38 V5 2.034005 1_556
O39 P9 1.560499 1_555
O39 V5 2.028920 1_555
O40 P9 1.543919 1_555
O41 P9 1.562807 1_555
O41 V0 2.034005 1_565
O42 P7 1.570692 1_555
O42 V0 1.997977 1_555
O43 P10 1.560499 1_556
O43 V1 2.028920 1_556
O44 P11 1.560499 1_555
O44 V0 2.028920 1_565
O45 P1 1.562807 1_555
O45 V2 2.034005 1_556
O46 P11 1.570692 1_555
O46 V2 1.997977 1_555
O47 P8 1.570692 1_555
O47 V1 1.997977 1_566
