# generated using pymatgen
data_LiMnPO4
_symmetry_space_group_name_H-M   'P 1'
_cell_length_a   6.02192800
_cell_length_b   7.82851201
_cell_length_c   8.68698889
_cell_angle_alpha   116.77623546
_cell_angle_beta   89.99860784
_cell_angle_gamma   90.00237716
_symmetry_Int_Tables_number   1
_chemical_formula_structural   LiMnPO4
_chemical_formula_sum   'Li4 Mn4 P4 O16'
_cell_volume   365.61581513
_cell_formula_units_Z   4
loop_
 _symmetry_equiv_pos_site_id
 _symmetry_equiv_pos_as_xyz
  1  'x, y, z'
loop_
 _atom_site_type_symbol
 _atom_site_label
 _atom_site_symmetry_multiplicity
 _atom_site_fract_x
 _atom_site_fract_y
 _atom_site_fract_z
 _atom_site_occupancy
  Li  Li0  1  0.76509800  0.26390300  0.53016000  1
  Li  Li1  1  0.26505000  0.26656700  0.53020300  1
  Li  Li2  1  0.26505000  0.73345300  0.46980600  1
  Li  Li3  1  0.76509400  0.73608800  0.46983200  1
  Mn  Mn0  1  0.01376300  0.29031800  0.19322000  1
  Mn  Mn1  1  0.01371100  0.70973600  0.80680600  1
  Mn  Mn2  1  0.51378500  0.09709600  0.80660500  1
  Mn  Mn3  1  0.51377700  0.90284500  0.19338000  1
  P  P0  1  0.01711500  0.07784200  0.74172000  1
  P  P1  1  0.51707000  0.66399200  0.74190100  1
  P  P2  1  0.51710000  0.33600500  0.25810000  1
  P  P3  1  0.01711000  0.92216100  0.25827900  1
  O  O0  1  0.02385200  0.13757000  0.93529400  1
  O  O1  1  0.52381900  0.20219300  0.06453700  1
  O  O2  1  0.52384400  0.79782000  0.93546300  1
  O  O3  1  0.02385400  0.86244000  0.06470700  1
  O  O4  1  0.80123900  0.15251900  0.69389900  1
  O  O5  1  0.30114600  0.54155200  0.69407400  1
  O  O6  1  0.30120600  0.45847700  0.30596300  1
  O  O7  1  0.80122700  0.84747600  0.30609400  1
  O  O8  1  0.23060100  0.15064400  0.68898900  1
  O  O9  1  0.73055200  0.53848100  0.68917000  1
  O  O10  1  0.73060000  0.46150600  0.31081600  1
  O  O11  1  0.23057300  0.84932600  0.31099300  1
  O  O12  1  0.51494200  0.20748600  0.35609500  1
  O  O13  1  0.01494400  0.14865700  0.35617000  1
  O  O14  1  0.01491700  0.85134500  0.64382800  1
  O  O15  1  0.51492700  0.79250200  0.64389800  1
loop_
_geom_bond_atom_site_label_1
_geom_bond_atom_site_label_2
_geom_bond_distance
_geom_bond_site_symmetry_2
Li0 O9 1.973971 1_555
Li0 O4 1.987076 1_555
Li0 O13 2.033097 1_655
Li0 O12 2.036945 1_555
Li1 O8 1.974111 1_555
Li1 O5 1.986647 1_555
Li1 O12 2.033634 1_555
Li1 O13 2.036829 1_555
Li2 O11 1.974053 1_555
Li2 O6 1.986589 1_555
Li2 O15 2.033531 1_555
Li2 O14 2.036883 1_555
Li3 O10 1.973962 1_555
Li3 O7 1.987071 1_555
Li3 O14 2.033031 1_655
Li3 O15 2.036975 1_555
Mn0 O0 2.009930 1_554
Mn0 O10 2.124575 1_455
Mn0 O6 2.127592 1_555
Mn0 O13 2.155952 1_555
Mn1 O3 2.009724 1_556
Mn1 O9 2.124792 1_455
Mn1 O5 2.127667 1_555
Mn1 O14 2.155838 1_555
Mn2 O1 2.009994 1_556
Mn2 O8 2.124573 1_555
Mn2 O4 2.127417 1_555
Mn2 O15 2.155696 1_545
Mn3 O2 2.009930 1_554
Mn3 O11 2.124493 1_555
Mn3 O7 2.127330 1_555
Mn3 O12 2.156006 1_565
O0 P0 1.529553 1_555
O1 P2 1.529475 1_555
O2 P1 1.529501 1_555
O3 P3 1.529546 1_555
O4 P0 1.556671 1_655
O5 P1 1.556667 1_555
O6 P2 1.556686 1_555
O7 P3 1.556657 1_655
O8 P0 1.556455 1_555
O9 P1 1.556440 1_555
O10 P2 1.556440 1_555
O11 P3 1.556459 1_555
O12 P2 1.583924 1_555
O13 P3 1.583893 1_545
O14 P0 1.583901 1_565
O15 P1 1.583920 1_555
