# generated using pymatgen
data_Li2Fe3CuO8
_symmetry_space_group_name_H-M   'P 1'
_cell_length_a   8.37760721
_cell_length_b   8.41644498
_cell_length_c   8.30721577
_cell_angle_alpha   89.84301275
_cell_angle_beta   90.05865225
_cell_angle_gamma   90.01071425
_symmetry_Int_Tables_number   1
_chemical_formula_structural   Li2Fe3CuO8
_chemical_formula_sum   'Li8 Fe12 Cu4 O32'
_cell_volume   585.73652792
_cell_formula_units_Z   4
loop_
 _symmetry_equiv_pos_site_id
 _symmetry_equiv_pos_as_xyz
  1  'x, y, z'
loop_
 _atom_site_type_symbol
 _atom_site_label
 _atom_site_symmetry_multiplicity
 _atom_site_fract_x
 _atom_site_fract_y
 _atom_site_fract_z
 _atom_site_occupancy
  Li  Li0  1  0.12115000  0.87624000  0.37639300  1
  Li  Li1  1  0.24934900  0.75295400  0.74768900  1
  Li  Li2  1  0.24915700  0.24999800  0.24700000  1
  Li  Li3  1  0.37799600  0.12174900  0.87856000  1
  Li  Li4  1  0.62390200  0.62313600  0.62170400  1
  Li  Li5  1  0.75087900  0.74894100  0.25018500  1
  Li  Li6  1  0.75152100  0.25212100  0.75079700  1
  Li  Li7  1  0.87698600  0.37872800  0.12299200  1
  Fe  Fe0  1  0.12216100  0.62423100  0.12227600  1
  Fe  Fe1  1  0.12161100  0.37639000  0.88002100  1
  Fe  Fe2  1  0.12362600  0.11964100  0.62421700  1
  Fe  Fe3  1  0.37551300  0.87918000  0.12192300  1
  Fe  Fe4  1  0.37594600  0.62259100  0.37828400  1
  Fe  Fe5  1  0.37901500  0.37626500  0.62393200  1
  Fe  Fe6  1  0.62068600  0.87540100  0.87767200  1
  Fe  Fe7  1  0.62254200  0.12376800  0.12049700  1
  Fe  Fe8  1  0.62540100  0.38089400  0.37658600  1
  Fe  Fe9  1  0.87798700  0.62160800  0.87760300  1
  Fe  Fe10  1  0.87809700  0.87540700  0.62087900  1
  Fe  Fe11  1  0.88019000  0.12365100  0.37556500  1
  Cu  Cu0  1  0.99682200  0.50216400  0.49911200  1
  Cu  Cu1  1  0.50544200  0.49730600  0.99564400  1
  Cu  Cu2  1  0.49493700  0.99603700  0.50420500  1
  Cu  Cu3  1  0.00278100  0.00093300  0.00348500  1
  O  O0  1  0.10357500  0.12613600  0.38607800  1
  O  O1  1  0.10685800  0.89318200  0.62864900  1
  O  O2  1  0.11282700  0.61630200  0.88383000  1
  O  O3  1  0.12598900  0.39780000  0.10672100  1
  O  O4  1  0.11987700  0.14501800  0.86963400  1
  O  O5  1  0.13275500  0.36439500  0.64012700  1
  O  O6  1  0.13857400  0.61945900  0.35617000  1
  O  O7  1  0.13884000  0.85488600  0.11850200  1
  O  O8  1  0.35732000  0.13648500  0.62007300  1
  O  O9  1  0.36153800  0.38228100  0.86124800  1
  O  O10  1  0.36154000  0.63289500  0.13772800  1
  O  O11  1  0.37836100  0.85284700  0.36366400  1
  O  O12  1  0.37166100  0.61181900  0.60063500  1
  O  O13  1  0.38214800  0.39030400  0.38289700  1
  O  O14  1  0.39316300  0.10630900  0.12960300  1
  O  O15  1  0.39527500  0.87108700  0.88779100  1
  O  O16  1  0.60903600  0.37434600  0.60423900  1
  O  O17  1  0.60348900  0.60883400  0.37161700  1
  O  O18  1  0.61586900  0.88280300  0.11329500  1
  O  O19  1  0.62700600  0.11207500  0.89652400  1
  O  O20  1  0.62391000  0.36157100  0.14101800  1
  O  O21  1  0.63850600  0.13380200  0.36192700  1
  O  O22  1  0.63983000  0.87901500  0.64295500  1
  O  O23  1  0.64768900  0.63306100  0.88226900  1
  O  O24  1  0.86064700  0.36334300  0.37757100  1
  O  O25  1  0.86079500  0.12133800  0.13916300  1
  O  O26  1  0.86385300  0.85954200  0.86481500  1
  O  O27  1  0.88004200  0.64090500  0.63994000  1
  O  O28  1  0.87276800  0.88850700  0.39643700  1
  O  O29  1  0.88537600  0.11338500  0.61656700  1
  O  O30  1  0.89012900  0.39966000  0.87345400  1
  O  O31  1  0.89705700  0.62735200  0.10771800  1
loop_
_geom_bond_atom_site_label_1
_geom_bond_atom_site_label_2
_geom_bond_distance
_geom_bond_site_symmetry_2
Li0 O28 2.090261 1_455
Li0 O1 2.104313 1_555
Li0 O0 2.110171 1_565
Li0 O7 2.155626 1_555
Li0 O11 2.166542 1_555
Li0 O6 2.173109 1_555
Li1 O1 1.946161 1_555
Li1 O15 1.959751 1_555
Li1 O2 1.976102 1_555
Li1 O12 1.991048 1_555
Li2 O14 1.969392 1_555
Li2 O0 1.976082 1_555
Li2 O13 1.978511 1_555
Li2 O3 1.990035 1_555
Li3 O19 2.092870 1_555
Li3 O14 2.092890 1_556
Li3 O15 2.115845 1_545
Li3 O8 2.157337 1_555
Li3 O4 2.172478 1_555
Li3 O9 2.201410 1_555
Li4 O17 2.088178 1_555
Li4 O16 2.103003 1_555
Li4 O12 2.122375 1_555
Li4 O27 2.156220 1_555
Li4 O22 2.165376 1_555
Li4 O23 2.175351 1_555
Li5 O18 1.957705 1_555
Li5 O28 1.975716 1_555
Li5 O17 1.981988 1_555
Li5 O31 1.989395 1_555
Li6 O29 1.968381 1_555
Li6 O30 1.983067 1_555
Li6 O19 1.984255 1_555
Li6 O16 1.988970 1_555
Li7 O30 2.082980 1_554
Li7 O3 2.096657 1_655
Li7 O31 2.102739 1_555
Li7 O24 2.123005 1_555
Li7 O20 2.130450 1_555
Li7 O25 2.174321 1_555
Fe0 O31 1.889766 1_455
Fe0 O3 1.910750 1_555
Fe0 O7 1.946460 1_555
Fe0 O6 1.948032 1_555
Fe0 O2 1.983590 1_554
Fe0 O10 2.010718 1_555
Fe1 O3 1.892656 1_556
Fe1 O4 1.949527 1_555
Fe1 O30 1.949859 1_455
Fe1 O5 1.997962 1_555
Fe1 O9 2.016804 1_555
Fe1 O2 2.020896 1_555
Fe2 O1 1.911380 1_545
Fe2 O8 1.963226 1_555
Fe2 O0 1.985824 1_555
Fe2 O29 1.997600 1_455
Fe2 O4 2.050744 1_555
Fe2 O5 2.065952 1_555
Fe3 O14 1.918532 1_565
Fe3 O15 1.953562 1_554
Fe3 O7 1.993412 1_555
Fe3 O18 2.015179 1_555
Fe3 O11 2.019901 1_555
Fe3 O10 2.079922 1_555
Fe4 O12 1.849478 1_555
Fe4 O17 1.910669 1_555
Fe4 O11 1.941510 1_555
Fe4 O13 1.956000 1_555
Fe4 O6 1.997065 1_555
Fe4 O10 2.003510 1_555
Fe5 O16 1.934198 1_555
Fe5 O9 1.977801 1_555
Fe5 O12 1.992381 1_555
Fe5 O13 2.005688 1_555
Fe5 O8 2.026567 1_555
Fe5 O5 2.069965 1_555
Fe6 O15 1.890698 1_555
Fe6 O22 1.956746 1_555
Fe6 O18 1.958990 1_556
Fe6 O19 1.999215 1_565
Fe6 O26 2.044471 1_555
Fe6 O23 2.052437 1_555
Fe7 O19 1.863876 1_554
Fe7 O14 1.928775 1_555
Fe7 O25 2.001950 1_555
Fe7 O20 2.009198 1_555
Fe7 O21 2.011932 1_555
Fe7 O18 2.029873 1_545
Fe8 O16 1.896915 1_555
Fe8 O17 1.927567 1_555
Fe8 O20 1.964131 1_555
Fe8 O24 1.976361 1_555
Fe8 O13 2.040164 1_555
Fe8 O21 2.086449 1_555
Fe9 O30 1.871213 1_555
Fe9 O31 1.918857 1_556
Fe9 O23 1.932204 1_555
Fe9 O2 1.968536 1_655
Fe9 O27 1.980635 1_555
Fe9 O26 2.008592 1_555
Fe10 O28 1.867932 1_555
Fe10 O1 1.923303 1_655
Fe10 O27 1.979651 1_555
Fe10 O29 2.004069 1_565
Fe10 O22 2.004944 1_555
Fe10 O26 2.034082 1_555
Fe11 O0 1.873495 1_655
Fe11 O25 1.970536 1_555
Fe11 O28 1.987151 1_545
Fe11 O29 2.004110 1_555
Fe11 O24 2.024133 1_555
Fe11 O21 2.029587 1_555
Cu0 O24 1.920838 1_555
Cu0 O27 1.923428 1_555
Cu0 O6 1.947023 1_655
Cu0 O5 2.000986 1_655
Cu1 O23 1.899615 1_555
Cu1 O9 1.907833 1_555
Cu1 O20 1.933634 1_556
Cu1 O10 2.039514 1_556
Cu2 O8 1.913630 1_565
Cu2 O22 1.939949 1_555
Cu2 O11 1.942728 1_555
Cu2 O21 2.045217 1_565
Cu3 O4 1.914084 1_554
Cu3 O7 1.927424 1_545
Cu3 O25 1.929167 1_455
Cu3 O26 2.025343 1_444
