# generated using pymatgen
data_ZnFeO3
_symmetry_space_group_name_H-M   'P 1'
_cell_length_a   5.49710804
_cell_length_b   5.49710804
_cell_length_c   5.49710760
_cell_angle_alpha   55.65057931
_cell_angle_beta   55.65057931
_cell_angle_gamma   55.65058378
_symmetry_Int_Tables_number   1
_chemical_formula_structural   ZnFeO3
_chemical_formula_sum   'Zn2 Fe2 O6'
_cell_volume   105.60542374
_cell_formula_units_Z   2
loop_
 _symmetry_equiv_pos_site_id
 _symmetry_equiv_pos_as_xyz
  1  'x, y, z'
loop_
 _atom_site_type_symbol
 _atom_site_label
 _atom_site_symmetry_multiplicity
 _atom_site_fract_x
 _atom_site_fract_y
 _atom_site_fract_z
 _atom_site_occupancy
  Zn  Zn0  1  0.63698300  0.63698300  0.63698300  1
  Zn  Zn1  1  0.36301700  0.36301700  0.36301700  1
  Fe  Fe0  1  0.84676700  0.84676700  0.84676700  1
  Fe  Fe1  1  0.15323300  0.15323300  0.15323300  1
  O  O0  1  0.55929600  0.95450100  0.22614700  1
  O  O1  1  0.77385300  0.44070400  0.04549900  1
  O  O2  1  0.04549900  0.77385300  0.44070400  1
  O  O3  1  0.95450100  0.22614700  0.55929600  1
  O  O4  1  0.22614700  0.55929600  0.95450100  1
  O  O5  1  0.44070400  0.04549900  0.77385300  1
loop_
_geom_bond_atom_site_label_1
_geom_bond_atom_site_label_2
_geom_bond_distance
_geom_bond_site_symmetry_2
Fe0 O0 1.953421 1_556
Fe0 O3 1.953421 1_565
Fe0 O4 1.953421 1_655
Fe0 O2 2.024937 1_655
Fe0 O1 2.024937 1_556
Fe0 O5 2.024937 1_565
Fe1 O5 1.953421 1_554
Fe1 O2 1.953421 1_545
Fe1 O1 1.953421 1_455
Fe1 O3 2.024937 1_455
Fe1 O4 2.024937 1_554
Fe1 O0 2.024937 1_545
O0 Zn0 2.031795 1_555
O0 Zn1 2.242661 1_565
O1 Zn1 2.031796 1_555
O1 Zn0 2.242661 1_554
O2 Zn1 2.031796 1_555
O2 Zn0 2.242661 1_455
O3 Zn0 2.031796 1_555
O3 Zn1 2.242661 1_655
O4 Zn0 2.031796 1_555
O4 Zn1 2.242661 1_556
O5 Zn1 2.031795 1_555
O5 Zn0 2.242661 1_545
