# generated using pymatgen
data_Li2AsPCO7
_symmetry_space_group_name_H-M   'P 1'
_cell_length_a   6.54174100
_cell_length_b   5.09745300
_cell_length_c   8.94338773
_cell_angle_alpha   86.07143802
_cell_angle_beta   90.00000000
_cell_angle_gamma   90.00000000
_symmetry_Int_Tables_number   1
_chemical_formula_structural   Li2AsPCO7
_chemical_formula_sum   'Li4 As2 P2 C2 O14'
_cell_volume   297.52738876
_cell_formula_units_Z   2
loop_
 _symmetry_equiv_pos_site_id
 _symmetry_equiv_pos_as_xyz
  1  'x, y, z'
loop_
 _atom_site_type_symbol
 _atom_site_label
 _atom_site_symmetry_multiplicity
 _atom_site_fract_x
 _atom_site_fract_y
 _atom_site_fract_z
 _atom_site_occupancy
  Li  Li0  1  0.45785600  0.24037600  0.76844800  1
  Li  Li1  1  0.04214400  0.24037600  0.76844800  1
  Li  Li2  1  0.54214400  0.75962400  0.23155200  1
  Li  Li3  1  0.95785600  0.75962400  0.23155200  1
  As  As0  1  0.75000000  0.82040200  0.64691100  1
  As  As1  1  0.25000000  0.17959800  0.35308900  1
  P  P0  1  0.25000000  0.74602100  0.60443500  1
  P  P1  1  0.75000000  0.25397900  0.39556500  1
  C  C0  1  0.75000000  0.72456800  0.93032200  1
  C  C1  1  0.25000000  0.27543200  0.06967800  1
  O  O0  1  0.25000000  0.25777900  0.93083000  1
  O  O1  1  0.75000000  0.95308400  0.83905700  1
  O  O2  1  0.75000000  0.51406600  0.85858300  1
  O  O3  1  0.06297200  0.88457500  0.67177500  1
  O  O4  1  0.43702800  0.88457500  0.67177500  1
  O  O5  1  0.75000000  0.18987300  0.57316800  1
  O  O6  1  0.25000000  0.44904600  0.63454200  1
  O  O7  1  0.75000000  0.55095400  0.36545800  1
  O  O8  1  0.25000000  0.81012700  0.42683200  1
  O  O9  1  0.56297200  0.11542500  0.32822500  1
  O  O10  1  0.93702800  0.11542500  0.32822500  1
  O  O11  1  0.25000000  0.48593400  0.14141700  1
  O  O12  1  0.25000000  0.04691600  0.16094300  1
  O  O13  1  0.75000000  0.74222100  0.06917000  1
loop_
_geom_bond_atom_site_label_1
_geom_bond_atom_site_label_2
_geom_bond_distance
_geom_bond_site_symmetry_2
Li0 O0 1.995854 1_555
Li0 O6 2.059115 1_555
Li0 O4 2.066487 1_545
Li0 O1 2.463556 1_545
Li0 O2 2.530356 1_555
Li0 O5 2.613511 1_555
Li1 O0 1.995854 1_555
Li1 O6 2.059115 1_555
Li1 O3 2.066487 1_545
Li1 O1 2.463556 1_445
Li1 O2 2.530356 1_455
Li1 O5 2.613511 1_455
Li2 O13 1.995854 1_555
Li2 O7 2.059115 1_555
Li2 O9 2.066487 1_565
Li2 O12 2.463556 1_565
Li2 O11 2.530356 1_555
Li2 O8 2.613511 1_555
Li3 O13 1.995854 1_555
Li3 O7 2.059115 1_555
Li3 O10 2.066487 1_565
Li3 O12 2.463556 1_665
Li3 O11 2.530356 1_655
Li3 O8 2.613511 1_655
As0 O1 1.889369 1_555
As0 O5 1.952385 1_565
As0 O3 2.087629 1_655
As0 O4 2.087629 1_555
As0 O2 2.370026 1_555
As1 O12 1.889369 1_555
As1 O8 1.952385 1_545
As1 O10 2.087629 1_455
As1 O9 2.087629 1_555
As1 O11 2.370026 1_555
C0 O13 1.251162 1_556
C0 O2 1.287382 1_555
C0 O1 1.375793 1_555
C1 O0 1.251162 1_554
C1 O11 1.287382 1_555
C1 O12 1.375793 1_555
O3 P0 1.554584 1_555
O4 P0 1.554584 1_555
O5 P1 1.599559 1_555
O6 P0 1.519305 1_555
O7 P1 1.519305 1_555
O8 P0 1.599559 1_555
O9 P1 1.554584 1_555
O10 P1 1.554584 1_555
