# generated using pymatgen
data_Cr3WO8
_symmetry_space_group_name_H-M   'P 1'
_cell_length_a   5.99019200
_cell_length_b   5.98998053
_cell_length_c   9.18750302
_cell_angle_alpha   89.99402687
_cell_angle_beta   90.00055756
_cell_angle_gamma   119.99994826
_symmetry_Int_Tables_number   1
_chemical_formula_structural   Cr3WO8
_chemical_formula_sum   'Cr6 W2 O16'
_cell_volume   285.49236816
_cell_formula_units_Z   2
loop_
 _symmetry_equiv_pos_site_id
 _symmetry_equiv_pos_as_xyz
  1  'x, y, z'
loop_
 _atom_site_type_symbol
 _atom_site_label
 _atom_site_symmetry_multiplicity
 _atom_site_fract_x
 _atom_site_fract_y
 _atom_site_fract_z
 _atom_site_occupancy
  Cr  Cr0  1  0.17039100  0.82961500  0.21406600  1
  Cr  Cr1  1  0.17039600  0.34078700  0.21408200  1
  Cr  Cr2  1  0.65921200  0.82960700  0.21407700  1
  Cr  Cr3  1  0.34079300  0.17038600  0.71409700  1
  Cr  Cr4  1  0.82961800  0.65925500  0.71401600  1
  Cr  Cr5  1  0.82958700  0.17038000  0.71408800  1
  W  W0  1  0.33333800  0.66669400  0.49370200  1
  W  W1  1  0.66668800  0.33338500  0.99369800  1
  O  O0  1  0.17457300  0.82546900  0.59638800  1
  O  O1  1  0.04823600  0.52410200  0.34286700  1
  O  O2  1  0.33334900  0.66668000  0.10864500  1
  O  O3  1  0.99998700  0.99997900  0.29555600  1
  O  O4  1  0.00001600  0.00003400  0.79554800  1
  O  O5  1  0.17456500  0.34914300  0.59641100  1
  O  O6  1  0.47588700  0.95178200  0.34283600  1
  O  O7  1  0.47586400  0.52409000  0.34287200  1
  O  O8  1  0.34913600  0.17458600  0.09639500  1
  O  O9  1  0.65087200  0.82546800  0.59638900  1
  O  O10  1  0.52412200  0.47589300  0.84283500  1
  O  O11  1  0.52410900  0.04821200  0.84287800  1
  O  O12  1  0.66663000  0.33328400  0.60863500  1
  O  O13  1  0.82544400  0.65089700  0.09639700  1
  O  O14  1  0.95175200  0.47588300  0.84283800  1
  O  O15  1  0.82543800  0.17458700  0.09640200  1
loop_
_geom_bond_atom_site_label_1
_geom_bond_atom_site_label_2
_geom_bond_distance
_geom_bond_site_symmetry_2
Cr0 O3 1.919811 1_455
Cr0 O2 1.948439 1_555
Cr0 O6 1.986200 1_555
Cr0 O1 1.986258 1_555
Cr0 O8 2.090972 1_565
Cr0 O13 2.091060 1_455
Cr1 O3 1.919792 1_445
Cr1 O2 1.948336 1_555
Cr1 O1 1.986199 1_555
Cr1 O7 1.986204 1_555
Cr1 O8 2.091107 1_555
Cr1 O15 2.091162 1_455
Cr2 O3 1.919823 1_555
Cr2 O2 1.948367 1_555
Cr2 O6 1.986151 1_555
Cr2 O7 1.986243 1_555
Cr2 O15 2.091030 1_565
Cr2 O13 2.091076 1_555
Cr3 O4 1.919665 1_555
Cr3 O12 1.948305 1_555
Cr3 O10 1.986096 1_555
Cr3 O11 1.986124 1_555
Cr3 O0 2.091122 1_545
Cr3 O5 2.091173 1_555
Cr4 O4 1.920020 1_665
Cr4 O12 1.948624 1_555
Cr4 O10 1.986389 1_555
Cr4 O14 1.986408 1_555
Cr4 O9 2.090784 1_555
Cr4 O0 2.090814 1_655
Cr5 O4 1.919646 1_655
Cr5 O12 1.948331 1_555
Cr5 O14 1.986148 1_555
Cr5 O11 1.986160 1_555
Cr5 O9 2.091055 1_545
Cr5 O5 2.091145 1_655
O0 W0 1.898348 1_555
O1 W0 2.026848 1_555
O5 W0 1.898331 1_555
O6 W0 2.026786 1_555
O7 W0 2.026920 1_555
O8 W1 1.898385 1_554
O9 W0 1.898338 1_555
O10 W1 2.026782 1_555
O11 W1 2.027051 1_555
O13 W1 1.898297 1_554
O14 W1 2.026762 1_555
O15 W1 1.898358 1_554
