# generated using pymatgen
data_Li2CoP2O7
_symmetry_space_group_name_H-M   'P 1'
_cell_length_a   6.80434974
_cell_length_b   13.06648019
_cell_length_c   7.02162232
_cell_angle_alpha   89.97025279
_cell_angle_beta   90.15326575
_cell_angle_gamma   89.98244663
_symmetry_Int_Tables_number   1
_chemical_formula_structural   Li2CoP2O7
_chemical_formula_sum   'Li8 Co4 P8 O28'
_cell_volume   624.28237694
_cell_formula_units_Z   4
loop_
 _symmetry_equiv_pos_site_id
 _symmetry_equiv_pos_as_xyz
  1  'x, y, z'
loop_
 _atom_site_type_symbol
 _atom_site_label
 _atom_site_symmetry_multiplicity
 _atom_site_fract_x
 _atom_site_fract_y
 _atom_site_fract_z
 _atom_site_occupancy
  Li  Li0  1  0.99976100  0.23110100  0.00045300  1
  Li  Li1  1  0.49970800  0.73117100  0.49993100  1
  Li  Li2  1  0.49989600  0.26890700  0.00008300  1
  Li  Li3  1  0.99983200  0.76875400  0.49961700  1
  Li  Li4  1  0.50010500  0.73109400  0.99991600  1
  Li  Li5  1  0.00016900  0.23124700  0.50038200  1
  Li  Li6  1  0.00024100  0.76889900  0.99954600  1
  Li  Li7  1  0.50029200  0.26882900  0.50006900  1
  Co  Co0  1  0.49999900  0.50000000  0.50000000  1
  Co  Co1  1  0.49999900  0.50000000  0.99999900  1
  Co  Co2  1  0.00000100  0.99999900  0.00000000  1
  Co  Co3  1  0.00000100  0.00000000  0.50000000  1
  P  P0  1  0.81466400  0.38982500  0.75031000  1
  P  P1  1  0.31494600  0.88970000  0.24827400  1
  P  P2  1  0.18560800  0.38984000  0.24993400  1
  P  P3  1  0.68517200  0.88985300  0.75142500  1
  P  P4  1  0.81439100  0.61016000  0.75006600  1
  P  P5  1  0.31483000  0.11014700  0.24857400  1
  P  P6  1  0.18533400  0.61017500  0.24969000  1
  P  P7  1  0.68505500  0.11030000  0.75172700  1
  O  O0  1  0.07393100  0.49997700  0.24944600  1
  O  O1  1  0.57350800  0.00006900  0.75080400  1
  O  O2  1  0.92606800  0.50002300  0.75055400  1
  O  O3  1  0.42649400  0.99993000  0.24919600  1
  O  O4  1  0.03019900  0.30734800  0.24972700  1
  O  O5  1  0.52978300  0.80733300  0.74984100  1
  O  O6  1  0.97032200  0.30741200  0.75086000  1
  O  O7  1  0.47045200  0.80720600  0.24983700  1
  O  O8  1  0.02967400  0.69258800  0.24914100  1
  O  O9  1  0.52954800  0.19279400  0.75016500  1
  O  O10  1  0.96980000  0.69265100  0.75027300  1
  O  O11  1  0.47021600  0.19266700  0.25016000  1
  O  O12  1  0.18542300  0.11232400  0.06620700  1
  O  O13  1  0.68409100  0.61227600  0.56824200  1
  O  O14  1  0.81424400  0.11231100  0.93429800  1
  O  O15  1  0.31550700  0.61232600  0.43159000  1
  O  O16  1  0.68402400  0.38774000  0.93110800  1
  O  O17  1  0.18292200  0.88773300  0.42797000  1
  O  O18  1  0.31617900  0.38778600  0.06910200  1
  O  O19  1  0.81698300  0.88803600  0.57153900  1
  O  O20  1  0.68382000  0.61221400  0.93089700  1
  O  O21  1  0.18301600  0.11196400  0.42846000  1
  O  O22  1  0.31597600  0.61226200  0.06889100  1
  O  O23  1  0.81708000  0.11226800  0.57203100  1
  O  O24  1  0.81457800  0.88767600  0.93379300  1
  O  O25  1  0.31590900  0.38772400  0.43175700  1
  O  O26  1  0.18575700  0.88768700  0.06570400  1
  O  O27  1  0.68449200  0.38767400  0.56840800  1
loop_
_geom_bond_atom_site_label_1
_geom_bond_atom_site_label_2
_geom_bond_distance
_geom_bond_site_symmetry_2
Li0 O4 2.024610 1_655
Li0 O6 2.025333 1_554
Li0 O12 2.052498 1_655
Li0 O14 2.053599 1_554
Li1 O7 2.026488 1_555
Li1 O5 2.027680 1_555
Li1 O15 2.052171 1_555
Li1 O13 2.052414 1_555
Li2 O9 2.028006 1_554
Li2 O11 2.028972 1_555
Li2 O18 2.052612 1_555
Li2 O16 2.053990 1_554
Li3 O10 2.031861 1_555
Li3 O8 2.031870 1_655
Li3 O17 2.055663 1_655
Li3 O19 2.057960 1_555
Li4 O7 2.028018 1_556
Li4 O5 2.028952 1_555
Li4 O20 2.052614 1_555
Li4 O22 2.053984 1_556
Li5 O4 2.031841 1_555
Li5 O6 2.031879 1_455
Li5 O23 2.055662 1_455
Li5 O21 2.057962 1_555
Li6 O10 2.024612 1_455
Li6 O8 2.025341 1_556
Li6 O24 2.052500 1_455
Li6 O26 2.053580 1_556
Li7 O9 2.026500 1_555
Li7 O11 2.027675 1_555
Li7 O27 2.052163 1_555
Li7 O25 2.052415 1_555
Co0 O25 1.987344 1_555
Co0 O13 1.987351 1_555
Co0 O15 1.988896 1_555
Co0 O27 1.988897 1_555
Co1 O18 1.988309 1_556
Co1 O20 1.988311 1_555
Co1 O16 1.989071 1_555
Co1 O22 1.989083 1_556
Co2 O26 1.989742 1_555
Co2 O14 1.989743 1_464
Co2 O24 1.990153 1_454
Co2 O12 1.990168 1_565
Co3 O21 1.986730 1_555
Co3 O19 1.986741 1_445
Co3 O17 1.989948 1_545
Co3 O23 1.989959 1_455
O0 P2 1.627198 1_555
O0 P6 1.627446 1_555
O1 P3 1.628070 1_545
O1 P7 1.628293 1_555
O2 P4 1.627198 1_555
O2 P0 1.627449 1_555
O3 P5 1.628081 1_565
O3 P1 1.628284 1_555
O4 P2 1.510210 1_555
O5 P3 1.510402 1_555
O6 P0 1.510196 1_555
O7 P1 1.510245 1_555
O8 P6 1.510206 1_555
O9 P7 1.510250 1_555
O10 P4 1.510201 1_555
O11 P5 1.510388 1_555
O12 P5 1.552343 1_555
O13 P4 1.552640 1_555
O14 P7 1.552680 1_555
O15 P6 1.552628 1_555
O16 P0 1.551952 1_555
O17 P1 1.551047 1_555
O18 P2 1.551885 1_555
O19 P3 1.551274 1_555
O20 P4 1.551879 1_555
O21 P5 1.551286 1_555
O22 P6 1.551966 1_555
O23 P7 1.551051 1_555
O24 P3 1.552345 1_555
O25 P2 1.552638 1_555
O26 P1 1.552675 1_555
O27 P0 1.552636 1_555
