# generated using pymatgen
data_Fe35SiO48
_symmetry_space_group_name_H-M   'P 1'
_cell_length_a   10.46859477
_cell_length_b   10.46859477
_cell_length_c   10.53574814
_cell_angle_alpha   80.07376062
_cell_angle_beta   80.07376062
_cell_angle_gamma   119.60383727
_symmetry_Int_Tables_number   1
_chemical_formula_structural   Fe35SiO48
_chemical_formula_sum   'Fe35 Si1 O48'
_cell_volume   943.10978600
_cell_formula_units_Z   1
loop_
 _symmetry_equiv_pos_site_id
 _symmetry_equiv_pos_as_xyz
  1  'x, y, z'
loop_
 _atom_site_type_symbol
 _atom_site_label
 _atom_site_symmetry_multiplicity
 _atom_site_fract_x
 _atom_site_fract_y
 _atom_site_fract_z
 _atom_site_occupancy
  Fe  Fe0  1  0.10477600  0.26556300  0.18588000  1
  Fe  Fe1  1  0.26556300  0.10477600  0.18588000  1
  Fe  Fe2  1  0.18816200  0.18816200  0.43622500  1
  Fe  Fe3  1  0.76929800  0.10105900  0.18795200  1
  Fe  Fe4  1  0.43825500  0.43825500  0.19048200  1
  Fe  Fe5  1  0.10105900  0.76929800  0.18795200  1
  Fe  Fe6  1  0.54265100  0.20491700  0.37771100  1
  Fe  Fe7  1  0.20491700  0.54265100  0.37771100  1
  Fe  Fe8  1  0.43521100  0.94110200  0.18505000  1
  Fe  Fe9  1  0.27808500  0.10670000  0.68700500  1
  Fe  Fe10  1  0.94110200  0.43521100  0.18505000  1
  Fe  Fe11  1  0.77351000  0.60340800  0.19003300  1
  Fe  Fe12  1  0.10670000  0.27808500  0.68700500  1
  Fe  Fe13  1  0.60340800  0.77351000  0.19003300  1
  Fe  Fe14  1  0.49647600  0.49647600  0.49977600  1
  Fe  Fe15  1  0.83765900  0.16828000  0.49867900  1
  Fe  Fe16  1  0.16828000  0.83765900  0.49867900  1
  Fe  Fe17  1  0.60520100  0.27370800  0.68687700  1
  Fe  Fe18  1  0.27370800  0.60520100  0.68687700  1
  Fe  Fe19  1  0.35950300  0.02659100  0.93300000  1
  Fe  Fe20  1  0.85003700  0.51440600  0.44224000  1
  Fe  Fe21  1  0.02659100  0.35950300  0.93300000  1
  Fe  Fe22  1  0.51440600  0.85003700  0.44224000  1
  Fe  Fe23  1  0.37617200  0.37617200  0.87462700  1
  Fe  Fe24  1  0.04224400  0.70767700  0.87368900  1
  Fe  Fe25  1  0.87233500  0.87233500  0.37867700  1
  Fe  Fe26  1  0.70767700  0.04224400  0.87368900  1
  Fe  Fe27  1  0.93791400  0.43828700  0.68795900  1
  Fe  Fe28  1  0.43828700  0.93791400  0.68795900  1
  Fe  Fe29  1  0.76879100  0.59787400  0.68597600  1
  Fe  Fe30  1  0.59787400  0.76879100  0.68597600  1
  Fe  Fe31  1  0.66733800  0.33307400  0.00164500  1
  Fe  Fe32  1  0.33307400  0.66733800  0.00164500  1
  Fe  Fe33  1  0.93629500  0.93629500  0.69009200  1
  Fe  Fe34  1  0.68827900  0.68827900  0.93419000  1
  Si  Si0  1  0.99666500  0.99666500  0.99797500  1
  O  O0  1  0.46455800  0.12747000  0.06063700  1
  O  O1  1  0.12747000  0.46455800  0.06063700  1
  O  O2  1  0.31643600  0.31643600  0.06830600  1
  O  O3  1  0.06247900  0.06247900  0.32445100  1
  O  O4  1  0.56680400  0.04930000  0.30354700  1
  O  O5  1  0.38552500  0.23758800  0.31280000  1
  O  O6  1  0.23758800  0.38552500  0.31280000  1
  O  O7  1  0.04930000  0.56680400  0.30354700  1
  O  O8  1  0.30496900  0.82842000  0.06740000  1
  O  O9  1  0.12632400  0.97360100  0.05409700  1
  O  O10  1  0.82842000  0.30496900  0.06740000  1
  O  O11  1  0.65088400  0.50142100  0.06833200  1
  O  O12  1  0.97360100  0.12632400  0.05409700  1
  O  O13  1  0.50142100  0.65088400  0.06833200  1
  O  O14  1  0.29182500  0.29182500  0.57497700  1
  O  O15  1  0.89520400  0.23003800  0.29298700  1
  O  O16  1  0.05256500  0.05256500  0.82761700  1
  O  O17  1  0.57776700  0.57776700  0.29078700  1
  O  O18  1  0.23003800  0.89520400  0.29298700  1
  O  O19  1  0.82415100  0.82415100  0.05592400  1
  O  O20  1  0.46993900  0.14033300  0.57907200  1
  O  O21  1  0.41488600  0.74894600  0.30497000  1
  O  O22  1  0.97144300  0.63975900  0.08134000  1
  O  O23  1  0.14033300  0.46993900  0.57907200  1
  O  O24  1  0.74894600  0.41488600  0.30497000  1
  O  O25  1  0.63975900  0.97144300  0.08134000  1
  O  O26  1  0.54772800  0.06340900  0.80637700  1
  O  O27  1  0.72339800  0.89679200  0.30931700  1
  O  O28  1  0.06340900  0.54772800  0.80637700  1
  O  O29  1  0.22060700  0.39058500  0.81279400  1
  O  O30  1  0.39058500  0.22060700  0.81279400  1
  O  O31  1  0.89679200  0.72339800  0.30931700  1
  O  O32  1  0.99170500  0.14076100  0.57943400  1
  O  O33  1  0.66092700  0.48428200  0.56466900  1
  O  O34  1  0.48428200  0.66092700  0.56466900  1
  O  O35  1  0.14076100  0.99170500  0.57943400  1
  O  O36  1  0.32902100  0.81747000  0.56529900  1
  O  O37  1  0.81747000  0.32902100  0.56529900  1
  O  O38  1  0.63037300  0.96207700  0.56637900  1
  O  O39  1  0.40377000  0.73742200  0.79596400  1
  O  O40  1  0.73742200  0.40377000  0.79596400  1
  O  O41  1  0.96207700  0.63037300  0.56637900  1
  O  O42  1  0.80699200  0.80699200  0.57410600  1
  O  O43  1  0.57141800  0.57141800  0.80898100  1
  O  O44  1  0.24781400  0.91543000  0.80783200  1
  O  O45  1  0.91543000  0.24781400  0.80783200  1
  O  O46  1  0.87863000  0.72925200  0.80445900  1
  O  O47  1  0.72925200  0.87863000  0.80445900  1
loop_
_geom_bond_atom_site_label_1
_geom_bond_atom_site_label_2
_geom_bond_distance
_geom_bond_site_symmetry_2
Fe0 O2 2.094792 1_555
Fe0 O15 2.102539 1_455
Fe0 O1 2.143028 1_555
Fe0 O3 2.150435 1_555
Fe0 O6 2.189321 1_555
Fe0 O12 2.305560 1_455
Fe1 O2 2.094792 1_555
Fe1 O18 2.102539 1_545
Fe1 O0 2.143028 1_555
Fe1 O3 2.150435 1_555
Fe1 O5 2.189321 1_555
Fe1 O9 2.305560 1_545
Fe2 O6 2.003262 1_555
Fe2 O5 2.003262 1_555
Fe2 O3 2.051112 1_555
Fe2 O32 2.101485 1_455
Fe2 O35 2.101485 1_545
Fe2 O14 2.103020 1_555
Fe3 O4 2.004517 1_555
Fe3 O10 2.010447 1_555
Fe3 O15 2.011141 1_555
Fe3 O25 2.043139 1_545
Fe3 O27 2.066133 1_545
Fe3 O12 2.214893 1_555
Fe4 O5 2.013494 1_555
Fe4 O6 2.013494 1_555
Fe4 O13 2.076770 1_555
Fe4 O11 2.076770 1_555
Fe4 O17 2.083188 1_555
Fe4 O2 2.105860 1_555
Fe5 O7 2.004517 1_555
Fe5 O8 2.010447 1_555
Fe5 O18 2.011141 1_555
Fe5 O22 2.043139 1_455
Fe5 O31 2.066133 1_455
Fe5 O9 2.214893 1_555
Fe6 O20 1.994374 1_555
Fe6 O4 2.026358 1_555
Fe6 O5 2.037978 1_555
Fe6 O24 2.059470 1_555
Fe7 O23 1.994374 1_555
Fe7 O7 2.026358 1_555
Fe7 O6 2.037978 1_555
Fe7 O21 2.059470 1_555
Fe8 O0 2.001568 1_565
Fe8 O18 2.021713 1_555
Fe8 O4 2.068378 1_565
Fe8 O25 2.069252 1_555
Fe8 O8 2.069939 1_555
Fe8 O21 2.072759 1_555
Fe9 O20 1.956227 1_555
Fe9 O14 2.011735 1_555
Fe9 O44 2.021262 1_545
Fe9 O35 2.030413 1_545
Fe9 O30 2.064156 1_555
Fe9 O16 2.296184 1_555
Fe10 O1 2.001568 1_655
Fe10 O15 2.021713 1_555
Fe10 O7 2.068378 1_655
Fe10 O22 2.069252 1_555
Fe10 O10 2.069939 1_555
Fe10 O24 2.072759 1_555
Fe11 O24 1.998689 1_555
Fe11 O22 2.000590 1_555
Fe11 O17 2.001574 1_555
Fe11 O11 2.029092 1_555
Fe11 O31 2.079574 1_555
Fe11 O19 2.241260 1_555
Fe12 O23 1.956227 1_555
Fe12 O14 2.011735 1_555
Fe12 O45 2.021262 1_455
Fe12 O32 2.030413 1_455
Fe12 O29 2.064156 1_555
Fe12 O16 2.296184 1_555
Fe13 O21 1.998689 1_555
Fe13 O25 2.000590 1_555
Fe13 O17 2.001574 1_555
Fe13 O13 2.029092 1_555
Fe13 O27 2.079574 1_555
Fe13 O19 2.241260 1_555
Fe14 O33 2.010068 1_555
Fe14 O34 2.010068 1_555
Fe14 O14 2.025418 1_555
Fe14 O17 2.071002 1_555
Fe15 O37 2.018995 1_555
Fe15 O15 2.039454 1_555
Fe15 O38 2.045706 1_545
Fe15 O32 2.062774 1_555
Fe16 O36 2.018995 1_555
Fe16 O18 2.039454 1_555
Fe16 O41 2.045706 1_455
Fe16 O35 2.062774 1_555
Fe17 O26 2.066022 1_555
Fe17 O40 2.077654 1_555
Fe17 O33 2.085546 1_555
Fe17 O20 2.095826 1_555
Fe17 O37 2.098974 1_555
Fe17 O30 2.144986 1_555
Fe18 O28 2.066022 1_555
Fe18 O39 2.077654 1_555
Fe18 O34 2.085546 1_555
Fe18 O23 2.095826 1_555
Fe18 O36 2.098974 1_555
Fe18 O29 2.144986 1_555
Fe19 O26 1.994257 1_555
Fe19 O0 1.996277 1_556
Fe19 O30 2.037945 1_555
Fe19 O8 2.042846 1_546
Fe19 O44 2.043703 1_545
Fe19 O9 2.288811 1_546
Fe20 O37 1.972310 1_555
Fe20 O33 2.011237 1_555
Fe20 O41 2.056593 1_555
Fe20 O24 2.062717 1_555
Fe20 O7 2.080812 1_655
Fe20 O31 2.153333 1_555
Fe21 O28 1.994257 1_555
Fe21 O1 1.996277 1_556
Fe21 O29 2.037945 1_555
Fe21 O10 2.042846 1_456
Fe21 O45 2.043703 1_455
Fe21 O12 2.288811 1_456
Fe22 O36 1.972310 1_555
Fe22 O34 2.011237 1_555
Fe22 O38 2.056593 1_555
Fe22 O21 2.062717 1_555
Fe22 O4 2.080812 1_565
Fe22 O27 2.153333 1_555
Fe23 O29 1.916762 1_555
Fe23 O30 1.916762 1_555
Fe23 O2 1.918265 1_556
Fe23 O43 1.931702 1_555
Fe24 O28 2.019297 1_555
Fe24 O44 2.045354 1_555
Fe24 O22 2.055527 1_456
Fe24 O46 2.067091 1_455
Fe25 O3 1.884691 1_665
Fe25 O42 1.934380 1_555
Fe25 O27 1.937332 1_555
Fe25 O31 1.937332 1_555
Fe26 O26 2.019297 1_555
Fe26 O45 2.045354 1_555
Fe26 O25 2.055527 1_546
Fe26 O47 2.067091 1_545
Fe27 O40 2.028841 1_555
Fe27 O28 2.041057 1_655
Fe27 O45 2.047443 1_555
Fe27 O37 2.052987 1_555
Fe27 O41 2.060604 1_555
Fe27 O23 2.062362 1_655
Fe28 O39 2.028841 1_555
Fe28 O26 2.041057 1_565
Fe28 O44 2.047443 1_555
Fe28 O36 2.052987 1_555
Fe28 O38 2.060604 1_555
Fe28 O20 2.062362 1_565
Fe29 O40 1.994342 1_555
Fe29 O33 2.004352 1_555
Fe29 O41 2.022570 1_555
Fe29 O46 2.072753 1_555
Fe29 O43 2.100749 1_555
Fe29 O42 2.103461 1_555
Fe30 O39 1.994342 1_555
Fe30 O34 2.004352 1_555
Fe30 O38 2.022570 1_555
Fe30 O47 2.072753 1_555
Fe30 O43 2.100749 1_555
Fe30 O42 2.103461 1_555
Fe31 O0 2.023622 1_555
Fe31 O40 2.035780 1_554
Fe31 O10 2.057377 1_555
Fe31 O11 2.077091 1_555
Fe32 O1 2.023622 1_555
Fe32 O39 2.035780 1_554
Fe32 O8 2.057377 1_555
Fe32 O13 2.077091 1_555
Fe33 O35 1.989251 1_655
Fe33 O32 1.989251 1_565
Fe33 O46 2.017485 1_555
Fe33 O47 2.017485 1_555
Fe33 O42 2.118516 1_555
Fe33 O16 2.194255 1_665
Fe34 O46 2.009337 1_555
Fe34 O47 2.009337 1_555
Fe34 O11 2.019075 1_556
Fe34 O13 2.019075 1_556
Fe34 O43 2.089875 1_555
Fe34 O19 2.224931 1_556
O9 Si0 1.673793 1_454
O12 Si0 1.673793 1_544
O16 Si0 1.686362 1_445
O19 Si0 1.706803 1_554
