# generated using pymatgen
data_Li3TiFe3O8
_symmetry_space_group_name_H-M   'P 1'
_cell_length_a   5.61939600
_cell_length_b   6.60835697
_cell_length_c   10.25995402
_cell_angle_alpha   89.92864547
_cell_angle_beta   89.99335455
_cell_angle_gamma   89.92971934
_symmetry_Int_Tables_number   1
_chemical_formula_structural   Li3TiFe3O8
_chemical_formula_sum   'Li6 Ti2 Fe6 O16'
_cell_volume   381.00254883
_cell_formula_units_Z   2
loop_
 _symmetry_equiv_pos_site_id
 _symmetry_equiv_pos_as_xyz
  1  'x, y, z'
loop_
 _atom_site_type_symbol
 _atom_site_label
 _atom_site_symmetry_multiplicity
 _atom_site_fract_x
 _atom_site_fract_y
 _atom_site_fract_z
 _atom_site_occupancy
  Li  Li0  1  0.91538000  0.61833700  0.50572200  1
  Li  Li1  1  0.91477400  0.61651100  0.00142500  1
  Li  Li2  1  0.58115000  0.12956900  0.75402500  1
  Li  Li3  1  0.42617300  0.87757500  0.50111400  1
  Li  Li4  1  0.42701900  0.87633000  0.00521000  1
  Li  Li5  1  0.08973300  0.37325500  0.25459800  1
  Ti  Ti0  1  0.08102000  0.87434700  0.75083700  1
  Ti  Ti1  1  0.08390000  0.87537600  0.25042700  1
  Fe  Fe0  1  0.91208800  0.13211500  0.50233700  1
  Fe  Fe1  1  0.91274100  0.13224300  0.00116200  1
  Fe  Fe2  1  0.58302300  0.62238300  0.75045700  1
  Fe  Fe3  1  0.58135600  0.62265900  0.25038200  1
  Fe  Fe4  1  0.41451600  0.37297900  0.50082800  1
  Fe  Fe5  1  0.41537700  0.37217000  0.00165400  1
  O  O0  1  0.92746600  0.09317900  0.81563300  1
  O  O1  1  0.95876700  0.10569200  0.31748400  1
  O  O2  1  0.90398800  0.66161100  0.80764800  1
  O  O3  1  0.91022500  0.64889200  0.30295400  1
  O  O4  1  0.57289100  0.61511100  0.56375700  1
  O  O5  1  0.57226000  0.61449900  0.06372300  1
  O  O6  1  0.58788000  0.13401300  0.55625400  1
  O  O7  1  0.58753800  0.13095200  0.03900100  1
  O  O8  1  0.45506200  0.38509900  0.81719800  1
  O  O9  1  0.42113100  0.39853000  0.31579500  1
  O  O10  1  0.39739300  0.85906200  0.80336000  1
  O  O11  1  0.38780300  0.84476600  0.30734000  1
  O  O12  1  0.08378400  0.36720700  0.53913900  1
  O  O13  1  0.08634000  0.36459800  0.05659700  1
  O  O14  1  0.06793200  0.88805400  0.56968500  1
  O  O15  1  0.07273700  0.88937000  0.06923400  1
loop_
_geom_bond_atom_site_label_1
_geom_bond_atom_site_label_2
_geom_bond_distance
_geom_bond_site_symmetry_2
Li0 O12 1.939593 1_655
Li0 O4 2.014650 1_555
Li0 O14 2.085484 1_655
Li0 O3 2.090117 1_555
Li1 O13 2.003767 1_655
Li1 O2 2.010900 1_554
Li1 O5 2.028061 1_555
Li1 O15 2.128497 1_655
Li2 O8 1.942497 1_555
Li2 O6 2.029646 1_555
Li2 O0 2.059948 1_555
Li2 O10 2.126070 1_545
Li3 O6 2.005954 1_565
Li3 O11 2.011809 1_555
Li3 O4 2.023611 1_555
Li3 O14 2.133488 1_555
Li4 O7 1.941736 1_565
Li4 O5 2.003607 1_555
Li4 O10 2.080956 1_554
Li4 O15 2.098053 1_555
Li5 O9 1.972669 1_555
Li5 O1 2.021019 1_455
Li5 O13 2.032450 1_555
Li5 O3 2.139905 1_455
Fe0 O12 1.868762 1_655
Fe0 O6 1.903956 1_555
Fe0 O1 1.922738 1_555
Fe0 O14 1.959479 1_645
Fe1 O7 1.868211 1_555
Fe1 O13 1.907570 1_655
Fe1 O0 1.923020 1_554
Fe1 O15 1.966200 1_645
Fe2 O8 1.855998 1_555
Fe2 O2 1.914774 1_555
Fe2 O4 1.917050 1_555
Fe2 O10 1.956270 1_555
Fe3 O9 1.858889 1_555
Fe3 O5 1.916628 1_555
Fe3 O11 1.917522 1_555
Fe3 O3 1.933264 1_555
Fe4 O12 1.900000 1_555
Fe4 O9 1.906077 1_555
Fe4 O6 1.939163 1_555
Fe4 O4 1.943043 1_555
Fe5 O7 1.902251 1_555
Fe5 O8 1.907399 1_554
Fe5 O13 1.933637 1_555
Fe5 O5 1.937356 1_555
O0 Ti0 1.810246 1_645
O1 Ti1 1.812231 1_645
O2 Ti0 1.818524 1_655
O3 Ti1 1.866666 1_655
O10 Ti0 1.860351 1_555
O11 Ti1 1.815872 1_555
O14 Ti0 1.862162 1_555
O15 Ti1 1.862276 1_555
