# generated using pymatgen
data_Na3AuO3
_symmetry_space_group_name_H-M   'P 1'
_cell_length_a   9.33766883
_cell_length_b   9.33766883
_cell_length_c   4.50870465
_cell_angle_alpha   90.00000000
_cell_angle_beta   90.00000000
_cell_angle_gamma   90.00000000
_symmetry_Int_Tables_number   1
_chemical_formula_structural   Na3AuO3
_chemical_formula_sum   'Na12 Au4 O12'
_cell_volume   393.12324266
_cell_formula_units_Z   4
loop_
 _symmetry_equiv_pos_site_id
 _symmetry_equiv_pos_as_xyz
  1  'x, y, z'
loop_
 _atom_site_type_symbol
 _atom_site_label
 _atom_site_symmetry_multiplicity
 _atom_site_fract_x
 _atom_site_fract_y
 _atom_site_fract_z
 _atom_site_occupancy
  Na  Na0  1  0.12639688  0.61991024  -0.00000000  1
  Na  Na1  1  0.88008976  0.62639688  0.50000000  1
  Na  Na2  1  0.35657639  0.64342361  0.50000000  1
  Na  Na3  1  0.85657639  0.85657639  0.00000000  1
  Na  Na4  1  0.38008976  0.87360312  -0.00000000  1
  Na  Na5  1  0.62639688  0.88008976  0.50000000  1
  Na  Na6  1  0.37360312  0.11991024  0.50000000  1
  Na  Na7  1  0.61991024  0.12639688  -0.00000000  1
  Na  Na8  1  0.14342361  0.14342361  0.00000000  1
  Na  Na9  1  0.64342361  0.35657639  0.50000000  1
  Na  Na10  1  0.11991024  0.37360312  0.50000000  1
  Na  Na11  1  0.87360312  0.38008976  0.00000000  1
  Au  Au0  1  0.61770095  0.61770095  0.00000000  1
  Au  Au1  1  0.11770095  0.88229905  0.50000000  1
  Au  Au2  1  0.88229905  0.11770095  0.50000000  1
  Au  Au3  1  0.38229905  0.38229905  0.00000000  1
  O  O0  1  0.39675540  0.60324460  0.00000000  1
  O  O1  1  0.83108883  0.61676124  0.00000000  1
  O  O2  1  0.11676124  0.66891117  0.50000000  1
  O  O3  1  0.61676124  0.83108883  0.00000000  1
  O  O4  1  0.33108883  0.88323876  0.50000000  1
  O  O5  1  0.89675540  0.89675540  0.50000000  1
  O  O6  1  0.10324460  0.10324460  0.50000000  1
  O  O7  1  0.66891117  0.11676124  0.50000000  1
  O  O8  1  0.38323876  0.16891117  0.00000000  1
  O  O9  1  0.88323876  0.33108883  0.50000000  1
  O  O10  1  0.16891117  0.38323876  0.00000000  1
  O  O11  1  0.60324460  0.39675540  0.00000000  1
loop_
_geom_bond_atom_site_label_1
_geom_bond_atom_site_label_2
_geom_bond_distance
_geom_bond_site_symmetry_2
Na0 O10 2.245333 1_555
Na0 O2 2.302076 1_554
Na0 O2 2.302076 1_555
Na0 O0 2.529310 1_555
Na0 O1 2.757646 1_455
Na1 O2 2.245333 1_655
Na1 O1 2.302076 1_556
Na1 O1 2.302076 1_555
Na1 O5 2.529310 1_555
Na1 O9 2.757646 1_555
Na2 O4 2.251926 1_555
Na2 O2 2.251926 1_555
Na2 O0 2.315949 1_556
Na2 O0 2.315949 1_555
Na3 O1 2.251926 1_555
Na3 O3 2.251926 1_555
Na3 O5 2.315949 1_554
Na3 O5 2.315949 1_555
Na4 O3 2.245333 1_555
Na4 O4 2.302076 1_554
Na4 O4 2.302076 1_555
Na4 O0 2.529310 1_555
Na4 O8 2.757646 1_565
Na5 O7 2.245333 1_565
Na5 O3 2.302076 1_556
Na5 O3 2.302076 1_555
Na5 O5 2.529310 1_555
Na5 O4 2.757646 1_555
Na6 O4 2.245333 1_545
Na6 O8 2.302076 1_556
Na6 O8 2.302076 1_555
Na6 O6 2.529310 1_555
Na6 O7 2.757646 1_555
Na7 O8 2.245333 1_555
Na7 O7 2.302076 1_555
Na7 O7 2.302076 1_554
Na7 O11 2.529310 1_555
Na7 O3 2.757646 1_545
Na8 O8 2.251926 1_555
Na8 O10 2.251926 1_555
Na8 O6 2.315949 1_554
Na8 O6 2.315949 1_555
Na9 O7 2.251926 1_555
Na9 O9 2.251926 1_555
Na9 O11 2.315949 1_556
Na9 O11 2.315949 1_555
Na10 O9 2.245333 1_455
Na10 O10 2.302076 1_556
Na10 O10 2.302076 1_555
Na10 O6 2.529310 1_555
Na10 O2 2.757646 1_555
Na11 O1 2.245333 1_555
Na11 O9 2.302076 1_555
Na11 O9 2.302076 1_554
Na11 O11 2.529310 1_555
Na11 O10 2.757646 1_655
Au0 O1 1.992565 1_555
Au0 O3 1.992565 1_555
Au0 O11 2.067528 1_555
Au0 O0 2.067528 1_555
Au1 O2 1.992565 1_555
Au1 O4 1.992565 1_555
Au1 O5 2.067528 1_455
Au1 O6 2.067528 1_565
Au2 O7 1.992565 1_555
Au2 O9 1.992565 1_555
Au2 O5 2.067528 1_545
Au2 O6 2.067528 1_655
Au3 O8 1.992565 1_555
Au3 O10 1.992565 1_555
Au3 O11 2.067528 1_555
Au3 O0 2.067528 1_555
