# generated using pymatgen
data_LaSmO3
_symmetry_space_group_name_H-M   'P 1'
_cell_length_a   6.03017700
_cell_length_b   6.21450200
_cell_length_c   8.73191200
_cell_angle_alpha   90.00000000
_cell_angle_beta   90.00000000
_cell_angle_gamma   90.00000000
_symmetry_Int_Tables_number   1
_chemical_formula_structural   LaSmO3
_chemical_formula_sum   'La4 Sm4 O12'
_cell_volume   327.22444688
_cell_formula_units_Z   4
loop_
 _symmetry_equiv_pos_site_id
 _symmetry_equiv_pos_as_xyz
  1  'x, y, z'
loop_
 _atom_site_type_symbol
 _atom_site_label
 _atom_site_symmetry_multiplicity
 _atom_site_fract_x
 _atom_site_fract_y
 _atom_site_fract_z
 _atom_site_occupancy
  La  La0  1  0.49184700  0.04166400  0.48346500  1
  La  La1  1  0.99184700  0.45833600  0.98346500  1
  La  La2  1  0.00815300  0.54166400  0.48346500  1
  La  La3  1  0.50815300  0.95833600  0.98346500  1
  Sm  Sm0  1  0.99996500  0.00592900  0.74002400  1
  Sm  Sm1  1  0.49996500  0.49407100  0.24002400  1
  Sm  Sm2  1  0.50003500  0.50592900  0.74002400  1
  Sm  Sm3  1  0.00003500  0.99407100  0.24002400  1
  O  O0  1  0.13688000  0.07563600  0.99326900  1
  O  O1  1  0.66725300  0.16178300  0.18313000  1
  O  O2  1  0.69192800  0.20218800  0.82391300  1
  O  O3  1  0.19192800  0.29781200  0.32391300  1
  O  O4  1  0.16725300  0.33821700  0.68313000  1
  O  O5  1  0.63688000  0.42436400  0.49326900  1
  O  O6  1  0.36312000  0.57563600  0.99326900  1
  O  O7  1  0.83274700  0.66178300  0.18313000  1
  O  O8  1  0.80807200  0.70218800  0.82391300  1
  O  O9  1  0.30807200  0.79781200  0.32391300  1
  O  O10  1  0.33274700  0.83821700  0.68313000  1
  O  O11  1  0.86312000  0.92436400  0.49326900  1
loop_
_geom_bond_atom_site_label_1
_geom_bond_atom_site_label_2
_geom_bond_distance
_geom_bond_site_symmetry_2
La0 O9 2.337858 1_545
La0 O11 2.356083 1_545
La0 O10 2.357669 1_545
La0 O5 2.535443 1_555
La0 O3 2.783132 1_555
La0 O1 2.924641 1_555
La0 O4 3.204261 1_555
La0 O2 3.359788 1_555
La1 O8 2.337858 1_555
La1 O6 2.356083 1_655
La1 O7 2.357669 1_556
La1 O0 2.535443 1_655
La1 O2 2.783132 1_555
La1 O4 2.924641 1_655
La1 O1 3.204261 1_556
La1 O3 3.359788 1_656
La2 O3 2.337858 1_555
La2 O5 2.356083 1_455
La2 O4 2.357669 1_555
La2 O11 2.535443 1_455
La2 O9 2.783132 1_555
La2 O7 2.924641 1_455
La2 O10 3.204261 1_555
La2 O8 3.359788 1_455
La3 O2 2.337858 1_565
La3 O0 2.356083 1_565
La3 O1 2.357669 1_566
La3 O6 2.535443 1_555
La3 O8 2.783132 1_555
La3 O10 2.924641 1_555
La3 O7 3.204261 1_556
La3 O9 3.359788 1_556
O0 Sm3 2.362281 1_546
O0 Sm0 2.399836 1_455
O1 Sm3 2.315181 1_645
O1 Sm1 2.351314 1_555
O2 Sm2 2.332080 1_555
O2 Sm0 2.339764 1_555
O3 Sm3 2.332080 1_545
O3 Sm1 2.339764 1_555
O4 Sm2 2.315181 1_555
O4 Sm0 2.351314 1_455
O5 Sm2 2.362281 1_555
O5 Sm1 2.399836 1_555
O6 Sm1 2.362281 1_556
O6 Sm2 2.399836 1_555
O7 Sm1 2.315181 1_555
O7 Sm3 2.351314 1_655
O8 Sm0 2.332080 1_565
O8 Sm2 2.339764 1_555
O9 Sm1 2.332080 1_555
O9 Sm3 2.339764 1_555
O10 Sm0 2.315181 1_465
O10 Sm2 2.351314 1_555
O11 Sm0 2.362281 1_565
O11 Sm3 2.399836 1_655
