# generated using pymatgen
data_Fe3PH6PbSO14
_symmetry_space_group_name_H-M   'P 1'
_cell_length_a   7.10989962
_cell_length_b   7.10989962
_cell_length_c   7.10989908
_cell_angle_alpha   62.58320330
_cell_angle_beta   62.58320330
_cell_angle_gamma   62.58319927
_symmetry_Int_Tables_number   1
_chemical_formula_structural   Fe3PH6PbSO14
_chemical_formula_sum   'Fe3 P1 H6 Pb1 S1 O14'
_cell_volume   268.76247368
_cell_formula_units_Z   1
loop_
 _symmetry_equiv_pos_site_id
 _symmetry_equiv_pos_as_xyz
  1  'x, y, z'
loop_
 _atom_site_type_symbol
 _atom_site_label
 _atom_site_symmetry_multiplicity
 _atom_site_fract_x
 _atom_site_fract_y
 _atom_site_fract_z
 _atom_site_occupancy
  Fe  Fe0  1  0.00765900  0.00765900  0.49849000  1
  Fe  Fe1  1  0.49849000  0.00765900  0.00765900  1
  Fe  Fe2  1  0.00765900  0.49849000  0.00765900  1
  P  P0  1  0.31439800  0.31439800  0.31439800  1
  H  H0  1  0.69394400  0.28953200  0.69394400  1
  H  H1  1  0.69394400  0.69394400  0.28953200  1
  H  H2  1  0.28953200  0.69394400  0.69394400  1
  H  H3  1  0.31381700  0.70718300  0.31381700  1
  H  H4  1  0.31381700  0.31381700  0.70718300  1
  H  H5  1  0.70718300  0.31381700  0.31381700  1
  Pb  Pb0  1  0.99836300  0.99836300  0.99836300  1
  S  S0  1  0.69275800  0.69275800  0.69275800  1
  O  O0  1  0.60612700  0.60612700  0.60612700  1
  O  O1  1  0.40463100  0.40463100  0.40463100  1
  O  O2  1  0.83242500  0.50156900  0.83242500  1
  O  O3  1  0.83242500  0.83242500  0.50156900  1
  O  O4  1  0.50156900  0.83242500  0.83242500  1
  O  O5  1  0.16742600  0.51096400  0.16742600  1
  O  O6  1  0.16742600  0.16742600  0.51096400  1
  O  O7  1  0.51096400  0.16742600  0.16742600  1
  O  O8  1  0.74524700  0.12411900  0.74524700  1
  O  O9  1  0.74524700  0.74524700  0.12411900  1
  O  O10  1  0.12411900  0.74524700  0.74524700  1
  O  O11  1  0.26013500  0.87486200  0.26013500  1
  O  O12  1  0.26013500  0.26013500  0.87486200  1
  O  O13  1  0.87486200  0.26013500  0.26013500  1
loop_
_geom_bond_atom_site_label_1
_geom_bond_atom_site_label_2
_geom_bond_distance
_geom_bond_site_symmetry_2
Fe0 O6 1.990571 1_555
Fe0 O11 2.024079 1_545
Fe0 O13 2.024079 1_455
Fe0 O8 2.035985 1_455
Fe0 O10 2.035985 1_545
Fe0 O3 2.117608 1_445
Fe1 O7 1.990571 1_555
Fe1 O12 2.024079 1_554
Fe1 O11 2.024080 1_545
Fe1 O9 2.035985 1_545
Fe1 O8 2.035985 1_554
Fe1 O4 2.117608 1_544
Fe2 O5 1.990571 1_555
Fe2 O12 2.024079 1_554
Fe2 O13 2.024080 1_455
Fe2 O9 2.035985 1_455
Fe2 O10 2.035985 1_554
Fe2 O2 2.117608 1_454
H0 O8 0.990782 1_555
H1 O9 0.990782 1_555
H2 O10 0.990782 1_555
H3 O11 1.004350 1_555
H4 O12 1.004350 1_555
H5 O13 1.004350 1_555
O0 S0 1.478605 1_555
O1 P0 1.540083 1_555
O2 S0 1.497287 1_555
O3 S0 1.497288 1_555
O4 S0 1.497287 1_555
O5 P0 1.566150 1_555
O6 P0 1.566150 1_555
O7 P0 1.566150 1_555
O8 Pb0 2.701050 1_545
O9 Pb0 2.701050 1_554
O10 Pb0 2.701050 1_455
O11 Pb0 2.806945 1_454
O12 Pb0 2.806946 1_445
O13 Pb0 2.806945 1_544
