# generated using pymatgen
data_Li4V2Ni3Sn3O16
_symmetry_space_group_name_H-M   'P 1'
_cell_length_a   6.09313302
_cell_length_b   6.09313302
_cell_length_c   9.61041927
_cell_angle_alpha   89.87949648
_cell_angle_beta   89.87949648
_cell_angle_gamma   59.75830570
_symmetry_Int_Tables_number   1
_chemical_formula_structural   Li4V2Ni3Sn3O16
_chemical_formula_sum   'Li4 V2 Ni3 Sn3 O16'
_cell_volume   308.24080849
_cell_formula_units_Z   1
loop_
 _symmetry_equiv_pos_site_id
 _symmetry_equiv_pos_as_xyz
  1  'x, y, z'
loop_
 _atom_site_type_symbol
 _atom_site_label
 _atom_site_symmetry_multiplicity
 _atom_site_fract_x
 _atom_site_fract_y
 _atom_site_fract_z
 _atom_site_occupancy
  Li  Li0  1  0.68109600  0.68109600  0.89927400  1
  Li  Li1  1  0.98246800  0.98246800  0.98355600  1
  Li  Li2  1  0.99021200  0.99021200  0.50023700  1
  Li  Li3  1  0.33206900  0.33206900  0.40517700  1
  V  V0  1  0.67541500  0.67541500  0.49907300  1
  V  V1  1  0.35920600  0.35920600  0.97432700  1
  Ni  Ni0  1  0.82552600  0.82552600  0.21656700  1
  Ni  Ni1  1  0.66020600  0.17549800  0.71075000  1
  Ni  Ni2  1  0.17549800  0.66020600  0.71075000  1
  Sn  Sn0  1  0.83175200  0.33767900  0.21511200  1
  Sn  Sn1  1  0.33767900  0.83175200  0.21511200  1
  Sn  Sn2  1  0.17477100  0.17477100  0.71619000  1
  O  O0  1  0.82562700  0.35534800  0.58682000  1
  O  O1  1  0.51272900  0.51272900  0.34374400  1
  O  O2  1  0.66654500  0.66654500  0.09982300  1
  O  O3  1  0.99156500  0.99156500  0.31240900  1
  O  O4  1  0.99975300  0.99975300  0.79594300  1
  O  O5  1  0.35534800  0.82562700  0.58682000  1
  O  O6  1  0.95098800  0.51964100  0.35365500  1
  O  O7  1  0.51964100  0.95098800  0.35365500  1
  O  O8  1  0.15465400  0.15465400  0.09203500  1
  O  O9  1  0.81877600  0.81877600  0.58862700  1
  O  O10  1  0.48090500  0.05160300  0.85532200  1
  O  O11  1  0.05160300  0.48090500  0.85532200  1
  O  O12  1  0.33641400  0.33641400  0.60596600  1
  O  O13  1  0.64406100  0.17856800  0.08740500  1
  O  O14  1  0.48701300  0.48701300  0.85687700  1
  O  O15  1  0.17856800  0.64406100  0.08740500  1
loop_
_geom_bond_atom_site_label_1
_geom_bond_atom_site_label_2
_geom_bond_distance
_geom_bond_site_symmetry_2
Li0 O2 1.933111 1_556
Li0 O10 1.996787 1_565
Li0 O11 1.996787 1_655
Li0 O14 2.091822 1_555
Li1 O4 1.811826 1_555
Li1 O15 2.046964 1_656
Li1 O13 2.046964 1_566
Li1 O8 2.099110 1_666
Li2 O3 1.805128 1_555
Li2 O9 1.998886 1_555
Li2 O0 2.098753 1_565
Li2 O5 2.098753 1_655
Li3 O12 1.930324 1_555
Li3 O1 1.996780 1_555
Li3 O6 2.066948 1_455
Li3 O7 2.066948 1_545
Ni0 O3 1.983506 1_555
Ni0 O2 2.022344 1_555
Ni0 O6 2.086286 1_555
Ni0 O7 2.086286 1_555
Ni0 O13 2.233707 1_565
Ni0 O15 2.233707 1_655
Ni1 O4 1.967030 1_545
Ni1 O12 1.980778 1_555
Ni1 O10 2.124581 1_555
Ni1 O14 2.162387 1_555
Ni1 O0 2.176558 1_555
Ni1 O9 2.219435 1_545
Ni2 O4 1.967030 1_455
Ni2 O12 1.980778 1_555
Ni2 O11 2.124581 1_555
Ni2 O14 2.162387 1_555
Ni2 O5 2.176558 1_555
Ni2 O9 2.219435 1_455
O0 V0 1.884279 1_555
O0 Sn2 2.220301 1_655
O1 Sn0 2.086000 1_555
O1 Sn1 2.086000 1_555
O1 V0 2.279437 1_555
O2 Sn1 2.054203 1_555
O2 Sn0 2.054203 1_555
O3 Sn1 2.048673 1_655
O3 Sn0 2.048673 1_565
O4 Sn2 2.000140 1_665
O5 V0 1.884279 1_555
O5 Sn2 2.220301 1_565
O6 V0 2.015866 1_555
O6 Sn0 2.086032 1_555
O7 V0 2.015866 1_555
O7 Sn1 2.086032 1_555
O8 Sn1 2.073486 1_545
O8 Sn0 2.073486 1_455
O8 V1 2.437088 1_554
O9 V0 1.744051 1_555
O10 V1 1.994052 1_555
O10 Sn2 2.103967 1_555
O11 V1 1.994052 1_555
O11 Sn2 2.103967 1_555
O12 Sn2 2.007629 1_555
O13 V1 1.866421 1_554
O13 Sn0 2.209484 1_555
O14 V1 1.757960 1_555
O15 V1 1.866421 1_554
O15 Sn1 2.209484 1_555
