# generated using pymatgen
data_Li4NbCo3O8
_symmetry_space_group_name_H-M   'P 1'
_cell_length_a   6.00749106
_cell_length_b   6.00749106
_cell_length_c   6.00749058
_cell_angle_alpha   59.70987340
_cell_angle_beta   59.70987340
_cell_angle_gamma   59.70987986
_symmetry_Int_Tables_number   1
_chemical_formula_structural   Li4NbCo3O8
_chemical_formula_sum   'Li4 Nb1 Co3 O8'
_cell_volume   152.29758119
_cell_formula_units_Z   1
loop_
 _symmetry_equiv_pos_site_id
 _symmetry_equiv_pos_as_xyz
  1  'x, y, z'
loop_
 _atom_site_type_symbol
 _atom_site_label
 _atom_site_symmetry_multiplicity
 _atom_site_fract_x
 _atom_site_fract_y
 _atom_site_fract_z
 _atom_site_occupancy
  Li  Li0  1  0.50000000  0.50000000  0.50000000  1
  Li  Li1  1  0.50000000  0.00000000  0.00000000  1
  Li  Li2  1  0.00000000  0.00000000  0.50000000  1
  Li  Li3  1  0.00000000  0.50000000  0.00000000  1
  Nb  Nb0  1  0.00000000  0.00000000  0.00000000  1
  Co  Co0  1  0.00000000  0.50000000  0.50000000  1
  Co  Co1  1  0.50000000  0.50000000  0.00000000  1
  Co  Co2  1  0.50000000  0.00000000  0.50000000  1
  O  O0  1  0.73418700  0.73418700  0.73418700  1
  O  O1  1  0.76410100  0.24024400  0.24024400  1
  O  O2  1  0.24024400  0.24024400  0.76410100  1
  O  O3  1  0.26581300  0.26581300  0.26581300  1
  O  O4  1  0.24024400  0.76410100  0.24024400  1
  O  O5  1  0.23589900  0.75975600  0.75975600  1
  O  O6  1  0.75975600  0.75975600  0.23589900  1
  O  O7  1  0.75975600  0.23589900  0.75975600  1
loop_
_geom_bond_atom_site_label_1
_geom_bond_atom_site_label_2
_geom_bond_distance
_geom_bond_site_symmetry_2
Li0 O2 2.202010 1_555
Li0 O6 2.202010 1_555
Li0 O5 2.202010 1_555
Li0 O4 2.202010 1_555
Li0 O1 2.202010 1_555
Li0 O7 2.202010 1_555
Li1 O7 2.102884 1_554
Li1 O4 2.102884 1_545
Li1 O6 2.102884 1_545
Li1 O2 2.102884 1_554
Li1 O0 2.262534 1_544
Li1 O3 2.262534 1_555
Li2 O4 2.102884 1_545
Li2 O7 2.102884 1_455
Li2 O1 2.102884 1_455
Li2 O5 2.102884 1_545
Li2 O0 2.262534 1_445
Li2 O3 2.262534 1_555
Li3 O1 2.102884 1_455
Li3 O5 2.102884 1_554
Li3 O2 2.102884 1_554
Li3 O6 2.102884 1_455
Li3 O0 2.262534 1_454
Li3 O3 2.262534 1_555
Nb0 O6 2.036939 1_445
Nb0 O2 2.036939 1_554
Nb0 O4 2.036939 1_545
Nb0 O7 2.036939 1_454
Nb0 O1 2.036939 1_455
Nb0 O5 2.036939 1_544
Co0 O3 1.993159 1_555
Co0 O0 1.993159 1_455
Co0 O4 2.139123 1_555
Co0 O7 2.139123 1_455
Co0 O6 2.139123 1_455
Co0 O2 2.139123 1_555
Co1 O3 1.993159 1_555
Co1 O0 1.993159 1_554
Co1 O1 2.139123 1_555
Co1 O4 2.139123 1_555
Co1 O7 2.139123 1_554
Co1 O5 2.139123 1_554
Co2 O3 1.993159 1_555
Co2 O0 1.993159 1_545
Co2 O5 2.139123 1_545
Co2 O1 2.139123 1_555
Co2 O2 2.139123 1_555
Co2 O6 2.139123 1_545
