# generated using pymatgen
data_Li5Mn3(CoO5)2
_symmetry_space_group_name_H-M   'P 1'
_cell_length_a   5.23982100
_cell_length_b   5.25062861
_cell_length_c   7.71986622
_cell_angle_alpha   104.54293437
_cell_angle_beta   107.95901249
_cell_angle_gamma   99.37397549
_symmetry_Int_Tables_number   1
_chemical_formula_structural   Li5Mn3(CoO5)2
_chemical_formula_sum   'Li5 Mn3 Co2 O10'
_cell_volume   188.79265952
_cell_formula_units_Z   1
loop_
 _symmetry_equiv_pos_site_id
 _symmetry_equiv_pos_as_xyz
  1  'x, y, z'
loop_
 _atom_site_type_symbol
 _atom_site_label
 _atom_site_symmetry_multiplicity
 _atom_site_fract_x
 _atom_site_fract_y
 _atom_site_fract_z
 _atom_site_occupancy
  Li  Li0  1  0.09025400  0.78429400  0.58834400  1
  Li  Li1  1  0.72069500  0.60555600  0.21774100  1
  Li  Li2  1  0.50000000  0.50000000  0.50000000  1
  Li  Li3  1  0.27930500  0.39444400  0.78225900  1
  Li  Li4  1  0.90974600  0.21570600  0.41165600  1
  Mn  Mn0  1  0.50000000  0.00000000  0.00000000  1
  Mn  Mn1  1  0.10702000  0.30447700  0.10374400  1
  Mn  Mn2  1  0.89298000  0.69552300  0.89625600  1
  Co  Co0  1  0.29286500  0.90588500  0.31498700  1
  Co  Co1  1  0.70713500  0.09411500  0.68501300  1
  O  O0  1  0.90655800  0.92750300  0.14497900  1
  O  O1  1  0.28386000  0.68305500  0.04776300  1
  O  O2  1  0.68872100  0.86857400  0.45672800  1
  O  O3  1  0.52701200  0.76069500  0.77091600  1
  O  O4  1  0.11067400  0.54453000  0.33702200  1
  O  O5  1  0.88932600  0.45547000  0.66297800  1
  O  O6  1  0.47298800  0.23930500  0.22908400  1
  O  O7  1  0.31127900  0.13142600  0.54327200  1
  O  O8  1  0.71614000  0.31694500  0.95223700  1
  O  O9  1  0.09344200  0.07249700  0.85502100  1
loop_
_geom_bond_atom_site_label_1
_geom_bond_atom_site_label_2
_geom_bond_distance
_geom_bond_site_symmetry_2
Li0 O4 2.075047 1_555
Li0 O7 2.159584 1_565
Li0 O5 2.168604 1_455
Li0 O2 2.205825 1_455
Li0 O9 2.221371 1_565
Li0 O3 2.330283 1_555
Li1 O2 2.079782 1_555
Li1 O4 2.080212 1_655
Li1 O0 2.097485 1_555
Li1 O6 2.175317 1_555
Li1 O8 2.212743 1_554
Li1 O1 2.417863 1_555
Li2 O5 2.125928 1_555
Li2 O4 2.125928 1_555
Li2 O3 2.141122 1_555
Li2 O6 2.141122 1_555
Li2 O7 2.177062 1_555
Li2 O2 2.177062 1_555
Li3 O7 2.079782 1_555
Li3 O5 2.080212 1_455
Li3 O9 2.097485 1_555
Li3 O3 2.175317 1_555
Li3 O1 2.212743 1_556
Li3 O8 2.417863 1_555
Li4 O5 2.075047 1_555
Li4 O2 2.159584 1_545
Li4 O4 2.168604 1_655
Li4 O7 2.205825 1_655
Li4 O0 2.221371 1_545
Li4 O6 2.330283 1_555
Mn0 O6 1.955181 1_555
Mn0 O3 1.955181 1_544
Mn0 O1 2.034637 1_545
Mn0 O8 2.034637 1_554
Mn0 O9 2.223397 1_554
Mn0 O0 2.223397 1_545
Mn1 O4 1.913928 1_555
Mn1 O9 1.971921 1_554
Mn1 O6 1.991580 1_555
Mn1 O8 2.042556 1_454
Mn1 O0 2.228863 1_445
Mn1 O1 2.252771 1_555
Mn2 O5 1.913928 1_555
Mn2 O0 1.971921 1_556
Mn2 O3 1.991580 1_555
Mn2 O1 2.042556 1_656
Mn2 O9 2.228863 1_665
Mn2 O8 2.252771 1_555
Co0 O7 1.824095 1_565
Co0 O4 2.052410 1_555
Co0 O1 2.082464 1_555
Co0 O0 2.084246 1_455
Co0 O2 2.092477 1_555
Co0 O6 2.196854 1_565
Co1 O2 1.824095 1_545
Co1 O5 2.052410 1_555
Co1 O8 2.082464 1_555
Co1 O9 2.084246 1_655
Co1 O7 2.092477 1_555
Co1 O3 2.196854 1_545
