# generated using pymatgen
data_CoSn3(PO4)4
_symmetry_space_group_name_H-M   'P 1'
_cell_length_a   5.11201290
_cell_length_b   10.43924408
_cell_length_c   6.17356702
_cell_angle_alpha   90.00180623
_cell_angle_beta   90.00761812
_cell_angle_gamma   90.66683880
_symmetry_Int_Tables_number   1
_chemical_formula_structural   CoSn3(PO4)4
_chemical_formula_sum   'Co1 Sn3 P4 O16'
_cell_volume   329.43348553
_cell_formula_units_Z   1
loop_
 _symmetry_equiv_pos_site_id
 _symmetry_equiv_pos_as_xyz
  1  'x, y, z'
loop_
 _atom_site_type_symbol
 _atom_site_label
 _atom_site_symmetry_multiplicity
 _atom_site_fract_x
 _atom_site_fract_y
 _atom_site_fract_z
 _atom_site_occupancy
  Co  Co0  1  0.05920500  0.72641000  0.74998500  1
  Sn  Sn0  1  0.45210800  0.21310800  0.75000500  1
  Sn  Sn1  1  0.54978900  0.78498300  0.25005300  1
  Sn  Sn2  1  0.95837600  0.28180600  0.24998600  1
  P  P0  1  0.10810000  0.61713800  0.24995500  1
  P  P1  1  0.43008100  0.08113300  0.25002900  1
  P  P2  1  0.58743700  0.90246400  0.75005000  1
  P  P3  1  0.87245800  0.40116500  0.74993100  1
  O  O0  1  0.16887900  0.47690400  0.25008500  1
  O  O1  1  0.24804100  0.68986400  0.05486700  1
  O  O2  1  0.24802100  0.68994800  0.44503900  1
  O  O3  1  0.15034500  0.34253100  0.75004000  1
  O  O4  1  0.29376200  0.88525900  0.75001600  1
  O  O5  1  0.30331800  0.15303000  0.04986700  1
  O  O6  1  0.30326600  0.15308600  0.45008700  1
  O  O7  1  0.32012800  0.94181300  0.25011300  1
  O  O8  1  0.66991800  0.04737700  0.74991700  1
  O  O9  1  0.72815900  0.83369300  0.55257900  1
  O  O10  1  0.72813500  0.83385300  0.94771300  1
  O  O11  1  0.72419000  0.08458400  0.25006600  1
  O  O12  1  0.80738200  0.63815300  0.24991500  1
  O  O13  1  0.70197000  0.33822000  0.55906300  1
  O  O14  1  0.70188000  0.33831700  0.94081000  1
  O  O15  1  0.88505300  0.54516300  0.74982900  1
loop_
_geom_bond_atom_site_label_1
_geom_bond_atom_site_label_2
_geom_bond_distance
_geom_bond_site_symmetry_2
Co0 O4 2.035018 1_555
Co0 O15 2.081668 1_455
Co0 O1 2.151340 1_556
Co0 O2 2.151684 1_555
Co0 O9 2.376362 1_455
Co0 O10 2.378466 1_455
O0 P0 1.500079 1_555
O0 Sn2 2.292381 1_455
O1 P0 1.589452 1_555
O1 Sn1 2.186597 1_555
O2 P0 1.589622 1_555
O2 Sn1 2.185858 1_555
O3 P3 1.553350 1_455
O3 Sn0 2.062424 1_555
O4 P2 1.509899 1_555
O5 P1 1.587892 1_555
O5 Sn0 2.094810 1_554
O5 Sn2 2.549233 1_455
O6 P1 1.587879 1_555
O6 Sn0 2.094825 1_555
O6 Sn2 2.548494 1_455
O7 P1 1.553117 1_565
O7 Sn1 2.025702 1_555
O8 P2 1.565710 1_545
O8 Sn0 2.068302 1_555
O9 P2 1.591008 1_555
O9 Sn1 2.137023 1_555
O10 P2 1.590987 1_555
O10 Sn1 2.136597 1_556
O11 P1 1.503501 1_555
O11 Sn2 2.369532 1_555
O12 P0 1.555375 1_655
O12 Sn1 2.032351 1_555
O13 P3 1.601930 1_555
O13 Sn0 2.165304 1_555
O13 Sn2 2.392557 1_555
O14 P3 1.602020 1_555
O14 Sn0 2.164950 1_555
O14 Sn2 2.393306 1_556
O15 P3 1.503860 1_555
