# generated using pymatgen
data_K2NaCa2TiSi7O20
_symmetry_space_group_name_H-M   'P 1'
_cell_length_a   10.49416400
_cell_length_b   12.32441556
_cell_length_c   7.15826411
_cell_angle_alpha   90.92091426
_cell_angle_beta   99.08397270
_cell_angle_gamma   93.18245351
_symmetry_Int_Tables_number   1
_chemical_formula_structural   K2NaCa2TiSi7O20
_chemical_formula_sum   'K4 Na2 Ca4 Ti2 Si14 O40'
_cell_volume   912.49902029
_cell_formula_units_Z   2
loop_
 _symmetry_equiv_pos_site_id
 _symmetry_equiv_pos_as_xyz
  1  'x, y, z'
loop_
 _atom_site_type_symbol
 _atom_site_label
 _atom_site_symmetry_multiplicity
 _atom_site_fract_x
 _atom_site_fract_y
 _atom_site_fract_z
 _atom_site_occupancy
  K  K0  1  0.99422300  0.92769000  0.64905400  1
  K  K1  1  0.75762000  0.37939400  0.53885300  1
  K  K2  1  0.19792700  0.36489000  0.32653500  1
  K  K3  1  0.44486000  0.84095300  0.42342600  1
  Na  Na0  1  0.99031600  0.50288100  0.99801800  1
  Na  Na1  1  0.21309400  0.72664800  0.96553300  1
  Ca  Ca0  1  0.69290300  0.02575700  0.10209900  1
  Ca  Ca1  1  0.68185400  0.52210100  0.10473500  1
  Ca  Ca2  1  0.50927400  0.20386500  0.86043200  1
  Ca  Ca3  1  0.52118500  0.70605000  0.85603700  1
  Ti  Ti0  1  0.00121400  0.01639100  0.99444700  1
  Ti  Ti1  1  0.20470400  0.21356400  0.97026900  1
  Si  Si0  1  0.91265900  0.54300400  0.29208300  1
  Si  Si1  1  0.92167600  0.11569700  0.29816400  1
  Si  Si2  1  0.41013700  0.98511800  0.11254600  1
  Si  Si3  1  0.40243700  0.53870700  0.10960400  1
  Si  Si4  1  0.79364300  0.24116800  0.85101100  1
  Si  Si5  1  0.79963800  0.68974600  0.85470000  1
  Si  Si6  1  0.28364300  0.11393300  0.66686300  1
  Si  Si7  1  0.28792100  0.68300800  0.67036200  1
  Si  Si8  1  0.51674000  0.31102300  0.29751400  1
  Si  Si9  1  0.09421300  0.83531100  0.26279000  1
  Si  Si10  1  0.10978900  0.39712400  0.70259100  1
  Si  Si11  1  0.45099300  0.38238800  0.58434500  1
  Si  Si12  1  0.68568800  0.91636600  0.66557200  1
  Si  Si13  1  0.75062400  0.84382000  0.37776500  1
  O  O0  1  0.22216100  0.83077600  0.31161400  1
  O  O1  1  0.44661200  0.10925900  0.25654700  1
  O  O2  1  0.43881800  0.47974500  0.25352000  1
  O  O3  1  0.52552000  0.35357600  0.45723800  1
  O  O4  1  0.29456200  0.06105400  0.06180800  1
  O  O5  1  0.33996400  0.70265900  0.81332200  1
  O  O6  1  0.98052100  0.38529700  0.65839700  1
  O  O7  1  0.07684700  0.82590500  0.10722400  1
  O  O8  1  0.04056700  0.03065200  0.33869000  1
  O  O9  1  0.03404200  0.65125800  0.31127000  1
  O  O10  1  0.16418400  0.58326700  0.65189600  1
  O  O11  1  0.16743100  0.20628400  0.62617500  1
  O  O12  1  0.27190300  0.88548000  0.61678700  1
  O  O13  1  0.36533300  0.55540700  0.56385700  1
  O  O14  1  0.37687200  0.18462900  0.57526000  1
  O  O15  1  0.38728900  0.76951900  0.14172400  1
  O  O16  1  0.82982800  0.03703600  0.38875200  1
  O  O17  1  0.88844600  0.05564200  0.14676800  1
  O  O18  1  0.93139400  0.34446600  0.35182800  1
  O  O19  1  0.90990700  0.16708800  0.90100900  1
  O  O20  1  0.91781100  0.78711600  0.90303700  1
  O  O21  1  0.76067100  0.74422900  0.70985500  1
  O  O22  1  0.69622200  0.23329600  0.94726000  1
  O  O23  1  0.70322800  0.73712400  0.95302300  1
  O  O24  1  0.67435400  0.80840800  0.24804300  1
  O  O25  1  0.63419400  0.30288500  0.23930000  1
  O  O26  1  0.56816000  0.92723800  0.72347200  1
  O  O27  1  0.52737500  0.42129100  0.71411500  1
  O  O28  1  0.49898400  0.48897300  0.01173900  1
  O  O29  1  0.75900900  0.11556000  0.70589700  1
  O  O30  1  0.81408600  0.45882100  0.82482700  1
  O  O31  1  0.67675400  0.87497500  0.50574900  1
  O  O32  1  0.28369500  0.44414200  0.06073800  1
  O  O33  1  0.50620300  0.98947400  0.01363300  1
  O  O34  1  0.86317100  0.51454400  0.14784300  1
  O  O35  1  0.11486100  0.99508800  0.88375000  1
  O  O36  1  0.08974900  0.23400700  0.07915400  1
  O  O37  1  0.83322900  0.66745400  0.39676600  1
  O  O38  1  0.31680900  0.17747500  0.81854100  1
  O  O39  1  0.12725700  0.40630600  0.85822400  1
loop_
_geom_bond_atom_site_label_1
_geom_bond_atom_site_label_2
_geom_bond_distance
_geom_bond_site_symmetry_2
K0 O35 2.069287 1_655
K0 O20 2.712433 1_555
K0 O12 3.031908 1_655
K1 O30 2.233392 1_555
K1 O6 2.357175 1_555
K1 O3 2.415330 1_555
K1 O25 2.467211 1_555
K1 O18 2.478452 1_555
K2 O32 2.426325 1_555
K2 O36 2.469128 1_555
K2 O18 2.828918 1_455
K2 O13 3.155443 1_555
K3 O15 2.169223 1_555
K3 O0 2.343433 1_555
K3 O31 2.423036 1_555
K3 O26 2.512856 1_555
K3 O12 2.527999 1_555
Na0 O34 1.849159 1_556
Na0 O30 2.096414 1_555
Na0 O39 2.255866 1_655
Na1 O5 1.881113 1_555
Na1 O15 2.086833 1_556
Na1 O7 2.276337 1_556
Ca0 O33 1.985328 1_545
Ca0 O17 2.038126 1_555
Ca1 O34 1.886698 1_555
Ca1 O28 1.947701 1_555
Ca1 O30 2.737947 1_554
Ca1 O37 2.935573 1_555
Ca2 O22 1.973700 1_555
Ca2 O38 2.001952 1_555
Ca2 O14 2.281684 1_555
Ca3 O5 1.875924 1_555
Ca3 O23 1.941562 1_555
Ca3 O13 2.992351 1_555
O0 Si9 1.337503 1_555
O1 Si2 1.819216 1_545
O2 Si3 1.290650 1_555
O3 Si8 1.238089 1_555
O3 Si11 1.345649 1_555
O4 Si2 1.573739 1_545
O4 Ti1 2.211955 1_554
O5 Si7 1.097741 1_555
O6 Si10 1.342621 1_655
O7 Si9 1.102787 1_555
O8 Si1 1.667356 1_455
O9 Si0 1.780909 1_455
O10 Si7 1.725694 1_555
O11 Si6 1.708852 1_555
O12 Si7 2.541471 1_555
O13 Si7 2.003288 1_555
O13 Si11 2.357496 1_555
O14 Si6 1.507510 1_555
O16 Si1 1.550221 1_555
O17 Si1 1.292331 1_555
O17 Ti0 1.810353 1_654
O18 Si0 2.503838 1_555
O19 Si4 1.564154 1_555
O19 Ti0 2.202279 1_655
O20 Si5 1.668421 1_555
O21 Si5 1.269691 1_555
O22 Si4 1.320173 1_555
O23 Si5 1.461906 1_555
O24 Si13 1.186115 1_555
O25 Si8 1.370231 1_555
O26 Si12 1.374366 1_555
O27 Si11 1.201328 1_555
O28 Si3 1.473861 1_555
O29 Si4 1.836899 1_555
O31 Si12 1.232857 1_555
O31 Si13 1.354137 1_555
O32 Si3 1.649674 1_555
O33 Si2 1.319525 1_555
O34 Si0 1.121439 1_555
O35 Ti0 1.563867 1_565
O36 Ti1 1.565445 1_554
O37 Si0 1.977633 1_555
O37 Si13 2.382439 1_555
O38 Si6 1.317705 1_555
O38 Ti1 1.790957 1_555
O39 Si10 1.103042 1_555
