# generated using pymatgen
data_LiCoNiO4
_symmetry_space_group_name_H-M   'P 1'
_cell_length_a   5.69227522
_cell_length_b   5.69227522
_cell_length_c   5.69227522
_cell_angle_alpha   119.95572684
_cell_angle_beta   119.76858787
_cell_angle_gamma   90.23899282
_symmetry_Int_Tables_number   1
_chemical_formula_structural   LiCoNiO4
_chemical_formula_sum   'Li2 Co2 Ni2 O8'
_cell_volume   130.68960538
_cell_formula_units_Z   2
loop_
 _symmetry_equiv_pos_site_id
 _symmetry_equiv_pos_as_xyz
  1  'x, y, z'
loop_
 _atom_site_type_symbol
 _atom_site_label
 _atom_site_symmetry_multiplicity
 _atom_site_fract_x
 _atom_site_fract_y
 _atom_site_fract_z
 _atom_site_occupancy
  Li  Li0  1  0.12918500  0.87918500  0.25000000  1
  Li  Li1  1  0.87081500  0.12081500  0.75000000  1
  Co  Co0  1  0.00000000  0.50000000  0.50000000  1
  Co  Co1  1  0.50000000  0.50000000  0.00000000  1
  Ni  Ni0  1  0.50000000  0.50000000  0.50000000  1
  Ni  Ni1  1  0.50000000  0.00000000  0.00000000  1
  O  O0  1  0.26551500  0.29209700  0.52658200  1
  O  O1  1  0.26750100  0.73777000  0.52973100  1
  O  O2  1  0.70803800  0.73777000  0.97026900  1
  O  O3  1  0.26551500  0.73893400  0.97341800  1
  O  O4  1  0.73448500  0.26106600  0.02658200  1
  O  O5  1  0.73249900  0.26223000  0.47026900  1
  O  O6  1  0.29196200  0.26223000  0.02973100  1
  O  O7  1  0.73448500  0.70790300  0.47341800  1
loop_
_geom_bond_atom_site_label_1
_geom_bond_atom_site_label_2
_geom_bond_distance
_geom_bond_site_symmetry_2
Li0 O3 1.918699 1_554
Li0 O0 1.918700 1_565
Li0 O1 1.960549 1_555
Li0 O2 1.960554 1_454
Li1 O4 1.918699 1_556
Li1 O7 1.918700 1_545
Li1 O5 1.960549 1_555
Li1 O6 1.960554 1_656
Co0 O0 1.916865 1_555
Co0 O7 1.916865 1_455
Co0 O3 1.916865 1_555
Co0 O4 1.916865 1_455
Co0 O5 1.917609 1_455
Co0 O1 1.917609 1_555
Co1 O0 1.916865 1_554
Co1 O7 1.916865 1_555
Co1 O3 1.916870 1_554
Co1 O4 1.916870 1_555
Co1 O6 1.917606 1_555
Co1 O2 1.917606 1_554
Ni0 O7 1.889761 1_555
Ni0 O0 1.889761 1_555
Ni0 O1 1.902786 1_555
Ni0 O5 1.902786 1_555
Ni0 O2 1.902786 1_555
Ni0 O6 1.902786 1_555
Ni1 O4 1.889756 1_555
Ni1 O3 1.889756 1_544
Ni1 O2 1.902782 1_544
Ni1 O6 1.902782 1_555
Ni1 O5 1.902786 1_555
Ni1 O1 1.902786 1_544
