# generated using pymatgen
data_Li4Cr7(PO4)6
_symmetry_space_group_name_H-M   'P 1'
_cell_length_a   9.13495953
_cell_length_b   9.13495953
_cell_length_c   6.48547754
_cell_angle_alpha   81.11467668
_cell_angle_beta   81.11467668
_cell_angle_gamma   99.96602991
_symmetry_Int_Tables_number   1
_chemical_formula_structural   Li4Cr7(PO4)6
_chemical_formula_sum   'Li4 Cr7 P6 O24'
_cell_volume   517.42405182
_cell_formula_units_Z   1
loop_
 _symmetry_equiv_pos_site_id
 _symmetry_equiv_pos_as_xyz
  1  'x, y, z'
loop_
 _atom_site_type_symbol
 _atom_site_label
 _atom_site_symmetry_multiplicity
 _atom_site_fract_x
 _atom_site_fract_y
 _atom_site_fract_z
 _atom_site_occupancy
  Li  Li0  1  0.76754400  0.76754400  0.49509900  1
  Li  Li1  1  0.56081000  0.30892400  0.54824900  1
  Li  Li2  1  0.30892400  0.56081000  0.54824900  1
  Li  Li3  1  0.06398200  0.06398200  0.54683900  1
  Cr  Cr0  1  0.97924700  0.36181800  0.18182400  1
  Cr  Cr1  1  0.36181800  0.97924700  0.18182400  1
  Cr  Cr2  1  0.62674800  0.37833900  0.98983100  1
  Cr  Cr3  1  0.37833900  0.62674800  0.98983100  1
  Cr  Cr4  1  0.01189800  0.01189800  0.00656200  1
  Cr  Cr5  1  0.65404200  0.00995900  0.81925700  1
  Cr  Cr6  1  0.00995900  0.65404200  0.81925700  1
  P  P0  1  0.89877100  0.28250500  0.71652300  1
  P  P1  1  0.28250500  0.89877100  0.71652300  1
  P  P2  1  0.67082600  0.67082600  0.05992400  1
  P  P3  1  0.31635400  0.31635400  0.90357100  1
  P  P4  1  0.71262400  0.08594900  0.29960000  1
  P  P5  1  0.08594900  0.71262400  0.29960000  1
  O  O0  1  0.59532600  0.77487600  0.91010900  1
  O  O1  1  0.77487600  0.59532600  0.91010900  1
  O  O2  1  0.74686600  0.74686600  0.21441500  1
  O  O3  1  0.95702400  0.38207500  0.86933600  1
  O  O4  1  0.38207500  0.95702400  0.86933600  1
  O  O5  1  0.11185100  0.91275500  0.76779600  1
  O  O6  1  0.91275500  0.11185100  0.76779600  1
  O  O7  1  0.72002700  0.26923100  0.74893600  1
  O  O8  1  0.26923100  0.72002700  0.74893600  1
  O  O9  1  0.53379500  0.53379500  0.16195100  1
  O  O10  1  0.42021900  0.42021900  0.69865900  1
  O  O11  1  0.11818700  0.89028300  0.21431700  1
  O  O12  1  0.89028300  0.11818700  0.21431700  1
  O  O13  1  0.24208600  0.67555900  0.32156100  1
  O  O14  1  0.67555900  0.24208600  0.32156100  1
  O  O15  1  0.68525200  0.97025300  0.51057700  1
  O  O16  1  0.97025300  0.68525200  0.51057700  1
  O  O17  1  0.19860500  0.19860500  0.84835600  1
  O  O18  1  0.61836200  0.01938300  0.14157800  1
  O  O19  1  0.01938300  0.61836200  0.14157800  1
  O  O20  1  0.42073600  0.23827400  0.03776400  1
  O  O21  1  0.23827400  0.42073600  0.03776400  1
  O  O22  1  0.98658300  0.34704900  0.49221500  1
  O  O23  1  0.34704900  0.98658300  0.49221500  1
loop_
_geom_bond_atom_site_label_1
_geom_bond_atom_site_label_2
_geom_bond_distance
_geom_bond_site_symmetry_2
Li0 O2 1.893463 1_555
Li0 O16 2.126039 1_555
Li0 O15 2.126039 1_555
Li1 O14 1.912002 1_555
Li1 O10 2.001474 1_555
Li1 O7 2.135988 1_555
Li2 O13 1.912002 1_555
Li2 O10 2.001474 1_555
Li2 O8 2.135988 1_555
Li3 O5 1.986020 1_545
Li3 O6 1.986020 1_455
Cr0 O22 2.008956 1_555
Cr0 O3 2.051084 1_554
Cr0 O12 2.198672 1_555
Cr0 O19 2.275678 1_655
Cr0 O21 2.341458 1_655
Cr1 O23 2.008956 1_555
Cr1 O4 2.051084 1_554
Cr1 O11 2.198672 1_555
Cr1 O18 2.275678 1_565
Cr1 O20 2.341458 1_565
Cr2 O20 2.034278 1_556
Cr2 O7 2.126986 1_555
Cr2 O1 2.136873 1_555
Cr2 O9 2.144292 1_556
Cr2 O14 2.457207 1_556
Cr3 O21 2.034278 1_556
Cr3 O8 2.126986 1_555
Cr3 O0 2.136873 1_555
Cr3 O9 2.144292 1_556
Cr3 O13 2.457207 1_556
Cr4 O12 2.075449 1_455
Cr4 O11 2.075449 1_545
Cr4 O5 2.081946 1_544
Cr4 O6 2.081946 1_454
Cr4 O17 2.186912 1_554
Cr5 O15 2.074701 1_545
Cr5 O18 2.082851 1_556
Cr5 O0 2.087899 1_545
Cr5 O7 2.295232 1_555
Cr5 O6 2.337106 1_555
Cr5 O4 2.407902 1_545
Cr6 O16 2.074701 1_455
Cr6 O19 2.082851 1_556
Cr6 O1 2.087899 1_455
Cr6 O8 2.295232 1_555
Cr6 O5 2.337106 1_555
Cr6 O3 2.407902 1_455
O0 P2 1.572189 1_556
O1 P2 1.572189 1_556
O2 P2 1.493950 1_555
O3 P0 1.538359 1_555
O4 P1 1.538359 1_555
O5 P1 1.574494 1_555
O6 P0 1.574494 1_555
O7 P0 1.594539 1_555
O8 P1 1.594539 1_555
O9 P2 1.586696 1_555
O10 P3 1.573513 1_555
O11 P5 1.591679 1_555
O12 P4 1.591679 1_555
O13 P5 1.544113 1_555
O14 P4 1.544113 1_555
O15 P4 1.551721 1_565
O16 P5 1.551721 1_655
O17 P3 1.509871 1_555
O18 P4 1.563783 1_555
O19 P5 1.563783 1_555
O20 P3 1.573334 1_554
O21 P3 1.573334 1_554
O22 P0 1.522572 1_555
O23 P1 1.522572 1_555
