# generated using pymatgen
data_Ti2Mn3Te3O16
_symmetry_space_group_name_H-M   'P 1'
_cell_length_a   6.40029361
_cell_length_b   6.40029361
_cell_length_c   9.34028350
_cell_angle_alpha   86.63328656
_cell_angle_beta   86.63328656
_cell_angle_gamma   57.58870258
_symmetry_Int_Tables_number   1
_chemical_formula_structural   Ti2Mn3Te3O16
_chemical_formula_sum   'Ti2 Mn3 Te3 O16'
_cell_volume   322.28443036
_cell_formula_units_Z   1
loop_
 _symmetry_equiv_pos_site_id
 _symmetry_equiv_pos_as_xyz
  1  'x, y, z'
loop_
 _atom_site_type_symbol
 _atom_site_label
 _atom_site_symmetry_multiplicity
 _atom_site_fract_x
 _atom_site_fract_y
 _atom_site_fract_z
 _atom_site_occupancy
  Ti  Ti0  1  0.67837400  0.67837400  0.48965500  1
  Ti  Ti1  1  0.36265400  0.36265400  0.03535200  1
  Mn  Mn0  1  0.82299000  0.82299000  0.79681500  1
  Mn  Mn1  1  0.17551300  0.67565200  0.30615100  1
  Mn  Mn2  1  0.67565200  0.17551300  0.30615100  1
  Te  Te0  1  0.32603800  0.82464400  0.78318600  1
  Te  Te1  1  0.82464400  0.32603800  0.78318600  1
  Te  Te2  1  0.17650100  0.17650100  0.28422400  1
  O  O0  1  0.36020500  0.85034600  0.39935100  1
  O  O1  1  0.51701600  0.51701600  0.66091100  1
  O  O2  1  0.63731900  0.63731900  0.90094900  1
  O  O3  1  0.00533400  0.00533400  0.67607000  1
  O  O4  1  0.02378600  0.02378600  0.20174700  1
  O  O5  1  0.85034600  0.36020500  0.39935100  1
  O  O6  1  0.49821800  0.93902500  0.66241900  1
  O  O7  1  0.93902500  0.49821800  0.66241900  1
  O  O8  1  0.14379700  0.14379700  0.88921200  1
  O  O9  1  0.82587000  0.82587000  0.41516900  1
  O  O10  1  0.05573900  0.46408300  0.14807200  1
  O  O11  1  0.46408300  0.05573900  0.14807200  1
  O  O12  1  0.31466100  0.31466100  0.39750400  1
  O  O13  1  0.18194400  0.66370200  0.89371300  1
  O  O14  1  0.47666300  0.47666300  0.15217600  1
  O  O15  1  0.66370200  0.18194400  0.89371300  1
loop_
_geom_bond_atom_site_label_1
_geom_bond_atom_site_label_2
_geom_bond_distance
_geom_bond_site_symmetry_2
Mn0 O15 2.182117 1_565
Mn0 O13 2.182117 1_655
Mn0 O6 2.233869 1_555
Mn0 O7 2.233869 1_555
Mn0 O2 2.238905 1_555
Mn0 O3 2.268663 1_665
Mn1 O4 2.096466 1_565
Mn1 O9 2.123673 1_455
Mn1 O12 2.123982 1_555
Mn1 O14 2.159510 1_555
Mn1 O0 2.248833 1_555
Mn1 O10 2.466141 1_555
Mn2 O4 2.096466 1_655
Mn2 O9 2.123673 1_545
Mn2 O12 2.123982 1_555
Mn2 O14 2.159510 1_555
Mn2 O5 2.248833 1_555
Mn2 O11 2.466141 1_555
O0 Ti0 1.938995 1_555
O0 Te2 2.037182 1_565
O1 Te0 2.048240 1_555
O1 Te1 2.048240 1_555
O1 Ti0 2.333887 1_555
O2 Te0 2.039228 1_555
O2 Te1 2.039228 1_555
O3 Te0 2.027864 1_545
O3 Te1 2.027864 1_455
O4 Te2 1.924878 1_555
O5 Ti0 1.938995 1_555
O5 Te2 2.037182 1_655
O6 Te0 1.909070 1_555
O6 Ti0 2.179926 1_555
O7 Te1 1.909070 1_555
O7 Ti0 2.179926 1_555
O8 Te0 2.015331 1_545
O8 Te1 2.015331 1_455
O9 Ti0 1.751402 1_555
O10 Ti1 1.964412 1_555
O10 Te2 1.979378 1_555
O11 Ti1 1.964412 1_555
O11 Te2 1.979378 1_555
O12 Te2 1.934256 1_555
O13 Te0 1.938811 1_555
O13 Ti1 2.071672 1_556
O14 Ti1 1.735904 1_555
O15 Te1 1.938811 1_555
O15 Ti1 2.071672 1_556
