# generated using pymatgen
data_ErLuO3
_symmetry_space_group_name_H-M   'P 1'
_cell_length_a   5.58268800
_cell_length_b   5.84386600
_cell_length_c   8.22650500
_cell_angle_alpha   90.00000000
_cell_angle_beta   90.00000000
_cell_angle_gamma   90.00000000
_symmetry_Int_Tables_number   1
_chemical_formula_structural   ErLuO3
_chemical_formula_sum   'Er4 Lu4 O12'
_cell_volume   268.38545271
_cell_formula_units_Z   4
loop_
 _symmetry_equiv_pos_site_id
 _symmetry_equiv_pos_as_xyz
  1  'x, y, z'
loop_
 _atom_site_type_symbol
 _atom_site_label
 _atom_site_symmetry_multiplicity
 _atom_site_fract_x
 _atom_site_fract_y
 _atom_site_fract_z
 _atom_site_occupancy
  Er  Er0  1  0.98723800  0.05224800  0.25000000  1
  Er  Er1  1  0.48723800  0.44775200  0.75000000  1
  Er  Er2  1  0.51276200  0.55224800  0.25000000  1
  Er  Er3  1  0.01276200  0.94775200  0.75000000  1
  Lu  Lu0  1  0.50000000  0.00000000  0.00000000  1
  Lu  Lu1  1  0.50000000  0.00000000  0.50000000  1
  Lu  Lu2  1  0.00000000  0.50000000  0.00000000  1
  Lu  Lu3  1  0.00000000  0.50000000  0.50000000  1
  O  O0  1  0.64218700  0.07454900  0.75000000  1
  O  O1  1  0.17818100  0.18205600  0.57403500  1
  O  O2  1  0.17818100  0.18205600  0.92596500  1
  O  O3  1  0.67818100  0.31794400  0.42596500  1
  O  O4  1  0.67818100  0.31794400  0.07403500  1
  O  O5  1  0.14218700  0.42545100  0.25000000  1
  O  O6  1  0.85781300  0.57454900  0.75000000  1
  O  O7  1  0.32181900  0.68205600  0.57403500  1
  O  O8  1  0.32181900  0.68205600  0.92596500  1
  O  O9  1  0.82181900  0.81794400  0.07403500  1
  O  O10  1  0.82181900  0.81794400  0.42596500  1
  O  O11  1  0.35781300  0.92545100  0.25000000  1
loop_
_geom_bond_atom_site_label_1
_geom_bond_atom_site_label_2
_geom_bond_distance
_geom_bond_site_symmetry_2
Er0 O9 2.196160 1_545
Er0 O10 2.196160 1_545
Er0 O11 2.197501 1_645
Er0 O5 2.346234 1_655
Er0 O4 2.735549 1_555
Er0 O3 2.735549 1_555
Er0 O1 2.969440 1_655
Er0 O2 2.969440 1_654
Er1 O7 2.196160 1_555
Er1 O8 2.196160 1_555
Er1 O6 2.197501 1_555
Er1 O0 2.346234 1_555
Er1 O1 2.735549 1_555
Er1 O2 2.735549 1_555
Er1 O3 2.969440 1_555
Er1 O4 2.969440 1_556
Er2 O3 2.196160 1_555
Er2 O4 2.196160 1_555
Er2 O5 2.197501 1_555
Er2 O11 2.346234 1_555
Er2 O9 2.735549 1_555
Er2 O10 2.735549 1_555
Er2 O7 2.969440 1_555
Er2 O8 2.969440 1_554
Er3 O2 2.196160 1_565
Er3 O1 2.196160 1_565
Er3 O0 2.197501 1_465
Er3 O6 2.346234 1_455
Er3 O7 2.735549 1_555
Er3 O8 2.735549 1_555
Er3 O10 2.969440 1_455
Er3 O9 2.969440 1_456
Lu0 O2 2.175011 1_554
Lu0 O9 2.175011 1_545
Lu0 O8 2.193781 1_544
Lu0 O4 2.193781 1_555
Lu0 O11 2.247132 1_545
Lu0 O0 2.247132 1_554
Lu1 O1 2.175011 1_555
Lu1 O10 2.175011 1_545
Lu1 O7 2.193781 1_545
Lu1 O3 2.193781 1_555
Lu1 O11 2.247132 1_545
Lu1 O0 2.247132 1_555
Lu2 O4 2.175011 1_455
Lu2 O8 2.175011 1_554
Lu2 O2 2.193781 1_554
Lu2 O9 2.193781 1_455
Lu2 O6 2.247132 1_454
Lu2 O5 2.247132 1_555
Lu3 O7 2.175011 1_555
Lu3 O3 2.175011 1_455
Lu3 O1 2.193781 1_555
Lu3 O10 2.193781 1_455
Lu3 O5 2.247132 1_555
Lu3 O6 2.247132 1_455
