# generated using pymatgen
data_K2SmPCO7
_symmetry_space_group_name_H-M   'P 1'
_cell_length_a   7.27377900
_cell_length_b   5.82937300
_cell_length_c   10.03556566
_cell_angle_alpha   87.44907650
_cell_angle_beta   90.00000000
_cell_angle_gamma   90.00000000
_symmetry_Int_Tables_number   1
_chemical_formula_structural   K2SmPCO7
_chemical_formula_sum   'K4 Sm2 P2 C2 O14'
_cell_volume   425.10207975
_cell_formula_units_Z   2
loop_
 _symmetry_equiv_pos_site_id
 _symmetry_equiv_pos_as_xyz
  1  'x, y, z'
loop_
 _atom_site_type_symbol
 _atom_site_label
 _atom_site_symmetry_multiplicity
 _atom_site_fract_x
 _atom_site_fract_y
 _atom_site_fract_z
 _atom_site_occupancy
  K  K0  1  0.48944100  0.24557300  0.78352300  1
  K  K1  1  0.01055900  0.24557300  0.78352300  1
  K  K2  1  0.51055900  0.75442700  0.21647700  1
  K  K3  1  0.98944100  0.75442700  0.21647700  1
  Sm  Sm0  1  0.75000000  0.78105300  0.62739100  1
  Sm  Sm1  1  0.25000000  0.21894700  0.37260900  1
  P  P0  1  0.25000000  0.70915200  0.57178800  1
  P  P1  1  0.75000000  0.29084800  0.42821200  1
  C  C0  1  0.75000000  0.73049000  0.90850800  1
  C  C1  1  0.25000000  0.26951000  0.09149200  1
  O  O0  1  0.25000000  0.30326900  0.96633400  1
  O  O1  1  0.75000000  0.93603700  0.84892200  1
  O  O2  1  0.75000000  0.55735400  0.82642700  1
  O  O3  1  0.07316700  0.77852100  0.64643200  1
  O  O4  1  0.42683300  0.77852100  0.64643200  1
  O  O5  1  0.75000000  0.16921000  0.57132000  1
  O  O6  1  0.25000000  0.44283900  0.55652100  1
  O  O7  1  0.75000000  0.55716100  0.44347900  1
  O  O8  1  0.25000000  0.83079000  0.42868000  1
  O  O9  1  0.57316700  0.22147900  0.35356800  1
  O  O10  1  0.92683300  0.22147900  0.35356800  1
  O  O11  1  0.25000000  0.44264600  0.17357300  1
  O  O12  1  0.25000000  0.06396300  0.15107800  1
  O  O13  1  0.75000000  0.69673100  0.03366600  1
loop_
_geom_bond_atom_site_label_1
_geom_bond_atom_site_label_2
_geom_bond_distance
_geom_bond_site_symmetry_2
K0 O0 2.562647 1_555
K0 O2 2.674000 1_555
K0 O1 2.678276 1_545
K0 O5 2.899932 1_555
K0 O6 3.051588 1_555
K0 O4 3.137875 1_545
K1 O0 2.562647 1_555
K1 O2 2.674000 1_455
K1 O1 2.678276 1_445
K1 O5 2.899932 1_455
K1 O6 3.051588 1_555
K1 O3 3.137875 1_545
K2 O13 2.562647 1_555
K2 O11 2.674000 1_555
K2 O12 2.678276 1_565
K2 O8 2.899932 1_555
K2 O7 3.051588 1_555
K2 O9 3.137875 1_565
K3 O13 2.562647 1_555
K3 O11 2.674000 1_655
K3 O12 2.678276 1_665
K3 O8 2.899932 1_655
K3 O7 3.051588 1_555
K3 O10 3.137875 1_565
C0 O13 1.262672 1_556
C0 O1 1.315107 1_555
C0 O2 1.330853 1_555
C1 O0 1.262672 1_554
C1 O12 1.315107 1_555
C1 O11 1.330853 1_555
O1 Sm0 2.436719 1_555
O2 Sm0 2.336319 1_555
O3 P0 1.551146 1_555
O3 Sm0 2.358392 1_455
O4 P0 1.551146 1_555
O4 Sm0 2.358392 1_555
O5 P1 1.573124 1_555
O5 Sm0 2.307198 1_545
O6 P0 1.566751 1_555
O6 Sm1 2.307446 1_555
O7 P1 1.566751 1_555
O7 Sm0 2.307446 1_555
O8 P0 1.573124 1_555
O8 Sm1 2.307198 1_565
O9 P1 1.551146 1_555
O9 Sm1 2.358392 1_555
O10 P1 1.551146 1_555
O10 Sm1 2.358392 1_655
O11 Sm1 2.336319 1_555
O12 Sm1 2.436719 1_555
