# generated using pymatgen
data_Li2Si3Ni2O9
_symmetry_space_group_name_H-M   'P 1'
_cell_length_a   9.93840954
_cell_length_b   9.93840954
_cell_length_c   12.24471200
_cell_angle_alpha   90.00000000
_cell_angle_beta   90.00000000
_cell_angle_gamma   119.99999693
_symmetry_Int_Tables_number   1
_chemical_formula_structural   Li2Si3Ni2O9
_chemical_formula_sum   'Li12 Si18 Ni12 O54'
_cell_volume   1047.40103329
_cell_formula_units_Z   6
loop_
 _symmetry_equiv_pos_site_id
 _symmetry_equiv_pos_as_xyz
  1  'x, y, z'
loop_
 _atom_site_type_symbol
 _atom_site_label
 _atom_site_symmetry_multiplicity
 _atom_site_fract_x
 _atom_site_fract_y
 _atom_site_fract_z
 _atom_site_occupancy
  Li  Li0  1  0.47644100  0.64207100  0.18325100  1
  Li  Li1  1  0.63641500  0.49194700  0.01347800  1
  Li  Li2  1  0.50805300  0.14446800  0.68014500  1
  Li  Li3  1  0.35792900  0.83436900  0.84991800  1
  Li  Li4  1  0.85553200  0.36358500  0.34681100  1
  Li  Li5  1  0.50013600  0.69479800  0.68284500  1
  Li  Li6  1  0.67879300  0.99843300  0.76102300  1
  Li  Li7  1  0.16563100  0.52355900  0.51658400  1
  Li  Li8  1  0.19466200  0.49986400  0.01617800  1
  Li  Li9  1  0.00156700  0.68036000  0.42769000  1
  Li  Li10  1  0.31964000  0.32120700  0.09435600  1
  Li  Li11  1  0.30520200  0.80533800  0.34951100  1
  Si  Si0  1  0.47218200  0.62343400  0.91835300  1
  Si  Si1  1  0.62546300  0.48091300  0.75737900  1
  Si  Si2  1  0.50792700  0.17386900  0.90524800  1
  Si  Si3  1  0.66594200  0.49207300  0.23858200  1
  Si  Si4  1  0.37656600  0.84874800  0.58502000  1
  Si  Si5  1  0.51908700  0.14455000  0.42404500  1
  Si  Si6  1  0.50448000  0.67171700  0.43630500  1
  Si  Si7  1  0.82613100  0.33405800  0.57191500  1
  Si  Si8  1  0.85545000  0.37453700  0.09071200  1
  Si  Si9  1  0.95167300  0.15523300  0.44481900  1
  Si  Si10  1  0.80326700  0.85078900  0.57228800  1
  Si  Si11  1  0.15125200  0.52781800  0.25168600  1
  Si  Si12  1  0.16723700  0.49552000  0.76963900  1
  Si  Si13  1  0.04752200  0.19673300  0.90562100  1
  Si  Si14  1  0.84476700  0.79644000  0.11148500  1
  Si  Si15  1  0.20356000  0.04832700  0.77815200  1
  Si  Si16  1  0.14921100  0.95247800  0.23895500  1
  Si  Si17  1  0.32828300  0.83276300  0.10297200  1
  Ni  Ni0  1  0.67426600  0.49457200  0.49806600  1
  Ni  Ni1  1  0.50542800  0.17969300  0.16473300  1
  Ni  Ni2  1  0.82030700  0.32573400  0.83140000  1
  Ni  Ni3  1  0.67555300  0.99605100  0.23744100  1
  Ni  Ni4  1  0.70347700  0.99954700  0.00151700  1
  Ni  Ni5  1  0.82267200  0.82750100  0.84030600  1
  Ni  Ni6  1  0.00482900  0.17732800  0.17364000  1
  Ni  Ni7  1  0.32049700  0.32444700  0.57077400  1
  Ni  Ni8  1  0.29607000  0.29652300  0.33485000  1
  Ni  Ni9  1  0.00045300  0.70393000  0.66818300  1
  Ni  Ni10  1  0.00394900  0.67950300  0.90410800  1
  Ni  Ni11  1  0.17249900  0.99517100  0.50697300  1
  O  O0  1  0.40410100  0.48167500  0.43733800  1
  O  O1  1  0.43080000  0.54418400  0.03705000  1
  O  O2  1  0.52558000  0.52906900  0.83575000  1
  O  O3  1  0.48044100  0.36560100  0.23238200  1
  O  O4  1  0.39249200  0.20016400  0.44024300  1
  O  O5  1  0.35123600  0.04372500  0.84035700  1
  O  O6  1  0.54919900  0.43511200  0.63577900  1
  O  O7  1  0.47558100  0.24038200  0.01587700  1
  O  O8  1  0.69248900  0.64876400  0.17369000  1
  O  O9  1  0.59795800  0.31792100  0.81443700  1
  O  O10  1  0.47093100  0.99651100  0.50241700  1
  O  O11  1  0.76480100  0.52441900  0.34921000  1
  O  O12  1  0.45581600  0.88661500  0.70371600  1
  O  O13  1  0.56488800  0.11408700  0.30244500  1
  O  O14  1  0.80767200  0.60750800  0.77357600  1
  O  O15  1  0.71996300  0.40204200  0.14777100  1
  O  O16  1  0.63439900  0.11484000  0.89904800  1
  O  O17  1  0.51832500  0.92242600  0.10400500  1
  O  O18  1  0.40965100  0.71631500  0.52797800  1
  O  O19  1  0.68207900  0.28003700  0.48110400  1
  O  O20  1  0.53580300  0.77043100  0.32532400  1
  O  O21  1  0.75961800  0.23519900  0.68254400  1
  O  O22  1  0.88516000  0.51955900  0.56571500  1
  O  O23  1  0.88591300  0.45080100  0.96911200  1
  O  O24  1  0.60033200  0.80483200  0.90474800  1
  O  O25  1  0.79983600  0.19232800  0.10690900  1
  O  O26  1  0.00348900  0.47442000  0.16908300  1
  O  O27  1  0.95627500  0.30751100  0.50702300  1
  O  O28  1  0.66728300  0.70080800  0.49919800  1
  O  O29  1  0.07757400  0.59589900  0.77067100  1
  O  O30  1  0.88739000  0.15016800  0.32039700  1
  O  O31  1  0.73257400  0.84001400  0.69333900  1
  O  O32  1  0.11338500  0.56920000  0.37038300  1
  O  O33  1  0.82004700  0.00345100  0.50985600  1
  O  O34  1  0.81945600  0.94557900  0.12835000  1
  O  O35  1  0.87860800  0.04339000  0.89322300  1
  O  O36  1  0.03352500  0.33271700  0.83253200  1
  O  O37  1  0.84983200  0.73722200  0.98706400  1
  O  O38  1  0.10744000  0.26742600  0.02667200  1
  O  O39  1  0.23462700  0.46419700  0.65865700  1
  O  O40  1  0.20450000  0.39966800  0.23808200  1
  O  O41  1  0.95661000  0.83521800  0.55989000  1
  O  O42  1  0.12612300  0.18054400  0.46168300  1
  O  O43  1  0.30666400  0.59034900  0.86131100  1
  O  O44  1  0.99654900  0.81659600  0.17652200  1
  O  O45  1  0.18340400  0.17995300  0.84318900  1
  O  O46  1  0.16478200  0.12139200  0.22655600  1
  O  O47  1  0.05442100  0.87387700  0.79501600  1
  O  O48  1  0.15998600  0.89256000  0.36000500  1
  O  O49  1  0.26277800  0.11261000  0.65373100  1
  O  O50  1  0.19516800  0.79550000  0.57141500  1
  O  O51  1  0.29919200  0.96647500  0.16586500  1
  O  O52  1  0.22956900  0.76537300  0.99199100  1
  O  O53  1  0.28368500  0.69333600  0.19464400  1
loop_
_geom_bond_atom_site_label_1
_geom_bond_atom_site_label_2
_geom_bond_distance
_geom_bond_site_symmetry_2
Li0 O1 1.978805 1_555
Li0 O20 2.061358 1_555
Li0 O8 2.117938 1_555
Li0 O53 2.219219 1_555
Li1 O7 2.193240 1_555
Li1 O15 2.221197 1_555
Li1 O37 2.318439 1_554
Li1 O1 2.364222 1_555
Li1 O8 2.391537 1_555
Li1 O2 2.547906 1_554
Li2 O21 2.193240 1_555
Li2 O9 2.221188 1_555
Li2 O49 2.318439 1_555
Li2 O12 2.364230 1_545
Li2 O5 2.391537 1_555
Li2 O10 2.547906 1_545
Li3 O12 1.978816 1_555
Li3 O52 2.061358 1_555
Li3 O5 2.117947 1_565
Li3 O43 2.219209 1_555
Li4 O11 2.193240 1_555
Li4 O19 2.221197 1_555
Li4 O30 2.318439 1_555
Li4 O32 2.364228 1_655
Li4 O27 2.391537 1_555
Li4 O26 2.547906 1_655
Li5 O31 2.025305 1_555
Li5 O18 2.154691 1_555
Li5 O12 2.175594 1_555
Li5 O39 2.501111 1_555
Li5 O2 2.588195 1_555
Li6 O12 2.043409 1_555
Li6 O31 2.071936 1_555
Li6 O16 2.213565 1_565
Li6 O21 2.283744 1_565
Li6 O35 2.424104 1_565
Li6 O24 2.430421 1_555
Li7 O32 1.978805 1_555
Li7 O39 2.061349 1_555
Li7 O27 2.117942 1_455
Li7 O18 2.219213 1_555
Li8 O38 2.025305 1_555
Li8 O43 2.154691 1_554
Li8 O1 2.175606 1_555
Li8 O52 2.501114 1_554
Li8 O26 2.588195 1_555
Li9 O32 2.043417 1_555
Li9 O48 2.071941 1_555
Li9 O22 2.213565 1_455
Li9 O11 2.283750 1_455
Li9 O41 2.424104 1_455
Li9 O50 2.430421 1_555
Li10 O1 2.043404 1_555
Li10 O38 2.071936 1_555
Li10 O3 2.213574 1_555
Li10 O7 2.283744 1_555
Li10 O46 2.424105 1_555
Li10 O40 2.430430 1_555
Li11 O48 2.025304 1_555
Li11 O53 2.154691 1_555
Li11 O32 2.175602 1_555
Li11 O20 2.501104 1_555
Li11 O10 2.588204 1_555
Ni0 O11 1.988193 1_555
Ni0 O6 2.000779 1_555
Ni0 O28 2.085270 1_555
Ni0 O22 2.149498 1_555
Ni0 O19 2.181910 1_555
Ni1 O7 1.988197 1_555
Ni1 O13 2.000764 1_555
Ni1 O51 2.085265 1_545
Ni1 O3 2.149507 1_555
Ni1 O15 2.181915 1_555
Ni2 O21 1.988194 1_555
Ni2 O23 2.000769 1_555
Ni2 O36 2.085260 1_655
Ni2 O16 2.149497 1_555
Ni2 O9 2.181921 1_555
Ni3 O17 2.122103 1_555
Ni3 O13 2.123564 1_565
Ni3 O30 2.141387 1_565
Ni3 O34 2.190596 1_555
Ni3 O20 2.236208 1_555
Ni3 O25 2.340092 1_565
Ni4 O17 2.034202 1_555
Ni4 O16 2.035967 1_564
Ni4 O24 2.053276 1_554
Ni4 O35 2.054078 1_564
Ni4 O25 2.102020 1_565
Ni4 O34 2.155554 1_555
Ni5 O35 2.034622 1_565
Ni5 O31 2.041339 1_555
Ni5 O37 2.085500 1_555
Ni5 O47 2.182480 1_655
Ni5 O24 2.249080 1_555
Ni5 O14 2.268079 1_555
Ni6 O46 2.034618 1_555
Ni6 O38 2.041350 1_555
Ni6 O30 2.085490 1_455
Ni6 O34 2.182480 1_445
Ni6 O40 2.249080 1_555
Ni6 O25 2.268083 1_455
Ni7 O0 2.122103 1_555
Ni7 O6 2.123577 1_555
Ni7 O49 2.141395 1_555
Ni7 O42 2.190590 1_555
Ni7 O39 2.236208 1_555
Ni7 O4 2.340089 1_555
Ni8 O0 2.034202 1_555
Ni8 O3 2.035960 1_555
Ni8 O40 2.053269 1_555
Ni8 O46 2.054078 1_555
Ni8 O4 2.102027 1_555
Ni8 O42 2.155554 1_555
Ni9 O29 2.034202 1_555
Ni9 O22 2.035960 1_455
Ni9 O50 2.053269 1_555
Ni9 O41 2.054070 1_455
Ni9 O14 2.102027 1_455
Ni9 O47 2.155554 1_555
Ni10 O29 2.122118 1_555
Ni10 O23 2.123572 1_455
Ni10 O37 2.141381 1_455
Ni10 O47 2.190595 1_555
Ni10 O52 2.236208 1_555
Ni10 O14 2.340091 1_455
Ni11 O41 2.034622 1_455
Ni11 O48 2.041350 1_555
Ni11 O49 2.085500 1_565
Ni11 O42 2.182480 1_565
Ni11 O50 2.249080 1_555
Ni11 O4 2.268079 1_565
O0 Si6 1.636591 1_555
O1 Si0 1.605604 1_554
O2 Si1 1.615686 1_555
O2 Si0 1.637653 1_555
O3 Si3 1.633152 1_555
O4 Si5 1.619624 1_555
O5 Si2 1.647771 1_555
O5 Si15 1.674341 1_555
O6 Si1 1.629006 1_555
O7 Si2 1.608665 1_554
O8 Si3 1.647777 1_555
O8 Si14 1.674341 1_555
O9 Si1 1.656520 1_555
O9 Si2 1.675015 1_555
O10 Si5 1.615694 1_565
O10 Si4 1.637653 1_555
O11 Si3 1.608655 1_555
O12 Si4 1.605593 1_555
O13 Si5 1.629006 1_555
O14 Si1 1.619622 1_555
O15 Si8 1.656525 1_555
O15 Si3 1.675015 1_555
O16 Si2 1.633152 1_555
O17 Si17 1.636591 1_555
O18 Si4 1.661642 1_555
O18 Si6 1.662053 1_555
O19 Si5 1.656525 1_555
O19 Si7 1.675015 1_555
O20 Si6 1.612661 1_555
O21 Si7 1.608665 1_555
O22 Si7 1.633152 1_555
O23 Si8 1.629006 1_556
O24 Si0 1.613652 1_555
O25 Si8 1.619622 1_555
O26 Si8 1.615686 1_455
O26 Si11 1.637653 1_555
O27 Si7 1.647777 1_555
O27 Si9 1.674335 1_555
O28 Si6 1.681307 1_555
O28 Si10 1.683678 1_555
O29 Si12 1.636591 1_555
O30 Si9 1.643051 1_555
O31 Si10 1.620760 1_555
O32 Si11 1.605601 1_555
O33 Si9 1.627153 1_555
O33 Si10 1.631300 1_545
O34 Si14 1.635758 1_555
O35 Si13 1.614114 1_655
O36 Si12 1.681307 1_555
O36 Si13 1.683671 1_555
O37 Si14 1.643040 1_556
O38 Si13 1.620760 1_554
O39 Si12 1.612666 1_555
O40 Si11 1.613651 1_555
O41 Si10 1.614114 1_555
O42 Si9 1.635756 1_455
O43 Si0 1.661642 1_555
O43 Si12 1.662044 1_555
O44 Si14 1.627153 1_555
O44 Si16 1.631306 1_655
O45 Si15 1.627153 1_555
O45 Si13 1.631300 1_555
O46 Si16 1.614115 1_545
O47 Si15 1.635756 1_565
O48 Si16 1.620749 1_555
O49 Si15 1.643040 1_555
O50 Si4 1.613652 1_555
O51 Si17 1.681307 1_555
O51 Si16 1.683678 1_555
O52 Si17 1.612660 1_556
O53 Si11 1.661642 1_555
O53 Si17 1.662044 1_555
