# generated using pymatgen
data_K2Ni(CN)4
_symmetry_space_group_name_H-M   'P 1'
_cell_length_a   7.68119000
_cell_length_b   4.39515400
_cell_length_c   13.38457617
_cell_angle_alpha   89.17688116
_cell_angle_beta   90.00000000
_cell_angle_gamma   90.00000000
_symmetry_Int_Tables_number   1
_chemical_formula_structural   K2Ni(CN)4
_chemical_formula_sum   'K4 Ni2 C8 N8'
_cell_volume   451.81683656
_cell_formula_units_Z   2
loop_
 _symmetry_equiv_pos_site_id
 _symmetry_equiv_pos_as_xyz
  1  'x, y, z'
loop_
 _atom_site_type_symbol
 _atom_site_label
 _atom_site_symmetry_multiplicity
 _atom_site_fract_x
 _atom_site_fract_y
 _atom_site_fract_z
 _atom_site_occupancy
  K  K0  1  0.04226700  0.71501900  0.65545000  1
  K  K1  1  0.54226700  0.28498100  0.84455000  1
  K  K2  1  0.45773300  0.71501900  0.15545000  1
  K  K3  1  0.95773300  0.28498100  0.34455000  1
  Ni  Ni0  1  0.00000000  0.00000000  0.00000000  1
  Ni  Ni1  1  0.50000000  0.00000000  0.50000000  1
  C  C0  1  0.88238400  0.85007500  0.89151200  1
  C  C1  1  0.11761600  0.14992500  0.10848800  1
  C  C2  1  0.61761600  0.85007500  0.39151200  1
  C  C3  1  0.38238400  0.14992500  0.60848800  1
  C  C4  1  0.29245700  0.85504000  0.45091500  1
  C  C5  1  0.79245700  0.14496000  0.04908500  1
  C  C6  1  0.20754300  0.85504000  0.95091500  1
  C  C7  1  0.70754300  0.14496000  0.54908500  1
  N  N0  1  0.65754000  0.23485800  0.07801700  1
  N  N1  1  0.15754000  0.76514200  0.42198300  1
  N  N2  1  0.30336300  0.24109000  0.67728600  1
  N  N3  1  0.19663700  0.24109000  0.17728600  1
  N  N4  1  0.80336300  0.75891000  0.82271400  1
  N  N5  1  0.69663700  0.75891000  0.32271400  1
  N  N6  1  0.34246000  0.76514200  0.92198300  1
  N  N7  1  0.84246000  0.23485800  0.57801700  1
loop_
_geom_bond_atom_site_label_1
_geom_bond_atom_site_label_2
_geom_bond_distance
_geom_bond_site_symmetry_2
K0 N7 2.818895 1_455
K0 N2 2.903261 1_555
K0 N4 2.903296 1_455
K0 N7 2.929465 1_465
K0 N2 3.077836 1_565
K0 N1 3.252303 1_555
K1 N6 2.818895 1_555
K1 N4 2.903261 1_555
K1 N2 2.903296 1_555
K1 N6 2.929465 1_545
K1 N4 3.077836 1_545
K1 N0 3.252303 1_556
K2 N0 2.818895 1_555
K2 N3 2.903261 1_555
K2 N5 2.903296 1_555
K2 N0 2.929465 1_565
K2 N3 3.077836 1_565
K2 N6 3.252303 1_554
K3 N1 2.818895 1_655
K3 N5 2.903261 1_555
K3 N3 2.903296 1_655
K3 N1 2.929465 1_645
K3 N5 3.077836 1_545
K3 N7 3.252303 1_555
C0 N4 1.177922 1_555
C0 Ni0 1.840212 1_666
C1 N3 1.177922 1_555
C1 Ni0 1.840212 1_555
C2 N5 1.177922 1_555
C2 Ni1 1.840212 1_565
C3 N2 1.177922 1_555
C3 Ni1 1.840212 1_555
C4 N1 1.176620 1_555
C4 Ni1 1.841460 1_565
C5 N0 1.176620 1_555
C5 Ni0 1.841460 1_655
C6 N6 1.176620 1_555
C6 Ni0 1.841460 1_566
C7 N7 1.176620 1_555
C7 Ni1 1.841460 1_555
