# generated using pymatgen
data_Sr6Co4Bi2O15
_symmetry_space_group_name_H-M   'P 1'
_cell_length_a   16.69490432
_cell_length_b   16.69490432
_cell_length_c   5.58319600
_cell_angle_alpha   90.00000000
_cell_angle_beta   90.00000000
_cell_angle_gamma   90.12962205
_symmetry_Int_Tables_number   1
_chemical_formula_structural   Sr6Co4Bi2O15
_chemical_formula_sum   'Sr24 Co16 Bi8 O60'
_cell_volume   1556.14345820
_cell_formula_units_Z   4
loop_
 _symmetry_equiv_pos_site_id
 _symmetry_equiv_pos_as_xyz
  1  'x, y, z'
loop_
 _atom_site_type_symbol
 _atom_site_label
 _atom_site_symmetry_multiplicity
 _atom_site_fract_x
 _atom_site_fract_y
 _atom_site_fract_z
 _atom_site_occupancy
  Sr  Sr0  1  0.87762300  0.77144100  0.25128900  1
  Sr  Sr1  1  0.22855900  0.12237700  0.74871100  1
  Sr  Sr2  1  0.38809800  0.27776900  0.75186600  1
  Sr  Sr3  1  0.37663200  0.73084900  0.75048700  1
  Sr  Sr4  1  0.88736800  0.22433400  0.25349000  1
  Sr  Sr5  1  0.61190200  0.72223100  0.75186600  1
  Sr  Sr6  1  0.84025200  0.49278300  0.75923900  1
  Sr  Sr7  1  0.77144100  0.87762300  0.74871100  1
  Sr  Sr8  1  0.27776900  0.38809800  0.24813400  1
  Sr  Sr9  1  0.26915100  0.62336800  0.24951300  1
  Sr  Sr10  1  0.22433400  0.88736800  0.74651000  1
  Sr  Sr11  1  0.12237700  0.22855900  0.25128900  1
  Sr  Sr12  1  0.72223100  0.61190200  0.24813400  1
  Sr  Sr13  1  0.77566600  0.11263200  0.74651000  1
  Sr  Sr14  1  0.33998900  0.00380400  0.24828300  1
  Sr  Sr15  1  0.66001100  0.99619600  0.24828300  1
  Sr  Sr16  1  0.11263200  0.77566600  0.25349000  1
  Sr  Sr17  1  0.73084900  0.37663200  0.24951300  1
  Sr  Sr18  1  0.00380400  0.33998900  0.75171700  1
  Sr  Sr19  1  0.62336800  0.26915100  0.75048700  1
  Sr  Sr20  1  0.99619600  0.66001100  0.75171700  1
  Sr  Sr21  1  0.49278300  0.84025200  0.24076100  1
  Sr  Sr22  1  0.50721700  0.15974800  0.24076100  1
  Sr  Sr23  1  0.15974800  0.50721700  0.75923900  1
  Co  Co0  1  0.41318600  0.91799400  0.74718600  1
  Co  Co1  1  0.68481500  0.79736500  0.24708200  1
  Co  Co2  1  0.79736500  0.68481500  0.75291800  1
  Co  Co3  1  0.09045300  0.41492700  0.26026500  1
  Co  Co4  1  0.41492700  0.09045300  0.73973500  1
  Co  Co5  1  0.29783200  0.81524400  0.24907000  1
  Co  Co6  1  0.90954700  0.58507300  0.26026500  1
  Co  Co7  1  0.58681400  0.08200600  0.74718600  1
  Co  Co8  1  0.81524400  0.29783200  0.75093000  1
  Co  Co9  1  0.91799400  0.41318600  0.25281400  1
  Co  Co10  1  0.70216800  0.18475600  0.24907000  1
  Co  Co11  1  0.20263500  0.31518500  0.75291800  1
  Co  Co12  1  0.08200600  0.58681400  0.25281400  1
  Co  Co13  1  0.58507300  0.90954700  0.73973500  1
  Co  Co14  1  0.18475600  0.70216800  0.75093000  1
  Co  Co15  1  0.31518500  0.20263500  0.24708200  1
  Bi  Bi0  1  0.11785400  0.00495200  0.22955000  1
  Bi  Bi1  1  0.49390300  0.61763400  0.26969200  1
  Bi  Bi2  1  0.00495200  0.11785400  0.77045000  1
  Bi  Bi3  1  0.61763400  0.49390300  0.73030800  1
  Bi  Bi4  1  0.88214600  0.99504800  0.22955000  1
  Bi  Bi5  1  0.50609700  0.38236600  0.26969200  1
  Bi  Bi6  1  0.99504800  0.88214600  0.77045000  1
  Bi  Bi7  1  0.38236600  0.50609700  0.73030800  1
  O  O0  1  0.74283800  0.74283800  0.50000000  1
  O  O1  1  0.99376800  0.87064300  0.15113800  1
  O  O2  1  0.29341500  0.59661600  0.77602900  1
  O  O3  1  0.16337700  0.50513800  0.24005200  1
  O  O4  1  0.63966000  0.12921400  0.00649900  1
  O  O5  1  0.86773000  0.36462300  0.51620200  1
  O  O6  1  0.75721700  0.24278300  0.00000000  1
  O  O7  1  0.86383600  0.63300400  0.98915300  1
  O  O8  1  0.40338400  0.70658500  0.22397100  1
  O  O9  1  0.70374200  0.59296000  0.77277200  1
  O  O10  1  0.63537700  0.13227000  0.48379800  1
  O  O11  1  0.90765200  0.20381700  0.72757600  1
  O  O12  1  0.70658500  0.40338400  0.77602900  1
  O  O13  1  0.66340700  0.99641900  0.74456300  1
  O  O14  1  0.50513800  0.16337700  0.75994800  1
  O  O15  1  0.75232200  0.24767800  0.50000000  1
  O  O16  1  0.36034000  0.87078600  0.00649900  1
  O  O17  1  0.12921400  0.63966000  0.99350100  1
  O  O18  1  0.74851800  0.74851800  0.00000000  1
  O  O19  1  0.59661600  0.29341500  0.22397100  1
  O  O20  1  0.62717400  0.86203900  0.48233200  1
  O  O21  1  0.36462300  0.86773000  0.48379800  1
  O  O22  1  0.50651900  0.37062300  0.65050300  1
  O  O23  1  0.59296000  0.70374200  0.22722800  1
  O  O24  1  0.24278300  0.75721700  0.00000000  1
  O  O25  1  0.00623200  0.12935700  0.15113800  1
  O  O26  1  0.49348100  0.62937700  0.65050300  1
  O  O27  1  0.63300400  0.86383600  0.01084700  1
  O  O28  1  0.49486200  0.83662300  0.75994800  1
  O  O29  1  0.50000000  0.00000000  0.74243100  1
  O  O30  1  0.20381700  0.90765200  0.27242400  1
  O  O31  1  0.25148200  0.25148200  0.00000000  1
  O  O32  1  0.83662300  0.49486200  0.24005200  1
  O  O33  1  0.37282600  0.13796100  0.48233200  1
  O  O34  1  0.12935700  0.00623200  0.84886200  1
  O  O35  1  0.09234800  0.79618300  0.72757600  1
  O  O36  1  0.79618300  0.09234800  0.27242400  1
  O  O37  1  0.99641900  0.66340700  0.25543700  1
  O  O38  1  0.13227000  0.63537700  0.51620200  1
  O  O39  1  0.09699700  0.20679200  0.72487100  1
  O  O40  1  0.87064300  0.99376800  0.84886200  1
  O  O41  1  0.40704000  0.29625800  0.22722800  1
  O  O42  1  0.50000000  0.00000000  0.24271700  1
  O  O43  1  0.00000000  0.50000000  0.75728300  1
  O  O44  1  0.79320800  0.90300300  0.27512900  1
  O  O45  1  0.25716200  0.25716200  0.50000000  1
  O  O46  1  0.29625800  0.40704000  0.77277200  1
  O  O47  1  0.13796100  0.37282600  0.51766800  1
  O  O48  1  0.24767800  0.75232200  0.50000000  1
  O  O49  1  0.00358100  0.33659300  0.25543700  1
  O  O50  1  0.87078600  0.36034000  0.99350100  1
  O  O51  1  0.90300300  0.79320800  0.72487100  1
  O  O52  1  0.86203900  0.62717400  0.51766800  1
  O  O53  1  0.36699600  0.13616400  0.01084700  1
  O  O54  1  0.00000000  0.50000000  0.25756900  1
  O  O55  1  0.13616400  0.36699600  0.98915300  1
  O  O56  1  0.33659300  0.00358100  0.74456300  1
  O  O57  1  0.37062300  0.50651900  0.34949700  1
  O  O58  1  0.20679200  0.09699700  0.27512900  1
  O  O59  1  0.62937700  0.49348100  0.34949700  1
loop_
_geom_bond_atom_site_label_1
_geom_bond_atom_site_label_2
_geom_bond_distance
_geom_bond_site_symmetry_2
Co0 O16 1.868823 1_556
Co0 O21 1.876414 1_555
Co0 O56 1.919700 1_565
Co0 O28 1.928279 1_555
Co0 O29 1.991666 1_565
Co1 O18 1.924335 1_555
Co1 O27 1.929675 1_555
Co1 O0 1.940370 1_555
Co1 O20 1.954916 1_555
Co1 O23 2.190011 1_555
Co1 O44 2.528856 1_555
Co2 O18 1.924335 1_556
Co2 O7 1.929675 1_555
Co2 O0 1.940370 1_555
Co2 O52 1.954916 1_555
Co2 O9 2.190011 1_555
Co2 O51 2.528856 1_555
Co3 O47 1.786329 1_555
Co3 O55 1.875280 1_554
Co3 O3 1.937750 1_555
Co3 O49 1.950861 1_555
Co3 O54 2.075465 1_555
Co4 O33 1.786329 1_555
Co4 O53 1.875280 1_556
Co4 O14 1.937750 1_555
Co4 O56 1.950861 1_555
Co4 O29 2.075465 1_555
Co5 O24 1.926882 1_555
Co5 O21 1.929836 1_555
Co5 O48 1.939948 1_555
Co5 O16 1.943878 1_555
Co5 O30 2.207163 1_555
Co5 O8 2.535777 1_555
Co6 O52 1.786329 1_555
Co6 O7 1.875280 1_554
Co6 O32 1.937750 1_555
Co6 O37 1.950861 1_555
Co6 O54 2.075465 1_655
Co7 O4 1.868823 1_556
Co7 O10 1.876414 1_555
Co7 O13 1.919700 1_545
Co7 O14 1.928279 1_555
Co7 O29 1.991666 1_555
Co8 O6 1.926882 1_556
Co8 O5 1.929836 1_555
Co8 O15 1.939948 1_555
Co8 O50 1.943878 1_555
Co8 O11 2.207163 1_555
Co8 O12 2.535777 1_555
Co9 O50 1.868823 1_554
Co9 O5 1.876414 1_555
Co9 O49 1.919700 1_655
Co9 O32 1.928279 1_555
Co9 O54 1.991666 1_655
Co10 O6 1.926882 1_555
Co10 O10 1.929836 1_555
Co10 O15 1.939948 1_555
Co10 O4 1.943878 1_555
Co10 O36 2.207163 1_555
Co10 O19 2.535777 1_555
Co11 O31 1.924335 1_556
Co11 O55 1.929675 1_555
Co11 O45 1.940370 1_555
Co11 O47 1.954916 1_555
Co11 O46 2.190011 1_555
Co11 O39 2.528856 1_555
Co12 O17 1.868823 1_554
Co12 O38 1.876414 1_555
Co12 O37 1.919700 1_455
Co12 O3 1.928279 1_555
Co12 O54 1.991666 1_555
Co13 O20 1.786329 1_555
Co13 O27 1.875280 1_556
Co13 O28 1.937750 1_555
Co13 O13 1.950861 1_555
Co13 O29 2.075465 1_565
Co14 O24 1.926882 1_556
Co14 O38 1.929836 1_555
Co14 O48 1.939948 1_555
Co14 O17 1.943878 1_555
Co14 O35 2.207163 1_555
Co14 O2 2.535777 1_555
Co15 O31 1.924335 1_555
Co15 O53 1.929675 1_555
Co15 O45 1.940370 1_555
Co15 O33 1.954916 1_555
Co15 O41 2.190011 1_555
Co15 O58 2.528856 1_555
Bi0 O34 2.134216 1_554
Bi0 O58 2.149533 1_555
Bi0 O30 2.183165 1_545
Bi1 O26 2.135175 1_555
Bi1 O8 2.136439 1_555
Bi1 O23 2.201573 1_555
Bi1 O57 2.803293 1_555
Bi2 O25 2.134216 1_556
Bi2 O39 2.149533 1_555
Bi2 O11 2.183165 1_455
Bi3 O59 2.135175 1_555
Bi3 O12 2.136439 1_555
Bi3 O9 2.201573 1_555
Bi3 O22 2.803293 1_555
Bi4 O40 2.134216 1_554
Bi4 O44 2.149533 1_555
Bi4 O36 2.183165 1_565
Bi5 O22 2.135175 1_555
Bi5 O19 2.136439 1_555
Bi5 O41 2.201573 1_555
Bi5 O59 2.803293 1_555
Bi6 O1 2.134216 1_556
Bi6 O51 2.149533 1_555
Bi6 O35 2.183165 1_655
Bi7 O57 2.135175 1_555
Bi7 O2 2.136439 1_555
Bi7 O46 2.201573 1_555
Bi7 O26 2.803293 1_555
O0 Sr5 2.621229 1_555
O0 Sr12 2.621229 1_555
O0 Sr0 2.686054 1_555
O0 Sr7 2.686054 1_555
O1 Sr16 2.606330 1_655
O1 Sr0 2.607846 1_555
O2 Sr3 2.637900 1_555
O2 Sr23 2.683495 1_555
O2 Sr9 2.711598 1_556
O2 Sr9 3.000980 1_555
O3 Sr9 2.646019 1_555
O3 Sr23 2.685383 1_554
O3 Sr8 2.735712 1_555
O3 Sr23 2.899565 1_555
O4 Sr22 2.620058 1_555
O4 Sr15 2.621596 1_545
O4 Sr13 2.709648 1_554
O4 Sr19 2.752805 1_554
O5 Sr6 2.575674 1_555
O5 Sr18 2.657670 1_655
O5 Sr17 2.735239 1_555
O5 Sr4 2.783500 1_555
O6 Sr4 2.611942 1_555
O6 Sr13 2.611942 1_554
O6 Sr17 2.670642 1_555
O6 Sr19 2.670642 1_554
O7 Sr20 2.615163 1_555
O7 Sr6 2.697924 1_555
O7 Sr0 2.744846 1_556
O7 Sr12 2.792843 1_556
O8 Sr9 2.637900 1_555
O8 Sr21 2.683495 1_555
O8 Sr3 2.711598 1_554
O8 Sr3 3.000980 1_555
O9 Sr5 2.652766 1_555
O9 Sr12 2.690495 1_556
O9 Sr6 2.830895 1_555
O9 Sr12 2.962229 1_555
O10 Sr22 2.575674 1_555
O10 Sr15 2.657670 1_545
O10 Sr19 2.735239 1_555
O10 Sr13 2.783500 1_555
O11 Sr13 2.677472 1_555
O11 Sr4 2.690481 1_555
O11 Sr18 2.783294 1_655
O11 Sr4 2.975613 1_556
O12 Sr19 2.637900 1_555
O12 Sr6 2.683495 1_555
O12 Sr17 2.711598 1_556
O12 Sr17 3.000980 1_555
O13 Sr7 2.683875 1_555
O13 Sr13 2.694505 1_565
O13 Sr15 2.771411 1_555
O13 Sr15 2.812941 1_556
O14 Sr19 2.646019 1_555
O14 Sr22 2.685383 1_556
O14 Sr2 2.735712 1_555
O14 Sr22 2.899565 1_555
O15 Sr17 2.592823 1_555
O15 Sr19 2.592823 1_555
O15 Sr13 2.670811 1_555
O15 Sr4 2.670811 1_555
O16 Sr21 2.620058 1_555
O16 Sr14 2.621596 1_565
O16 Sr10 2.709648 1_554
O16 Sr3 2.752805 1_554
O17 Sr23 2.620058 1_555
O17 Sr20 2.621596 1_455
O17 Sr16 2.709648 1_556
O17 Sr9 2.752805 1_556
O18 Sr0 2.599395 1_555
O18 Sr7 2.599395 1_554
O18 Sr12 2.703582 1_555
O18 Sr5 2.703582 1_554
O19 Sr17 2.637900 1_555
O19 Sr22 2.683495 1_555
O19 Sr19 2.711598 1_554
O19 Sr19 3.000980 1_555
O20 Sr21 2.642280 1_555
O20 Sr15 2.649336 1_555
O20 Sr5 2.788343 1_555
O20 Sr7 2.842137 1_555
O21 Sr21 2.575674 1_555
O21 Sr14 2.657670 1_565
O21 Sr3 2.735239 1_555
O21 Sr10 2.783500 1_555
O22 Sr2 2.572573 1_555
O22 Sr19 2.646126 1_555
O23 Sr12 2.652766 1_555
O23 Sr5 2.690495 1_554
O23 Sr21 2.830895 1_555
O23 Sr5 2.962229 1_555
O24 Sr10 2.611942 1_554
O24 Sr16 2.611942 1_555
O24 Sr3 2.670642 1_554
O24 Sr9 2.670642 1_555
O25 Sr4 2.606330 1_455
O25 Sr11 2.607846 1_555
O26 Sr5 2.572573 1_555
O26 Sr3 2.646126 1_555
O27 Sr15 2.615163 1_555
O27 Sr21 2.697924 1_555
O27 Sr7 2.744846 1_554
O27 Sr5 2.792843 1_554
O28 Sr3 2.646019 1_555
O28 Sr21 2.685383 1_556
O28 Sr5 2.735712 1_555
O28 Sr21 2.899565 1_555
O30 Sr16 2.677472 1_555
O30 Sr10 2.690481 1_555
O30 Sr14 2.783294 1_565
O30 Sr10 2.975613 1_554
O31 Sr1 2.599395 1_554
O31 Sr11 2.599395 1_555
O31 Sr8 2.703582 1_555
O31 Sr2 2.703582 1_554
O32 Sr17 2.646019 1_555
O32 Sr6 2.685383 1_554
O32 Sr12 2.735712 1_555
O32 Sr6 2.899565 1_555
O33 Sr22 2.642280 1_555
O33 Sr14 2.649336 1_555
O33 Sr2 2.788343 1_555
O33 Sr1 2.842137 1_555
O34 Sr10 2.606330 1_545
O34 Sr1 2.607846 1_555
O35 Sr10 2.677472 1_555
O35 Sr16 2.690481 1_555
O35 Sr20 2.783294 1_455
O35 Sr16 2.975613 1_556
O36 Sr4 2.677472 1_555
O36 Sr13 2.690481 1_555
O36 Sr15 2.783294 1_545
O36 Sr13 2.975613 1_554
O37 Sr0 2.683875 1_555
O37 Sr16 2.694505 1_655
O37 Sr20 2.771411 1_555
O37 Sr20 2.812941 1_554
O38 Sr23 2.575674 1_555
O38 Sr20 2.657670 1_455
O38 Sr9 2.735239 1_555
O38 Sr16 2.783500 1_555
O39 Sr1 2.615739 1_555
O39 Sr11 2.702252 1_555
O39 Sr18 2.720970 1_555
O39 Sr11 2.991517 1_556
O40 Sr13 2.606330 1_565
O40 Sr7 2.607846 1_555
O41 Sr8 2.652766 1_555
O41 Sr2 2.690495 1_554
O41 Sr22 2.830895 1_555
O41 Sr2 2.962229 1_555
O42 Sr22 2.669448 1_555
O42 Sr21 2.669448 1_545
O42 Sr14 2.672447 1_555
O42 Sr15 2.672447 1_545
O43 Sr23 2.669448 1_555
O43 Sr6 2.669448 1_455
O43 Sr18 2.672447 1_555
O43 Sr20 2.672447 1_455
O44 Sr0 2.615739 1_555
O44 Sr7 2.702252 1_555
O44 Sr15 2.720970 1_555
O44 Sr7 2.991517 1_554
O45 Sr2 2.621229 1_555
O45 Sr8 2.621229 1_555
O45 Sr11 2.686054 1_555
O45 Sr1 2.686054 1_555
O46 Sr2 2.652766 1_555
O46 Sr8 2.690495 1_556
O46 Sr23 2.830895 1_555
O46 Sr8 2.962229 1_555
O47 Sr23 2.642280 1_555
O47 Sr18 2.649336 1_555
O47 Sr8 2.788343 1_555
O47 Sr11 2.842137 1_555
O48 Sr3 2.592823 1_555
O48 Sr9 2.592823 1_555
O48 Sr16 2.670811 1_555
O48 Sr10 2.670811 1_555
O49 Sr11 2.683875 1_555
O49 Sr4 2.694505 1_455
O49 Sr18 2.771411 1_555
O49 Sr18 2.812941 1_554
O50 Sr6 2.620058 1_555
O50 Sr18 2.621596 1_655
O50 Sr4 2.709648 1_556
O50 Sr17 2.752805 1_556
O51 Sr7 2.615739 1_555
O51 Sr0 2.702252 1_555
O51 Sr20 2.720970 1_555
O51 Sr0 2.991517 1_556
O52 Sr6 2.642280 1_555
O52 Sr20 2.649336 1_555
O52 Sr12 2.788343 1_555
O52 Sr0 2.842137 1_555
O53 Sr14 2.615163 1_555
O53 Sr22 2.697924 1_555
O53 Sr1 2.744846 1_554
O53 Sr2 2.792843 1_554
O55 Sr18 2.615163 1_555
O55 Sr23 2.697924 1_555
O55 Sr11 2.744846 1_556
O55 Sr8 2.792843 1_556
O56 Sr1 2.683875 1_555
O56 Sr10 2.694505 1_545
O56 Sr14 2.771411 1_555
O56 Sr14 2.812941 1_556
O57 Sr8 2.572573 1_555
O57 Sr9 2.646126 1_555
O58 Sr11 2.615739 1_555
O58 Sr1 2.702252 1_555
O58 Sr14 2.720970 1_555
O58 Sr1 2.991517 1_554
O59 Sr12 2.572573 1_555
O59 Sr17 2.646126 1_555
