# generated using pymatgen
data_MgP2(H8O5)2
_symmetry_space_group_name_H-M   'P 1'
_cell_length_a   7.30348900
_cell_length_b   7.30348900
_cell_length_c   10.54835000
_cell_angle_alpha   90.00000000
_cell_angle_beta   90.00000000
_cell_angle_gamma   90.00000000
_symmetry_Int_Tables_number   1
_chemical_formula_structural   MgP2(H8O5)2
_chemical_formula_sum   'Mg2 P4 H32 O20'
_cell_volume   562.65902653
_cell_formula_units_Z   2
loop_
 _symmetry_equiv_pos_site_id
 _symmetry_equiv_pos_as_xyz
  1  'x, y, z'
loop_
 _atom_site_type_symbol
 _atom_site_label
 _atom_site_symmetry_multiplicity
 _atom_site_fract_x
 _atom_site_fract_y
 _atom_site_fract_z
 _atom_site_occupancy
  Mg  Mg0  1  0.50000000  0.50000000  0.00000000  1
  Mg  Mg1  1  0.00000000  0.00000000  0.50000000  1
  P  P0  1  0.50000000  0.00000000  0.76136200  1
  P  P1  1  0.50000000  0.00000000  0.26136200  1
  P  P2  1  0.00000000  0.50000000  0.23863800  1
  P  P3  1  0.00000000  0.50000000  0.73863800  1
  H  H0  1  0.31162200  0.79633400  0.44391000  1
  H  H1  1  0.31162200  0.20366600  0.44391000  1
  H  H2  1  0.29633400  0.81162200  0.94391000  1
  H  H3  1  0.29633400  0.18837800  0.94391000  1
  H  H4  1  0.34717700  0.00000000  0.17902900  1
  H  H5  1  0.38867100  0.50000000  0.74991200  1
  H  H6  1  0.50000000  0.38867100  0.25008800  1
  H  H7  1  0.50000000  0.61132900  0.25008800  1
  H  H8  1  0.50000000  0.84717700  0.67902900  1
  H  H9  1  0.50000000  0.15282300  0.67902900  1
  H  H10  1  0.61132900  0.50000000  0.74991200  1
  H  H11  1  0.65282300  0.00000000  0.17902900  1
  H  H12  1  0.70366600  0.18837800  0.94391000  1
  H  H13  1  0.70366600  0.81162200  0.94391000  1
  H  H14  1  0.68837800  0.79633400  0.44391000  1
  H  H15  1  0.68837800  0.20366600  0.44391000  1
  H  H16  1  0.81162200  0.70366600  0.05609000  1
  H  H17  1  0.81162200  0.29633400  0.05609000  1
  H  H18  1  0.79633400  0.68837800  0.55609000  1
  H  H19  1  0.79633400  0.31162200  0.55609000  1
  H  H20  1  0.84717700  0.50000000  0.32097100  1
  H  H21  1  0.88867100  0.00000000  0.75008800  1
  H  H22  1  0.00000000  0.88867100  0.24991200  1
  H  H23  1  0.00000000  0.11132900  0.24991200  1
  H  H24  1  0.00000000  0.34717700  0.82097100  1
  H  H25  1  0.00000000  0.65282300  0.82097100  1
  H  H26  1  0.11132900  0.00000000  0.75008800  1
  H  H27  1  0.15282300  0.50000000  0.32097100  1
  H  H28  1  0.20366600  0.68837800  0.55609000  1
  H  H29  1  0.20366600  0.31162200  0.55609000  1
  H  H30  1  0.18837800  0.70366600  0.05609000  1
  H  H31  1  0.18837800  0.29633400  0.05609000  1
  O  O0  1  0.29736600  0.29736600  0.00000000  1
  O  O1  1  0.29736600  0.70263400  0.00000000  1
  O  O2  1  0.32126900  0.00000000  0.83816000  1
  O  O3  1  0.50000000  0.50000000  0.80367300  1
  O  O4  1  0.50000000  0.50000000  0.19632700  1
  O  O5  1  0.50000000  0.82126900  0.33816000  1
  O  O6  1  0.50000000  0.17873100  0.33816000  1
  O  O7  1  0.67873100  0.00000000  0.83816000  1
  O  O8  1  0.70263400  0.29736600  0.00000000  1
  O  O9  1  0.70263400  0.70263400  0.00000000  1
  O  O10  1  0.79736600  0.79736600  0.50000000  1
  O  O11  1  0.79736600  0.20263400  0.50000000  1
  O  O12  1  0.82126900  0.50000000  0.66184000  1
  O  O13  1  0.00000000  0.00000000  0.30367300  1
  O  O14  1  0.00000000  0.32126900  0.16184000  1
  O  O15  1  0.00000000  0.67873100  0.16184000  1
  O  O16  1  0.00000000  0.00000000  0.69632700  1
  O  O17  1  0.17873100  0.50000000  0.66184000  1
  O  O18  1  0.20263400  0.79736600  0.50000000  1
  O  O19  1  0.20263400  0.20263400  0.50000000  1
loop_
_geom_bond_atom_site_label_1
_geom_bond_atom_site_label_2
_geom_bond_distance
_geom_bond_site_symmetry_2
Mg0 O4 2.070926 1_555
Mg0 O3 2.070926 1_554
Mg0 O9 2.092944 1_555
Mg0 O8 2.092944 1_555
Mg0 O1 2.092944 1_555
Mg0 O0 2.092944 1_555
Mg1 O16 2.070926 1_555
Mg1 O13 2.070926 1_555
Mg1 O19 2.092944 1_555
Mg1 O11 2.092944 1_455
Mg1 O18 2.092944 1_545
Mg1 O10 2.092944 1_445
H0 O18 0.991826 1_555
H1 O19 0.991826 1_555
H2 O1 0.991826 1_556
H3 O0 0.991826 1_556
H4 P1 1.414222 1_555
H5 O3 0.991316 1_555
H6 O4 0.991316 1_555
H7 O4 0.991316 1_555
H8 P0 1.414222 1_565
H9 P0 1.414222 1_555
H10 O3 0.991316 1_555
H11 P1 1.414222 1_555
H12 O8 0.991826 1_556
H13 O9 0.991826 1_556
H14 O10 0.991826 1_555
H15 O11 0.991826 1_555
H16 O9 0.991826 1_555
H17 O8 0.991826 1_555
H18 O10 0.991826 1_555
H19 O11 0.991826 1_555
H20 P2 1.414222 1_655
H21 O16 0.991316 1_655
H22 O13 0.991316 1_565
H23 O13 0.991316 1_555
H24 P3 1.414222 1_555
H25 P3 1.414222 1_555
H26 O16 0.991316 1_555
H27 P2 1.414222 1_555
H28 O18 0.991826 1_555
H29 O19 0.991826 1_555
H30 O1 0.991826 1_555
H31 O0 0.991826 1_555
O2 P0 1.536299 1_555
O5 P1 1.536299 1_565
O6 P1 1.536299 1_555
O7 P0 1.536299 1_555
O12 P3 1.536299 1_655
O14 P2 1.536299 1_555
O15 P2 1.536299 1_555
O17 P3 1.536299 1_555
