# generated using pymatgen
data_LiMn2(BO3)2
_symmetry_space_group_name_H-M   'P 1'
_cell_length_a   5.29938000
_cell_length_b   10.38423628
_cell_length_c   13.98104357
_cell_angle_alpha   90.28109625
_cell_angle_beta   100.47225630
_cell_angle_gamma   91.69828169
_symmetry_Int_Tables_number   1
_chemical_formula_structural   LiMn2(BO3)2
_chemical_formula_sum   'Li6 Mn12 B12 O36'
_cell_volume   756.18775375
_cell_formula_units_Z   6
loop_
 _symmetry_equiv_pos_site_id
 _symmetry_equiv_pos_as_xyz
  1  'x, y, z'
loop_
 _atom_site_type_symbol
 _atom_site_label
 _atom_site_symmetry_multiplicity
 _atom_site_fract_x
 _atom_site_fract_y
 _atom_site_fract_z
 _atom_site_occupancy
  Li  Li0  1  0.83867400  0.34228000  0.00150700  1
  Li  Li1  1  0.53229300  0.31927300  0.33821600  1
  Li  Li2  1  0.53523800  0.83165900  0.32683100  1
  Li  Li3  1  0.20727100  0.33772700  0.66859900  1
  Li  Li4  1  0.17488600  0.82579800  0.66136800  1
  Li  Li5  1  0.14159300  0.65780600  0.99071200  1
  Mn  Mn0  1  0.95917700  0.36332000  0.21444100  1
  Mn  Mn1  1  0.93957300  0.11444700  0.56702400  1
  Mn  Mn2  1  0.72050400  0.61762000  0.11228800  1
  Mn  Mn3  1  0.63682400  0.36976500  0.54579700  1
  Mn  Mn4  1  0.71264700  0.87651500  0.77303800  1
  Mn  Mn5  1  0.41116400  0.86576800  0.11108400  1
  Mn  Mn6  1  0.56897500  0.13470200  0.87242500  1
  Mn  Mn7  1  0.25861100  0.10690800  0.22521100  1
  Mn  Mn8  1  0.38125000  0.61223300  0.43355100  1
  Mn  Mn9  1  0.28365100  0.38441200  0.90119600  1
  Mn  Mn10  1  0.09437800  0.86835300  0.45694700  1
  Mn  Mn11  1  0.03381300  0.62495400  0.78166700  1
  B  B0  1  0.95649700  0.86326500  0.23207200  1
  B  B1  1  0.70139600  0.12915500  0.10633600  1
  B  B2  1  0.94108200  0.62480200  0.55111000  1
  B  B3  1  0.72642200  0.38019800  0.77154300  1
  B  B4  1  0.38421700  0.36985800  0.11963300  1
  B  B5  1  0.61305800  0.86554100  0.55316500  1
  B  B6  1  0.39309100  0.12488700  0.45464100  1
  B  B7  1  0.60688100  0.62291800  0.88961800  1
  B  B8  1  0.27270800  0.62428500  0.21157200  1
  B  B9  1  0.06639300  0.36373500  0.44120400  1
  B  B10  1  0.26847700  0.87195600  0.88186600  1
  B  B11  1  0.05610600  0.14075700  0.79239800  1
  O  O0  1  0.87401700  0.17790700  0.18963000  1
  O  O1  1  0.72573600  0.16479100  0.01650900  1
  O  O2  1  0.00138200  0.32859500  0.53159700  1
  O  O3  1  0.89386400  0.36089300  0.35719000  1
  O  O4  1  0.88645300  0.87338300  0.32032700  1
  O  O5  1  0.78523600  0.81586900  0.15064900  1
  O  O6  1  0.97834900  0.43581100  0.78291100  1
  O  O7  1  0.63882100  0.41118900  0.12054800  1
  O  O8  1  0.87240700  0.90514600  0.55894300  1
  O  O9  1  0.83373000  0.07360600  0.80367700  1
  O  O10  1  0.50149400  0.04796100  0.12752800  1
  O  O11  1  0.71320800  0.55164300  0.52740100  1
  O  O12  1  0.78403800  0.60318500  0.97142500  1
  O  O13  1  0.55678400  0.18389300  0.53574300  1
  O  O14  1  0.43602600  0.14258800  0.36416000  1
  O  O15  1  0.67703500  0.67208900  0.80602900  1
  O  O16  1  0.43083800  0.65030300  0.29606200  1
  O  O17  1  0.65532600  0.32760300  0.85649600  1
  O  O18  1  0.32993700  0.67615800  0.12302400  1
  O  O19  1  0.56679600  0.37755600  0.68491700  1
  O  O20  1  0.32460400  0.32026200  0.20646400  1
  O  O21  1  0.47077500  0.82756800  0.46199400  1
  O  O22  1  0.20176500  0.38214300  0.03902700  1
  O  O23  1  0.50520600  0.86729900  0.63349500  1
  O  O24  1  0.32296800  0.40502300  0.44263300  1
  O  O25  1  0.20629200  0.90271700  0.22079600  1
  O  O26  1  0.46085100  0.95253500  0.85900000  1
  O  O27  1  0.18765600  0.05051700  0.47719800  1
  O  O28  1  0.04723300  0.54892100  0.20239800  1
  O  O29  1  0.34593900  0.58714100  0.88801900  1
  O  O30  1  0.21996200  0.18564800  0.87725300  1
  O  O31  1  0.11687100  0.16390200  0.70420000  1
  O  O32  1  0.03573900  0.68148300  0.47250800  1
  O  O33  1  0.06790400  0.64453100  0.64297600  1
  O  O34  1  0.11060300  0.81377100  0.79767100  1
  O  O35  1  0.23367300  0.84160400  0.97202500  1
loop_
_geom_bond_atom_site_label_1
_geom_bond_atom_site_label_2
_geom_bond_distance
_geom_bond_site_symmetry_2
Li0 O22 1.932006 1_655
Li0 O1 1.945048 1_555
Li0 O17 2.085609 1_554
Li0 O7 2.253370 1_555
Li1 O3 1.921880 1_555
Li1 O14 1.943299 1_555
Li1 O20 1.966829 1_555
Li1 O24 2.188400 1_555
Li2 O4 1.916834 1_555
Li2 O16 1.970160 1_555
Li2 O21 1.980945 1_555
Li2 O25 2.220032 1_555
Li3 O19 1.909837 1_555
Li3 O31 1.944134 1_555
Li3 O2 2.025019 1_555
Li3 O6 2.413595 1_455
Li4 O23 1.899135 1_555
Li4 O33 1.951837 1_555
Li4 O34 1.999746 1_555
Li4 O8 2.134116 1_455
Li5 O12 1.932311 1_455
Li5 O18 1.941287 1_556
Li5 O35 1.986244 1_555
Li5 O29 2.091532 1_555
Mn0 O0 1.978912 1_555
Mn0 O28 1.984722 1_655
Mn0 O20 2.022839 1_655
Mn0 O7 2.024540 1_555
Mn0 O3 2.086782 1_555
Mn1 O31 2.032588 1_655
Mn1 O27 2.095244 1_655
Mn1 O13 2.143271 1_555
Mn1 O8 2.190976 1_545
Mn1 O2 2.307456 1_655
Mn2 O12 2.062898 1_554
Mn2 O28 2.093591 1_655
Mn2 O5 2.126934 1_555
Mn2 O7 2.182076 1_555
Mn2 O18 2.205124 1_555
Mn3 O11 1.947910 1_555
Mn3 O13 1.962714 1_555
Mn3 O2 2.035214 1_655
Mn3 O24 2.037150 1_555
Mn3 O19 2.046970 1_555
Mn4 O23 2.058194 1_555
Mn4 O26 2.117594 1_555
Mn4 O9 2.144202 1_565
Mn4 O15 2.184533 1_555
Mn4 O34 2.193237 1_655
Mn5 O10 1.939966 1_565
Mn5 O35 2.010973 1_554
Mn5 O18 2.017189 1_555
Mn5 O5 2.041878 1_555
Mn5 O25 2.074381 1_555
Mn6 O30 1.951489 1_555
Mn6 O9 1.957516 1_555
Mn6 O26 1.958346 1_545
Mn6 O1 2.053250 1_556
Mn6 O17 2.063643 1_555
Mn7 O14 2.025702 1_555
Mn7 O25 2.129387 1_545
Mn7 O10 2.138706 1_555
Mn7 O0 2.160793 1_455
Mn7 O20 2.256683 1_555
Mn8 O16 2.026147 1_555
Mn8 O11 2.108751 1_555
Mn8 O32 2.145469 1_555
Mn8 O24 2.172315 1_555
Mn8 O21 2.289787 1_555
Mn9 O22 2.050877 1_556
Mn9 O30 2.096897 1_555
Mn9 O29 2.135282 1_555
Mn9 O6 2.173616 1_455
Mn9 O17 2.265127 1_555
Mn10 O27 1.947109 1_565
Mn10 O32 1.975455 1_555
Mn10 O4 2.025981 1_455
Mn10 O21 2.040162 1_555
Mn10 O8 2.047988 1_455
Mn11 O6 1.977974 1_455
Mn11 O33 1.990703 1_555
Mn11 O34 1.993838 1_555
Mn11 O15 2.053693 1_455
Mn11 O29 2.061847 1_555
B0 O4 1.356045 1_555
B0 O5 1.397958 1_555
B0 O25 1.410454 1_655
B1 O1 1.338438 1_555
B1 O10 1.408727 1_555
B1 O0 1.424351 1_555
B2 O33 1.348616 1_655
B2 O11 1.393893 1_555
B2 O32 1.412432 1_655
B3 O19 1.344997 1_555
B3 O17 1.416965 1_555
B3 O6 1.420355 1_555
B4 O22 1.354173 1_555
B4 O7 1.401490 1_555
B4 O20 1.405245 1_555
B5 O23 1.349856 1_555
B5 O21 1.406008 1_555
B5 O8 1.410823 1_555
B6 O14 1.338007 1_555
B6 O27 1.399448 1_555
B6 O13 1.420482 1_555
B7 O12 1.361947 1_555
B7 O15 1.384646 1_555
B7 O29 1.417383 1_555
B8 O16 1.339479 1_555
B8 O28 1.394460 1_555
B8 O18 1.431121 1_555
B9 O3 1.350617 1_455
B9 O24 1.410128 1_555
B9 O2 1.415753 1_555
B10 O35 1.344332 1_555
B10 O26 1.382822 1_555
B10 O34 1.433779 1_555
B11 O31 1.350800 1_555
B11 O9 1.385566 1_455
B11 O30 1.405298 1_555
