# generated using pymatgen
data_Mn7O12
_symmetry_space_group_name_H-M   'P 1'
_cell_length_a   6.25471745
_cell_length_b   6.25476216
_cell_length_c   6.25489117
_cell_angle_alpha   109.47222532
_cell_angle_beta   109.47129372
_cell_angle_gamma   109.46899987
_symmetry_Int_Tables_number   1
_chemical_formula_structural   Mn7O12
_chemical_formula_sum   'Mn7 O12'
_cell_volume   188.37466294
_cell_formula_units_Z   1
loop_
 _symmetry_equiv_pos_site_id
 _symmetry_equiv_pos_as_xyz
  1  'x, y, z'
loop_
 _atom_site_type_symbol
 _atom_site_label
 _atom_site_symmetry_multiplicity
 _atom_site_fract_x
 _atom_site_fract_y
 _atom_site_fract_z
 _atom_site_occupancy
  Mn  Mn0  1  0.00000149  0.49999860  0.49999773  1
  Mn  Mn1  1  -0.00000021  0.49999799  -0.00000143  1
  Mn  Mn2  1  0.99999674  0.00000054  0.50000100  1
  Mn  Mn3  1  0.50000094  0.50000236  0.50000176  1
  Mn  Mn4  1  0.49998752  0.00000088  0.49999793  1
  Mn  Mn5  1  0.50000258  0.50000549  0.00000941  1
  Mn  Mn6  1  0.50000276  0.00000039  0.00000070  1
  O  O0  1  0.18740488  0.87344216  0.68603440  1
  O  O1  1  0.12656434  0.31396042  0.81259697  1
  O  O2  1  0.18739877  0.50135398  0.31395484  1
  O  O3  1  0.31398782  0.81257629  0.12656323  1
  O  O4  1  0.49861840  0.68601940  0.81258919  1
  O  O5  1  0.31394302  0.18739358  0.50133731  1
  O  O6  1  0.68603845  0.81261179  0.49864895  1
  O  O7  1  0.50139517  0.31398420  0.18742392  1
  O  O8  1  0.68601065  0.18742484  0.87343405  1
  O  O9  1  0.81259880  0.49863416  0.68603763  1
  O  O10  1  0.87343990  0.68603391  0.18741786  1
  O  O11  1  0.81261096  0.12656004  0.31395553  1
loop_
_geom_bond_atom_site_label_1
_geom_bond_atom_site_label_2
_geom_bond_distance
_geom_bond_site_symmetry_2
Mn0 O2 1.907182 1_555
Mn0 O11 1.907188 1_455
Mn0 O9 1.907195 1_455
Mn0 O0 1.907214 1_555
Mn1 O1 1.917805 1_554
Mn1 O2 1.917827 1_555
Mn1 O9 1.917828 1_454
Mn1 O10 1.917836 1_455
Mn1 O8 1.917853 1_454
Mn1 O3 1.917866 1_555
Mn2 O11 1.917770 1_555
Mn2 O10 1.917795 1_545
Mn2 O1 1.917797 1_655
Mn2 O0 1.917800 1_645
Mn2 O5 1.917835 1_655
Mn2 O6 1.917836 1_545
Mn3 O7 1.917785 1_555
Mn3 O4 1.917792 1_555
Mn3 O2 1.917792 1_555
Mn3 O9 1.917808 1_555
Mn3 O5 1.917838 1_555
Mn3 O6 1.917866 1_555
Mn4 O5 1.907120 1_555
Mn4 O6 1.907135 1_545
Mn4 O3 1.907182 1_545
Mn4 O8 1.907189 1_555
Mn5 O4 1.907170 1_554
Mn5 O7 1.907178 1_555
Mn5 O10 1.907179 1_555
Mn5 O1 1.907184 1_554
Mn6 O4 1.917836 1_544
Mn6 O7 1.917843 1_555
Mn6 O11 1.917844 1_555
Mn6 O0 1.917850 1_544
Mn6 O8 1.917857 1_554
Mn6 O3 1.917859 1_545
