# generated using pymatgen
data_Li4Mn(SiO3)3
_symmetry_space_group_name_H-M   'P 1'
_cell_length_a   6.35353232
_cell_length_b   6.35353232
_cell_length_c   10.12733858
_cell_angle_alpha   89.03917397
_cell_angle_beta   89.03917397
_cell_angle_gamma   107.46356283
_symmetry_Int_Tables_number   1
_chemical_formula_structural   Li4Mn(SiO3)3
_chemical_formula_sum   'Li8 Mn2 Si6 O18'
_cell_volume   389.81428620
_cell_formula_units_Z   2
loop_
 _symmetry_equiv_pos_site_id
 _symmetry_equiv_pos_as_xyz
  1  'x, y, z'
loop_
 _atom_site_type_symbol
 _atom_site_label
 _atom_site_symmetry_multiplicity
 _atom_site_fract_x
 _atom_site_fract_y
 _atom_site_fract_z
 _atom_site_occupancy
  Li  Li0  1  0.81024400  0.61939500  0.20556200  1
  Li  Li1  1  0.46279400  0.81227600  0.79172800  1
  Li  Li2  1  0.99514700  0.00485300  0.50000000  1
  Li  Li3  1  0.54303900  0.45696100  0.50000000  1
  Li  Li4  1  0.62875000  0.37125000  0.00000000  1
  Li  Li5  1  0.99710400  0.00289600  0.00000000  1
  Li  Li6  1  0.18772400  0.53720600  0.20827200  1
  Li  Li7  1  0.38060500  0.18975600  0.79443800  1
  Mn  Mn0  1  0.82591100  0.17117700  0.25609700  1
  Mn  Mn1  1  0.82882300  0.17408900  0.74390300  1
  Si  Si0  1  0.88152800  0.65947700  0.74818700  1
  Si  Si1  1  0.47634400  0.92842100  0.49900900  1
  Si  Si2  1  0.50911000  0.86894100  0.05355000  1
  Si  Si3  1  0.13105900  0.49089000  0.94645000  1
  Si  Si4  1  0.07157900  0.52365600  0.50099100  1
  Si  Si5  1  0.34052300  0.11847200  0.25181300  1
  O  O0  1  0.79676100  0.85841000  0.79690200  1
  O  O1  1  0.95042000  0.68707800  0.58555600  1
  O  O2  1  0.74507900  0.88129100  0.11632300  1
  O  O3  1  0.70869100  0.96481600  0.42186300  1
  O  O4  1  0.95002300  0.49431800  0.05946700  1
  O  O5  1  0.97867300  0.51601200  0.35306700  1
  O  O6  1  0.33603700  0.88142900  0.17945200  1
  O  O7  1  0.68859800  0.42848700  0.77622600  1
  O  O8  1  0.34858100  0.65141900  0.50000000  1
  O  O9  1  0.39035500  0.60964500  0.00000000  1
  O  O10  1  0.57151300  0.31140200  0.22377400  1
  O  O11  1  0.11857100  0.66396300  0.82054800  1
  O  O12  1  0.48398800  0.02132700  0.64693400  1
  O  O13  1  0.50568200  0.04997700  0.94053300  1
  O  O14  1  0.03518400  0.29130900  0.57813700  1
  O  O15  1  0.11870900  0.25492100  0.88367700  1
  O  O16  1  0.31292200  0.04958000  0.41444400  1
  O  O17  1  0.14159000  0.20323900  0.20309800  1
loop_
_geom_bond_atom_site_label_1
_geom_bond_atom_site_label_2
_geom_bond_distance
_geom_bond_site_symmetry_2
Li0 O4 2.007051 1_555
Li0 O2 2.032874 1_555
Li0 O5 2.061729 1_555
Li0 O10 2.088289 1_555
Li1 O12 1.937332 1_565
Li1 O0 2.054737 1_555
Li1 O13 2.114055 1_565
Li1 O11 2.118652 1_555
Li1 O9 2.416385 1_556
Li2 O14 1.944351 1_655
Li2 O3 1.944351 1_545
Li2 O16 2.120506 1_655
Li2 O1 2.120506 1_545
Li3 O8 1.992252 1_555
Li4 O4 2.059060 1_555
Li4 O13 2.059060 1_554
Li4 O7 2.296328 1_554
Li4 O10 2.296328 1_555
Li4 O9 2.442393 1_555
Li5 O2 1.926758 1_545
Li5 O15 1.926758 1_654
Li5 O0 2.478578 1_544
Li5 O17 2.478578 1_655
Li6 O5 1.937339 1_455
Li6 O17 2.054737 1_555
Li6 O4 2.114055 1_455
Li6 O6 2.118652 1_555
Li6 O9 2.416385 1_555
Li7 O13 2.007051 1_555
Li7 O15 2.032874 1_555
Li7 O12 2.061722 1_555
Li7 O7 2.088289 1_555
Mn0 O17 2.016762 1_655
Mn0 O10 2.094200 1_555
Mn0 O3 2.095267 1_545
Mn0 O2 2.281190 1_545
Mn0 O5 2.352531 1_555
Mn1 O0 2.016762 1_545
Mn1 O7 2.094200 1_555
Mn1 O14 2.095267 1_655
Mn1 O15 2.281190 1_655
Mn1 O12 2.352526 1_555
O0 Si0 1.597351 1_555
O1 Si0 1.689698 1_555
O1 Si4 1.700454 1_655
O2 Si2 1.618963 1_555
O3 Si1 1.610432 1_555
O4 Si3 1.614068 1_654
O5 Si4 1.615523 1_655
O6 Si5 1.678694 1_565
O6 Si2 1.688184 1_555
O7 Si0 1.622238 1_555
O8 Si4 1.702381 1_555
O8 Si1 1.702381 1_555
O9 Si3 1.695614 1_554
O9 Si2 1.695614 1_555
O10 Si5 1.622238 1_555
O11 Si0 1.678694 1_455
O11 Si3 1.688184 1_555
O12 Si1 1.615532 1_545
O13 Si2 1.614068 1_546
O14 Si4 1.610432 1_555
O15 Si3 1.618963 1_555
O16 Si5 1.689698 1_555
O16 Si1 1.700454 1_545
O17 Si5 1.597351 1_555
