# generated using pymatgen
data_Li4NbV3O8
_symmetry_space_group_name_H-M   'P 1'
_cell_length_a   6.09469210
_cell_length_b   6.09469210
_cell_length_c   6.09469249
_cell_angle_alpha   56.17152669
_cell_angle_beta   56.17152669
_cell_angle_gamma   56.17151768
_symmetry_Int_Tables_number   1
_chemical_formula_structural   Li4NbV3O8
_chemical_formula_sum   'Li4 Nb1 V3 O8'
_cell_volume   145.89395663
_cell_formula_units_Z   1
loop_
 _symmetry_equiv_pos_site_id
 _symmetry_equiv_pos_as_xyz
  1  'x, y, z'
loop_
 _atom_site_type_symbol
 _atom_site_label
 _atom_site_symmetry_multiplicity
 _atom_site_fract_x
 _atom_site_fract_y
 _atom_site_fract_z
 _atom_site_occupancy
  Li  Li0  1  0.50000000  0.50000000  0.50000000  1
  Li  Li1  1  0.00000000  0.50000000  0.00000000  1
  Li  Li2  1  0.50000000  0.00000000  0.00000000  1
  Li  Li3  1  0.00000000  0.00000000  0.50000000  1
  Nb  Nb0  1  0.00000000  0.00000000  0.00000000  1
  V  V0  1  0.50000000  0.00000000  0.50000000  1
  V  V1  1  0.00000000  0.50000000  0.50000000  1
  V  V2  1  0.50000000  0.50000000  0.00000000  1
  O  O0  1  0.25755200  0.25755200  0.25755200  1
  O  O1  1  0.74768600  0.25827000  0.74768600  1
  O  O2  1  0.25827000  0.74768600  0.74768600  1
  O  O3  1  0.74244800  0.74244800  0.74244800  1
  O  O4  1  0.74768600  0.74768600  0.25827000  1
  O  O5  1  0.25231400  0.74173000  0.25231400  1
  O  O6  1  0.74173000  0.25231400  0.25231400  1
  O  O7  1  0.25231400  0.25231400  0.74173000  1
loop_
_geom_bond_atom_site_label_1
_geom_bond_atom_site_label_2
_geom_bond_distance
_geom_bond_site_symmetry_2
Li0 O2 2.076751 1_555
Li0 O1 2.076751 1_555
Li0 O6 2.076751 1_555
Li0 O5 2.076751 1_555
Li0 O4 2.076751 1_555
Li0 O7 2.076751 1_555
Li1 O4 2.118295 1_455
Li1 O7 2.118295 1_554
Li1 O2 2.118295 1_554
Li1 O6 2.118295 1_455
Li1 O0 2.165574 1_555
Li1 O3 2.165574 1_454
Li2 O4 2.118295 1_545
Li2 O7 2.118295 1_554
Li2 O5 2.118295 1_545
Li2 O1 2.118295 1_554
Li2 O0 2.165574 1_555
Li2 O3 2.165574 1_544
Li3 O2 2.118295 1_545
Li3 O1 2.118295 1_455
Li3 O6 2.118295 1_455
Li3 O5 2.118295 1_545
Li3 O0 2.165575 1_555
Li3 O3 2.165575 1_445
Nb0 O6 2.109493 1_455
Nb0 O5 2.109493 1_545
Nb0 O2 2.109493 1_544
Nb0 O1 2.109493 1_454
Nb0 O7 2.109494 1_554
Nb0 O4 2.109494 1_445
O0 V1 2.024069 1_555
O0 V0 2.024069 1_555
O0 V2 2.024069 1_555
O1 V2 2.067773 1_556
O1 V1 2.067773 1_655
O2 V2 2.067773 1_556
O2 V0 2.067773 1_565
O3 V1 2.024069 1_655
O3 V0 2.024069 1_565
O3 V2 2.024069 1_556
O4 V1 2.067773 1_655
O4 V0 2.067773 1_565
O5 V2 2.067773 1_555
O5 V1 2.067773 1_555
O6 V2 2.067773 1_555
O6 V0 2.067773 1_555
O7 V0 2.067773 1_555
O7 V1 2.067773 1_555
