# generated using pymatgen
data_Zr(MoO4)2
_symmetry_space_group_name_H-M   'P 1'
_cell_length_a   10.35935200
_cell_length_b   10.35935200
_cell_length_c   12.07560600
_cell_angle_alpha   90.00000000
_cell_angle_beta   90.00000000
_cell_angle_gamma   120.00000001
_symmetry_Int_Tables_number   1
_chemical_formula_structural   Zr(MoO4)2
_chemical_formula_sum   'Zr6 Mo12 O48'
_cell_volume   1122.28910446
_cell_formula_units_Z   6
loop_
 _symmetry_equiv_pos_site_id
 _symmetry_equiv_pos_as_xyz
  1  'x, y, z'
loop_
 _atom_site_type_symbol
 _atom_site_label
 _atom_site_symmetry_multiplicity
 _atom_site_fract_x
 _atom_site_fract_y
 _atom_site_fract_z
 _atom_site_occupancy
  Zr  Zr0  1  0.33333300  0.66666700  0.98532400  1
  Zr  Zr1  1  0.33333300  0.66666700  0.51467600  1
  Zr  Zr2  1  0.66666700  0.33333300  0.01467600  1
  Zr  Zr3  1  0.00000000  0.00000000  0.00000000  1
  Zr  Zr4  1  0.00000000  0.00000000  0.50000000  1
  Zr  Zr5  1  0.66666700  0.33333300  0.48532400  1
  Mo  Mo0  1  0.33755700  0.00821700  0.85352300  1
  Mo  Mo1  1  0.66244300  0.67066000  0.35352300  1
  Mo  Mo2  1  0.00821700  0.67066000  0.14647700  1
  Mo  Mo3  1  0.67066000  0.66244300  0.85352300  1
  Mo  Mo4  1  0.32934000  0.99178300  0.35352300  1
  Mo  Mo5  1  0.99178300  0.66244300  0.64647700  1
  Mo  Mo6  1  0.67066000  0.00821700  0.64647700  1
  Mo  Mo7  1  0.33755700  0.32934000  0.64647700  1
  Mo  Mo8  1  0.99178300  0.32934000  0.85352300  1
  Mo  Mo9  1  0.66244300  0.99178300  0.14647700  1
  Mo  Mo10  1  0.00821700  0.33755700  0.35352300  1
  Mo  Mo11  1  0.32934000  0.33755700  0.14647700  1
  O  O0  1  0.65410500  0.97370300  0.28940500  1
  O  O1  1  0.16164700  0.98615800  0.90281600  1
  O  O2  1  0.82451100  0.83835300  0.90281600  1
  O  O3  1  0.15920000  0.65573000  0.61169100  1
  O  O4  1  0.65410500  0.68040100  0.21059500  1
  O  O5  1  0.34427000  0.50347000  0.61169100  1
  O  O6  1  0.31959900  0.34589500  0.28940500  1
  O  O7  1  0.97370300  0.31959900  0.71059500  1
  O  O8  1  0.84080000  0.49653000  0.11169100  1
  O  O9  1  0.32467700  0.49526700  0.08489500  1
  O  O10  1  0.49526700  0.32467700  0.58489500  1
  O  O11  1  0.49526700  0.17059000  0.91510500  1
  O  O12  1  0.02629700  0.34589500  0.21059500  1
  O  O13  1  0.65573000  0.49653000  0.38830900  1
  O  O14  1  0.02629700  0.68040100  0.28940500  1
  O  O15  1  0.17548900  0.16164700  0.09718400  1
  O  O16  1  0.17059000  0.67532300  0.08489500  1
  O  O17  1  0.15920000  0.50347000  0.88830900  1
  O  O18  1  0.34589500  0.31959900  0.78940500  1
  O  O19  1  0.67532300  0.17059000  0.58489500  1
  O  O20  1  0.17059000  0.49526700  0.41510500  1
  O  O21  1  0.16164700  0.17548900  0.59718400  1
  O  O22  1  0.65573000  0.15920000  0.11169100  1
  O  O23  1  0.31959900  0.97370300  0.21059500  1
  O  O24  1  0.82451100  0.98615800  0.59718400  1
  O  O25  1  0.49653000  0.84080000  0.61169100  1
  O  O26  1  0.98615800  0.82451100  0.09718400  1
  O  O27  1  0.50473300  0.82941000  0.08489500  1
  O  O28  1  0.83835300  0.01384200  0.09718400  1
  O  O29  1  0.01384200  0.17548900  0.90281600  1
  O  O30  1  0.84080000  0.34427000  0.38830900  1
  O  O31  1  0.67532300  0.50473300  0.91510500  1
  O  O32  1  0.50473300  0.67532300  0.41510500  1
  O  O33  1  0.01384200  0.83835300  0.59718400  1
  O  O34  1  0.49653000  0.65573000  0.88830900  1
  O  O35  1  0.32467700  0.82941000  0.41510500  1
  O  O36  1  0.50347000  0.34427000  0.11169100  1
  O  O37  1  0.83835300  0.82451100  0.40281600  1
  O  O38  1  0.50347000  0.15920000  0.38830900  1
  O  O39  1  0.82941000  0.50473300  0.58489500  1
  O  O40  1  0.82941000  0.32467700  0.91510500  1
  O  O41  1  0.98615800  0.16164700  0.40281600  1
  O  O42  1  0.17548900  0.01384200  0.40281600  1
  O  O43  1  0.68040100  0.02629700  0.78940500  1
  O  O44  1  0.34427000  0.84080000  0.88830900  1
  O  O45  1  0.97370300  0.65410500  0.78940500  1
  O  O46  1  0.34589500  0.02629700  0.71059500  1
  O  O47  1  0.68040100  0.65410500  0.71059500  1
loop_
_geom_bond_atom_site_label_1
_geom_bond_atom_site_label_2
_geom_bond_distance
_geom_bond_site_symmetry_2
Mo0 O46 1.733563 1_555
Mo0 O11 1.817545 1_555
Mo0 O44 1.819287 1_545
Mo0 O1 1.819596 1_545
Mo1 O4 1.733562 1_555
Mo1 O32 1.817545 1_555
Mo1 O13 1.819287 1_555
Mo1 O37 1.819596 1_555
Mo2 O14 1.733563 1_555
Mo2 O16 1.817545 1_555
Mo2 O8 1.819287 1_455
Mo2 O26 1.819596 1_455
Mo3 O47 1.733562 1_555
Mo3 O31 1.817545 1_555
Mo3 O34 1.819287 1_555
Mo3 O2 1.819596 1_555
Mo4 O23 1.733563 1_555
Mo4 O35 1.817545 1_555
Mo4 O38 1.819287 1_565
Mo4 O42 1.819596 1_565
Mo5 O45 1.733563 1_555
Mo5 O39 1.817545 1_555
Mo5 O3 1.819287 1_655
Mo5 O33 1.819596 1_655
Mo6 O43 1.733563 1_555
Mo6 O19 1.817545 1_555
Mo6 O25 1.819287 1_545
Mo6 O24 1.819596 1_545
Mo7 O18 1.733562 1_555
Mo7 O10 1.817545 1_555
Mo7 O5 1.819287 1_555
Mo7 O21 1.819596 1_555
Mo8 O7 1.733563 1_555
Mo8 O40 1.817545 1_555
Mo8 O17 1.819287 1_655
Mo8 O29 1.819596 1_655
Mo9 O0 1.733563 1_555
Mo9 O27 1.817545 1_555
Mo9 O22 1.819287 1_565
Mo9 O28 1.819596 1_565
Mo10 O12 1.733563 1_555
Mo10 O20 1.817545 1_555
Mo10 O30 1.819287 1_455
Mo10 O41 1.819596 1_455
Mo11 O6 1.733562 1_555
Mo11 O9 1.817545 1_555
Mo11 O36 1.819287 1_555
Mo11 O15 1.819596 1_555
O1 Zr3 2.107620 1_566
O2 Zr3 2.107620 1_666
O3 Zr1 2.105938 1_555
O5 Zr1 2.105947 1_555
O8 Zr2 2.105942 1_555
O9 Zr0 2.108855 1_554
O10 Zr5 2.108855 1_555
O11 Zr2 2.108851 1_556
O13 Zr5 2.105947 1_555
O15 Zr3 2.107620 1_555
O16 Zr0 2.108847 1_554
O17 Zr0 2.105942 1_555
O19 Zr5 2.108847 1_555
O20 Zr1 2.108851 1_555
O21 Zr4 2.107620 1_555
O22 Zr2 2.105938 1_555
O24 Zr4 2.107620 1_665
O25 Zr1 2.105942 1_555
O26 Zr3 2.107620 1_665
O27 Zr0 2.108851 1_554
O28 Zr3 2.107620 1_655
O29 Zr3 2.107620 1_556
O30 Zr5 2.105938 1_555
O31 Zr2 2.108855 1_556
O32 Zr1 2.108855 1_555
O33 Zr4 2.107620 1_565
O34 Zr0 2.105947 1_555
O35 Zr1 2.108847 1_555
O36 Zr2 2.105947 1_555
O37 Zr4 2.107620 1_665
O38 Zr5 2.105942 1_555
O39 Zr5 2.108851 1_555
O40 Zr2 2.108847 1_556
O41 Zr4 2.107620 1_655
O42 Zr4 2.107620 1_555
O44 Zr0 2.105938 1_555
