# generated using pymatgen
data_Li5FeO4
_symmetry_space_group_name_H-M   'P 1'
_cell_length_a   5.62089400
_cell_length_b   6.82796600
_cell_length_c   11.03082205
_cell_angle_alpha   89.48215759
_cell_angle_beta   77.51323576
_cell_angle_gamma   89.63572112
_symmetry_Int_Tables_number   1
_chemical_formula_structural   Li5FeO4
_chemical_formula_sum   'Li20 Fe4 O16'
_cell_volume   413.31979952
_cell_formula_units_Z   4
loop_
 _symmetry_equiv_pos_site_id
 _symmetry_equiv_pos_as_xyz
  1  'x, y, z'
loop_
 _atom_site_type_symbol
 _atom_site_label
 _atom_site_symmetry_multiplicity
 _atom_site_fract_x
 _atom_site_fract_y
 _atom_site_fract_z
 _atom_site_occupancy
  Li  Li0  1  0.89761100  0.24603000  0.69666000  1
  Li  Li1  1  0.97788400  0.25558300  0.34589200  1
  Li  Li2  1  0.90098100  0.98019300  0.19994200  1
  Li  Li3  1  0.89485500  0.52933800  0.19512600  1
  Li  Li4  1  0.74004200  0.97974200  0.91575700  1
  Li  Li5  1  0.68691700  0.53491000  0.93735700  1
  Li  Li6  1  0.80644000  0.02195700  0.55627400  1
  Li  Li7  1  0.61753600  0.75039500  0.79049100  1
  Li  Li8  1  0.49189800  0.24638500  0.83184300  1
  Li  Li9  1  0.49388700  0.51617800  0.66187100  1
  Li  Li10  1  0.39285400  0.96594700  0.69656800  1
  Li  Li11  1  0.51707200  0.75145400  0.17884700  1
  Li  Li12  1  0.44932400  0.26069800  0.23054800  1
  Li  Li13  1  0.21562900  0.97514600  0.42610400  1
  Li  Li14  1  0.32647600  0.03520500  0.06329800  1
  Li  Li15  1  0.08571400  0.47009300  0.80732700  1
  Li  Li16  1  0.18287300  0.52321300  0.44172400  1
  Li  Li17  1  0.30567000  0.46927900  0.06751600  1
  Li  Li18  1  0.01164800  0.74354700  0.65346900  1
  Li  Li19  1  0.11166800  0.74734000  0.29599800  1
  Fe  Fe0  1  0.82978900  0.25313100  0.04991700  1
  Fe  Fe1  1  0.32459800  0.24206200  0.55794600  1
  Fe  Fe2  1  0.18016200  0.76054600  0.93624000  1
  Fe  Fe3  1  0.67622400  0.73837200  0.43414600  1
  O  O0  1  0.91115300  0.73372000  0.85755200  1
  O  O1  1  0.83489200  0.27075000  0.87800100  1
  O  O2  1  0.88965400  0.96181300  0.37558300  1
  O  O3  1  0.89533400  0.53686000  0.36475300  1
  O  O4  1  0.64882600  0.76395600  0.61461900  1
  O  O5  1  0.58516800  0.22601400  0.64546100  1
  O  O6  1  0.64096000  0.02753400  0.11002400  1
  O  O7  1  0.62599700  0.47353300  0.11464800  1
  O  O8  1  0.37988700  0.53198400  0.87583400  1
  O  O9  1  0.40561600  0.96574200  0.87878800  1
  O  O10  1  0.39690700  0.74516500  0.36312900  1
  O  O11  1  0.29907400  0.25170000  0.39339500  1
  O  O12  1  0.15794800  0.47345500  0.62916200  1
  O  O13  1  0.11934100  0.02112700  0.61542500  1
  O  O14  1  0.14636000  0.75278300  0.11410300  1
  O  O15  1  0.09468900  0.24973400  0.13328500  1
loop_
_geom_bond_atom_site_label_1
_geom_bond_atom_site_label_2
_geom_bond_distance
_geom_bond_site_symmetry_2
Li0 O1 1.963297 1_555
Li0 O5 1.963482 1_555
Li0 O13 2.057194 1_655
Li0 O12 2.154968 1_655
Li1 O3 1.975157 1_555
Li1 O11 1.985668 1_655
Li1 O2 2.075378 1_545
Li1 O15 2.295273 1_655
Li2 O2 1.927677 1_555
Li2 O6 1.959463 1_565
Li2 O14 2.155117 1_655
Li2 O15 2.183600 1_665
Li3 O3 1.872878 1_555
Li3 O7 1.952083 1_555
Li3 O14 2.140417 1_655
Li3 O15 2.244263 1_655
Li4 O0 1.972568 1_555
Li4 O9 2.010836 1_555
Li4 O1 2.075652 1_565
Li4 O6 2.122034 1_566
Li5 O0 1.930454 1_555
Li5 O7 1.953186 1_556
Li5 O8 1.986564 1_555
Li5 O1 2.034828 1_555
Li6 O5 1.982339 1_555
Li6 O2 1.992325 1_545
Li6 O13 2.003781 1_655
Li6 O4 2.013750 1_545
Li7 O4 1.911170 1_555
Li7 O0 1.951406 1_555
Li7 O9 2.007860 1_555
Li7 O8 2.085845 1_555
Li8 O5 2.014761 1_555
Li8 O9 2.015080 1_545
Li8 O8 2.074605 1_555
Li8 O1 2.105692 1_555
Li9 O4 1.923251 1_555
Li9 O12 2.020988 1_555
Li9 O5 2.043205 1_555
Li9 O8 2.311378 1_555
Li10 O13 1.971868 1_565
Li10 O9 2.026744 1_555
Li10 O4 2.055313 1_555
Li10 O5 2.093401 1_565
Li11 O10 1.998830 1_555
Li11 O7 2.073500 1_555
Li11 O6 2.092116 1_565
Li11 O14 2.344193 1_555
Li12 O11 1.812866 1_555
Li12 O7 2.041640 1_555
Li12 O6 2.204442 1_555
Li12 O15 2.461376 1_555
Li13 O10 1.918319 1_555
Li13 O11 1.960006 1_565
Li13 O2 2.029942 1_455
Li13 O13 2.067292 1_565
Li14 O6 1.945618 1_555
Li14 O15 2.000071 1_555
Li14 O9 2.046588 1_544
Li14 O14 2.194902 1_545
Li15 O12 1.918868 1_555
Li15 O1 1.994486 1_455
Li15 O8 2.009665 1_555
Li15 O0 2.066471 1_455
Li16 O3 1.982882 1_455
Li16 O11 1.999897 1_555
Li16 O10 2.010989 1_555
Li16 O12 2.067039 1_555
Li17 O15 1.952111 1_555
Li17 O7 1.979587 1_555
Li17 O8 2.105362 1_554
Li17 O14 2.147101 1_555
Li18 O13 2.006262 1_565
Li18 O12 2.010829 1_555
Li18 O4 2.176097 1_455
Li18 O0 2.199854 1_455
Li19 O10 1.905792 1_555
Li19 O3 1.929497 1_455
Li19 O14 1.973526 1_555
Li19 O2 1.999689 1_455
Fe0 O1 1.893127 1_554
Fe0 O6 1.907067 1_555
Fe0 O15 1.911694 1_655
Fe0 O7 1.931458 1_555
Fe1 O11 1.852013 1_555
Fe1 O12 1.917342 1_555
Fe1 O5 1.922642 1_555
Fe1 O13 1.922835 1_555
Fe2 O9 1.905203 1_555
Fe2 O0 1.909781 1_455
Fe2 O14 1.930105 1_556
Fe2 O8 1.952654 1_555
Fe3 O3 1.893602 1_555
Fe3 O10 1.900271 1_555
Fe3 O2 1.963275 1_555
Fe3 O4 1.972498 1_555
