# generated using pymatgen
data_Li2(CoO2)3
_symmetry_space_group_name_H-M   'P 1'
_cell_length_a   4.87688806
_cell_length_b   4.87688806
_cell_length_c   10.12380317
_cell_angle_alpha   75.91600792
_cell_angle_beta   75.91600792
_cell_angle_gamma   60.01470517
_symmetry_Int_Tables_number   1
_chemical_formula_structural   Li2(CoO2)3
_chemical_formula_sum   'Li4 Co6 O12'
_cell_volume   200.15289606
_cell_formula_units_Z   2
loop_
 _symmetry_equiv_pos_site_id
 _symmetry_equiv_pos_as_xyz
  1  'x, y, z'
loop_
 _atom_site_type_symbol
 _atom_site_label
 _atom_site_symmetry_multiplicity
 _atom_site_fract_x
 _atom_site_fract_y
 _atom_site_fract_z
 _atom_site_occupancy
  Li  Li0  1  0.58678400  0.41926200  0.24350300  1
  Li  Li1  1  0.08411500  0.25302400  0.74339100  1
  Li  Li2  1  0.25302400  0.08411500  0.24339100  1
  Li  Li3  1  0.41926200  0.58678400  0.74350300  1
  Co  Co0  1  0.33100400  0.50056900  0.00198800  1
  Co  Co1  1  0.50056900  0.33100400  0.50198800  1
  Co  Co2  1  0.99886100  0.16479400  0.00201600  1
  Co  Co3  1  0.16479400  0.99886100  0.50201600  1
  Co  Co4  1  0.67034300  0.83547500  0.99364300  1
  Co  Co5  1  0.83547500  0.67034300  0.49364300  1
  O  O0  1  0.95648800  0.46830900  0.10284800  1
  O  O1  1  0.20634400  0.36325100  0.39648500  1
  O  O2  1  0.79886500  0.31381000  0.60270600  1
  O  O3  1  0.36325100  0.20634400  0.89648500  1
  O  O4  1  0.62587300  0.12927100  0.10289900  1
  O  O5  1  0.86864500  0.03935500  0.39524600  1
  O  O6  1  0.46830900  0.95648800  0.60284800  1
  O  O7  1  0.03935500  0.86864500  0.89524600  1
  O  O8  1  0.31381000  0.79886500  0.10270600  1
  O  O9  1  0.12927100  0.62587300  0.60289900  1
  O  O10  1  0.52980300  0.70136800  0.39685600  1
  O  O11  1  0.70136800  0.52980300  0.89685600  1
loop_
_geom_bond_atom_site_label_1
_geom_bond_atom_site_label_2
_geom_bond_distance
_geom_bond_site_symmetry_2
Li0 O0 2.086024 1_555
Li0 O8 2.099304 1_555
Li0 O4 2.154267 1_555
Li0 O5 2.186103 1_555
Li0 O1 2.194955 1_555
Li0 O10 2.197219 1_555
Li1 O9 2.089728 1_555
Li1 O2 2.097203 1_455
Li1 O6 2.149889 1_545
Li1 O7 2.183630 1_545
Li1 O11 2.193364 1_455
Li1 O3 2.202849 1_555
Li2 O4 2.089728 1_555
Li2 O8 2.097203 1_545
Li2 O0 2.149889 1_455
Li2 O5 2.183630 1_455
Li2 O10 2.193364 1_545
Li2 O1 2.202849 1_555
Li3 O6 2.086024 1_555
Li3 O2 2.099304 1_555
Li3 O9 2.154267 1_555
Li3 O7 2.186103 1_555
Li3 O3 2.194955 1_555
Li3 O11 2.197219 1_555
Co0 O4 1.898003 1_555
Co0 O3 1.913920 1_554
Co0 O11 1.914029 1_554
Co0 O7 1.914418 1_554
Co0 O0 1.924773 1_455
Co0 O8 1.929096 1_555
Co1 O9 1.898003 1_555
Co1 O1 1.913920 1_555
Co1 O10 1.914029 1_555
Co1 O5 1.914418 1_555
Co1 O6 1.924773 1_545
Co1 O2 1.929096 1_555
Co2 O0 1.898087 1_555
Co2 O11 1.911812 1_554
Co2 O7 1.914198 1_644
Co2 O3 1.916007 1_654
Co2 O4 1.925266 1_555
Co2 O8 1.928699 1_645
Co3 O6 1.898087 1_555
Co3 O10 1.911812 1_555
Co3 O5 1.914198 1_465
Co3 O1 1.916007 1_565
Co3 O9 1.925266 1_555
Co3 O2 1.928699 1_465
Co4 O8 1.885289 1_556
Co4 O7 1.896637 1_655
Co4 O11 1.902253 1_555
Co4 O3 1.904028 1_565
Co4 O0 1.914610 1_556
Co4 O4 1.915036 1_566
Co5 O2 1.885289 1_555
Co5 O5 1.896637 1_565
Co5 O10 1.902253 1_555
Co5 O1 1.904028 1_655
Co5 O6 1.914610 1_555
Co5 O9 1.915036 1_655
