# generated using pymatgen
data_Li5TaO5
_symmetry_space_group_name_H-M   'P 1'
_cell_length_a   5.23360441
_cell_length_b   5.23360441
_cell_length_c   5.78706598
_cell_angle_alpha   72.79279797
_cell_angle_beta   107.20720203
_cell_angle_gamma   135.11906671
_symmetry_Int_Tables_number   1
_chemical_formula_structural   Li5TaO5
_chemical_formula_sum   'Li5 Ta1 O5'
_cell_volume   105.96739828
_cell_formula_units_Z   1
loop_
 _symmetry_equiv_pos_site_id
 _symmetry_equiv_pos_as_xyz
  1  'x, y, z'
loop_
 _atom_site_type_symbol
 _atom_site_label
 _atom_site_symmetry_multiplicity
 _atom_site_fract_x
 _atom_site_fract_y
 _atom_site_fract_z
 _atom_site_occupancy
  Li  Li0  1  0.28623656  0.71376344  0.65446114  1
  Li  Li1  1  0.30898475  0.69101525  0.13912903  1
  Li  Li2  1  0.00000000  0.00000000  0.50000000  1
  Li  Li3  1  0.69101525  0.30898475  0.86087097  1
  Li  Li4  1  0.71376344  0.28623656  0.34553886  1
  Ta  Ta0  1  0.00000000  0.00000000  0.00000000  1
  O  O0  1  0.14672342  0.85327658  0.82656810  1
  O  O1  1  0.15740394  0.84259606  0.31881776  1
  O  O2  1  0.50000000  0.50000000  0.00000000  1
  O  O3  1  0.84259606  0.15740394  0.68118224  1
  O  O4  1  0.85327658  0.14672342  0.17343190  1
loop_
_geom_bond_atom_site_label_1
_geom_bond_atom_site_label_2
_geom_bond_distance
_geom_bond_site_symmetry_2
Li0 O0 1.916854 1_555
Li0 O1 1.943360 1_555
Li0 O3 2.063590 1_565
Li0 O3 2.063590 1_455
Li0 O2 2.372413 1_556
Li1 O0 1.979512 1_554
Li1 O4 2.039542 1_565
Li1 O4 2.039542 1_455
Li1 O1 2.051358 1_555
Li1 O2 2.239600 1_555
Li2 O0 1.967059 1_545
Li2 O4 1.967059 1_455
Li2 O1 2.107238 1_545
Li2 O3 2.107238 1_455
Li3 O4 1.979512 1_556
Li3 O0 2.039542 1_545
Li3 O0 2.039542 1_655
Li3 O3 2.051358 1_555
Li3 O2 2.239600 1_556
Li4 O4 1.916854 1_555
Li4 O3 1.943360 1_555
Li4 O1 2.063590 1_655
Li4 O1 2.063590 1_545
Li4 O2 2.372413 1_555
O0 Ta0 1.983500 1_566
O1 Ta0 1.981048 1_565
O2 Ta0 1.997789 1_555
O2 Ta0 1.997789 1_665
O3 Ta0 1.981048 1_656
O4 Ta0 1.983500 1_655
