# generated using pymatgen
data_Dy2CO5
_symmetry_space_group_name_H-M   'P 1'
_cell_length_a   3.88446969
_cell_length_b   3.81735618
_cell_length_c   15.09285933
_cell_angle_alpha   90.00005190
_cell_angle_beta   89.99996121
_cell_angle_gamma   120.58682703
_symmetry_Int_Tables_number   1
_chemical_formula_structural   Dy2CO5
_chemical_formula_sum   'Dy4 C2 O10'
_cell_volume   192.66285414
_cell_formula_units_Z   2
loop_
 _symmetry_equiv_pos_site_id
 _symmetry_equiv_pos_as_xyz
  1  'x, y, z'
loop_
 _atom_site_type_symbol
 _atom_site_label
 _atom_site_symmetry_multiplicity
 _atom_site_fract_x
 _atom_site_fract_y
 _atom_site_fract_z
 _atom_site_occupancy
  Dy  Dy0  1  0.32439432  0.66529972  0.09322066  1
  Dy  Dy1  1  0.32439138  0.66530081  0.40677881  1
  Dy  Dy2  1  0.65892986  0.33480399  0.59324990  1
  Dy  Dy3  1  0.65893476  0.33480297  0.90674967  1
  C  C0  1  0.84043845  0.92692762  0.24999876  1
  C  C1  1  0.91311780  0.07304464  0.75000141  1
  O  O0  1  0.32565567  0.66333517  0.55742176  1
  O  O1  1  0.01990419  0.01358994  0.32593548  1
  O  O2  1  0.01990312  0.01358864  0.17406586  1
  O  O3  1  0.00582483  0.98636861  0.67406662  1
  O  O4  1  0.00582384  0.98636932  0.82593225  1
  O  O5  1  0.32565532  0.66333000  0.94257816  1
  O  O6  1  0.46003316  0.74375873  0.25000025  1
  O  O7  1  0.66250174  0.33671329  0.05741395  1
  O  O8  1  0.66249496  0.33671286  0.44258538  1
  O  O9  1  0.71592659  0.25625269  0.75000008  1
loop_
_geom_bond_atom_site_label_1
_geom_bond_atom_site_label_2
_geom_bond_distance
_geom_bond_site_symmetry_2
Dy0 O7 2.271643 1_565
Dy0 O5 2.273652 1_554
Dy0 O7 2.279017 1_455
Dy0 O7 2.294968 1_555
Dy0 O6 2.409536 1_555
Dy0 O2 2.466264 1_555
Dy0 O2 2.501179 1_565
Dy0 O2 2.626803 1_665
Dy1 O8 2.271637 1_565
Dy1 O0 2.273659 1_555
Dy1 O8 2.279028 1_455
Dy1 O8 2.294960 1_555
Dy1 O6 2.409523 1_555
Dy1 O1 2.466248 1_555
Dy1 O1 2.501156 1_565
Dy1 O1 2.626801 1_665
Dy2 O0 2.271897 1_545
Dy2 O8 2.273990 1_555
Dy2 O0 2.278924 1_555
Dy2 O0 2.295043 1_655
Dy2 O9 2.409056 1_555
Dy2 O3 2.465590 1_655
Dy2 O3 2.501812 1_545
Dy2 O3 2.626169 1_645
Dy3 O5 2.271912 1_545
Dy3 O7 2.273986 1_556
Dy3 O5 2.278928 1_555
Dy3 O5 2.295027 1_655
Dy3 O9 2.409042 1_555
Dy3 O4 2.465601 1_655
Dy3 O4 2.501835 1_545
Dy3 O4 2.626149 1_645
C0 O6 1.273158 1_555
C0 O2 1.293886 1_665
C0 O1 1.293939 1_665
C1 O9 1.273197 1_555
C1 O4 1.293740 1_645
C1 O3 1.293795 1_645
