# generated using pymatgen
data_SrCrO3
_symmetry_space_group_name_H-M   'P 1'
_cell_length_a   5.53153800
_cell_length_b   5.55258124
_cell_length_c   13.68560731
_cell_angle_alpha   89.99368284
_cell_angle_beta   89.98776684
_cell_angle_gamma   60.19202419
_symmetry_Int_Tables_number   1
_chemical_formula_structural   SrCrO3
_chemical_formula_sum   'Sr6 Cr6 O18'
_cell_volume   364.73094671
_cell_formula_units_Z   6
loop_
 _symmetry_equiv_pos_site_id
 _symmetry_equiv_pos_as_xyz
  1  'x, y, z'
loop_
 _atom_site_type_symbol
 _atom_site_label
 _atom_site_symmetry_multiplicity
 _atom_site_fract_x
 _atom_site_fract_y
 _atom_site_fract_z
 _atom_site_occupancy
  Sr  Sr0  1  0.33268600  0.33384900  0.90738800  1
  Sr  Sr1  1  0.00311900  0.00021300  0.75006000  1
  Sr  Sr2  1  0.00433200  0.00048100  0.25004200  1
  Sr  Sr3  1  0.33264000  0.33368400  0.59338500  1
  Sr  Sr4  1  0.66638900  0.66622300  0.40688600  1
  Sr  Sr5  1  0.66651700  0.66656600  0.09336500  1
  Cr  Cr0  1  0.33911600  0.33718900  0.15546400  1
  Cr  Cr1  1  0.00563600  0.99930300  0.00000500  1
  Cr  Cr2  1  0.00507000  0.99914400  0.49987600  1
  Cr  Cr3  1  0.33869500  0.33717700  0.34474700  1
  Cr  Cr4  1  0.67647300  0.66305400  0.84455800  1
  Cr  Cr5  1  0.67619300  0.66291600  0.65533400  1
  O  O0  1  0.15894700  0.16027700  0.41928300  1
  O  O1  1  0.16004200  0.16064700  0.08032700  1
  O  O2  1  0.03013700  0.48271300  0.24983100  1
  O  O3  1  0.16385000  0.66131500  0.41795800  1
  O  O4  1  0.16504100  0.66148900  0.08190300  1
  O  O5  1  0.48531700  0.02863600  0.24990900  1
  O  O6  1  0.49414400  0.49081000  0.25004300  1
  O  O7  1  0.66721200  0.16120800  0.41896400  1
  O  O8  1  0.66809700  0.16120200  0.08107700  1
  O  O9  1  0.32115100  0.83909100  0.92039300  1
  O  O10  1  0.32018300  0.83880700  0.57964100  1
  O  O11  1  0.51206800  0.51754300  0.75006800  1
  O  O12  1  0.51302700  0.97189800  0.74998100  1
  O  O13  1  0.82732100  0.33835500  0.91789700  1
  O  O14  1  0.82601400  0.33870000  0.58204600  1
  O  O15  1  0.98383200  0.50990800  0.74981800  1
  O  O16  1  0.82782200  0.83863600  0.58101000  1
  O  O17  1  0.82915600  0.83853900  0.91873600  1
loop_
_geom_bond_atom_site_label_1
_geom_bond_atom_site_label_2
_geom_bond_distance
_geom_bond_site_symmetry_2
Cr0 O4 1.859945 1_555
Cr0 O8 1.879987 1_555
Cr0 O6 1.966296 1_555
Cr0 O2 1.966777 1_555
Cr0 O5 1.970385 1_555
Cr0 O1 1.991363 1_555
Cr1 O9 1.865560 1_554
Cr1 O1 1.871307 1_565
Cr1 O17 1.963127 1_454
Cr1 O8 1.963643 1_465
Cr1 O4 1.976806 1_555
Cr1 O13 1.983355 1_464
Cr2 O10 1.865562 1_555
Cr2 O0 1.870303 1_565
Cr2 O16 1.963812 1_455
Cr2 O7 1.964008 1_465
Cr2 O3 1.977135 1_555
Cr2 O14 1.985903 1_465
Cr3 O3 1.856870 1_555
Cr3 O7 1.877207 1_555
Cr3 O6 1.968619 1_555
Cr3 O2 1.970537 1_555
Cr3 O5 1.973845 1_555
Cr3 O0 1.991047 1_555
Cr4 O13 1.859696 1_555
Cr4 O17 1.874051 1_555
Cr4 O15 1.963857 1_555
Cr4 O11 1.970612 1_555
Cr4 O12 1.972850 1_555
Cr4 O9 1.996246 1_555
Cr5 O14 1.857534 1_555
Cr5 O16 1.871665 1_555
Cr5 O15 1.962909 1_555
Cr5 O11 1.970915 1_555
Cr5 O12 1.973925 1_555
Cr5 O10 1.998385 1_555
O0 Sr2 2.763893 1_555
O0 Sr4 2.781146 1_455
O0 Sr4 2.788848 1_545
O0 Sr3 2.906654 1_555
O1 Sr2 2.772676 1_555
O1 Sr5 2.784140 1_455
O1 Sr5 2.786741 1_545
O1 Sr0 2.889663 1_554
O2 Sr2 2.751379 1_555
O2 Sr5 2.762798 1_455
O2 Sr4 2.768930 1_455
O2 Sr2 2.806729 1_565
O3 Sr4 2.742501 1_455
O3 Sr4 2.797535 1_555
O3 Sr2 2.820283 1_565
O3 Sr3 2.873415 1_555
O4 Sr5 2.748147 1_455
O4 Sr5 2.792497 1_555
O4 Sr2 2.822189 1_565
O4 Sr0 2.862964 1_554
O5 Sr2 2.741657 1_555
O5 Sr5 2.762784 1_545
O5 Sr4 2.768411 1_545
O5 Sr2 2.796532 1_655
O6 Sr5 2.717172 1_555
O6 Sr4 2.718056 1_555
O6 Sr2 2.779695 1_565
O6 Sr2 2.781734 1_655
O7 Sr4 2.755690 1_545
O7 Sr4 2.806730 1_555
O7 Sr2 2.821770 1_655
O7 Sr3 2.876946 1_555
O8 Sr5 2.755979 1_545
O8 Sr5 2.806801 1_555
O8 Sr2 2.820281 1_655
O8 Sr0 2.871359 1_554
O9 Sr0 2.779954 1_555
O9 Sr0 2.785126 1_565
O9 Sr1 2.786726 1_565
O9 Sr5 2.890168 1_556
O10 Sr3 2.777485 1_555
O10 Sr1 2.784741 1_565
O10 Sr3 2.789111 1_565
O10 Sr4 2.889552 1_555
O11 Sr1 2.758120 1_565
O11 Sr3 2.762985 1_555
O11 Sr0 2.768614 1_555
O11 Sr1 2.805757 1_655
O12 Sr1 2.745813 1_565
O12 Sr3 2.762459 1_565
O12 Sr0 2.771592 1_565
O12 Sr1 2.792451 1_665
O13 Sr0 2.752406 1_555
O13 Sr0 2.786776 1_655
O13 Sr1 2.816319 1_655
O13 Sr5 2.875327 1_556
O14 Sr3 2.747421 1_555
O14 Sr3 2.793028 1_655
O14 Sr1 2.819352 1_655
O14 Sr4 2.869995 1_555
O15 Sr3 2.717590 1_655
O15 Sr0 2.730472 1_655
O15 Sr1 2.777037 1_665
O15 Sr1 2.778634 1_655
O16 Sr3 2.757118 1_565
O16 Sr3 2.811361 1_655
O16 Sr1 2.822055 1_665
O16 Sr4 2.871214 1_555
O17 Sr0 2.760609 1_565
O17 Sr0 2.806242 1_655
O17 Sr1 2.813922 1_665
O17 Sr5 2.878450 1_556
