# generated using pymatgen
data_Li2Ti3NiO8
_symmetry_space_group_name_H-M   'P 1'
_cell_length_a   8.44283500
_cell_length_b   8.44283500
_cell_length_c   8.44283500
_cell_angle_alpha   90.00000000
_cell_angle_beta   90.00000000
_cell_angle_gamma   90.00000000
_symmetry_Int_Tables_number   1
_chemical_formula_structural   Li2Ti3NiO8
_chemical_formula_sum   'Li8 Ti12 Ni4 O32'
_cell_volume   601.81762929
_cell_formula_units_Z   4
loop_
 _symmetry_equiv_pos_site_id
 _symmetry_equiv_pos_as_xyz
  1  'x, y, z'
loop_
 _atom_site_type_symbol
 _atom_site_label
 _atom_site_symmetry_multiplicity
 _atom_site_fract_x
 _atom_site_fract_y
 _atom_site_fract_z
 _atom_site_occupancy
  Li  Li0  1  0.12641100  0.87358900  0.37358900  1
  Li  Li1  1  0.24732200  0.74732200  0.75267800  1
  Li  Li2  1  0.25267800  0.25267800  0.25267800  1
  Li  Li3  1  0.37358900  0.12641100  0.87358900  1
  Li  Li4  1  0.62641100  0.62641100  0.62641100  1
  Li  Li5  1  0.74732200  0.75267800  0.24732200  1
  Li  Li6  1  0.75267800  0.24732200  0.74732200  1
  Li  Li7  1  0.87358900  0.37358900  0.12641100  1
  Ti  Ti0  1  0.11661300  0.62165300  0.12940200  1
  Ti  Ti1  1  0.12165300  0.37059800  0.88338700  1
  Ti  Ti2  1  0.12940200  0.11661300  0.62165300  1
  Ti  Ti3  1  0.37059800  0.88338700  0.12165300  1
  Ti  Ti4  1  0.37834700  0.62940200  0.38338700  1
  Ti  Ti5  1  0.38338700  0.37834700  0.62940200  1
  Ti  Ti6  1  0.61661300  0.87834700  0.87059800  1
  Ti  Ti7  1  0.62165300  0.12940200  0.11661300  1
  Ti  Ti8  1  0.62940200  0.38338700  0.37834700  1
  Ti  Ti9  1  0.87059800  0.61661300  0.87834700  1
  Ti  Ti10  1  0.87834700  0.87059800  0.61661300  1
  Ti  Ti11  1  0.88338700  0.12165300  0.37059800  1
  Ni  Ni0  1  0.00279600  0.49720400  0.50279600  1
  Ni  Ni1  1  0.49720400  0.50279600  0.00279600  1
  Ni  Ni2  1  0.50279600  0.00279600  0.49720400  1
  Ni  Ni3  1  0.99720400  0.99720400  0.99720400  1
  O  O0  1  0.10814000  0.12548400  0.39122400  1
  O  O1  1  0.10877600  0.89186000  0.62548400  1
  O  O2  1  0.11086900  0.61086900  0.88913100  1
  O  O3  1  0.12548400  0.39122400  0.10814000  1
  O  O4  1  0.12650700  0.14407300  0.85898100  1
  O  O5  1  0.13766700  0.36233300  0.63766700  1
  O  O6  1  0.14101900  0.62650700  0.35592700  1
  O  O7  1  0.14407300  0.85898100  0.12650700  1
  O  O8  1  0.35592700  0.14101900  0.62650700  1
  O  O9  1  0.35898100  0.37349300  0.85592700  1
  O  O10  1  0.36233300  0.63766700  0.13766700  1
  O  O11  1  0.37349300  0.85592700  0.35898100  1
  O  O12  1  0.37451600  0.60877600  0.60814000  1
  O  O13  1  0.38913100  0.38913100  0.38913100  1
  O  O14  1  0.39122400  0.10814000  0.12548400  1
  O  O15  1  0.39186000  0.87451600  0.89122400  1
  O  O16  1  0.60814000  0.37451600  0.60877600  1
  O  O17  1  0.60877600  0.60814000  0.37451600  1
  O  O18  1  0.61086900  0.88913100  0.11086900  1
  O  O19  1  0.62548400  0.10877600  0.89186000  1
  O  O20  1  0.62650700  0.35592700  0.14101900  1
  O  O21  1  0.63766700  0.13766700  0.36233300  1
  O  O22  1  0.64101900  0.87349300  0.64407300  1
  O  O23  1  0.64407300  0.64101900  0.87349300  1
  O  O24  1  0.85592700  0.35898100  0.37349300  1
  O  O25  1  0.85898100  0.12650700  0.14407300  1
  O  O26  1  0.86233300  0.86233300  0.86233300  1
  O  O27  1  0.87349300  0.64407300  0.64101900  1
  O  O28  1  0.87451600  0.89122400  0.39186000  1
  O  O29  1  0.88913100  0.11086900  0.61086900  1
  O  O30  1  0.89122400  0.39186000  0.87451600  1
  O  O31  1  0.89186000  0.62548400  0.10877600  1
loop_
_geom_bond_atom_site_label_1
_geom_bond_atom_site_label_2
_geom_bond_distance
_geom_bond_site_symmetry_2
Li0 O6 2.095029 1_555
Li0 O7 2.095029 1_555
Li0 O11 2.095029 1_555
Li0 O0 2.137487 1_565
Li0 O1 2.137487 1_555
Li0 O28 2.137487 1_455
Li1 O2 1.995409 1_555
Li1 O1 2.002653 1_555
Li1 O12 2.002653 1_555
Li1 O15 2.002653 1_555
Li2 O13 1.995409 1_555
Li2 O0 2.002653 1_555
Li2 O14 2.002653 1_555
Li2 O3 2.002653 1_555
Li3 O8 2.095029 1_555
Li3 O4 2.095029 1_555
Li3 O9 2.095029 1_555
Li3 O14 2.137487 1_556
Li3 O19 2.137487 1_555
Li3 O15 2.137487 1_545
Li4 O27 2.095029 1_555
Li4 O22 2.095029 1_555
Li4 O23 2.095029 1_555
Li4 O17 2.137487 1_555
Li4 O12 2.137487 1_555
Li4 O16 2.137487 1_555
Li5 O18 1.995409 1_555
Li5 O31 2.002653 1_555
Li5 O28 2.002653 1_555
Li5 O17 2.002653 1_555
Li6 O29 1.995409 1_555
Li6 O19 2.002653 1_555
Li6 O30 2.002653 1_555
Li6 O16 2.002653 1_555
Li7 O20 2.095029 1_555
Li7 O25 2.095029 1_555
Li7 O24 2.095029 1_555
Li7 O3 2.137487 1_655
Li7 O31 2.137487 1_555
Li7 O30 2.137487 1_554
Ni0 O5 1.972275 1_555
Ni0 O24 2.022678 1_455
Ni0 O27 2.022678 1_455
Ni0 O6 2.022678 1_555
Ni1 O10 1.972275 1_555
Ni1 O9 2.022678 1_554
Ni1 O23 2.022678 1_554
Ni1 O20 2.022678 1_555
Ni2 O21 1.972275 1_555
Ni2 O11 2.022678 1_545
Ni2 O22 2.022678 1_545
Ni2 O8 2.022678 1_555
Ni3 O26 1.972275 1_555
Ni3 O7 2.022678 1_656
Ni3 O25 2.022678 1_566
Ni3 O4 2.022678 1_665
O0 Ti11 1.905801 1_455
O0 Ti2 1.955173 1_555
O1 Ti2 1.905801 1_565
O1 Ti10 1.955173 1_455
O2 Ti1 2.031190 1_555
O2 Ti0 2.031190 1_556
O2 Ti9 2.031190 1_455
O3 Ti1 1.905801 1_554
O3 Ti0 1.955173 1_555
O4 Ti1 1.924018 1_555
O4 Ti2 2.017237 1_555
O5 Ti5 2.080145 1_555
O5 Ti2 2.080145 1_555
O5 Ti1 2.080145 1_555
O6 Ti0 1.924018 1_555
O6 Ti4 2.017237 1_555
O7 Ti3 1.924018 1_555
O7 Ti0 2.017237 1_555
O8 Ti2 1.924018 1_555
O8 Ti5 2.017237 1_555
O9 Ti5 1.924018 1_555
O9 Ti1 2.017237 1_555
O10 Ti4 2.080145 1_555
O10 Ti0 2.080145 1_555
O10 Ti3 2.080145 1_555
O11 Ti4 1.924018 1_555
O11 Ti3 2.017237 1_555
O12 Ti4 1.905801 1_555
O12 Ti5 1.955173 1_555
O13 Ti5 2.031190 1_555
O13 Ti4 2.031190 1_555
O13 Ti8 2.031190 1_555
O14 Ti3 1.905801 1_545
O14 Ti7 1.955173 1_555
O15 Ti6 1.905801 1_555
O15 Ti3 1.955173 1_556
O16 Ti5 1.905801 1_555
O16 Ti8 1.955173 1_555
O17 Ti8 1.905801 1_555
O17 Ti4 1.955173 1_555
O18 Ti3 2.031190 1_555
O18 Ti7 2.031190 1_565
O18 Ti6 2.031190 1_554
O19 Ti7 1.905801 1_556
O19 Ti6 1.955173 1_545
O20 Ti7 1.924018 1_555
O20 Ti8 2.017237 1_555
O21 Ti8 2.080145 1_555
O21 Ti7 2.080145 1_555
O21 Ti11 2.080145 1_555
O22 Ti6 1.924018 1_555
O22 Ti10 2.017237 1_555
O23 Ti9 1.924018 1_555
O23 Ti6 2.017237 1_555
O24 Ti8 1.924018 1_555
O24 Ti11 2.017237 1_555
O25 Ti11 1.924018 1_555
O25 Ti7 2.017237 1_555
O26 Ti6 2.080145 1_555
O26 Ti9 2.080145 1_555
O26 Ti10 2.080145 1_555
O27 Ti10 1.924018 1_555
O27 Ti9 2.017237 1_555
O28 Ti10 1.905801 1_555
O28 Ti11 1.955173 1_565
O29 Ti10 2.031190 1_545
O29 Ti2 2.031190 1_655
O29 Ti11 2.031190 1_555
O30 Ti9 1.905801 1_555
O30 Ti1 1.955173 1_655
O31 Ti0 1.905801 1_655
O31 Ti9 1.955173 1_554
