# generated using pymatgen
data_Li4V2SiGeO10
_symmetry_space_group_name_H-M   'P 1'
_cell_length_a   4.57354401
_cell_length_b   9.21234414
_cell_length_c   9.21214897
_cell_angle_alpha   89.99500396
_cell_angle_beta   90.00233872
_cell_angle_gamma   90.00602212
_symmetry_Int_Tables_number   1
_chemical_formula_structural   Li4V2SiGeO10
_chemical_formula_sum   'Li8 V4 Si2 Ge2 O20'
_cell_volume   388.13603391
_cell_formula_units_Z   2
loop_
 _symmetry_equiv_pos_site_id
 _symmetry_equiv_pos_as_xyz
  1  'x, y, z'
loop_
 _atom_site_type_symbol
 _atom_site_label
 _atom_site_symmetry_multiplicity
 _atom_site_fract_x
 _atom_site_fract_y
 _atom_site_fract_z
 _atom_site_occupancy
  Li  Li0  1  0.00000300  0.49999900  0.49488200  1
  Li  Li1  1  0.00002100  0.00001400  0.99488100  1
  Li  Li2  1  0.00001000  0.25511700  0.24998100  1
  Li  Li3  1  0.00001300  0.75511300  0.75000600  1
  Li  Li4  1  0.00001300  0.74488400  0.24999400  1
  Li  Li5  1  0.00000800  0.24488700  0.75001500  1
  Li  Li6  1  0.00002200  0.49998700  0.00511500  1
  Li  Li7  1  0.00000300  0.00000100  0.50511900  1
  V  V0  1  0.58949800  0.74999700  0.50000000  1
  V  V1  1  0.41047900  0.25000300  0.50000100  1
  V  V2  1  0.58943100  0.24999700  0.00000000  1
  V  V3  1  0.41041000  0.75000100  0.00000200  1
  Si  Si0  1  0.49999100  0.49998300  0.24999700  1
  Si  Si1  1  0.49999400  0.00001000  0.74998400  1
  Ge  Ge0  1  0.49998800  0.49999600  0.75002100  1
  Ge  Ge1  1  0.49998200  0.00001000  0.24999500  1
  O  O0  1  0.22212000  0.24999800  0.99999700  1
  O  O1  1  0.22216400  0.74996600  0.49999900  1
  O  O2  1  0.77784900  0.75000100  0.00000100  1
  O  O3  1  0.77780400  0.25002700  0.50001400  1
  O  O4  1  0.28587500  0.39788000  0.35205800  1
  O  O5  1  0.28574200  0.89793900  0.85204900  1
  O  O6  1  0.71426600  0.39793400  0.14796400  1
  O  O7  1  0.71419800  0.89794000  0.64794800  1
  O  O8  1  0.71419400  0.60207400  0.35204000  1
  O  O9  1  0.71427300  0.10206500  0.85203700  1
  O  O10  1  0.28574300  0.60206100  0.14794900  1
  O  O11  1  0.28587400  0.10210300  0.64792600  1
  O  O12  1  0.73589000  0.39250100  0.85750700  1
  O  O13  1  0.73580800  0.89251000  0.35751600  1
  O  O14  1  0.26424100  0.39245500  0.64246300  1
  O  O15  1  0.26408100  0.89250300  0.14247700  1
  O  O16  1  0.26408700  0.60749900  0.85752300  1
  O  O17  1  0.26423000  0.10753800  0.35754200  1
  O  O18  1  0.73579300  0.60750600  0.64249900  1
  O  O19  1  0.73589500  0.10749900  0.14249700  1
loop_
_geom_bond_atom_site_label_1
_geom_bond_atom_site_label_2
_geom_bond_distance
_geom_bond_site_symmetry_2
Li0 O14 2.071294 1_555
Li0 O18 2.071452 1_455
Li0 O8 2.079513 1_455
Li0 O4 2.079943 1_555
Li0 O1 2.517327 1_555
Li0 O3 2.517436 1_455
Li1 O15 2.070765 1_546
Li1 O19 2.071125 1_456
Li1 O9 2.079249 1_455
Li1 O5 2.079373 1_545
Li1 O0 2.517356 1_555
Li1 O2 2.517729 1_446
Li2 O19 2.070912 1_455
Li2 O17 2.071349 1_555
Li2 O6 2.078982 1_455
Li2 O4 2.079194 1_555
Li2 O0 2.517470 1_554
Li2 O3 2.518044 1_455
Li3 O16 2.070978 1_555
Li3 O18 2.071227 1_455
Li3 O5 2.079029 1_555
Li3 O7 2.079415 1_455
Li3 O2 2.517650 1_456
Li3 O1 2.517744 1_555
Li4 O15 2.070872 1_555
Li4 O13 2.071582 1_455
Li4 O8 2.079151 1_455
Li4 O10 2.079245 1_555
Li4 O2 2.517562 1_455
Li4 O1 2.517637 1_555
Li5 O12 2.071145 1_455
Li5 O14 2.071158 1_555
Li5 O9 2.078880 1_455
Li5 O11 2.079592 1_555
Li5 O0 2.517376 1_555
Li5 O3 2.517707 1_455
Li6 O16 2.070701 1_554
Li6 O12 2.070911 1_454
Li6 O10 2.079188 1_555
Li6 O6 2.079253 1_455
Li6 O0 2.517593 1_554
Li6 O2 2.517932 1_455
Li7 O13 2.071071 1_445
Li7 O17 2.071153 1_555
Li7 O7 2.079310 1_445
Li7 O11 2.079579 1_555
Li7 O3 2.518080 1_455
Li7 O1 2.518097 1_545
Ge0 O18 1.767715 1_555
Ge0 O12 1.767800 1_555
Ge0 O14 1.767946 1_555
Ge0 O16 1.768067 1_555
Ge1 O19 1.767784 1_555
Ge1 O13 1.767794 1_545
Ge1 O15 1.767994 1_545
Ge1 O17 1.768012 1_555
O0 V2 1.679913 1_556
O1 V0 1.680018 1_555
O2 V3 1.680498 1_555
O3 V1 1.679977 1_555
O4 Si0 1.651489 1_555
O4 V1 2.009430 1_555
O5 Si1 1.651711 1_565
O5 V3 2.009956 1_556
O6 Si0 1.651701 1_555
O6 V2 2.010315 1_555
O7 Si1 1.651634 1_565
O7 V0 2.010078 1_555
O8 Si0 1.651616 1_555
O8 V0 2.010135 1_555
O9 Si1 1.651685 1_555
O9 V2 2.010400 1_556
O10 Si0 1.651720 1_555
O10 V3 2.009880 1_555
O11 Si1 1.651504 1_555
O11 V1 2.009413 1_555
O12 V2 1.973523 1_556
O13 V0 1.973292 1_555
O14 V1 1.972918 1_555
O15 V3 1.973445 1_555
O16 V3 1.973330 1_556
O17 V1 1.972866 1_555
O18 V0 1.973283 1_555
O19 V2 1.973576 1_555
