# generated using pymatgen
data_Li3NiPCO7
_symmetry_space_group_name_H-M   'P 1'
_cell_length_a   6.39534600
_cell_length_b   8.37128382
_cell_length_c   9.91434316
_cell_angle_alpha   94.79770882
_cell_angle_beta   90.07326719
_cell_angle_gamma   90.11139829
_symmetry_Int_Tables_number   1
_chemical_formula_structural   Li3NiPCO7
_chemical_formula_sum   'Li12 Ni4 P4 C4 O28'
_cell_volume   528.92541200
_cell_formula_units_Z   4
loop_
 _symmetry_equiv_pos_site_id
 _symmetry_equiv_pos_as_xyz
  1  'x, y, z'
loop_
 _atom_site_type_symbol
 _atom_site_label
 _atom_site_symmetry_multiplicity
 _atom_site_fract_x
 _atom_site_fract_y
 _atom_site_fract_z
 _atom_site_occupancy
  Li  Li0  1  0.74771800  0.91074800  0.38061000  1
  Li  Li1  1  0.74581500  0.90283800  0.88048200  1
  Li  Li2  1  0.52024200  0.72183700  0.12300300  1
  Li  Li3  1  0.97977800  0.72431600  0.62290100  1
  Li  Li4  1  0.52206500  0.72394300  0.62327600  1
  Li  Li5  1  0.74916200  0.33903300  0.10512900  1
  Li  Li6  1  0.48596400  0.27684300  0.37005700  1
  Li  Li7  1  0.01446400  0.27760500  0.37021000  1
  Li  Li8  1  0.49020100  0.27719300  0.88659800  1
  Li  Li9  1  0.00906300  0.27636300  0.88670700  1
  Li  Li10  1  0.25040500  0.10536500  0.11302700  1
  Li  Li11  1  0.25072700  0.09935500  0.61713200  1
  Ni  Ni0  1  0.98424000  0.72349400  0.12511400  1
  Ni  Ni1  1  0.25083100  0.66495300  0.39783000  1
  Ni  Ni2  1  0.25181700  0.66565100  0.89257300  1
  Ni  Ni3  1  0.75096800  0.33305200  0.60330700  1
  P  P0  1  0.75320100  0.58899700  0.36047200  1
  P  P1  1  0.74812200  0.58179400  0.85995800  1
  P  P2  1  0.24627900  0.41066600  0.13989600  1
  P  P3  1  0.25064500  0.41441900  0.63938000  1
  C  C0  1  0.24531300  0.95985200  0.35029000  1
  C  C1  1  0.24792400  0.95983200  0.85214900  1
  C  C2  1  0.75341500  0.03618500  0.14699500  1
  C  C3  1  0.75034400  0.04024600  0.64901700  1
  O  O0  1  0.25147000  0.92297500  0.47384700  1
  O  O1  1  0.76122100  0.88282000  0.17801000  1
  O  O2  1  0.24657700  0.92179000  0.97685200  1
  O  O3  1  0.23892800  0.83978500  0.25486500  1
  O  O4  1  0.75003700  0.89231500  0.67886300  1
  O  O5  1  0.24800600  0.84285600  0.75662200  1
  O  O6  1  0.93946900  0.69357700  0.41674400  1
  O  O7  1  0.56301300  0.69242300  0.41092200  1
  O  O8  1  0.93713500  0.68924300  0.91671700  1
  O  O9  1  0.56260600  0.69047900  0.91131100  1
  O  O10  1  0.23969700  0.58251200  0.08525900  1
  O  O11  1  0.76290200  0.57239100  0.20243700  1
  O  O12  1  0.25171300  0.58218100  0.58550400  1
  O  O13  1  0.75553000  0.56653200  0.70213300  1
  O  O14  1  0.24783000  0.43909500  0.29797300  1
  O  O15  1  0.75024500  0.41999900  0.41116400  1
  O  O16  1  0.25011600  0.43876200  0.79699000  1
  O  O17  1  0.74931600  0.41706100  0.91302800  1
  O  O18  1  0.05793500  0.30705900  0.09158900  1
  O  O19  1  0.44060800  0.31724700  0.08918000  1
  O  O20  1  0.43851300  0.30929700  0.58749100  1
  O  O21  1  0.06287000  0.30886200  0.58686700  1
  O  O22  1  0.74399900  0.14298600  0.24674400  1
  O  O23  1  0.24847200  0.10519700  0.31764600  1
  O  O24  1  0.75047600  0.15642900  0.74431400  1
  O  O25  1  0.75190500  0.06693100  0.02336000  1
  O  O26  1  0.25035000  0.10687600  0.82245200  1
  O  O27  1  0.75036300  0.07773900  0.52500100  1
loop_
_geom_bond_atom_site_label_1
_geom_bond_atom_site_label_2
_geom_bond_distance
_geom_bond_site_symmetry_2
Li0 O27 1.915437 1_565
Li0 O1 2.004680 1_555
Li0 O7 2.215943 1_555
Li0 O6 2.248066 1_555
Li0 O22 2.444046 1_565
Li1 O25 1.889240 1_566
Li1 O4 1.993706 1_555
Li1 O9 2.170312 1_555
Li1 O8 2.222197 1_555
Li2 O1 2.086982 1_555
Li2 O9 2.111112 1_554
Li2 O10 2.153273 1_555
Li2 O11 2.182421 1_555
Li2 O3 2.391186 1_555
Li3 O6 2.054425 1_555
Li3 O4 2.079438 1_555
Li3 O12 2.124535 1_655
Li3 O13 2.141860 1_555
Li3 O5 2.335055 1_655
Li4 O4 2.067860 1_555
Li4 O12 2.110454 1_555
Li4 O7 2.116473 1_555
Li4 O13 2.180359 1_555
Li4 O5 2.367118 1_555
Li5 O19 1.986251 1_555
Li5 O18 1.996464 1_655
Li5 O17 2.064484 1_554
Li5 O11 2.106775 1_555
Li5 O22 2.247473 1_555
Li5 O25 2.353165 1_555
Li6 O15 2.089878 1_555
Li6 O23 2.122773 1_555
Li6 O20 2.171874 1_555
Li6 O14 2.200595 1_555
Li6 O22 2.292758 1_555
Li7 O15 2.090390 1_455
Li7 O23 2.116343 1_555
Li7 O21 2.163845 1_555
Li7 O14 2.173652 1_555
Li7 O22 2.348731 1_455
Li8 O17 2.031185 1_555
Li8 O19 2.033803 1_556
Li8 O26 2.151173 1_555
Li8 O16 2.276345 1_555
Li8 O24 2.357261 1_555
Li9 O17 2.042587 1_455
Li9 O18 2.049520 1_556
Li9 O26 2.158686 1_555
Li9 O16 2.283333 1_555
Li9 O24 2.342304 1_455
Li10 O2 1.958997 1_544
Li10 O23 2.028835 1_555
Li10 O18 2.116267 1_555
Li10 O19 2.178108 1_555
Li11 O0 1.961472 1_545
Li11 O26 2.031321 1_555
Li11 O20 2.167140 1_555
Li11 O21 2.169029 1_555
Ni0 O1 1.995130 1_555
Ni0 O10 2.036968 1_655
Ni0 O8 2.083456 1_554
Ni0 O11 2.085540 1_555
Ni0 O3 2.243784 1_655
Ni1 O7 2.012051 1_555
Ni1 O6 2.013212 1_455
Ni1 O12 2.039087 1_555
Ni1 O14 2.059617 1_555
Ni1 O3 2.122269 1_555
Ni1 O0 2.227367 1_555
Ni2 O9 2.004811 1_555
Ni2 O8 2.035026 1_455
Ni2 O16 2.050487 1_555
Ni2 O5 2.086247 1_555
Ni2 O10 2.088642 1_556
Ni2 O2 2.235531 1_555
Ni3 O21 2.010813 1_655
Ni3 O20 2.012363 1_555
Ni3 O15 2.095386 1_555
Ni3 O13 2.111964 1_555
Ni3 O24 2.118086 1_555
Ni3 O27 2.212053 1_555
C0 O23 1.285054 1_565
C0 O0 1.288652 1_555
C0 O3 1.321991 1_555
C1 O26 1.289465 1_565
C1 O2 1.302277 1_555
C1 O5 1.304129 1_555
C2 O25 1.273413 1_555
C2 O22 1.278063 1_555
C2 O1 1.345954 1_545
C3 O27 1.294151 1_555
C3 O4 1.297080 1_545
C3 O24 1.298035 1_555
O6 P0 1.552196 1_555
O7 P0 1.553204 1_555
O8 P1 1.579971 1_555
O9 P1 1.556568 1_555
O10 P2 1.579626 1_555
O11 P0 1.562666 1_555
O12 P3 1.543730 1_555
O13 P1 1.560040 1_555
O14 P2 1.565409 1_555
O15 P0 1.540539 1_555
O16 P3 1.558848 1_555
O17 P1 1.516580 1_555
O18 P2 1.535410 1_555
O19 P2 1.532502 1_555
O20 P3 1.553250 1_555
O21 P3 1.552848 1_555
