# generated using pymatgen
data_Li5V3P8O29
_symmetry_space_group_name_H-M   'P 1'
_cell_length_a   9.79095700
_cell_length_b   9.82885962
_cell_length_c   14.07992492
_cell_angle_alpha   89.71405550
_cell_angle_beta   89.56733720
_cell_angle_gamma   60.26670616
_symmetry_Int_Tables_number   1
_chemical_formula_structural   Li5V3P8O29
_chemical_formula_sum   'Li10 V6 P16 O58'
_cell_volume   1176.54170033
_cell_formula_units_Z   2
loop_
 _symmetry_equiv_pos_site_id
 _symmetry_equiv_pos_as_xyz
  1  'x, y, z'
loop_
 _atom_site_type_symbol
 _atom_site_label
 _atom_site_symmetry_multiplicity
 _atom_site_fract_x
 _atom_site_fract_y
 _atom_site_fract_z
 _atom_site_occupancy
  Li  Li0  1  0.90415100  0.76883200  0.43976200  1
  Li  Li1  1  0.31449200  0.91410500  0.43528200  1
  Li  Li2  1  0.66278400  0.67561600  0.11175400  1
  Li  Li3  1  0.31801600  0.76854600  0.94361500  1
  Li  Li4  1  0.90977400  0.32081900  0.93923500  1
  Li  Li5  1  0.22300500  0.68802500  0.55630800  1
  Li  Li6  1  0.76877300  0.32441900  0.43856200  1
  Li  Li7  1  0.32332400  0.32857200  0.89293700  1
  Li  Li8  1  0.68127900  0.09095400  0.56149700  1
  Li  Li9  1  0.97358700  0.97586100  0.00375000  1
  V  V0  1  0.43686100  0.56839700  0.75099100  1
  V  V1  1  0.56918400  0.43027100  0.24800000  1
  V  V2  1  0.00447300  0.56529500  0.24643000  1
  V  V3  1  0.00203500  0.43295300  0.74924800  1
  V  V4  1  0.57046300  0.99684000  0.75410000  1
  V  V5  1  0.42957300  0.00411600  0.24825400  1
  P  P0  1  0.77907800  0.91168400  0.15882900  1
  P  P1  1  0.91394800  0.76619600  0.65937100  1
  P  P2  1  0.31970800  0.91501000  0.65618200  1
  P  P3  1  0.67087600  0.66307400  0.87294800  1
  P  P4  1  0.66579700  0.66664800  0.37053700  1
  P  P5  1  0.31832100  0.77306600  0.15811100  1
  P  P6  1  0.23209500  0.67942800  0.34026900  1
  P  P7  1  0.91282300  0.31537700  0.15451400  1
  P  P8  1  0.08845500  0.68944400  0.84306800  1
  P  P9  1  0.77136000  0.31709100  0.65642800  1
  P  P10  1  0.68692300  0.22466200  0.83979400  1
  P  P11  1  0.33635500  0.33595400  0.63070000  1
  P  P12  1  0.33488800  0.33322200  0.12854600  1
  P  P13  1  0.68258600  0.08465100  0.34254100  1
  P  P14  1  0.08247700  0.23062100  0.33894000  1
  P  P15  1  0.22328700  0.08528400  0.84042100  1
  O  O0  1  0.75415000  0.99843800  0.43364700  1
  O  O1  1  0.75183100  0.91798300  0.66310700  1
  O  O2  1  0.00830900  0.79181800  0.92506100  1
  O  O3  1  0.91943800  0.73898200  0.16764600  1
  O  O4  1  0.62795200  0.89929800  0.16610700  1
  O  O5  1  0.67163500  0.80722700  0.83149300  1
  O  O6  1  0.47749900  0.90750400  0.68001900  1
  O  O7  1  0.22176900  0.98592600  0.91984200  1
  O  O8  1  0.34258800  0.91695200  0.16734000  1
  O  O9  1  0.81599200  0.66715000  0.32573400  1
  O  O10  1  0.89513500  0.62262500  0.67914000  1
  O  O11  1  0.51435700  0.81500800  0.33245600  1
  O  O12  1  0.66025800  0.65737500  0.97904100  1
  O  O13  1  0.67444500  0.66391500  0.47635500  1
  O  O14  1  0.51822500  0.66368400  0.83112200  1
  O  O15  1  0.89905600  0.48031900  0.17022800  1
  O  O16  1  0.81897500  0.51057900  0.83567700  1
  O  O17  1  0.34182300  0.74480700  0.66556500  1
  O  O18  1  0.21033000  0.78777400  0.24931400  1
  O  O19  1  0.23718000  0.76100100  0.42895800  1
  O  O20  1  0.23480100  0.77760900  0.06941700  1
  O  O21  1  0.48300600  0.62710700  0.17144400  1
  O  O22  1  0.66867100  0.51534700  0.33133900  1
  O  O23  1  0.26401700  0.65682200  0.83824300  1
  O  O24  1  0.61901000  0.47638600  0.68146200  1
  O  O25  1  0.91233000  0.34061000  0.66189600  1
  O  O26  1  0.01469200  0.78201900  0.74435000  1
  O  O27  1  0.99912800  0.75345500  0.56745600  1
  O  O28  1  0.98696200  0.24063400  0.42305300  1
  O  O29  1  0.08271400  0.66094600  0.33995900  1
  O  O30  1  0.38137500  0.52185800  0.32387500  1
  O  O31  1  0.74308000  0.34302500  0.16410600  1
  O  O32  1  0.33676600  0.48605100  0.67661900  1
  O  O33  1  0.52324400  0.37777900  0.82951300  1
  O  O34  1  0.78426800  0.22061400  0.92112500  1
  O  O35  1  0.74826300  0.25186800  0.56595600  1
  O  O36  1  0.78291200  0.20261800  0.74185500  1
  O  O37  1  0.66481100  0.24961300  0.34048000  1
  O  O38  1  0.18174100  0.48293700  0.17373400  1
  O  O39  1  0.09822500  0.52744900  0.83643900  1
  O  O40  1  0.47741800  0.33850600  0.16981300  1
  O  O41  1  0.32561300  0.34475500  0.02295800  1
  O  O42  1  0.32662800  0.35530900  0.52603300  1
  O  O43  1  0.48607100  0.18650200  0.66653400  1
  O  O44  1  0.09064600  0.38280800  0.31948700  1
  O  O45  1  0.18819600  0.34001300  0.67946700  1
  O  O46  1  0.65213800  0.08742100  0.83811200  1
  O  O47  1  0.79718000  0.99052900  0.25576900  1
  O  O48  1  0.79976500  0.99265600  0.07636400  1
  O  O49  1  0.52422500  0.09353000  0.32118200  1
  O  O50  1  0.33071300  0.19026500  0.17002900  1
  O  O51  1  0.37156900  0.10371000  0.83061900  1
  O  O52  1  0.08018600  0.25260200  0.84172900  1
  O  O53  1  0.98934500  0.23958300  0.06344100  1
  O  O54  1  0.00690100  0.20618600  0.24246700  1
  O  O55  1  0.25027300  0.08713400  0.34006300  1
  O  O56  1  0.25408100  0.98221400  0.56237400  1
  O  O57  1  0.20287500  0.01230100  0.74078800  1
loop_
_geom_bond_atom_site_label_1
_geom_bond_atom_site_label_2
_geom_bond_distance
_geom_bond_site_symmetry_2
Li0 O0 1.992402 1_555
Li0 O27 2.000809 1_555
Li0 O29 2.072314 1_655
Li0 O9 2.283456 1_555
Li1 O56 1.898241 1_555
Li1 O19 1.994420 1_555
Li1 O55 2.003582 1_565
Li1 O11 2.225932 1_555
Li2 O12 1.879580 1_554
Li2 O4 2.191954 1_555
Li2 O21 2.199562 1_555
Li2 O15 2.307008 1_555
Li3 O7 1.888271 1_555
Li3 O20 1.927950 1_556
Li3 O23 2.071364 1_555
Li3 O14 2.319243 1_555
Li4 O53 1.921571 1_556
Li4 O34 1.937213 1_555
Li4 O52 1.995781 1_655
Li4 O16 2.177787 1_555
Li5 O19 1.957299 1_555
Li5 O27 1.959715 1_455
Li5 O17 2.170466 1_555
Li5 O32 2.419236 1_555
Li6 O28 1.881288 1_555
Li6 O35 1.972312 1_555
Li6 O37 2.063385 1_555
Li6 O22 2.220601 1_555
Li7 O41 1.839640 1_556
Li7 O51 2.203465 1_555
Li7 O39 2.246941 1_555
Li7 O33 2.402325 1_555
Li8 O0 1.982359 1_545
Li8 O35 1.991492 1_555
Li8 O1 2.059142 1_545
Li8 O43 2.216494 1_555
Li9 O48 1.914600 1_555
Li9 O2 2.004905 1_654
Li9 O34 2.481511 1_564
Li9 O20 2.503443 1_655
O0 P13 1.506076 1_565
O1 P1 1.548728 1_555
O1 V4 2.001451 1_555
O2 P8 1.475029 1_555
O3 P0 1.572238 1_555
O3 V2 1.850191 1_655
O4 P0 1.546288 1_555
O4 V5 2.040795 1_565
O5 P3 1.533087 1_555
O5 V4 1.951097 1_555
O6 P2 1.549001 1_555
O6 V4 1.871818 1_555
O7 P15 1.485810 1_565
O8 P5 1.552097 1_555
O8 V5 1.872265 1_565
O9 P4 1.598012 1_555
O9 V2 1.949881 1_655
O10 P1 1.534879 1_555
O10 V3 1.899236 1_655
O11 P4 1.572227 1_555
O11 V5 2.002958 1_565
O12 P3 1.499308 1_555
O13 P4 1.492304 1_555
O14 P3 1.607807 1_555
O14 V0 1.883849 1_555
O15 P7 1.575358 1_555
O15 V2 1.948026 1_655
O16 P3 1.570050 1_555
O16 V3 1.973659 1_655
O17 P2 1.581726 1_555
O17 V0 1.927353 1_555
O18 P6 1.607764 1_555
O18 P5 1.617894 1_555
O19 P6 1.501725 1_555
O20 P5 1.486221 1_555
O21 P5 1.549393 1_555
O21 V1 1.997615 1_555
O22 P4 1.575866 1_555
O22 V1 1.964671 1_555
O23 P8 1.585517 1_555
O23 V0 1.910185 1_555
O24 P9 1.575312 1_555
O24 V0 1.827414 1_555
O25 P9 1.510851 1_555
O25 V3 1.981428 1_655
O26 P1 1.612634 1_455
O26 P8 1.622392 1_555
O27 P1 1.505918 1_555
O28 P14 1.476473 1_655
O29 P6 1.560710 1_555
O29 V2 1.986670 1_555
O30 P6 1.530112 1_555
O30 V1 1.915967 1_555
O31 P7 1.550208 1_555
O31 V1 1.887062 1_555
O32 P11 1.615528 1_555
O32 V0 1.876915 1_555
O33 P10 1.569427 1_555
O33 V0 1.967105 1_555
O34 P10 1.483149 1_555
O35 P9 1.497023 1_555
O36 P9 1.608660 1_555
O36 P10 1.616542 1_555
O37 P13 1.542640 1_555
O37 V1 2.017754 1_555
O38 P12 1.620132 1_555
O38 V2 1.817454 1_555
O39 P8 1.550263 1_555
O39 V3 2.037948 1_555
O40 P12 1.540186 1_555
O40 V1 1.913468 1_555
O41 P12 1.490447 1_555
O42 P11 1.482704 1_555
O43 P11 1.558523 1_555
O43 V4 2.035312 1_545
O44 P14 1.559859 1_555
O44 V2 1.865658 1_555
O45 P11 1.582776 1_555
O45 V3 1.858050 1_555
O46 P10 1.546704 1_555
O46 V4 1.887419 1_545
O47 P13 1.602603 1_565
O47 P0 1.626467 1_555
O48 P0 1.472990 1_555
O49 P13 1.541001 1_555
O49 V5 1.875314 1_555
O50 P12 1.538037 1_555
O50 V5 1.933096 1_555
O51 P15 1.554726 1_555
O51 V4 2.001731 1_545
O52 P15 1.543466 1_555
O52 V3 2.017392 1_555
O53 P7 1.483912 1_555
O54 P7 1.599126 1_455
O54 P14 1.626348 1_555
O55 P14 1.546026 1_555
O55 V5 1.993490 1_555
O56 P2 1.475407 1_555
O57 P2 1.596174 1_545
O57 P15 1.636740 1_555
