# generated using pymatgen
data_Cr2P4Pb3O16
_symmetry_space_group_name_H-M   'P 1'
_cell_length_a   8.96986891
_cell_length_b   8.96987116
_cell_length_c   16.57823747
_cell_angle_alpha   90.00000000
_cell_angle_beta   90.00000000
_cell_angle_gamma   90.00001392
_symmetry_Int_Tables_number   1
_chemical_formula_structural   Cr2P4Pb3O16
_chemical_formula_sum   'Cr8 P16 Pb12 O64'
_cell_volume   1333.86125417
_cell_formula_units_Z   4
loop_
 _symmetry_equiv_pos_site_id
 _symmetry_equiv_pos_as_xyz
  1  'x, y, z'
loop_
 _atom_site_type_symbol
 _atom_site_label
 _atom_site_symmetry_multiplicity
 _atom_site_fract_x
 _atom_site_fract_y
 _atom_site_fract_z
 _atom_site_occupancy
  Cr  Cr0  1  0.26504424  0.50089822  0.87870214  1
  Cr  Cr1  1  0.99910173  0.76504417  0.12870203  1
  Cr  Cr2  1  0.73495576  0.49910178  0.37870214  1
  Cr  Cr3  1  0.49910182  0.73495578  0.62129789  1
  Cr  Cr4  1  0.50089818  0.26504422  0.12129789  1
  Cr  Cr5  1  0.00089827  0.23495583  0.62870203  1
  Cr  Cr6  1  0.23495581  0.00089822  0.37129796  1
  Cr  Cr7  1  0.76504419  0.99910178  0.87129796  1
  P  P0  1  0.27305586  0.45548233  0.67991625  1
  P  P1  1  0.00468532  0.72517549  0.32831112  1
  P  P2  1  0.77305588  0.04451783  0.07008375  1
  P  P3  1  0.45548230  0.27305581  0.32008373  1
  P  P4  1  0.22517535  0.49531452  0.07831126  1
  P  P5  1  0.72694414  0.54451767  0.17991625  1
  P  P6  1  0.49531455  0.22517531  0.92168874  1
  P  P7  1  0.72517552  0.00468537  0.67168882  1
  P  P8  1  0.22694412  0.95548217  0.57008375  1
  P  P9  1  0.50468545  0.77482469  0.42168874  1
  P  P10  1  0.04451783  0.77305596  0.92991627  1
  P  P11  1  0.54451770  0.72694419  0.82008373  1
  P  P12  1  0.27482448  0.99531463  0.17168882  1
  P  P13  1  0.95548217  0.22694404  0.42991627  1
  P  P14  1  0.99531468  0.27482451  0.82831112  1
  P  P15  1  0.77482465  0.50468548  0.57831126  1
  Pb  Pb0  1  0.65595685  0.92376062  0.23630703  1
  Pb  Pb1  1  0.13428796  0.13428797  0.99999997  1
  Pb  Pb2  1  0.07623937  0.34404312  0.26369294  1
  Pb  Pb3  1  0.84404320  0.42376070  0.01369301  1
  Pb  Pb4  1  0.36571209  0.63428786  0.25000001  1
  Pb  Pb5  1  0.42376073  0.84404322  0.98630693  1
  Pb  Pb6  1  0.92376063  0.65595688  0.76369294  1
  Pb  Pb7  1  0.34404315  0.07623938  0.73630703  1
  Pb  Pb8  1  0.86571204  0.86571203  0.49999997  1
  Pb  Pb9  1  0.57623927  0.15595678  0.48630693  1
  Pb  Pb10  1  0.15595680  0.57623930  0.51369301  1
  Pb  Pb11  1  0.63428791  0.36571214  0.75000001  1
  O  O0  1  0.87923124  0.17680326  0.06527026  1
  O  O1  1  0.41298871  0.13196075  0.36866122  1
  O  O2  1  0.63196058  0.08701135  0.11866120  1
  O  O3  1  0.17308767  0.62720116  0.13196115  1
  O  O4  1  0.38570710  0.09609644  0.93356636  1
  O  O5  1  0.37923127  0.32319677  0.68472966  1
  O  O6  1  0.41682014  0.66373462  0.87270469  1
  O  O7  1  0.12076876  0.82319674  0.56527026  1
  O  O8  1  0.71383862  0.45403307  0.49663707  1
  O  O9  1  0.67680388  0.62076949  0.81527081  1
  O  O10  1  0.14877616  0.92610800  0.12042868  1
  O  O11  1  0.82691233  0.37279884  0.63196115  1
  O  O12  1  0.16373456  0.08317982  0.62270465  1
  O  O13  1  0.54596705  0.28616128  0.00336283  1
  O  O14  1  0.67308778  0.87279888  0.61803883  1
  O  O15  1  0.82319679  0.12076868  0.43472966  1
  O  O16  1  0.61429290  0.90390356  0.43356636  1
  O  O17  1  0.35122376  0.42610774  0.12957131  1
  O  O18  1  0.57389233  0.64877625  0.37042872  1
  O  O19  1  0.17680321  0.87923132  0.93472966  1
  O  O20  1  0.04596732  0.21383801  0.74663705  1
  O  O21  1  0.08701147  0.63196067  0.88133881  1
  O  O22  1  0.90390353  0.61429296  0.56643361  1
  O  O23  1  0.07389197  0.85122376  0.37957134  1
  O  O24  1  0.95403268  0.78616199  0.24663705  1
  O  O25  1  0.78616195  0.95403259  0.75336296  1
  O  O26  1  0.58701129  0.86803925  0.86866122  1
  O  O27  1  0.40390319  0.88570711  0.18356687  1
  O  O28  1  0.98579637  0.73005031  0.01255462  1
  O  O29  1  0.28616138  0.54596693  0.99663707  1
  O  O30  1  0.08317984  0.16373465  0.37729532  1
  O  O31  1  0.58317986  0.33626538  0.37270469  1
  O  O32  1  0.88570717  0.40390314  0.81643316  1
  O  O33  1  0.86803918  0.58701135  0.13133876  1
  O  O34  1  0.66373460  0.41682024  0.12729527  1
  O  O35  1  0.36803942  0.91298865  0.61866120  1
  O  O36  1  0.33626540  0.58317976  0.62729527  1
  O  O37  1  0.12720126  0.32691225  0.88196110  1
  O  O38  1  0.62076873  0.67680323  0.18472966  1
  O  O39  1  0.32319612  0.37923051  0.31527081  1
  O  O40  1  0.48579652  0.76994986  0.73744532  1
  O  O41  1  0.42610767  0.35122375  0.87042872  1
  O  O42  1  0.87279874  0.67308775  0.38196110  1
  O  O43  1  0.62720125  0.17308776  0.86803882  1
  O  O44  1  0.76994978  0.48579648  0.26255473  1
  O  O45  1  0.45403295  0.71383872  0.50336283  1
  O  O46  1  0.73005009  0.98579642  0.98744528  1
  O  O47  1  0.92610803  0.14877624  0.87957134  1
  O  O48  1  0.32691222  0.12720112  0.11803883  1
  O  O49  1  0.91682016  0.83626535  0.87729532  1
  O  O50  1  0.85122384  0.07389200  0.62042868  1
  O  O51  1  0.64877624  0.57389226  0.62957131  1
  O  O52  1  0.59609681  0.11429289  0.68356687  1
  O  O53  1  0.11429283  0.59609686  0.31643316  1
  O  O54  1  0.23005022  0.51420352  0.76255473  1
  O  O55  1  0.13196082  0.41298865  0.63133876  1
  O  O56  1  0.83626544  0.91682018  0.12270465  1
  O  O57  1  0.91298853  0.36803933  0.38133881  1
  O  O58  1  0.21383805  0.04596741  0.25336296  1
  O  O59  1  0.51420348  0.23005014  0.23744532  1
  O  O60  1  0.26994991  0.01420358  0.48744528  1
  O  O61  1  0.09609647  0.38570704  0.06643361  1
  O  O62  1  0.01420363  0.26994969  0.51255462  1
  O  O63  1  0.37279875  0.82691224  0.36803882  1
loop_
_geom_bond_atom_site_label_1
_geom_bond_atom_site_label_2
_geom_bond_distance
_geom_bond_site_symmetry_2
Cr0 O54 1.954583 1_555
Cr0 O41 1.976991 1_555
Cr0 O21 1.983473 1_555
Cr0 O37 1.991797 1_555
Cr0 O6 1.999184 1_555
Cr0 O29 2.005475 1_555
Cr1 O28 1.954583 1_555
Cr1 O10 1.976993 1_655
Cr1 O33 1.983474 1_555
Cr1 O3 1.991798 1_655
Cr1 O56 1.999184 1_555
Cr1 O24 2.005478 1_555
Cr2 O44 1.954583 1_555
Cr2 O18 1.976991 1_555
Cr2 O57 1.983473 1_555
Cr2 O42 1.991797 1_555
Cr2 O31 1.999184 1_555
Cr2 O8 2.005475 1_555
Cr3 O40 1.954584 1_555
Cr3 O51 1.976991 1_555
Cr3 O35 1.983474 1_555
Cr3 O14 1.991798 1_555
Cr3 O36 1.999185 1_555
Cr3 O45 2.005477 1_555
Cr4 O59 1.954584 1_555
Cr4 O17 1.976991 1_555
Cr4 O2 1.983474 1_555
Cr4 O48 1.991798 1_555
Cr4 O34 1.999185 1_555
Cr4 O13 2.005477 1_555
Cr5 O62 1.954583 1_555
Cr5 O50 1.976993 1_455
Cr5 O55 1.983474 1_555
Cr5 O11 1.991798 1_455
Cr5 O12 1.999184 1_555
Cr5 O20 2.005478 1_555
Cr6 O60 1.954582 1_555
Cr6 O23 1.976993 1_545
Cr6 O1 1.983474 1_555
Cr6 O63 1.991798 1_545
Cr6 O30 1.999185 1_555
Cr6 O58 2.005478 1_555
Cr7 O46 1.954582 1_555
Cr7 O47 1.976993 1_565
Cr7 O26 1.983474 1_555
Cr7 O43 1.991798 1_565
Cr7 O49 1.999185 1_555
Cr7 O25 2.005478 1_555
O0 P2 1.523605 1_555
O0 Pb3 2.395362 1_555
O0 Pb1 2.559384 1_654
O1 P3 1.547771 1_555
O1 Pb9 2.448368 1_555
O2 P2 1.547772 1_555
O2 Pb0 2.448371 1_545
O3 P4 1.552053 1_555
O3 Pb4 2.611274 1_555
O4 P6 1.531644 1_555
O4 Pb5 2.447977 1_545
O4 Pb1 2.533031 1_555
O5 P0 1.523607 1_555
O5 Pb7 2.395362 1_555
O5 Pb11 2.559384 1_555
O6 P11 1.547416 1_555
O6 Pb5 2.483263 1_555
O7 P8 1.523605 1_555
O7 Pb10 2.395362 1_555
O7 Pb8 2.559384 1_455
O8 P15 1.529390 1_555
O9 P11 1.523607 1_555
O9 Pb6 2.395358 1_555
O9 Pb11 2.559394 1_555
O10 P12 1.544625 1_555
O10 Pb1 2.736763 1_564
O11 P15 1.552053 1_555
O11 Pb11 2.611274 1_555
O12 P8 1.547416 1_545
O12 Pb7 2.483264 1_555
O13 P6 1.529388 1_554
O14 P7 1.552052 1_565
O14 Pb8 2.611273 1_555
O15 P13 1.523605 1_555
O15 Pb9 2.395362 1_555
O15 Pb8 2.559384 1_545
O16 P9 1.531644 1_555
O16 Pb9 2.447977 1_565
O16 Pb8 2.533031 1_555
O17 P4 1.544625 1_555
O17 Pb4 2.736764 1_555
O18 P9 1.544626 1_555
O18 Pb4 2.736764 1_555
O19 P10 1.523605 1_555
O19 Pb5 2.395362 1_555
O19 Pb1 2.559384 1_565
O20 P14 1.529390 1_455
O21 P10 1.547772 1_555
O21 Pb6 2.448372 1_455
O22 P15 1.531645 1_555
O22 Pb10 2.447977 1_655
O22 Pb8 2.533031 1_555
O23 P1 1.544625 1_555
O23 Pb8 2.736761 1_455
O24 P1 1.529390 1_655
O25 P7 1.529391 1_565
O26 P11 1.547771 1_555
O26 Pb5 2.448368 1_555
O27 P12 1.531645 1_555
O27 Pb0 2.447977 1_555
O27 Pb4 2.533028 1_555
O28 P10 1.517610 1_654
O29 P4 1.529390 1_556
O30 P13 1.547416 1_455
O30 Pb2 2.483264 1_555
O31 P3 1.547416 1_555
O31 Pb9 2.483263 1_555
O32 P14 1.531644 1_555
O32 Pb6 2.447979 1_555
O32 Pb11 2.533028 1_555
O33 P5 1.547770 1_555
O33 Pb3 2.448369 1_555
O34 P5 1.547415 1_555
O34 Pb3 2.483263 1_555
O35 P8 1.547772 1_555
O35 Pb7 2.448371 1_565
O36 P0 1.547415 1_555
O36 Pb10 2.483263 1_555
O37 P14 1.552053 1_455
O37 Pb1 2.611274 1_555
O38 P5 1.523607 1_555
O38 Pb0 2.395362 1_555
O38 Pb4 2.559384 1_555
O39 P3 1.523607 1_555
O39 Pb2 2.395358 1_555
O39 Pb4 2.559394 1_555
O40 P11 1.517610 1_555
O41 P6 1.544626 1_555
O41 Pb11 2.736764 1_555
O42 P1 1.552053 1_655
O42 Pb8 2.611274 1_555
O43 P6 1.552053 1_555
O43 Pb11 2.611274 1_555
O44 P5 1.517611 1_555
O45 P9 1.529388 1_555
O46 P2 1.517612 1_566
O47 P14 1.544625 1_555
O47 Pb1 2.736761 1_655
O48 P12 1.552052 1_545
O48 Pb1 2.611273 1_554
O49 P10 1.547416 1_655
O49 Pb6 2.483264 1_555
O50 P7 1.544625 1_555
O50 Pb8 2.736763 1_545
O51 P15 1.544625 1_555
O51 Pb11 2.736764 1_555
O52 P7 1.531645 1_555
O52 Pb7 2.447977 1_555
O52 Pb11 2.533028 1_555
O53 P1 1.531644 1_555
O53 Pb2 2.447979 1_555
O53 Pb4 2.533028 1_555
O54 P0 1.517611 1_555
O55 P0 1.547770 1_555
O55 Pb10 2.448369 1_555
O56 P2 1.547416 1_565
O56 Pb0 2.483264 1_555
O57 P13 1.547772 1_555
O57 Pb2 2.448372 1_655
O58 P12 1.529391 1_545
O59 P3 1.517610 1_555
O60 P8 1.517612 1_545
O61 P4 1.531645 1_555
O61 Pb3 2.447977 1_455
O61 Pb1 2.533031 1_554
O62 P13 1.517610 1_455
O63 P9 1.552053 1_555
O63 Pb4 2.611274 1_555
