# generated using pymatgen
data_Ba5Nb5O14
_symmetry_space_group_name_H-M   'P 1'
_cell_length_a   4.14074300
_cell_length_b   9.29845600
_cell_length_c   9.31474925
_cell_angle_alpha   89.86659523
_cell_angle_beta   90.00000000
_cell_angle_gamma   90.00000000
_symmetry_Int_Tables_number   1
_chemical_formula_structural   Ba5Nb5O14
_chemical_formula_sum   'Ba5 Nb5 O14'
_cell_volume   358.64031537
_cell_formula_units_Z   1
loop_
 _symmetry_equiv_pos_site_id
 _symmetry_equiv_pos_as_xyz
  1  'x, y, z'
loop_
 _atom_site_type_symbol
 _atom_site_label
 _atom_site_symmetry_multiplicity
 _atom_site_fract_x
 _atom_site_fract_y
 _atom_site_fract_z
 _atom_site_occupancy
  Ba  Ba0  1  0.50000000  0.90070000  0.29944900  1
  Ba  Ba1  1  0.50000000  0.09930000  0.70055100  1
  Ba  Ba2  1  0.50000000  0.50000000  0.50000000  1
  Ba  Ba3  1  0.50000000  0.69917300  0.90030600  1
  Ba  Ba4  1  0.50000000  0.30082700  0.09969400  1
  Nb  Nb0  1  0.00000000  0.80045200  0.60014900  1
  Nb  Nb1  1  0.00000000  0.60076800  0.20152800  1
  Nb  Nb2  1  0.00000000  0.00000000  0.00000000  1
  Nb  Nb3  1  0.00000000  0.19954800  0.39985100  1
  Nb  Nb4  1  0.00000000  0.39923200  0.79847200  1
  O  O0  1  0.50000000  0.59778100  0.19585300  1
  O  O1  1  0.50000000  0.80003200  0.60026600  1
  O  O2  1  0.50000000  0.00000000  0.00000000  1
  O  O3  1  0.50000000  0.40221900  0.80414700  1
  O  O4  1  0.50000000  0.19996800  0.39973400  1
  O  O5  1  0.00000000  0.59989500  0.70314300  1
  O  O6  1  0.00000000  0.69956800  0.40230500  1
  O  O7  1  0.00000000  0.79749500  0.09792000  1
  O  O8  1  0.00000000  0.09633100  0.20089300  1
  O  O9  1  0.00000000  0.90366900  0.79910700  1
  O  O10  1  0.00000000  0.00000000  0.50000000  1
  O  O11  1  0.00000000  0.20250500  0.90208000  1
  O  O12  1  0.00000000  0.40010500  0.29685700  1
  O  O13  1  0.00000000  0.30043200  0.59769500  1
loop_
_geom_bond_atom_site_label_1
_geom_bond_atom_site_label_2
_geom_bond_distance
_geom_bond_site_symmetry_2
Ba0 O8 2.903521 1_565
Ba0 O8 2.903521 1_665
Ba0 O2 2.936104 1_565
Ba0 O4 2.937395 1_565
Ba0 O10 2.938835 1_565
Ba0 O10 2.938835 1_665
Ba0 O6 2.948511 1_555
Ba0 O6 2.948511 1_655
Ba0 O1 2.952184 1_555
Ba0 O7 2.956281 1_655
Ba0 O7 2.956281 1_555
Ba0 O0 2.979514 1_555
Ba1 O9 2.903521 1_545
Ba1 O9 2.903521 1_645
Ba1 O2 2.936104 1_556
Ba1 O1 2.937395 1_545
Ba1 O10 2.938835 1_655
Ba1 O10 2.938835 1_555
Ba1 O13 2.948511 1_655
Ba1 O13 2.948511 1_555
Ba1 O4 2.952184 1_555
Ba1 O11 2.956281 1_655
Ba1 O11 2.956281 1_555
Ba1 O3 2.979514 1_555
Ba2 O13 2.924074 1_655
Ba2 O13 2.924074 1_555
Ba2 O6 2.924074 1_655
Ba2 O6 2.924074 1_555
Ba2 O1 2.944075 1_555
Ba2 O4 2.944075 1_555
Ba2 O5 2.956001 1_555
Ba2 O5 2.956001 1_655
Ba2 O12 2.956001 1_655
Ba2 O12 2.956001 1_555
Ba2 O3 2.973359 1_555
Ba2 O0 2.973359 1_555
Ba3 O3 2.904839 1_555
Ba3 O0 2.907830 1_556
Ba3 O7 2.918627 1_556
Ba3 O7 2.918627 1_656
Ba3 O5 2.918788 1_655
Ba3 O5 2.918788 1_555
Ba3 O1 2.945881 1_555
Ba3 O2 2.949393 1_566
Ba3 O9 2.963504 1_655
Ba3 O9 2.963504 1_555
Ba4 O0 2.904839 1_555
Ba4 O3 2.907830 1_554
Ba4 O11 2.918627 1_654
Ba4 O11 2.918627 1_554
Ba4 O12 2.918788 1_555
Ba4 O12 2.918788 1_655
Ba4 O4 2.945881 1_555
Ba4 O2 2.949393 1_555
Ba4 O8 2.963504 1_555
Ba4 O8 2.963504 1_655
Nb0 O6 2.069825 1_555
Nb0 O1 2.070375 1_455
Nb0 O1 2.070375 1_555
Nb0 O10 2.074852 1_565
Nb0 O9 2.089003 1_555
Nb0 O5 2.095182 1_555
Nb1 O12 2.064506 1_555
Nb1 O7 2.066240 1_555
Nb1 O0 2.071234 1_455
Nb1 O0 2.071234 1_555
Nb1 O6 2.085567 1_555
Nb2 O2 2.070371 1_455
Nb2 O2 2.070371 1_555
Nb2 O8 2.076483 1_555
Nb2 O9 2.076483 1_544
Nb2 O11 2.090349 1_554
Nb2 O7 2.090349 1_545
Nb3 O13 2.069825 1_555
Nb3 O4 2.070375 1_455
Nb3 O4 2.070375 1_555
Nb3 O10 2.074852 1_555
Nb3 O8 2.089003 1_555
Nb3 O12 2.095182 1_555
Nb4 O5 2.064506 1_555
Nb4 O11 2.066240 1_555
Nb4 O3 2.071234 1_555
Nb4 O3 2.071234 1_455
Nb4 O13 2.085567 1_555
