# generated using pymatgen
data_Li2FeCo3O8
_symmetry_space_group_name_H-M   'P 1'
_cell_length_a   5.64933644
_cell_length_b   5.64933644
_cell_length_c   9.08872400
_cell_angle_alpha   90.00000000
_cell_angle_beta   90.00000000
_cell_angle_gamma   120.00000517
_symmetry_Int_Tables_number   1
_chemical_formula_structural   Li2FeCo3O8
_chemical_formula_sum   'Li4 Fe2 Co6 O16'
_cell_volume   251.20507175
_cell_formula_units_Z   2
loop_
 _symmetry_equiv_pos_site_id
 _symmetry_equiv_pos_as_xyz
  1  'x, y, z'
loop_
 _atom_site_type_symbol
 _atom_site_label
 _atom_site_symmetry_multiplicity
 _atom_site_fract_x
 _atom_site_fract_y
 _atom_site_fract_z
 _atom_site_occupancy
  Li  Li0  1  0.33333300  0.66666700  0.89422600  1
  Li  Li1  1  0.00000000  0.00000000  0.99788000  1
  Li  Li2  1  0.00000000  0.00000000  0.49788000  1
  Li  Li3  1  0.66666700  0.33333300  0.39422600  1
  Fe  Fe0  1  0.33333300  0.66666700  0.49007400  1
  Fe  Fe1  1  0.66666700  0.33333300  0.99007400  1
  Co  Co0  1  0.17086400  0.82913600  0.21265700  1
  Co  Co1  1  0.17086400  0.34172800  0.21265700  1
  Co  Co2  1  0.65827200  0.82913600  0.21265700  1
  Co  Co3  1  0.34172800  0.17086400  0.71265700  1
  Co  Co4  1  0.82913600  0.65827200  0.71265700  1
  Co  Co5  1  0.82913600  0.17086400  0.71265700  1
  O  O0  1  0.16786100  0.83213900  0.59934100  1
  O  O1  1  0.04390900  0.52195400  0.34110900  1
  O  O2  1  0.33333300  0.66666700  0.10722900  1
  O  O3  1  0.00000000  0.00000000  0.30551500  1
  O  O4  1  0.00000000  0.00000000  0.80551500  1
  O  O5  1  0.16786100  0.33572100  0.59934100  1
  O  O6  1  0.47804600  0.95609100  0.34110900  1
  O  O7  1  0.47804600  0.52195400  0.34110900  1
  O  O8  1  0.33572100  0.16786100  0.09934100  1
  O  O9  1  0.66427900  0.83213900  0.59934100  1
  O  O10  1  0.52195400  0.47804600  0.84110900  1
  O  O11  1  0.52195400  0.04390900  0.84110900  1
  O  O12  1  0.66666700  0.33333300  0.60722900  1
  O  O13  1  0.83213900  0.66427900  0.09934100  1
  O  O14  1  0.95609100  0.47804600  0.84110900  1
  O  O15  1  0.83213900  0.16786100  0.09934100  1
loop_
_geom_bond_atom_site_label_1
_geom_bond_atom_site_label_2
_geom_bond_distance
_geom_bond_site_symmetry_2
Li0 O11 1.907739 1_565
Li0 O14 1.907739 1_455
Li0 O10 1.907739 1_555
Li0 O2 1.935925 1_556
Li1 O4 1.748352 1_555
Li1 O8 1.883662 1_556
Li1 O13 1.883662 1_446
Li1 O15 1.883667 1_456
Li2 O3 1.748352 1_555
Li2 O5 1.883662 1_555
Li2 O9 1.883662 1_445
Li2 O0 1.883667 1_545
Li3 O1 1.907739 1_655
Li3 O6 1.907739 1_545
Li3 O7 1.907739 1_555
Li3 O12 1.935925 1_555
Fe0 O0 1.899430 1_555
Fe0 O9 1.899439 1_555
Fe0 O5 1.899439 1_555
Fe0 O6 1.959107 1_555
Fe0 O1 1.959107 1_555
Fe0 O7 1.959114 1_555
Fe1 O15 1.899430 1_556
Fe1 O13 1.899439 1_556
Fe1 O8 1.899439 1_556
Fe1 O11 1.959107 1_555
Fe1 O14 1.959107 1_555
Fe1 O10 1.959114 1_555
Co0 O2 1.856195 1_555
Co0 O3 1.872832 1_565
Co0 O1 1.908995 1_555
Co0 O6 1.908995 1_555
Co0 O8 1.951321 1_565
Co0 O13 1.951321 1_455
Co1 O2 1.856199 1_555
Co1 O3 1.872831 1_555
Co1 O1 1.908991 1_555
Co1 O7 1.908994 1_555
Co1 O8 1.951317 1_555
Co1 O15 1.951321 1_455
Co2 O2 1.856199 1_555
Co2 O3 1.872831 1_665
Co2 O6 1.908991 1_555
Co2 O7 1.908994 1_555
Co2 O13 1.951317 1_555
Co2 O15 1.951321 1_565
Co3 O12 1.856199 1_555
Co3 O4 1.872831 1_555
Co3 O11 1.908991 1_555
Co3 O10 1.908994 1_555
Co3 O5 1.951317 1_555
Co3 O0 1.951321 1_545
Co4 O12 1.856199 1_555
Co4 O4 1.872831 1_665
Co4 O14 1.908991 1_555
Co4 O10 1.908994 1_555
Co4 O9 1.951317 1_555
Co4 O0 1.951321 1_655
Co5 O12 1.856195 1_555
Co5 O4 1.872832 1_655
Co5 O11 1.908995 1_555
Co5 O14 1.908995 1_555
Co5 O5 1.951321 1_655
Co5 O9 1.951321 1_545
