# generated using pymatgen
data_Li6Mn5Fe(BO3)6
_symmetry_space_group_name_H-M   'P 1'
_cell_length_a   12.73968700
_cell_length_b   8.26485100
_cell_length_c   8.27513026
_cell_angle_alpha   60.05180296
_cell_angle_beta   90.00000000
_cell_angle_gamma   90.00000000
_symmetry_Int_Tables_number   1
_chemical_formula_structural   Li6Mn5Fe(BO3)6
_chemical_formula_sum   'Li12 Mn10 Fe2 B12 O36'
_cell_volume   754.96309495
_cell_formula_units_Z   2
loop_
 _symmetry_equiv_pos_site_id
 _symmetry_equiv_pos_as_xyz
  1  'x, y, z'
loop_
 _atom_site_type_symbol
 _atom_site_label
 _atom_site_symmetry_multiplicity
 _atom_site_fract_x
 _atom_site_fract_y
 _atom_site_fract_z
 _atom_site_occupancy
  Li  Li0  1  0.50000000  0.98242700  0.30133900  1
  Li  Li1  1  0.24983000  0.98208500  0.30145900  1
  Li  Li2  1  0.00000000  0.98178300  0.30200500  1
  Li  Li3  1  0.75017000  0.98208500  0.30145900  1
  Li  Li4  1  0.50000000  0.30138600  0.71586300  1
  Li  Li5  1  0.75019300  0.30104700  0.71623500  1
  Li  Li6  1  0.00000000  0.30159400  0.71605300  1
  Li  Li7  1  0.24980700  0.30104700  0.71623500  1
  Li  Li8  1  0.75016700  0.71552400  0.98342800  1
  Li  Li9  1  0.00000000  0.71503200  0.98382500  1
  Li  Li10  1  0.50000000  0.71609700  0.98287800  1
  Li  Li11  1  0.24983300  0.71552400  0.98342800  1
  Mn  Mn0  1  0.37507100  0.35934600  0.01196700  1
  Mn  Mn1  1  0.87495300  0.36019000  0.01183400  1
  Mn  Mn2  1  0.62492900  0.35934600  0.01196700  1
  Mn  Mn3  1  0.12504700  0.36019000  0.01183400  1
  Mn  Mn4  1  0.87500000  0.01195400  0.62821100  1
  Mn  Mn5  1  0.37496100  0.01173300  0.62890900  1
  Mn  Mn6  1  0.62503900  0.01173300  0.62890900  1
  Mn  Mn7  1  0.12500000  0.01195400  0.62821100  1
  Mn  Mn8  1  0.37380500  0.62886600  0.35918900  1
  Mn  Mn9  1  0.62619500  0.62886600  0.35918900  1
  Fe  Fe0  1  0.87565200  0.63266700  0.35940600  1
  Fe  Fe1  1  0.12434800  0.63266700  0.35940600  1
  B  B0  1  0.37495600  0.00015000  0.99990900  1
  B  B1  1  0.62504400  0.00015000  0.99990900  1
  B  B2  1  0.87514700  0.99783900  0.00045400  1
  B  B3  1  0.12485300  0.99783900  0.00045400  1
  B  B4  1  0.24875500  0.66658400  0.66559400  1
  B  B5  1  0.50000000  0.66662300  0.66652800  1
  B  B6  1  0.75124500  0.66658400  0.66559400  1
  B  B7  1  0.00000000  0.66710300  0.66451700  1
  B  B8  1  0.50000000  0.33352800  0.33335100  1
  B  B9  1  0.75073400  0.33433800  0.33356600  1
  B  B10  1  0.00000000  0.33560800  0.33416900  1
  B  B11  1  0.24926600  0.33433800  0.33356600  1
  O  O0  1  0.62511700  0.92250200  0.19330400  1
  O  O1  1  0.37488300  0.92250200  0.19330400  1
  O  O2  1  0.87554100  0.91666200  0.19486300  1
  O  O3  1  0.12445900  0.91666200  0.19486300  1
  O  O4  1  0.24681900  0.58052500  0.55783500  1
  O  O5  1  0.50000000  0.58046800  0.55904800  1
  O  O6  1  0.75318100  0.58052500  0.55783500  1
  O  O7  1  0.00000000  0.58188600  0.55607500  1
  O  O8  1  0.37493800  0.19374800  0.88414800  1
  O  O9  1  0.87504100  0.19142000  0.88743500  1
  O  O10  1  0.12495900  0.19142000  0.88743500  1
  O  O11  1  0.62506200  0.19374800  0.88414800  1
  O  O12  1  0.25012700  0.86008500  0.57984200  1
  O  O13  1  0.00000000  0.86058200  0.57975500  1
  O  O14  1  0.50000000  0.86024000  0.58036500  1
  O  O15  1  0.74987300  0.86008500  0.57984200  1
  O  O16  1  0.24997700  0.55922300  0.85899700  1
  O  O17  1  0.50000000  0.55953000  0.86000400  1
  O  O18  1  0.00000000  0.55892100  0.85799000  1
  O  O19  1  0.75002300  0.55922300  0.85899700  1
  O  O20  1  0.50000000  0.25061500  0.22234600  1
  O  O21  1  0.00000000  0.25329100  0.22208200  1
  O  O22  1  0.75011100  0.25158600  0.22219900  1
  O  O23  1  0.24988900  0.25158600  0.22219900  1
  O  O24  1  0.37489600  0.88428900  0.92212100  1
  O  O25  1  0.62510400  0.88428900  0.92212100  1
  O  O26  1  0.87507500  0.88383300  0.92106100  1
  O  O27  1  0.12492500  0.88383300  0.92106100  1
  O  O28  1  0.50000000  0.52726800  0.25075800  1
  O  O29  1  0.75145700  0.52779100  0.25210000  1
  O  O30  1  0.00000000  0.52885500  0.25385700  1
  O  O31  1  0.24854300  0.52779100  0.25210000  1
  O  O32  1  0.75023500  0.22230000  0.52718200  1
  O  O33  1  0.50000000  0.22240100  0.52695200  1
  O  O34  1  0.00000000  0.22218300  0.52774000  1
  O  O35  1  0.24976500  0.22230000  0.52718200  1
loop_
_geom_bond_atom_site_label_1
_geom_bond_atom_site_label_2
_geom_bond_distance
_geom_bond_site_symmetry_2
Li0 O20 1.973243 1_565
Li0 O14 2.005767 1_555
Li0 O1 2.006813 1_555
Li0 O0 2.006813 1_555
Li1 O23 1.983131 1_565
Li1 O12 2.001093 1_555
Li1 O1 2.005405 1_555
Li1 O3 2.024273 1_555
Li2 O13 1.996849 1_555
Li2 O21 1.997762 1_565
Li2 O2 2.016490 1_455
Li2 O3 2.016490 1_555
Li3 O22 1.983131 1_565
Li3 O15 2.001093 1_555
Li3 O0 2.005405 1_555
Li3 O2 2.024273 1_555
Li4 O33 1.972013 1_555
Li4 O5 2.003930 1_555
Li4 O11 2.008039 1_555
Li4 O8 2.008039 1_555
Li5 O32 1.971710 1_555
Li5 O11 2.007014 1_555
Li5 O6 2.007989 1_555
Li5 O9 2.018947 1_555
Li6 O34 1.969835 1_555
Li6 O7 2.014222 1_555
Li6 O10 2.021229 1_555
Li6 O9 2.021229 1_455
Li7 O35 1.971710 1_555
Li7 O8 2.007014 1_555
Li7 O4 2.007989 1_555
Li7 O10 2.018947 1_555
Li8 O29 1.976487 1_556
Li8 O26 2.004191 1_555
Li8 O25 2.008698 1_555
Li8 O19 2.014218 1_555
Li9 O30 1.981897 1_556
Li9 O26 2.006373 1_455
Li9 O27 2.006373 1_555
Li9 O18 2.022481 1_555
Li10 O28 1.973684 1_556
Li10 O17 2.005493 1_555
Li10 O24 2.006853 1_555
Li10 O25 2.006853 1_555
Li11 O31 1.976487 1_556
Li11 O27 2.004191 1_555
Li11 O24 2.008698 1_555
Li11 O16 2.014218 1_555
Mn0 O8 2.106496 1_554
Mn0 O17 2.185051 1_554
Mn0 O16 2.187058 1_554
Mn0 O20 2.193030 1_555
Mn0 O23 2.194559 1_555
Mn1 O9 2.106888 1_554
Mn1 O19 2.182065 1_554
Mn1 O18 2.183708 1_654
Mn1 O22 2.192144 1_555
Mn1 O21 2.193328 1_655
Mn2 O11 2.106496 1_554
Mn2 O17 2.185051 1_554
Mn2 O19 2.187058 1_554
Mn2 O20 2.193030 1_555
Mn2 O22 2.194559 1_555
Mn3 O10 2.106888 1_554
Mn3 O16 2.182065 1_554
Mn3 O18 2.183708 1_554
Mn3 O23 2.192144 1_555
Mn3 O21 2.193328 1_555
Mn4 O26 2.105211 1_545
Mn4 O13 2.182373 1_645
Mn4 O15 2.185948 1_545
Mn4 O32 2.190095 1_555
Mn4 O34 2.191757 1_655
Mn5 O24 2.108319 1_545
Mn5 O14 2.183743 1_545
Mn5 O12 2.184732 1_545
Mn5 O33 2.194131 1_555
Mn5 O35 2.195105 1_555
Mn6 O25 2.108319 1_545
Mn6 O14 2.183743 1_545
Mn6 O15 2.184732 1_545
Mn6 O33 2.194131 1_555
Mn6 O32 2.195105 1_555
Mn7 O27 2.105211 1_545
Mn7 O13 2.182373 1_545
Mn7 O12 2.185948 1_545
Mn7 O35 2.190095 1_555
Mn7 O34 2.191757 1_555
Mn8 O1 2.109030 1_555
Mn8 O31 2.183769 1_555
Mn8 O5 2.195311 1_555
Mn8 O4 2.196178 1_555
Mn8 O28 2.201614 1_555
Mn9 O0 2.109030 1_555
Mn9 O29 2.183769 1_555
Mn9 O5 2.195311 1_555
Mn9 O6 2.196178 1_555
Mn9 O28 2.201614 1_555
Fe0 O2 2.042618 1_555
Fe0 O6 2.147045 1_555
Fe0 O7 2.156931 1_655
Fe0 O30 2.181009 1_655
Fe0 O29 2.193549 1_555
Fe1 O3 2.042618 1_555
Fe1 O4 2.147045 1_555
Fe1 O7 2.156931 1_555
Fe1 O30 2.181009 1_555
Fe1 O31 2.193549 1_555
B0 O24 1.395255 1_545
B0 O8 1.395520 1_555
B0 O1 1.395563 1_546
B1 O25 1.395255 1_545
B1 O11 1.395520 1_555
B1 O0 1.395563 1_546
B2 O26 1.391951 1_554
B2 O9 1.393001 1_564
B2 O2 1.400218 1_555
B3 O27 1.391951 1_554
B3 O10 1.393001 1_564
B3 O3 1.400218 1_555
B4 O12 1.388670 1_555
B4 O16 1.389640 1_555
B4 O4 1.391016 1_555
B5 O14 1.389205 1_555
B5 O5 1.389388 1_555
B5 O17 1.389917 1_555
B6 O15 1.388670 1_555
B6 O19 1.389640 1_555
B6 O6 1.391016 1_555
B7 O13 1.388944 1_555
B7 O7 1.390092 1_555
B7 O18 1.390481 1_555
B8 O28 1.392263 1_555
B8 O33 1.393223 1_555
B8 O20 1.393507 1_555
B9 O29 1.390948 1_555
B9 O32 1.394000 1_555
B9 O22 1.395149 1_555
B10 O30 1.390252 1_555
B10 O34 1.394767 1_555
B10 O21 1.397579 1_555
B11 O31 1.390948 1_555
B11 O35 1.394000 1_555
B11 O23 1.395149 1_555
