# generated using pymatgen
data_NaGa(H2N)4
_symmetry_space_group_name_H-M   'P 1'
_cell_length_a   6.37815000
_cell_length_b   7.72127800
_cell_length_c   17.02692074
_cell_angle_alpha   86.75066263
_cell_angle_beta   90.00000000
_cell_angle_gamma   90.00000000
_symmetry_Int_Tables_number   1
_chemical_formula_structural   NaGa(H2N)4
_chemical_formula_sum   'Na4 Ga4 H32 N16'
_cell_volume   837.18466858
_cell_formula_units_Z   4
loop_
 _symmetry_equiv_pos_site_id
 _symmetry_equiv_pos_as_xyz
  1  'x, y, z'
loop_
 _atom_site_type_symbol
 _atom_site_label
 _atom_site_symmetry_multiplicity
 _atom_site_fract_x
 _atom_site_fract_y
 _atom_site_fract_z
 _atom_site_occupancy
  Na  Na0  1  0.57203200  0.18039300  0.69415800  1
  Na  Na1  1  0.07203200  0.81960700  0.80584200  1
  Na  Na2  1  0.42796800  0.81960700  0.30584200  1
  Na  Na3  1  0.92796800  0.18039300  0.19415800  1
  Ga  Ga0  1  0.71958000  0.72662200  0.69049800  1
  Ga  Ga1  1  0.21958000  0.27337800  0.80950200  1
  Ga  Ga2  1  0.28042000  0.27337800  0.30950200  1
  Ga  Ga3  1  0.78042000  0.72662200  0.19049800  1
  H  H0  1  0.94122700  0.58990300  0.56766700  1
  H  H1  1  0.44122700  0.41009700  0.93233300  1
  H  H2  1  0.05877300  0.41009700  0.43233300  1
  H  H3  1  0.55877300  0.58990300  0.06766700  1
  H  H4  1  0.29871100  0.47298000  0.45311600  1
  H  H5  1  0.79871100  0.52702000  0.04688400  1
  H  H6  1  0.70128900  0.52702000  0.54688400  1
  H  H7  1  0.20128900  0.47298000  0.95311600  1
  H  H8  1  0.73912400  0.57345400  0.81369000  1
  H  H9  1  0.23912400  0.42654600  0.68631000  1
  H  H10  1  0.26087600  0.42654600  0.18631000  1
  H  H11  1  0.76087600  0.57345400  0.31369000  1
  H  H12  1  0.17415800  0.55850900  0.37312700  1
  H  H13  1  0.67415800  0.44149100  0.12687300  1
  H  H14  1  0.82584200  0.44149100  0.62687300  1
  H  H15  1  0.32584200  0.55850900  0.87312700  1
  H  H16  1  0.84363800  0.96599400  0.63268200  1
  H  H17  1  0.34363800  0.03400600  0.86731800  1
  H  H18  1  0.15636200  0.03400600  0.36731800  1
  H  H19  1  0.65636200  0.96599400  0.13268200  1
  H  H20  1  0.29023600  0.01999900  0.98299000  1
  H  H21  1  0.79023600  0.98000100  0.51701000  1
  H  H22  1  0.70976400  0.98000100  0.01701000  1
  H  H23  1  0.20976400  0.01999900  0.48299000  1
  H  H24  1  0.78808200  0.44877000  0.92830500  1
  H  H25  1  0.28808200  0.55123000  0.57169500  1
  H  H26  1  0.21191800  0.55123000  0.07169500  1
  H  H27  1  0.71191800  0.44877000  0.42830500  1
  H  H28  1  0.76632100  0.54471500  0.92480800  1
  H  H29  1  0.26632100  0.45528500  0.57519200  1
  H  H30  1  0.23367900  0.45528500  0.07519200  1
  H  H31  1  0.73367900  0.54471500  0.42480800  1
  N  N0  1  0.80086100  0.55129100  0.59194500  1
  N  N1  1  0.30086100  0.44870900  0.90805500  1
  N  N2  1  0.19913900  0.44870900  0.40805500  1
  N  N3  1  0.69913900  0.55129100  0.09194500  1
  N  N4  1  0.91817200  0.01674600  0.48031400  1
  N  N5  1  0.41817200  0.98325400  0.01968600  1
  N  N6  1  0.08182800  0.98325400  0.51968600  1
  N  N7  1  0.58182800  0.01674600  0.98031400  1
  N  N8  1  0.68448600  0.93586300  0.63804000  1
  N  N9  1  0.18448600  0.06413700  0.86196000  1
  N  N10  1  0.31551400  0.06413700  0.36196000  1
  N  N11  1  0.81551400  0.93586300  0.13804000  1
  N  N12  1  0.84400500  0.59564100  0.76854600  1
  N  N13  1  0.34400500  0.40435900  0.73145400  1
  N  N14  1  0.15599500  0.40435900  0.23145400  1
  N  N15  1  0.65599500  0.59564100  0.26854600  1
loop_
_geom_bond_atom_site_label_1
_geom_bond_atom_site_label_2
_geom_bond_distance
_geom_bond_site_symmetry_2
Ga0 N12 1.807284 1_555
Ga0 N8 1.815077 1_555
Ga0 N0 2.274835 1_555
Ga1 N13 1.807284 1_555
Ga1 N9 1.815077 1_555
Ga1 N1 2.274835 1_555
Ga2 N14 1.807284 1_555
Ga2 N10 1.815077 1_555
Ga2 N2 2.274835 1_555
Ga3 N15 1.807284 1_555
Ga3 N11 1.815077 1_555
Ga3 N3 2.274835 1_555
H0 N0 1.023383 1_555
H1 N1 1.023383 1_555
H2 N2 1.023383 1_555
H3 N3 1.023383 1_555
H4 N2 1.021482 1_555
H5 N3 1.021482 1_555
H6 N0 1.021482 1_555
H7 N1 1.021482 1_555
H8 N12 1.026038 1_555
H9 N13 1.026038 1_555
H10 N14 1.026038 1_555
H11 N15 1.026038 1_555
H12 N2 1.020135 1_555
H13 N3 1.020135 1_555
H14 N0 1.020135 1_555
H15 N1 1.020135 1_555
H16 N8 1.044252 1_555
H17 N9 1.044252 1_555
H18 N10 1.044252 1_555
H19 N11 1.044252 1_555
H20 N5 1.056716 1_546
H21 N4 1.056716 1_565
H22 N7 1.056716 1_564
H23 N6 1.056716 1_545
H24 H28 0.752742 1_555
H25 H29 0.752742 1_555
H26 H30 0.752742 1_555
H27 H31 0.752742 1_555
N8 Na0 2.279657 1_565
N9 Na1 2.279657 1_545
N10 Na2 2.279657 1_545
N11 Na3 2.279657 1_565
N12 Na1 2.373501 1_655
N13 Na0 2.373501 1_555
N14 Na3 2.373501 1_455
N15 Na2 2.373501 1_555
