# generated using pymatgen
data_Li3SiNiO5
_symmetry_space_group_name_H-M   'P 1'
_cell_length_a   5.01652879
_cell_length_b   5.76481707
_cell_length_c   12.16436246
_cell_angle_alpha   86.06226507
_cell_angle_beta   81.52807200
_cell_angle_gamma   108.10953688
_symmetry_Int_Tables_number   1
_chemical_formula_structural   Li3SiNiO5
_chemical_formula_sum   'Li12 Si4 Ni4 O20'
_cell_volume   328.25052962
_cell_formula_units_Z   4
loop_
 _symmetry_equiv_pos_site_id
 _symmetry_equiv_pos_as_xyz
  1  'x, y, z'
loop_
 _atom_site_type_symbol
 _atom_site_label
 _atom_site_symmetry_multiplicity
 _atom_site_fract_x
 _atom_site_fract_y
 _atom_site_fract_z
 _atom_site_occupancy
  Li  Li0  1  0.99999600  0.90000400  0.39999900  1
  Li  Li1  1  0.49999500  0.40000300  0.89999900  1
  Li  Li2  1  0.99999300  0.39999600  0.39999900  1
  Li  Li3  1  0.49999300  0.89999700  0.90000000  1
  Li  Li4  1  0.49501800  0.29888800  0.30030100  1
  Li  Li5  1  0.99501500  0.79888300  0.80029700  1
  Li  Li6  1  0.50496200  0.50111400  0.49969800  1
  Li  Li7  1  0.00496500  0.00112000  0.99970200  1
  Li  Li8  1  0.49644300  0.09789400  0.09762400  1
  Li  Li9  1  0.99645000  0.59789500  0.59761500  1
  Li  Li10  1  0.00355000  0.20211000  0.20238400  1
  Li  Li11  1  0.50355600  0.70211100  0.70237600  1
  Si  Si0  1  0.50035100  0.80156000  0.30106300  1
  Si  Si1  1  0.00036100  0.30156100  0.80105400  1
  Si  Si2  1  0.49967200  0.99843600  0.49893600  1
  Si  Si3  1  0.99966300  0.49843300  0.99894500  1
  Ni  Ni0  1  0.99988100  0.09869300  0.60042800  1
  Ni  Ni1  1  0.00011200  0.70128700  0.19957100  1
  Ni  Ni2  1  0.49988200  0.59870700  0.10043500  1
  Ni  Ni3  1  0.50010800  0.20127600  0.69956400  1
  O  O0  1  0.77931600  0.41707800  0.13680200  1
  O  O1  1  0.27932800  0.91708900  0.63679600  1
  O  O2  1  0.72067300  0.88291200  0.16320500  1
  O  O3  1  0.22068400  0.38292300  0.66319800  1
  O  O4  1  0.29742700  0.72483600  0.44316900  1
  O  O5  1  0.79743200  0.22484100  0.94316400  1
  O  O6  1  0.70255100  0.07516000  0.35683800  1
  O  O7  1  0.20254500  0.57515500  0.85684100  1
  O  O8  1  0.26695400  0.16968600  0.46335600  1
  O  O9  1  0.76695300  0.66967400  0.96336400  1
  O  O10  1  0.73306000  0.63034000  0.33664800  1
  O  O11  1  0.23306200  0.13035100  0.83663800  1
  O  O12  1  0.27580100  0.52814900  0.25198800  1
  O  O13  1  0.77579500  0.02812600  0.75199000  1
  O  O14  1  0.22422000  0.77186400  0.04801200  1
  O  O15  1  0.72421400  0.27184200  0.54801300  1
  O  O16  1  0.26875500  0.96390800  0.25345300  1
  O  O17  1  0.76875800  0.46388600  0.75345200  1
  O  O18  1  0.23125100  0.33611900  0.04654100  1
  O  O19  1  0.73125300  0.83609600  0.54654000  1
loop_
_geom_bond_atom_site_label_1
_geom_bond_atom_site_label_2
_geom_bond_distance
_geom_bond_site_symmetry_2
Li0 O10 1.994533 1_555
Li0 O8 1.994688 1_665
Li0 O19 2.005934 1_555
Li0 O16 2.006022 1_655
Li0 O6 2.148579 1_565
Li0 O4 2.148599 1_655
Li1 O11 1.994550 1_555
Li1 O9 1.994703 1_555
Li1 O18 2.005957 1_556
Li1 O17 2.006051 1_555
Li1 O7 2.148575 1_555
Li1 O5 2.148583 1_555
Li2 O15 2.037033 1_555
Li2 O12 2.037068 1_655
Li2 O6 2.153510 1_555
Li2 O4 2.153551 1_655
Li2 O8 2.327918 1_655
Li2 O10 2.327921 1_555
Li3 O14 2.036990 1_556
Li3 O13 2.037033 1_565
Li3 O7 2.153537 1_555
Li3 O5 2.153549 1_565
Li3 O9 2.328001 1_555
Li3 O11 2.328005 1_565
Li4 O10 2.031156 1_555
Li4 O6 2.035733 1_555
Li4 O12 2.070942 1_555
Li4 O16 2.078785 1_545
Li4 O8 2.096790 1_555
Li4 O0 2.197233 1_555
Li5 O11 2.031208 1_665
Li5 O7 2.035753 1_655
Li5 O13 2.070849 1_565
Li5 O17 2.078837 1_555
Li5 O9 2.096914 1_555
Li5 O1 2.197288 1_655
Li6 O8 2.030971 1_555
Li6 O4 2.035678 1_555
Li6 O15 2.071135 1_555
Li6 O19 2.078806 1_555
Li6 O10 2.096806 1_555
Li6 O3 2.197201 1_555
Li7 O9 2.031039 1_445
Li7 O5 2.035707 1_455
Li7 O14 2.071055 1_546
Li7 O18 2.078859 1_556
Li7 O11 2.096951 1_555
Li7 O2 2.197264 1_446
Li8 O16 2.026544 1_545
Li8 O0 2.079185 1_555
Li8 O2 2.105450 1_545
Li8 O14 2.136503 1_545
Li8 O5 2.152673 1_554
Li8 O18 2.303066 1_555
Li9 O17 2.026649 1_555
Li9 O1 2.079250 1_655
Li9 O3 2.105433 1_655
Li9 O15 2.136569 1_555
Li9 O4 2.152516 1_655
Li9 O19 2.302951 1_555
Li10 O18 2.026724 1_555
Li10 O2 2.079254 1_445
Li10 O0 2.105411 1_455
Li10 O12 2.136554 1_555
Li10 O6 2.152643 1_455
Li10 O16 2.302965 1_545
Li11 O19 2.026628 1_555
Li11 O3 2.079199 1_555
Li11 O1 2.105420 1_555
Li11 O13 2.136485 1_565
Li11 O7 2.152773 1_555
Li11 O17 2.303080 1_555
Ni0 O8 1.910465 1_655
Ni0 O19 1.914602 1_545
Ni0 O3 1.946144 1_655
Ni0 O13 1.957106 1_555
Ni0 O1 2.070853 1_645
Ni0 O15 2.084654 1_555
Ni1 O10 1.910475 1_455
Ni1 O16 1.914686 1_555
Ni1 O0 1.946041 1_455
Ni1 O14 1.957114 1_555
Ni1 O2 2.070896 1_455
Ni1 O12 2.084716 1_555
Ni2 O9 1.910461 1_554
Ni2 O18 1.914615 1_555
Ni2 O2 1.946022 1_555
Ni2 O12 1.957006 1_555
Ni2 O0 2.070894 1_555
Ni2 O14 2.084700 1_555
Ni3 O11 1.910440 1_555
Ni3 O17 1.914702 1_555
Ni3 O1 1.945917 1_545
Ni3 O15 1.957031 1_555
Ni3 O3 2.070920 1_555
Ni3 O13 2.084794 1_555
O0 Si3 1.810379 1_554
O1 Si2 1.810402 1_555
O2 Si0 1.810339 1_555
O3 Si1 1.810321 1_555
O4 Si0 1.821166 1_555
O4 Si2 1.825430 1_555
O5 Si1 1.821216 1_655
O5 Si3 1.825461 1_555
O6 Si2 1.821006 1_545
O6 Si0 1.825403 1_545
O7 Si3 1.821073 1_455
O7 Si1 1.825426 1_555
O8 Si2 1.825247 1_545
O9 Si3 1.825179 1_555
O10 Si0 1.825102 1_555
O11 Si1 1.825023 1_555
O12 Si0 1.825700 1_555
O13 Si1 1.825764 1_655
O14 Si3 1.825748 1_454
O15 Si2 1.825676 1_545
O16 Si0 1.833278 1_555
O17 Si1 1.833180 1_655
O18 Si3 1.833046 1_454
O19 Si2 1.833156 1_555
