# generated using pymatgen
data_NbFe3Ni2(PO4)6
_symmetry_space_group_name_H-M   'P 1'
_cell_length_a   8.52372739
_cell_length_b   8.52372739
_cell_length_c   8.52372725
_cell_angle_alpha   61.01512470
_cell_angle_beta   61.01512470
_cell_angle_gamma   61.01512520
_symmetry_Int_Tables_number   1
_chemical_formula_structural   NbFe3Ni2(PO4)6
_chemical_formula_sum   'Nb1 Fe3 Ni2 P6 O24'
_cell_volume   447.91046721
_cell_formula_units_Z   1
loop_
 _symmetry_equiv_pos_site_id
 _symmetry_equiv_pos_as_xyz
  1  'x, y, z'
loop_
 _atom_site_type_symbol
 _atom_site_label
 _atom_site_symmetry_multiplicity
 _atom_site_fract_x
 _atom_site_fract_y
 _atom_site_fract_z
 _atom_site_occupancy
  Nb  Nb0  1  0.85725000  0.85725000  0.85725000  1
  Fe  Fe0  1  0.14640500  0.14640500  0.14640500  1
  Fe  Fe1  1  0.35613800  0.35613800  0.35613800  1
  Fe  Fe2  1  0.64382900  0.64382900  0.64382900  1
  Ni  Ni0  1  0.00597900  0.00597900  0.00597900  1
  Ni  Ni1  1  0.50085300  0.50085300  0.50085300  1
  P  P0  1  0.44696600  0.74694500  0.04838700  1
  P  P1  1  0.74694500  0.04838700  0.44696600  1
  P  P2  1  0.04838700  0.44696600  0.74694500  1
  P  P3  1  0.95387900  0.54048900  0.25631000  1
  P  P4  1  0.25631000  0.95387900  0.54048900  1
  P  P5  1  0.54048900  0.25631000  0.95387900  1
  O  O0  1  0.50538700  0.31759100  0.11127600  1
  O  O1  1  0.11127600  0.50538700  0.31759100  1
  O  O2  1  0.25521000  0.90939200  0.06160600  1
  O  O3  1  0.31759100  0.11127600  0.50538700  1
  O  O4  1  0.61201000  0.81957600  0.99417000  1
  O  O5  1  0.44388600  0.59211200  0.24381000  1
  O  O6  1  0.90939200  0.06160600  0.25521000  1
  O  O7  1  0.59211200  0.24381000  0.44388600  1
  O  O8  1  0.99642400  0.39061500  0.18038900  1
  O  O9  1  0.24381000  0.44388600  0.59211200  1
  O  O10  1  0.93726600  0.74245000  0.09300200  1
  O  O11  1  0.18038900  0.99642400  0.39061500  1
  O  O12  1  0.81957600  0.99417000  0.61201000  1
  O  O13  1  0.06160600  0.25521000  0.90939200  1
  O  O14  1  0.75559400  0.55869700  0.41019000  1
  O  O15  1  0.99417000  0.61201000  0.81957600  1
  O  O16  1  0.41019000  0.75559400  0.55869700  1
  O  O17  1  0.09300200  0.93726600  0.74245000  1
  O  O18  1  0.55869700  0.41019000  0.75559400  1
  O  O19  1  0.39061500  0.18038900  0.99642400  1
  O  O20  1  0.68067000  0.89014100  0.49510500  1
  O  O21  1  0.74245000  0.09300200  0.93726600  1
  O  O22  1  0.89014100  0.49510500  0.68067000  1
  O  O23  1  0.49510500  0.68067000  0.89014100  1
loop_
_geom_bond_atom_site_label_1
_geom_bond_atom_site_label_2
_geom_bond_distance
_geom_bond_site_symmetry_2
Nb0 O12 1.938496 1_555
Nb0 O4 1.938496 1_555
Nb0 O15 1.938496 1_555
Nb0 O10 2.058275 1_556
Nb0 O17 2.058275 1_655
Nb0 O21 2.058275 1_565
Fe0 O11 1.922928 1_545
Fe0 O19 1.922928 1_554
Fe0 O8 1.922928 1_455
Fe0 O13 2.100858 1_554
Fe0 O6 2.100858 1_455
Fe0 O2 2.100858 1_545
Fe1 O0 1.941319 1_555
Fe1 O3 1.941319 1_555
Fe1 O1 1.941319 1_555
Fe1 O9 2.102220 1_555
Fe1 O5 2.102220 1_555
Fe1 O7 2.102220 1_555
Fe2 O23 1.946088 1_555
Fe2 O20 1.946088 1_555
Fe2 O22 1.946088 1_555
Fe2 O14 2.071707 1_555
Fe2 O18 2.071707 1_555
Fe2 O16 2.071707 1_555
Ni0 O6 2.078090 1_455
Ni0 O13 2.078090 1_554
Ni0 O2 2.078090 1_545
Ni0 O17 2.275539 1_544
Ni0 O10 2.275539 1_445
Ni0 O21 2.275539 1_454
Ni1 O18 2.144080 1_555
Ni1 O14 2.144080 1_555
Ni1 O16 2.144080 1_555
Ni1 O5 2.157421 1_555
Ni1 O9 2.157421 1_555
Ni1 O7 2.157421 1_555
O0 P5 1.516888 1_554
O1 P3 1.516888 1_455
O2 P0 1.542988 1_555
O3 P4 1.516888 1_545
O4 P0 1.585122 1_556
O5 P0 1.541995 1_555
O6 P1 1.542988 1_555
O7 P1 1.541995 1_555
O8 P3 1.518893 1_555
O9 P2 1.541995 1_555
O10 P3 1.597984 1_555
O11 P4 1.518893 1_555
O12 P1 1.585122 1_565
O13 P2 1.542988 1_555
O14 P3 1.547776 1_555
O15 P2 1.585122 1_655
O16 P4 1.547776 1_555
O17 P4 1.597984 1_555
O18 P5 1.547776 1_555
O19 P5 1.518893 1_555
O20 P1 1.511393 1_565
O21 P5 1.597984 1_555
O22 P2 1.511393 1_655
O23 P0 1.511393 1_556
