# generated using pymatgen
data_Li3Al2FeO6
_symmetry_space_group_name_H-M   'P 1'
_cell_length_a   5.11509004
_cell_length_b   8.65891400
_cell_length_c   9.62568941
_cell_angle_alpha   90.00000000
_cell_angle_beta   100.98650881
_cell_angle_gamma   90.00000000
_symmetry_Int_Tables_number   1
_chemical_formula_structural   Li3Al2FeO6
_chemical_formula_sum   'Li12 Al8 Fe4 O24'
_cell_volume   418.51882292
_cell_formula_units_Z   4
loop_
 _symmetry_equiv_pos_site_id
 _symmetry_equiv_pos_as_xyz
  1  'x, y, z'
loop_
 _atom_site_type_symbol
 _atom_site_label
 _atom_site_symmetry_multiplicity
 _atom_site_fract_x
 _atom_site_fract_y
 _atom_site_fract_z
 _atom_site_occupancy
  Li  Li0  1  0.00000000  0.50000000  0.50000000  1
  Li  Li1  1  0.25000000  0.00000000  0.75000000  1
  Li  Li2  1  0.50000000  0.50000000  0.00000000  1
  Li  Li3  1  0.75000000  0.00000000  0.25000000  1
  Li  Li4  1  0.00000000  0.16729400  0.50000000  1
  Li  Li5  1  0.25000000  0.66729400  0.75000000  1
  Li  Li6  1  0.50000000  0.16729400  0.00000000  1
  Li  Li7  1  0.75000000  0.66729400  0.25000000  1
  Li  Li8  1  0.00000000  0.83270600  0.50000000  1
  Li  Li9  1  0.25000000  0.33270600  0.75000000  1
  Li  Li10  1  0.50000000  0.83270600  0.00000000  1
  Li  Li11  1  0.75000000  0.33270600  0.25000000  1
  Al  Al0  1  0.50000000  0.33325300  0.50000000  1
  Al  Al1  1  0.75000000  0.83325300  0.75000000  1
  Al  Al2  1  0.00000000  0.33325300  0.00000000  1
  Al  Al3  1  0.25000000  0.83325300  0.25000000  1
  Al  Al4  1  0.50000000  0.66674700  0.50000000  1
  Al  Al5  1  0.75000000  0.16674700  0.75000000  1
  Al  Al6  1  0.00000000  0.66674700  0.00000000  1
  Al  Al7  1  0.25000000  0.16674700  0.25000000  1
  Fe  Fe0  1  0.50000000  0.00000000  0.50000000  1
  Fe  Fe1  1  0.75000000  0.50000000  0.75000000  1
  Fe  Fe2  1  0.00000000  0.00000000  0.00000000  1
  Fe  Fe3  1  0.25000000  0.50000000  0.25000000  1
  O  O0  1  0.39298800  0.50000000  0.61269100  1
  O  O1  1  0.64298800  0.00000000  0.86269100  1
  O  O2  1  0.89298800  0.50000000  0.11269100  1
  O  O3  1  0.14298800  0.00000000  0.36269100  1
  O  O4  1  0.60701200  0.50000000  0.38730900  1
  O  O5  1  0.85701200  0.00000000  0.63730900  1
  O  O6  1  0.10701200  0.50000000  0.88730900  1
  O  O7  1  0.35701200  0.00000000  0.13730900  1
  O  O8  1  0.84409700  0.32617100  0.62645700  1
  O  O9  1  0.09409700  0.82617100  0.87645700  1
  O  O10  1  0.34409700  0.32617100  0.12645700  1
  O  O11  1  0.59409700  0.82617100  0.37645700  1
  O  O12  1  0.84409700  0.67382900  0.62645700  1
  O  O13  1  0.09409700  0.17382900  0.87645700  1
  O  O14  1  0.34409700  0.67382900  0.12645700  1
  O  O15  1  0.59409700  0.17382900  0.37645700  1
  O  O16  1  0.15590300  0.32617100  0.37354300  1
  O  O17  1  0.40590300  0.82617100  0.62354300  1
  O  O18  1  0.65590300  0.32617100  0.87354300  1
  O  O19  1  0.90590300  0.82617100  0.12354300  1
  O  O20  1  0.15590300  0.67382900  0.37354300  1
  O  O21  1  0.40590300  0.17382900  0.62354300  1
  O  O22  1  0.65590300  0.67382900  0.87354300  1
  O  O23  1  0.90590300  0.17382900  0.12354300  1
loop_
_geom_bond_atom_site_label_1
_geom_bond_atom_site_label_2
_geom_bond_distance
_geom_bond_site_symmetry_2
Li0 O4 2.094352 1_455
Li0 O0 2.094352 1_555
Li0 O20 2.180166 1_555
Li0 O16 2.180166 1_555
Li0 O8 2.180166 1_455
Li0 O12 2.180166 1_455
Li1 O1 2.094352 1_555
Li1 O5 2.094352 1_455
Li1 O17 2.180166 1_545
Li1 O13 2.180166 1_555
Li1 O9 2.180166 1_545
Li1 O21 2.180166 1_555
Li2 O2 2.094352 1_555
Li2 O6 2.094352 1_554
Li2 O22 2.180166 1_554
Li2 O10 2.180166 1_555
Li2 O14 2.180166 1_555
Li2 O18 2.180166 1_554
Li3 O3 2.094352 1_655
Li3 O7 2.094352 1_555
Li3 O11 2.180166 1_545
Li3 O19 2.180166 1_545
Li3 O15 2.180166 1_555
Li3 O23 2.180166 1_555
Li4 O16 2.092879 1_555
Li4 O8 2.092879 1_455
Li4 O3 2.179144 1_555
Li4 O5 2.179144 1_455
Li4 O15 2.187925 1_455
Li4 O21 2.187925 1_555
Li5 O17 2.092879 1_555
Li5 O9 2.092879 1_555
Li5 O6 2.179144 1_555
Li5 O0 2.179144 1_555
Li5 O12 2.187925 1_455
Li5 O22 2.187925 1_555
Li6 O18 2.092879 1_554
Li6 O10 2.092879 1_555
Li6 O7 2.179144 1_555
Li6 O1 2.179144 1_554
Li6 O13 2.187925 1_554
Li6 O23 2.187925 1_555
Li7 O19 2.092879 1_555
Li7 O11 2.092879 1_555
Li7 O2 2.179144 1_555
Li7 O4 2.179144 1_555
Li7 O14 2.187925 1_555
Li7 O20 2.187925 1_655
Li8 O20 2.092879 1_555
Li8 O12 2.092879 1_455
Li8 O5 2.179144 1_465
Li8 O3 2.179144 1_565
Li8 O11 2.187925 1_455
Li8 O17 2.187925 1_555
Li9 O21 2.092879 1_555
Li9 O13 2.092879 1_555
Li9 O6 2.179144 1_555
Li9 O0 2.179144 1_555
Li9 O18 2.187925 1_555
Li9 O8 2.187925 1_455
Li10 O14 2.092879 1_555
Li10 O22 2.092879 1_554
Li10 O7 2.179144 1_565
Li10 O1 2.179144 1_564
Li10 O9 2.187925 1_554
Li10 O19 2.187925 1_555
Li11 O23 2.092879 1_555
Li11 O15 2.092879 1_555
Li11 O2 2.179144 1_555
Li11 O4 2.179144 1_555
Li11 O10 2.187925 1_555
Li11 O16 2.187925 1_655
Al0 O16 1.940806 1_555
Al0 O8 1.940806 1_555
Al0 O21 1.941546 1_555
Al0 O15 1.941546 1_555
Al0 O0 1.946090 1_555
Al0 O4 1.946090 1_555
Al1 O17 1.940806 1_555
Al1 O9 1.940806 1_655
Al1 O12 1.941546 1_555
Al1 O22 1.941546 1_555
Al1 O1 1.946090 1_565
Al1 O5 1.946090 1_565
Al2 O18 1.940806 1_454
Al2 O10 1.940806 1_555
Al2 O13 1.941546 1_554
Al2 O23 1.941546 1_455
Al2 O6 1.946090 1_554
Al2 O2 1.946090 1_455
Al3 O19 1.940806 1_455
Al3 O11 1.940806 1_555
Al3 O20 1.941546 1_555
Al3 O14 1.941546 1_555
Al3 O3 1.946090 1_565
Al3 O7 1.946090 1_565
Al4 O20 1.940806 1_555
Al4 O12 1.940806 1_555
Al4 O17 1.941546 1_555
Al4 O11 1.941546 1_555
Al4 O0 1.946090 1_555
Al4 O4 1.946090 1_555
Al5 O21 1.940806 1_555
Al5 O13 1.940806 1_655
Al5 O8 1.941546 1_555
Al5 O18 1.941546 1_555
Al5 O1 1.946090 1_555
Al5 O5 1.946090 1_555
Al6 O14 1.940806 1_555
Al6 O22 1.940806 1_454
Al6 O9 1.941546 1_554
Al6 O19 1.941546 1_455
Al6 O6 1.946090 1_554
Al6 O2 1.946090 1_455
Al7 O15 1.940806 1_555
Al7 O23 1.940806 1_455
Al7 O10 1.941546 1_555
Al7 O16 1.941546 1_555
Al7 O7 1.946090 1_555
Al7 O3 1.946090 1_555
Fe0 O21 2.032124 1_555
Fe0 O17 2.032124 1_545
Fe0 O11 2.032124 1_545
Fe0 O15 2.032124 1_555
Fe0 O3 2.040032 1_555
Fe0 O5 2.040032 1_555
Fe1 O8 2.032124 1_555
Fe1 O18 2.032124 1_555
Fe1 O12 2.032124 1_555
Fe1 O22 2.032124 1_555
Fe1 O0 2.040032 1_555
Fe1 O6 2.040032 1_655
Fe2 O13 2.032124 1_554
Fe2 O9 2.032124 1_544
Fe2 O19 2.032124 1_445
Fe2 O23 2.032124 1_455
Fe2 O7 2.040032 1_555
Fe2 O1 2.040032 1_454
Fe3 O10 2.032124 1_555
Fe3 O14 2.032124 1_555
Fe3 O20 2.032124 1_555
Fe3 O16 2.032124 1_555
Fe3 O2 2.040032 1_455
Fe3 O4 2.040032 1_555
