# generated using pymatgen
data_Rb3ClO
_symmetry_space_group_name_H-M   'P 1'
_cell_length_a   7.71887200
_cell_length_b   7.73794900
_cell_length_c   10.95886200
_cell_angle_alpha   90.00000000
_cell_angle_beta   90.00000000
_cell_angle_gamma   90.00000000
_symmetry_Int_Tables_number   1
_chemical_formula_structural   Rb3ClO
_chemical_formula_sum   'Rb12 Cl4 O4'
_cell_volume   654.55351636
_cell_formula_units_Z   4
loop_
 _symmetry_equiv_pos_site_id
 _symmetry_equiv_pos_as_xyz
  1  'x, y, z'
loop_
 _atom_site_type_symbol
 _atom_site_label
 _atom_site_symmetry_multiplicity
 _atom_site_fract_x
 _atom_site_fract_y
 _atom_site_fract_z
 _atom_site_occupancy
  Rb  Rb0  1  0.07250000  0.47756000  0.25000000  1
  Rb  Rb1  1  0.20053200  0.20062400  0.53483000  1
  Rb  Rb2  1  0.20053200  0.20062400  0.96517000  1
  Rb  Rb3  1  0.29946800  0.70062400  0.96517000  1
  Rb  Rb4  1  0.29946800  0.70062400  0.53483000  1
  Rb  Rb5  1  0.42750000  0.97756000  0.25000000  1
  Rb  Rb6  1  0.57250000  0.02244000  0.75000000  1
  Rb  Rb7  1  0.70053200  0.29937600  0.03483000  1
  Rb  Rb8  1  0.70053200  0.29937600  0.46517000  1
  Rb  Rb9  1  0.79946800  0.79937600  0.03483000  1
  Rb  Rb10  1  0.79946800  0.79937600  0.46517000  1
  Rb  Rb11  1  0.92750000  0.52244000  0.75000000  1
  Cl  Cl0  1  0.99739300  0.03377800  0.25000000  1
  Cl  Cl1  1  0.50260700  0.53377800  0.25000000  1
  Cl  Cl2  1  0.49739300  0.46622200  0.75000000  1
  Cl  Cl3  1  0.00260700  0.96622200  0.75000000  1
  O  O0  1  0.00000000  0.50000000  0.00000000  1
  O  O1  1  0.00000000  0.50000000  0.50000000  1
  O  O2  1  0.50000000  0.00000000  0.00000000  1
  O  O3  1  0.50000000  0.00000000  0.50000000  1
loop_
_geom_bond_atom_site_label_1
_geom_bond_atom_site_label_2
_geom_bond_distance
_geom_bond_site_symmetry_2
Cl0 Rb9 3.344268 1_545
Cl0 Rb10 3.344268 1_545
Cl0 Rb5 3.348319 1_645
Cl0 Rb0 3.482556 1_655
Cl0 Rb2 3.724064 1_654
Cl0 Rb1 3.724064 1_655
Cl0 Rb7 3.877459 1_555
Cl0 Rb8 3.877459 1_555
Cl1 Rb7 3.344268 1_555
Cl1 Rb8 3.344268 1_555
Cl1 Rb0 3.348319 1_555
Cl1 Rb5 3.482556 1_555
Cl1 Rb3 3.724064 1_554
Cl1 Rb4 3.724064 1_555
Cl1 Rb9 3.877459 1_555
Cl1 Rb10 3.877459 1_555
Cl2 Rb4 3.344268 1_555
Cl2 Rb3 3.344268 1_555
Cl2 Rb11 3.348319 1_555
Cl2 Rb6 3.482556 1_555
Cl2 Rb7 3.724064 1_556
Cl2 Rb8 3.724064 1_555
Cl2 Rb1 3.877459 1_555
Cl2 Rb2 3.877459 1_555
Cl3 Rb2 3.344268 1_565
Cl3 Rb1 3.344268 1_565
Cl3 Rb6 3.348319 1_465
Cl3 Rb11 3.482556 1_455
Cl3 Rb9 3.724064 1_456
Cl3 Rb10 3.724064 1_455
Cl3 Rb3 3.877459 1_555
Cl3 Rb4 3.877459 1_555
O0 Rb11 2.801672 1_454
O0 Rb0 2.801672 1_555
O0 Rb7 2.810513 1_455
O0 Rb3 2.810513 1_554
O0 Rb9 2.812127 1_455
O0 Rb2 2.812127 1_554
O1 Rb11 2.801672 1_455
O1 Rb0 2.801672 1_555
O1 Rb8 2.810513 1_455
O1 Rb4 2.810513 1_555
O1 Rb10 2.812127 1_455
O1 Rb1 2.812127 1_555
O2 Rb6 2.801672 1_554
O2 Rb5 2.801672 1_545
O2 Rb9 2.810513 1_545
O2 Rb2 2.810513 1_554
O2 Rb7 2.812127 1_555
O2 Rb3 2.812127 1_544
O3 Rb6 2.801672 1_555
O3 Rb5 2.801672 1_545
O3 Rb10 2.810513 1_545
O3 Rb1 2.810513 1_555
O3 Rb4 2.812127 1_545
O3 Rb8 2.812127 1_555
