# generated using pymatgen
data_CoH18C6SO10
_symmetry_space_group_name_H-M   'P 1'
_cell_length_a   7.93995000
_cell_length_b   9.41319100
_cell_length_c   20.88546682
_cell_angle_alpha   80.18888583
_cell_angle_beta   90.00000000
_cell_angle_gamma   90.00000000
_symmetry_Int_Tables_number   1
_chemical_formula_structural   CoH18C6SO10
_chemical_formula_sum   'Co4 H72 C24 S4 O40'
_cell_volume   1538.15571818
_cell_formula_units_Z   4
loop_
 _symmetry_equiv_pos_site_id
 _symmetry_equiv_pos_as_xyz
  1  'x, y, z'
loop_
 _atom_site_type_symbol
 _atom_site_label
 _atom_site_symmetry_multiplicity
 _atom_site_fract_x
 _atom_site_fract_y
 _atom_site_fract_z
 _atom_site_occupancy
  Co  Co0  1  0.61943800  0.78945200  0.87422700  1
  Co  Co1  1  0.11943800  0.21054800  0.62577300  1
  Co  Co2  1  0.38056200  0.21054800  0.12577300  1
  Co  Co3  1  0.88056200  0.78945200  0.37422700  1
  H  H0  1  0.78233400  0.78908400  0.74051200  1
  H  H1  1  0.28233400  0.21091600  0.75948800  1
  H  H2  1  0.21766600  0.21091600  0.25948800  1
  H  H3  1  0.71766600  0.78908400  0.24051200  1
  H  H4  1  0.87173000  0.95146200  0.53988600  1
  H  H5  1  0.37173000  0.04853800  0.96011400  1
  H  H6  1  0.12827000  0.04853800  0.46011400  1
  H  H7  1  0.62827000  0.95146200  0.03988600  1
  H  H8  1  0.86653100  0.79198400  0.00133300  1
  H  H9  1  0.36653100  0.20801600  0.49866700  1
  H  H10  1  0.13346900  0.20801600  0.99866700  1
  H  H11  1  0.63346900  0.79198400  0.50133300  1
  H  H12  1  0.99050600  0.89999700  0.65862300  1
  H  H13  1  0.49050600  0.10000300  0.84137700  1
  H  H14  1  0.00949400  0.10000300  0.34137700  1
  H  H15  1  0.50949400  0.89999700  0.15862300  1
  H  H16  1  0.25180000  0.28527700  0.82048500  1
  H  H17  1  0.75180000  0.71472300  0.67951500  1
  H  H18  1  0.74820000  0.71472300  0.17951500  1
  H  H19  1  0.24820000  0.28527700  0.32048500  1
  H  H20  1  0.47870600  0.73152600  0.02384200  1
  H  H21  1  0.97870600  0.26847400  0.47615800  1
  H  H22  1  0.52129400  0.26847400  0.97615800  1
  H  H23  1  0.02129400  0.73152600  0.52384200  1
  H  H24  1  0.26160200  0.55598500  0.70352900  1
  H  H25  1  0.76160200  0.44401500  0.79647100  1
  H  H26  1  0.73839800  0.44401500  0.29647100  1
  H  H27  1  0.23839800  0.55598500  0.20352900  1
  H  H28  1  0.94158900  0.57074300  0.79023200  1
  H  H29  1  0.44158900  0.42925700  0.70976800  1
  H  H30  1  0.05841100  0.42925700  0.20976800  1
  H  H31  1  0.55841100  0.57074300  0.29023200  1
  H  H32  1  0.27399500  0.58424300  0.57955500  1
  H  H33  1  0.77399500  0.41575700  0.92044500  1
  H  H34  1  0.72600500  0.41575700  0.42044500  1
  H  H35  1  0.22600500  0.58424300  0.07955500  1
  H  H36  1  0.96131600  0.53869600  0.91280400  1
  H  H37  1  0.46131600  0.46130400  0.58719600  1
  H  H38  1  0.03868400  0.46130400  0.08719600  1
  H  H39  1  0.53868400  0.53869600  0.41280400  1
  H  H40  1  0.22175000  0.93463900  0.56451100  1
  H  H41  1  0.72175000  0.06536100  0.93548900  1
  H  H42  1  0.77825000  0.06536100  0.43548900  1
  H  H43  1  0.27825000  0.93463900  0.06451100  1
  H  H44  1  0.43745000  0.92352100  0.59407900  1
  H  H45  1  0.93745000  0.07647900  0.90592100  1
  H  H46  1  0.56255000  0.07647900  0.40592100  1
  H  H47  1  0.06255000  0.92352100  0.09407900  1
  H  H48  1  0.44184200  0.00621600  0.70915900  1
  H  H49  1  0.94184200  0.99378400  0.79084100  1
  H  H50  1  0.55815800  0.99378400  0.29084100  1
  H  H51  1  0.05815800  0.00621600  0.20915900  1
  H  H52  1  0.25958800  0.80830300  0.68689800  1
  H  H53  1  0.75958800  0.19169700  0.81310200  1
  H  H54  1  0.74041200  0.19169700  0.31310200  1
  H  H55  1  0.24041200  0.80830300  0.18689800  1
  H  H56  1  0.13369400  0.73431100  0.83384200  1
  H  H57  1  0.63369400  0.26568900  0.66615800  1
  H  H58  1  0.86630600  0.26568900  0.16615800  1
  H  H59  1  0.36630600  0.73431100  0.33384200  1
  H  H60  1  0.26733500  0.90024300  0.81995700  1
  H  H61  1  0.76733500  0.09975700  0.68004300  1
  H  H62  1  0.73266500  0.09975700  0.18004300  1
  H  H63  1  0.23266500  0.90024300  0.31995700  1
  H  H64  1  0.21646000  0.85056900  0.94683000  1
  H  H65  1  0.71646000  0.14943100  0.55317000  1
  H  H66  1  0.78354000  0.14943100  0.05317000  1
  H  H67  1  0.28354000  0.85056900  0.44683000  1
  H  H68  1  0.23200100  0.66344800  0.94427300  1
  H  H69  1  0.73200100  0.33655200  0.55572700  1
  H  H70  1  0.76799900  0.33655200  0.05572700  1
  H  H71  1  0.26799900  0.66344800  0.44427300  1
  C  C0  1  0.83849500  0.51717900  0.81971300  1
  C  C1  1  0.33849500  0.48282100  0.68028700  1
  C  C2  1  0.16150500  0.48282100  0.18028700  1
  C  C3  1  0.66150500  0.51717900  0.31971300  1
  C  C4  1  0.84944100  0.49948200  0.89076500  1
  C  C5  1  0.34944100  0.50051800  0.60923500  1
  C  C6  1  0.15055900  0.50051800  0.10923500  1
  C  C7  1  0.65055900  0.49948200  0.39076500  1
  C  C8  1  0.81108300  0.03304200  0.90010800  1
  C  C9  1  0.31108300  0.96695800  0.59989200  1
  C  C10  1  0.18891700  0.96695800  0.09989200  1
  C  C11  1  0.68891700  0.03304200  0.40010800  1
  C  C12  1  0.74324800  0.07490900  0.83040200  1
  C  C13  1  0.24324800  0.92509100  0.66959800  1
  C  C14  1  0.25675200  0.92509100  0.16959800  1
  C  C15  1  0.75675200  0.07490900  0.33040200  1
  C  C16  1  0.22948400  0.80097200  0.85170400  1
  C  C17  1  0.72948400  0.19902800  0.64829600  1
  C  C18  1  0.77051600  0.19902800  0.14829600  1
  C  C19  1  0.27051600  0.80097200  0.35170400  1
  C  C20  1  0.27798300  0.77058000  0.92140800  1
  C  C21  1  0.77798300  0.22942000  0.57859200  1
  C  C22  1  0.72201700  0.22942000  0.07859200  1
  C  C23  1  0.22201700  0.77058000  0.42140800  1
  S  S0  1  0.81508000  0.61272100  0.57787800  1
  S  S1  1  0.31508000  0.38727900  0.92212200  1
  S  S2  1  0.18492000  0.38727900  0.42212200  1
  S  S3  1  0.68492000  0.61272100  0.07787800  1
  O  O0  1  0.74276600  0.61224400  0.85428000  1
  O  O1  1  0.24276600  0.38775600  0.64572000  1
  O  O2  1  0.25723400  0.38775600  0.14572000  1
  O  O3  1  0.75723400  0.61224400  0.35428000  1
  O  O4  1  0.93927300  0.81931600  0.95910300  1
  O  O5  1  0.43927300  0.18068400  0.54089700  1
  O  O6  1  0.06072700  0.18068400  0.04089700  1
  O  O7  1  0.56072700  0.81931600  0.45910300  1
  O  O8  1  0.82062300  0.87835100  0.90901900  1
  O  O9  1  0.32062300  0.12164900  0.59098100  1
  O  O10  1  0.17937700  0.12164900  0.09098100  1
  O  O11  1  0.67937700  0.87835100  0.40901900  1
  O  O12  1  0.81850200  0.99291800  0.78721600  1
  O  O13  1  0.31850200  0.00708200  0.71278400  1
  O  O14  1  0.18149800  0.00708200  0.21278400  1
  O  O15  1  0.68149800  0.99291800  0.28721600  1
  O  O16  1  0.57179900  0.03137500  0.82702200  1
  O  O17  1  0.07179900  0.96862500  0.67297800  1
  O  O18  1  0.42820100  0.96862500  0.17297800  1
  O  O19  1  0.92820100  0.03137500  0.32702200  1
  O  O20  1  0.45415800  0.77761300  0.93489600  1
  O  O21  1  0.95415800  0.22238700  0.56510400  1
  O  O22  1  0.54584200  0.22238700  0.06510400  1
  O  O23  1  0.04584200  0.77761300  0.43489600  1
  O  O24  1  0.74776800  0.80858500  0.69492800  1
  O  O25  1  0.24776800  0.19141500  0.80507200  1
  O  O26  1  0.25223200  0.19141500  0.30507200  1
  O  O27  1  0.75223200  0.80858500  0.19492800  1
  O  O28  1  0.00906200  0.69093400  0.57131700  1
  O  O29  1  0.50906200  0.30906600  0.92868300  1
  O  O30  1  0.99093800  0.30906600  0.42868300  1
  O  O31  1  0.49093800  0.69093400  0.07131700  1
  O  O32  1  0.80912600  0.55360600  0.64891500  1
  O  O33  1  0.30912600  0.44639400  0.85108500  1
  O  O34  1  0.19087400  0.44639400  0.35108500  1
  O  O35  1  0.69087400  0.55360600  0.14891500  1
  O  O36  1  0.69940600  0.74365300  0.56579400  1
  O  O37  1  0.19940600  0.25634700  0.93420600  1
  O  O38  1  0.30059400  0.25634700  0.43420600  1
  O  O39  1  0.80059400  0.74365300  0.06579400  1
loop_
_geom_bond_atom_site_label_1
_geom_bond_atom_site_label_2
_geom_bond_distance
_geom_bond_site_symmetry_2
Co0 O20 1.814389 1_555
Co0 O8 1.996799 1_555
Co0 O0 2.037595 1_555
Co0 O16 2.352842 1_565
Co1 O21 1.814389 1_455
Co1 O9 1.996799 1_555
Co1 O1 2.037595 1_555
Co1 O17 2.352842 1_545
Co2 O22 1.814389 1_555
Co2 O10 1.996799 1_555
Co2 O2 2.037595 1_555
Co2 O18 2.352842 1_545
Co3 O23 1.814389 1_655
Co3 O11 1.996799 1_555
Co3 O3 2.037595 1_555
Co3 O19 2.352842 1_565
H0 O24 0.977674 1_555
H1 O25 0.977674 1_555
H2 O26 0.977674 1_555
H3 O27 0.977674 1_555
H8 O4 1.048978 1_554
H8 O39 1.443900 1_555
H9 O5 1.048978 1_555
H9 O38 1.443900 1_555
H10 O6 1.048978 1_556
H10 O37 1.443900 1_555
H11 O7 1.048978 1_555
H11 O36 1.443900 1_555
H12 O17 0.994908 1_655
H13 O16 0.994908 1_555
H14 O19 0.994908 1_455
H15 O18 0.994908 1_555
H16 O25 0.991072 1_555
H17 O24 0.991072 1_555
H18 O27 0.991072 1_555
H19 O26 0.991072 1_555
H20 O31 1.004720 1_555
H21 O30 1.004720 1_555
H22 O29 1.004720 1_555
H23 O28 1.004720 1_555
H48 O13 0.982376 1_555
H49 O12 0.982376 1_555
H50 O15 0.982376 1_555
H51 O14 0.982376 1_555
C0 H25 1.093904 1_555
C0 H28 1.094341 1_555
C0 O0 1.455985 1_555
C1 H24 1.093904 1_555
C1 H29 1.094341 1_555
C1 O1 1.455985 1_555
C2 H27 1.093904 1_555
C2 H30 1.094341 1_555
C2 O2 1.455985 1_555
C3 H26 1.093904 1_555
C3 H31 1.094341 1_555
C3 O3 1.455985 1_555
C4 H36 1.093196 1_555
C4 H33 1.094411 1_555
C4 O0 1.465974 1_555
C5 H37 1.093196 1_555
C5 H32 1.094411 1_555
C5 O1 1.465974 1_555
C6 H38 1.093196 1_555
C6 H35 1.094411 1_555
C6 O2 1.465974 1_555
C7 H39 1.093196 1_555
C7 H34 1.094411 1_555
C7 O3 1.465974 1_555
C8 H45 1.097974 1_555
C8 H41 1.103775 1_555
C8 O8 1.438175 1_545
C9 H44 1.097974 1_555
C9 H40 1.103775 1_555
C9 O9 1.438175 1_565
C10 H47 1.097974 1_555
C10 H43 1.103775 1_555
C10 O10 1.438175 1_565
C11 H46 1.097974 1_555
C11 H42 1.103775 1_555
C11 O11 1.438175 1_545
C12 H53 1.104797 1_555
C12 O12 1.415438 1_545
C12 O16 1.426850 1_555
C13 H52 1.104797 1_555
C13 O13 1.415438 1_565
C13 O17 1.426850 1_555
C14 H55 1.104797 1_555
C14 O14 1.415438 1_565
C14 O18 1.426850 1_555
C15 H54 1.104797 1_555
C15 O15 1.415438 1_545
C15 O19 1.426850 1_555
C16 H56 1.091403 1_555
C16 H60 1.091792 1_555
C17 H57 1.091403 1_555
C17 H61 1.091792 1_555
C18 H58 1.091403 1_555
C18 H62 1.091792 1_555
C19 H59 1.091403 1_555
C19 H63 1.091792 1_555
C20 H68 1.101907 1_555
C20 H64 1.106215 1_555
C20 O20 1.430662 1_555
C21 H69 1.101907 1_555
C21 H65 1.106215 1_555
C21 O21 1.430662 1_555
C22 H70 1.101907 1_555
C22 H66 1.106215 1_555
C22 O22 1.430662 1_555
C23 H71 1.101907 1_555
C23 H67 1.106215 1_555
C23 O23 1.430662 1_555
O4 O8 1.446509 1_555
O5 O9 1.446509 1_555
O10 O6 1.446509 1_555
O11 O7 1.446509 1_555
O28 S0 1.702549 1_455
O29 S1 1.702549 1_555
O30 S2 1.702549 1_655
O31 S3 1.702549 1_555
O32 S0 1.493892 1_555
O33 S1 1.493892 1_555
O34 S2 1.493892 1_555
O35 S3 1.493892 1_555
O36 S0 1.523239 1_555
O37 S1 1.523239 1_555
O38 S2 1.523239 1_555
O39 S3 1.523239 1_555
