# generated using pymatgen
data_CaSb2H2F14
_symmetry_space_group_name_H-M   'P 1'
_cell_length_a   11.06282500
_cell_length_b   9.50250600
_cell_length_c   12.47830807
_cell_angle_alpha   59.81739148
_cell_angle_beta   90.00000000
_cell_angle_gamma   90.00000000
_symmetry_Int_Tables_number   1
_chemical_formula_structural   CaSb2H2F14
_chemical_formula_sum   'Ca4 Sb8 H8 F56'
_cell_volume   1133.93574803
_cell_formula_units_Z   4
loop_
 _symmetry_equiv_pos_site_id
 _symmetry_equiv_pos_as_xyz
  1  'x, y, z'
loop_
 _atom_site_type_symbol
 _atom_site_label
 _atom_site_symmetry_multiplicity
 _atom_site_fract_x
 _atom_site_fract_y
 _atom_site_fract_z
 _atom_site_occupancy
  Ca  Ca0  1  0.25050800  0.11027300  0.70797500  1
  Ca  Ca1  1  0.75050800  0.88972700  0.79202500  1
  Ca  Ca2  1  0.24949200  0.11027300  0.20797500  1
  Ca  Ca3  1  0.74949200  0.88972700  0.29202500  1
  Sb  Sb0  1  0.71614900  0.40653800  0.59032700  1
  Sb  Sb1  1  0.00000000  0.00000000  0.00000000  1
  Sb  Sb2  1  0.50000000  0.00000000  0.00000000  1
  Sb  Sb3  1  0.78385100  0.40653800  0.09032700  1
  Sb  Sb4  1  0.00000000  0.00000000  0.50000000  1
  Sb  Sb5  1  0.50000000  0.00000000  0.50000000  1
  Sb  Sb6  1  0.21614900  0.59346200  0.90967300  1
  Sb  Sb7  1  0.28385100  0.59346200  0.40967300  1
  H  H0  1  0.74452600  0.59494000  0.24080600  1
  H  H1  1  0.00317500  0.32323100  0.62152800  1
  H  H2  1  0.24452600  0.40506000  0.25919400  1
  H  H3  1  0.49682500  0.32323100  0.12152800  1
  H  H4  1  0.50317500  0.67676900  0.87847200  1
  H  H5  1  0.75547400  0.59494000  0.74080600  1
  H  H6  1  0.99682500  0.67676900  0.37847200  1
  H  H7  1  0.25547400  0.40506000  0.75919400  1
  F  F0  1  0.02060600  0.77484600  0.11102600  1
  F  F1  1  0.72038400  0.70017200  0.22783300  1
  F  F2  1  0.10851200  0.56461100  0.42310600  1
  F  F3  1  0.46458000  0.77510000  0.08567600  1
  F  F4  1  0.54788600  0.36877700  0.61442900  1
  F  F5  1  0.27733800  0.55782600  0.27097500  1
  F  F6  1  0.29777500  0.35962600  0.51705800  1
  F  F7  1  0.71799400  0.37818500  0.45116600  1
  F  F8  1  0.06429500  0.23877900  0.65862900  1
  F  F9  1  0.21799400  0.62181500  0.04883400  1
  F  F10  1  0.74558800  0.17628400  0.70073200  1
  F  F11  1  0.14033400  0.00113500  0.90674000  1
  F  F12  1  0.41089200  0.02336500  0.85754400  1
  F  F13  1  0.77733800  0.44217400  0.22902500  1
  F  F14  1  0.64504600  0.95815600  0.93353100  1
  F  F15  1  0.90122300  0.95165200  0.89417400  1
  F  F16  1  0.96458000  0.22490000  0.41432400  1
  F  F17  1  0.60851200  0.43538900  0.07689400  1
  F  F18  1  0.22038400  0.29982800  0.27216700  1
  F  F19  1  0.52060600  0.22515400  0.38897400  1
  F  F20  1  0.40122300  0.04834800  0.60582600  1
  F  F21  1  0.95211400  0.36877700  0.11442900  1
  F  F22  1  0.14504600  0.04184400  0.56646900  1
  F  F23  1  0.91089200  0.97663500  0.64245600  1
  F  F24  1  0.64033400  0.99886500  0.59326000  1
  F  F25  1  0.20222500  0.35962600  0.01705800  1
  F  F26  1  0.24558800  0.82371600  0.79926800  1
  F  F27  1  0.43570500  0.23877900  0.15862900  1
  F  F28  1  0.56429500  0.76122100  0.84137100  1
  F  F29  1  0.75441200  0.17628400  0.20073200  1
  F  F30  1  0.79777500  0.64037400  0.98294200  1
  F  F31  1  0.35966600  0.00113500  0.40674000  1
  F  F32  1  0.08910800  0.02336500  0.35754400  1
  F  F33  1  0.85495400  0.95815600  0.43353100  1
  F  F34  1  0.04788600  0.63122300  0.88557100  1
  F  F35  1  0.59877700  0.95165200  0.39417400  1
  F  F36  1  0.47939400  0.77484600  0.61102600  1
  F  F37  1  0.77961600  0.70017200  0.72783300  1
  F  F38  1  0.39148800  0.56461100  0.92310600  1
  F  F39  1  0.03542000  0.77510000  0.58567600  1
  F  F40  1  0.09877700  0.04834800  0.10582600  1
  F  F41  1  0.35495400  0.04184400  0.06646900  1
  F  F42  1  0.22266200  0.55782600  0.77097500  1
  F  F43  1  0.58910800  0.97663500  0.14245600  1
  F  F44  1  0.85966600  0.99886500  0.09326000  1
  F  F45  1  0.25441200  0.82371600  0.29926800  1
  F  F46  1  0.78200600  0.37818500  0.95116600  1
  F  F47  1  0.93570500  0.76122100  0.34137100  1
  F  F48  1  0.28200600  0.62181500  0.54883400  1
  F  F49  1  0.70222500  0.64037400  0.48294200  1
  F  F50  1  0.72266200  0.44217400  0.72902500  1
  F  F51  1  0.45211400  0.63122300  0.38557100  1
  F  F52  1  0.53542000  0.22490000  0.91432400  1
  F  F53  1  0.89148800  0.43538900  0.57689400  1
  F  F54  1  0.27961600  0.29982800  0.77216700  1
  F  F55  1  0.97939400  0.22515400  0.88897400  1
loop_
_geom_bond_atom_site_label_1
_geom_bond_atom_site_label_2
_geom_bond_distance
_geom_bond_site_symmetry_2
Ca0 F8 2.314740 1_555
Ca0 F54 2.332503 1_555
Ca0 F20 2.346313 1_555
Ca0 F26 2.365664 1_545
Ca0 F12 2.400762 1_555
Ca0 F6 2.426380 1_555
Ca0 F22 2.460981 1_555
Ca0 F11 2.475143 1_555
Ca1 F28 2.314740 1_555
Ca1 F37 2.332503 1_555
Ca1 F15 2.346313 1_555
Ca1 F10 2.365664 1_565
Ca1 F23 2.400762 1_555
Ca1 F30 2.426380 1_555
Ca1 F14 2.460981 1_555
Ca1 F24 2.475143 1_555
Ca2 F27 2.314740 1_555
Ca2 F18 2.332503 1_555
Ca2 F40 2.346313 1_555
Ca2 F45 2.365664 1_545
Ca2 F32 2.400762 1_555
Ca2 F25 2.426380 1_555
Ca2 F41 2.460981 1_555
Ca2 F31 2.475143 1_555
Ca3 F47 2.314740 1_555
Ca3 F1 2.332503 1_555
Ca3 F35 2.346313 1_555
Ca3 F29 2.365664 1_565
Ca3 F43 2.400762 1_555
Ca3 F49 2.426380 1_555
Ca3 F33 2.460981 1_555
Ca3 F44 2.475143 1_555
F0 Sb1 1.889031 1_565
F1 H0 0.966801 1_555
F2 H6 1.541385 1_455
F2 Sb7 1.954395 1_555
F3 Sb2 1.888487 1_565
F4 Sb0 1.890964 1_555
F5 H2 1.573300 1_555
F5 Sb7 1.924720 1_555
F6 Sb7 1.939791 1_555
F7 Sb0 1.886492 1_555
F8 H1 0.970547 1_555
F9 Sb6 1.886492 1_554
F10 Sb0 1.939172 1_555
F11 Sb1 1.937004 1_556
F12 Sb2 1.945280 1_556
F13 H0 1.573300 1_555
F13 Sb3 1.924720 1_555
F14 Sb2 1.937126 1_566
F15 Sb1 1.938817 1_666
F16 Sb4 1.888487 1_655
F17 H3 1.541385 1_555
F17 Sb3 1.954395 1_555
F18 H2 0.966801 1_555
F19 Sb5 1.889031 1_555
F20 Sb5 1.938817 1_555
F21 Sb3 1.890964 1_555
F22 Sb4 1.937126 1_555
F23 Sb4 1.945280 1_665
F24 Sb5 1.937004 1_565
F25 Sb6 1.939791 1_554
F26 Sb6 1.939172 1_555
F27 H3 0.970547 1_555
F28 H4 0.970547 1_555
F29 Sb3 1.939172 1_555
F30 Sb3 1.939791 1_556
F31 Sb5 1.937004 1_555
F32 Sb4 1.945280 1_555
F33 Sb4 1.937126 1_665
F34 Sb6 1.890964 1_555
F35 Sb5 1.938817 1_565
F36 Sb5 1.889031 1_565
F37 H5 0.966801 1_555
F38 H4 1.541385 1_555
F38 Sb6 1.954395 1_555
F39 Sb4 1.888487 1_565
F40 Sb1 1.938817 1_555
F41 Sb2 1.937126 1_555
F42 H7 1.573300 1_555
F42 Sb6 1.924720 1_555
F43 Sb2 1.945280 1_565
F44 Sb1 1.937004 1_665
F45 Sb7 1.939172 1_555
F46 Sb3 1.886492 1_556
F47 H6 0.970547 1_555
F48 Sb7 1.886492 1_555
F49 Sb0 1.939791 1_555
F50 H5 1.573300 1_555
F50 Sb0 1.924720 1_555
F51 Sb7 1.890964 1_555
F52 Sb2 1.888487 1_556
F53 H1 1.541385 1_655
F53 Sb0 1.954395 1_555
F54 H7 0.966801 1_555
F55 Sb1 1.889031 1_656
