# generated using pymatgen
data_Na6TeP6(H2O5)6
_symmetry_space_group_name_H-M   'P 1'
_cell_length_a   11.73884527
_cell_length_b   11.73884527
_cell_length_c   11.96691500
_cell_angle_alpha   90.00000000
_cell_angle_beta   90.00000000
_cell_angle_gamma   119.99999587
_symmetry_Int_Tables_number   1
_chemical_formula_structural   Na6TeP6(H2O5)6
_chemical_formula_sum   'Na12 Te2 P12 H24 O60'
_cell_volume   1428.11641893
_cell_formula_units_Z   2
loop_
 _symmetry_equiv_pos_site_id
 _symmetry_equiv_pos_as_xyz
  1  'x, y, z'
loop_
 _atom_site_type_symbol
 _atom_site_label
 _atom_site_symmetry_multiplicity
 _atom_site_fract_x
 _atom_site_fract_y
 _atom_site_fract_z
 _atom_site_occupancy
  Na  Na0  1  0.43194000  0.86896900  0.25000000  1
  Na  Na1  1  0.43702900  0.56806000  0.25000000  1
  Na  Na2  1  0.13103100  0.56297100  0.25000000  1
  Na  Na3  1  0.56806000  0.13103100  0.75000000  1
  Na  Na4  1  0.56297100  0.43194000  0.75000000  1
  Na  Na5  1  0.86896900  0.43702900  0.75000000  1
  Na  Na6  1  0.72580600  0.84450600  0.25000000  1
  Na  Na7  1  0.11870000  0.27419400  0.25000000  1
  Na  Na8  1  0.15549400  0.88130000  0.25000000  1
  Na  Na9  1  0.27419400  0.15549400  0.75000000  1
  Na  Na10  1  0.88130000  0.72580600  0.75000000  1
  Na  Na11  1  0.84450600  0.11870000  0.75000000  1
  Te  Te0  1  0.00000000  0.00000000  0.50000000  1
  Te  Te1  1  0.00000000  0.00000000  0.00000000  1
  P  P0  1  0.25026500  0.50127800  0.00598900  1
  P  P1  1  0.25101300  0.74973500  0.00598900  1
  P  P2  1  0.49872200  0.74898700  0.00598900  1
  P  P3  1  0.74973500  0.49872200  0.50598900  1
  P  P4  1  0.74898700  0.25026500  0.50598900  1
  P  P5  1  0.50127800  0.25101300  0.50598900  1
  P  P6  1  0.74973500  0.49872200  0.99401100  1
  P  P7  1  0.74898700  0.25026500  0.99401100  1
  P  P8  1  0.50127800  0.25101300  0.99401100  1
  P  P9  1  0.25026500  0.50127800  0.49401100  1
  P  P10  1  0.25101300  0.74973500  0.49401100  1
  P  P11  1  0.49872200  0.74898700  0.49401100  1
  H  H0  1  0.69793300  0.60176700  0.31511400  1
  H  H1  1  0.90383400  0.30206700  0.31511400  1
  H  H2  1  0.39823300  0.09616600  0.31511400  1
  H  H3  1  0.30206700  0.39823300  0.81511400  1
  H  H4  1  0.09616600  0.69793300  0.81511400  1
  H  H5  1  0.60176700  0.90383400  0.81511400  1
  H  H6  1  0.30206700  0.39823300  0.68488600  1
  H  H7  1  0.09616600  0.69793300  0.68488600  1
  H  H8  1  0.60176700  0.90383400  0.68488600  1
  H  H9  1  0.69793300  0.60176700  0.18488600  1
  H  H10  1  0.90383400  0.30206700  0.18488600  1
  H  H11  1  0.39823300  0.09616600  0.18488600  1
  H  H12  1  0.84843300  0.77644800  0.42599200  1
  H  H13  1  0.92801500  0.15156700  0.42599200  1
  H  H14  1  0.22355200  0.07198500  0.42599200  1
  H  H15  1  0.15156700  0.22355200  0.92599200  1
  H  H16  1  0.07198500  0.84843300  0.92599200  1
  H  H17  1  0.77644800  0.92801500  0.92599200  1
  H  H18  1  0.15156700  0.22355200  0.57400800  1
  H  H19  1  0.07198500  0.84843300  0.57400800  1
  H  H20  1  0.77644800  0.92801500  0.57400800  1
  H  H21  1  0.84843300  0.77644800  0.07400800  1
  H  H22  1  0.92801500  0.15156700  0.07400800  1
  H  H23  1  0.22355200  0.07198500  0.07400800  1
  O  O0  1  0.23771100  0.76021300  0.36976000  1
  O  O1  1  0.52250300  0.76228900  0.36976000  1
  O  O2  1  0.23978700  0.47749700  0.36976000  1
  O  O3  1  0.76228900  0.23978700  0.86976000  1
  O  O4  1  0.47749700  0.23771100  0.86976000  1
  O  O5  1  0.76021300  0.52250300  0.86976000  1
  O  O6  1  0.76228900  0.23978700  0.63024000  1
  O  O7  1  0.47749700  0.23771100  0.63024000  1
  O  O8  1  0.76021300  0.52250300  0.63024000  1
  O  O9  1  0.23771100  0.76021300  0.13024000  1
  O  O10  1  0.52250300  0.76228900  0.13024000  1
  O  O11  1  0.23978700  0.47749700  0.13024000  1
  O  O12  1  0.18978700  0.59482700  0.97312900  1
  O  O13  1  0.40503900  0.81021300  0.97312900  1
  O  O14  1  0.40517300  0.59496100  0.97312900  1
  O  O15  1  0.81021300  0.40517300  0.47312900  1
  O  O16  1  0.59496100  0.18978700  0.47312900  1
  O  O17  1  0.59482700  0.40503900  0.47312900  1
  O  O18  1  0.81021300  0.40517300  0.02687100  1
  O  O19  1  0.59496100  0.18978700  0.02687100  1
  O  O20  1  0.59482700  0.40503900  0.02687100  1
  O  O21  1  0.18978700  0.59482700  0.52687100  1
  O  O22  1  0.40503900  0.81021300  0.52687100  1
  O  O23  1  0.40517300  0.59496100  0.52687100  1
  O  O24  1  0.19396000  0.38765300  0.92622600  1
  O  O25  1  0.19369300  0.80604000  0.92622600  1
  O  O26  1  0.61234700  0.80630700  0.92622600  1
  O  O27  1  0.80604000  0.61234700  0.42622600  1
  O  O28  1  0.80630700  0.19396000  0.42622600  1
  O  O29  1  0.38765300  0.19369300  0.42622600  1
  O  O30  1  0.80604000  0.61234700  0.07377400  1
  O  O31  1  0.80630700  0.19396000  0.07377400  1
  O  O32  1  0.38765300  0.19369300  0.07377400  1
  O  O33  1  0.19396000  0.38765300  0.57377400  1
  O  O34  1  0.19369300  0.80604000  0.57377400  1
  O  O35  1  0.61234700  0.80630700  0.57377400  1
  O  O36  1  0.86375000  0.86573100  0.40515900  1
  O  O37  1  0.00198100  0.13625000  0.40515900  1
  O  O38  1  0.13426900  0.99801900  0.40515900  1
  O  O39  1  0.13625000  0.13426900  0.90515900  1
  O  O40  1  0.99801900  0.86375000  0.90515900  1
  O  O41  1  0.86573100  0.00198100  0.90515900  1
  O  O42  1  0.13625000  0.13426900  0.59484100  1
  O  O43  1  0.99801900  0.86375000  0.59484100  1
  O  O44  1  0.86573100  0.00198100  0.59484100  1
  O  O45  1  0.86375000  0.86573100  0.09484100  1
  O  O46  1  0.00198100  0.13625000  0.09484100  1
  O  O47  1  0.13426900  0.99801900  0.09484100  1
  O  O48  1  0.65445700  0.61589600  0.25000000  1
  O  O49  1  0.96143900  0.34554300  0.25000000  1
  O  O50  1  0.38410400  0.03856100  0.25000000  1
  O  O51  1  0.34554300  0.38410400  0.75000000  1
  O  O52  1  0.03856100  0.65445700  0.75000000  1
  O  O53  1  0.61589600  0.96143900  0.75000000  1
  O  O54  1  0.97139100  0.64952000  0.25000000  1
  O  O55  1  0.67812900  0.02860900  0.25000000  1
  O  O56  1  0.35048000  0.32187100  0.25000000  1
  O  O57  1  0.02860900  0.35048000  0.75000000  1
  O  O58  1  0.32187100  0.97139100  0.75000000  1
  O  O59  1  0.64952000  0.67812900  0.75000000  1
loop_
_geom_bond_atom_site_label_1
_geom_bond_atom_site_label_2
_geom_bond_distance
_geom_bond_site_symmetry_2
Na0 O50 2.323056 1_565
Na0 O0 2.443665 1_555
Na0 O9 2.443665 1_555
Na0 O10 2.466519 1_555
Na0 O1 2.466519 1_555
Na0 O55 2.539293 1_565
Na1 O48 2.323056 1_555
Na1 O1 2.443665 1_555
Na1 O10 2.443665 1_555
Na1 O11 2.466510 1_555
Na1 O2 2.466510 1_555
Na1 O56 2.539293 1_555
Na2 O49 2.323056 1_455
Na2 O11 2.443673 1_555
Na2 O2 2.443673 1_555
Na2 O9 2.466511 1_555
Na2 O0 2.466511 1_555
Na2 O54 2.539293 1_455
Na3 O53 2.323056 1_545
Na3 O6 2.443665 1_555
Na3 O3 2.443665 1_555
Na3 O4 2.466519 1_555
Na3 O7 2.466519 1_555
Na3 O58 2.539293 1_545
Na4 O51 2.323056 1_555
Na4 O4 2.443665 1_555
Na4 O7 2.443665 1_555
Na4 O8 2.466510 1_555
Na4 O5 2.466510 1_555
Na4 O59 2.539293 1_555
Na5 O52 2.323056 1_655
Na5 O8 2.443673 1_555
Na5 O5 2.443673 1_555
Na5 O3 2.466511 1_555
Na5 O6 2.466511 1_555
Na5 O57 2.539293 1_655
Na6 O48 2.378156 1_555
Na6 O36 2.393402 1_555
Na6 O45 2.393402 1_555
Na6 O55 2.488649 1_565
Na6 O10 2.525406 1_555
Na6 O1 2.525406 1_555
Na7 O49 2.378155 1_455
Na7 O37 2.393402 1_555
Na7 O46 2.393402 1_555
Na7 O56 2.488649 1_555
Na7 O11 2.525407 1_555
Na7 O2 2.525407 1_555
Na8 O50 2.378156 1_565
Na8 O38 2.393402 1_555
Na8 O47 2.393402 1_555
Na8 O54 2.488649 1_455
Na8 O9 2.525415 1_555
Na8 O0 2.525415 1_555
Na9 O51 2.378156 1_555
Na9 O42 2.393402 1_555
Na9 O39 2.393402 1_555
Na9 O58 2.488649 1_545
Na9 O4 2.525406 1_555
Na9 O7 2.525406 1_555
Na10 O52 2.378155 1_655
Na10 O43 2.393402 1_555
Na10 O40 2.393402 1_555
Na10 O59 2.488649 1_555
Na10 O8 2.525407 1_555
Na10 O5 2.525407 1_555
Na11 O53 2.378156 1_545
Na11 O44 2.393402 1_555
Na11 O41 2.393402 1_555
Na11 O57 2.488649 1_655
Na11 O6 2.525415 1_555
Na11 O3 2.525415 1_555
H0 O48 0.989846 1_555
H1 O49 0.989846 1_555
H2 O50 0.989846 1_555
H3 O51 0.989846 1_555
H4 O52 0.989846 1_555
H5 O53 0.989846 1_555
H6 O51 0.989846 1_555
H7 O52 0.989846 1_555
H8 O53 0.989846 1_555
H9 O48 0.989846 1_555
H10 O49 0.989846 1_555
H11 O50 0.989846 1_555
H12 O36 1.002250 1_555
H13 O37 1.002250 1_655
H14 O38 1.002250 1_545
H15 O39 1.002250 1_555
H16 O40 1.002250 1_455
H17 O41 1.002250 1_565
H18 O42 1.002250 1_555
H19 O43 1.002250 1_455
H20 O44 1.002250 1_565
H21 O45 1.002250 1_555
H22 O46 1.002250 1_655
H23 O47 1.002250 1_545
O0 P10 1.506517 1_555
O1 P11 1.506518 1_555
O2 P9 1.506519 1_555
O3 P7 1.506517 1_555
O4 P8 1.506518 1_555
O5 P6 1.506519 1_555
O6 P4 1.506517 1_555
O7 P5 1.506518 1_555
O8 P3 1.506519 1_555
O9 P1 1.506517 1_555
O10 P2 1.506518 1_555
O11 P0 1.506519 1_555
O12 P0 1.626108 1_556
O12 P1 1.634310 1_556
O13 P1 1.626097 1_556
O13 P2 1.634320 1_556
O14 P2 1.626099 1_556
O14 P0 1.634311 1_556
O15 P3 1.626108 1_555
O15 P4 1.634310 1_555
O16 P4 1.626097 1_555
O16 P5 1.634320 1_555
O17 P5 1.626099 1_555
O17 P3 1.634311 1_555
O18 P6 1.626108 1_554
O18 P7 1.634310 1_554
O19 P7 1.626097 1_554
O19 P8 1.634320 1_554
O20 P8 1.626099 1_554
O20 P6 1.634311 1_554
O21 P9 1.626108 1_555
O21 P10 1.634310 1_555
O22 P10 1.626097 1_555
O22 P11 1.634320 1_555
O23 P11 1.626099 1_555
O23 P9 1.634311 1_555
O24 P0 1.498485 1_556
O25 P1 1.498485 1_556
O26 P2 1.498485 1_556
O27 P3 1.498485 1_555
O28 P4 1.498485 1_555
O29 P5 1.498485 1_555
O30 P6 1.498485 1_554
O31 P7 1.498485 1_554
O32 P8 1.498485 1_554
O33 P9 1.498485 1_555
O34 P10 1.498485 1_555
O35 P11 1.498485 1_555
O36 Te0 1.951821 1_665
O37 Te0 1.951821 1_555
O38 Te0 1.951821 1_565
O39 Te1 1.951821 1_556
O40 Te1 1.951821 1_666
O41 Te1 1.951821 1_656
O42 Te0 1.951821 1_555
O43 Te0 1.951821 1_665
O44 Te0 1.951821 1_655
O45 Te1 1.951821 1_665
O46 Te1 1.951821 1_555
O47 Te1 1.951821 1_565
