# generated using pymatgen
data_Li8V3P8O29
_symmetry_space_group_name_H-M   'P 1'
_cell_length_a   9.90099574
_cell_length_b   9.90099574
_cell_length_c   13.83114710
_cell_angle_alpha   89.83202657
_cell_angle_beta   89.83202657
_cell_angle_gamma   59.80684924
_symmetry_Int_Tables_number   1
_chemical_formula_structural   Li8V3P8O29
_chemical_formula_sum   'Li16 V6 P16 O58'
_cell_volume   1171.91341794
_cell_formula_units_Z   2
loop_
 _symmetry_equiv_pos_site_id
 _symmetry_equiv_pos_as_xyz
  1  'x, y, z'
loop_
 _atom_site_type_symbol
 _atom_site_label
 _atom_site_symmetry_multiplicity
 _atom_site_fract_x
 _atom_site_fract_y
 _atom_site_fract_z
 _atom_site_occupancy
  Li  Li0  1  0.76673200  0.33334500  0.68508700  1
  Li  Li1  1  0.90116300  0.76456700  0.68338300  1
  Li  Li2  1  0.67015300  0.66267600  0.86769000  1
  Li  Li3  1  0.67473700  0.65957900  0.36827000  1
  Li  Li4  1  0.76691500  0.90597000  0.18732300  1
  Li  Li5  1  0.32371700  0.77027300  0.18835800  1
  Li  Li6  1  0.32697500  0.90309600  0.68412800  1
  Li  Li7  1  0.66665500  0.23326800  0.31491300  1
  Li  Li8  1  0.23543300  0.09883700  0.31661700  1
  Li  Li9  1  0.34042100  0.32526300  0.63173000  1
  Li  Li10  1  0.33732400  0.32984700  0.13231000  1
  Li  Li11  1  0.09403000  0.23308500  0.81267700  1
  Li  Li12  1  0.22972700  0.67628300  0.81164200  1
  Li  Li13  1  0.09690400  0.67302500  0.31587200  1
  Li  Li14  1  0.97956400  0.06515800  0.24584100  1
  Li  Li15  1  0.93484200  0.02043600  0.75415900  1
  V  V0  1  0.56387100  0.00355900  0.99487700  1
  V  V1  1  0.43691000  0.99923700  0.50107100  1
  V  V2  1  0.56599400  0.43400600  0.50000000  1
  V  V3  1  0.43676200  0.56323800  0.00000000  1
  V  V4  1  0.99644100  0.43612900  0.00512300  1
  V  V5  1  0.00076300  0.56309000  0.49892900  1
  P  P0  1  0.91288400  0.31097700  0.40698200  1
  P  P1  1  0.77776700  0.31419400  0.90625500  1
  P  P2  1  0.90944300  0.77295800  0.90653700  1
  P  P3  1  0.66472600  0.67411500  0.12367600  1
  P  P4  1  0.66694100  0.66522500  0.62635800  1
  P  P5  1  0.77175700  0.91055600  0.40372700  1
  P  P6  1  0.68902300  0.08711600  0.59301800  1
  P  P7  1  0.31940500  0.77231900  0.40566700  1
  P  P8  1  0.68580600  0.22223300  0.09374500  1
  P  P9  1  0.31817200  0.91075600  0.90621800  1
  P  P10  1  0.22704200  0.09055700  0.09346300  1
  P  P11  1  0.32588500  0.33527400  0.87632400  1
  P  P12  1  0.33477500  0.33305900  0.37364200  1
  P  P13  1  0.08944400  0.22824300  0.59627300  1
  P  P14  1  0.22768100  0.68059500  0.59433300  1
  P  P15  1  0.08924400  0.68182800  0.09378200  1
  O  O0  1  0.99866000  0.23625300  0.68752900  1
  O  O1  1  0.92350100  0.33294600  0.91253000  1
  O  O2  1  0.77300600  0.21705200  0.18343400  1
  O  O3  1  0.74952900  0.32922600  0.40423400  1
  O  O4  1  0.89679800  0.47388100  0.41252200  1
  O  O5  1  0.81490500  0.52986600  0.07723100  1
  O  O6  1  0.89923000  0.62266500  0.91731900  1
  O  O7  1  0.99562500  0.76577600  0.18187400  1
  O  O8  1  0.92163200  0.75092500  0.40496600  1
  O  O9  1  0.67438400  0.51329300  0.58873300  1
  O  O10  1  0.63152500  0.47813600  0.91751600  1
  O  O11  1  0.81220900  0.67185600  0.58639900  1
  O  O12  1  0.67457800  0.67815600  0.23112100  1
  O  O13  1  0.66997500  0.66544400  0.73628700  1
  O  O14  1  0.66386600  0.82203600  0.07944500  1
  O  O15  1  0.48474800  0.62938200  0.41643400  1
  O  O16  1  0.51727200  0.67214200  0.08838000  1
  O  O17  1  0.74497600  0.91551200  0.90927800  1
  O  O18  1  0.78065200  0.00896200  0.49276200  1
  O  O19  1  0.79391300  0.98738500  0.67423600  1
  O  O20  1  0.76374700  0.00134000  0.31247100  1
  O  O21  1  0.62988200  0.88741300  0.41643300  1
  O  O22  1  0.51472200  0.81037000  0.58860000  1
  O  O23  1  0.66705400  0.07649900  0.08747000  1
  O  O24  1  0.48383400  0.88946000  0.92056000  1
  O  O25  1  0.33130200  0.74986500  0.90635800  1
  O  O26  1  0.78841200  0.21158800  0.00000000  1
  O  O27  1  0.78294800  0.22699400  0.81656600  1
  O  O28  1  0.23393300  0.76750200  0.68339400  1
  O  O29  1  0.67077400  0.25047100  0.59576600  1
  O  O30  1  0.52611900  0.10320200  0.58747800  1
  O  O31  1  0.32933500  0.92188000  0.40559400  1
  O  O32  1  0.47013400  0.18509500  0.92276900  1
  O  O33  1  0.37733500  0.10077000  0.08268100  1
  O  O34  1  0.22632100  0.00092100  0.18171500  1
  O  O35  1  0.23422400  0.00437500  0.81812600  1
  O  O36  1  0.21515700  0.99979800  0.99981600  1
  O  O37  1  0.24907500  0.07836800  0.59503400  1
  O  O38  1  0.48670700  0.32561600  0.41126700  1
  O  O39  1  0.52186400  0.36847500  0.08248400  1
  O  O40  1  0.32814400  0.18779100  0.41360100  1
  O  O41  1  0.33455600  0.33002500  0.26371300  1
  O  O42  1  0.32184400  0.32542200  0.76887900  1
  O  O43  1  0.17796400  0.33613400  0.92055500  1
  O  O44  1  0.37061800  0.51525200  0.58356600  1
  O  O45  1  0.32785800  0.48272800  0.91162000  1
  O  O46  1  0.08448800  0.25502400  0.09072200  1
  O  O47  1  0.99103800  0.21934800  0.50723800  1
  O  O48  1  0.01261500  0.20608700  0.32576400  1
  O  O49  1  0.11258700  0.37011800  0.58356700  1
  O  O50  1  0.18963000  0.48527800  0.41140000  1
  O  O51  1  0.11054000  0.51616600  0.07944000  1
  O  O52  1  0.25013500  0.66869800  0.09364200  1
  O  O53  1  0.23249800  0.76606700  0.31660600  1
  O  O54  1  0.21702800  0.78297200  0.50000000  1
  O  O55  1  0.07812000  0.67066500  0.59440600  1
  O  O56  1  0.99907900  0.77367900  0.81828500  1
  O  O57  1  0.00020200  0.78484300  0.00018400  1
loop_
_geom_bond_atom_site_label_1
_geom_bond_atom_site_label_2
_geom_bond_distance
_geom_bond_site_symmetry_2
Li0 O29 1.974619 1_555
Li0 O0 1.994555 1_555
Li0 O9 2.034962 1_555
Li0 O27 2.064448 1_555
Li1 O19 1.911390 1_555
Li1 O55 1.950440 1_655
Li1 O11 2.060329 1_555
Li1 O56 2.128136 1_555
Li2 O13 1.817573 1_555
Li2 O10 2.157208 1_555
Li2 O24 2.194303 1_555
Li2 O6 2.208198 1_555
Li3 O12 1.905216 1_555
Li3 O4 2.127047 1_555
Li3 O15 2.151464 1_555
Li3 O21 2.174618 1_555
Li4 O20 1.966783 1_565
Li4 O7 1.974394 1_555
Li4 O23 2.012686 1_565
Li4 O14 2.197026 1_555
Li5 O34 1.984356 1_565
Li5 O53 1.997964 1_555
Li5 O52 2.002159 1_555
Li5 O16 2.155975 1_555
Li6 O37 1.942071 1_565
Li6 O28 1.973616 1_555
Li6 O22 2.078509 1_555
Li6 O35 2.087686 1_565
Li7 O3 1.974619 1_555
Li7 O20 1.994555 1_555
Li7 O38 2.034962 1_555
Li7 O2 2.064448 1_555
Li8 O48 1.911390 1_555
Li8 O31 1.950440 1_545
Li8 O40 2.060329 1_555
Li8 O34 2.128136 1_555
Li9 O42 1.905216 1_555
Li9 O30 2.127047 1_555
Li9 O44 2.151464 1_555
Li9 O49 2.174618 1_555
Li10 O41 1.817573 1_555
Li10 O39 2.157208 1_555
Li10 O51 2.194303 1_555
Li10 O33 2.208198 1_555
Li11 O0 1.966783 1_455
Li11 O35 1.974394 1_555
Li11 O1 2.012686 1_455
Li11 O43 2.197026 1_555
Li12 O56 1.984356 1_455
Li12 O28 1.997964 1_555
Li12 O25 2.002159 1_555
Li12 O45 2.155975 1_555
Li13 O8 1.942071 1_455
Li13 O53 1.973616 1_555
Li13 O50 2.078509 1_555
Li13 O7 2.087686 1_455
Li14 O48 1.935576 1_655
Li14 O2 2.024462 1_555
Li14 O34 2.363847 1_655
Li15 O19 1.935576 1_545
Li15 O27 2.024462 1_555
Li15 O56 2.363847 1_545
O0 P13 1.526285 1_655
O1 P1 1.547348 1_555
O1 V4 1.990109 1_556
O2 P8 1.499413 1_555
O3 P0 1.535051 1_555
O3 V2 2.056841 1_555
O4 P0 1.541101 1_555
O4 V5 2.048389 1_655
O5 P3 1.589696 1_555
O5 V4 1.844907 1_555
O6 P2 1.548133 1_555
O6 V4 2.004484 1_556
O7 P15 1.502980 1_655
O8 P5 1.530119 1_555
O8 V5 2.070688 1_655
O9 P4 1.559474 1_555
O9 V2 2.033447 1_555
O10 P1 1.546513 1_555
O10 V3 2.021996 1_556
O11 P4 1.571169 1_555
O11 V5 2.020099 1_655
O12 P3 1.491542 1_555
O13 P4 1.520858 1_555
O14 P3 1.581618 1_555
O14 V0 1.945040 1_564
O15 P7 1.541061 1_555
O15 V2 2.037682 1_555
O16 P3 1.550179 1_555
O16 V3 2.042125 1_555
O17 P2 1.527548 1_555
O17 V0 1.948911 1_565
O18 P5 1.602346 1_545
O18 P6 1.624020 1_555
O19 P6 1.511397 1_565
O20 P5 1.526285 1_545
O21 P5 1.542286 1_555
O21 V1 2.028163 1_555
O22 P4 1.559188 1_555
O22 V1 2.024620 1_555
O23 P8 1.547348 1_555
O23 V0 1.990109 1_554
O24 P9 1.558181 1_555
O24 V0 1.967934 1_565
O25 P9 1.531725 1_555
O25 V3 2.057995 1_556
O26 P1 1.615463 1_554
O26 P8 1.615463 1_555
O27 P1 1.499413 1_555
O28 P14 1.523758 1_555
O29 P6 1.535051 1_555
O29 V2 2.056841 1_555
O30 P6 1.541101 1_555
O30 V1 2.048389 1_545
O31 P7 1.532603 1_555
O31 V1 2.073556 1_555
O32 P11 1.589696 1_555
O32 V0 1.844907 1_555
O33 P10 1.548133 1_555
O33 V0 2.004484 1_554
O34 P10 1.509165 1_555
O35 P9 1.502980 1_545
O36 P9 1.608709 1_555
O36 P10 1.616501 1_566
O37 P13 1.530119 1_555
O37 V1 2.070688 1_545
O38 P12 1.559474 1_555
O38 V2 2.033447 1_555
O39 P8 1.546513 1_555
O39 V3 2.021996 1_555
O40 P12 1.571169 1_555
O40 V1 2.020099 1_545
O41 P12 1.520858 1_555
O42 P11 1.491542 1_555
O43 P11 1.581618 1_555
O43 V4 1.945040 1_456
O44 P14 1.541061 1_555
O44 V2 2.037682 1_555
O45 P11 1.550179 1_555
O45 V3 2.042125 1_556
O46 P10 1.527548 1_555
O46 V4 1.948911 1_455
O47 P13 1.602346 1_655
O47 P0 1.624020 1_555
O48 P0 1.511397 1_455
O49 P13 1.542286 1_555
O49 V5 2.028163 1_555
O50 P12 1.559188 1_555
O50 V5 2.024620 1_555
O51 P15 1.558181 1_555
O51 V4 1.967934 1_455
O52 P15 1.531725 1_555
O52 V3 2.057995 1_555
O53 P7 1.523758 1_555
O54 P7 1.620625 1_555
O54 P14 1.620625 1_555
O55 P14 1.532603 1_555
O55 V5 2.073556 1_555
O56 P2 1.509165 1_555
O57 P15 1.608709 1_555
O57 P2 1.616501 1_454
