# generated using pymatgen
data_CaTiO3
_symmetry_space_group_name_H-M   'P 1'
_cell_length_a   5.92377492
_cell_length_b   5.92377492
_cell_length_c   5.92377510
_cell_angle_alpha   53.59156917
_cell_angle_beta   53.59156917
_cell_angle_gamma   53.59156818
_symmetry_Int_Tables_number   1
_chemical_formula_structural   CaTiO3
_chemical_formula_sum   'Ca2 Ti2 O6'
_cell_volume   124.95341698
_cell_formula_units_Z   2
loop_
 _symmetry_equiv_pos_site_id
 _symmetry_equiv_pos_as_xyz
  1  'x, y, z'
loop_
 _atom_site_type_symbol
 _atom_site_label
 _atom_site_symmetry_multiplicity
 _atom_site_fract_x
 _atom_site_fract_y
 _atom_site_fract_z
 _atom_site_occupancy
  Ca  Ca0  1  0.63667900  0.63667900  0.63667900  1
  Ca  Ca1  1  0.36332100  0.36332100  0.36332100  1
  Ti  Ti0  1  0.85079300  0.85079300  0.85079300  1
  Ti  Ti1  1  0.14920700  0.14920700  0.14920700  1
  O  O0  1  0.18620100  0.56523800  0.97336800  1
  O  O1  1  0.97336800  0.18620100  0.56523800  1
  O  O2  1  0.43476200  0.02663200  0.81379900  1
  O  O3  1  0.56523800  0.97336800  0.18620100  1
  O  O4  1  0.02663200  0.81379900  0.43476200  1
  O  O5  1  0.81379900  0.43476200  0.02663200  1
loop_
_geom_bond_atom_site_label_1
_geom_bond_atom_site_label_2
_geom_bond_distance
_geom_bond_site_symmetry_2
Ca0 O1 2.301895 1_555
Ca0 O0 2.301895 1_555
Ca0 O3 2.301895 1_555
Ca0 O4 2.444393 1_655
Ca0 O2 2.444393 1_565
Ca0 O5 2.444393 1_556
Ca1 O4 2.301895 1_555
Ca1 O5 2.301895 1_555
Ca1 O2 2.301895 1_555
Ca1 O1 2.444393 1_455
Ca1 O3 2.444393 1_545
Ca1 O0 2.444393 1_554
O0 Ti0 1.897678 1_455
O0 Ti1 2.128258 1_556
O1 Ti0 1.897678 1_545
O1 Ti1 2.128259 1_655
O2 Ti1 1.897678 1_556
O2 Ti0 2.128258 1_545
O3 Ti0 1.897678 1_554
O3 Ti1 2.128258 1_565
O4 Ti1 1.897678 1_565
O4 Ti0 2.128259 1_455
O5 Ti1 1.897678 1_655
O5 Ti0 2.128258 1_554
