# generated using pymatgen
data_Sr3La2Cl12
_symmetry_space_group_name_H-M   'P 1'
_cell_length_a   8.68947214
_cell_length_b   8.68947214
_cell_length_c   15.53471428
_cell_angle_alpha   79.50233762
_cell_angle_beta   79.50233762
_cell_angle_gamma   109.93886877
_symmetry_Int_Tables_number   1
_chemical_formula_structural   Sr3La2Cl12
_chemical_formula_sum   'Sr6 La4 Cl24'
_cell_volume   1045.64741055
_cell_formula_units_Z   2
loop_
 _symmetry_equiv_pos_site_id
 _symmetry_equiv_pos_as_xyz
  1  'x, y, z'
loop_
 _atom_site_type_symbol
 _atom_site_label
 _atom_site_symmetry_multiplicity
 _atom_site_fract_x
 _atom_site_fract_y
 _atom_site_fract_z
 _atom_site_occupancy
  Sr  Sr0  1  0.54830200  0.79232400  0.92326500  1
  Sr  Sr1  1  0.79232400  0.54830200  0.42326500  1
  Sr  Sr2  1  0.11911000  0.88089000  0.75000000  1
  Sr  Sr3  1  0.88089000  0.11911000  0.25000000  1
  Sr  Sr4  1  0.20767600  0.45169800  0.57673500  1
  Sr  Sr5  1  0.45169800  0.20767600  0.07673500  1
  La  La0  1  0.70047400  0.95709800  0.59417600  1
  La  La1  1  0.95709800  0.70047400  0.09417600  1
  La  La2  1  0.04290200  0.29952600  0.90582400  1
  La  La3  1  0.29952600  0.04290200  0.40582400  1
  Cl  Cl0  1  0.48462100  0.95438900  0.75715900  1
  Cl  Cl1  1  0.76682300  0.76820400  0.74546100  1
  Cl  Cl2  1  0.11753400  0.66588700  0.91997300  1
  Cl  Cl3  1  0.81802000  0.31656500  0.57978600  1
  Cl  Cl4  1  0.90696400  0.93023800  0.92609600  1
  Cl  Cl5  1  0.56377700  0.62425100  0.57398800  1
  Cl  Cl6  1  0.95438900  0.48462100  0.25715900  1
  Cl  Cl7  1  0.37574900  0.43622300  0.92601200  1
  Cl  Cl8  1  0.06976200  0.09303600  0.57390400  1
  Cl  Cl9  1  0.68343500  0.18198000  0.92021400  1
  Cl  Cl10  1  0.33411300  0.88246600  0.58002700  1
  Cl  Cl11  1  0.76820400  0.76682300  0.24546100  1
  Cl  Cl12  1  0.23179600  0.23317700  0.75453900  1
  Cl  Cl13  1  0.66588700  0.11753400  0.41997300  1
  Cl  Cl14  1  0.31656500  0.81802000  0.07978600  1
  Cl  Cl15  1  0.93023800  0.90696400  0.42609600  1
  Cl  Cl16  1  0.62425100  0.56377700  0.07398800  1
  Cl  Cl17  1  0.04561100  0.51537900  0.74284100  1
  Cl  Cl18  1  0.43622300  0.37574900  0.42601200  1
  Cl  Cl19  1  0.09303600  0.06976200  0.07390400  1
  Cl  Cl20  1  0.18198000  0.68343500  0.42021400  1
  Cl  Cl21  1  0.88246600  0.33411300  0.08002700  1
  Cl  Cl22  1  0.23317700  0.23179600  0.25453900  1
  Cl  Cl23  1  0.51537900  0.04561100  0.24284100  1
loop_
_geom_bond_atom_site_label_1
_geom_bond_atom_site_label_2
_geom_bond_distance
_geom_bond_site_symmetry_2
Cl0 La0 2.854260 1_555
Cl0 Sr0 2.945428 1_555
Cl0 Sr2 3.046140 1_555
Cl1 La0 2.878082 1_555
Cl1 Sr2 2.897254 1_655
Cl1 Sr0 3.138486 1_555
Cl2 La1 2.926556 1_456
Cl2 Sr2 2.938457 1_555
Cl2 La2 3.082578 1_555
Cl2 Sr0 3.536412 1_555
Cl3 La0 2.887274 1_545
Cl3 Sr1 2.955894 1_555
Cl3 Sr4 3.170962 1_655
Cl4 Sr0 2.944995 1_555
Cl4 La2 2.950019 1_665
Cl4 La1 3.178319 1_556
Cl4 Sr2 3.192905 1_655
Cl5 La0 2.828005 1_555
Cl5 Sr4 2.930711 1_555
Cl5 Sr1 3.102330 1_555
Cl6 La1 2.854260 1_555
Cl6 Sr1 2.945428 1_555
Cl6 Sr3 3.046140 1_555
Cl7 La2 2.828005 1_555
Cl7 Sr0 2.930711 1_555
Cl7 Sr5 3.102330 1_556
Cl8 Sr4 2.944995 1_555
Cl8 La0 2.950019 1_445
Cl8 La3 3.178319 1_555
Cl8 Sr2 3.192905 1_545
Cl9 La2 2.887274 1_655
Cl9 Sr5 2.955894 1_556
Cl9 Sr0 3.170962 1_545
Cl10 La3 2.926556 1_565
Cl10 Sr2 2.938457 1_555
Cl10 La0 3.082578 1_555
Cl10 Sr4 3.536412 1_555
Cl11 La1 2.878082 1_555
Cl11 Sr3 2.897254 1_565
Cl11 Sr1 3.138486 1_555
Cl12 La2 2.878082 1_555
Cl12 Sr2 2.897254 1_545
Cl12 Sr4 3.138486 1_555
Cl13 La0 2.926556 1_545
Cl13 Sr3 2.938457 1_555
Cl13 La3 3.082578 1_555
Cl13 Sr1 3.536412 1_555
Cl14 La1 2.887274 1_455
Cl14 Sr0 2.955894 1_554
Cl14 Sr5 3.170962 1_565
Cl15 Sr1 2.944995 1_555
Cl15 La3 2.950019 1_665
Cl15 La0 3.178319 1_555
Cl15 Sr3 3.192905 1_565
Cl16 La1 2.828005 1_555
Cl16 Sr5 2.930711 1_555
Cl16 Sr0 3.102330 1_554
Cl17 La2 2.854260 1_555
Cl17 Sr4 2.945428 1_555
Cl17 Sr2 3.046140 1_555
Cl18 La3 2.828005 1_555
Cl18 Sr1 2.930711 1_555
Cl18 Sr4 3.102330 1_555
Cl19 Sr5 2.944995 1_555
Cl19 La1 2.950019 1_445
Cl19 La2 3.178319 1_554
Cl19 Sr3 3.192905 1_455
Cl20 La3 2.887274 1_565
Cl20 Sr4 2.955894 1_555
Cl20 Sr1 3.170962 1_455
Cl21 La2 2.926556 1_654
Cl21 Sr3 2.938457 1_555
Cl21 La1 3.082578 1_555
Cl21 Sr5 3.536412 1_555
Cl22 La3 2.878082 1_555
Cl22 Sr3 2.897254 1_455
Cl22 Sr5 3.138486 1_555
Cl23 La3 2.854260 1_555
Cl23 Sr5 2.945428 1_555
Cl23 Sr3 3.046140 1_555
