# generated using pymatgen
data_Tm2SeO2
_symmetry_space_group_name_H-M   'P 1'
_cell_length_a   6.54944880
_cell_length_b   6.54944880
_cell_length_c   6.54944880
_cell_angle_alpha   146.46606267
_cell_angle_beta   146.46606267
_cell_angle_gamma   48.15501947
_symmetry_Int_Tables_number   1
_chemical_formula_structural   Tm2SeO2
_chemical_formula_sum   'Tm2 Se1 O2'
_cell_volume   85.38337499
_cell_formula_units_Z   1
loop_
 _symmetry_equiv_pos_site_id
 _symmetry_equiv_pos_as_xyz
  1  'x, y, z'
loop_
 _atom_site_type_symbol
 _atom_site_label
 _atom_site_symmetry_multiplicity
 _atom_site_fract_x
 _atom_site_fract_y
 _atom_site_fract_z
 _atom_site_occupancy
  Tm  Tm0  1  0.65790600  0.65790600  0.00000000  1
  Tm  Tm1  1  0.34209400  0.34209400  0.00000000  1
  Se  Se0  1  0.00000000  0.00000000  0.00000000  1
  O  O0  1  0.25000000  0.75000000  0.50000000  1
  O  O1  1  0.75000000  0.25000000  0.50000000  1
loop_
_geom_bond_atom_site_label_1
_geom_bond_atom_site_label_2
_geom_bond_distance
_geom_bond_site_symmetry_2
Se0 Tm1 3.271960 1_444
Se0 Tm0 3.271960 1_455
Se0 Tm1 3.271960 1_545
Se0 Tm1 3.271960 1_556
Se0 Tm0 3.271960 1_556
Se0 Tm1 3.271960 1_455
Se0 Tm0 3.271960 1_444
Se0 Tm0 3.271960 1_545
O0 Tm1 2.186960 1_566
O0 Tm0 2.186960 1_556
O0 Tm0 2.186960 1_455
O0 Tm1 2.186960 1_555
O1 Tm1 2.186960 1_656
O1 Tm0 2.186960 1_556
O1 Tm1 2.186960 1_555
O1 Tm0 2.186960 1_545
