# generated using pymatgen
data_Li32Mn3Cr13O48
_symmetry_space_group_name_H-M   'P 1'
_cell_length_a   5.02353900
_cell_length_b   8.73402519
_cell_length_c   19.50254571
_cell_angle_alpha   97.92975858
_cell_angle_beta   94.65203397
_cell_angle_gamma   89.43864619
_symmetry_Int_Tables_number   1
_chemical_formula_structural   Li32Mn3Cr13O48
_chemical_formula_sum   'Li32 Mn3 Cr13 O48'
_cell_volume   844.71318614
_cell_formula_units_Z   1
loop_
 _symmetry_equiv_pos_site_id
 _symmetry_equiv_pos_as_xyz
  1  'x, y, z'
loop_
 _atom_site_type_symbol
 _atom_site_label
 _atom_site_symmetry_multiplicity
 _atom_site_fract_x
 _atom_site_fract_y
 _atom_site_fract_z
 _atom_site_occupancy
  Li  Li0  1  0.98829400  0.16846900  0.24975500  1
  Li  Li1  1  0.87387000  0.37398600  0.37500900  1
  Li  Li2  1  0.75054000  0.25013200  0.00004000  1
  Li  Li3  1  0.74498500  0.92062400  0.99974700  1
  Li  Li4  1  0.99266000  0.16780100  0.74983300  1
  Li  Li5  1  0.75506200  0.57928600  0.49961600  1
  Li  Li6  1  0.87484800  0.37507700  0.87496000  1
  Li  Li7  1  0.75346500  0.24997100  0.50016700  1
  Li  Li8  1  0.74063400  0.92004800  0.50012900  1
  Li  Li9  1  0.62626200  0.12643000  0.12487800  1
  Li  Li10  1  0.75858900  0.57928800  0.99962000  1
  Li  Li11  1  0.51016300  0.33225000  0.25048500  1
  Li  Li12  1  0.62424700  0.12404200  0.62497500  1
  Li  Li13  1  0.49952900  0.00098500  0.25057100  1
  Li  Li14  1  0.49244700  0.66842300  0.24997700  1
  Li  Li15  1  0.50665700  0.33072300  0.75000900  1
  Li  Li16  1  0.37454700  0.87491600  0.37488600  1
  Li  Li17  1  0.50286000  0.99981700  0.75012200  1
  Li  Li18  1  0.25158300  0.74904000  0.99942800  1
  Li  Li19  1  0.48906200  0.66880100  0.74960000  1
  Li  Li20  1  0.24100100  0.42059400  0.00027100  1
  Li  Li21  1  0.37396700  0.87459600  0.87500400  1
  Li  Li22  1  0.25772400  0.08054200  0.49999800  1
  Li  Li23  1  0.25029000  0.75073000  0.49978000  1
  Li  Li24  1  0.12360600  0.62348100  0.12509200  1
  Li  Li25  1  0.24397600  0.41967400  0.50023800  1
  Li  Li26  1  0.00800600  0.83096000  0.25047300  1
  Li  Li27  1  0.25368800  0.07931400  0.99965600  1
  Li  Li28  1  0.12447200  0.62495400  0.62495800  1
  Li  Li29  1  0.00170300  0.50013300  0.24989000  1
  Li  Li30  1  0.00969100  0.83221400  0.75033800  1
  Li  Li31  1  0.00030600  0.50074100  0.74973400  1
  Mn  Mn0  1  0.87510200  0.04135900  0.87469700  1
  Mn  Mn1  1  0.37581700  0.54179300  0.37497900  1
  Mn  Mn2  1  0.12520900  0.29169700  0.62470100  1
  Cr  Cr0  1  0.86902600  0.70535600  0.37461000  1
  Cr  Cr1  1  0.87924900  0.03850100  0.37515800  1
  Cr  Cr2  1  0.87215400  0.71265400  0.87549900  1
  Cr  Cr3  1  0.62842100  0.79757600  0.12588600  1
  Cr  Cr4  1  0.62024200  0.46191200  0.12517500  1
  Cr  Cr5  1  0.63068600  0.78864900  0.62543700  1
  Cr  Cr6  1  0.61815900  0.45544700  0.62457900  1
  Cr  Cr7  1  0.37118500  0.21231400  0.37518800  1
  Cr  Cr8  1  0.38221700  0.53920300  0.87547600  1
  Cr  Cr9  1  0.36592400  0.20729000  0.87455300  1
  Cr  Cr10  1  0.12236200  0.95238500  0.12421300  1
  Cr  Cr11  1  0.13001600  0.28792100  0.12488900  1
  Cr  Cr12  1  0.12336100  0.96237000  0.62524900  1
  O  O0  1  0.96389400  0.10328100  0.06889800  1
  O  O1  1  0.93749900  0.78784600  0.06875200  1
  O  O2  1  0.92530400  0.42678900  0.06769900  1
  O  O3  1  0.96401900  0.10876000  0.56929000  1
  O  O4  1  0.81300100  0.96225600  0.18129800  1
  O  O5  1  0.82470000  0.32337400  0.18228600  1
  O  O6  1  0.92086700  0.78668600  0.56878700  1
  O  O7  1  0.93193800  0.42775200  0.56768600  1
  O  O8  1  0.78614100  0.64669800  0.18114500  1
  O  O9  1  0.71783000  0.85355900  0.31888100  1
  O  O10  1  0.83014700  0.96441200  0.68130300  1
  O  O11  1  0.82330400  0.32420600  0.68189400  1
  O  O12  1  0.67719900  0.53497600  0.31914200  1
  O  O13  1  0.67296100  0.17696300  0.31756700  1
  O  O14  1  0.78274000  0.64378800  0.68131300  1
  O  O15  1  0.71506300  0.85780000  0.81953400  1
  O  O16  1  0.46810500  0.60702300  0.06957800  1
  O  O17  1  0.56741100  0.71396700  0.43071800  1
  O  O18  1  0.57625100  0.07396600  0.43227600  1
  O  O19  1  0.67040700  0.53556500  0.81869000  1
  O  O20  1  0.68003300  0.17790700  0.81793500  1
  O  O21  1  0.43436500  0.92323800  0.06710600  1
  O  O22  1  0.41949900  0.28518500  0.06851400  1
  O  O23  1  0.53847200  0.39606100  0.43117700  1
  O  O24  1  0.46882400  0.60320300  0.56899900  1
  O  O25  1  0.58139700  0.71510400  0.93160800  1
  O  O26  1  0.57344000  0.07390000  0.93177300  1
  O  O27  1  0.31639000  0.82680900  0.18293400  1
  O  O28  1  0.33030400  0.46487100  0.18129700  1
  O  O29  1  0.42254900  0.92623900  0.56775200  1
  O  O30  1  0.42725000  0.28466400  0.56918300  1
  O  O31  1  0.53299200  0.39637700  0.93145700  1
  O  O32  1  0.28147600  0.14303600  0.18041500  1
  O  O33  1  0.21509900  0.35814500  0.31935800  1
  O  O34  1  0.32698500  0.82329700  0.68246800  1
  O  O35  1  0.31777200  0.46367000  0.68087000  1
  O  O36  1  0.18146100  0.67762200  0.31769300  1
  O  O37  1  0.16979900  0.03631700  0.31851600  1
  O  O38  1  0.28768500  0.14523400  0.68097500  1
  O  O39  1  0.21849600  0.35200500  0.81876900  1
  O  O40  1  0.07344500  0.57403600  0.43186100  1
  O  O41  1  0.08019700  0.21413900  0.43109100  1
  O  O42  1  0.17425100  0.67581300  0.81801600  1
  O  O43  1  0.17529500  0.03289200  0.81877000  1
  O  O44  1  0.03223000  0.89365800  0.43114100  1
  O  O45  1  0.07449700  0.57271200  0.93233400  1
  O  O46  1  0.07054300  0.21343400  0.93049600  1
  O  O47  1  0.03860700  0.89629600  0.93122400  1
loop_
_geom_bond_atom_site_label_1
_geom_bond_atom_site_label_2
_geom_bond_distance
_geom_bond_site_symmetry_2
Li0 O37 2.042065 1_655
Li0 O32 2.069063 1_655
Li0 O5 2.128668 1_555
Li0 O13 2.138763 1_555
Li0 O4 2.231290 1_545
Li0 O33 2.247411 1_655
Li1 O23 2.076221 1_555
Li1 O12 2.088348 1_555
Li1 O33 2.095520 1_655
Li1 O41 2.104467 1_655
Li1 O13 2.133898 1_555
Li1 O40 2.146354 1_655
Li2 O2 2.041914 1_555
Li2 O26 2.050008 1_554
Li2 O46 2.179466 1_654
Li2 O0 2.193636 1_555
Li2 O31 2.195863 1_554
Li2 O22 2.209090 1_555
Li3 O47 2.059607 1_655
Li3 O1 2.070940 1_556
Li3 O21 2.117704 1_556
Li3 O26 2.138678 1_565
Li3 O0 2.184804 1_566
Li3 O25 2.203850 1_555
Li4 O43 2.062405 1_655
Li4 O38 2.069507 1_655
Li4 O20 2.131089 1_555
Li4 O11 2.153892 1_555
Li4 O10 2.191966 1_545
Li4 O39 2.207826 1_655
Li5 O24 2.043039 1_555
Li5 O17 2.070446 1_555
Li5 O7 2.138675 1_555
Li5 O40 2.151967 1_655
Li5 O23 2.176120 1_555
Li5 O6 2.228892 1_555
Li6 O46 2.086792 1_655
Li6 O19 2.106479 1_555
Li6 O31 2.107600 1_555
Li6 O39 2.112077 1_655
Li6 O20 2.118547 1_555
Li6 O45 2.134591 1_655
Li7 O18 2.045174 1_555
Li7 O7 2.054364 1_555
Li7 O3 2.158498 1_555
Li7 O23 2.194494 1_555
Li7 O30 2.196483 1_555
Li7 O41 2.199792 1_655
Li8 O6 2.045103 1_555
Li8 O44 2.058304 1_655
Li8 O18 2.128873 1_565
Li8 O29 2.148487 1_555
Li8 O3 2.229917 1_565
Li8 O17 2.235340 1_555
Li9 O0 2.083824 1_555
Li9 O4 2.094841 1_545
Li9 O22 2.101640 1_555
Li9 O32 2.109547 1_555
Li9 O5 2.127726 1_555
Li9 O21 2.157288 1_545
Li10 O25 2.044685 1_555
Li10 O16 2.067467 1_556
Li10 O2 2.126965 1_556
Li10 O45 2.135183 1_655
Li10 O31 2.192905 1_555
Li10 O1 2.258648 1_556
Li11 O28 2.047380 1_555
Li11 O33 2.070026 1_555
Li11 O13 2.124664 1_555
Li11 O5 2.140510 1_555
Li11 O12 2.196537 1_555
Li11 O32 2.253384 1_555
Li12 O38 2.079236 1_555
Li12 O30 2.085822 1_555
Li12 O3 2.089687 1_555
Li12 O10 2.104879 1_545
Li12 O29 2.139079 1_545
Li12 O11 2.146452 1_555
Li13 O13 2.028814 1_555
Li13 O27 2.043902 1_545
Li13 O4 2.151276 1_545
Li13 O32 2.193135 1_555
Li13 O37 2.197273 1_555
Li13 O9 2.200923 1_545
Li14 O12 2.061282 1_555
Li14 O8 2.064047 1_555
Li14 O36 2.119925 1_555
Li14 O27 2.166324 1_555
Li14 O28 2.193761 1_555
Li14 O9 2.211763 1_555
Li15 O39 2.041852 1_555
Li15 O35 2.066320 1_555
Li15 O20 2.138417 1_555
Li15 O11 2.149033 1_555
Li15 O38 2.200032 1_555
Li15 O19 2.204671 1_555
Li16 O17 2.079646 1_555
Li16 O44 2.106796 1_555
Li16 O9 2.108241 1_555
Li16 O37 2.114118 1_565
Li16 O36 2.116893 1_555
Li16 O18 2.148374 1_565
Li17 O34 2.043218 1_555
Li17 O20 2.056511 1_565
Li17 O15 2.170429 1_555
Li17 O38 2.193016 1_565
Li17 O43 2.196584 1_565
Li17 O10 2.198553 1_555
Li18 O45 2.038955 1_555
Li18 O21 2.043708 1_556
Li18 O1 2.154383 1_456
Li18 O47 2.186858 1_555
Li18 O16 2.189466 1_556
Li18 O25 2.195464 1_555
Li19 O19 2.052413 1_555
Li19 O14 2.056688 1_555
Li19 O34 2.119165 1_555
Li19 O42 2.145446 1_555
Li19 O35 2.219803 1_555
Li19 O15 2.244636 1_555
Li20 O22 2.047931 1_555
Li20 O31 2.057263 1_554
Li20 O45 2.122371 1_554
Li20 O2 2.136423 1_455
Li20 O16 2.226848 1_555
Li20 O46 2.240696 1_554
Li21 O47 2.076610 1_555
Li21 O43 2.079447 1_565
Li21 O15 2.092823 1_555
Li21 O25 2.110500 1_555
Li21 O42 2.139383 1_555
Li21 O26 2.140672 1_565
Li22 O41 2.044671 1_555
Li22 O3 2.070812 1_455
Li22 O29 2.130704 1_545
Li22 O18 2.151321 1_555
Li22 O30 2.214466 1_555
Li22 O44 2.221589 1_545
Li23 O29 2.033504 1_555
Li23 O40 2.048746 1_555
Li23 O17 2.161889 1_555
Li23 O44 2.178689 1_555
Li23 O6 2.209726 1_455
Li23 O24 2.213509 1_555
Li24 O8 2.083938 1_455
Li24 O1 2.093925 1_455
Li24 O28 2.098795 1_555
Li24 O16 2.108062 1_555
Li24 O2 2.125690 1_455
Li24 O27 2.160534 1_555
Li25 O30 2.064335 1_555
Li25 O23 2.070225 1_555
Li25 O7 2.121116 1_455
Li25 O40 2.148941 1_555
Li25 O24 2.200062 1_555
Li25 O41 2.213381 1_555
Li26 O9 2.044736 1_455
Li26 O4 2.070068 1_455
Li26 O27 2.110203 1_555
Li26 O36 2.132550 1_555
Li26 O37 2.198962 1_565
Li26 O8 2.202417 1_455
Li27 O0 2.054661 1_456
Li27 O46 2.061905 1_555
Li27 O26 2.158996 1_555
Li27 O21 2.165480 1_546
Li27 O47 2.171411 1_545
Li27 O22 2.216297 1_556
Li28 O35 2.083638 1_555
Li28 O14 2.105400 1_455
Li28 O6 2.111514 1_455
Li28 O24 2.112378 1_555
Li28 O7 2.115703 1_455
Li28 O34 2.146452 1_555
Li29 O5 2.046325 1_455
Li29 O36 2.057972 1_555
Li29 O33 2.173601 1_555
Li29 O12 2.192744 1_455
Li29 O8 2.195373 1_455
Li29 O28 2.200885 1_555
Li30 O10 2.042273 1_455
Li30 O15 2.072681 1_455
Li30 O42 2.142394 1_555
Li30 O34 2.147108 1_555
Li30 O43 2.179069 1_565
Li30 O14 2.235376 1_455
Li31 O42 2.037303 1_555
Li31 O11 2.047343 1_455
Li31 O35 2.160849 1_555
Li31 O14 2.175485 1_455
Li31 O19 2.210506 1_455
Li31 O39 2.217422 1_555
Mn0 O43 1.926567 1_655
Mn0 O47 1.927006 1_645
Mn0 O20 1.942543 1_555
Mn0 O15 1.945016 1_545
Mn0 O26 1.947868 1_555
Mn0 O46 1.952241 1_655
Mn1 O23 1.925679 1_555
Mn1 O12 1.931158 1_555
Mn1 O36 1.942913 1_555
Mn1 O17 1.943448 1_555
Mn1 O40 1.948331 1_555
Mn1 O33 1.950524 1_555
Mn2 O30 1.929937 1_555
Mn2 O38 1.930972 1_555
Mn2 O7 1.938553 1_455
Mn2 O3 1.945094 1_455
Mn2 O35 1.947921 1_555
Mn2 O11 1.950258 1_455
Cr0 O9 1.915373 1_555
Cr0 O12 1.930837 1_555
Cr0 O17 1.934629 1_555
Cr0 O40 1.939325 1_655
Cr0 O36 1.988773 1_655
Cr0 O44 1.992989 1_655
Cr1 O37 1.899006 1_655
Cr1 O44 1.899732 1_645
Cr1 O18 1.955574 1_555
Cr1 O9 1.965566 1_545
Cr1 O41 1.988015 1_655
Cr1 O13 1.989804 1_555
Cr2 O25 1.893015 1_555
Cr2 O15 1.908819 1_555
Cr2 O42 1.957113 1_655
Cr2 O47 1.962348 1_655
Cr2 O45 1.980519 1_655
Cr2 O19 2.005661 1_555
Cr3 O4 1.879128 1_555
Cr3 O21 1.901044 1_555
Cr3 O8 1.938707 1_555
Cr3 O1 1.977747 1_555
Cr3 O27 1.989157 1_555
Cr3 O16 2.000732 1_555
Cr4 O28 1.889479 1_555
Cr4 O16 1.895220 1_555
Cr4 O2 1.968163 1_555
Cr4 O8 1.970665 1_555
Cr4 O5 1.980287 1_555
Cr4 O22 1.999920 1_555
Cr5 O14 1.896894 1_555
Cr5 O6 1.897746 1_555
Cr5 O34 1.956944 1_555
Cr5 O24 1.970990 1_555
Cr5 O10 1.984751 1_555
Cr5 O29 1.990125 1_555
Cr6 O24 1.907415 1_555
Cr6 O30 1.930597 1_555
Cr6 O35 1.931916 1_555
Cr6 O11 1.941375 1_555
Cr6 O7 1.994108 1_555
Cr6 O14 1.997453 1_555
Cr7 O41 1.891822 1_555
Cr7 O33 1.909778 1_555
Cr7 O13 1.956475 1_555
Cr7 O23 1.966760 1_555
Cr7 O18 1.980311 1_555
Cr7 O37 1.997060 1_555
Cr8 O31 1.882793 1_555
Cr8 O19 1.890211 1_555
Cr8 O45 1.970922 1_555
Cr8 O42 1.981273 1_555
Cr8 O25 1.987025 1_555
Cr8 O39 1.988119 1_555
Cr9 O39 1.886802 1_555
Cr9 O46 1.907866 1_555
Cr9 O43 1.955276 1_555
Cr9 O26 1.958460 1_555
Cr9 O20 1.992862 1_555
Cr9 O31 2.008426 1_555
Cr10 O1 1.879334 1_455
Cr10 O27 1.899749 1_555
Cr10 O0 1.940842 1_465
Cr10 O4 1.978283 1_455
Cr10 O21 1.989705 1_555
Cr10 O32 1.998351 1_565
Cr11 O22 1.890919 1_555
Cr11 O32 1.891687 1_555
Cr11 O5 1.968476 1_455
Cr11 O0 1.970313 1_455
Cr11 O2 1.983785 1_455
Cr11 O28 1.998226 1_555
Cr12 O10 1.902720 1_455
Cr12 O3 1.920877 1_465
Cr12 O29 1.944836 1_555
Cr12 O38 1.953150 1_565
Cr12 O34 1.982808 1_555
Cr12 O6 1.996113 1_455
