# generated using pymatgen
data_LiV3O5F3
_symmetry_space_group_name_H-M   'P 1'
_cell_length_a   3.83493200
_cell_length_b   6.65582400
_cell_length_c   12.05330115
_cell_angle_alpha   77.40558769
_cell_angle_beta   90.00000000
_cell_angle_gamma   90.00000000
_symmetry_Int_Tables_number   1
_chemical_formula_structural   LiV3O5F3
_chemical_formula_sum   'Li2 V6 O10 F6'
_cell_volume   300.25327071
_cell_formula_units_Z   2
loop_
 _symmetry_equiv_pos_site_id
 _symmetry_equiv_pos_as_xyz
  1  'x, y, z'
loop_
 _atom_site_type_symbol
 _atom_site_label
 _atom_site_symmetry_multiplicity
 _atom_site_fract_x
 _atom_site_fract_y
 _atom_site_fract_z
 _atom_site_occupancy
  Li  Li0  1  0.00000000  0.18137800  0.31263000  1
  Li  Li1  1  0.50000000  0.81188400  0.67897300  1
  V  V0  1  0.50000000  0.13561200  0.05633400  1
  V  V1  1  0.50000000  0.32123600  0.54420700  1
  V  V2  1  0.50000000  0.27054200  0.79860100  1
  V  V3  1  0.00000000  0.72713700  0.20100700  1
  V  V4  1  0.00000000  0.68007000  0.46106600  1
  V  V5  1  0.00000000  0.92041800  0.92477000  1
  O  O0  1  0.00000000  0.03476900  0.06958400  1
  O  O1  1  0.50000000  0.12606800  0.67049100  1
  O  O2  1  0.00000000  0.18173100  0.82893700  1
  O  O3  1  0.00000000  0.49190100  0.27998900  1
  O  O4  1  0.00000000  0.38809100  0.52402300  1
  O  O5  1  0.50000000  0.35184600  0.95345400  1
  O  O6  1  0.50000000  0.61605000  0.47603200  1
  O  O7  1  0.50000000  0.50113500  0.71054500  1
  O  O8  1  0.00000000  0.86402400  0.32959700  1
  O  O9  1  0.50000000  0.96658000  0.93539700  1
  F  F0  1  0.50000000  0.20567300  0.19922600  1
  F  F1  1  0.50000000  0.17967900  0.42643400  1
  F  F2  1  0.00000000  0.66153500  0.04664600  1
  F  F3  1  0.50000000  0.79450900  0.17569900  1
  F  F4  1  0.00000000  0.82134300  0.57938200  1
  F  F5  1  0.00000000  0.76678800  0.81698100  1
loop_
_geom_bond_atom_site_label_1
_geom_bond_atom_site_label_2
_geom_bond_distance
_geom_bond_site_symmetry_2
Li0 O3 2.017867 1_555
Li0 O8 2.077270 1_545
Li1 O7 2.019752 1_555
Li1 O1 2.071266 1_565
O0 V0 2.026311 1_455
O0 V0 2.026311 1_555
O0 V5 2.050694 1_544
O0 V3 2.299409 1_545
O1 V1 1.772580 1_555
O1 V2 1.989118 1_555
O2 V5 1.866318 1_545
O2 V2 2.016316 1_555
O2 V2 2.016316 1_455
O3 V3 1.645498 1_555
O4 V4 1.925975 1_555
O4 V1 1.971460 1_555
O4 V1 1.971460 1_455
O5 V0 1.682484 1_556
O5 V2 2.053557 1_555
O6 V1 1.955101 1_555
O6 V4 1.963991 1_555
O6 V4 1.963991 1_655
O7 V2 1.664836 1_555
O8 V4 1.778774 1_555
O8 V3 1.961688 1_555
O9 V5 1.950550 1_655
O9 V5 1.950550 1_555
O9 V0 2.026272 1_566
O9 V2 2.314510 1_565
F0 V0 1.879916 1_555
F0 Li0 2.339835 1_555
F0 Li0 2.339835 1_655
F1 V1 1.867110 1_555
F1 Li0 2.356191 1_555
F1 Li0 2.356191 1_655
F2 V3 2.001652 1_555
F2 V5 2.005775 1_554
F3 V3 1.977664 1_555
F3 V3 1.977664 1_655
F3 V0 2.408292 1_565
F4 V4 1.871544 1_555
F4 Li1 2.255802 1_455
F4 Li1 2.255802 1_555
F5 V5 1.820132 1_555
F5 Li1 2.513186 1_555
F5 Li1 2.513186 1_455
