# generated using pymatgen
data_Cr3O4
_symmetry_space_group_name_H-M   'P 1'
_cell_length_a   5.84866274
_cell_length_b   6.13913651
_cell_length_c   5.84861808
_cell_angle_alpha   118.02027318
_cell_angle_beta   90.98834742
_cell_angle_gamma   117.80369888
_symmetry_Int_Tables_number   1
_chemical_formula_structural   Cr3O4
_chemical_formula_sum   'Cr6 O8'
_cell_volume   156.28723262
_cell_formula_units_Z   2
loop_
 _symmetry_equiv_pos_site_id
 _symmetry_equiv_pos_as_xyz
  1  'x, y, z'
loop_
 _atom_site_type_symbol
 _atom_site_label
 _atom_site_symmetry_multiplicity
 _atom_site_fract_x
 _atom_site_fract_y
 _atom_site_fract_z
 _atom_site_occupancy
  Cr  Cr0  1  0.50000600  0.50006300  0.00003700  1
  Cr  Cr1  1  0.50001300  0.00006700  0.00006200  1
  Cr  Cr2  1  0.99988500  0.49993300  0.49999500  1
  Cr  Cr3  1  0.00013900  0.00002100  0.00009300  1
  Cr  Cr4  1  0.49980200  0.50012700  0.49997200  1
  Cr  Cr5  1  0.50012900  0.99984900  0.49971600  1
  O  O0  1  0.28821500  0.05352000  0.26722200  1
  O  O1  1  0.28625400  0.55348500  0.76537000  1
  O  O2  1  0.71372200  0.44649900  0.23475400  1
  O  O3  1  0.71184200  0.94654100  0.73276600  1
  O  O4  1  0.76433000  0.04799800  0.26928300  1
  O  O5  1  0.72118800  0.45194000  0.71625100  1
  O  O6  1  0.27877900  0.54806700  0.28372800  1
  O  O7  1  0.23569500  0.95189000  0.73075000  1
loop_
_geom_bond_atom_site_label_1
_geom_bond_atom_site_label_2
_geom_bond_distance
_geom_bond_site_symmetry_2
Cr0 O1 2.073738 1_554
Cr0 O2 2.074464 1_555
Cr0 O6 2.117613 1_555
Cr0 O5 2.117878 1_554
Cr0 O4 2.504568 1_565
Cr0 O7 2.505676 1_544
Cr1 O7 2.002500 1_544
Cr1 O4 2.003000 1_555
Cr1 O0 2.011924 1_555
Cr1 O3 2.012655 1_544
Cr1 O2 2.041644 1_555
Cr1 O1 2.042318 1_544
Cr2 O2 2.058012 1_555
Cr2 O1 2.058992 1_655
Cr2 O4 2.066172 1_555
Cr2 O7 2.066317 1_655
Cr2 O5 2.077660 1_555
Cr2 O6 2.078598 1_655
Cr3 O0 2.073247 1_555
Cr3 O3 2.075022 1_444
Cr3 O7 2.117580 1_544
Cr3 O4 2.117953 1_455
Cr3 O6 2.505065 1_555
Cr3 O5 2.505270 1_444
Cr4 O6 2.001361 1_555
Cr4 O5 2.004127 1_555
Cr4 O1 2.011817 1_555
Cr4 O2 2.012771 1_555
Cr4 O3 2.041518 1_555
Cr4 O0 2.042477 1_555
Cr5 O3 2.058418 1_555
Cr5 O0 2.058512 1_565
Cr5 O6 2.065513 1_555
Cr5 O5 2.066885 1_565
Cr5 O4 2.076406 1_565
Cr5 O7 2.079791 1_555
