# generated using pymatgen
data_Na2AsAu
_symmetry_space_group_name_H-M   'P 1'
_cell_length_a   5.63655642
_cell_length_b   5.63655574
_cell_length_c   5.75763997
_cell_angle_alpha   90.00000000
_cell_angle_beta   90.00000000
_cell_angle_gamma   102.13473562
_symmetry_Int_Tables_number   1
_chemical_formula_structural   Na2AsAu
_chemical_formula_sum   'Na4 As2 Au2'
_cell_volume   178.83735098
_cell_formula_units_Z   2
loop_
 _symmetry_equiv_pos_site_id
 _symmetry_equiv_pos_as_xyz
  1  'x, y, z'
loop_
 _atom_site_type_symbol
 _atom_site_label
 _atom_site_symmetry_multiplicity
 _atom_site_fract_x
 _atom_site_fract_y
 _atom_site_fract_z
 _atom_site_occupancy
  Na  Na0  1  0.66756271  0.02583080  0.25000000  1
  Na  Na1  1  0.33243729  0.97416920  0.75000000  1
  Na  Na2  1  0.02583080  0.66756271  0.25000000  1
  Na  Na3  1  0.97416920  0.33243729  0.75000000  1
  As  As0  1  0.79034316  0.79034316  0.75000000  1
  As  As1  1  0.20965684  0.20965684  0.25000000  1
  Au  Au0  1  0.50000000  0.50000000  0.50000000  1
  Au  Au1  1  0.50000000  0.50000000  -0.00000000  1
loop_
_geom_bond_atom_site_label_1
_geom_bond_atom_site_label_2
_geom_bond_distance
_geom_bond_site_symmetry_2
As0 Au1 2.510458 1_556
As0 Au0 2.510458 1_555
As0 Na3 2.976501 1_555
As0 Na1 2.976501 1_555
As0 Na3 3.013120 1_565
As0 Na1 3.013120 1_655
As0 Na0 3.303722 1_565
As0 Na0 3.303722 1_566
As0 Na2 3.303722 1_655
As0 Na2 3.303722 1_656
As1 Au1 2.510458 1_555
As1 Au0 2.510458 1_555
As1 Na2 2.976501 1_555
As1 Na0 2.976501 1_555
As1 Na2 3.013120 1_545
As1 Na0 3.013120 1_455
As1 Na1 3.303722 1_545
As1 Na1 3.303722 1_544
As1 Na3 3.303722 1_455
As1 Na3 3.303722 1_454
Au0 Au1 2.878820 1_555
Au0 Au1 2.878820 1_556
Au0 Na0 3.251399 1_565
Au0 Na1 3.251399 1_545
Au0 Na2 3.251399 1_655
Au0 Na3 3.251399 1_455
Au0 Na1 3.341920 1_555
Au0 Na0 3.341920 1_555
Au0 Na3 3.341920 1_555
Au0 Na2 3.341920 1_555
Au1 Na0 3.251399 1_565
Au1 Na1 3.251399 1_544
Au1 Na2 3.251399 1_655
Au1 Na3 3.251399 1_454
Au1 Na1 3.341920 1_554
Au1 Na0 3.341920 1_555
Au1 Na3 3.341920 1_554
Au1 Na2 3.341920 1_555
