# generated using pymatgen
data_AlH10SO9F
_symmetry_space_group_name_H-M   'P 1'
_cell_length_a   10.89669200
_cell_length_b   11.32891600
_cell_length_c   13.10879800
_cell_angle_alpha   90.00000000
_cell_angle_beta   90.00000000
_cell_angle_gamma   90.00000000
_symmetry_Int_Tables_number   1
_chemical_formula_structural   AlH10SO9F
_chemical_formula_sum   'Al8 H80 S8 O72 F8'
_cell_volume   1618.25107227
_cell_formula_units_Z   8
loop_
 _symmetry_equiv_pos_site_id
 _symmetry_equiv_pos_as_xyz
  1  'x, y, z'
loop_
 _atom_site_type_symbol
 _atom_site_label
 _atom_site_symmetry_multiplicity
 _atom_site_fract_x
 _atom_site_fract_y
 _atom_site_fract_z
 _atom_site_occupancy
  Al  Al0  1  0.50000000  0.50000000  0.00000000  1
  Al  Al1  1  0.00000000  0.00000000  0.00000000  1
  Al  Al2  1  0.00000000  0.50000000  0.50000000  1
  Al  Al3  1  0.50000000  0.00000000  0.50000000  1
  Al  Al4  1  0.00000000  0.50000000  0.00000000  1
  Al  Al5  1  0.50000000  0.00000000  0.00000000  1
  Al  Al6  1  0.50000000  0.50000000  0.50000000  1
  Al  Al7  1  0.00000000  0.00000000  0.50000000  1
  H  H0  1  0.65178000  0.57092300  0.85981500  1
  H  H1  1  0.84822000  0.07092300  0.14018500  1
  H  H2  1  0.15178000  0.42907700  0.64018500  1
  H  H3  1  0.34822000  0.92907700  0.35981500  1
  H  H4  1  0.34822000  0.42907700  0.14018500  1
  H  H5  1  0.15178000  0.92907700  0.85981500  1
  H  H6  1  0.84822000  0.57092300  0.35981500  1
  H  H7  1  0.65178000  0.07092300  0.64018500  1
  H  H8  1  0.60077800  0.44068400  0.82809100  1
  H  H9  1  0.89922200  0.94068400  0.17190900  1
  H  H10  1  0.10077800  0.55931600  0.67190900  1
  H  H11  1  0.39922200  0.05931600  0.32809100  1
  H  H12  1  0.39922200  0.55931600  0.17190900  1
  H  H13  1  0.10077800  0.05931600  0.82809100  1
  H  H14  1  0.89922200  0.44068400  0.32809100  1
  H  H15  1  0.60077800  0.94068400  0.67190900  1
  H  H16  1  0.04068100  0.65044300  0.85667200  1
  H  H17  1  0.45931900  0.15044300  0.14332800  1
  H  H18  1  0.54068100  0.34955700  0.64332800  1
  H  H19  1  0.95931900  0.84955700  0.35667200  1
  H  H20  1  0.95931900  0.34955700  0.14332800  1
  H  H21  1  0.54068100  0.84955700  0.85667200  1
  H  H22  1  0.45931900  0.65044300  0.35667200  1
  H  H23  1  0.04068100  0.15044300  0.64332800  1
  H  H24  1  0.89580600  0.65507300  0.88547800  1
  H  H25  1  0.60419400  0.15507300  0.11452200  1
  H  H26  1  0.39580600  0.34492700  0.61452200  1
  H  H27  1  0.10419400  0.84492700  0.38547800  1
  H  H28  1  0.10419400  0.34492700  0.11452200  1
  H  H29  1  0.39580600  0.84492700  0.88547800  1
  H  H30  1  0.60419400  0.65507300  0.38547800  1
  H  H31  1  0.89580600  0.15507300  0.61452200  1
  H  H32  1  0.96359600  0.37741900  0.83495000  1
  H  H33  1  0.53640400  0.87741900  0.16505000  1
  H  H34  1  0.46359600  0.62258100  0.66505000  1
  H  H35  1  0.03640400  0.12258100  0.33495000  1
  H  H36  1  0.03640400  0.62258100  0.16505000  1
  H  H37  1  0.46359600  0.12258100  0.83495000  1
  H  H38  1  0.53640400  0.37741900  0.33495000  1
  H  H39  1  0.96359600  0.87741900  0.66505000  1
  H  H40  1  0.11030200  0.36909400  0.86678700  1
  H  H41  1  0.38969800  0.86909400  0.13321300  1
  H  H42  1  0.61030200  0.63090600  0.63321300  1
  H  H43  1  0.88969800  0.13090600  0.36678700  1
  H  H44  1  0.88969800  0.63090600  0.13321300  1
  H  H45  1  0.61030200  0.13090600  0.86678700  1
  H  H46  1  0.38969800  0.36909400  0.36678700  1
  H  H47  1  0.11030200  0.86909400  0.63321300  1
  H  H48  1  0.28019500  0.55859000  0.96349500  1
  H  H49  1  0.21980500  0.05859000  0.03650500  1
  H  H50  1  0.78019500  0.44141000  0.53650500  1
  H  H51  1  0.71980500  0.94141000  0.46349500  1
  H  H52  1  0.71980500  0.44141000  0.03650500  1
  H  H53  1  0.78019500  0.94141000  0.96349500  1
  H  H54  1  0.21980500  0.55859000  0.46349500  1
  H  H55  1  0.28019500  0.05859000  0.53650500  1
  H  H56  1  0.36501800  0.60018200  0.86431100  1
  H  H57  1  0.13498200  0.10018200  0.13568900  1
  H  H58  1  0.86501800  0.39981800  0.63568900  1
  H  H59  1  0.63498200  0.89981800  0.36431100  1
  H  H60  1  0.63498200  0.39981800  0.13568900  1
  H  H61  1  0.86501800  0.89981800  0.86431100  1
  H  H62  1  0.13498200  0.60018200  0.36431100  1
  H  H63  1  0.36501800  0.10018200  0.63568900  1
  H  H64  1  0.36571800  0.32894500  0.92246800  1
  H  H65  1  0.13428200  0.82894500  0.07753200  1
  H  H66  1  0.86571800  0.67105500  0.57753200  1
  H  H67  1  0.63428200  0.17105500  0.42246800  1
  H  H68  1  0.63428200  0.67105500  0.07753200  1
  H  H69  1  0.86571800  0.17105500  0.92246800  1
  H  H70  1  0.13428200  0.32894500  0.42246800  1
  H  H71  1  0.36571800  0.82894500  0.57753200  1
  H  H72  1  0.47023400  0.27443300  0.99967100  1
  H  H73  1  0.02976600  0.77443300  0.00032900  1
  H  H74  1  0.97023400  0.72556700  0.50032900  1
  H  H75  1  0.52976600  0.22556700  0.49967100  1
  H  H76  1  0.52976600  0.72556700  0.00032900  1
  H  H77  1  0.97023400  0.22556700  0.99967100  1
  H  H78  1  0.02976600  0.27443300  0.49967100  1
  H  H79  1  0.47023400  0.77443300  0.50032900  1
  S  S0  1  0.24692000  0.73875300  0.74779100  1
  S  S1  1  0.25308000  0.23875300  0.25220900  1
  S  S2  1  0.74692000  0.26124700  0.75220900  1
  S  S3  1  0.75308000  0.76124700  0.24779100  1
  S  S4  1  0.75308000  0.26124700  0.25220900  1
  S  S5  1  0.74692000  0.76124700  0.74779100  1
  S  S6  1  0.25308000  0.73875300  0.24779100  1
  S  S7  1  0.24692000  0.23875300  0.75220900  1
  O  O0  1  0.13111300  0.66853300  0.75689500  1
  O  O1  1  0.36888700  0.16853300  0.24310500  1
  O  O2  1  0.63111300  0.33146700  0.74310500  1
  O  O3  1  0.86888700  0.83146700  0.25689500  1
  O  O4  1  0.86888700  0.33146700  0.24310500  1
  O  O5  1  0.63111300  0.83146700  0.75689500  1
  O  O6  1  0.36888700  0.66853300  0.25689500  1
  O  O7  1  0.13111300  0.16853300  0.74310500  1
  O  O8  1  0.24434000  0.80475700  0.64915800  1
  O  O9  1  0.25566000  0.30475700  0.35084200  1
  O  O10  1  0.74434000  0.19524300  0.85084200  1
  O  O11  1  0.75566000  0.69524300  0.14915800  1
  O  O12  1  0.75566000  0.19524300  0.35084200  1
  O  O13  1  0.74434000  0.69524300  0.64915800  1
  O  O14  1  0.25566000  0.80475700  0.14915800  1
  O  O15  1  0.24434000  0.30475700  0.85084200  1
  O  O16  1  0.35592700  0.65918300  0.75026600  1
  O  O17  1  0.14407300  0.15918300  0.24973400  1
  O  O18  1  0.85592700  0.34081700  0.74973400  1
  O  O19  1  0.64407300  0.84081700  0.25026600  1
  O  O20  1  0.64407300  0.34081700  0.24973400  1
  O  O21  1  0.85592700  0.84081700  0.75026600  1
  O  O22  1  0.14407300  0.65918300  0.25026600  1
  O  O23  1  0.35592700  0.15918300  0.74973400  1
  O  O24  1  0.25536800  0.82241100  0.83581700  1
  O  O25  1  0.24463200  0.32241100  0.16418300  1
  O  O26  1  0.75536800  0.17758900  0.66418300  1
  O  O27  1  0.74463200  0.67758900  0.33581700  1
  O  O28  1  0.74463200  0.17758900  0.16418300  1
  O  O29  1  0.75536800  0.67758900  0.83581700  1
  O  O30  1  0.24463200  0.82241100  0.33581700  1
  O  O31  1  0.25536800  0.32241100  0.66418300  1
  O  O32  1  0.58649700  0.51059100  0.87323700  1
  O  O33  1  0.91350300  0.01059100  0.12676300  1
  O  O34  1  0.08649700  0.48940900  0.62676300  1
  O  O35  1  0.41350300  0.98940900  0.37323700  1
  O  O36  1  0.41350300  0.48940900  0.12676300  1
  O  O37  1  0.08649700  0.98940900  0.87323700  1
  O  O38  1  0.91350300  0.51059100  0.37323700  1
  O  O39  1  0.58649700  0.01059100  0.62676300  1
  O  O40  1  0.98041800  0.64250700  0.91468900  1
  O  O41  1  0.51958200  0.14250700  0.08531100  1
  O  O42  1  0.48041800  0.35749300  0.58531100  1
  O  O43  1  0.01958200  0.85749300  0.41468900  1
  O  O44  1  0.01958200  0.35749300  0.08531100  1
  O  O45  1  0.48041800  0.85749300  0.91468900  1
  O  O46  1  0.51958200  0.64250700  0.41468900  1
  O  O47  1  0.98041800  0.14250700  0.58531100  1
  O  O48  1  0.02929900  0.40831000  0.88055600  1
  O  O49  1  0.47070100  0.90831000  0.11944400  1
  O  O50  1  0.52929900  0.59169000  0.61944400  1
  O  O51  1  0.97070100  0.09169000  0.38055600  1
  O  O52  1  0.97070100  0.59169000  0.11944400  1
  O  O53  1  0.52929900  0.09169000  0.88055600  1
  O  O54  1  0.47070100  0.40831000  0.38055600  1
  O  O55  1  0.02929900  0.90831000  0.61944400  1
  O  O56  1  0.36582400  0.57173700  0.93693900  1
  O  O57  1  0.13417600  0.07173700  0.06306100  1
  O  O58  1  0.86582400  0.42826300  0.56306100  1
  O  O59  1  0.63417600  0.92826300  0.43693900  1
  O  O60  1  0.63417600  0.42826300  0.06306100  1
  O  O61  1  0.86582400  0.92826300  0.93693900  1
  O  O62  1  0.13417600  0.57173700  0.43693900  1
  O  O63  1  0.36582400  0.07173700  0.56306100  1
  O  O64  1  0.44072300  0.34618300  0.96460800  1
  O  O65  1  0.05927700  0.84618300  0.03539200  1
  O  O66  1  0.94072300  0.65381700  0.53539200  1
  O  O67  1  0.55927700  0.15381700  0.46460800  1
  O  O68  1  0.55927700  0.65381700  0.03539200  1
  O  O69  1  0.94072300  0.15381700  0.96460800  1
  O  O70  1  0.05927700  0.34618300  0.46460800  1
  O  O71  1  0.44072300  0.84618300  0.53539200  1
  F  F0  1  0.15908700  0.52823000  0.00973100  1
  F  F1  1  0.34091300  0.02823000  0.99026900  1
  F  F2  1  0.65908700  0.47177000  0.49026900  1
  F  F3  1  0.84091300  0.97177000  0.50973100  1
  F  F4  1  0.84091300  0.47177000  0.99026900  1
  F  F5  1  0.65908700  0.97177000  0.00973100  1
  F  F6  1  0.34091300  0.52823000  0.50973100  1
  F  F7  1  0.15908700  0.02823000  0.49026900  1
loop_
_geom_bond_atom_site_label_1
_geom_bond_atom_site_label_2
_geom_bond_distance
_geom_bond_site_symmetry_2
Al0 O60 1.865879 1_555
Al0 O56 1.865879 1_554
Al0 O36 1.914169 1_555
Al0 O32 1.914169 1_554
Al0 O68 1.915476 1_555
Al0 O64 1.915476 1_554
Al1 O57 1.865879 1_555
Al1 O61 1.865879 1_444
Al1 O33 1.914169 1_455
Al1 O37 1.914169 1_544
Al1 O69 1.915476 1_454
Al1 O65 1.915476 1_545
Al2 O62 1.865879 1_555
Al2 O58 1.865879 1_455
Al2 O34 1.914169 1_555
Al2 O38 1.914169 1_455
Al2 O66 1.915476 1_455
Al2 O70 1.915476 1_555
Al3 O63 1.865879 1_555
Al3 O59 1.865879 1_545
Al3 O39 1.914169 1_555
Al3 O35 1.914169 1_545
Al3 O67 1.915476 1_555
Al3 O71 1.915476 1_545
Al4 F0 1.767386 1_555
Al4 F4 1.767386 1_454
Al4 O48 1.905926 1_554
Al4 O52 1.905926 1_455
Al4 O40 1.975507 1_454
Al4 O44 1.975507 1_555
Al5 F5 1.767386 1_545
Al5 F1 1.767386 1_554
Al5 O49 1.905926 1_545
Al5 O53 1.905926 1_554
Al5 O41 1.975507 1_555
Al5 O45 1.975507 1_544
Al6 F2 1.767386 1_555
Al6 F6 1.767386 1_555
Al6 O54 1.905926 1_555
Al6 O50 1.905926 1_555
Al6 O46 1.975507 1_555
Al6 O42 1.975507 1_555
Al7 F7 1.767386 1_555
Al7 F3 1.767386 1_445
Al7 O55 1.905926 1_545
Al7 O51 1.905926 1_455
Al7 O43 1.975507 1_545
Al7 O47 1.975507 1_455
H0 O32 1.002083 1_555
H0 O29 1.683251 1_555
H1 O33 1.002083 1_555
H1 O28 1.683251 1_555
H2 O34 1.002083 1_555
H2 O31 1.683251 1_555
H3 O35 1.002083 1_555
H3 O30 1.683251 1_555
H4 O36 1.002083 1_555
H4 O25 1.683251 1_555
H5 O37 1.002083 1_555
H5 O24 1.683251 1_555
H6 O38 1.002083 1_555
H6 O27 1.683251 1_555
H7 O39 1.002083 1_555
H7 O26 1.683251 1_555
H8 O32 1.000836 1_555
H8 O2 1.697451 1_555
H9 O33 1.000836 1_565
H9 O3 1.697451 1_555
H10 O34 1.000836 1_555
H10 O0 1.697451 1_555
H11 O35 1.000836 1_545
H11 O1 1.697451 1_555
H12 O36 1.000836 1_555
H12 O6 1.697451 1_555
H13 O37 1.000836 1_545
H13 O7 1.697451 1_555
H14 O38 1.000836 1_555
H14 O4 1.697451 1_555
H15 O39 1.000836 1_565
H15 O5 1.697451 1_555
H16 O40 1.008814 1_455
H16 O0 1.650389 1_555
H17 O41 1.008814 1_555
H17 O1 1.650389 1_555
H18 O42 1.008814 1_555
H18 O2 1.650389 1_555
H19 O43 1.008814 1_655
H19 O3 1.650389 1_555
H20 O44 1.008814 1_655
H20 O4 1.650389 1_555
H21 O45 1.008814 1_555
H21 O5 1.650389 1_555
H22 O46 1.008814 1_555
H22 O6 1.650389 1_555
H23 O47 1.008814 1_455
H23 O7 1.650389 1_555
H24 O40 1.008445 1_555
H24 O29 1.682471 1_555
H25 O41 1.008445 1_555
H25 O28 1.682471 1_555
H26 O42 1.008445 1_555
H26 O31 1.682471 1_555
H27 O43 1.008445 1_555
H27 O30 1.682471 1_555
H28 O44 1.008445 1_555
H28 O25 1.682471 1_555
H29 O45 1.008445 1_555
H29 O24 1.682471 1_555
H30 O46 1.008445 1_555
H30 O27 1.682471 1_555
H31 O47 1.008445 1_555
H31 O26 1.682471 1_555
H32 O48 0.996225 1_655
H32 O18 1.672212 1_555
H33 O49 0.996225 1_555
H33 O19 1.672212 1_555
H34 O50 0.996225 1_555
H34 O16 1.672212 1_555
H35 O51 0.996225 1_455
H35 O17 1.672212 1_555
H36 O52 0.996225 1_455
H36 O22 1.672212 1_555
H37 O53 0.996225 1_555
H37 O23 1.672212 1_555
H38 O54 0.996225 1_555
H38 O20 1.672212 1_555
H39 O55 0.996225 1_655
H39 O21 1.672212 1_555
H40 O48 1.004518 1_555
H40 O15 1.645663 1_555
H41 O49 1.004518 1_555
H41 O14 1.645663 1_555
H42 O50 1.004518 1_555
H42 O13 1.645663 1_555
H43 O51 1.004518 1_555
H43 O12 1.645663 1_555
H44 O52 1.004518 1_555
H44 O11 1.645663 1_555
H45 O53 1.004518 1_555
H45 O10 1.645663 1_555
H46 O54 1.004518 1_555
H46 O9 1.645663 1_555
H47 O55 1.004518 1_555
H47 O8 1.645663 1_555
H48 O56 1.006973 1_555
H49 O57 1.006973 1_555
H50 O58 1.006973 1_555
H51 O59 1.006973 1_555
H52 O60 1.006973 1_555
H53 O61 1.006973 1_555
H54 O62 1.006973 1_555
H55 O63 1.006973 1_555
H56 O56 1.005163 1_555
H56 O16 1.640609 1_555
H57 O57 1.005163 1_555
H57 O17 1.640609 1_555
H58 O58 1.005163 1_555
H58 O18 1.640609 1_555
H59 O59 1.005163 1_555
H59 O19 1.640609 1_555
H60 O60 1.005163 1_555
H60 O20 1.640609 1_555
H61 O61 1.005163 1_555
H61 O21 1.640609 1_555
H62 O62 1.005163 1_555
H62 O22 1.640609 1_555
H63 O63 1.005163 1_555
H63 O23 1.640609 1_555
H64 O64 1.005623 1_555
H64 O15 1.644992 1_555
H65 O65 1.005623 1_555
H65 O14 1.644992 1_555
H66 O66 1.005623 1_555
H66 O13 1.644992 1_555
H67 O67 1.005623 1_555
H67 O12 1.644992 1_555
H68 O68 1.005623 1_555
H68 O11 1.644992 1_555
H69 O69 1.005623 1_555
H69 O10 1.644992 1_555
H70 O70 1.005623 1_555
H70 O9 1.644992 1_555
H71 O71 1.005623 1_555
H71 O8 1.644992 1_555
H72 O64 0.987622 1_555
H73 O65 0.987622 1_555
H74 O66 0.987622 1_555
H75 O67 0.987622 1_555
H76 O68 0.987622 1_555
H77 O69 0.987622 1_555
H78 O70 0.987622 1_555
H79 O71 0.987622 1_555
O0 S0 1.496501 1_555
O1 S1 1.496501 1_555
O2 S2 1.496501 1_555
O3 S3 1.496501 1_555
O4 S4 1.496501 1_555
O5 S5 1.496501 1_555
O6 S6 1.496501 1_555
O7 S7 1.496501 1_555
O8 S0 1.493878 1_555
O9 S1 1.493878 1_555
O10 S2 1.493878 1_555
O11 S3 1.493878 1_555
O12 S4 1.493878 1_555
O13 S5 1.493878 1_555
O14 S6 1.493878 1_555
O15 S7 1.493878 1_555
O16 S0 1.491495 1_555
O17 S1 1.491495 1_555
O18 S2 1.491495 1_555
O19 S3 1.491495 1_555
O20 S4 1.491495 1_555
O21 S5 1.491495 1_555
O22 S6 1.491495 1_555
O23 S7 1.491495 1_555
O24 S0 1.496072 1_555
O25 S1 1.496072 1_555
O26 S2 1.496072 1_555
O27 S3 1.496072 1_555
O28 S4 1.496072 1_555
O29 S5 1.496072 1_555
O30 S6 1.496072 1_555
O31 S7 1.496072 1_555
F0 H48 1.492381 1_554
F1 H49 1.492381 1_556
F2 H50 1.492381 1_555
F3 H51 1.492381 1_555
F4 H52 1.492381 1_556
F5 H53 1.492381 1_554
F6 H54 1.492381 1_555
F7 H55 1.492381 1_555
