# generated using pymatgen
data_Li4MnOF5
_symmetry_space_group_name_H-M   'P 1'
_cell_length_a   5.92398341
_cell_length_b   5.92398341
_cell_length_c   12.90041091
_cell_angle_alpha   89.94186283
_cell_angle_beta   89.94186283
_cell_angle_gamma   120.42214519
_symmetry_Int_Tables_number   1
_chemical_formula_structural   Li4MnOF5
_chemical_formula_sum   'Li12 Mn3 O3 F15'
_cell_volume   390.38917432
_cell_formula_units_Z   3
loop_
 _symmetry_equiv_pos_site_id
 _symmetry_equiv_pos_as_xyz
  1  'x, y, z'
loop_
 _atom_site_type_symbol
 _atom_site_label
 _atom_site_symmetry_multiplicity
 _atom_site_fract_x
 _atom_site_fract_y
 _atom_site_fract_z
 _atom_site_occupancy
  Li  Li0  1  0.33241400  0.66028200  0.78843800  1
  Li  Li1  1  0.33327000  0.65472600  0.48486400  1
  Li  Li2  1  0.00021800  0.66808900  0.62546400  1
  Li  Li3  1  0.00169200  0.65256000  0.32697800  1
  Li  Li4  1  0.66808900  0.00021800  0.62546400  1
  Li  Li5  1  0.00538900  0.00538900  0.79195900  1
  Li  Li6  1  0.65256000  0.00169200  0.32697800  1
  Li  Li7  1  0.01098300  0.01098300  0.48613200  1
  Li  Li8  1  0.99978500  0.99978500  0.17054800  1
  Li  Li9  1  0.66028200  0.33241400  0.78843800  1
  Li  Li10  1  0.65472600  0.33327000  0.48486400  1
  Li  Li11  1  0.35147200  0.35147200  0.32609900  1
  Mn  Mn0  1  0.66784300  0.00152100  0.98053000  1
  Mn  Mn1  1  0.33671700  0.33671700  0.98069100  1
  Mn  Mn2  1  0.00152100  0.66784300  0.98053000  1
  O  O0  1  0.32812100  0.66143700  0.97087700  1
  O  O1  1  0.66143700  0.32812100  0.97087700  1
  O  O2  1  0.99509500  0.99509500  0.96228900  1
  F  F0  1  0.33268400  0.71431400  0.64903700  1
  F  F1  1  0.99988700  0.65822400  0.82745100  1
  F  F2  1  0.00066600  0.67296200  0.48055200  1
  F  F3  1  0.33404100  0.66861800  0.32707400  1
  F  F4  1  0.00065400  0.69560400  0.12368400  1
  F  F5  1  0.65822400  0.99988700  0.82745100  1
  F  F6  1  0.67296200  0.00066600  0.48055200  1
  F  F7  1  0.69560400  0.00065400  0.12368400  1
  F  F8  1  0.95117600  0.95117600  0.65241500  1
  F  F9  1  0.99924400  0.99924400  0.31292900  1
  F  F10  1  0.71431400  0.33268400  0.64903700  1
  F  F11  1  0.34079600  0.34079600  0.82657300  1
  F  F12  1  0.33018700  0.33018700  0.47753400  1
  F  F13  1  0.66861800  0.33404100  0.32707400  1
  F  F14  1  0.30644900  0.30644900  0.12386100  1
loop_
_geom_bond_atom_site_label_1
_geom_bond_atom_site_label_2
_geom_bond_distance
_geom_bond_site_symmetry_2
Li0 O0 2.353704 1_555
Li5 O2 2.198039 1_445
Li9 O1 2.353704 1_555
Mn0 O1 1.958104 1_555
Mn0 O2 1.972045 1_545
Mn0 O0 2.004844 1_545
Mn1 O0 1.953899 1_555
Mn1 O1 1.953899 1_555
Mn1 O2 2.025282 1_445
Mn2 O0 1.958104 1_555
Mn2 O2 1.972045 1_455
Mn2 O1 2.004844 1_455
F0 Li0 1.826131 1_555
F0 Li4 1.870453 1_565
F0 Li2 1.871276 1_555
F0 Li1 2.147757 1_555
F1 Mn2 1.975554 1_655
F1 Li9 2.024238 1_555
F1 Li0 2.026707 1_655
F1 Li5 2.090568 1_665
F2 Li2 1.869596 1_555
F2 Li7 1.973577 1_565
F2 Li3 1.985164 1_555
F2 Li10 2.018773 1_455
F2 Li1 2.028000 1_555
F3 Li6 1.919142 1_565
F3 Li3 1.922413 1_555
F3 Li11 1.933160 1_555
F3 Li1 2.037042 1_555
F4 Mn2 1.854452 1_554
F4 Li8 1.903732 1_455
F5 Mn0 1.975554 1_565
F5 Li0 2.024238 1_555
F5 Li9 2.026707 1_565
F5 Li5 2.090568 1_665
F6 Li4 1.869596 1_555
F6 Li7 1.973577 1_655
F6 Li6 1.985164 1_555
F6 Li1 2.018773 1_545
F6 Li10 2.028000 1_555
F7 Mn0 1.854452 1_554
F7 Li8 1.903732 1_545
F8 Li5 1.828881 1_665
F8 Li2 1.874037 1_655
F8 Li4 1.874037 1_565
F8 Li7 2.173103 1_665
F9 Li8 1.836770 1_555
F9 Li6 2.068903 1_565
F9 Li3 2.068903 1_655
F9 Li11 2.080560 1_665
F9 Li7 2.235599 1_665
F10 Li9 1.826131 1_555
F10 Li2 1.870453 1_655
F10 Li4 1.871276 1_555
F10 Li10 2.147757 1_555
F11 Li0 1.979866 1_555
F11 Li9 1.979866 1_555
F11 Mn1 1.988281 1_555
F11 Li5 2.025012 1_555
F12 Li7 1.881926 1_555
F12 Li1 1.915813 1_555
F12 Li10 1.915813 1_555
F12 Li11 1.957332 1_555
F13 Li3 1.919142 1_655
F13 Li6 1.922413 1_555
F13 Li11 1.933160 1_555
F13 Li10 2.037042 1_555
F14 Mn1 1.855163 1_554
F14 Li8 1.901729 1_445
