# generated using pymatgen
data_Li9Ti12NbO30
_symmetry_space_group_name_H-M   'P 1'
_cell_length_a   5.13677624
_cell_length_b   23.82055862
_cell_length_c   5.13690100
_cell_angle_alpha   96.20107818
_cell_angle_beta   59.97957290
_cell_angle_gamma   96.21908479
_symmetry_Int_Tables_number   1
_chemical_formula_structural   Li9Ti12NbO30
_chemical_formula_sum   'Li9 Ti12 Nb1 O30'
_cell_volume   539.97168080
_cell_formula_units_Z   1
loop_
 _symmetry_equiv_pos_site_id
 _symmetry_equiv_pos_as_xyz
  1  'x, y, z'
loop_
 _atom_site_type_symbol
 _atom_site_label
 _atom_site_symmetry_multiplicity
 _atom_site_fract_x
 _atom_site_fract_y
 _atom_site_fract_z
 _atom_site_occupancy
  Li  Li0  1  0.02568900  0.07695300  0.02563500  1
  Li  Li1  1  0.24469600  0.73701100  0.24629700  1
  Li  Li2  1  0.60854700  0.82544200  0.60803500  1
  Li  Li3  1  0.38996900  0.17013100  0.39017600  1
  Li  Li4  1  0.47355700  0.42078200  0.47360600  1
  Li  Li5  1  0.52655300  0.58009300  0.52707700  1
  Li  Li6  1  0.97381900  0.92179500  0.97394200  1
  Li  Li7  1  0.89109400  0.67042800  0.88974800  1
  Li  Li8  1  0.74552800  0.23654600  0.74550300  1
  Ti  Ti0  1  0.10409800  0.31272700  0.10472600  1
  Ti  Ti1  1  0.16197700  0.48614400  0.16200600  1
  Ti  Ti2  1  0.20431700  0.61232500  0.20435400  1
  Ti  Ti3  1  0.06567700  0.19650700  0.06538800  1
  Ti  Ti4  1  0.29588200  0.88773000  0.29553400  1
  Ti  Ti5  1  0.66200400  0.98610300  0.66192500  1
  Ti  Ti6  1  0.33812800  0.01422000  0.33806800  1
  Ti  Ti7  1  0.43229800  0.29762600  0.43249200  1
  Ti  Ti8  1  0.56645400  0.69948400  0.56628100  1
  Ti  Ti9  1  0.70381700  0.11149600  0.70397400  1
  Ti  Ti10  1  0.79636100  0.39036700  0.79692000  1
  Ti  Ti11  1  0.83817800  0.51455000  0.83836800  1
  Nb  Nb0  1  0.93176100  0.79647200  0.93210300  1
  O  O0  1  0.00546400  0.95285500  0.35074700  1
  O  O1  1  0.01056700  0.15245600  0.38366400  1
  O  O2  1  0.59689800  0.95292100  0.00522400  1
  O  O3  1  0.14961400  0.54817600  0.49469700  1
  O  O4  1  0.35064100  0.95290300  0.59636300  1
  O  O5  1  0.25341100  0.74943900  0.62604100  1
  O  O6  1  0.12572800  0.35126400  0.45908700  1
  O  O7  1  0.09576800  0.45136700  0.84955400  1
  O  O8  1  0.24437700  0.85116300  0.98467100  1
  O  O9  1  0.36707800  0.25454700  0.12429400  1
  O  O10  1  0.50876000  0.65071900  0.26255400  1
  O  O11  1  0.62116200  0.85120100  0.24450100  1
  O  O12  1  0.50628200  0.45138700  0.09573400  1
  O  O13  1  0.26348700  0.65062500  0.87998700  1
  O  O14  1  0.12425100  0.25461300  0.76328100  1
  O  O15  1  0.86929900  0.74980800  0.25541300  1
  O  O16  1  0.76665300  0.35118900  0.12569800  1
  O  O17  1  0.49512300  0.54805700  0.90327400  1
  O  O18  1  0.38355800  0.15241800  0.75834500  1
  O  O19  1  0.45892800  0.35115200  0.76654700  1
  O  O20  1  0.62392700  0.74970800  0.87090000  1
  O  O21  1  0.75806600  0.15241400  0.01080400  1
  O  O22  1  0.90401000  0.54811300  0.14993700  1
  O  O23  1  0.88168500  0.65107700  0.50655300  1
  O  O24  1  0.76330100  0.25463000  0.36706500  1
  O  O25  1  0.64975700  0.04966000  0.40402200  1
  O  O26  1  0.84958700  0.45135700  0.50614200  1
  O  O27  1  0.40394100  0.04959300  0.99575600  1
  O  O28  1  0.98581700  0.85096800  0.62068400  1
  O  O29  1  0.99583100  0.04963000  0.64968600  1
loop_
_geom_bond_atom_site_label_1
_geom_bond_atom_site_label_2
_geom_bond_distance
_geom_bond_site_symmetry_2
Li0 O25 2.043286 1_455
Li0 O27 2.043988 1_554
Li0 O29 2.044486 1_454
Li0 O18 2.405752 1_554
Li0 O1 2.407478 1_555
Li0 O21 2.407596 1_455
Li1 O20 1.960719 1_554
Li1 O15 1.961502 1_455
Li1 O5 1.963328 1_555
Li1 O23 2.593140 1_455
Li2 O11 1.996463 1_555
Li2 O8 1.997182 1_555
Li2 O28 1.997938 1_555
Li2 O15 2.389810 1_555
Li2 O20 2.397495 1_555
Li2 O5 2.401229 1_555
Li3 O21 1.964498 1_555
Li3 O1 1.964948 1_555
Li3 O18 1.965449 1_555
Li4 O7 2.068493 1_555
Li4 O12 2.068873 1_555
Li4 O26 2.069135 1_555
Li4 O6 2.325025 1_555
Li4 O16 2.327481 1_555
Li4 O19 2.328130 1_555
Li5 O17 2.079092 1_555
Li5 O3 2.081047 1_555
Li5 O22 2.082184 1_555
Li5 O13 2.306063 1_555
Li5 O10 2.310092 1_555
Li5 O23 2.318572 1_555
Li6 O2 2.073218 1_556
Li6 O0 2.073597 1_656
Li6 O4 2.073858 1_655
Li6 O11 2.316597 1_556
Li6 O8 2.317036 1_655
Li6 O28 2.322155 1_555
Li7 O10 1.994008 1_556
Li7 O13 1.994652 1_655
Li7 O23 1.995970 1_555
Li7 O5 2.471897 1_655
Li7 O15 2.486845 1_556
Li7 O20 2.488611 1_555
Li8 O9 1.991123 1_556
Li8 O14 1.991502 1_655
Li8 O24 1.991942 1_555
Li8 O1 2.564195 1_655
Li8 O18 2.564373 1_555
Li8 O21 2.565847 1_556
Nb0 O5 1.969313 1_655
Nb0 O20 1.969847 1_555
Nb0 O15 1.971081 1_556
Nb0 O28 2.060927 1_555
Nb0 O8 2.062398 1_655
Nb0 O11 2.063278 1_556
O0 Ti5 1.871471 1_455
O0 Ti6 2.104526 1_565
O0 Ti4 2.166911 1_555
O1 Ti9 1.887227 1_455
O1 Ti3 1.922870 1_555
O2 Ti5 1.870890 1_554
O2 Ti6 2.104618 1_565
O2 Ti4 2.167725 1_555
O3 Ti11 1.876003 1_455
O3 Ti1 2.115256 1_555
O3 Ti2 2.149041 1_555
O4 Ti5 1.871989 1_555
O4 Ti6 2.102937 1_565
O4 Ti4 2.167795 1_555
O5 Ti8 1.984369 1_555
O6 Ti10 1.948342 1_455
O6 Ti0 1.996962 1_555
O6 Ti7 2.077027 1_555
O7 Ti1 1.891028 1_556
O7 Ti10 2.096879 1_455
O7 Ti11 2.132026 1_455
O8 Ti4 1.857697 1_556
O9 Ti7 1.943448 1_555
O9 Ti3 2.077172 1_555
O9 Ti0 2.080193 1_555
O10 Ti2 1.862885 1_555
O10 Ti8 1.966721 1_555
O11 Ti4 1.856118 1_555
O12 Ti1 1.892953 1_555
O12 Ti10 2.094716 1_554
O12 Ti11 2.129983 1_554
O13 Ti2 1.860822 1_556
O13 Ti8 1.968931 1_555
O14 Ti7 1.943052 1_555
O14 Ti3 2.078768 1_556
O14 Ti0 2.080445 1_556
O15 Ti8 1.982646 1_555
O16 Ti10 1.948941 1_554
O16 Ti0 1.997876 1_655
O16 Ti7 2.076690 1_555
O17 Ti11 1.874271 1_555
O17 Ti1 2.114432 1_556
O17 Ti2 2.153909 1_556
O18 Ti9 1.887705 1_555
O18 Ti3 1.921883 1_556
O19 Ti10 1.946699 1_555
O19 Ti0 1.997884 1_556
O19 Ti7 2.076893 1_555
O20 Ti8 1.987041 1_555
O21 Ti9 1.886980 1_554
O21 Ti3 1.923207 1_655
O22 Ti11 1.876616 1_554
O22 Ti1 2.112945 1_655
O22 Ti2 2.150639 1_655
O23 Ti2 1.859065 1_655
O23 Ti8 1.968948 1_555
O24 Ti7 1.945258 1_555
O24 Ti0 2.076838 1_655
O24 Ti3 2.079631 1_655
O25 Ti6 1.891564 1_555
O25 Ti9 2.114260 1_555
O25 Ti5 2.142087 1_545
O26 Ti1 1.891194 1_655
O26 Ti10 2.095392 1_555
O26 Ti11 2.132115 1_555
O27 Ti6 1.892053 1_556
O27 Ti9 2.113958 1_555
O27 Ti5 2.141185 1_545
O28 Ti4 1.856148 1_655
O29 Ti6 1.891770 1_655
O29 Ti9 2.114504 1_555
O29 Ti5 2.141228 1_545
