# generated using pymatgen
data_LiTi2O4
_symmetry_space_group_name_H-M   'P 1'
_cell_length_a   5.96024085
_cell_length_b   5.96024085
_cell_length_c   5.96024085
_cell_angle_alpha   120.19782629
_cell_angle_beta   119.58269318
_cell_angle_gamma   90.19100382
_symmetry_Int_Tables_number   1
_chemical_formula_structural   LiTi2O4
_chemical_formula_sum   'Li2 Ti4 O8'
_cell_volume   149.96089196
_cell_formula_units_Z   2
loop_
 _symmetry_equiv_pos_site_id
 _symmetry_equiv_pos_as_xyz
  1  'x, y, z'
loop_
 _atom_site_type_symbol
 _atom_site_label
 _atom_site_symmetry_multiplicity
 _atom_site_fract_x
 _atom_site_fract_y
 _atom_site_fract_z
 _atom_site_occupancy
  Li  Li0  1  0.50000000  0.50000000  0.50000000  1
  Li  Li1  1  0.50000000  0.00000000  0.00000000  1
  Ti  Ti0  1  0.50000000  0.00000000  0.50000000  1
  Ti  Ti1  1  0.00000000  0.00000000  0.00000000  1
  Ti  Ti2  1  0.00000000  0.50000000  0.00000000  1
  Ti  Ti3  1  0.00000000  0.00000000  0.50000000  1
  O  O0  1  0.21992800  0.23724000  0.98268800  1
  O  O1  1  0.75455200  0.23724000  0.51731200  1
  O  O2  1  0.23978300  0.21160200  0.47181800  1
  O  O3  1  0.76021700  0.23203500  0.97181800  1
  O  O4  1  0.23978300  0.76796500  0.02818200  1
  O  O5  1  0.76021700  0.78839800  0.52818200  1
  O  O6  1  0.24544800  0.76276000  0.48268800  1
  O  O7  1  0.78007200  0.76276000  0.01731200  1
loop_
_geom_bond_atom_site_label_1
_geom_bond_atom_site_label_2
_geom_bond_distance
_geom_bond_site_symmetry_2
Li0 O0 2.188392 1_554
Li0 O7 2.188392 1_556
Li0 O6 2.188392 1_555
Li0 O1 2.188392 1_555
Li0 O5 2.196114 1_555
Li0 O2 2.196114 1_555
Li1 O7 2.188392 1_545
Li1 O0 2.188392 1_554
Li1 O1 2.188392 1_555
Li1 O6 2.188392 1_544
Li1 O4 2.196119 1_545
Li1 O3 2.196119 1_554
O0 Ti1 1.999071 1_556
O0 Ti2 2.041148 1_556
O0 Ti3 2.041148 1_555
O1 Ti0 1.999071 1_555
O1 Ti2 2.041148 1_656
O1 Ti3 2.041148 1_655
O2 Ti1 1.998303 1_555
O2 Ti0 1.998307 1_555
O2 Ti3 2.024714 1_555
O3 Ti1 1.998303 1_656
O3 Ti0 1.998303 1_555
O3 Ti2 2.024710 1_656
O4 Ti1 1.998303 1_565
O4 Ti0 1.998303 1_565
O4 Ti2 2.024710 1_555
O5 Ti1 1.998303 1_666
O5 Ti0 1.998307 1_565
O5 Ti3 2.024714 1_665
O6 Ti0 1.999071 1_565
O6 Ti2 2.041148 1_555
O6 Ti3 2.041148 1_565
O7 Ti1 1.999071 1_665
O7 Ti3 2.041148 1_665
O7 Ti2 2.041148 1_655
