# generated using pymatgen
data_LiMn2O4
_symmetry_space_group_name_H-M   'P 1'
_cell_length_a   5.82004023
_cell_length_b   5.82004023
_cell_length_c   5.90269910
_cell_angle_alpha   62.37484144
_cell_angle_beta   62.37484144
_cell_angle_gamma   91.10810872
_symmetry_Int_Tables_number   1
_chemical_formula_structural   LiMn2O4
_chemical_formula_sum   'Li2 Mn4 O8'
_cell_volume   149.79628380
_cell_formula_units_Z   2
loop_
 _symmetry_equiv_pos_site_id
 _symmetry_equiv_pos_as_xyz
  1  'x, y, z'
loop_
 _atom_site_type_symbol
 _atom_site_label
 _atom_site_symmetry_multiplicity
 _atom_site_fract_x
 _atom_site_fract_y
 _atom_site_fract_z
 _atom_site_occupancy
  Li  Li0  1  0.00000000  0.50000000  0.50000000  1
  Li  Li1  1  0.50000000  0.00000000  0.00000000  1
  Mn  Mn0  1  0.50000000  0.00000000  0.50000000  1
  Mn  Mn1  1  0.50000000  0.50000000  0.50000000  1
  Mn  Mn2  1  0.00000000  0.50000000  0.00000000  1
  Mn  Mn3  1  0.50000000  0.50000000  0.00000000  1
  O  O0  1  0.75099000  0.28949400  0.98449800  1
  O  O1  1  0.72015600  0.69833500  0.05848200  1
  O  O2  1  0.30166500  0.27984400  0.44151800  1
  O  O3  1  0.28949400  0.75099000  0.48449800  1
  O  O4  1  0.71050600  0.24901000  0.51550200  1
  O  O5  1  0.69833500  0.72015600  0.55848200  1
  O  O6  1  0.27984400  0.30166500  0.94151800  1
  O  O7  1  0.24901000  0.71050600  0.01550200  1
loop_
_geom_bond_atom_site_label_1
_geom_bond_atom_site_label_2
_geom_bond_distance
_geom_bond_site_symmetry_2
Li0 O7 2.149067 1_555
Li0 O0 2.149067 1_455
Li0 O4 2.149157 1_455
Li0 O3 2.149157 1_555
Li0 O2 2.185995 1_555
Li0 O5 2.185995 1_455
Li1 O4 2.149067 1_554
Li1 O3 2.149067 1_545
Li1 O0 2.149157 1_554
Li1 O7 2.149157 1_545
Li1 O1 2.185995 1_545
Li1 O6 2.185995 1_554
Mn0 O4 1.941124 1_555
Mn0 O3 1.941124 1_545
Mn0 O2 2.006275 1_555
Mn0 O5 2.006275 1_545
Mn0 O7 2.293440 1_546
Mn0 O0 2.293440 1_554
Mn1 O4 1.921576 1_555
Mn1 O3 1.921576 1_555
Mn1 O2 1.953433 1_555
Mn1 O5 1.953433 1_555
Mn1 O6 1.955102 1_555
Mn1 O1 1.955102 1_555
Mn2 O0 1.941124 1_454
Mn2 O7 1.941124 1_555
Mn2 O6 2.006275 1_554
Mn2 O1 2.006275 1_455
Mn2 O3 2.293440 1_554
Mn2 O4 2.293440 1_455
Mn3 O7 1.921576 1_555
Mn3 O0 1.921576 1_554
Mn3 O6 1.953433 1_554
Mn3 O1 1.953433 1_555
Mn3 O5 1.955102 1_554
Mn3 O2 1.955102 1_555
