# generated using pymatgen
data_Mn3(PO4)2
_symmetry_space_group_name_H-M   'P 1'
_cell_length_a   4.87770794
_cell_length_b   10.54978385
_cell_length_c   6.16601760
_cell_angle_alpha   90.74111175
_cell_angle_beta   89.99990821
_cell_angle_gamma   89.99974761
_symmetry_Int_Tables_number   1
_chemical_formula_structural   Mn3(PO4)2
_chemical_formula_sum   'Mn6 P4 O16'
_cell_volume   317.26910440
_cell_formula_units_Z   2
loop_
 _symmetry_equiv_pos_site_id
 _symmetry_equiv_pos_as_xyz
  1  'x, y, z'
loop_
 _atom_site_type_symbol
 _atom_site_label
 _atom_site_symmetry_multiplicity
 _atom_site_fract_x
 _atom_site_fract_y
 _atom_site_fract_z
 _atom_site_occupancy
  Mn  Mn0  1  0.00000405  0.00000596  0.50001838  1
  Mn  Mn1  1  0.98686869  0.28202855  0.23444456  1
  Mn  Mn2  1  0.01311998  0.71797193  0.76552105  1
  Mn  Mn3  1  0.49997370  0.49998659  0.49997499  1
  Mn  Mn4  1  0.51310520  0.78202506  0.23447962  1
  Mn  Mn5  1  0.48686504  0.21797083  0.76555786  1
  P  P0  1  0.06773760  0.60102871  0.26045898  1
  P  P1  1  0.43226539  0.10104576  0.26051946  1
  P  P2  1  0.56776794  0.89897081  0.73953846  1
  P  P3  1  0.93224114  0.39895699  0.73948189  1
  O  O0  1  0.17390211  0.68070512  0.07185878  1
  O  O1  1  0.32611077  0.18071249  0.07193082  1
  O  O2  1  0.67391698  0.81929250  0.92814202  1
  O  O3  1  0.82609351  0.31929242  0.92807350  1
  O  O4  1  0.32458434  0.96420547  0.25188031  1
  O  O5  1  0.17541404  0.46420381  0.25181502  1
  O  O6  1  0.82455009  0.53579543  0.74811271  1
  O  O7  1  0.67544178  0.03579413  0.74818873  1
  O  O8  1  0.75581863  0.60708479  0.28003272  1
  O  O9  1  0.74418325  0.10708413  0.28006992  1
  O  O10  1  0.25584602  0.89291666  0.71996237  1
  O  O11  1  0.24415373  0.39291928  0.71992903  1
  O  O12  1  0.21608688  0.66144291  0.46368850  1
  O  O13  1  0.28392953  0.16144996  0.46374358  1
  O  O14  1  0.71611288  0.83855868  0.53631410  1
  O  O15  1  0.78390675  0.33855004  0.53626164  1
loop_
_geom_bond_atom_site_label_1
_geom_bond_atom_site_label_2
_geom_bond_distance
_geom_bond_site_symmetry_2
Mn0 O9 2.170734 1_455
Mn0 O10 2.170838 1_545
Mn0 O14 2.208726 1_445
Mn0 O13 2.208790 1_555
Mn0 O4 2.230517 1_545
Mn0 O7 2.230570 1_455
Mn1 O3 2.087442 1_554
Mn1 O5 2.132063 1_655
Mn1 O15 2.184097 1_555
Mn1 O1 2.203855 1_655
Mn1 O9 2.213637 1_555
Mn1 O13 2.400674 1_655
Mn2 O0 2.087274 1_556
Mn2 O6 2.132135 1_455
Mn2 O12 2.184209 1_555
Mn2 O2 2.204032 1_455
Mn2 O10 2.213689 1_555
Mn2 O14 2.400224 1_455
Mn3 O11 2.170696 1_555
Mn3 O8 2.170892 1_555
Mn3 O15 2.208752 1_555
Mn3 O12 2.208772 1_555
Mn3 O5 2.230514 1_555
Mn3 O6 2.230522 1_555
Mn4 O2 2.087328 1_554
Mn4 O4 2.132060 1_555
Mn4 O14 2.184327 1_555
Mn4 O0 2.204038 1_555
Mn4 O8 2.213604 1_555
Mn4 O12 2.400242 1_555
Mn5 O1 2.087401 1_556
Mn5 O7 2.132134 1_555
Mn5 O13 2.184027 1_555
Mn5 O3 2.203848 1_555
Mn5 O11 2.213735 1_555
Mn5 O15 2.400615 1_555
O0 P0 1.533743 1_555
O1 P1 1.533614 1_555
O2 P2 1.533743 1_555
O3 P3 1.533605 1_555
O4 P1 1.536493 1_565
O5 P0 1.536330 1_555
O6 P3 1.536486 1_555
O7 P2 1.536315 1_545
O8 P0 1.527500 1_655
O9 P1 1.527477 1_555
O10 P2 1.527516 1_555
O11 P3 1.527451 1_455
O12 P0 1.574635 1_555
O13 P1 1.574532 1_555
O14 P2 1.574587 1_555
O15 P3 1.574526 1_555
