# generated using pymatgen
data_LiMnP3H8O13
_symmetry_space_group_name_H-M   'P 1'
_cell_length_a   7.36166200
_cell_length_b   7.82771573
_cell_length_c   10.13977331
_cell_angle_alpha   84.04535323
_cell_angle_beta   74.46874062
_cell_angle_gamma   76.64432027
_symmetry_Int_Tables_number   1
_chemical_formula_structural   LiMnP3H8O13
_chemical_formula_sum   'Li2 Mn2 P6 H16 O26'
_cell_volume   547.19556332
_cell_formula_units_Z   2
loop_
 _symmetry_equiv_pos_site_id
 _symmetry_equiv_pos_as_xyz
  1  'x, y, z'
loop_
 _atom_site_type_symbol
 _atom_site_label
 _atom_site_symmetry_multiplicity
 _atom_site_fract_x
 _atom_site_fract_y
 _atom_site_fract_z
 _atom_site_occupancy
  Li  Li0  1  0.80420700  0.81673000  0.76397200  1
  Li  Li1  1  0.19579300  0.18327000  0.23602800  1
  Mn  Mn0  1  0.00000000  0.00000000  0.00000000  1
  Mn  Mn1  1  0.00000000  0.50000000  0.50000000  1
  P  P0  1  0.33157000  0.80587900  0.74303000  1
  P  P1  1  0.24521500  0.80596700  0.47653300  1
  P  P2  1  0.59123900  0.45687200  0.72883800  1
  P  P3  1  0.40876100  0.54312800  0.27116200  1
  P  P4  1  0.75478500  0.19403300  0.52346700  1
  P  P5  1  0.66843000  0.19412100  0.25697000  1
  H  H0  1  0.37214600  0.96651300  0.96143700  1
  H  H1  1  0.81017200  0.82404300  0.43033800  1
  H  H2  1  0.31651800  0.86525800  0.10188100  1
  H  H3  1  0.92547400  0.73598200  0.20690700  1
  H  H4  1  0.68832100  0.70128600  0.39714100  1
  H  H5  1  0.85243100  0.65214400  0.00815800  1
  H  H6  1  0.65316900  0.62149100  0.00453300  1
  H  H7  1  0.09704900  0.64190300  0.08800500  1
  H  H8  1  0.90295100  0.35809700  0.91199500  1
  H  H9  1  0.34683100  0.37850900  0.99546700  1
  H  H10  1  0.14756900  0.34785600  0.99184200  1
  H  H11  1  0.31167900  0.29871400  0.60285900  1
  H  H12  1  0.07452600  0.26401800  0.79309300  1
  H  H13  1  0.68348200  0.13474200  0.89811900  1
  H  H14  1  0.18982800  0.17595700  0.56966200  1
  H  H15  1  0.62785400  0.03348700  0.03856300  1
  O  O0  1  0.47462400  0.87847400  0.78906000  1
  O  O1  1  0.27853800  0.98008200  0.05267600  1
  O  O2  1  0.19499200  0.96006400  0.38507600  1
  O  O3  1  0.35783300  0.85755000  0.57957800  1
  O  O4  1  0.12081600  0.85548100  0.81485000  1
  O  O5  1  0.98238200  0.73991400  0.10629200  1
  O  O6  1  0.82085400  0.71785800  0.38282200  1
  O  O7  1  0.78652600  0.61239300  0.94758500  1
  O  O8  1  0.75488400  0.55024500  0.67102500  1
  O  O9  1  0.09387400  0.70772200  0.55861500  1
  O  O10  1  0.42686500  0.65887400  0.39110300  1
  O  O11  1  0.38589100  0.59224700  0.74587200  1
  O  O12  1  0.41375700  0.65331000  0.14043900  1
  O  O13  1  0.58624300  0.34669000  0.85956100  1
  O  O14  1  0.61410900  0.40775300  0.25412800  1
  O  O15  1  0.57313500  0.34112600  0.60889700  1
  O  O16  1  0.90612600  0.29227800  0.44138500  1
  O  O17  1  0.24511600  0.44975500  0.32897500  1
  O  O18  1  0.21347400  0.38760700  0.05241500  1
  O  O19  1  0.17914600  0.28214200  0.61717800  1
  O  O20  1  0.01761800  0.26008600  0.89370800  1
  O  O21  1  0.87918400  0.14451900  0.18515000  1
  O  O22  1  0.64216700  0.14245000  0.42042200  1
  O  O23  1  0.80500800  0.03993600  0.61492400  1
  O  O24  1  0.72146200  0.01991800  0.94732400  1
  O  O25  1  0.52537600  0.12152600  0.21094000  1
loop_
_geom_bond_atom_site_label_1
_geom_bond_atom_site_label_2
_geom_bond_distance
_geom_bond_site_symmetry_2
Li0 O23 2.188356 1_565
Li0 O0 2.310487 1_555
Li0 O7 2.321666 1_555
Li0 O24 2.432409 1_565
Li0 O8 2.512453 1_555
Li0 O9 2.600256 1_655
Li0 O4 2.606465 1_655
Li1 O2 2.188356 1_545
Li1 O25 2.310487 1_555
Li1 O18 2.321666 1_555
Li1 O1 2.432409 1_545
Li1 O17 2.512453 1_555
Li1 O16 2.600256 1_455
Li1 O21 2.606465 1_455
Mn0 O21 2.162626 1_455
Mn0 O4 2.162626 1_544
Mn0 O20 2.217001 1_554
Mn0 O5 2.217001 1_445
Mn0 O1 2.221644 1_545
Mn0 O24 2.221644 1_454
Mn1 O9 2.101012 1_555
Mn1 O16 2.101012 1_455
Mn1 O8 2.134459 1_455
Mn1 O17 2.134459 1_555
Mn1 O6 2.332137 1_455
Mn1 O19 2.332137 1_555
H0 O1 0.993582 1_556
H1 O6 0.980709 1_555
H2 O1 1.000261 1_555
H2 O12 1.698357 1_555
H3 O5 0.993904 1_555
H4 O6 0.984138 1_555
H5 O7 0.989155 1_554
H6 O7 0.987394 1_554
H7 O5 0.990984 1_455
H8 O20 0.990984 1_655
H9 O18 0.987394 1_556
H10 O18 0.989155 1_556
H11 O19 0.984138 1_555
H12 O20 0.993904 1_555
H13 O24 1.000261 1_555
H13 O13 1.698357 1_555
H14 O19 0.980709 1_555
H15 O24 0.993582 1_554
O0 P0 1.498175 1_555
O2 P1 1.482280 1_555
O3 P1 1.627320 1_555
O3 P0 1.635016 1_555
O4 P0 1.504502 1_555
O8 P2 1.506270 1_555
O9 P1 1.513882 1_555
O10 P3 1.639798 1_555
O10 P1 1.655172 1_555
O11 P2 1.611232 1_555
O11 P0 1.626160 1_555
O12 P3 1.501173 1_555
O13 P2 1.501173 1_555
O14 P3 1.611232 1_555
O14 P5 1.626160 1_555
O15 P2 1.639798 1_555
O15 P4 1.655172 1_555
O16 P4 1.513882 1_555
O17 P3 1.506270 1_555
O21 P5 1.504502 1_555
O22 P4 1.627320 1_555
O22 P5 1.635016 1_555
O23 P4 1.482280 1_555
O25 P5 1.498175 1_555
