# generated using pymatgen
data_H3ClO5
_symmetry_space_group_name_H-M   'P 1'
_cell_length_a   6.94155900
_cell_length_b   8.14111700
_cell_length_c   9.74728800
_cell_angle_alpha   90.00000000
_cell_angle_beta   90.00000000
_cell_angle_gamma   90.00000000
_symmetry_Int_Tables_number   1
_chemical_formula_structural   H3ClO5
_chemical_formula_sum   'H12 Cl4 O20'
_cell_volume   550.83916816
_cell_formula_units_Z   4
loop_
 _symmetry_equiv_pos_site_id
 _symmetry_equiv_pos_as_xyz
  1  'x, y, z'
loop_
 _atom_site_type_symbol
 _atom_site_label
 _atom_site_symmetry_multiplicity
 _atom_site_fract_x
 _atom_site_fract_y
 _atom_site_fract_z
 _atom_site_occupancy
  H  H0  1  0.64035300  0.21409400  0.09126800  1
  H  H1  1  0.85964700  0.28590600  0.59126800  1
  H  H2  1  0.14035300  0.78590600  0.90873200  1
  H  H3  1  0.35964700  0.71409400  0.40873200  1
  H  H4  1  0.35964700  0.78590600  0.90873200  1
  H  H5  1  0.14035300  0.71409400  0.40873200  1
  H  H6  1  0.85964700  0.21409400  0.09126800  1
  H  H7  1  0.64035300  0.28590600  0.59126800  1
  H  H8  1  0.75000000  0.83374600  0.38645600  1
  H  H9  1  0.75000000  0.66625400  0.88645600  1
  H  H10  1  0.25000000  0.16625400  0.61354400  1
  H  H11  1  0.25000000  0.33374600  0.11354400  1
  Cl  Cl0  1  0.25000000  0.25055000  0.90649600  1
  Cl  Cl1  1  0.25000000  0.24945000  0.40649600  1
  Cl  Cl2  1  0.75000000  0.74945000  0.09350400  1
  Cl  Cl3  1  0.75000000  0.75055000  0.59350400  1
  O  O0  1  0.25000000  0.34588600  0.78345300  1
  O  O1  1  0.25000000  0.15411400  0.28345300  1
  O  O2  1  0.75000000  0.65411400  0.21654700  1
  O  O3  1  0.75000000  0.84588600  0.71654700  1
  O  O4  1  0.25000000  0.39615100  0.02608400  1
  O  O5  1  0.25000000  0.10384900  0.52608400  1
  O  O6  1  0.75000000  0.60384900  0.97391600  1
  O  O7  1  0.75000000  0.89615100  0.47391600  1
  O  O8  1  0.07708600  0.15825600  0.92801600  1
  O  O9  1  0.42291400  0.34174400  0.42801600  1
  O  O10  1  0.57708600  0.84174400  0.07198400  1
  O  O11  1  0.92291400  0.65825600  0.57198400  1
  O  O12  1  0.92291400  0.84174400  0.07198400  1
  O  O13  1  0.57708600  0.65825600  0.57198400  1
  O  O14  1  0.42291400  0.15825600  0.92801600  1
  O  O15  1  0.07708600  0.34174400  0.42801600  1
  O  O16  1  0.75000000  0.22570400  0.15284900  1
  O  O17  1  0.75000000  0.27429600  0.65284900  1
  O  O18  1  0.25000000  0.77429600  0.84715100  1
  O  O19  1  0.25000000  0.72570400  0.34715100  1
loop_
_geom_bond_atom_site_label_1
_geom_bond_atom_site_label_2
_geom_bond_distance
_geom_bond_site_symmetry_2
H0 O16 0.973928 1_555
H1 O17 0.973928 1_555
H2 O18 0.973928 1_555
H3 O19 0.973928 1_555
H4 O18 0.973928 1_555
H5 O19 0.973928 1_555
H6 O16 0.973928 1_555
H7 O17 0.973928 1_555
H8 O7 0.992403 1_555
H9 O6 0.992403 1_555
H10 O5 0.992403 1_555
H11 O4 0.992403 1_555
Cl0 O0 1.428566 1_555
Cl0 O14 1.431527 1_555
Cl0 O8 1.431527 1_555
Cl0 O4 1.662476 1_556
Cl1 O1 1.428566 1_555
Cl1 O15 1.431527 1_555
Cl1 O9 1.431527 1_555
Cl1 O5 1.662476 1_555
Cl2 O2 1.428566 1_555
Cl2 O10 1.431527 1_555
Cl2 O12 1.431527 1_555
Cl2 O6 1.662476 1_554
Cl3 O3 1.428566 1_555
Cl3 O13 1.431527 1_555
Cl3 O11 1.431527 1_555
Cl3 O7 1.662476 1_555
