# generated using pymatgen
data_Dy5Ti5O17
_symmetry_space_group_name_H-M   'P 1'
_cell_length_a   3.85870500
_cell_length_b   5.44235900
_cell_length_c   31.64887800
_cell_angle_alpha   90.00000000
_cell_angle_beta   90.00000000
_cell_angle_gamma   90.00000000
_symmetry_Int_Tables_number   1
_chemical_formula_structural   Dy5Ti5O17
_chemical_formula_sum   'Dy10 Ti10 O34'
_cell_volume   664.64092955
_cell_formula_units_Z   2
loop_
 _symmetry_equiv_pos_site_id
 _symmetry_equiv_pos_as_xyz
  1  'x, y, z'
loop_
 _atom_site_type_symbol
 _atom_site_label
 _atom_site_symmetry_multiplicity
 _atom_site_fract_x
 _atom_site_fract_y
 _atom_site_fract_z
 _atom_site_occupancy
  Dy  Dy0  1  0.00000000  0.17311600  0.01696100  1
  Dy  Dy1  1  0.00000000  0.71785600  0.69856700  1
  Dy  Dy2  1  0.00000000  0.26578700  0.79338100  1
  Dy  Dy3  1  0.00000000  0.32662100  0.57135900  1
  Dy  Dy4  1  0.00000000  0.79811300  0.89114200  1
  Dy  Dy5  1  0.50000000  0.28214400  0.19856700  1
  Dy  Dy6  1  0.50000000  0.82688400  0.51696100  1
  Dy  Dy7  1  0.50000000  0.73421300  0.29338100  1
  Dy  Dy8  1  0.50000000  0.67337900  0.07135900  1
  Dy  Dy9  1  0.50000000  0.20188700  0.39114200  1
  Ti  Ti0  1  0.00000000  0.75938200  0.20576700  1
  Ti  Ti1  1  0.00000000  0.25843000  0.29627200  1
  Ti  Ti2  1  0.00000000  0.75408900  0.38265900  1
  Ti  Ti3  1  0.00000000  0.28133000  0.46946300  1
  Ti  Ti4  1  0.50000000  0.77223900  0.61909900  1
  Ti  Ti5  1  0.50000000  0.24061800  0.70576700  1
  Ti  Ti6  1  0.50000000  0.74157000  0.79627200  1
  Ti  Ti7  1  0.50000000  0.24591100  0.88265900  1
  Ti  Ti8  1  0.50000000  0.71867000  0.96946300  1
  Ti  Ti9  1  0.00000000  0.22776100  0.11909900  1
  O  O0  1  0.00000000  0.21074000  0.71665400  1
  O  O1  1  0.00000000  0.69903300  0.79751900  1
  O  O2  1  0.00000000  0.21652600  0.87200300  1
  O  O3  1  0.00000000  0.45120100  0.06967200  1
  O  O4  1  0.00000000  0.95749000  0.08218700  1
  O  O5  1  0.00000000  0.76441400  0.96447300  1
  O  O6  1  0.00000000  0.55091800  0.16069600  1
  O  O7  1  0.00000000  0.07808200  0.17677200  1
  O  O8  1  0.00000000  0.95781200  0.26662500  1
  O  O9  1  0.00000000  0.45077800  0.24138500  1
  O  O10  1  0.50000000  0.89784800  0.85051000  1
  O  O11  1  0.50000000  0.40134900  0.82490100  1
  O  O12  1  0.50000000  0.44865800  0.00735200  1
  O  O13  1  0.50000000  0.94582900  0.01888900  1
  O  O14  1  0.50000000  0.02575400  0.92846400  1
  O  O15  1  0.50000000  0.54619600  0.91281800  1
  O  O16  1  0.50000000  0.28025300  0.12545800  1
  O  O17  1  0.50000000  0.78926000  0.21665400  1
  O  O18  1  0.50000000  0.30096700  0.29751900  1
  O  O19  1  0.50000000  0.78347400  0.37200300  1
  O  O20  1  0.50000000  0.23558600  0.46447300  1
  O  O21  1  0.50000000  0.54879900  0.56967200  1
  O  O22  1  0.50000000  0.04251000  0.58218700  1
  O  O23  1  0.50000000  0.44908200  0.66069600  1
  O  O24  1  0.50000000  0.92191800  0.67677200  1
  O  O25  1  0.50000000  0.54922200  0.74138500  1
  O  O26  1  0.50000000  0.04218800  0.76662500  1
  O  O27  1  0.00000000  0.10215200  0.35051000  1
  O  O28  1  0.00000000  0.59865100  0.32490100  1
  O  O29  1  0.00000000  0.97424600  0.42846400  1
  O  O30  1  0.00000000  0.45380400  0.41281800  1
  O  O31  1  0.00000000  0.55134200  0.50735200  1
  O  O32  1  0.00000000  0.05417100  0.51888900  1
  O  O33  1  0.00000000  0.71974700  0.62545800  1
loop_
_geom_bond_atom_site_label_1
_geom_bond_atom_site_label_2
_geom_bond_distance
_geom_bond_site_symmetry_2
Dy0 O3 2.252451 1_555
Dy0 O13 2.292649 1_445
Dy0 O13 2.292649 1_545
Dy0 O4 2.374572 1_545
Dy0 O12 2.462454 1_555
Dy0 O12 2.462454 1_455
Dy0 O5 2.776160 1_544
Dy1 O33 2.313841 1_555
Dy1 O24 2.330578 1_555
Dy1 O24 2.330578 1_455
Dy1 O25 2.530041 1_455
Dy1 O25 2.530041 1_555
Dy1 O23 2.701604 1_455
Dy1 O23 2.701604 1_555
Dy1 O0 2.742850 1_565
Dy1 O0 2.818647 1_555
Dy1 O1 3.133395 1_555
Dy2 O11 2.293876 1_455
Dy2 O11 2.293876 1_555
Dy2 O1 2.361514 1_555
Dy2 O26 2.433172 1_455
Dy2 O26 2.433172 1_555
Dy2 O0 2.446734 1_555
Dy2 O2 2.502699 1_555
Dy3 O32 2.226265 1_555
Dy3 O21 2.277575 1_455
Dy3 O21 2.277575 1_555
Dy3 O31 2.366310 1_555
Dy3 O22 2.496133 1_455
Dy3 O22 2.496133 1_555
Dy3 O33 2.740280 1_555
Dy4 O5 2.328079 1_555
Dy4 O2 2.356339 1_565
Dy4 O10 2.381326 1_455
Dy4 O10 2.381326 1_555
Dy4 O15 2.464291 1_555
Dy4 O15 2.464291 1_455
Dy4 O14 2.579247 1_565
Dy4 O14 2.579247 1_465
Dy5 O16 2.313841 1_555
Dy5 O7 2.330578 1_655
Dy5 O7 2.330578 1_555
Dy5 O9 2.530041 1_555
Dy5 O9 2.530041 1_655
Dy5 O6 2.701604 1_555
Dy5 O6 2.701604 1_655
Dy5 O17 2.742850 1_545
Dy5 O17 2.818647 1_555
Dy5 O18 3.133395 1_555
Dy6 O21 2.252451 1_555
Dy6 O32 2.292649 1_665
Dy6 O32 2.292649 1_565
Dy6 O22 2.374572 1_565
Dy6 O31 2.462454 1_655
Dy6 O31 2.462454 1_555
Dy6 O20 2.776160 1_565
Dy7 O28 2.293876 1_555
Dy7 O28 2.293876 1_655
Dy7 O18 2.361514 1_555
Dy7 O8 2.433172 1_555
Dy7 O8 2.433172 1_655
Dy7 O17 2.446734 1_555
Dy7 O19 2.502699 1_555
Dy8 O13 2.226265 1_555
Dy8 O3 2.277575 1_655
Dy8 O3 2.277575 1_555
Dy8 O12 2.366310 1_555
Dy8 O4 2.496133 1_555
Dy8 O4 2.496133 1_655
Dy8 O16 2.740280 1_555
Dy9 O20 2.328079 1_555
Dy9 O19 2.356339 1_545
Dy9 O27 2.381326 1_655
Dy9 O27 2.381326 1_555
Dy9 O30 2.464291 1_655
Dy9 O30 2.464291 1_555
Dy9 O29 2.579247 1_645
Dy9 O29 2.579247 1_545
O0 Ti5 1.966612 1_455
O0 Ti5 1.966612 1_555
O1 Ti6 1.943592 1_555
O1 Ti6 1.943592 1_455
O2 Ti7 1.965125 1_455
O2 Ti7 1.965125 1_555
O3 Ti9 1.981368 1_555
O4 Ti9 1.878384 1_565
O5 Ti8 1.951748 1_555
O5 Ti8 1.951748 1_455
O6 Ti0 1.822614 1_555
O6 Ti9 2.196889 1_555
O7 Ti0 1.962274 1_545
O7 Ti9 1.998813 1_555
O8 Ti1 1.886034 1_565
O8 Ti0 2.208179 1_555
O9 Ti0 2.022763 1_555
O9 Ti1 2.028153 1_555
O10 Ti6 1.915726 1_555
O10 Ti7 2.150250 1_565
O11 Ti7 2.014231 1_555
O11 Ti6 2.061411 1_555
O12 Ti8 1.896677 1_554
O13 Ti8 1.993829 1_554
O14 Ti7 1.880740 1_555
O14 Ti8 2.115847 1_545
O15 Ti7 1.892583 1_555
O15 Ti8 2.023622 1_555
O16 Ti9 1.960744 1_655
O16 Ti9 1.960744 1_555
O17 Ti0 1.966612 1_555
O17 Ti0 1.966612 1_655
O18 Ti1 1.943592 1_655
O18 Ti1 1.943592 1_555
O19 Ti2 1.965125 1_555
O19 Ti2 1.965125 1_655
O20 Ti3 1.951748 1_555
O20 Ti3 1.951748 1_655
O21 Ti4 1.981368 1_555
O22 Ti4 1.878384 1_545
O23 Ti5 1.822614 1_555
O23 Ti4 2.196889 1_555
O24 Ti5 1.962274 1_565
O24 Ti4 1.998813 1_555
O25 Ti5 2.022763 1_555
O25 Ti6 2.028153 1_555
O26 Ti6 1.886034 1_545
O26 Ti5 2.208179 1_555
O27 Ti1 1.915726 1_555
O27 Ti2 2.150250 1_545
O28 Ti2 2.014231 1_555
O28 Ti1 2.061411 1_555
O29 Ti2 1.880740 1_555
O29 Ti3 2.115847 1_565
O30 Ti2 1.892583 1_555
O30 Ti3 2.023622 1_555
O31 Ti3 1.896677 1_555
O32 Ti3 1.993829 1_555
O33 Ti4 1.960744 1_555
O33 Ti4 1.960744 1_455
