# generated using pymatgen
data_Li24Ti5Cr7O36
_symmetry_space_group_name_H-M   'P 1'
_cell_length_a   5.05174500
_cell_length_b   9.78415198
_cell_length_c   13.41088065
_cell_angle_alpha   97.27081751
_cell_angle_beta   100.75299369
_cell_angle_gamma   94.66849606
_symmetry_Int_Tables_number   1
_chemical_formula_structural   Li24Ti5Cr7O36
_chemical_formula_sum   'Li24 Ti5 Cr7 O36'
_cell_volume   642.22364585
_cell_formula_units_Z   1
loop_
 _symmetry_equiv_pos_site_id
 _symmetry_equiv_pos_as_xyz
  1  'x, y, z'
loop_
 _atom_site_type_symbol
 _atom_site_label
 _atom_site_symmetry_multiplicity
 _atom_site_fract_x
 _atom_site_fract_y
 _atom_site_fract_z
 _atom_site_occupancy
  Li  Li0  1  0.17122300  0.99880800  0.83308300  1
  Li  Li1  1  0.05101200  0.99922000  0.61386100  1
  Li  Li2  1  0.99889500  0.75001800  0.24972300  1
  Li  Li3  1  0.33322300  0.74946300  0.91746700  1
  Li  Li4  1  0.04998400  0.49928700  0.11311200  1
  Li  Li5  1  0.37491200  0.49839400  0.77834000  1
  Li  Li6  1  0.17099700  0.49843900  0.33337900  1
  Li  Li7  1  0.50623800  0.49972300  0.99871200  1
  Li  Li8  1  0.29053000  0.50014000  0.55554000  1
  Li  Li9  1  0.33304600  0.24963900  0.41701600  1
  Li  Li10  1  0.50075400  0.00083400  0.49960900  1
  Li  Li11  1  0.28338700  0.99890500  0.05354500  1
  Li  Li12  1  0.61595900  0.00025100  0.71943600  1
  Li  Li13  1  0.38084300  0.00007100  0.28088500  1
  Li  Li14  1  0.71196000  0.00097100  0.94657800  1
  Li  Li15  1  0.66474200  0.75073900  0.58279500  1
  Li  Li16  1  0.70908600  0.50087000  0.44497100  1
  Li  Li17  1  0.83519400  0.50251200  0.66582400  1
  Li  Li18  1  0.61517300  0.50099700  0.22068400  1
  Li  Li19  1  0.95174700  0.50090300  0.88798600  1
  Li  Li20  1  0.66362300  0.25070000  0.08180800  1
  Li  Li21  1  0.83526100  0.99987000  0.16635500  1
  Li  Li22  1  0.00021100  0.24988000  0.75057800  1
  Li  Li23  1  0.95146600  0.99922800  0.38642000  1
  Ti  Ti0  1  0.11580700  0.25533500  0.97366900  1
  Ti  Ti1  1  0.11480700  0.75141900  0.47314900  1
  Ti  Ti2  1  0.77693700  0.74767200  0.80814200  1
  Ti  Ti3  1  0.77456200  0.24639500  0.30519900  1
  Ti  Ti4  1  0.89275600  0.24969600  0.52764400  1
  Cr  Cr0  1  0.21936600  0.74973700  0.69399700  1
  Cr  Cr1  1  0.21707600  0.24971100  0.19305200  1
  Cr  Cr2  1  0.44117700  0.24837300  0.64064500  1
  Cr  Cr3  1  0.56281600  0.25025500  0.85980300  1
  Cr  Cr4  1  0.44569800  0.75116100  0.13587000  1
  Cr  Cr5  1  0.55321300  0.74863100  0.35856200  1
  Cr  Cr6  1  0.89307800  0.75066500  0.03169500  1
  O  O0  1  0.99904000  0.86343200  0.93058300  1
  O  O1  1  0.06861200  0.63313500  0.78674500  1
  O  O2  1  0.99840000  0.36459000  0.42893100  1
  O  O3  1  0.15157600  0.36334200  0.64520800  1
  O  O4  1  0.26506600  0.36443600  0.88048900  1
  O  O5  1  0.33692400  0.86402100  0.59455800  1
  O  O6  1  0.06775600  0.13316900  0.28563900  1
  O  O7  1  0.18795500  0.13576400  0.52304900  1
  O  O8  1  0.40460200  0.13472800  0.94974700  1
  O  O9  1  0.13390700  0.86145200  0.14047900  1
  O  O10  1  0.26775400  0.86487400  0.38006500  1
  O  O11  1  0.47139900  0.86234300  0.80926400  1
  O  O12  1  0.32960700  0.13928100  0.73476300  1
  O  O13  1  0.19791800  0.63707500  0.02695900  1
  O  O14  1  0.40131300  0.63305100  0.45155100  1
  O  O15  1  0.51995400  0.63825100  0.68976900  1
  O  O16  1  0.33498300  0.64051100  0.23924200  1
  O  O17  1  0.66761300  0.63744800  0.90664000  1
  O  O18  1  0.33789000  0.36462100  0.09437100  1
  O  O19  1  0.66994300  0.36112700  0.76614800  1
  O  O20  1  0.47186700  0.36182800  0.30820800  1
  O  O21  1  0.59477100  0.36465900  0.55057900  1
  O  O22  1  0.81226100  0.36414500  0.97742400  1
  O  O23  1  0.66408900  0.86193000  0.25903300  1
  O  O24  1  0.51845100  0.13815200  0.18815700  1
  O  O25  1  0.73459500  0.13612100  0.62006800  1
  O  O26  1  0.84856600  0.13627400  0.85599600  1
  O  O27  1  0.59151900  0.86499300  0.05037400  1
  O  O28  1  0.80654000  0.86241400  0.47492700  1
  O  O29  1  0.93807100  0.86478600  0.71454300  1
  O  O30  1  0.66585300  0.13556400  0.40435000  1
  O  O31  1  0.74208800  0.63572400  0.11573800  1
  O  O32  1  0.85208900  0.63784700  0.35519900  1
  O  O33  1  0.00141100  0.63764100  0.57480800  1
  O  O34  1  0.93793400  0.36480900  0.21333200  1
  O  O35  1  0.00092400  0.13755000  0.07392900  1
loop_
_geom_bond_atom_site_label_1
_geom_bond_atom_site_label_2
_geom_bond_distance
_geom_bond_site_symmetry_2
Li0 O8 2.033764 1_565
Li0 O29 2.038683 1_455
Li0 O11 2.141651 1_555
Li0 O0 2.212680 1_455
Li0 O12 2.222871 1_565
Li0 O26 2.235935 1_465
Li1 O5 2.065635 1_555
Li1 O7 2.079033 1_565
Li1 O29 2.119806 1_455
Li1 O25 2.173961 1_465
Li1 O12 2.181687 1_565
Li1 O28 2.242655 1_455
Li2 O16 2.096999 1_655
Li2 O32 2.099359 1_555
Li2 O23 2.102588 1_555
Li2 O9 2.111029 1_655
Li2 O10 2.128734 1_655
Li2 O31 2.132522 1_555
Li3 O17 2.104383 1_555
Li3 O11 2.114436 1_555
Li3 O0 2.119435 1_455
Li3 O13 2.119765 1_556
Li3 O1 2.128027 1_555
Li3 O27 2.130579 1_556
Li4 O13 2.064789 1_555
Li4 O18 2.068600 1_555
Li4 O34 2.113843 1_455
Li4 O31 2.132860 1_455
Li4 O22 2.195195 1_454
Li4 O16 2.240344 1_555
Li5 O15 2.096000 1_555
Li5 O19 2.100723 1_555
Li5 O1 2.122383 1_555
Li5 O4 2.126538 1_555
Li5 O3 2.148290 1_555
Li5 O17 2.264637 1_555
Li6 O14 2.033254 1_555
Li6 O34 2.048625 1_455
Li6 O20 2.149095 1_555
Li6 O2 2.184764 1_455
Li6 O16 2.204389 1_555
Li6 O32 2.230278 1_455
Li7 O31 2.041778 1_556
Li7 O4 2.058073 1_555
Li7 O17 2.150119 1_555
Li7 O22 2.152618 1_555
Li7 O18 2.183962 1_556
Li7 O13 2.192603 1_556
Li8 O3 2.073577 1_555
Li8 O33 2.093466 1_555
Li8 O21 2.114529 1_555
Li8 O14 2.140321 1_555
Li8 O15 2.181872 1_555
Li8 O2 2.235214 1_455
Li9 O7 2.111326 1_555
Li9 O30 2.113114 1_555
Li9 O20 2.118483 1_555
Li9 O2 2.124439 1_455
Li9 O6 2.135649 1_555
Li9 O21 2.141688 1_555
Li10 O10 2.055823 1_545
Li10 O25 2.061409 1_555
Li10 O30 2.170305 1_555
Li10 O5 2.177748 1_545
Li10 O28 2.178968 1_545
Li10 O7 2.181409 1_555
Li11 O9 2.073207 1_555
Li11 O35 2.077932 1_565
Li11 O27 2.117564 1_555
Li11 O8 2.175443 1_564
Li11 O0 2.189180 1_454
Li11 O24 2.199872 1_565
Li12 O12 2.084639 1_555
Li12 O11 2.093922 1_545
Li12 O25 2.125796 1_555
Li12 O29 2.185817 1_545
Li12 O5 2.194665 1_545
Li12 O26 2.198059 1_555
Li13 O23 2.081141 1_545
Li13 O24 2.109472 1_555
Li13 O10 2.109779 1_545
Li13 O6 2.133866 1_555
Li13 O30 2.194574 1_555
Li13 O9 2.267787 1_545
Li14 O26 2.067756 1_555
Li14 O0 2.078670 1_545
Li14 O8 2.113451 1_555
Li14 O27 2.175069 1_546
Li14 O11 2.229813 1_545
Li14 O35 2.237858 1_656
Li15 O5 2.085160 1_555
Li15 O28 2.111639 1_555
Li15 O15 2.112962 1_555
Li15 O33 2.114924 1_655
Li15 O14 2.135027 1_555
Li15 O29 2.147856 1_555
Li16 O2 2.078997 1_555
Li16 O32 2.083939 1_555
Li16 O14 2.108876 1_555
Li16 O21 2.184762 1_555
Li16 O20 2.221184 1_555
Li16 O33 2.265489 1_655
Li17 O1 2.042090 1_655
Li17 O21 2.046524 1_555
Li17 O33 2.133817 1_655
Li17 O15 2.197771 1_555
Li17 O3 2.215610 1_655
Li17 O19 2.263389 1_555
Li18 O16 2.070919 1_555
Li18 O20 2.077765 1_555
Li18 O31 2.190491 1_555
Li18 O32 2.191261 1_555
Li18 O34 2.196402 1_555
Li18 O18 2.202335 1_555
Li19 O17 2.066219 1_555
Li19 O22 2.072133 1_555
Li19 O1 2.117837 1_655
Li19 O4 2.160464 1_655
Li19 O19 2.194592 1_555
Li19 O13 2.243231 1_656
Li20 O18 2.081581 1_555
Li20 O22 2.098898 1_554
Li20 O24 2.107360 1_555
Li20 O35 2.117760 1_655
Li20 O8 2.126319 1_554
Li20 O34 2.148390 1_555
Li21 O6 2.039841 1_665
Li21 O27 2.044070 1_555
Li21 O9 2.153992 1_655
Li21 O35 2.162779 1_665
Li21 O23 2.179375 1_555
Li21 O24 2.214589 1_565
Li22 O12 2.086062 1_555
Li22 O19 2.092864 1_455
Li22 O4 2.115081 1_555
Li22 O3 2.115668 1_555
Li22 O26 2.117629 1_455
Li22 O25 2.119000 1_455
Li23 O30 2.068952 1_565
Li23 O28 2.074528 1_555
Li23 O6 2.123331 1_665
Li23 O10 2.156994 1_655
Li23 O7 2.207495 1_665
Li23 O23 2.237608 1_555
Cr0 O33 1.916544 1_555
Cr0 O29 1.921025 1_455
Cr0 O15 1.945501 1_555
Cr0 O11 1.957206 1_555
Cr0 O5 1.986519 1_555
Cr0 O1 1.999969 1_555
Cr1 O34 1.911747 1_455
Cr1 O35 1.912859 1_555
Cr1 O24 1.950201 1_555
Cr1 O20 1.960785 1_555
Cr1 O18 1.988525 1_555
Cr1 O6 1.994700 1_555
Cr2 O12 1.886442 1_555
Cr2 O3 1.921795 1_555
Cr2 O25 1.954597 1_555
Cr2 O21 1.977207 1_555
Cr2 O7 1.978740 1_555
Cr2 O19 1.995525 1_555
Cr3 O19 1.884174 1_555
Cr3 O26 1.898745 1_555
Cr3 O22 1.975505 1_555
Cr3 O8 1.982234 1_555
Cr3 O4 1.984516 1_555
Cr3 O12 1.993134 1_555
Cr4 O27 1.898047 1_555
Cr4 O13 1.903625 1_555
Cr4 O23 1.947362 1_555
Cr4 O31 1.984784 1_555
Cr4 O9 1.986281 1_555
Cr4 O16 1.994339 1_555
Cr5 O16 1.902223 1_555
Cr5 O32 1.932874 1_555
Cr5 O10 1.948177 1_555
Cr5 O23 1.968915 1_555
Cr5 O28 1.973719 1_555
Cr5 O14 1.998906 1_555
Cr6 O9 1.872487 1_655
Cr6 O31 1.902332 1_555
Cr6 O0 1.973835 1_554
Cr6 O13 1.976854 1_655
Cr6 O17 1.987113 1_554
Cr6 O27 1.995904 1_555
O0 Ti2 1.967973 1_555
O1 Ti2 1.963280 1_455
O2 Ti4 1.960534 1_555
O2 Ti3 1.992664 1_555
O3 Ti4 1.995514 1_455
O4 Ti0 1.956477 1_555
O5 Ti1 1.945986 1_555
O6 Ti3 1.956624 1_455
O7 Ti4 1.938506 1_455
O8 Ti0 1.995726 1_555
O10 Ti1 1.989629 1_555
O11 Ti2 1.981842 1_555
O14 Ti1 1.965803 1_555
O15 Ti2 1.981459 1_555
O17 Ti2 1.936185 1_555
O18 Ti0 1.926453 1_554
O20 Ti3 1.976888 1_555
O21 Ti4 1.996673 1_555
O22 Ti0 1.941225 1_655
O24 Ti3 1.964103 1_555
O25 Ti4 1.995798 1_555
O26 Ti0 2.038060 1_655
O28 Ti1 1.971721 1_655
O29 Ti2 2.035869 1_555
O30 Ti3 1.945794 1_555
O30 Ti4 1.977859 1_555
O32 Ti1 2.007480 1_655
O33 Ti1 1.999470 1_555
O34 Ti3 2.031351 1_555
O35 Ti0 2.011793 1_554
