# generated using pymatgen
data_Li3Cr3CoO8
_symmetry_space_group_name_H-M   'P 1'
_cell_length_a   5.88799760
_cell_length_b   10.28823839
_cell_length_c   5.88808274
_cell_angle_alpha   106.63805108
_cell_angle_beta   119.99546348
_cell_angle_gamma   89.99422173
_symmetry_Int_Tables_number   1
_chemical_formula_structural   Li3Cr3CoO8
_chemical_formula_sum   'Li6 Cr6 Co2 O16'
_cell_volume   291.54684346
_cell_formula_units_Z   2
loop_
 _symmetry_equiv_pos_site_id
 _symmetry_equiv_pos_as_xyz
  1  'x, y, z'
loop_
 _atom_site_type_symbol
 _atom_site_label
 _atom_site_symmetry_multiplicity
 _atom_site_fract_x
 _atom_site_fract_y
 _atom_site_fract_z
 _atom_site_occupancy
  Li  Li0  1  0.25000700  0.25002500  0.00002900  1
  Li  Li1  1  0.74999800  0.74997400  0.99997500  1
  Li  Li2  1  0.75001600  0.25001700  0.00001300  1
  Li  Li3  1  0.24998600  0.74998300  0.99999000  1
  Li  Li4  1  0.25000900  0.25001400  0.49999900  1
  Li  Li5  1  0.74999600  0.74998600  0.50000400  1
  Cr  Cr0  1  0.49999600  0.99999100  0.99998300  1
  Cr  Cr1  1  0.00000000  0.49999300  0.00000300  1
  Cr  Cr2  1  0.50001100  0.00000000  0.49998800  1
  Cr  Cr3  1  0.00000000  0.50000800  0.49998800  1
  Cr  Cr4  1  0.00000500  0.99999400  0.49998500  1
  Cr  Cr5  1  0.50000400  0.50000500  0.50002100  1
  Co  Co0  1  0.50000100  0.50000200  0.00000000  1
  Co  Co1  1  0.00000000  0.00000000  0.00000000  1
  O  O0  1  0.37066200  0.11204100  0.74136200  1
  O  O1  1  0.87068000  0.61207200  0.74138400  1
  O  O2  1  0.12931700  0.38792500  0.25862100  1
  O  O3  1  0.62934300  0.88796800  0.25864200  1
  O  O4  1  0.34990000  0.10628200  0.22815500  1
  O  O5  1  0.84992100  0.60623600  0.22810500  1
  O  O6  1  0.87814600  0.10620800  0.22808300  1
  O  O7  1  0.37815300  0.60622700  0.22808200  1
  O  O8  1  0.87814900  0.10630800  0.75640800  1
  O  O9  1  0.37813600  0.60627000  0.75631000  1
  O  O10  1  0.62184600  0.39373700  0.24368300  1
  O  O11  1  0.12185600  0.89369400  0.24361400  1
  O  O12  1  0.62183300  0.39377000  0.77190900  1
  O  O13  1  0.12185800  0.89379600  0.77192200  1
  O  O14  1  0.15007400  0.39375600  0.77190000  1
  O  O15  1  0.65009400  0.89371900  0.77184300  1
loop_
_geom_bond_atom_site_label_1
_geom_bond_atom_site_label_2
_geom_bond_distance
_geom_bond_site_symmetry_2
Li0 O2 2.163513 1_555
Li0 O10 2.164049 1_555
Li0 O0 2.164065 1_554
Li0 O8 2.164158 1_454
Li0 O14 2.164303 1_554
Li0 O4 2.164406 1_555
Li1 O1 2.163486 1_555
Li1 O9 2.164098 1_555
Li1 O3 2.164112 1_556
Li1 O11 2.164169 1_656
Li1 O5 2.164371 1_556
Li1 O15 2.164446 1_555
Li2 O8 2.163317 1_554
Li2 O10 2.163767 1_555
Li2 O2 2.163948 1_655
Li2 O12 2.164395 1_554
Li2 O0 2.164478 1_554
Li2 O6 2.164751 1_555
Li3 O11 2.163387 1_556
Li3 O9 2.163689 1_555
Li3 O1 2.163982 1_455
Li3 O7 2.164373 1_556
Li3 O3 2.164532 1_556
Li3 O13 2.164778 1_555
Li4 O4 2.163417 1_555
Li4 O14 2.163860 1_555
Li4 O2 2.163991 1_555
Li4 O12 2.164202 1_555
Li4 O0 2.164469 1_555
Li4 O6 2.164593 1_455
Li5 O15 2.163443 1_555
Li5 O5 2.163853 1_555
Li5 O1 2.164025 1_555
Li5 O7 2.164291 1_555
Li5 O3 2.164543 1_555
Li5 O13 2.164609 1_655
Cr0 O3 2.018195 1_556
Cr0 O0 2.018250 1_565
Cr0 O13 2.031021 1_555
Cr0 O6 2.031145 1_566
Cr0 O15 2.031434 1_555
Cr0 O4 2.031630 1_566
Cr1 O2 2.018383 1_555
Cr1 O1 2.018477 1_454
Cr1 O14 2.031042 1_554
Cr1 O5 2.031082 1_455
Cr1 O7 2.031224 1_555
Cr1 O12 2.031244 1_454
Cr2 O3 2.017844 1_545
Cr2 O0 2.018071 1_555
Cr2 O4 2.031313 1_555
Cr2 O15 2.031392 1_545
Cr2 O8 2.031434 1_555
Cr2 O11 2.031489 1_545
Cr3 O2 2.018064 1_555
Cr3 O1 2.018129 1_455
Cr3 O5 2.031094 1_455
Cr3 O9 2.031248 1_555
Cr3 O10 2.031350 1_455
Cr3 O14 2.031405 1_555
Cr4 O3 2.018049 1_455
Cr4 O0 2.018108 1_565
Cr4 O6 2.031058 1_465
Cr4 O13 2.031091 1_555
Cr4 O11 2.031460 1_555
Cr4 O8 2.031762 1_465
Cr5 O1 2.018265 1_555
Cr5 O2 2.018362 1_555
Cr5 O9 2.031045 1_555
Cr5 O10 2.031165 1_555
Cr5 O12 2.031167 1_555
Cr5 O7 2.031289 1_555
Co0 O12 1.906663 1_554
Co0 O7 1.906667 1_555
Co0 O5 1.906939 1_555
Co0 O14 1.907015 1_554
Co0 O10 1.907245 1_555
Co0 O9 1.907299 1_554
Co1 O13 1.906612 1_544
Co1 O6 1.906632 1_455
Co1 O4 1.907037 1_555
Co1 O15 1.907059 1_444
Co1 O8 1.907203 1_454
Co1 O11 1.907282 1_545
