# generated using pymatgen
data_Co11CuO16
_symmetry_space_group_name_H-M   'P 1'
_cell_length_a   5.91538500
_cell_length_b   5.88045300
_cell_length_c   8.32196977
_cell_angle_alpha   89.80185270
_cell_angle_beta   90.00000000
_cell_angle_gamma   90.00000000
_symmetry_Int_Tables_number   1
_chemical_formula_structural   Co11CuO16
_chemical_formula_sum   'Co11 Cu1 O16'
_cell_volume   289.47918114
_cell_formula_units_Z   1
loop_
 _symmetry_equiv_pos_site_id
 _symmetry_equiv_pos_as_xyz
  1  'x, y, z'
loop_
 _atom_site_type_symbol
 _atom_site_label
 _atom_site_symmetry_multiplicity
 _atom_site_fract_x
 _atom_site_fract_y
 _atom_site_fract_z
 _atom_site_occupancy
  Co  Co0  1  0.00000000  0.25213700  0.62649900  1
  Co  Co1  1  0.24974900  0.74756800  0.75108100  1
  Co  Co2  1  0.75025100  0.74756800  0.75108100  1
  Co  Co3  1  0.50000000  0.25022800  0.87932600  1
  Co  Co4  1  0.00000000  0.50000000  0.00000000  1
  Co  Co5  1  0.50000000  0.74977200  0.12067400  1
  Co  Co6  1  0.24974900  0.25243200  0.24891900  1
  Co  Co7  1  0.75025100  0.25243200  0.24891900  1
  Co  Co8  1  0.00000000  0.74786300  0.37350100  1
  Co  Co9  1  0.50000000  0.50000000  0.50000000  1
  Co  Co10  1  0.50000000  0.00000000  0.50000000  1
  Cu  Cu0  1  0.00000000  0.00000000  0.00000000  1
  O  O0  1  0.50000000  0.97671300  0.74426300  1
  O  O1  1  0.50000000  0.51646700  0.74492600  1
  O  O2  1  0.00000000  0.52048100  0.76841800  1
  O  O3  1  0.00000000  0.98133000  0.75796500  1
  O  O4  1  0.22421100  0.73984600  0.98926500  1
  O  O5  1  0.77578900  0.73984600  0.98926500  1
  O  O6  1  0.22421100  0.26015400  0.01073500  1
  O  O7  1  0.77578900  0.26015400  0.01073500  1
  O  O8  1  0.00000000  0.47951900  0.23158200  1
  O  O9  1  0.00000000  0.01867000  0.24203500  1
  O  O10  1  0.50000000  0.48353300  0.25507400  1
  O  O11  1  0.50000000  0.02328700  0.25573700  1
  O  O12  1  0.26782000  0.25059300  0.48902900  1
  O  O13  1  0.73218000  0.25059300  0.48902900  1
  O  O14  1  0.73218000  0.74940700  0.51097100  1
  O  O15  1  0.26782000  0.74940700  0.51097100  1
loop_
_geom_bond_atom_site_label_1
_geom_bond_atom_site_label_2
_geom_bond_distance
_geom_bond_site_symmetry_2
Co0 O3 1.928954 1_545
Co0 O13 1.954178 1_455
Co0 O12 1.954178 1_555
Co0 O2 1.974283 1_555
Co1 O4 1.988270 1_555
Co1 O2 1.996323 1_555
Co1 O15 2.001037 1_555
Co1 O0 2.002439 1_555
Co1 O1 2.010300 1_555
Co1 O3 2.018916 1_555
Co2 O5 1.988270 1_555
Co2 O2 1.996323 1_655
Co2 O14 2.001037 1_555
Co2 O0 2.002439 1_555
Co2 O1 2.010300 1_555
Co2 O3 2.018916 1_655
Co3 O1 1.920935 1_555
Co3 O7 1.965001 1_556
Co3 O6 1.965001 1_556
Co3 O0 1.965396 1_545
Co4 O2 1.930562 1_554
Co4 O8 1.930562 1_555
Co4 O6 1.937886 1_555
Co4 O4 1.937886 1_554
Co4 O7 1.937886 1_455
Co4 O5 1.937886 1_454
Co5 O10 1.920935 1_555
Co5 O5 1.965001 1_554
Co5 O4 1.965001 1_554
Co5 O11 1.965396 1_565
Co6 O6 1.988270 1_555
Co6 O8 1.996323 1_555
Co6 O12 2.001037 1_555
Co6 O11 2.002439 1_555
Co6 O10 2.010300 1_555
Co6 O9 2.018916 1_555
Co7 O7 1.988270 1_555
Co7 O8 1.996323 1_655
Co7 O13 2.001037 1_555
Co7 O11 2.002439 1_555
Co7 O10 2.010300 1_555
Co7 O9 2.018916 1_655
Co8 O9 1.928954 1_565
Co8 O14 1.954178 1_455
Co8 O15 1.954178 1_555
Co8 O8 1.974283 1_555
Co9 O12 2.011610 1_555
Co9 O14 2.011610 1_555
Co9 O13 2.011610 1_555
Co9 O15 2.011610 1_555
Co9 O10 2.040900 1_555
Co9 O1 2.040900 1_555
Co10 O15 2.016240 1_545
Co10 O12 2.016240 1_555
Co10 O14 2.016240 1_545
Co10 O13 2.016240 1_555
Co10 O11 2.036884 1_555
Co10 O0 2.036884 1_545
Cu0 O3 2.017577 1_544
Cu0 O9 2.017577 1_555
Cu0 O6 2.026905 1_555
Cu0 O4 2.026905 1_544
Cu0 O5 2.026905 1_444
Cu0 O7 2.026905 1_455
