# generated using pymatgen
data_LiV(PO3)3
_symmetry_space_group_name_H-M   'P 1'
_cell_length_a   8.57066500
_cell_length_b   8.61308800
_cell_length_c   9.02323000
_cell_angle_alpha   90.00000000
_cell_angle_beta   90.00000000
_cell_angle_gamma   90.00000000
_symmetry_Int_Tables_number   1
_chemical_formula_structural   LiV(PO3)3
_chemical_formula_sum   'Li4 V4 P12 O36'
_cell_volume   666.09386286
_cell_formula_units_Z   4
loop_
 _symmetry_equiv_pos_site_id
 _symmetry_equiv_pos_as_xyz
  1  'x, y, z'
loop_
 _atom_site_type_symbol
 _atom_site_label
 _atom_site_symmetry_multiplicity
 _atom_site_fract_x
 _atom_site_fract_y
 _atom_site_fract_z
 _atom_site_occupancy
  Li  Li0  1  0.10566900  0.87983100  0.41154700  1
  Li  Li1  1  0.39433100  0.12016900  0.91154700  1
  Li  Li2  1  0.60566900  0.62016900  0.58845300  1
  Li  Li3  1  0.89433100  0.37983100  0.08845300  1
  V  V0  1  0.11901000  0.09694900  0.13985500  1
  V  V1  1  0.38099000  0.90305100  0.63985500  1
  V  V2  1  0.61901000  0.40305100  0.86014500  1
  V  V3  1  0.88099000  0.59694900  0.36014500  1
  P  P0  1  0.06094000  0.94936800  0.81792800  1
  P  P1  1  0.06748600  0.72064800  0.06778700  1
  P  P2  1  0.22641900  0.55901200  0.55771000  1
  P  P3  1  0.27358100  0.44098800  0.05771000  1
  P  P4  1  0.43251400  0.27935200  0.56778700  1
  P  P5  1  0.43906000  0.05063200  0.31792800  1
  P  P6  1  0.56094000  0.55063200  0.18207200  1
  P  P7  1  0.56748600  0.77935200  0.93221300  1
  P  P8  1  0.72641900  0.94098800  0.44229000  1
  P  P9  1  0.77358100  0.05901200  0.94229000  1
  P  P10  1  0.93251400  0.22064800  0.43221300  1
  P  P11  1  0.93906000  0.44936800  0.68207200  1
  O  O0  1  0.02090300  0.79051500  0.90822200  1
  O  O1  1  0.06245900  0.11976100  0.37485000  1
  O  O2  1  0.12221100  0.90852400  0.66735000  1
  O  O3  1  0.11324800  0.52037300  0.69855600  1
  O  O4  1  0.12176900  0.84848900  0.16869600  1
  O  O5  1  0.13875000  0.34418300  0.10957700  1
  O  O6  1  0.12846000  0.61993900  0.43174400  1
  O  O7  1  0.16032500  0.05673400  0.91015600  1
  O  O8  1  0.21061100  0.61124400  0.01564500  1
  O  O9  1  0.28938900  0.38875600  0.51564500  1
  O  O10  1  0.33967500  0.94326600  0.41015600  1
  O  O11  1  0.37154000  0.38006100  0.93174400  1
  O  O12  1  0.36125000  0.65581700  0.60957700  1
  O  O13  1  0.37823100  0.15151100  0.66869600  1
  O  O14  1  0.38675200  0.47962700  0.19855600  1
  O  O15  1  0.37778900  0.09147600  0.16735000  1
  O  O16  1  0.43754100  0.88023900  0.87485000  1
  O  O17  1  0.47909700  0.20948500  0.40822200  1
  O  O18  1  0.52090300  0.70948500  0.09177800  1
  O  O19  1  0.56245900  0.38023900  0.62515000  1
  O  O20  1  0.62221100  0.59147600  0.33265000  1
  O  O21  1  0.61324800  0.97962700  0.30144400  1
  O  O22  1  0.62176900  0.65151100  0.83130400  1
  O  O23  1  0.63875000  0.15581700  0.89042300  1
  O  O24  1  0.62846000  0.88006100  0.56825600  1
  O  O25  1  0.66032500  0.44326600  0.08984400  1
  O  O26  1  0.71061100  0.88875600  0.98435500  1
  O  O27  1  0.78938900  0.11124400  0.48435500  1
  O  O28  1  0.83967500  0.55673400  0.58984400  1
  O  O29  1  0.87154000  0.11993900  0.06825600  1
  O  O30  1  0.86125000  0.84418300  0.39042300  1
  O  O31  1  0.87823100  0.34848900  0.33130400  1
  O  O32  1  0.88675200  0.02037300  0.80144400  1
  O  O33  1  0.87778900  0.40852400  0.83265000  1
  O  O34  1  0.93754100  0.61976100  0.12515000  1
  O  O35  1  0.97909700  0.29051500  0.59177800  1
loop_
_geom_bond_atom_site_label_1
_geom_bond_atom_site_label_2
_geom_bond_distance
_geom_bond_site_symmetry_2
Li0 O10 2.078716 1_555
Li0 O1 2.125412 1_565
Li0 O30 2.125778 1_455
Li0 O4 2.212174 1_555
Li0 O6 2.254357 1_555
Li0 O2 2.325687 1_555
Li1 O7 2.078716 1_555
Li1 O16 2.125412 1_545
Li1 O23 2.125778 1_555
Li1 O13 2.212174 1_555
Li1 O11 2.254357 1_555
Li1 O15 2.325687 1_556
Li2 O28 2.078716 1_555
Li2 O19 2.125412 1_555
Li2 O12 2.125778 1_555
Li2 O22 2.212174 1_555
Li2 O24 2.254357 1_555
Li2 O20 2.325687 1_555
Li3 O25 2.078716 1_555
Li3 O34 2.125412 1_555
Li3 O5 2.125778 1_655
Li3 O31 2.212174 1_555
Li3 O29 2.254357 1_555
Li3 O33 2.325687 1_554
O0 P1 1.610753 1_556
O0 P0 1.628977 1_555
O1 P10 1.504441 1_455
O1 V0 2.183958 1_555
O2 P0 1.498529 1_555
O2 V1 2.232239 1_555
O3 P11 1.620159 1_455
O3 P2 1.633007 1_555
O4 P1 1.502644 1_555
O4 V0 2.155903 1_565
O5 P3 1.499876 1_555
O5 V0 2.153559 1_555
O6 P2 1.507373 1_555
O6 V3 2.226019 1_455
O7 P0 1.507737 1_545
O7 V0 2.130996 1_556
O8 P3 1.608028 1_555
O8 P1 1.616798 1_555
O9 P2 1.608028 1_555
O9 P4 1.616798 1_555
O10 P5 1.507737 1_565
O10 V1 2.130996 1_555
O11 P3 1.507373 1_556
O11 V2 2.226019 1_555
O12 P2 1.499876 1_555
O12 V1 2.153559 1_555
O13 P4 1.502644 1_555
O13 V1 2.155903 1_545
O14 P6 1.620159 1_555
O14 P3 1.633007 1_555
O15 P5 1.498529 1_555
O15 V0 2.232239 1_555
O16 P7 1.504441 1_555
O16 V1 2.183958 1_555
O17 P4 1.610753 1_555
O17 P5 1.628977 1_555
O18 P7 1.610753 1_554
O18 P6 1.628977 1_555
O19 P4 1.504441 1_555
O19 V2 2.183958 1_555
O20 P6 1.498529 1_555
O20 V3 2.232239 1_555
O21 P5 1.620159 1_565
O21 P8 1.633007 1_555
O22 P7 1.502644 1_555
O22 V2 2.155903 1_555
O23 P9 1.499876 1_555
O23 V2 2.153559 1_555
O24 P8 1.507373 1_555
O24 V1 2.226019 1_555
O25 P6 1.507737 1_555
O25 V2 2.130996 1_554
O26 P9 1.608028 1_565
O26 P7 1.616798 1_555
O27 P8 1.608028 1_545
O27 P10 1.616798 1_555
O28 P11 1.507737 1_555
O28 V3 2.130996 1_555
O29 P9 1.507373 1_554
O29 V0 2.226019 1_655
O30 P8 1.499876 1_555
O30 V3 2.153559 1_555
O31 P10 1.502644 1_555
O31 V3 2.155903 1_555
O32 P0 1.620159 1_645
O32 P9 1.633007 1_555
O33 P11 1.498529 1_555
O33 V2 2.232239 1_555
O34 P1 1.504441 1_655
O34 V3 2.183958 1_555
O35 P10 1.610753 1_555
O35 P11 1.628977 1_555
