# generated using pymatgen
data_Li3MnPCO7
_symmetry_space_group_name_H-M   'P 1'
_cell_length_a   6.62828200
_cell_length_b   10.09370391
_cell_length_c   9.75666680
_cell_angle_alpha   117.84804998
_cell_angle_beta   90.00038478
_cell_angle_gamma   89.99997946
_symmetry_Int_Tables_number   1
_chemical_formula_structural   Li3MnPCO7
_chemical_formula_sum   'Li12 Mn4 P4 C4 O28'
_cell_volume   577.16286946
_cell_formula_units_Z   4
loop_
 _symmetry_equiv_pos_site_id
 _symmetry_equiv_pos_as_xyz
  1  'x, y, z'
loop_
 _atom_site_type_symbol
 _atom_site_label
 _atom_site_symmetry_multiplicity
 _atom_site_fract_x
 _atom_site_fract_y
 _atom_site_fract_z
 _atom_site_occupancy
  Li  Li0  1  0.52292200  0.01979600  0.02061500  1
  Li  Li1  1  0.52288600  0.51979200  0.52066000  1
  Li  Li2  1  0.02293600  0.98019700  0.97938000  1
  Li  Li3  1  0.02287500  0.48020900  0.47934200  1
  Li  Li4  1  0.19819500  0.30557300  0.12667100  1
  Li  Li5  1  0.19823600  0.80557700  0.62669200  1
  Li  Li6  1  0.69823300  0.69444000  0.87332800  1
  Li  Li7  1  0.69822600  0.19441800  0.37330700  1
  Li  Li8  1  0.38599700  0.48136500  0.96003300  1
  Li  Li9  1  0.38613600  0.98136100  0.46003000  1
  Li  Li10  1  0.88599000  0.51863600  0.03996700  1
  Li  Li11  1  0.88616800  0.01864600  0.53998100  1
  Mn  Mn0  1  0.75007400  0.66182100  0.37815300  1
  Mn  Mn1  1  0.25007200  0.33818700  0.62185400  1
  Mn  Mn2  1  0.75038700  0.16155300  0.87801200  1
  Mn  Mn3  1  0.25037800  0.83844400  0.12200100  1
  P  P0  1  0.25098500  0.64033800  0.31175200  1
  P  P1  1  0.25103300  0.14032700  0.81169300  1
  P  P2  1  0.75099200  0.35966000  0.68825000  1
  P  P3  1  0.75103100  0.85967000  0.18830400  1
  C  C0  1  0.74018100  0.33096700  0.20240400  1
  C  C1  1  0.74020200  0.83097700  0.70244700  1
  C  C2  1  0.24019400  0.66903500  0.79759700  1
  C  C3  1  0.24018800  0.16902200  0.29754700  1
  O  O0  1  0.70762000  0.19241500  0.16753900  1
  O  O1  1  0.70763500  0.69242000  0.66753200  1
  O  O2  1  0.20764000  0.80758800  0.83246100  1
  O  O3  1  0.20761300  0.30757500  0.33245800  1
  O  O4  1  0.76514200  0.42964200  0.34679600  1
  O  O5  1  0.76517700  0.92962200  0.84687000  1
  O  O6  1  0.26515000  0.57035900  0.65320500  1
  O  O7  1  0.26516000  0.07037200  0.15312700  1
  O  O8  1  0.07197000  0.15581000  0.92319900  1
  O  O9  1  0.07191900  0.65582700  0.42324100  1
  O  O10  1  0.57196600  0.84419300  0.07680300  1
  O  O11  1  0.57192500  0.34417200  0.57675700  1
  O  O12  1  0.44127300  0.61548800  0.38856000  1
  O  O13  1  0.44133600  0.11545000  0.88843900  1
  O  O14  1  0.94127900  0.38451100  0.61144200  1
  O  O15  1  0.94133500  0.88453100  0.11154300  1
  O  O16  1  0.75053100  0.37176600  0.09412500  1
  O  O17  1  0.75055500  0.87184100  0.59422500  1
  O  O18  1  0.25054000  0.62823600  0.90587800  1
  O  O19  1  0.25055900  0.12816300  0.40577500  1
  O  O20  1  0.21203100  0.51008600  0.14634300  1
  O  O21  1  0.21200300  0.01008900  0.64628200  1
  O  O22  1  0.71203700  0.48991800  0.85365600  1
  O  O23  1  0.71202400  0.98991300  0.35371700  1
  O  O24  1  0.27736600  0.29043000  0.80498300  1
  O  O25  1  0.27737000  0.79042700  0.30502600  1
  O  O26  1  0.77735500  0.70956700  0.19501700  1
  O  O27  1  0.77737500  0.20957500  0.69498100  1
loop_
_geom_bond_atom_site_label_1
_geom_bond_atom_site_label_2
_geom_bond_distance
_geom_bond_site_symmetry_2
Li0 O13 2.012694 1_554
Li0 O7 2.057810 1_555
Li0 O0 2.063005 1_555
Li0 O10 2.110856 1_545
Li0 O5 2.199768 1_544
Li1 O12 2.012431 1_555
Li1 O6 2.057836 1_555
Li1 O1 2.063100 1_555
Li1 O11 2.110437 1_555
Li1 O4 2.200431 1_555
Li2 O15 2.012710 1_456
Li2 O5 2.057770 1_455
Li2 O2 2.062972 1_555
Li2 O8 2.110900 1_565
Li2 O7 2.199614 1_566
Li3 O14 2.012422 1_455
Li3 O4 2.057811 1_455
Li3 O3 2.063134 1_555
Li3 O9 2.110450 1_555
Li3 O6 2.200501 1_555
Li4 O20 1.984036 1_555
Li4 O3 1.999410 1_555
Li4 O8 2.030388 1_554
Li4 O7 2.544063 1_555
Li5 O21 1.984316 1_565
Li5 O2 1.999190 1_555
Li5 O9 2.030473 1_555
Li5 O6 2.544471 1_555
Li6 O22 1.984117 1_555
Li6 O1 1.999412 1_555
Li6 O10 2.030503 1_556
Li6 O5 2.543862 1_555
Li7 O23 1.984256 1_545
Li7 O0 1.999216 1_555
Li7 O11 2.030445 1_555
Li7 O4 2.544523 1_555
Li8 O24 1.948685 1_555
Li8 O18 2.003703 1_555
Li8 O20 2.055636 1_556
Li8 O22 2.416338 1_555
Li9 O25 1.948869 1_555
Li9 O19 2.004053 1_565
Li9 O21 2.055775 1_565
Li9 O23 2.415156 1_555
Li10 O26 1.948677 1_555
Li10 O16 2.003721 1_555
Li10 O22 2.055591 1_554
Li10 O20 2.416320 1_655
Li11 O27 1.948898 1_555
Li11 O17 2.004124 1_545
Li11 O23 2.055885 1_545
Li11 O21 2.414789 1_655
Mn0 O26 2.064488 1_555
Mn0 O12 2.112550 1_555
Mn0 O17 2.182422 1_555
Mn0 O9 2.184700 1_655
Mn0 O4 2.219445 1_555
Mn1 O24 2.064498 1_555
Mn1 O14 2.112482 1_455
Mn1 O19 2.182478 1_555
Mn1 O11 2.184765 1_555
Mn1 O6 2.219399 1_555
Mn2 O27 2.065099 1_555
Mn2 O13 2.113620 1_555
Mn2 O8 2.182904 1_655
Mn2 O16 2.183638 1_556
Mn2 O5 2.217627 1_545
Mn3 O25 2.065010 1_555
Mn3 O15 2.113574 1_455
Mn3 O10 2.182972 1_555
Mn3 O18 2.183662 1_554
Mn3 O7 2.217650 1_565
C0 O0 1.293698 1_555
C0 O4 1.301213 1_555
C0 O16 1.302621 1_555
C1 O1 1.293635 1_555
C1 O5 1.301366 1_555
C1 O17 1.302545 1_555
C2 O2 1.293703 1_555
C2 O6 1.301214 1_555
C2 O18 1.302638 1_555
C3 O3 1.293615 1_555
C3 O7 1.301358 1_555
C3 O19 1.302572 1_555
O8 P1 1.567758 1_555
O9 P0 1.567652 1_555
O10 P3 1.567739 1_555
O11 P2 1.567674 1_555
O12 P0 1.546264 1_555
O13 P1 1.546112 1_555
O14 P2 1.546271 1_555
O15 P3 1.546145 1_555
O20 P0 1.554792 1_555
O21 P1 1.554838 1_555
O22 P2 1.554800 1_555
O23 P3 1.554846 1_555
O24 P1 1.556577 1_555
O25 P0 1.556553 1_555
O26 P3 1.556585 1_555
O27 P2 1.556536 1_555
