# generated using pymatgen
data_Na4Sb2C4SO16
_symmetry_space_group_name_H-M   'P 1'
_cell_length_a   10.34526724
_cell_length_b   10.23742975
_cell_length_c   10.21319056
_cell_angle_alpha   60.77753460
_cell_angle_beta   59.72703448
_cell_angle_gamma   59.49543092
_symmetry_Int_Tables_number   1
_chemical_formula_structural   Na4Sb2C4SO16
_chemical_formula_sum   'Na8 Sb4 C8 S2 O32'
_cell_volume   764.63589628
_cell_formula_units_Z   2
loop_
 _symmetry_equiv_pos_site_id
 _symmetry_equiv_pos_as_xyz
  1  'x, y, z'
loop_
 _atom_site_type_symbol
 _atom_site_label
 _atom_site_symmetry_multiplicity
 _atom_site_fract_x
 _atom_site_fract_y
 _atom_site_fract_z
 _atom_site_occupancy
  Na  Na0  1  0.20661800  0.79338200  0.20661800  1
  Na  Na1  1  0.79353900  0.79353900  0.20646100  1
  Na  Na2  1  0.79537000  0.20463000  0.20463000  1
  Na  Na3  1  0.20463000  0.79537000  0.79537000  1
  Na  Na4  1  0.05342900  0.44657100  0.44657100  1
  Na  Na5  1  0.79338200  0.20661800  0.79338200  1
  Na  Na6  1  0.20646100  0.20646100  0.79353900  1
  Na  Na7  1  0.44657100  0.05342900  0.05342900  1
  Sb  Sb0  1  0.61459800  0.63101900  0.62971500  1
  Sb  Sb1  1  0.12466900  0.62971500  0.63101900  1
  Sb  Sb2  1  0.62971500  0.12466900  0.61459700  1
  Sb  Sb3  1  0.63101900  0.61459800  0.12466900  1
  C  C0  1  0.40514800  0.78236500  0.40804300  1
  C  C1  1  0.84973100  0.84207900  0.45399300  1
  C  C2  1  0.84207900  0.84973100  0.85419700  1
  C  C3  1  0.45399300  0.85419700  0.84973100  1
  C  C4  1  0.78236500  0.40514800  0.40444500  1
  C  C5  1  0.40804300  0.40444500  0.40514800  1
  C  C6  1  0.40444500  0.40804300  0.78236500  1
  C  C7  1  0.85419700  0.45399300  0.84207900  1
  S  S0  1  0.25000000  0.25000000  0.25000000  1
  S  S1  1  0.00000000  0.00000000  0.00000000  1
  O  O0  1  0.52406000  0.79153100  0.27385800  1
  O  O1  1  0.98589400  0.72579300  0.45112000  1
  O  O2  1  0.27781100  0.77747800  0.41749000  1
  O  O3  1  0.73393700  0.82447500  0.45476000  1
  O  O4  1  0.41400300  0.77469600  0.53491200  1
  O  O5  1  0.19471000  0.18799500  0.18795500  1
  O  O6  1  0.42934000  0.18795500  0.18799500  1
  O  O7  1  0.83189600  0.97898700  0.45212400  1
  O  O8  1  0.45212400  0.73699400  0.83189600  1
  O  O9  1  0.97898700  0.83189600  0.73699400  1
  O  O10  1  0.18799500  0.19471000  0.42934000  1
  O  O11  1  0.18795500  0.42934000  0.19471000  1
  O  O12  1  0.77469600  0.41400300  0.27638800  1
  O  O13  1  0.53491200  0.27638800  0.41400300  1
  O  O14  1  0.45476000  0.98682800  0.73393700  1
  O  O15  1  0.82447500  0.73393700  0.98682800  1
  O  O16  1  0.77747800  0.27781100  0.52722100  1
  O  O17  1  0.41749000  0.52722100  0.27781100  1
  O  O18  1  0.72579300  0.98589400  0.83719300  1
  O  O19  1  0.45112000  0.83719300  0.98589400  1
  O  O20  1  0.05991700  0.05842700  0.82143500  1
  O  O21  1  0.06022200  0.82143500  0.05842700  1
  O  O22  1  0.27385800  0.41055100  0.52406000  1
  O  O23  1  0.79153100  0.52406000  0.41055100  1
  O  O24  1  0.41055100  0.27385800  0.79153100  1
  O  O25  1  0.05842700  0.05991700  0.06022200  1
  O  O26  1  0.82143500  0.06022200  0.05991700  1
  O  O27  1  0.83719300  0.45112000  0.72579300  1
  O  O28  1  0.52722100  0.41749000  0.77747800  1
  O  O29  1  0.98682800  0.45476000  0.82447500  1
  O  O30  1  0.27638800  0.53491200  0.77469600  1
  O  O31  1  0.73699400  0.45212400  0.97898700  1
loop_
_geom_bond_atom_site_label_1
_geom_bond_atom_site_label_2
_geom_bond_distance
_geom_bond_site_symmetry_2
Na0 O19 2.469110 1_554
Na0 O1 2.469110 1_455
Na0 O21 2.472250 1_555
Na0 O25 2.472255 1_565
Na0 O17 2.518419 1_555
Na0 O2 2.518419 1_555
Na1 O3 2.433273 1_555
Na1 O15 2.433273 1_554
Na1 O26 2.480263 1_565
Na1 O21 2.480263 1_655
Na1 O0 2.521075 1_555
Na1 O23 2.521075 1_555
Na2 O26 2.402004 1_555
Na2 O25 2.402009 1_655
Na2 O12 2.467298 1_555
Na2 O13 2.467304 1_555
Na2 O31 2.498761 1_554
Na2 O7 2.498763 1_545
Na3 O21 2.402013 1_556
Na3 O20 2.402013 1_565
Na3 O4 2.467305 1_555
Na3 O30 2.467308 1_555
Na3 O9 2.498757 1_455
Na3 O8 2.498767 1_555
Na4 O10 2.273574 1_555
Na4 O11 2.273574 1_555
Na4 O22 2.577494 1_555
Na4 O23 2.577494 1_455
Na4 O27 2.594381 1_455
Na4 O1 2.594381 1_455
Na5 O18 2.469110 1_545
Na5 O27 2.469110 1_555
Na5 O26 2.472258 1_556
Na5 O20 2.472259 1_655
Na5 O28 2.518419 1_555
Na5 O16 2.518419 1_555
Na6 O29 2.433273 1_455
Na6 O14 2.433273 1_545
Na6 O20 2.480254 1_555
Na6 O25 2.480259 1_556
Na6 O22 2.521075 1_555
Na6 O24 2.521075 1_555
Na7 O6 2.273574 1_555
Na7 O5 2.273574 1_555
Na7 O0 2.577494 1_545
Na7 O24 2.577494 1_554
Na7 O19 2.594381 1_544
Na7 O18 2.594381 1_544
C0 O2 1.296623 1_555
C0 O0 1.300816 1_555
C0 O4 1.306345 1_555
C1 O3 1.294560 1_555
C1 O1 1.300895 1_555
C1 O7 1.309099 1_555
C2 O15 1.294560 1_555
C2 O18 1.300895 1_555
C2 O9 1.309095 1_555
C3 O14 1.294560 1_555
C3 O19 1.300895 1_555
C3 O8 1.309089 1_555
C4 O16 1.296618 1_555
C4 O23 1.300811 1_555
C4 O12 1.306365 1_555
C5 O17 1.296618 1_555
C5 O22 1.300816 1_555
C5 O13 1.306355 1_555
C6 O28 1.296613 1_555
C6 O24 1.300821 1_555
C6 O30 1.306356 1_555
C7 O29 1.294560 1_555
C7 O27 1.300895 1_555
C7 O31 1.309095 1_555
O0 Sb3 2.405644 1_555
O1 Sb1 2.421944 1_655
O2 Sb1 2.298403 1_555
O3 Sb0 2.332843 1_555
O4 Sb0 2.223499 1_555
O5 S0 1.502816 1_555
O6 S0 1.502816 1_555
O7 Sb2 2.258935 1_565
O8 Sb0 2.258941 1_555
O9 Sb1 2.258941 1_655
O10 S0 1.502816 1_555
O11 S0 1.502816 1_555
O12 Sb3 2.223487 1_555
O13 Sb2 2.223490 1_555
O14 Sb2 2.332849 1_565
O15 Sb3 2.332842 1_556
O16 Sb2 2.298403 1_555
O17 Sb3 2.298409 1_555
O18 Sb2 2.421944 1_565
O19 Sb3 2.421942 1_556
O20 S1 1.496491 1_556
O21 S1 1.496491 1_565
O22 Sb1 2.405652 1_555
O23 Sb0 2.405652 1_555
O24 Sb2 2.405652 1_555
O25 S1 1.496500 1_555
O26 S1 1.496491 1_655
O27 Sb0 2.421936 1_555
O28 Sb0 2.298409 1_555
O29 Sb1 2.332849 1_655
O30 Sb1 2.223482 1_555
O31 Sb3 2.258941 1_556
