# generated using pymatgen
data_Mn12O5F19
_symmetry_space_group_name_H-M   'P 1'
_cell_length_a   5.01867400
_cell_length_b   5.60863448
_cell_length_c   15.75024284
_cell_angle_alpha   87.62355544
_cell_angle_beta   88.57017478
_cell_angle_gamma   84.54683584
_symmetry_Int_Tables_number   1
_chemical_formula_structural   Mn12O5F19
_chemical_formula_sum   'Mn12 O5 F19'
_cell_volume   440.85197192
_cell_formula_units_Z   1
loop_
 _symmetry_equiv_pos_site_id
 _symmetry_equiv_pos_as_xyz
  1  'x, y, z'
loop_
 _atom_site_type_symbol
 _atom_site_label
 _atom_site_symmetry_multiplicity
 _atom_site_fract_x
 _atom_site_fract_y
 _atom_site_fract_z
 _atom_site_occupancy
  Mn  Mn0  1  0.98553700  0.06487100  0.00263300  1
  Mn  Mn1  1  0.98648700  0.43869600  0.84701700  1
  Mn  Mn2  1  0.03576500  0.09164800  0.66080800  1
  Mn  Mn3  1  0.99997900  0.44248500  0.49585100  1
  Mn  Mn4  1  0.94696300  0.01671600  0.33437900  1
  Mn  Mn5  1  0.00814000  0.46039400  0.17672500  1
  Mn  Mn6  1  0.50031300  0.95148100  0.82145200  1
  Mn  Mn7  1  0.49188000  0.56937300  0.00022800  1
  Mn  Mn8  1  0.52635300  0.55874500  0.34555900  1
  Mn  Mn9  1  0.49848800  0.93674700  0.49864600  1
  Mn  Mn10  1  0.48804600  0.60329600  0.67061300  1
  Mn  Mn11  1  0.45573800  0.93839200  0.15345200  1
  O  O0  1  0.27558800  0.85711500  0.71924000  1
  O  O1  1  0.21310900  0.14878100  0.55236600  1
  O  O2  1  0.24890000  0.82254400  0.04999000  1
  O  O3  1  0.74821500  0.70614800  0.44179100  1
  O  O4  1  0.76714800  0.34049300  0.95340000  1
  F  F0  1  0.22280500  0.12878000  0.90068000  1
  F  F1  1  0.27006700  0.86009300  0.40113200  1
  F  F2  1  0.21517100  0.14787700  0.23474800  1
  F  F3  1  0.30445300  0.62361700  0.88913400  1
  F  F4  1  0.26931700  0.34947000  0.73613000  1
  F  F5  1  0.20172000  0.36437100  0.38723700  1
  F  F6  1  0.26424600  0.31824700  0.06939300  1
  F  F7  1  0.27771600  0.66096900  0.23413500  1
  F  F8  1  0.28442200  0.63887600  0.56124100  1
  F  F9  1  0.71500700  0.63170700  0.09842500  1
  F  F10  1  0.74012600  0.64804500  0.76589300  1
  F  F11  1  0.77848100  0.38625400  0.61484000  1
  F  F12  1  0.72804100  0.30706900  0.26875400  1
  F  F13  1  0.71832300  0.88872800  0.60605600  1
  F  F14  1  0.74965100  0.84067100  0.92895200  1
  F  F15  1  0.75226000  0.79378600  0.25719500  1
  F  F16  1  0.72253500  0.20306600  0.44084100  1
  F  F17  1  0.79597600  0.11389600  0.11137100  1
  F  F18  1  0.81303100  0.14655600  0.76969200  1
loop_
_geom_bond_atom_site_label_1
_geom_bond_atom_site_label_2
_geom_bond_distance
_geom_bond_site_symmetry_2
Mn0 O2 1.942740 1_645
Mn0 O4 1.952750 1_554
Mn1 O4 2.066217 1_555
Mn2 O0 1.918306 1_545
Mn2 O1 1.935204 1_555
Mn3 O3 2.025444 1_555
Mn3 O1 2.059365 1_655
Mn4 O3 2.625394 1_545
Mn6 O0 2.102019 1_555
Mn7 O4 1.947043 1_554
Mn7 O2 1.957817 1_555
Mn8 O3 2.140942 1_555
Mn9 O3 1.943537 1_555
Mn9 O1 1.969936 1_565
Mn10 O0 1.873827 1_555
Mn11 O2 2.110825 1_555
F0 Mn0 2.015670 1_456
F0 Mn6 2.058791 1_545
F0 Mn1 2.163031 1_455
F1 Mn9 2.023411 1_555
F1 Mn4 2.060156 1_465
F1 Mn8 2.220453 1_555
F2 Mn11 2.062910 1_545
F2 Mn5 2.134344 1_555
F2 Mn4 2.191459 1_455
F3 Mn7 2.005643 1_556
F3 Mn1 2.118172 1_455
F3 Mn6 2.369116 1_555
F4 Mn10 2.101237 1_555
F4 Mn1 2.264780 1_455
F4 Mn2 2.325097 1_555
F5 Mn3 2.008715 1_455
F5 Mn8 2.120997 1_555
F5 Mn4 2.606019 1_455
F6 Mn7 2.142923 1_555
F6 Mn5 2.225762 1_555
F6 Mn0 2.378392 1_455
F6 Mn11 2.579876 1_545
F7 Mn5 2.085231 1_555
F7 Mn8 2.203526 1_555
F7 Mn11 2.208553 1_555
F8 Mn10 2.017971 1_555
F8 Mn3 2.185891 1_455
F8 Mn9 2.251423 1_555
F9 Mn7 1.993469 1_555
F9 Mn5 2.081335 1_655
F9 Mn11 2.246082 1_555
F10 Mn10 2.025307 1_555
F10 Mn1 2.053882 1_555
F10 Mn6 2.189117 1_555
F11 Mn10 2.016341 1_555
F11 Mn2 2.112724 1_655
F11 Mn3 2.181994 1_555
F12 Mn8 2.071079 1_555
F12 Mn4 2.122373 1_555
F12 Mn5 2.200287 1_655
F13 Mn9 2.037305 1_555
F13 Mn2 2.252021 1_665
F13 Mn10 2.256170 1_555
F14 Mn6 2.165534 1_555
F14 Mn0 2.191328 1_566
F14 Mn7 2.325756 1_556
F15 Mn4 2.100845 1_565
F15 Mn8 2.239052 1_555
F15 Mn11 2.307446 1_555
F15 Mn5 2.531960 1_655
F16 Mn9 2.116524 1_545
F16 Mn4 2.236069 1_555
F16 Mn3 2.237113 1_555
F16 Mn8 2.579382 1_555
F17 Mn0 1.954957 1_555
F17 Mn11 2.129034 1_545
F17 Mn5 2.565915 1_655
F18 Mn2 2.041601 1_655
F18 Mn6 2.124458 1_545
F18 Mn1 2.327069 1_555
