# generated using pymatgen
data_Li4V3P8O29
_symmetry_space_group_name_H-M   'P 1'
_cell_length_a   9.75752600
_cell_length_b   9.76247055
_cell_length_c   14.10735485
_cell_angle_alpha   90.28309779
_cell_angle_beta   89.90743226
_cell_angle_gamma   119.83000216
_symmetry_Int_Tables_number   1
_chemical_formula_structural   Li4V3P8O29
_chemical_formula_sum   'Li8 V6 P16 O58'
_cell_volume   1165.76651236
_cell_formula_units_Z   2
loop_
 _symmetry_equiv_pos_site_id
 _symmetry_equiv_pos_as_xyz
  1  'x, y, z'
loop_
 _atom_site_type_symbol
 _atom_site_label
 _atom_site_symmetry_multiplicity
 _atom_site_fract_x
 _atom_site_fract_y
 _atom_site_fract_z
 _atom_site_occupancy
  Li  Li0  1  0.33114100  0.09676300  0.55570500  1
  Li  Li1  1  0.90805200  0.67609800  0.06152700  1
  Li  Li2  1  0.77717500  0.09380200  0.05717200  1
  Li  Li3  1  0.90732100  0.23559000  0.55936600  1
  Li  Li4  1  0.22493800  0.91938400  0.94207300  1
  Li  Li5  1  0.66876000  0.89950200  0.44025200  1
  Li  Li6  1  0.68142500  0.77288700  0.93915200  1
  Li  Li7  1  0.00703400  0.95277200  0.49037200  1
  V  V0  1  0.00394900  0.56646800  0.25806200  1
  V  V1  1  0.00336900  0.43684800  0.75032000  1
  V  V2  1  0.43100300  0.00210500  0.75140500  1
  V  V3  1  0.56605100  0.00030800  0.24701000  1
  V  V4  1  0.42911900  0.43281500  0.24935900  1
  V  V5  1  0.56390500  0.55732200  0.74413000  1
  P  P0  1  0.31206300  0.23284300  0.84882000  1
  P  P1  1  0.31256100  0.08908400  0.34076200  1
  P  P2  1  0.77593000  0.69376700  0.33824500  1
  P  P3  1  0.67261300  0.34072100  0.13192200  1
  P  P4  1  0.66765800  0.32969600  0.62869900  1
  P  P5  1  0.91133200  0.68239900  0.84184800  1
  P  P6  1  0.08296100  0.77718300  0.65758900  1
  P  P7  1  0.77118800  0.09157700  0.83888700  1
  P  P8  1  0.22640900  0.90748900  0.16017600  1
  P  P9  1  0.91233300  0.22480100  0.34453900  1
  P  P10  1  0.08620100  0.31329400  0.16142800  1
  P  P11  1  0.33762800  0.66632300  0.37101200  1
  P  P12  1  0.33657900  0.66983400  0.86884700  1
  P  P13  1  0.22152800  0.30279100  0.66043700  1
  P  P14  1  0.68264100  0.90934400  0.65936300  1
  P  P15  1  0.68100100  0.76676200  0.15394000  1
  O  O0  1  0.21295800  0.20395900  0.57771500  1
  O  O1  1  0.34257300  0.26018500  0.32931600  1
  O  O2  1  0.23434100  0.98589400  0.06931400  1
  O  O3  1  0.33576000  0.08634400  0.84146300  1
  O  O4  1  0.47367200  0.38262800  0.82022900  1
  O  O5  1  0.52879800  0.34418100  0.18076600  1
  O  O6  1  0.61516500  0.54173900  0.33208800  1
  O  O7  1  0.75498700  0.75206600  0.06368600  1
  O  O8  1  0.74359000  0.66083900  0.83978900  1
  O  O9  1  0.51163200  0.18757600  0.66671300  1
  O  O10  1  0.46782200  0.08731100  0.32995900  1
  O  O11  1  0.67378800  0.48216000  0.67623600  1
  O  O12  1  0.67457000  0.35219600  0.02689800  1
  O  O13  1  0.67241800  0.33522800  0.52355000  1
  O  O14  1  0.82228000  0.48862300  0.17567600  1
  O  O15  1  0.61930600  0.10062000  0.82147100  1
  O  O16  1  0.67148500  0.18716300  0.16707600  1
  O  O17  1  0.91312000  0.65599300  0.33582500  1
  O  O18  1  0.00558500  0.79676100  0.75573800  1
  O  O19  1  0.00100200  0.79460300  0.57491400  1
  O  O20  1  0.99751700  0.75366200  0.93278500  1
  O  O21  1  0.90227400  0.52126500  0.82070700  1
  O  O22  1  0.81489200  0.32279000  0.67005400  1
  O  O23  1  0.07989100  0.73889100  0.16533300  1
  O  O24  1  0.90839600  0.38109200  0.32904800  1
  O  O25  1  0.74180500  0.08221500  0.33396700  1
  O  O26  1  0.20357600  0.99656400  0.25006100  1
  O  O27  1  0.22395500  0.01924800  0.43030100  1
  O  O28  1  0.77106700  0.99017900  0.57075100  1
  O  O29  1  0.25741900  0.91548800  0.66307500  1
  O  O30  1  0.07812500  0.61617500  0.66977100  1
  O  O31  1  0.91624600  0.25947900  0.83295300  1
  O  O32  1  0.18865300  0.67003700  0.32611500  1
  O  O33  1  0.09069600  0.47266000  0.18092600  1
  O  O34  1  0.99188800  0.22722800  0.07773800  1
  O  O35  1  0.98182500  0.21836300  0.43669100  1
  O  O36  1  0.00850100  0.20968600  0.25721800  1
  O  O37  1  0.08342200  0.33996300  0.66017500  1
  O  O38  1  0.32902600  0.81738600  0.83160400  1
  O  O39  1  0.37857000  0.89796100  0.18046800  1
  O  O40  1  0.18550300  0.52464300  0.81864800  1
  O  O41  1  0.33179400  0.66334600  0.97378700  1
  O  O42  1  0.32907400  0.65608900  0.47561600  1
  O  O43  1  0.32977800  0.51718300  0.32178100  1
  O  O44  1  0.52745900  0.90927500  0.67220600  1
  O  O45  1  0.49062700  0.81319200  0.33385100  1
  O  O46  1  0.25754000  0.34314000  0.16387500  1
  O  O47  1  0.20103700  0.20916000  0.75660000  1
  O  O48  1  0.24138900  0.24948100  0.93639900  1
  O  O49  1  0.38141800  0.46281200  0.67023700  1
  O  O50  1  0.48422100  0.66842300  0.82574000  1
  O  O51  1  0.52130400  0.61944800  0.17517300  1
  O  O52  1  0.66422800  0.91647600  0.15486800  1
  O  O53  1  0.76023500  0.00460100  0.92846000  1
  O  O54  1  0.79347600  0.99944800  0.75047400  1
  O  O55  1  0.65543500  0.73914400  0.66766400  1
  O  O56  1  0.79884700  0.80478500  0.41808400  1
  O  O57  1  0.79828900  0.78856300  0.23985100  1
loop_
_geom_bond_atom_site_label_1
_geom_bond_atom_site_label_2
_geom_bond_distance
_geom_bond_site_symmetry_2
Li0 O0 1.928107 1_555
Li0 O27 2.000412 1_555
Li0 O29 2.167971 1_545
Li0 O9 2.186763 1_555
Li1 O7 1.970581 1_555
Li1 O20 1.996220 1_554
Li1 O23 2.075628 1_655
Li1 O14 2.268091 1_555
Li2 O34 1.858350 1_555
Li2 O53 1.981130 1_554
Li2 O52 2.057080 1_545
Li2 O16 2.283444 1_555
Li3 O35 1.914814 1_555
Li3 O37 2.065202 1_655
Li3 O28 2.089872 1_545
Li3 O22 2.173137 1_555
Li4 O2 1.892592 1_556
Li4 O20 1.996513 1_455
Li4 O3 2.026077 1_565
Li4 O38 2.331827 1_555
Li5 O56 1.930685 1_555
Li5 O28 2.068844 1_555
Li5 O45 2.126762 1_555
Li5 O25 2.167042 1_565
Li6 O7 1.948278 1_556
Li6 O53 2.000902 1_565
Li6 O8 2.042444 1_555
Li6 O50 2.311719 1_555
Li7 O19 1.933333 1_555
Li7 O27 2.062148 1_565
Li7 O56 2.079946 1_455
O0 P13 1.486170 1_555
O1 P1 1.554939 1_555
O1 V4 1.850821 1_555
O2 P8 1.478301 1_555
O3 P0 1.561133 1_555
O3 V2 1.974916 1_555
O4 P0 1.580292 1_555
O4 V5 1.832337 1_555
O5 P3 1.577637 1_555
O5 V4 1.859312 1_555
O6 P2 1.534273 1_555
O6 V4 1.965315 1_555
O7 P15 1.503719 1_555
O8 P5 1.543195 1_555
O8 V5 2.036629 1_555
O9 P4 1.560024 1_555
O9 V2 1.981435 1_555
O10 P1 1.530998 1_555
O10 V3 1.950870 1_555
O11 P4 1.603252 1_555
O11 V5 1.837882 1_555
O12 P3 1.485768 1_555
O13 P4 1.484435 1_555
O14 P3 1.579510 1_555
O14 V0 1.930890 1_655
O15 P7 1.547906 1_555
O15 V2 1.875205 1_555
O16 P3 1.576166 1_555
O16 V3 1.951191 1_555
O17 P2 1.555613 1_555
O17 V0 1.873707 1_655
O18 P5 1.598835 1_455
O18 P6 1.631349 1_555
O19 P6 1.472773 1_555
O20 P5 1.499869 1_555
O21 P5 1.558341 1_555
O21 V1 1.853574 1_655
O22 P4 1.583762 1_555
O22 V1 1.965006 1_655
O23 P8 1.555035 1_555
O23 V0 1.967616 1_555
O24 P9 1.561695 1_555
O24 V0 1.866417 1_655
O25 P9 1.556611 1_555
O25 V3 1.928238 1_555
O26 P8 1.610803 1_555
O26 P1 1.619056 1_565
O27 P1 1.492127 1_555
O28 P14 1.502926 1_555
O29 P6 1.561915 1_555
O29 V2 1.925653 1_565
O30 P6 1.559257 1_555
O30 V1 1.906498 1_555
O31 P7 1.545968 1_555
O31 V1 1.905838 1_655
O32 P11 1.603481 1_555
O32 V0 1.837184 1_555
O33 P10 1.557575 1_555
O33 V0 1.870198 1_555
O34 P10 1.473510 1_655
O35 P9 1.483185 1_555
O36 P9 1.597503 1_455
O36 P10 1.634409 1_555
O37 P13 1.560190 1_555
O37 V1 1.960079 1_555
O38 P12 1.571514 1_555
O38 V2 1.937392 1_565
O39 P8 1.560131 1_555
O39 V3 1.844974 1_565
O40 P12 1.611953 1_555
O40 V1 1.817725 1_555
O41 P12 1.481760 1_555
O42 P11 1.478972 1_555
O43 P11 1.577123 1_555
O43 V4 1.855951 1_555
O44 P14 1.524371 1_555
O44 V2 1.946940 1_565
O45 P11 1.560367 1_555
O45 V3 2.015221 1_565
O46 P10 1.548102 1_555
O46 V4 1.887220 1_555
O47 P13 1.595442 1_555
O47 P0 1.634633 1_555
O48 P0 1.461203 1_555
O49 P13 1.570813 1_555
O49 V5 1.862960 1_555
O50 P12 1.569147 1_555
O50 V5 1.982467 1_555
O51 P15 1.536039 1_555
O51 V4 1.899850 1_555
O52 P15 1.549499 1_555
O52 V3 2.010625 1_565
O53 P7 1.499687 1_555
O54 P7 1.610761 1_565
O54 P14 1.625529 1_555
O55 P14 1.551777 1_555
O55 V5 1.884333 1_555
O56 P2 1.496957 1_555
O57 P15 1.607340 1_555
O57 P2 1.625318 1_555
