# generated using pymatgen
data_Li3MnV(PO4)3
_symmetry_space_group_name_H-M   'P 1'
_cell_length_a   8.50646400
_cell_length_b   8.50604934
_cell_length_c   8.71118690
_cell_angle_alpha   62.41859663
_cell_angle_beta   61.85115507
_cell_angle_gamma   62.97813164
_symmetry_Int_Tables_number   1
_chemical_formula_structural   Li3MnV(PO4)3
_chemical_formula_sum   'Li6 Mn2 V2 P6 O24'
_cell_volume   469.62350097
_cell_formula_units_Z   2
loop_
 _symmetry_equiv_pos_site_id
 _symmetry_equiv_pos_as_xyz
  1  'x, y, z'
loop_
 _atom_site_type_symbol
 _atom_site_label
 _atom_site_symmetry_multiplicity
 _atom_site_fract_x
 _atom_site_fract_y
 _atom_site_fract_z
 _atom_site_occupancy
  Li  Li0  1  0.24125300  0.13657100  0.84756200  1
  Li  Li1  1  0.00000000  0.50000000  0.00000000  1
  Li  Li2  1  0.12830500  0.27208100  0.34383300  1
  Li  Li3  1  0.87169500  0.72791900  0.65616700  1
  Li  Li4  1  0.50000000  0.00000000  0.50000000  1
  Li  Li5  1  0.75874700  0.86342900  0.15243800  1
  Mn  Mn0  1  0.85299000  0.35953000  0.85554300  1
  Mn  Mn1  1  0.14701000  0.64047000  0.14445700  1
  V  V0  1  0.63975800  0.14654600  0.65061200  1
  V  V1  1  0.36024200  0.85345400  0.34938800  1
  P  P0  1  0.55711000  0.75296700  0.95984200  1
  P  P1  1  0.94827600  0.05066900  0.25294800  1
  P  P2  1  0.25586100  0.44570500  0.53608000  1
  P  P3  1  0.74413900  0.55429500  0.46392000  1
  P  P4  1  0.05172400  0.94933100  0.74705200  1
  P  P5  1  0.44289000  0.24703300  0.04015800  1
  O  O0  1  0.47235700  0.17597800  0.88883200  1
  O  O1  1  0.04559800  0.10590100  0.79293400  1
  O  O2  1  0.60288500  0.31377900  0.98707500  1
  O  O3  1  0.76559100  0.07408000  0.42325200  1
  O  O4  1  0.75495900  0.61574500  0.92392800  1
  O  O5  1  0.41169200  0.25490000  0.57824400  1
  O  O6  1  0.10137400  0.46021600  0.72105100  1
  O  O7  1  0.12131000  0.99592500  0.31027900  1
  O  O8  1  0.04540700  0.76789700  0.90850900  1
  O  O9  1  0.67300500  0.38278300  0.54470500  1
  O  O10  1  0.44055200  0.08237200  0.23089500  1
  O  O11  1  0.80463800  0.55853000  0.60052800  1
  O  O12  1  0.19536200  0.44147000  0.39947200  1
  O  O13  1  0.55944800  0.91762800  0.76910500  1
  O  O14  1  0.32699500  0.61721700  0.45529500  1
  O  O15  1  0.95459300  0.23210300  0.09149100  1
  O  O16  1  0.87869000  0.00407500  0.68972100  1
  O  O17  1  0.89862600  0.53978400  0.27894900  1
  O  O18  1  0.58830800  0.74510000  0.42175600  1
  O  O19  1  0.24504100  0.38425500  0.07607200  1
  O  O20  1  0.23440900  0.92592000  0.57674800  1
  O  O21  1  0.39711500  0.68622100  0.01292500  1
  O  O22  1  0.95440200  0.89409900  0.20706600  1
  O  O23  1  0.52764300  0.82402200  0.11116800  1
loop_
_geom_bond_atom_site_label_1
_geom_bond_atom_site_label_2
_geom_bond_distance
_geom_bond_site_symmetry_2
Li0 O1 2.078773 1_555
Li0 O5 2.132877 1_555
Li0 O0 2.341684 1_555
Li0 O6 2.379154 1_555
Li0 O15 2.455853 1_456
Li0 O13 2.472758 1_545
Li1 O19 2.141892 1_555
Li1 O4 2.141892 1_454
Li1 O8 2.191942 1_554
Li1 O15 2.191942 1_455
Li1 O17 2.298287 1_455
Li1 O6 2.298287 1_554
Li2 O19 1.987894 1_555
Li2 O12 2.071384 1_555
Li2 O17 2.264810 1_455
Li2 O10 2.395148 1_555
Li2 O7 2.527050 1_545
Li3 O4 1.987894 1_555
Li3 O11 2.071384 1_555
Li3 O6 2.264810 1_655
Li3 O13 2.395148 1_555
Li3 O16 2.527050 1_565
Li4 O5 2.266135 1_555
Li4 O18 2.266135 1_545
Li4 O3 2.329490 1_555
Li4 O20 2.329490 1_545
Li4 O13 2.348958 1_545
Li4 O10 2.348958 1_555
Li5 O22 2.078773 1_555
Li5 O18 2.132877 1_555
Li5 O23 2.341684 1_555
Li5 O17 2.379154 1_555
Li5 O8 2.455853 1_654
Li5 O10 2.472758 1_565
Mn0 O2 2.007478 1_555
Mn0 O1 2.161198 1_655
Mn0 O11 2.171814 1_555
Mn0 O4 2.209545 1_555
Mn0 O15 2.215471 1_556
Mn0 O6 2.224817 1_655
Mn1 O21 2.007478 1_555
Mn1 O22 2.161198 1_455
Mn1 O12 2.171814 1_555
Mn1 O19 2.209545 1_555
Mn1 O8 2.215471 1_554
Mn1 O17 2.224817 1_455
O0 P5 1.566594 1_556
O0 V0 1.940563 1_555
O1 P4 1.531777 1_545
O2 P5 1.501221 1_556
O3 P1 1.572461 1_555
O3 V0 1.994762 1_555
O4 P0 1.532680 1_555
O5 P2 1.574369 1_555
O5 V0 2.000447 1_555
O6 P2 1.541884 1_555
O7 P1 1.577405 1_465
O7 V1 1.936107 1_555
O8 P4 1.535201 1_555
O9 P3 1.561855 1_555
O9 V0 1.876831 1_555
O10 P5 1.600616 1_555
O10 V1 2.001469 1_545
O11 P3 1.522060 1_555
O12 P2 1.522060 1_555
O13 P0 1.600616 1_555
O13 V0 2.001469 1_565
O14 P2 1.561855 1_555
O14 V1 1.876831 1_555
O15 P1 1.535201 1_555
O16 P4 1.577405 1_645
O16 V0 1.936107 1_555
O17 P3 1.541884 1_555
O18 P3 1.574369 1_555
O18 V1 2.000447 1_555
O19 P5 1.532680 1_555
O20 P4 1.572461 1_555
O20 V1 1.994762 1_555
O21 P0 1.501221 1_554
O22 P1 1.531777 1_565
O23 P0 1.566594 1_554
O23 V1 1.940563 1_555
