# generated using pymatgen
data_Fe3P2(H2O3)4
_symmetry_space_group_name_H-M   'P 1'
_cell_length_a   4.72290700
_cell_length_b   9.39350800
_cell_length_c   10.68397758
_cell_angle_alpha   79.67592295
_cell_angle_beta   90.00000000
_cell_angle_gamma   90.00000000
_symmetry_Int_Tables_number   1
_chemical_formula_structural   Fe3P2(H2O3)4
_chemical_formula_sum   'Fe6 P4 H16 O24'
_cell_volume   466.31707926
_cell_formula_units_Z   2
loop_
 _symmetry_equiv_pos_site_id
 _symmetry_equiv_pos_as_xyz
  1  'x, y, z'
loop_
 _atom_site_type_symbol
 _atom_site_label
 _atom_site_symmetry_multiplicity
 _atom_site_fract_x
 _atom_site_fract_y
 _atom_site_fract_z
 _atom_site_occupancy
  Fe  Fe0  1  0.50000000  0.00000000  0.50000000  1
  Fe  Fe1  1  0.00000000  0.00000000  0.00000000  1
  Fe  Fe2  1  0.43028100  0.67066500  0.67212600  1
  Fe  Fe3  1  0.93028100  0.32933500  0.82787400  1
  Fe  Fe4  1  0.56971900  0.32933500  0.32787400  1
  Fe  Fe5  1  0.06971900  0.67066500  0.17212600  1
  P  P0  1  0.53143700  0.76254900  0.95197100  1
  P  P1  1  0.03143700  0.23745100  0.54802900  1
  P  P2  1  0.46856300  0.23745100  0.04802900  1
  P  P3  1  0.96856300  0.76254900  0.45197100  1
  H  H0  1  0.06999200  0.93851700  0.64642200  1
  H  H1  1  0.56999200  0.06148300  0.85357800  1
  H  H2  1  0.93000800  0.06148300  0.35357800  1
  H  H3  1  0.43000800  0.93851700  0.14642200  1
  H  H4  1  0.28951400  0.90920400  0.76370700  1
  H  H5  1  0.78951400  0.09079600  0.73629300  1
  H  H6  1  0.71048600  0.09079600  0.23629300  1
  H  H7  1  0.21048600  0.90920400  0.26370700  1
  H  H8  1  0.93773600  0.60905600  0.83044900  1
  H  H9  1  0.43773600  0.39094400  0.66955100  1
  H  H10  1  0.06226400  0.39094400  0.16955100  1
  H  H11  1  0.56226400  0.60905600  0.33044900  1
  H  H12  1  0.21528900  0.55509700  0.90701700  1
  H  H13  1  0.71528900  0.44490300  0.59298300  1
  H  H14  1  0.78471100  0.44490300  0.09298300  1
  H  H15  1  0.28471100  0.55509700  0.40701700  1
  O  O0  1  0.71895600  0.80148500  0.53475000  1
  O  O1  1  0.21895600  0.19851500  0.96525000  1
  O  O2  1  0.28104400  0.19851500  0.46525000  1
  O  O3  1  0.78104400  0.80148500  0.03475000  1
  O  O4  1  0.34768800  0.90231700  0.90658300  1
  O  O5  1  0.84768800  0.09768300  0.59341700  1
  O  O6  1  0.65231200  0.09768300  0.09341700  1
  O  O7  1  0.15231200  0.90231700  0.40658300  1
  O  O8  1  0.64693600  0.70953800  0.83175200  1
  O  O9  1  0.14693600  0.29046200  0.66824800  1
  O  O10  1  0.35306400  0.29046200  0.16824800  1
  O  O11  1  0.85306400  0.70953800  0.33175200  1
  O  O12  1  0.15154200  0.64203500  0.53141400  1
  O  O13  1  0.65154200  0.35796500  0.96858600  1
  O  O14  1  0.84845800  0.35796500  0.46858600  1
  O  O15  1  0.34845800  0.64203500  0.03141400  1
  O  O16  1  0.25995100  0.89777400  0.67106900  1
  O  O17  1  0.75995100  0.10222600  0.82893100  1
  O  O18  1  0.74004900  0.10222600  0.32893100  1
  O  O19  1  0.24004900  0.89777400  0.17106900  1
  O  O20  1  0.11000000  0.54548500  0.82771200  1
  O  O21  1  0.61000000  0.45451500  0.67228800  1
  O  O22  1  0.89000000  0.45451500  0.17228800  1
  O  O23  1  0.39000000  0.54548500  0.32771200  1
loop_
_geom_bond_atom_site_label_1
_geom_bond_atom_site_label_2
_geom_bond_distance
_geom_bond_site_symmetry_2
Fe0 O0 2.106270 1_545
Fe0 O2 2.106270 1_555
Fe0 O5 2.205185 1_555
Fe0 O7 2.205185 1_545
Fe0 O18 2.217848 1_555
Fe0 O16 2.217848 1_545
Fe1 O1 2.106270 1_554
Fe1 O3 2.106270 1_445
Fe1 O4 2.205185 1_544
Fe1 O6 2.205185 1_455
Fe1 O19 2.217848 1_545
Fe1 O17 2.217848 1_454
Fe2 O12 2.051928 1_555
Fe2 O8 2.076560 1_555
Fe2 O21 2.200398 1_555
Fe2 O0 2.208313 1_555
Fe2 O16 2.278118 1_555
Fe2 O20 2.394449 1_555
Fe3 O13 2.051928 1_555
Fe3 O9 2.076560 1_655
Fe3 O20 2.200398 1_655
Fe3 O1 2.208313 1_655
Fe3 O17 2.278118 1_555
Fe3 O21 2.394449 1_555
Fe4 O14 2.051928 1_555
Fe4 O10 2.076560 1_555
Fe4 O23 2.200398 1_555
Fe4 O2 2.208313 1_555
Fe4 O18 2.278118 1_555
Fe4 O22 2.394449 1_555
Fe5 O15 2.051928 1_555
Fe5 O11 2.076560 1_455
Fe5 O22 2.200398 1_455
Fe5 O3 2.208313 1_455
Fe5 O19 2.278118 1_555
Fe5 O23 2.394449 1_555
H0 O16 0.992263 1_555
H1 O17 0.992263 1_555
H2 O18 0.992263 1_555
H3 O19 0.992263 1_555
H4 O16 1.024061 1_555
H4 O4 1.540919 1_555
H5 O17 1.024061 1_555
H5 O5 1.540919 1_555
H6 O18 1.024061 1_555
H6 O6 1.540919 1_555
H7 O19 1.024061 1_555
H7 O7 1.540919 1_555
H8 O20 1.012735 1_655
H8 O8 1.667962 1_555
H9 O21 1.012735 1_555
H9 O9 1.667962 1_555
H10 O22 1.012735 1_455
H10 O10 1.667962 1_555
H11 O23 1.012735 1_555
H11 O11 1.667962 1_555
H12 O20 1.000378 1_555
H13 O21 1.000378 1_555
H14 O22 1.000378 1_555
H15 O23 1.000378 1_555
O0 P3 1.556158 1_555
O1 P2 1.556158 1_556
O2 P1 1.556158 1_555
O3 P0 1.556158 1_554
O4 P0 1.576013 1_555
O5 P1 1.576013 1_655
O6 P2 1.576013 1_555
O7 P3 1.576013 1_455
O8 P0 1.557080 1_555
O9 P1 1.557080 1_555
O10 P2 1.557080 1_555
O11 P3 1.557080 1_555
O12 P3 1.550604 1_455
O13 P2 1.550604 1_556
O14 P1 1.550604 1_655
O15 P0 1.550604 1_554
