# generated using pymatgen
data_Ni5O6
_symmetry_space_group_name_H-M   'P 1'
_cell_length_a   5.05600321
_cell_length_b   5.02672939
_cell_length_c   5.02682021
_cell_angle_alpha   119.27491520
_cell_angle_beta   79.74238550
_cell_angle_gamma   79.73892346
_symmetry_Int_Tables_number   1
_chemical_formula_structural   Ni5O6
_chemical_formula_sum   'Ni5 O6'
_cell_volume   104.29367122
_cell_formula_units_Z   1
loop_
 _symmetry_equiv_pos_site_id
 _symmetry_equiv_pos_as_xyz
  1  'x, y, z'
loop_
 _atom_site_type_symbol
 _atom_site_label
 _atom_site_symmetry_multiplicity
 _atom_site_fract_x
 _atom_site_fract_y
 _atom_site_fract_z
 _atom_site_occupancy
  Ni  Ni0  1  0.00000000  0.66666700  0.33333300  1
  Ni  Ni1  1  0.99998409  0.00622851  0.99375673  1
  Ni  Ni2  1  0.49999542  0.83408742  0.16587072  1
  Ni  Ni3  1  0.50000458  0.49924558  0.50079528  1
  Ni  Ni4  1  0.00001591  0.32710449  0.67290927  1
  O  O0  1  0.23593423  0.25760698  0.29245931  1
  O  O1  1  0.22686646  0.91432592  0.58100753  1
  O  O2  1  0.23594251  0.62577084  0.92427646  1
  O  O3  1  0.76406577  0.07572702  0.37420669  1
  O  O4  1  0.77313354  0.41900808  0.08565947  1
  O  O5  1  0.76405749  0.70756216  0.74238954  1
loop_
_geom_bond_atom_site_label_1
_geom_bond_atom_site_label_2
_geom_bond_distance
_geom_bond_site_symmetry_2
Ni0 O4 1.979158 1_455
Ni0 O1 1.979160 1_555
Ni0 O0 2.078205 1_555
Ni0 O3 2.078205 1_465
Ni0 O2 2.078247 1_554
Ni0 O5 2.078250 1_455
Ni1 O3 1.894199 1_556
Ni1 O2 1.894264 1_645
Ni1 O4 1.964742 1_556
Ni1 O1 1.964762 1_645
Ni1 O5 2.143125 1_545
Ni1 O0 2.143329 1_656
Ni2 O0 2.019800 1_565
Ni2 O5 2.019844 1_554
Ni2 O2 2.045862 1_554
Ni2 O3 2.046077 1_565
Ni2 O4 2.091769 1_555
Ni2 O1 2.092018 1_555
Ni3 O3 2.019796 1_555
Ni3 O2 2.019844 1_555
Ni3 O5 2.045862 1_555
Ni3 O0 2.046075 1_555
Ni3 O1 2.091771 1_555
Ni3 O4 2.092016 1_555
Ni4 O0 1.894201 1_555
Ni4 O5 1.894264 1_455
Ni4 O1 1.964739 1_545
Ni4 O4 1.964764 1_456
Ni4 O2 2.143125 1_555
Ni4 O3 2.143327 1_455
