# generated using pymatgen
data_LiLaNb4O12
_symmetry_space_group_name_H-M   'P 1'
_cell_length_a   9.79695558
_cell_length_b   9.79695558
_cell_length_c   11.30451180
_cell_angle_alpha   72.89787075
_cell_angle_beta   72.89787075
_cell_angle_gamma   47.96977478
_symmetry_Int_Tables_number   1
_chemical_formula_structural   LiLaNb4O12
_chemical_formula_sum   'Li3 La3 Nb12 O36'
_cell_volume   763.04872217
_cell_formula_units_Z   3
loop_
 _symmetry_equiv_pos_site_id
 _symmetry_equiv_pos_as_xyz
  1  'x, y, z'
loop_
 _atom_site_type_symbol
 _atom_site_label
 _atom_site_symmetry_multiplicity
 _atom_site_fract_x
 _atom_site_fract_y
 _atom_site_fract_z
 _atom_site_occupancy
  Li  Li0  1  0.16640900  0.16640900  0.66725600  1
  Li  Li1  1  0.66687400  0.66687400  0.16632500  1
  Li  Li2  1  0.83299500  0.83299500  0.33354200  1
  La  La0  1  0.33393300  0.33393300  0.33311200  1
  La  La1  1  0.66625700  0.66625700  0.66780500  1
  La  La2  1  0.99982400  0.99982400  0.99896600  1
  Nb  Nb0  1  0.58652600  0.08625000  0.58623200  1
  Nb  Nb1  1  0.74581800  0.24883600  0.74924000  1
  Nb  Nb2  1  0.57998700  0.08472100  0.07937200  1
  Nb  Nb3  1  0.08472100  0.57998700  0.07937200  1
  Nb  Nb4  1  0.75145600  0.25163400  0.25118900  1
  Nb  Nb5  1  0.91770500  0.41818100  0.91830100  1
  Nb  Nb6  1  0.91523600  0.41337500  0.41576900  1
  Nb  Nb7  1  0.24883600  0.74581800  0.74924000  1
  Nb  Nb8  1  0.08625000  0.58652600  0.58623200  1
  Nb  Nb9  1  0.41337500  0.91523600  0.41576900  1
  Nb  Nb10  1  0.41818100  0.91770500  0.91830100  1
  Nb  Nb11  1  0.25163400  0.75145600  0.25118900  1
  O  O0  1  0.68380500  0.16233400  0.92307700  1
  O  O1  1  0.66850700  0.16288000  0.16855400  1
  O  O2  1  0.66680900  0.16678200  0.66681500  1
  O  O3  1  0.50494100  0.00806600  0.25666700  1
  O  O4  1  0.65300400  0.16497300  0.40964700  1
  O  O5  1  0.17571000  0.17571000  0.41913600  1
  O  O6  1  0.15795300  0.15795300  0.91375300  1
  O  O7  1  0.33557300  0.33557300  0.09663500  1
  O  O8  1  0.32709100  0.32709100  0.57115100  1
  O  O9  1  0.49197800  0.49197800  0.24917200  1
  O  O10  1  0.00633200  0.00633200  0.76153000  1
  O  O11  1  0.16497300  0.65300400  0.40964700  1
  O  O12  1  0.00806600  0.50494100  0.25666700  1
  O  O13  1  0.83420400  0.32166400  0.07792400  1
  O  O14  1  0.16678200  0.66680900  0.66681500  1
  O  O15  1  0.16288000  0.66850700  0.16855400  1
  O  O16  1  0.83649500  0.33203900  0.83228200  1
  O  O17  1  0.99935400  0.50061800  0.49901100  1
  O  O18  1  0.98724400  0.49820300  0.74182400  1
  O  O19  1  0.83548000  0.34622800  0.59086600  1
  O  O20  1  0.16233400  0.68380500  0.92307700  1
  O  O21  1  0.82546300  0.34818900  0.32607400  1
  O  O22  1  0.98524000  0.50777200  0.00724100  1
  O  O23  1  0.51011400  0.51011400  0.74964800  1
  O  O24  1  0.66387600  0.66387600  0.90647000  1
  O  O25  1  0.82362500  0.82362500  0.57924300  1
  O  O26  1  0.84066500  0.84066500  0.08894900  1
  O  O27  1  0.67211800  0.67211800  0.42493400  1
  O  O28  1  0.99504400  0.99504400  0.23945400  1
  O  O29  1  0.50777200  0.98524000  0.00724100  1
  O  O30  1  0.34818900  0.82546300  0.32607400  1
  O  O31  1  0.34622800  0.83548000  0.59086600  1
  O  O32  1  0.49820300  0.98724400  0.74182400  1
  O  O33  1  0.50061800  0.99935400  0.49901100  1
  O  O34  1  0.33203900  0.83649500  0.83228200  1
  O  O35  1  0.32166400  0.83420400  0.07792400  1
loop_
_geom_bond_atom_site_label_1
_geom_bond_atom_site_label_2
_geom_bond_distance
_geom_bond_site_symmetry_2
Li1 O22 2.689173 1_555
Li1 O29 2.689173 1_555
Li1 O30 2.694725 1_555
Li1 O21 2.694725 1_555
La0 O8 2.654025 1_555
La0 O4 2.660762 1_555
La0 O11 2.660762 1_555
La0 O7 2.663952 1_555
La0 O9 2.679035 1_555
La0 O5 2.682467 1_555
La0 O12 2.711977 1_555
La0 O3 2.711977 1_555
La0 O15 2.811542 1_555
La0 O1 2.811542 1_555
La0 O33 2.818919 1_545
La0 O17 2.818919 1_455
La1 O23 2.646647 1_555
La1 O32 2.665412 1_555
La1 O18 2.665412 1_555
La1 O25 2.668957 1_555
La1 O31 2.670336 1_555
La1 O19 2.670336 1_555
La1 O24 2.684575 1_555
La1 O27 2.713585 1_555
La1 O34 2.809020 1_555
La1 O16 2.809020 1_555
La1 O17 2.826916 1_555
La1 O33 2.826916 1_555
La2 O0 2.648500 1_565
La2 O20 2.648500 1_655
La2 O10 2.648896 1_665
La2 O6 2.680693 1_665
La2 O28 2.692276 1_556
La2 O26 2.699501 1_556
La2 O35 2.706292 1_656
La2 O13 2.706292 1_566
La2 O34 2.810098 1_655
La2 O16 2.810098 1_565
La2 O1 2.821549 1_566
La2 O15 2.821549 1_656
Nb0 O2 1.935455 1_555
Nb0 O4 2.001570 1_555
Nb0 O32 2.002138 1_545
Nb0 O25 2.007638 1_545
Nb0 O8 2.011051 1_555
Nb0 O33 2.084816 1_545
Nb1 O2 1.952313 1_555
Nb1 O0 1.989173 1_555
Nb1 O23 1.992561 1_555
Nb1 O10 2.018077 1_655
Nb1 O19 2.019890 1_555
Nb1 O16 2.060357 1_555
Nb2 O29 1.960944 1_545
Nb2 O0 1.980622 1_554
Nb2 O7 1.984650 1_555
Nb2 O26 2.021034 1_545
Nb2 O3 2.027040 1_555
Nb2 O1 2.052376 1_555
Nb3 O22 1.960944 1_455
Nb3 O20 1.980622 1_554
Nb3 O7 1.984650 1_555
Nb3 O26 2.021034 1_455
Nb3 O12 2.027040 1_555
Nb3 O15 2.052376 1_555
Nb4 O21 1.971671 1_555
Nb4 O13 1.996201 1_555
Nb4 O9 1.998615 1_555
Nb4 O28 2.002204 1_545
Nb4 O4 2.011404 1_555
Nb4 O1 2.039484 1_555
Nb5 O22 1.976599 1_556
Nb5 O13 1.995861 1_556
Nb5 O24 1.996704 1_555
Nb5 O6 2.003251 1_655
Nb5 O18 2.013614 1_555
Nb5 O16 2.031638 1_555
Nb6 O21 1.966451 1_555
Nb6 O19 1.993501 1_555
Nb6 O5 1.995894 1_655
Nb6 O27 2.008509 1_555
Nb6 O12 2.011999 1_655
Nb6 O17 2.041450 1_555
Nb7 O14 1.952313 1_555
Nb7 O20 1.989173 1_555
Nb7 O23 1.992561 1_555
Nb7 O10 2.018077 1_565
Nb7 O31 2.019890 1_555
Nb7 O34 2.060357 1_555
Nb8 O14 1.935455 1_555
Nb8 O11 2.001570 1_555
Nb8 O18 2.002138 1_455
Nb8 O25 2.007638 1_455
Nb8 O8 2.011051 1_555
Nb8 O17 2.084816 1_455
Nb9 O30 1.966451 1_555
Nb9 O31 1.993501 1_555
Nb9 O5 1.995894 1_565
Nb9 O27 2.008509 1_555
Nb9 O3 2.011999 1_565
Nb9 O33 2.041450 1_555
Nb10 O29 1.976599 1_556
Nb10 O35 1.995861 1_556
Nb10 O24 1.996704 1_555
Nb10 O6 2.003251 1_565
Nb10 O32 2.013614 1_555
Nb10 O34 2.031638 1_555
Nb11 O30 1.971671 1_555
Nb11 O35 1.996201 1_555
Nb11 O9 1.998615 1_555
Nb11 O28 2.002204 1_455
Nb11 O11 2.011404 1_555
Nb11 O15 2.039484 1_555
