# generated using pymatgen
data_Li2Fe2(CO3)3
_symmetry_space_group_name_H-M   'P 1'
_cell_length_a   6.11262309
_cell_length_b   6.11250745
_cell_length_c   9.82088303
_cell_angle_alpha   90.00572180
_cell_angle_beta   90.00541031
_cell_angle_gamma   109.00244566
_symmetry_Int_Tables_number   1
_chemical_formula_structural   Li2Fe2(CO3)3
_chemical_formula_sum   'Li4 Fe4 C6 O18'
_cell_volume   346.94547990
_cell_formula_units_Z   2
loop_
 _symmetry_equiv_pos_site_id
 _symmetry_equiv_pos_as_xyz
  1  'x, y, z'
loop_
 _atom_site_type_symbol
 _atom_site_label
 _atom_site_symmetry_multiplicity
 _atom_site_fract_x
 _atom_site_fract_y
 _atom_site_fract_z
 _atom_site_occupancy
  Li  Li0  1  0.89467300  0.89468100  0.99995200  1
  Li  Li1  1  0.89469200  0.89465400  0.49996200  1
  Li  Li2  1  0.61963200  0.61959800  0.24999000  1
  Li  Li3  1  0.61960700  0.61962500  0.74998500  1
  Fe  Fe0  1  0.26451000  0.82739400  0.75004500  1
  Fe  Fe1  1  0.82734800  0.26448300  0.25008300  1
  Fe  Fe2  1  0.26459400  0.82738700  0.25001400  1
  Fe  Fe3  1  0.82744900  0.26460100  0.75007600  1
  C  C0  1  0.24773800  0.24774000  0.24997800  1
  C  C1  1  0.24775300  0.24776400  0.74999400  1
  C  C2  1  0.44764000  0.85187600  0.99998600  1
  C  C3  1  0.44757200  0.85189000  0.50000400  1
  C  C4  1  0.85186800  0.44759900  0.00000100  1
  C  C5  1  0.85185700  0.44765000  0.49999900  1
  O  O0  1  0.05999800  0.05997400  0.24999100  1
  O  O1  1  0.05999400  0.05999900  0.74999300  1
  O  O2  1  0.24567600  0.87420700  0.99996400  1
  O  O3  1  0.24566700  0.87426200  0.49997700  1
  O  O4  1  0.87426300  0.24564500  0.99994700  1
  O  O5  1  0.87419600  0.24566400  0.49995200  1
  O  O6  1  0.21809300  0.44585100  0.25000900  1
  O  O7  1  0.21810000  0.44583500  0.74999600  1
  O  O8  1  0.44584500  0.21819600  0.24994000  1
  O  O9  1  0.44585500  0.21813300  0.75004300  1
  O  O10  1  0.54950300  0.84003900  0.11464600  1
  O  O11  1  0.54952100  0.84003700  0.61465200  1
  O  O12  1  0.84009100  0.54947300  0.11469100  1
  O  O13  1  0.84006300  0.54950200  0.61467900  1
  O  O14  1  0.54955400  0.84004400  0.38536000  1
  O  O15  1  0.54955400  0.84003900  0.88535400  1
  O  O16  1  0.84002100  0.54957700  0.38535700  1
  O  O17  1  0.84005000  0.54956000  0.88538000  1
loop_
_geom_bond_atom_site_label_1
_geom_bond_atom_site_label_2
_geom_bond_distance
_geom_bond_site_symmetry_2
Li0 O4 2.189073 1_565
Li0 O2 2.189498 1_655
Li0 O17 2.317011 1_555
Li0 O15 2.317147 1_555
Li0 O10 2.318100 1_556
Li0 O12 2.318540 1_556
Li1 O3 2.189138 1_655
Li1 O5 2.189552 1_565
Li1 O16 2.316891 1_555
Li1 O14 2.317296 1_555
Li1 O13 2.318096 1_555
Li1 O11 2.318109 1_555
Li2 O16 2.034856 1_555
Li2 O12 2.035114 1_555
Li2 O14 2.035257 1_555
Li2 O10 2.035324 1_555
Li2 O8 2.334769 1_555
Li2 O6 2.335537 1_555
Li3 O11 2.035011 1_555
Li3 O15 2.035042 1_555
Li3 O13 2.035140 1_555
Li3 O17 2.035391 1_555
Li3 O9 2.335242 1_555
Li3 O7 2.335390 1_555
Fe0 O15 2.172443 1_555
Fe0 O11 2.173002 1_555
Fe0 O1 2.177575 1_565
Fe0 O7 2.255914 1_555
Fe0 O9 2.282341 1_565
Fe0 O2 2.478044 1_555
Fe0 O3 2.479577 1_555
Fe1 O16 2.172404 1_555
Fe1 O12 2.172736 1_555
Fe1 O0 2.177776 1_655
Fe1 O8 2.255778 1_555
Fe1 O6 2.282431 1_655
Fe1 O5 2.477580 1_555
Fe1 O4 2.480272 1_554
Fe2 O14 2.172243 1_555
Fe2 O10 2.172347 1_555
Fe2 O0 2.177867 1_565
Fe2 O6 2.255657 1_555
Fe2 O8 2.282638 1_565
Fe2 O3 2.478569 1_555
Fe2 O2 2.479402 1_554
Fe3 O17 2.172031 1_555
Fe3 O13 2.172514 1_555
Fe3 O1 2.177685 1_655
Fe3 O9 2.256097 1_555
Fe3 O7 2.281802 1_655
Fe3 O4 2.477643 1_555
Fe3 O5 2.480072 1_555
C0 O8 1.281183 1_555
C0 O6 1.281464 1_555
C0 O0 1.332851 1_555
C1 O7 1.281243 1_555
C1 O9 1.281392 1_555
C1 O1 1.332914 1_555
C2 O2 1.285470 1_555
C2 O10 1.300064 1_556
C2 O15 1.300070 1_555
C3 O3 1.285216 1_555
C3 O11 1.300244 1_555
C3 O14 1.300391 1_555
C4 O4 1.285551 1_554
C4 O17 1.300093 1_554
C4 O12 1.300266 1_555
C5 O5 1.285602 1_555
C5 O13 1.300136 1_555
C5 O16 1.300191 1_555
