# generated using pymatgen
data_CeAlO3
_symmetry_space_group_name_H-M   'P 1'
_cell_length_a   5.35205400
_cell_length_b   5.35388700
_cell_length_c   7.64016500
_cell_angle_alpha   90.00000000
_cell_angle_beta   90.00000000
_cell_angle_gamma   90.00000000
_symmetry_Int_Tables_number   1
_chemical_formula_structural   CeAlO3
_chemical_formula_sum   'Ce4 Al4 O12'
_cell_volume   218.92352139
_cell_formula_units_Z   4
loop_
 _symmetry_equiv_pos_site_id
 _symmetry_equiv_pos_as_xyz
  1  'x, y, z'
loop_
 _atom_site_type_symbol
 _atom_site_label
 _atom_site_symmetry_multiplicity
 _atom_site_fract_x
 _atom_site_fract_y
 _atom_site_fract_z
 _atom_site_occupancy
  Ce  Ce0  1  0.01656900  0.99444000  0.75000000  1
  Ce  Ce1  1  0.51656900  0.50556000  0.75000000  1
  Ce  Ce2  1  0.48343100  0.49444000  0.25000000  1
  Ce  Ce3  1  0.98343100  0.00556000  0.25000000  1
  Al  Al0  1  0.50000000  0.00000000  0.00000000  1
  Al  Al1  1  0.50000000  0.00000000  0.50000000  1
  Al  Al2  1  0.00000000  0.50000000  0.00000000  1
  Al  Al3  1  0.00000000  0.50000000  0.50000000  1
  O  O0  1  0.50397300  0.95204400  0.25000000  1
  O  O1  1  0.77452300  0.77378100  0.52452400  1
  O  O2  1  0.77452300  0.77378100  0.97547600  1
  O  O3  1  0.27452300  0.72621900  0.97547600  1
  O  O4  1  0.27452300  0.72621900  0.52452400  1
  O  O5  1  0.00397300  0.54795600  0.25000000  1
  O  O6  1  0.99602700  0.45204400  0.75000000  1
  O  O7  1  0.72547700  0.27378100  0.02452400  1
  O  O8  1  0.72547700  0.27378100  0.47547600  1
  O  O9  1  0.22547700  0.22621900  0.02452400  1
  O  O10  1  0.22547700  0.22621900  0.47547600  1
  O  O11  1  0.49602700  0.04795600  0.75000000  1
loop_
_geom_bond_atom_site_label_1
_geom_bond_atom_site_label_2
_geom_bond_distance
_geom_bond_site_symmetry_2
Ce0 O6 2.452426 1_465
Ce0 O1 2.457935 1_455
Ce0 O2 2.457935 1_455
Ce0 O11 2.582031 1_565
Ce0 O3 2.633588 1_555
Ce0 O4 2.633588 1_555
Ce0 O9 2.681253 1_566
Ce0 O10 2.681253 1_565
Ce0 O11 2.800663 1_465
Ce0 O6 2.906007 1_455
Ce0 O7 3.010482 1_466
Ce0 O8 3.010482 1_465
Ce1 O11 2.452426 1_555
Ce1 O3 2.457935 1_555
Ce1 O4 2.457935 1_555
Ce1 O6 2.582031 1_555
Ce1 O2 2.633588 1_555
Ce1 O1 2.633588 1_555
Ce1 O7 2.681253 1_556
Ce1 O8 2.681253 1_555
Ce1 O6 2.800663 1_455
Ce1 O11 2.906007 1_565
Ce1 O9 3.010482 1_556
Ce1 O10 3.010482 1_555
Ce2 O0 2.452426 1_555
Ce2 O8 2.457935 1_555
Ce2 O7 2.457935 1_555
Ce2 O5 2.582031 1_555
Ce2 O10 2.633588 1_555
Ce2 O9 2.633588 1_555
Ce2 O4 2.681253 1_555
Ce2 O3 2.681253 1_554
Ce2 O5 2.800663 1_655
Ce2 O0 2.906007 1_545
Ce2 O1 3.010482 1_555
Ce2 O2 3.010482 1_554
Ce3 O5 2.452426 1_645
Ce3 O10 2.457935 1_655
Ce3 O9 2.457935 1_655
Ce3 O0 2.582031 1_545
Ce3 O8 2.633588 1_555
Ce3 O7 2.633588 1_555
Ce3 O1 2.681253 1_545
Ce3 O2 2.681253 1_544
Ce3 O0 2.800663 1_645
Ce3 O5 2.906007 1_655
Ce3 O3 3.010482 1_644
Ce3 O4 3.010482 1_645
Al0 O7 1.907862 1_555
Al0 O3 1.907862 1_544
Al0 O2 1.913302 1_544
Al0 O9 1.913302 1_555
Al0 O11 1.927338 1_554
Al0 O0 1.927338 1_545
Al1 O8 1.907862 1_555
Al1 O4 1.907862 1_545
Al1 O1 1.913302 1_545
Al1 O10 1.913302 1_555
Al1 O0 1.927338 1_545
Al1 O11 1.927338 1_555
Al2 O2 1.907862 1_454
Al2 O9 1.907862 1_555
Al2 O3 1.913302 1_554
Al2 O7 1.913302 1_455
Al2 O6 1.927338 1_454
Al2 O5 1.927338 1_555
Al3 O1 1.907862 1_455
Al3 O10 1.907862 1_555
Al3 O4 1.913302 1_555
Al3 O8 1.913302 1_455
Al3 O6 1.927338 1_455
Al3 O5 1.927338 1_555
