# generated using pymatgen
data_Li3Cr2CuO6
_symmetry_space_group_name_H-M   'P 1'
_cell_length_a   15.29533908
_cell_length_b   9.75567199
_cell_length_c   9.75567195
_cell_angle_alpha   17.38235877
_cell_angle_beta   16.81526139
_cell_angle_gamma   16.81526213
_symmetry_Int_Tables_number   1
_chemical_formula_structural   Li3Cr2CuO6
_chemical_formula_sum   'Li3 Cr2 Cu1 O6'
_cell_volume   108.52601633
_cell_formula_units_Z   1
loop_
 _symmetry_equiv_pos_site_id
 _symmetry_equiv_pos_as_xyz
  1  'x, y, z'
loop_
 _atom_site_type_symbol
 _atom_site_label
 _atom_site_symmetry_multiplicity
 _atom_site_fract_x
 _atom_site_fract_y
 _atom_site_fract_z
 _atom_site_occupancy
  Li  Li0  1  0.16666700  0.50000000  0.50000000  1
  Li  Li1  1  0.50925500  0.49498000  0.49498000  1
  Li  Li2  1  0.82407800  0.50502000  0.50502000  1
  Cr  Cr0  1  0.00473800  0.99562500  0.99562500  1
  Cr  Cr1  1  0.32859600  0.00437500  0.00437500  1
  Cu  Cu0  1  0.66666700  0.00000000  0.00000000  1
  O  O0  1  0.24400700  0.25901400  0.25901400  1
  O  O1  1  0.57710100  0.26086600  0.26086600  1
  O  O2  1  0.08932600  0.74098600  0.74098600  1
  O  O3  1  0.92019500  0.25378000  0.25378000  1
  O  O4  1  0.41313800  0.74622000  0.74622000  1
  O  O5  1  0.75623200  0.73913400  0.73913400  1
loop_
_geom_bond_atom_site_label_1
_geom_bond_atom_site_label_2
_geom_bond_distance
_geom_bond_site_symmetry_2
Li0 O1 2.146145 1_555
Li0 O5 2.146158 1_455
Li0 O3 2.146176 1_456
Li0 O3 2.146176 1_465
Li0 O4 2.146183 1_554
Li0 O4 2.146183 1_545
Li1 O3 2.125588 1_555
Li1 O0 2.133689 1_556
Li1 O0 2.133689 1_565
Li1 O5 2.165938 1_554
Li1 O5 2.165938 1_545
Li1 O2 2.178213 1_555
Li2 O4 2.125588 1_555
Li2 O2 2.133689 1_654
Li2 O2 2.133689 1_645
Li2 O1 2.165938 1_556
Li2 O1 2.165938 1_565
Li2 O0 2.178213 1_655
Cr0 O4 1.991032 1_555
Cr0 O0 2.011709 1_565
Cr0 O0 2.011709 1_556
Cr0 O5 2.026065 1_456
Cr0 O5 2.026065 1_465
Cr0 O1 2.036698 1_466
Cr1 O3 1.991044 1_455
Cr1 O2 2.011703 1_545
Cr1 O2 2.011703 1_554
Cr1 O1 2.026071 1_554
Cr1 O1 2.026071 1_545
Cr1 O5 2.036686 1_544
Cu0 O4 2.024165 1_545
Cu0 O4 2.024166 1_554
Cu0 O3 2.024171 1_554
Cu0 O3 2.024171 1_545
Cu0 O2 2.049779 1_644
Cu0 O0 2.049791 1_555
