# generated using pymatgen
data_Li3NiPCO7
_symmetry_space_group_name_H-M   'P 1'
_cell_length_a   6.30126100
_cell_length_b   8.60677100
_cell_length_c   9.68807898
_cell_angle_alpha   84.09652312
_cell_angle_beta   90.00000000
_cell_angle_gamma   90.00000000
_symmetry_Int_Tables_number   1
_chemical_formula_structural   Li3NiPCO7
_chemical_formula_sum   'Li12 Ni4 P4 C4 O28'
_cell_volume   522.63201581
_cell_formula_units_Z   4
loop_
 _symmetry_equiv_pos_site_id
 _symmetry_equiv_pos_as_xyz
  1  'x, y, z'
loop_
 _atom_site_type_symbol
 _atom_site_label
 _atom_site_symmetry_multiplicity
 _atom_site_fract_x
 _atom_site_fract_y
 _atom_site_fract_z
 _atom_site_occupancy
  Li  Li0  1  0.75792500  0.89152300  0.36108300  1
  Li  Li1  1  0.74207500  0.89152300  0.86108300  1
  Li  Li2  1  0.49830900  0.72128200  0.62836100  1
  Li  Li3  1  0.00169100  0.72128200  0.12836100  1
  Li  Li4  1  0.25234500  0.64417800  0.36288500  1
  Li  Li5  1  0.24765500  0.64417800  0.86288500  1
  Li  Li6  1  0.74765500  0.35582200  0.63711500  1
  Li  Li7  1  0.75234500  0.35582200  0.13711500  1
  Li  Li8  1  0.50169100  0.27871800  0.37163900  1
  Li  Li9  1  0.99830900  0.27871800  0.87163900  1
  Li  Li10  1  0.24207500  0.10847700  0.63891700  1
  Li  Li11  1  0.25792500  0.10847700  0.13891700  1
  Ni  Ni0  1  0.99639000  0.73022000  0.62228600  1
  Ni  Ni1  1  0.50361000  0.73022000  0.12228600  1
  Ni  Ni2  1  0.00361000  0.26978000  0.37771400  1
  Ni  Ni3  1  0.49639000  0.26978000  0.87771400  1
  P  P0  1  0.76091900  0.59291500  0.38849500  1
  P  P1  1  0.73908100  0.59291500  0.88849500  1
  P  P2  1  0.23908100  0.40708500  0.61150500  1
  P  P3  1  0.26091900  0.40708500  0.11150500  1
  C  C0  1  0.24088100  0.95912000  0.40088700  1
  C  C1  1  0.25911900  0.95912000  0.90088700  1
  C  C2  1  0.75911900  0.04088000  0.59911300  1
  C  C3  1  0.74088100  0.04088000  0.09911300  1
  O  O0  1  0.25930400  0.93533600  0.27429100  1
  O  O1  1  0.77367700  0.89695000  0.56329900  1
  O  O2  1  0.24069600  0.93533600  0.77429100  1
  O  O3  1  0.24207600  0.84451500  0.49912900  1
  O  O4  1  0.72632300  0.89695000  0.06329900  1
  O  O5  1  0.25792400  0.84451500  0.99912900  1
  O  O6  1  0.94910500  0.69236700  0.32991500  1
  O  O7  1  0.56030300  0.68372200  0.33162100  1
  O  O8  1  0.93969700  0.68372200  0.83162100  1
  O  O9  1  0.55089500  0.69236700  0.82991500  1
  O  O10  1  0.24061600  0.57610400  0.65191100  1
  O  O11  1  0.76223600  0.58622000  0.55051900  1
  O  O12  1  0.25938400  0.57610400  0.15191100  1
  O  O13  1  0.73776400  0.58622000  0.05051900  1
  O  O14  1  0.23776400  0.41378000  0.44948100  1
  O  O15  1  0.75938400  0.42389600  0.34808900  1
  O  O16  1  0.26223600  0.41378000  0.94948100  1
  O  O17  1  0.74061600  0.42389600  0.84808900  1
  O  O18  1  0.05089500  0.30763300  0.67008500  1
  O  O19  1  0.43969700  0.31627800  0.66837900  1
  O  O20  1  0.44910500  0.30763300  0.17008500  1
  O  O21  1  0.06030300  0.31627800  0.16837900  1
  O  O22  1  0.75792400  0.15548500  0.50087100  1
  O  O23  1  0.22632300  0.10305000  0.43670100  1
  O  O24  1  0.74207600  0.15548500  0.00087100  1
  O  O25  1  0.74069600  0.06466400  0.72570900  1
  O  O26  1  0.27367700  0.10305000  0.93670100  1
  O  O27  1  0.75930400  0.06466400  0.22570900  1
loop_
_geom_bond_atom_site_label_1
_geom_bond_atom_site_label_2
_geom_bond_distance
_geom_bond_site_symmetry_2
Li0 O27 1.881160 1_565
Li0 O1 1.966944 1_555
Li0 O6 2.141727 1_555
Li0 O7 2.221686 1_555
Li1 O25 1.881160 1_565
Li1 O4 1.966944 1_556
Li1 O9 2.141727 1_555
Li1 O8 2.221686 1_555
Li2 O9 1.970963 1_555
Li2 O10 2.047289 1_555
Li2 O11 2.205936 1_555
Li2 O3 2.241924 1_555
Li2 O1 2.344785 1_555
Li3 O6 1.970963 1_455
Li3 O12 2.047289 1_555
Li3 O13 2.205936 1_455
Li3 O5 2.241924 1_554
Li3 O4 2.344785 1_455
Li4 O6 1.974317 1_455
Li4 O7 1.987965 1_555
Li4 O14 2.074194 1_555
Li4 O12 2.183860 1_555
Li4 O3 2.277643 1_555
Li5 O9 1.974317 1_555
Li5 O8 1.987965 1_455
Li5 O16 2.074194 1_555
Li5 O10 2.183860 1_555
Li5 O5 2.277643 1_555
Li6 O18 1.974317 1_655
Li6 O19 1.987965 1_555
Li6 O11 2.074194 1_555
Li6 O17 2.183860 1_555
Li6 O22 2.277643 1_555
Li7 O20 1.974317 1_555
Li7 O21 1.987965 1_655
Li7 O13 2.074194 1_555
Li7 O15 2.183860 1_555
Li7 O24 2.277643 1_555
Li8 O20 1.970963 1_555
Li8 O15 2.047289 1_555
Li8 O14 2.205936 1_555
Li8 O22 2.241924 1_555
Li8 O23 2.344785 1_555
Li9 O18 1.970963 1_655
Li9 O17 2.047289 1_555
Li9 O16 2.205936 1_655
Li9 O24 2.241924 1_556
Li9 O26 2.344785 1_655
Li10 O2 1.881160 1_545
Li10 O23 1.966944 1_555
Li10 O18 2.141727 1_555
Li10 O19 2.221686 1_555
Li11 O0 1.881160 1_545
Li11 O26 1.966944 1_554
Li11 O20 2.141727 1_555
Li11 O21 2.221686 1_555
Ni0 O10 2.032688 1_655
Ni0 O1 2.046115 1_555
Ni0 O8 2.057626 1_555
Ni0 O11 2.091346 1_555
Ni0 O3 2.132270 1_655
Ni1 O12 2.032688 1_555
Ni1 O4 2.046115 1_555
Ni1 O7 2.057626 1_555
Ni1 O13 2.091346 1_555
Ni1 O5 2.132270 1_554
Ni2 O15 2.032688 1_455
Ni2 O23 2.046115 1_555
Ni2 O21 2.057626 1_555
Ni2 O14 2.091346 1_555
Ni2 O22 2.132270 1_455
Ni3 O17 2.032688 1_555
Ni3 O26 2.046115 1_555
Ni3 O19 2.057626 1_555
Ni3 O16 2.091346 1_555
Ni3 O24 2.132270 1_556
C0 O0 1.269354 1_555
C0 O3 1.298368 1_555
C0 O23 1.323547 1_565
C1 O2 1.269354 1_555
C1 O5 1.298368 1_555
C1 O26 1.323547 1_565
C2 O25 1.269354 1_555
C2 O22 1.298368 1_555
C2 O1 1.323547 1_545
C3 O27 1.269354 1_555
C3 O24 1.298368 1_555
C3 O4 1.323547 1_545
O6 P0 1.536545 1_555
O7 P0 1.556881 1_555
O8 P1 1.556881 1_555
O9 P1 1.536545 1_555
O10 P2 1.544878 1_555
O11 P0 1.564847 1_555
O12 P3 1.544878 1_555
O13 P1 1.564847 1_554
O14 P2 1.564847 1_555
O15 P0 1.544878 1_555
O16 P3 1.564847 1_556
O17 P1 1.544878 1_555
O18 P2 1.536545 1_555
O19 P2 1.556881 1_555
O20 P3 1.536545 1_555
O21 P3 1.556881 1_555
