# generated using pymatgen
data_Co2O3F
_symmetry_space_group_name_H-M   'P 1'
_cell_length_a   4.40209300
_cell_length_b   5.91010870
_cell_length_c   9.25118850
_cell_angle_alpha   108.59999545
_cell_angle_beta   90.86853808
_cell_angle_gamma   90.11875819
_symmetry_Int_Tables_number   1
_chemical_formula_structural   Co2O3F
_chemical_formula_sum   'Co8 O12 F4'
_cell_volume   228.08305151
_cell_formula_units_Z   4
loop_
 _symmetry_equiv_pos_site_id
 _symmetry_equiv_pos_as_xyz
  1  'x, y, z'
loop_
 _atom_site_type_symbol
 _atom_site_label
 _atom_site_symmetry_multiplicity
 _atom_site_fract_x
 _atom_site_fract_y
 _atom_site_fract_z
 _atom_site_occupancy
  Co  Co0  1  0.46737900  0.62928700  0.76195200  1
  Co  Co1  1  0.52021600  0.11934600  0.73560000  1
  Co  Co2  1  0.51167900  0.38391200  0.25498700  1
  Co  Co3  1  0.53278300  0.86430800  0.24498600  1
  Co  Co4  1  0.98795300  0.50321500  0.00555300  1
  Co  Co5  1  0.00897200  0.74763600  0.50028500  1
  Co  Co6  1  0.96506900  0.99743700  0.99563800  1
  Co  Co7  1  0.00616500  0.25276300  0.49888100  1
  O  O0  1  0.80262200  0.30400900  0.10344600  1
  O  O1  1  0.80896800  0.04726100  0.59349700  1
  O  O2  1  0.80147500  0.79599400  0.09988800  1
  O  O3  1  0.67549700  0.92390100  0.84393400  1
  O  O4  1  0.70318100  0.17290200  0.34658600  1
  O  O5  1  0.68508800  0.42231200  0.84903300  1
  O  O6  1  0.70420000  0.67280900  0.34725100  1
  O  O7  1  0.30180000  0.82743400  0.65385500  1
  O  O8  1  0.30344500  0.32698100  0.65369000  1
  O  O9  1  0.31726100  0.57771300  0.15581700  1
  O  O10  1  0.20215400  0.45190000  0.40288400  1
  O  O11  1  0.18160900  0.70191300  0.90550600  1
  F  F0  1  0.78287600  0.55503000  0.61003700  1
  F  F1  1  0.30999700  0.07573500  0.14936800  1
  F  F2  1  0.22163300  0.94638100  0.39137400  1
  F  F3  1  0.19797500  0.19982400  0.89595200  1
loop_
_geom_bond_atom_site_label_1
_geom_bond_atom_site_label_2
_geom_bond_distance
_geom_bond_site_symmetry_2
Co0 O11 1.794358 1_555
Co0 O8 1.883422 1_555
Co0 O3 1.891094 1_555
Co0 O7 1.905584 1_555
Co0 O5 1.916741 1_555
Co0 F0 1.940329 1_555
Co1 O1 1.794739 1_555
Co1 O3 1.878019 1_545
Co1 O8 1.888598 1_555
Co1 O5 1.899202 1_555
Co1 O7 1.900415 1_545
Co1 F3 2.013846 1_555
Co2 O6 1.845115 1_555
Co2 O0 1.861016 1_555
Co2 O9 1.880605 1_555
Co2 O10 1.896874 1_555
Co2 O4 1.908097 1_555
Co2 F1 1.972823 1_555
Co3 O2 1.751650 1_555
Co3 O6 1.846710 1_555
Co3 O9 1.878264 1_555
Co3 F2 1.893505 1_555
Co3 O4 1.910981 1_565
Co3 F1 1.997395 1_565
Co4 O2 1.869200 1_555
Co4 O0 1.889562 1_555
Co4 O5 1.897369 1_554
Co4 O11 1.917175 1_654
Co4 O9 1.942570 1_655
Co4 F3 1.993356 1_654
Co5 O7 1.848520 1_555
Co5 O6 1.881609 1_455
Co5 O10 1.901252 1_555
Co5 O1 1.926117 1_465
Co5 F2 2.012523 1_555
Co5 F0 2.020033 1_455
Co6 O3 1.826971 1_555
Co6 O2 1.901615 1_556
Co6 O0 1.913949 1_566
Co6 O11 1.938149 1_655
Co6 F1 2.013479 1_666
Co6 F3 2.014858 1_665
Co7 O8 1.869797 1_555
Co7 O4 1.871614 1_455
Co7 O10 1.898414 1_555
Co7 O1 1.921372 1_455
Co7 F2 2.013588 1_545
Co7 F0 2.020149 1_455
