# generated using pymatgen
data_Li2TiCo3O8
_symmetry_space_group_name_H-M   'P 1'
_cell_length_a   5.72902700
_cell_length_b   5.72902700
_cell_length_c   5.72902703
_cell_angle_alpha   60.34763550
_cell_angle_beta   60.34763550
_cell_angle_gamma   60.34763763
_symmetry_Int_Tables_number   1
_chemical_formula_structural   Li2TiCo3O8
_chemical_formula_sum   'Li2 Ti1 Co3 O8'
_cell_volume   134.00767826
_cell_formula_units_Z   1
loop_
 _symmetry_equiv_pos_site_id
 _symmetry_equiv_pos_as_xyz
  1  'x, y, z'
loop_
 _atom_site_type_symbol
 _atom_site_label
 _atom_site_symmetry_multiplicity
 _atom_site_fract_x
 _atom_site_fract_y
 _atom_site_fract_z
 _atom_site_occupancy
  Li  Li0  1  0.87665800  0.87665800  0.87665800  1
  Li  Li1  1  0.12334200  0.12334200  0.12334200  1
  Ti  Ti0  1  0.50000000  0.50000000  0.50000000  1
  Co  Co0  1  0.50000000  0.00000000  0.50000000  1
  Co  Co1  1  0.00000000  0.50000000  0.50000000  1
  Co  Co2  1  0.50000000  0.50000000  0.00000000  1
  O  O0  1  0.28769100  0.74186100  0.74186100  1
  O  O1  1  0.74186100  0.28769100  0.74186100  1
  O  O2  1  0.26369800  0.26369800  0.26369800  1
  O  O3  1  0.74186100  0.74186100  0.28769100  1
  O  O4  1  0.25813900  0.25813900  0.71230900  1
  O  O5  1  0.73630200  0.73630200  0.73630200  1
  O  O6  1  0.25813900  0.71230900  0.25813900  1
  O  O7  1  0.71230900  0.25813900  0.25813900  1
loop_
_geom_bond_atom_site_label_1
_geom_bond_atom_site_label_2
_geom_bond_distance
_geom_bond_site_symmetry_2
Li0 O3 1.931133 1_556
Li0 O1 1.931133 1_565
Li0 O0 1.931133 1_655
Li0 O5 1.964452 1_555
Li1 O4 1.931133 1_554
Li1 O7 1.931133 1_455
Li1 O6 1.931133 1_545
Li1 O2 1.964452 1_555
Co0 O7 1.916021 1_555
Co0 O0 1.916021 1_545
Co0 O4 1.916021 1_555
Co0 O3 1.916021 1_545
Co0 O5 1.927134 1_545
Co0 O2 1.927134 1_555
Co1 O6 1.916021 1_555
Co1 O1 1.916021 1_455
Co1 O4 1.916021 1_555
Co1 O3 1.916021 1_455
Co1 O5 1.927134 1_455
Co1 O2 1.927134 1_555
Co2 O7 1.916021 1_555
Co2 O6 1.916021 1_555
Co2 O0 1.916021 1_554
Co2 O1 1.916021 1_554
Co2 O2 1.927134 1_555
Co2 O5 1.927134 1_554
O0 Ti0 1.970753 1_555
O1 Ti0 1.970753 1_555
O3 Ti0 1.970753 1_555
O4 Ti0 1.970753 1_555
O6 Ti0 1.970753 1_555
O7 Ti0 1.970753 1_555
