# generated using pymatgen
data_H26Os2N12Cl4O9
_symmetry_space_group_name_H-M   'P 1'
_cell_length_a   6.99553951
_cell_length_b   6.99553951
_cell_length_c   25.46559718
_cell_angle_alpha   84.63276707
_cell_angle_beta   84.63276707
_cell_angle_gamma   58.44280250
_symmetry_Int_Tables_number   1
_chemical_formula_structural   H26Os2N12Cl4O9
_chemical_formula_sum   'H52 Os4 N24 Cl8 O18'
_cell_volume   1055.81358046
_cell_formula_units_Z   2
loop_
 _symmetry_equiv_pos_site_id
 _symmetry_equiv_pos_as_xyz
  1  'x, y, z'
loop_
 _atom_site_type_symbol
 _atom_site_label
 _atom_site_symmetry_multiplicity
 _atom_site_fract_x
 _atom_site_fract_y
 _atom_site_fract_z
 _atom_site_occupancy
  H  H0  1  0.47390962  0.58634505  0.27575320  1
  H  H1  1  0.41365495  0.52609038  0.22424680  1
  H  H2  1  0.52609038  0.41365495  0.72424680  1
  H  H3  1  0.58634505  0.47390962  0.77575320  1
  H  H4  1  0.15947124  0.90097375  0.30326198  1
  H  H5  1  0.09902625  0.84052876  0.19673802  1
  H  H6  1  0.84052876  0.09902625  0.69673802  1
  H  H7  1  0.90097375  0.15947124  0.80326198  1
  H  H8  1  0.20637449  0.38907771  0.35446111  1
  H  H9  1  0.61092229  0.79362551  0.14553889  1
  H  H10  1  0.79362551  0.61092229  0.64553889  1
  H  H11  1  0.38907771  0.20637449  0.85446111  1
  H  H12  1  0.91617673  0.13208778  0.44479728  1
  H  H13  1  0.86791222  0.08382327  0.05520272  1
  H  H14  1  0.08382327  0.86791222  0.55520272  1
  H  H15  1  0.13208778  0.91617673  0.94479728  1
  H  H16  1  0.72769171  0.73728498  0.47018579  1
  H  H17  1  0.26271502  0.27230829  0.02981421  1
  H  H18  1  0.27230829  0.26271502  0.52981421  1
  H  H19  1  0.73728498  0.72769171  0.97018579  1
  H  H20  1  0.96884449  0.13558682  0.33078090  1
  H  H21  1  0.86441318  0.03115551  0.16921910  1
  H  H22  1  0.03115551  0.86441318  0.66921910  1
  H  H23  1  0.13558682  0.96884449  0.83078090  1
  H  H24  1  0.96411550  0.52602796  0.32665465  1
  H  H25  1  0.47397204  0.03588450  0.17334535  1
  H  H26  1  0.03588450  0.47397204  0.67334535  1
  H  H27  1  0.52602796  0.96411550  0.82665465  1
  H  H28  1  0.68437790  0.22215555  0.41381789  1
  H  H29  1  0.77784445  0.31562210  0.08618211  1
  H  H30  1  0.31562210  0.77784445  0.58618211  1
  H  H31  1  0.22215555  0.68437790  0.91381789  1
  H  H32  1  0.68369344  0.66623558  0.41323672  1
  H  H33  1  0.33376442  0.31630656  0.08676328  1
  H  H34  1  0.31630656  0.33376442  0.58676328  1
  H  H35  1  0.66623558  0.68369344  0.91323672  1
  H  H36  1  0.21871534  0.98101797  0.35517906  1
  H  H37  1  0.01898203  0.78128466  0.14482094  1
  H  H38  1  0.78128466  0.01898203  0.64482094  1
  H  H39  1  0.98101797  0.21871534  0.85517906  1
  H  H40  1  0.17150984  0.56650092  0.30332083  1
  H  H41  1  0.43349908  0.82849016  0.19667917  1
  H  H42  1  0.82849016  0.43349908  0.69667917  1
  H  H43  1  0.56650092  0.17150984  0.80332083  1
  H  H44  1  0.73012883  0.06528521  0.47076322  1
  H  H45  1  0.93471479  0.26987117  0.02923678  1
  H  H46  1  0.26987117  0.93471479  0.52923678  1
  H  H47  1  0.06528521  0.73012883  0.97076322  1
  H  H48  1  0.91483096  0.49279478  0.44461103  1
  H  H49  1  0.50720522  0.08516904  0.05538897  1
  H  H50  1  0.08516904  0.50720522  0.55538897  1
  H  H51  1  0.49279478  0.91483096  0.94461103  1
  Os  Os0  1  0.97188157  0.80169970  0.39051941  1
  Os  Os1  1  0.19830030  0.02811843  0.10948059  1
  Os  Os2  1  0.02811843  0.19830030  0.60948059  1
  Os  Os3  1  0.80169970  0.97188157  0.89051941  1
  N  N0  1  0.19994994  0.66789510  0.43000194  1
  N  N1  1  0.33210490  0.80005006  0.06999806  1
  N  N2  1  0.80005006  0.33210490  0.56999806  1
  N  N3  1  0.66789510  0.19994994  0.93000194  1
  N  N4  1  0.09582233  0.97283695  0.33870002  1
  N  N5  1  0.02716305  0.90417767  0.16129998  1
  N  N6  1  0.90417767  0.02716305  0.66129998  1
  N  N7  1  0.97283695  0.09582233  0.83870002  1
  N  N8  1  0.09394858  0.54084513  0.33716850  1
  N  N9  1  0.45915487  0.90605142  0.16283150  1
  N  N10  1  0.90605142  0.45915487  0.66283150  1
  N  N11  1  0.54084513  0.09394858  0.83716850  1
  N  N12  1  0.80265829  0.08988671  0.43601563  1
  N  N13  1  0.91011329  0.19734171  0.06398437  1
  N  N14  1  0.19734171  0.91011329  0.56398437  1
  N  N15  1  0.08988671  0.80265829  0.93601563  1
  N  N16  1  0.80153869  0.65957551  0.43561251  1
  N  N17  1  0.34042449  0.19846131  0.06438749  1
  N  N18  1  0.19846131  0.34042449  0.56438749  1
  N  N19  1  0.65957551  0.80153869  0.93561251  1
  N  N20  1  0.64962244  -0.00029349  0.30103642  1
  N  N21  1  0.00029349  0.35037756  0.19896358  1
  N  N22  1  0.35037756  0.00029349  0.69896358  1
  N  N23  1  -0.00029349  0.64962244  0.80103642  1
  Cl  Cl0  1  0.23163601  0.14686091  0.44763758  1
  Cl  Cl1  1  0.85313909  0.76836399  0.05236242  1
  Cl  Cl2  1  0.76836399  0.85313909  0.55236242  1
  Cl  Cl3  1  0.14686091  0.23163601  0.94763758  1
  Cl  Cl4  1  0.64897421  0.48706421  0.34337900  1
  Cl  Cl5  1  0.51293579  0.35102579  0.15662100  1
  Cl  Cl6  1  0.35102579  0.51293579  0.65662100  1
  Cl  Cl7  1  0.48706421  0.64897421  0.84337900  1
  O  O0  1  0.34734876  0.58089965  0.45885150  1
  O  O1  1  0.41910035  0.65265124  0.04114850  1
  O  O2  1  0.65265124  0.41910035  0.54114850  1
  O  O3  1  0.58089965  0.34734876  0.95885150  1
  O  O4  1  0.67616870  0.96872664  0.35331184  1
  O  O5  1  0.03127336  0.32383130  0.14668816  1
  O  O6  1  0.32383130  0.03127336  0.64668816  1
  O  O7  1  0.96872664  0.67616870  0.85331184  1
  O  O8  1  0.81603432  0.93656812  0.27063830  1
  O  O9  1  0.06343188  0.18396568  0.22936170  1
  O  O10  1  0.18396568  0.06343188  0.72936170  1
  O  O11  1  0.93656812  0.81603432  0.77063830  1
  O  O12  1  0.45456177  0.09198030  0.28826510  1
  O  O13  1  0.90801970  0.54543823  0.21173490  1
  O  O14  1  0.54543823  0.90801970  0.71173490  1
  O  O15  1  0.09198030  0.45456177  0.78826510  1
  O  O16  1  0.35652440  0.64347560  0.25000000  1
  O  O17  1  0.64347560  0.35652440  0.75000000  1
loop_
_geom_bond_atom_site_label_1
_geom_bond_atom_site_label_2
_geom_bond_distance
_geom_bond_site_symmetry_2
H0 O16 0.986080 1_555
H1 O16 0.986080 1_555
H2 O17 0.986080 1_555
H3 O17 0.986080 1_555
H4 N4 1.020200 1_555
H5 N5 1.020200 1_555
H6 N6 1.020200 1_555
H7 N7 1.020200 1_555
H8 N8 1.021274 1_555
H9 N9 1.021274 1_555
H10 N10 1.021274 1_555
H11 N11 1.021274 1_555
H12 N12 1.028960 1_555
H13 N13 1.028960 1_555
H14 N14 1.028960 1_555
H15 N15 1.028960 1_555
H16 N16 1.023746 1_555
H17 N17 1.023746 1_555
H18 N18 1.023746 1_555
H19 N19 1.023746 1_555
H20 N4 1.028566 1_645
H21 N5 1.028566 1_645
H22 N6 1.028566 1_465
H23 N7 1.028566 1_465
H24 N8 1.027900 1_655
H25 N9 1.027900 1_545
H26 N10 1.027900 1_455
H27 N11 1.027900 1_565
H28 N12 1.024028 1_555
H29 N13 1.024028 1_555
H30 N14 1.024028 1_555
H31 N15 1.024028 1_555
H32 N16 1.024299 1_555
H33 N17 1.024299 1_555
H34 N18 1.024299 1_555
H35 N19 1.024299 1_555
H36 N4 1.020762 1_555
H37 N5 1.020762 1_555
H38 N6 1.020762 1_555
H39 N7 1.020762 1_555
H40 N8 1.027162 1_555
H41 N9 1.027162 1_555
H42 N10 1.027162 1_555
H43 N11 1.027162 1_555
H44 N12 1.024190 1_555
H45 N13 1.024190 1_555
H46 N14 1.024190 1_555
H47 N15 1.024190 1_555
H48 N16 1.028579 1_555
H49 N17 1.028579 1_555
H50 N18 1.028579 1_555
H51 N19 1.028579 1_555
N0 O0 1.172430 1_555
N0 Os0 1.730164 1_455
N1 O1 1.172430 1_555
N1 Os1 1.730164 1_565
N2 O2 1.172430 1_555
N2 Os2 1.730164 1_655
N3 O3 1.172430 1_555
N3 Os3 1.730164 1_545
N4 Os0 2.122095 1_455
N5 Os1 2.122095 1_565
N6 Os2 2.122095 1_655
N7 Os3 2.122095 1_545
N8 Os0 2.126199 1_455
N9 Os1 2.126199 1_565
N10 Os2 2.126199 1_655
N11 Os3 2.126199 1_545
N12 Os0 2.119062 1_545
N13 Os1 2.119062 1_655
N14 Os2 2.119062 1_565
N15 Os3 2.119062 1_455
N16 Os0 2.120772 1_555
N17 Os1 2.120772 1_555
N18 Os2 2.120772 1_555
N19 Os3 2.120772 1_555
N20 O12 1.227293 1_555
N20 O8 1.227489 1_545
N20 O4 1.343043 1_545
N21 O13 1.227293 1_455
N21 O9 1.227489 1_555
N21 O5 1.343043 1_555
N22 O14 1.227293 1_545
N22 O10 1.227489 1_555
N22 O6 1.343043 1_555
N23 O15 1.227293 1_555
N23 O11 1.227489 1_455
N23 O7 1.343043 1_455
Cl4 H0 2.056316 1_555
Cl5 H1 2.056316 1_555
Cl6 H2 2.056316 1_555
Cl7 H3 2.056316 1_555
O4 Os0 2.042550 1_555
O5 Os1 2.042550 1_555
O6 Os2 2.042550 1_555
O7 Os3 2.042550 1_555
