# generated using pymatgen
data_Li11Fe12(BO3)12
_symmetry_space_group_name_H-M   'P 1'
_cell_length_a   8.78132700
_cell_length_b   8.79244014
_cell_length_c   10.34020646
_cell_angle_alpha   99.11474868
_cell_angle_beta   99.14099542
_cell_angle_gamma   107.78807337
_symmetry_Int_Tables_number   1
_chemical_formula_structural   Li11Fe12(BO3)12
_chemical_formula_sum   'Li11 Fe12 B12 O36'
_cell_volume   732.12826909
_cell_formula_units_Z   1
loop_
 _symmetry_equiv_pos_site_id
 _symmetry_equiv_pos_as_xyz
  1  'x, y, z'
loop_
 _atom_site_type_symbol
 _atom_site_label
 _atom_site_symmetry_multiplicity
 _atom_site_fract_x
 _atom_site_fract_y
 _atom_site_fract_z
 _atom_site_occupancy
  Li  Li0  1  0.96969700  0.98385500  0.26958400  1
  Li  Li1  1  0.31293400  0.59784900  0.29345600  1
  Li  Li2  1  0.56296700  0.84630800  0.54838400  1
  Li  Li3  1  0.05987900  0.34479500  0.04410000  1
  Li  Li4  1  0.34032900  0.04249100  0.05995700  1
  Li  Li5  1  0.84248400  0.54385400  0.55738900  1
  Li  Li6  1  0.59009000  0.29232700  0.30740300  1
  Li  Li7  1  0.47397400  0.48651100  0.77222500  1
  Li  Li8  1  0.22173600  0.23572500  0.52176400  1
  Li  Li9  1  0.81410700  0.09880400  0.79512000  1
  Li  Li10  1  0.09217400  0.79485200  0.80743900  1
  Fe  Fe0  1  0.68875900  0.67830600  0.31355100  1
  Fe  Fe1  1  0.43949300  0.43294600  0.06641500  1
  Fe  Fe2  1  0.93914200  0.93010400  0.56629900  1
  Fe  Fe3  1  0.71694900  0.09701500  0.09085000  1
  Fe  Fe4  1  0.97872000  0.34447700  0.33961600  1
  Fe  Fe5  1  0.07775300  0.72674100  0.09192900  1
  Fe  Fe6  1  0.33379200  0.97701800  0.34451100  1
  Fe  Fe7  1  0.22912600  0.59789800  0.59006500  1
  Fe  Fe8  1  0.48180900  0.84158900  0.84169500  1
  Fe  Fe9  1  0.83669700  0.48274300  0.84569500  1
  Fe  Fe10  1  0.58773300  0.22661800  0.59401700  1
  Fe  Fe11  1  0.18801400  0.18134100  0.81559600  1
  B  B0  1  0.78902900  0.44620500  0.12444900  1
  B  B1  1  0.45812700  0.79224500  0.12950100  1
  B  B2  1  0.29391000  0.96013100  0.62678700  1
  B  B3  1  0.04073100  0.70740500  0.37477600  1
  B  B4  1  0.49944900  0.49998600  0.49932900  1
  B  B5  1  0.24948800  0.25073800  0.24976300  1
  B  B6  1  0.74887500  0.75095700  0.74432600  1
  B  B7  1  0.99857100  0.00803300  0.00008200  1
  B  B8  1  0.95793200  0.29322000  0.62488000  1
  B  B9  1  0.70662100  0.03651800  0.37203500  1
  B  B10  1  0.54439300  0.20761800  0.88087400  1
  B  B11  1  0.20888800  0.54212100  0.87516700  1
  O  O0  1  0.88480700  0.98894000  0.08082400  1
  O  O1  1  0.83805400  0.55958000  0.05049200  1
  O  O2  1  0.50303100  0.91731600  0.05771500  1
  O  O3  1  0.80262100  0.93914700  0.37955200  1
  O  O4  1  0.54010600  0.68400900  0.13828500  1
  O  O5  1  0.86717700  0.32547900  0.12926400  1
  O  O6  1  0.66639100  0.44233600  0.19463400  1
  O  O7  1  0.91386000  0.69557100  0.44218200  1
  O  O8  1  0.32797000  0.78197200  0.19157300  1
  O  O9  1  0.07913400  0.82582500  0.29948900  1
  O  O10  1  0.98827600  0.41142300  0.54813700  1
  O  O11  1  0.73370300  0.14951000  0.28850800  1
  O  O12  1  0.26223800  0.37246100  0.17768900  1
  O  O13  1  0.51727500  0.62628000  0.43156200  1
  O  O14  1  0.77132600  0.88108300  0.67906600  1
  O  O15  1  0.60354300  0.40805700  0.49350600  1
  O  O16  1  0.35457500  0.16028300  0.24498100  1
  O  O17  1  0.85490100  0.66084800  0.74174900  1
  O  O18  1  0.12913200  0.60040900  0.38288800  1
  O  O19  1  0.38406600  0.85546600  0.63848600  1
  O  O20  1  0.16690700  0.94913000  0.69370100  1
  O  O21  1  0.58570200  0.02646300  0.44414600  1
  O  O22  1  0.83495200  0.27787100  0.69615600  1
  O  O23  1  0.13293400  0.21723700  0.32767100  1
  O  O24  1  0.37833200  0.46307400  0.57280300  1
  O  O25  1  0.62046800  0.70905700  0.80667300  1
  O  O26  1  0.33151300  0.07568300  0.54861800  1
  O  O27  1  0.58022900  0.31755600  0.79903800  1
  O  O28  1  0.24137600  0.66357700  0.80129300  1
  O  O29  1  0.10069700  0.91310600  0.99592300  1
  O  O30  1  0.05085700  0.19132900  0.62859800  1
  O  O31  1  0.30164700  0.43963600  0.87782200  1
  O  O32  1  0.63944100  0.10539600  0.89900900  1
  O  O33  1  0.41738600  0.19653100  0.94704600  1
  O  O34  1  0.08593500  0.52541300  0.94563600  1
  O  O35  1  0.01576100  0.12715700  0.92412500  1
loop_
_geom_bond_atom_site_label_1
_geom_bond_atom_site_label_2
_geom_bond_distance
_geom_bond_site_symmetry_2
Li0 O9 1.951237 1_655
Li0 O3 1.979729 1_555
Li0 O0 1.988216 1_555
Li0 O23 2.040826 1_665
Li1 O18 1.987605 1_555
Li1 O12 2.024445 1_555
Li1 O13 2.029848 1_555
Li1 O8 2.049882 1_555
Li2 O19 1.964960 1_555
Li2 O13 1.998530 1_555
Li2 O14 2.002215 1_555
Li2 O21 2.031436 1_565
Li3 O12 1.993606 1_555
Li3 O34 1.993792 1_554
Li3 O35 1.998266 1_554
Li3 O5 2.003260 1_455
Li4 O33 1.961477 1_554
Li4 O16 1.991378 1_555
Li4 O29 2.004150 1_544
Li4 O2 2.053374 1_545
Li5 O7 1.954806 1_555
Li5 O10 1.979503 1_555
Li5 O17 1.987018 1_555
Li5 O15 2.010852 1_555
Li6 O6 1.934886 1_555
Li6 O16 1.978153 1_555
Li6 O15 1.996598 1_555
Li6 O11 2.042917 1_555
Li7 O25 1.925129 1_555
Li7 O31 1.984579 1_555
Li7 O27 2.012323 1_555
Li7 O24 2.051661 1_555
Li8 O26 1.963167 1_555
Li8 O24 1.980144 1_555
Li8 O30 1.982360 1_555
Li8 O23 1.996081 1_555
Li9 O35 1.962560 1_655
Li9 O14 1.983754 1_545
Li9 O22 1.988313 1_555
Li9 O32 2.016923 1_555
Li10 O20 1.964845 1_555
Li10 O28 1.995014 1_555
Li10 O17 1.996921 1_455
Li10 O29 2.036961 1_555
Fe0 O13 2.075017 1_555
Fe0 O4 2.075577 1_555
Fe0 O3 2.147445 1_555
Fe0 O7 2.148665 1_555
Fe0 O6 2.172821 1_555
Fe1 O4 2.070204 1_555
Fe1 O12 2.070416 1_555
Fe1 O31 2.145085 1_554
Fe1 O33 2.178639 1_554
Fe1 O6 2.181742 1_555
Fe2 O14 2.008520 1_555
Fe2 O3 2.131585 1_555
Fe2 O30 2.146259 1_665
Fe2 O20 2.156927 1_655
Fe2 O7 2.177152 1_555
Fe3 O5 1.973519 1_555
Fe3 O2 1.988225 1_545
Fe3 O0 1.989869 1_545
Fe3 O11 1.993990 1_555
Fe3 O32 2.012865 1_554
Fe4 O23 2.008919 1_655
Fe4 O10 2.124319 1_555
Fe4 O18 2.164647 1_655
Fe4 O5 2.196886 1_555
Fe4 O11 2.223811 1_555
Fe5 O29 2.021958 1_554
Fe5 O1 2.097139 1_455
Fe5 O8 2.143713 1_555
Fe5 O34 2.165820 1_554
Fe5 O9 2.181339 1_555
Fe6 O16 2.023442 1_565
Fe6 O8 2.122727 1_555
Fe6 O9 2.154410 1_555
Fe6 O26 2.156658 1_565
Fe6 O21 2.165690 1_565
Fe7 O24 2.027328 1_555
Fe7 O28 2.145533 1_555
Fe7 O10 2.171183 1_455
Fe7 O19 2.184538 1_555
Fe7 O18 2.188588 1_555
Fe8 O25 1.960844 1_555
Fe8 O28 2.139031 1_555
Fe8 O19 2.176904 1_555
Fe8 O2 2.188187 1_556
Fe8 O32 2.233721 1_565
Fe9 O17 2.016925 1_555
Fe9 O1 2.115365 1_556
Fe9 O34 2.157702 1_655
Fe9 O22 2.174646 1_555
Fe9 O27 2.201936 1_555
Fe10 O15 2.019950 1_555
Fe10 O22 2.134093 1_555
Fe10 O21 2.146378 1_555
Fe10 O27 2.162735 1_555
Fe10 O26 2.164831 1_555
Fe11 O35 2.010656 1_555
Fe11 O31 2.125035 1_555
Fe11 O30 2.139069 1_555
Fe11 O20 2.161203 1_545
Fe11 O33 2.197851 1_555
B0 O1 1.359324 1_555
B0 O6 1.386133 1_555
B0 O5 1.432164 1_555
B1 O4 1.362839 1_555
B1 O8 1.383772 1_555
B1 O2 1.415074 1_555
B2 O20 1.390090 1_555
B2 O26 1.390892 1_565
B2 O19 1.392219 1_555
B3 O9 1.389079 1_555
B3 O7 1.391655 1_455
B3 O18 1.394697 1_555
B4 O13 1.386993 1_555
B4 O24 1.391998 1_555
B4 O15 1.394985 1_555
B5 O12 1.385412 1_555
B5 O23 1.391485 1_555
B5 O16 1.391764 1_555
B6 O25 1.369373 1_555
B6 O17 1.395407 1_555
B6 O14 1.397249 1_555
B7 O0 1.389302 1_545
B7 O35 1.392258 1_654
B7 O29 1.400336 1_644
B8 O30 1.384748 1_655
B8 O22 1.386719 1_555
B8 O10 1.392877 1_555
B9 O3 1.375097 1_545
B9 O21 1.380713 1_555
B9 O11 1.407928 1_555
B10 O27 1.381067 1_555
B10 O33 1.385178 1_555
B10 O32 1.414787 1_555
B11 O34 1.380302 1_555
B11 O31 1.387588 1_555
B11 O28 1.395289 1_555
