# generated using pymatgen
data_Li3FeSiO5
_symmetry_space_group_name_H-M   'P 1'
_cell_length_a   5.12386500
_cell_length_b   5.74877849
_cell_length_c   6.27260416
_cell_angle_alpha   76.23658448
_cell_angle_beta   75.97100600
_cell_angle_gamma   73.49318415
_symmetry_Int_Tables_number   1
_chemical_formula_structural   Li3FeSiO5
_chemical_formula_sum   'Li6 Fe2 Si2 O10'
_cell_volume   169.00520012
_cell_formula_units_Z   2
loop_
 _symmetry_equiv_pos_site_id
 _symmetry_equiv_pos_as_xyz
  1  'x, y, z'
loop_
 _atom_site_type_symbol
 _atom_site_label
 _atom_site_symmetry_multiplicity
 _atom_site_fract_x
 _atom_site_fract_y
 _atom_site_fract_z
 _atom_site_occupancy
  Li  Li0  1  0.51283200  0.24493400  0.99439400  1
  Li  Li1  1  0.29821300  0.44563500  0.39885800  1
  Li  Li2  1  0.31908400  0.95019800  0.39239200  1
  Li  Li3  1  0.68091600  0.04980200  0.60760800  1
  Li  Li4  1  0.70178700  0.55436500  0.60114200  1
  Li  Li5  1  0.48716800  0.75506600  0.00560600  1
  Fe  Fe0  1  0.89672700  0.34554700  0.22286100  1
  Fe  Fe1  1  0.10327300  0.65445300  0.77713900  1
  Si  Si0  1  0.89932500  0.84882600  0.21067900  1
  Si  Si1  1  0.10067500  0.15117400  0.78932100  1
  O  O0  1  0.64567100  0.11926900  0.28404000  1
  O  O1  1  0.64715300  0.66876500  0.28166300  1
  O  O2  1  0.15921100  0.04590600  0.09071400  1
  O  O3  1  0.99975100  0.75982700  0.47418200  1
  O  O4  1  0.16063900  0.57918600  0.11056900  1
  O  O5  1  0.83936100  0.42081400  0.88943100  1
  O  O6  1  0.00024900  0.24017300  0.52581800  1
  O  O7  1  0.84078900  0.95409400  0.90928600  1
  O  O8  1  0.35284700  0.33123500  0.71833700  1
  O  O9  1  0.35432900  0.88073100  0.71596000  1
loop_
_geom_bond_atom_site_label_1
_geom_bond_atom_site_label_2
_geom_bond_distance
_geom_bond_site_symmetry_2
Li0 O8 1.991193 1_555
Li0 O0 1.995409 1_556
Li0 O7 2.073034 1_545
Li0 O5 2.089379 1_555
Li0 O2 2.296857 1_556
Li0 O4 2.353322 1_556
Li1 O4 2.001558 1_555
Li1 O8 2.016684 1_555
Li1 O3 2.076166 1_455
Li1 O6 2.085167 1_555
Li1 O0 2.309026 1_555
Li1 O1 2.366388 1_555
Li2 O9 2.015559 1_555
Li2 O0 2.065275 1_565
Li2 O1 2.085396 1_555
Li2 O3 2.116969 1_455
Li2 O2 2.134149 1_565
Li2 O6 2.145141 1_565
Li3 O0 2.015559 1_555
Li3 O9 2.065275 1_545
Li3 O8 2.085396 1_555
Li3 O6 2.116969 1_655
Li3 O7 2.134149 1_545
Li3 O3 2.145141 1_545
Li4 O5 2.001558 1_555
Li4 O1 2.016684 1_555
Li4 O6 2.076166 1_655
Li4 O3 2.085167 1_555
Li4 O9 2.309026 1_555
Li4 O8 2.366388 1_555
Li5 O1 1.991193 1_555
Li5 O9 1.995409 1_554
Li5 O2 2.073034 1_565
Li5 O4 2.089379 1_555
Li5 O7 2.296857 1_554
Li5 O5 2.353322 1_554
Fe0 O0 1.992034 1_555
Fe0 O1 1.992757 1_555
Fe0 O6 2.004476 1_655
Fe0 O4 2.061283 1_655
Fe0 O2 2.070164 1_655
Fe0 O5 2.107856 1_554
Fe1 O9 1.992034 1_555
Fe1 O8 1.992757 1_555
Fe1 O3 2.004476 1_455
Fe1 O5 2.061283 1_455
Fe1 O7 2.070164 1_455
Fe1 O4 2.107856 1_556
O0 Si0 1.794518 1_545
O1 Si0 1.789152 1_555
O2 Si0 1.894445 1_445
O2 Si1 1.912493 1_554
O3 Si0 1.766018 1_555
O4 Si0 1.861720 1_455
O5 Si1 1.861720 1_655
O6 Si1 1.766018 1_555
O7 Si1 1.894445 1_665
O7 Si0 1.912493 1_556
O8 Si1 1.789152 1_555
O9 Si1 1.794518 1_565
