# generated using pymatgen
data_Ba2YF7
_symmetry_space_group_name_H-M   'P 1'
_cell_length_a   8.14378600
_cell_length_b   8.98916800
_cell_length_c   11.34482900
_cell_angle_alpha   90.00000000
_cell_angle_beta   90.00000000
_cell_angle_gamma   90.00000000
_symmetry_Int_Tables_number   1
_chemical_formula_structural   Ba2YF7
_chemical_formula_sum   'Ba8 Y4 F28'
_cell_volume   830.50796928
_cell_formula_units_Z   4
loop_
 _symmetry_equiv_pos_site_id
 _symmetry_equiv_pos_as_xyz
  1  'x, y, z'
loop_
 _atom_site_type_symbol
 _atom_site_label
 _atom_site_symmetry_multiplicity
 _atom_site_fract_x
 _atom_site_fract_y
 _atom_site_fract_z
 _atom_site_occupancy
  Ba  Ba0  1  0.25000000  0.10699900  0.74259700  1
  Ba  Ba1  1  0.75000000  0.19477800  0.89453400  1
  Ba  Ba2  1  0.25000000  0.30522200  0.39453400  1
  Ba  Ba3  1  0.75000000  0.39300100  0.24259700  1
  Ba  Ba4  1  0.25000000  0.60699900  0.75740300  1
  Ba  Ba5  1  0.75000000  0.69477800  0.60546600  1
  Ba  Ba6  1  0.25000000  0.80522200  0.10546600  1
  Ba  Ba7  1  0.75000000  0.89300100  0.25740300  1
  Y  Y0  1  0.75000000  0.18617300  0.55649600  1
  Y  Y1  1  0.25000000  0.31382700  0.05649600  1
  Y  Y2  1  0.75000000  0.68617300  0.94350400  1
  Y  Y3  1  0.25000000  0.81382700  0.44350400  1
  F  F0  1  0.25000000  0.04305400  0.51260900  1
  F  F1  1  0.25000000  0.09355700  0.13402100  1
  F  F2  1  0.75000000  0.13334000  0.12381900  1
  F  F3  1  0.56978100  0.12595200  0.69203700  1
  F  F4  1  0.93021900  0.12595200  0.69203700  1
  F  F5  1  0.57492400  0.25108100  0.41644900  1
  F  F6  1  0.92507600  0.25108100  0.41644900  1
  F  F7  1  0.07492400  0.24891900  0.91644900  1
  F  F8  1  0.42507600  0.24891900  0.91644900  1
  F  F9  1  0.06978100  0.37404800  0.19203700  1
  F  F10  1  0.43021900  0.37404800  0.19203700  1
  F  F11  1  0.25000000  0.36666000  0.62381900  1
  F  F12  1  0.75000000  0.40644300  0.63402100  1
  F  F13  1  0.75000000  0.45694600  0.01260900  1
  F  F14  1  0.25000000  0.54305400  0.98739100  1
  F  F15  1  0.25000000  0.59355700  0.36597900  1
  F  F16  1  0.75000000  0.63334000  0.37618100  1
  F  F17  1  0.56978100  0.62595200  0.80796300  1
  F  F18  1  0.93021900  0.62595200  0.80796300  1
  F  F19  1  0.57492400  0.75108100  0.08355100  1
  F  F20  1  0.92507600  0.75108100  0.08355100  1
  F  F21  1  0.07492400  0.74891900  0.58355100  1
  F  F22  1  0.42507600  0.74891900  0.58355100  1
  F  F23  1  0.06978100  0.87404800  0.30796300  1
  F  F24  1  0.43021900  0.87404800  0.30796300  1
  F  F25  1  0.25000000  0.86666000  0.87618100  1
  F  F26  1  0.75000000  0.90644300  0.86597900  1
  F  F27  1  0.75000000  0.95694600  0.48739100  1
loop_
_geom_bond_atom_site_label_1
_geom_bond_atom_site_label_2
_geom_bond_distance
_geom_bond_site_symmetry_2
Ba0 F25 2.638984 1_545
Ba0 F0 2.671741 1_555
Ba0 F4 2.672085 1_455
Ba0 F3 2.672085 1_555
Ba0 F11 2.695179 1_555
Ba0 F7 2.747803 1_555
Ba0 F8 2.747803 1_555
Ba1 F26 2.612058 1_545
Ba1 F2 2.659181 1_556
Ba1 F7 2.701958 1_655
Ba1 F8 2.701958 1_555
Ba1 F13 2.710770 1_556
Ba1 F3 2.795420 1_555
Ba1 F4 2.795420 1_555
Ba2 F15 2.612058 1_555
Ba2 F11 2.659181 1_555
Ba2 F6 2.701958 1_455
Ba2 F5 2.701958 1_555
Ba2 F0 2.710770 1_555
Ba2 F9 2.795420 1_555
Ba2 F10 2.795420 1_555
Ba3 F16 2.638984 1_555
Ba3 F13 2.671741 1_555
Ba3 F10 2.672085 1_555
Ba3 F9 2.672085 1_655
Ba3 F2 2.695179 1_555
Ba3 F6 2.747803 1_555
Ba3 F5 2.747803 1_555
Ba4 F11 2.638984 1_555
Ba4 F14 2.671741 1_555
Ba4 F17 2.672085 1_555
Ba4 F18 2.672085 1_455
Ba4 F25 2.695179 1_555
Ba4 F21 2.747803 1_555
Ba4 F22 2.747803 1_555
Ba5 F12 2.612058 1_555
Ba5 F16 2.659181 1_555
Ba5 F22 2.701958 1_555
Ba5 F21 2.701958 1_655
Ba5 F27 2.710770 1_555
Ba5 F17 2.795420 1_555
Ba5 F18 2.795420 1_555
Ba6 F1 2.612058 1_565
Ba6 F25 2.659181 1_554
Ba6 F20 2.701958 1_455
Ba6 F19 2.701958 1_555
Ba6 F14 2.710770 1_554
Ba6 F24 2.795420 1_555
Ba6 F23 2.795420 1_555
Ba7 F2 2.638984 1_565
Ba7 F27 2.671741 1_555
Ba7 F24 2.672085 1_555
Ba7 F23 2.672085 1_655
Ba7 F16 2.695179 1_555
Ba7 F19 2.747803 1_555
Ba7 F20 2.747803 1_555
F0 Y3 2.204663 1_545
F1 Y1 2.166589 1_555
F3 Y0 2.193530 1_555
F4 Y0 2.193530 1_555
F5 Y0 2.213053 1_555
F6 Y0 2.213053 1_555
F7 Y1 2.213053 1_556
F8 Y1 2.213053 1_556
F9 Y1 2.193530 1_555
F10 Y1 2.193530 1_555
F12 Y0 2.166589 1_555
F13 Y2 2.204663 1_554
F14 Y1 2.204663 1_556
F15 Y3 2.166589 1_555
F17 Y2 2.193530 1_555
F18 Y2 2.193530 1_555
F19 Y2 2.213053 1_554
F20 Y2 2.213053 1_554
F21 Y3 2.213053 1_555
F22 Y3 2.213053 1_555
F23 Y3 2.193530 1_555
F24 Y3 2.193530 1_555
F26 Y2 2.166589 1_555
F27 Y0 2.204663 1_565
