# generated using pymatgen
data_K2GeF6
_symmetry_space_group_name_H-M   'P 1'
_cell_length_a   5.60579197
_cell_length_b   5.60579152
_cell_length_c   4.60766092
_cell_angle_alpha   90.00000000
_cell_angle_beta   90.00000000
_cell_angle_gamma   119.99999682
_symmetry_Int_Tables_number   1
_chemical_formula_structural   K2GeF6
_chemical_formula_sum   'K2 Ge1 F6'
_cell_volume   125.39640234
_cell_formula_units_Z   1
loop_
 _symmetry_equiv_pos_site_id
 _symmetry_equiv_pos_as_xyz
  1  'x, y, z'
loop_
 _atom_site_type_symbol
 _atom_site_label
 _atom_site_symmetry_multiplicity
 _atom_site_fract_x
 _atom_site_fract_y
 _atom_site_fract_z
 _atom_site_occupancy
  K  K0  1  0.33333300  0.66666700  0.70112459  1
  K  K1  1  0.66666700  0.33333300  0.29887541  1
  Ge  Ge0  1  0.00000000  -0.00000000  -0.00000000  1
  F  F0  1  0.84537979  0.15462021  0.78005591  1
  F  F1  1  0.84537979  0.69075957  0.78005591  1
  F  F2  1  0.30924043  0.15462021  0.78005591  1
  F  F3  1  0.15462021  0.84537979  0.21994409  1
  F  F4  1  0.15462021  0.30924043  0.21994409  1
  F  F5  1  0.69075957  0.84537979  0.21994409  1
loop_
_geom_bond_atom_site_label_1
_geom_bond_atom_site_label_2
_geom_bond_distance
_geom_bond_site_symmetry_2
F0 Ge0 1.811325 1_656
F0 K1 2.815418 1_555
F0 K0 2.828812 1_655
F0 K0 2.828812 1_545
F0 K1 2.953925 1_556
F1 Ge0 1.811325 1_666
F1 K1 2.815421 1_555
F1 K0 2.828809 1_655
F1 K0 2.828815 1_555
F1 K1 2.953928 1_556
F2 Ge0 1.811326 1_556
F2 K1 2.815421 1_555
F2 K0 2.828809 1_545
F2 K0 2.828814 1_555
F2 K1 2.953928 1_556
F3 Ge0 1.811325 1_565
F3 K0 2.815418 1_555
F3 K1 2.828812 1_455
F3 K1 2.828812 1_565
F3 K0 2.953925 1_554
F4 Ge0 1.811325 1_555
F4 K0 2.815421 1_555
F4 K1 2.828809 1_455
F4 K1 2.828815 1_555
F4 K0 2.953928 1_554
F5 Ge0 1.811326 1_665
F5 K0 2.815421 1_555
F5 K1 2.828809 1_565
F5 K1 2.828814 1_555
F5 K0 2.953928 1_554
