# generated using pymatgen
data_LiFeO2
_symmetry_space_group_name_H-M   'P 1'
_cell_length_a   5.95654822
_cell_length_b   5.95654822
_cell_length_c   5.95654822
_cell_angle_alpha   120.73309377
_cell_angle_beta   120.68156217
_cell_angle_gamma   88.77918268
_symmetry_Int_Tables_number   1
_chemical_formula_structural   LiFeO2
_chemical_formula_sum   'Li4 Fe4 O8'
_cell_volume   147.80658920
_cell_formula_units_Z   4
loop_
 _symmetry_equiv_pos_site_id
 _symmetry_equiv_pos_as_xyz
  1  'x, y, z'
loop_
 _atom_site_type_symbol
 _atom_site_label
 _atom_site_symmetry_multiplicity
 _atom_site_fract_x
 _atom_site_fract_y
 _atom_site_fract_z
 _atom_site_occupancy
  Li  Li0  1  0.00000000  0.50000000  0.50000000  1
  Li  Li1  1  0.00000000  0.50000000  0.00000000  1
  Li  Li2  1  0.00000000  0.00000000  0.50000000  1
  Li  Li3  1  0.50000000  0.00000000  0.50000000  1
  Fe  Fe0  1  0.00000000  0.00000000  0.00000000  1
  Fe  Fe1  1  0.50000000  0.00000000  0.00000000  1
  Fe  Fe2  1  0.50000000  0.50000000  0.50000000  1
  Fe  Fe3  1  0.50000000  0.50000000  0.00000000  1
  O  O0  1  0.72665500  0.25000000  0.47665500  1
  O  O1  1  0.25884000  0.25884000  0.50000000  1
  O  O2  1  0.25884000  0.75884000  0.00000000  1
  O  O3  1  0.27334500  0.75000000  0.52334500  1
  O  O4  1  0.74837400  0.75000000  0.99837400  1
  O  O5  1  0.74116000  0.74116000  0.50000000  1
  O  O6  1  0.74116000  0.24116000  0.00000000  1
  O  O7  1  0.25162600  0.25000000  0.00162600  1
loop_
_geom_bond_atom_site_label_1
_geom_bond_atom_site_label_2
_geom_bond_distance
_geom_bond_site_symmetry_2
Li0 O2 2.084761 1_556
Li0 O6 2.084761 1_455
Li0 O1 2.084761 1_555
Li0 O5 2.084761 1_455
Li0 O3 2.132719 1_555
Li0 O0 2.132719 1_455
Li1 O4 2.090194 1_454
Li1 O7 2.090194 1_555
Li1 O3 2.182922 1_555
Li1 O0 2.182922 1_454
Li1 O6 2.203530 1_455
Li1 O2 2.203530 1_555
Li2 O7 2.090194 1_556
Li2 O4 2.090194 1_444
Li2 O3 2.182922 1_545
Li2 O0 2.182922 1_455
Li2 O5 2.203530 1_445
Li2 O1 2.203530 1_555
Li3 O6 2.084761 1_556
Li3 O2 2.084761 1_545
Li3 O5 2.084761 1_545
Li3 O1 2.084761 1_555
Li3 O0 2.132719 1_555
Li3 O3 2.132719 1_545
Fe0 O2 2.084761 1_545
Fe0 O5 2.084761 1_444
Fe0 O6 2.084761 1_455
Fe0 O1 2.084761 1_555
Fe0 O4 2.128296 1_444
Fe0 O7 2.128296 1_555
Fe1 O0 1.988432 1_555
Fe1 O3 1.988432 1_544
Fe1 O2 2.053018 1_545
Fe1 O6 2.053018 1_555
Fe1 O4 2.076633 1_544
Fe1 O7 2.076633 1_555
Fe2 O0 1.988432 1_555
Fe2 O3 1.988432 1_555
Fe2 O1 2.053018 1_555
Fe2 O5 2.053018 1_555
Fe2 O4 2.076633 1_555
Fe2 O7 2.076633 1_555
Fe3 O5 2.084761 1_555
Fe3 O6 2.084761 1_555
Fe3 O1 2.084761 1_554
Fe3 O2 2.084761 1_555
Fe3 O7 2.128296 1_555
Fe3 O4 2.128296 1_554
