# generated using pymatgen
data_Li11V6O5F19
_symmetry_space_group_name_H-M   'P 1'
_cell_length_a   5.19940200
_cell_length_b   5.47607413
_cell_length_c   16.16153317
_cell_angle_alpha   80.56686832
_cell_angle_beta   89.38010000
_cell_angle_gamma   89.32845286
_symmetry_Int_Tables_number   1
_chemical_formula_structural   Li11V6O5F19
_chemical_formula_sum   'Li11 V6 O5 F19'
_cell_volume   453.88410991
_cell_formula_units_Z   1
loop_
 _symmetry_equiv_pos_site_id
 _symmetry_equiv_pos_as_xyz
  1  'x, y, z'
loop_
 _atom_site_type_symbol
 _atom_site_label
 _atom_site_symmetry_multiplicity
 _atom_site_fract_x
 _atom_site_fract_y
 _atom_site_fract_z
 _atom_site_occupancy
  Li  Li0  1  0.54374000  0.51139700  0.21065800  1
  Li  Li1  1  0.01147600  0.18771200  0.76965600  1
  Li  Li2  1  0.49825800  0.35882600  0.43703900  1
  Li  Li3  1  0.02080500  0.48424300  0.09390500  1
  Li  Li4  1  0.51045000  0.98930500  0.88894300  1
  Li  Li5  1  0.52150300  0.87918200  0.53230600  1
  Li  Li6  1  0.96758600  0.01105000  0.21136800  1
  Li  Li7  1  0.99988500  0.84565500  0.43799700  1
  Li  Li8  1  0.48277700  0.65967100  0.76750000  1
  Li  Li9  1  0.49824400  0.03279800  0.10705200  1
  Li  Li10  1  0.99207100  0.53253300  0.90031500  1
  V  V0  1  0.97977500  0.33984800  0.33892100  1
  V  V1  1  0.51931900  0.18944400  0.66856600  1
  V  V2  1  0.00460700  0.00577200  0.99638100  1
  V  V3  1  0.50605400  0.50639000  0.99643600  1
  V  V4  1  0.52759600  0.84570200  0.33747500  1
  V  V5  1  0.98679000  0.65777000  0.66662800  1
  O  O0  1  0.80222200  0.61460800  0.36745700  1
  O  O1  1  0.81367200  0.29854600  0.02059200  1
  O  O2  1  0.69748100  0.11321200  0.37244400  1
  O  O3  1  0.19577800  0.71090600  0.97548900  1
  O  O4  1  0.69778800  0.45213800  0.70428200  1
  F  F0  1  0.68492100  0.79662800  0.03978400  1
  F  F1  1  0.31353600  0.55103200  0.29987800  1
  F  F2  1  0.87038500  0.08680500  0.88011700  1
  F  F3  1  0.59417100  0.21251300  0.55078300  1
  F  F4  1  0.88271700  0.37888200  0.20888200  1
  F  F5  1  0.38389400  0.38541500  0.11666300  1
  F  F6  1  0.36615500  0.05473800  0.78105200  1
  F  F7  1  0.15650400  0.21148500  0.44405200  1
  F  F8  1  0.82192400  0.95673200  0.70845100  1
  F  F9  1  0.32838600  0.85309100  0.64607400  1
  F  F10  1  0.19301200  0.04365400  0.29857400  1
  F  F11  1  0.63115800  0.63706400  0.87965200  1
  F  F12  1  0.13843500  0.93363200  0.11495400  1
  F  F13  1  0.86913200  0.76665100  0.55248700  1
  F  F14  1  0.63544100  0.88059000  0.21037200  1
  F  F15  1  0.13115200  0.54994400  0.78572700  1
  F  F16  1  0.36084900  0.72482900  0.45176500  1
  F  F17  1  0.32647100  0.21254600  0.95538900  1
  F  F18  1  0.18154300  0.36309700  0.64133700  1
loop_
_geom_bond_atom_site_label_1
_geom_bond_atom_site_label_2
_geom_bond_distance
_geom_bond_site_symmetry_2
Li1 O4 2.313786 1_455
Li2 O2 2.091898 1_555
Li2 O0 2.285039 1_555
Li3 O1 2.011473 1_455
Li3 O3 2.289324 1_554
Li4 O3 2.503482 1_555
Li7 O0 2.117866 1_555
Li7 O2 2.283533 1_565
Li8 O4 1.977701 1_555
Li9 O1 2.469780 1_555
Li10 O3 1.998263 1_655
Li10 O1 2.335206 1_556
O0 V0 1.874689 1_555
O0 V4 1.909643 1_555
O1 V3 1.957346 1_554
O1 V2 1.966975 1_654
O2 V4 1.886286 1_545
O2 V0 1.947615 1_555
O3 V3 1.953623 1_555
O3 V2 1.960383 1_565
O4 V1 1.891742 1_555
O4 V5 1.921329 1_555
F0 Li9 2.050656 1_565
F0 V3 2.072562 1_554
F0 V2 2.079090 1_664
F0 Li3 2.492754 1_655
F1 Li0 1.902118 1_555
F1 V0 2.128655 1_455
F1 V4 2.142402 1_555
F1 Li2 2.490332 1_555
F2 Li1 1.920496 1_655
F2 Li4 1.949464 1_545
F2 V2 1.990577 1_655
F3 V1 1.922821 1_555
F3 Li5 1.939354 1_545
F3 Li2 1.948740 1_555
F4 Li0 1.899866 1_555
F4 Li3 1.982602 1_655
F4 Li6 2.051014 1_555
F4 V0 2.142515 1_555
F5 Li0 1.964342 1_555
F5 Li3 1.979382 1_555
F5 Li9 2.043433 1_555
F5 V3 2.044252 1_554
F6 Li4 1.883852 1_545
F6 Li1 1.974043 1_555
F6 V1 2.006521 1_555
F6 Li8 2.284231 1_545
F7 Li2 1.954625 1_555
F7 V0 1.962771 1_455
F7 Li7 2.188649 1_445
F8 Li1 2.002521 1_665
F8 V5 2.046751 1_555
F8 V1 2.054418 1_565
F8 Li8 2.487644 1_555
F9 Li5 2.070413 1_555
F9 V5 2.079468 1_455
F9 V1 2.186407 1_565
F9 Li8 2.224906 1_555
F10 Li6 1.874871 1_455
F10 V4 2.086318 1_545
F10 V0 2.138722 1_455
F10 Li7 2.537115 1_445
F11 Li8 1.962224 1_555
F11 Li10 1.971364 1_555
F11 V3 2.009752 1_555
F11 Li4 2.049783 1_555
F12 Li6 1.890653 1_465
F12 Li9 1.951147 1_565
F12 V2 2.021579 1_564
F13 Li5 1.916717 1_555
F13 V5 1.946271 1_555
F13 Li7 1.946884 1_555
F14 Li6 1.877846 1_565
F14 Li9 1.883472 1_565
F14 Li0 2.081879 1_555
F14 V4 2.102264 1_555
F15 Li8 1.935552 1_555
F15 Li10 1.968852 1_455
F15 V5 2.065262 1_455
F15 Li1 2.142584 1_555
F16 Li5 1.872762 1_555
F16 Li7 1.985278 1_455
F16 V4 2.044409 1_555
F16 Li2 2.168696 1_555
F17 Li4 1.985798 1_545
F17 V2 2.072719 1_555
F17 V3 2.073568 1_555
F18 V5 1.991291 1_455
F18 V1 2.005665 1_555
F18 Li1 2.309204 1_555
