# generated using pymatgen
data_DyHoO3
_symmetry_space_group_name_H-M   'P 1'
_cell_length_a   6.42343981
_cell_length_b   6.42343981
_cell_length_c   12.74775500
_cell_angle_alpha   90.00000000
_cell_angle_beta   90.00000000
_cell_angle_gamma   119.99999804
_symmetry_Int_Tables_number   1
_chemical_formula_structural   DyHoO3
_chemical_formula_sum   'Dy6 Ho6 O18'
_cell_volume   455.51183620
_cell_formula_units_Z   6
loop_
 _symmetry_equiv_pos_site_id
 _symmetry_equiv_pos_as_xyz
  1  'x, y, z'
loop_
 _atom_site_type_symbol
 _atom_site_label
 _atom_site_symmetry_multiplicity
 _atom_site_fract_x
 _atom_site_fract_y
 _atom_site_fract_z
 _atom_site_occupancy
  Dy  Dy0  1  0.33333300  0.66666700  0.23337800  1
  Dy  Dy1  1  0.00000000  0.00000000  0.26473800  1
  Dy  Dy2  1  0.00000000  0.00000000  0.76473800  1
  Dy  Dy3  1  0.33333300  0.66666700  0.73337800  1
  Dy  Dy4  1  0.66666700  0.33333300  0.73337800  1
  Dy  Dy5  1  0.66666700  0.33333300  0.23337800  1
  Ho  Ho0  1  0.00000000  0.66727300  0.49659300  1
  Ho  Ho1  1  0.00000000  0.33272700  0.99659300  1
  Ho  Ho2  1  0.33272700  0.33272700  0.49659300  1
  Ho  Ho3  1  0.66727300  0.66727300  0.99659300  1
  Ho  Ho4  1  0.33272700  0.00000000  0.99659300  1
  Ho  Ho5  1  0.66727300  0.00000000  0.49659300  1
  O  O0  1  0.00000000  0.69449000  0.67035600  1
  O  O1  1  0.00000000  0.63509200  0.32448400  1
  O  O2  1  0.00000000  0.36490800  0.82448400  1
  O  O3  1  0.00000000  0.30551000  0.17035600  1
  O  O4  1  0.33333300  0.66666700  0.02228400  1
  O  O5  1  0.00000000  0.00000000  0.46092700  1
  O  O6  1  0.33333300  0.66666700  0.52228400  1
  O  O7  1  0.00000000  0.00000000  0.96092700  1
  O  O8  1  0.30551000  0.30551000  0.67035600  1
  O  O9  1  0.36490800  0.36490800  0.32448400  1
  O  O10  1  0.30551000  0.00000000  0.17035600  1
  O  O11  1  0.63509200  0.63509200  0.82448400  1
  O  O12  1  0.69449000  0.69449000  0.17035600  1
  O  O13  1  0.36490800  0.00000000  0.82448400  1
  O  O14  1  0.66666700  0.33333300  0.52228400  1
  O  O15  1  0.66666700  0.33333300  0.02228400  1
  O  O16  1  0.63509200  0.00000000  0.32448400  1
  O  O17  1  0.69449000  0.00000000  0.67035600  1
loop_
_geom_bond_atom_site_label_1
_geom_bond_atom_site_label_2
_geom_bond_distance
_geom_bond_site_symmetry_2
Dy0 O1 2.353765 1_555
Dy0 O16 2.353768 1_565
Dy0 O9 2.353771 1_555
Dy0 O10 2.375824 1_565
Dy0 O3 2.375827 1_555
Dy0 O12 2.375830 1_555
Dy0 O4 2.690975 1_555
Dy1 O3 2.301891 1_555
Dy1 O10 2.301891 1_555
Dy1 O12 2.301891 1_445
Dy1 O1 2.464599 1_545
Dy1 O16 2.464599 1_455
Dy1 O9 2.464599 1_555
Dy1 O5 2.500969 1_555
Dy2 O17 2.301891 1_455
Dy2 O0 2.301891 1_545
Dy2 O8 2.301891 1_555
Dy2 O13 2.464599 1_555
Dy2 O2 2.464599 1_555
Dy2 O11 2.464599 1_445
Dy2 O7 2.500969 1_555
Dy3 O13 2.353765 1_565
Dy3 O2 2.353768 1_555
Dy3 O11 2.353771 1_555
Dy3 O0 2.375824 1_555
Dy3 O17 2.375827 1_565
Dy3 O8 2.375830 1_555
Dy3 O6 2.690975 1_555
Dy4 O2 2.353765 1_655
Dy4 O13 2.353768 1_555
Dy4 O11 2.353771 1_555
Dy4 O17 2.375824 1_555
Dy4 O0 2.375827 1_655
Dy4 O8 2.375830 1_555
Dy4 O14 2.690975 1_555
Dy5 O16 2.353765 1_555
Dy5 O1 2.353768 1_655
Dy5 O9 2.353771 1_555
Dy5 O3 2.375824 1_655
Dy5 O10 2.375827 1_555
Dy5 O12 2.375830 1_555
Dy5 O15 2.690975 1_555
Ho0 O6 2.167973 1_555
Ho0 O14 2.167976 1_455
Ho0 O5 2.185077 1_565
Ho0 O1 2.203720 1_555
Ho0 O0 2.221977 1_555
Ho1 O15 2.167973 1_456
Ho1 O4 2.167976 1_556
Ho1 O7 2.185077 1_555
Ho1 O2 2.203720 1_555
Ho1 O3 2.221977 1_556
Ho2 O14 2.167979 1_555
Ho2 O6 2.167979 1_555
Ho2 O5 2.185077 1_555
Ho2 O9 2.203720 1_555
Ho2 O8 2.221977 1_555
Ho3 O4 2.167979 1_556
Ho3 O15 2.167979 1_556
Ho3 O7 2.185077 1_665
Ho3 O11 2.203720 1_555
Ho3 O12 2.221977 1_556
Ho4 O4 2.167973 1_546
Ho4 O15 2.167976 1_556
Ho4 O7 2.185077 1_555
Ho4 O13 2.203720 1_555
Ho4 O10 2.221977 1_556
Ho5 O14 2.167973 1_555
Ho5 O6 2.167976 1_545
Ho5 O5 2.185077 1_655
Ho5 O16 2.203720 1_555
Ho5 O17 2.221977 1_555
