# generated using pymatgen
data_LiFeSiO4
_symmetry_space_group_name_H-M   'P 1'
_cell_length_a   5.89427500
_cell_length_b   6.50212069
_cell_length_c   9.47359611
_cell_angle_alpha   76.34276882
_cell_angle_beta   87.28017982
_cell_angle_gamma   79.11277290
_symmetry_Int_Tables_number   1
_chemical_formula_structural   LiFeSiO4
_chemical_formula_sum   'Li4 Fe4 Si4 O16'
_cell_volume   346.46060803
_cell_formula_units_Z   4
loop_
 _symmetry_equiv_pos_site_id
 _symmetry_equiv_pos_as_xyz
  1  'x, y, z'
loop_
 _atom_site_type_symbol
 _atom_site_label
 _atom_site_symmetry_multiplicity
 _atom_site_fract_x
 _atom_site_fract_y
 _atom_site_fract_z
 _atom_site_occupancy
  Li  Li0  1  0.57241300  0.84497100  0.74043400  1
  Li  Li1  1  0.43396600  0.65295400  0.32855700  1
  Li  Li2  1  0.56603400  0.34704600  0.67144300  1
  Li  Li3  1  0.42758700  0.15502900  0.25956600  1
  Fe  Fe0  1  0.00641600  0.93409000  0.28784400  1
  Fe  Fe1  1  0.80417000  0.63852200  0.07531800  1
  Fe  Fe2  1  0.19583000  0.36147800  0.92468200  1
  Fe  Fe3  1  0.99358400  0.06591000  0.71215600  1
  Si  Si0  1  0.13912000  0.71265800  0.61784300  1
  Si  Si1  1  0.27949200  0.82723400  0.99995300  1
  Si  Si2  1  0.72050800  0.17276600  0.00004700  1
  Si  Si3  1  0.86088000  0.28734200  0.38215700  1
  O  O0  1  0.54192500  0.73260700  0.95135800  1
  O  O1  1  0.28002200  0.89858000  0.64390800  1
  O  O2  1  0.88108200  0.81089700  0.67421000  1
  O  O3  1  0.81135500  0.93549000  0.11262300  1
  O  O4  1  0.11115300  0.65644300  0.98001700  1
  O  O5  1  0.15271000  0.69996800  0.44622400  1
  O  O6  1  0.27912600  0.84773200  0.16852600  1
  O  O7  1  0.74419500  0.52545700  0.28032400  1
  O  O8  1  0.25580500  0.47454300  0.71967600  1
  O  O9  1  0.72087400  0.15226800  0.83147400  1
  O  O10  1  0.84729000  0.30003200  0.55377600  1
  O  O11  1  0.88884700  0.34355700  0.01998300  1
  O  O12  1  0.18864500  0.06451000  0.88737700  1
  O  O13  1  0.11891800  0.18910300  0.32579000  1
  O  O14  1  0.71997800  0.10142000  0.35609200  1
  O  O15  1  0.45807500  0.26739300  0.04864200  1
loop_
_geom_bond_atom_site_label_1
_geom_bond_atom_site_label_2
_geom_bond_distance
_geom_bond_site_symmetry_2
Li0 O2 1.886234 1_555
Li0 O1 1.923552 1_555
Li0 O0 1.971048 1_555
Li1 O6 1.877062 1_555
Li1 O7 1.940792 1_555
Li1 O5 1.969383 1_555
Li2 O9 1.877062 1_555
Li2 O8 1.940792 1_555
Li2 O10 1.969383 1_555
Li3 O13 1.886234 1_555
Li3 O14 1.923552 1_555
Li3 O15 1.971048 1_555
Fe0 O5 1.964822 1_555
Fe0 O6 1.990776 1_555
Fe0 O14 1.996740 1_465
Fe0 O13 2.009425 1_565
Fe0 O3 2.060956 1_455
Fe1 O0 1.902228 1_554
Fe1 O7 1.948366 1_555
Fe1 O4 1.994420 1_654
Fe1 O3 2.051759 1_555
Fe1 O11 2.071376 1_555
Fe2 O15 1.902228 1_556
Fe2 O8 1.948366 1_555
Fe2 O11 1.994420 1_456
Fe2 O12 2.051759 1_555
Fe2 O4 2.071376 1_555
Fe3 O10 1.964822 1_555
Fe3 O9 1.990776 1_555
Fe3 O1 1.996740 1_645
Fe3 O2 2.009425 1_545
Fe3 O12 2.060956 1_655
O0 Si1 1.640095 1_555
O1 Si0 1.658864 1_555
O2 Si0 1.650288 1_655
O3 Si2 1.664184 1_565
O4 Si1 1.669278 1_555
O5 Si0 1.644720 1_555
O6 Si1 1.633472 1_554
O7 Si3 1.660180 1_555
O8 Si0 1.660180 1_555
O9 Si2 1.633472 1_556
O10 Si3 1.644720 1_555
O11 Si2 1.669278 1_555
O12 Si1 1.664184 1_545
O13 Si3 1.650288 1_455
O14 Si3 1.658864 1_555
O15 Si2 1.640095 1_555
