# generated using pymatgen
data_CoOF
_symmetry_space_group_name_H-M   'P 1'
_cell_length_a   2.92075500
_cell_length_b   4.68315900
_cell_length_c   18.39379242
_cell_angle_alpha   88.21411759
_cell_angle_beta   90.00000000
_cell_angle_gamma   90.00000000
_symmetry_Int_Tables_number   1
_chemical_formula_structural   CoOF
_chemical_formula_sum   'Co8 O8 F8'
_cell_volume   251.47470747
_cell_formula_units_Z   8
loop_
 _symmetry_equiv_pos_site_id
 _symmetry_equiv_pos_as_xyz
  1  'x, y, z'
loop_
 _atom_site_type_symbol
 _atom_site_label
 _atom_site_symmetry_multiplicity
 _atom_site_fract_x
 _atom_site_fract_y
 _atom_site_fract_z
 _atom_site_occupancy
  Co  Co0  1  0.00000000  0.03078900  0.99947300  1
  Co  Co1  1  0.00000000  0.86666900  0.24806100  1
  Co  Co2  1  0.00000000  0.97958500  0.49951500  1
  Co  Co3  1  0.00000000  0.08367000  0.75335100  1
  Co  Co4  1  0.50000000  0.44563000  0.12706400  1
  Co  Co5  1  0.50000000  0.43166000  0.37170100  1
  Co  Co6  1  0.50000000  0.53104700  0.62561500  1
  Co  Co7  1  0.50000000  0.62604200  0.87568400  1
  O  O0  1  0.50000000  0.70970000  0.20109300  1
  O  O1  1  0.50000000  0.88554200  0.94848500  1
  O  O2  1  0.00000000  0.69987300  0.57726900  1
  O  O3  1  0.00000000  0.79521100  0.82979600  1
  O  O4  1  0.00000000  0.59443300  0.32154900  1
  O  O5  1  0.00000000  0.25981800  0.42140300  1
  O  O6  1  0.00000000  0.36267400  0.67480300  1
  O  O7  1  0.50000000  0.19471200  0.04819600  1
  F  F0  1  0.50000000  0.76889100  0.44996000  1
  F  F1  1  0.50000000  0.87409700  0.70388000  1
  F  F2  1  0.00000000  0.67181100  0.07585600  1
  F  F3  1  0.00000000  0.20208000  0.17655500  1
  F  F4  1  0.00000000  0.41587500  0.92310800  1
  F  F5  1  0.50000000  0.06691900  0.29599300  1
  F  F6  1  0.50000000  0.18977100  0.54814400  1
  F  F7  1  0.50000000  0.31350100  0.80344900  1
loop_
_geom_bond_atom_site_label_1
_geom_bond_atom_site_label_2
_geom_bond_distance
_geom_bond_site_symmetry_2
Co0 O1 1.874765 1_445
Co0 O1 1.874765 1_545
Co0 O7 1.888939 1_456
Co0 O7 1.888939 1_556
Co0 F2 2.157081 1_546
Co0 F4 2.251100 1_555
Co1 O4 1.828981 1_555
Co1 O0 1.859847 1_455
Co1 O0 1.859847 1_555
Co1 F5 1.959852 1_565
Co1 F5 1.959852 1_465
Co1 F3 2.017056 1_565
Co2 O2 1.909085 1_555
Co2 O5 1.915497 1_565
Co2 F6 1.989114 1_565
Co2 F6 1.989114 1_465
Co2 F0 1.998300 1_555
Co2 F0 1.998300 1_455
Co3 O6 1.917557 1_555
Co3 O3 1.919294 1_545
Co3 F1 1.994910 1_445
Co3 F1 1.994910 1_545
Co3 F7 2.049919 1_455
Co3 F7 2.049919 1_555
Co4 O0 1.867752 1_555
Co4 O7 1.895142 1_555
Co4 F2 2.019827 1_655
Co4 F2 2.019827 1_555
Co4 F3 2.048807 1_555
Co4 F3 2.048807 1_655
Co5 O4 1.876417 1_555
Co5 O4 1.876417 1_655
Co5 O5 1.889515 1_655
Co5 O5 1.889515 1_555
Co5 F0 2.169795 1_555
Co5 F5 2.237235 1_555
Co6 O2 1.872107 1_555
Co6 O2 1.872107 1_655
Co6 O6 1.878450 1_555
Co6 O6 1.878450 1_655
Co6 F6 2.174153 1_555
Co6 F1 2.190343 1_555
Co7 O1 1.836162 1_555
Co7 O3 1.852324 1_555
Co7 O3 1.852324 1_655
Co7 F4 1.951627 1_655
Co7 F4 1.951627 1_555
Co7 F7 2.007224 1_555
