# generated using pymatgen
data_Li5V3P8O29
_symmetry_space_group_name_H-M   'P 1'
_cell_length_a   9.79806300
_cell_length_b   9.80275774
_cell_length_c   13.90047246
_cell_angle_alpha   89.88382761
_cell_angle_beta   89.89658252
_cell_angle_gamma   60.26162020
_symmetry_Int_Tables_number   1
_chemical_formula_structural   Li5V3P8O29
_chemical_formula_sum   'Li10 V6 P16 O58'
_cell_volume   1159.27508056
_cell_formula_units_Z   2
loop_
 _symmetry_equiv_pos_site_id
 _symmetry_equiv_pos_as_xyz
  1  'x, y, z'
loop_
 _atom_site_type_symbol
 _atom_site_label
 _atom_site_symmetry_multiplicity
 _atom_site_fract_x
 _atom_site_fract_y
 _atom_site_fract_z
 _atom_site_occupancy
  Li  Li0  1  0.91178300  0.77569200  0.05950000  1
  Li  Li1  1  0.76947300  0.90431900  0.56058600  1
  Li  Li2  1  0.91079100  0.31744600  0.55893300  1
  Li  Li3  1  0.66581300  0.66565400  0.88370200  1
  Li  Li4  1  0.77371000  0.31268600  0.06065200  1
  Li  Li5  1  0.31914100  0.90688700  0.06052400  1
  Li  Li6  1  0.67727900  0.22883400  0.43898900  1
  Li  Li7  1  0.32312700  0.77307100  0.55868700  1
  Li  Li8  1  0.09487500  0.67967700  0.43949900  1
  Li  Li9  1  0.09593000  0.22651400  0.94020900  1
  V  V0  1  0.56665700  0.43318900  0.24591500  1
  V  V1  1  0.43157900  0.56602900  0.75394100  1
  V  V2  1  0.56551500  0.00662300  0.75349200  1
  V  V3  1  0.42900500  0.00509900  0.25431200  1
  V  V4  1  0.00056100  0.56719600  0.25072600  1
  V  V5  1  0.99979100  0.43131600  0.74611000  1
  P  P0  1  0.90918300  0.76964800  0.84270200  1
  P  P1  1  0.76753900  0.91412700  0.34273500  1
  P  P2  1  0.91116700  0.31881800  0.34236700  1
  P  P3  1  0.66532200  0.67073200  0.12649000  1
  P  P4  1  0.66504100  0.66876900  0.62678500  1
  P  P5  1  0.77095400  0.31891000  0.84335600  1
  P  P6  1  0.68045300  0.23311500  0.65870500  1
  P  P7  1  0.31714500  0.91225900  0.84332700  1
  P  P8  1  0.68299800  0.08450700  0.15676800  1
  P  P9  1  0.32106200  0.76654900  0.34190100  1
  P  P10  1  0.23041700  0.68389300  0.15752800  1
  P  P11  1  0.33523600  0.33416100  0.37417900  1
  P  P12  1  0.33027600  0.33350400  0.87466300  1
  P  P13  1  0.08675900  0.68384200  0.65825500  1
  P  P14  1  0.23222600  0.08345000  0.65693800  1
  P  P15  1  0.08890600  0.23118500  0.15897300  1
  O  O0  1  0.99599000  0.75817800  0.56774300  1
  O  O1  1  0.91480500  0.74906500  0.34242400  1
  O  O2  1  0.76592600  0.99047300  0.07080700  1
  O  O3  1  0.74132100  0.91685300  0.83303200  1
  O  O4  1  0.88778600  0.62490500  0.82530600  1
  O  O5  1  0.81261800  0.67571900  0.16470100  1
  O  O6  1  0.90310200  0.47883500  0.32142100  1
  O  O7  1  0.00265500  0.23746700  0.06806000  1
  O  O8  1  0.92145700  0.33600400  0.83858500  1
  O  O9  1  0.66940200  0.81649300  0.66928000  1
  O  O10  1  0.61686500  0.90355100  0.32379400  1
  O  O11  1  0.81331800  0.51308100  0.66568200  1
  O  O12  1  0.66190600  0.67167300  0.01784900  1
  O  O13  1  0.66599400  0.67072100  0.51945500  1
  O  O14  1  0.67301800  0.51454100  0.16355800  1
  O  O15  1  0.48371800  0.89582800  0.82546100  1
  O  O16  1  0.51231900  0.81753500  0.16663600  1
  O  O17  1  0.74333100  0.33961300  0.33693200  1
  O  O18  1  0.78997400  0.21148400  0.75089400  1
  O  O19  1  0.76145300  0.23796900  0.56791600  1
  O  O20  1  0.76197300  0.24495000  0.93451000  1
  O  O21  1  0.62784900  0.48619500  0.82605900  1
  O  O22  1  0.51466200  0.66929300  0.66933400  1
  O  O23  1  0.66221200  0.25171800  0.15716800  1
  O  O24  1  0.47939300  0.61881600  0.32440700  1
  O  O25  1  0.34152500  0.91344900  0.33418600  1
  O  O26  1  0.78885900  0.00525700  0.25349900  1
  O  O27  1  0.75274500  0.00191600  0.43438900  1
  O  O28  1  0.24402900  0.98954500  0.57108300  1
  O  O29  1  0.66372300  0.08286300  0.66091300  1
  O  O30  1  0.52163500  0.38124600  0.67396100  1
  O  O31  1  0.34081400  0.74659500  0.84165800  1
  O  O32  1  0.48822400  0.32530500  0.33322600  1
  O  O33  1  0.38092200  0.52280000  0.17566600  1
  O  O34  1  0.23933500  0.76806300  0.07135100  1
  O  O35  1  0.24188600  0.76103500  0.43334900  1
  O  O36  1  0.20591500  0.78713300  0.25385000  1
  O  O37  1  0.25126500  0.66543200  0.65761300  1
  O  O38  1  0.47968700  0.18353500  0.82612000  1
  O  O39  1  0.52327200  0.09309800  0.17759300  1
  O  O40  1  0.33726100  0.47731000  0.82873900  1
  O  O41  1  0.34010000  0.32364100  0.98073400  1
  O  O42  1  0.33539100  0.32672300  0.48098900  1
  O  O43  1  0.18657200  0.48623500  0.33483300  1
  O  O44  1  0.38360900  0.09155300  0.67856400  1
  O  O45  1  0.33279800  0.18526500  0.32615200  1
  O  O46  1  0.08440500  0.66102600  0.16022600  1
  O  O47  1  0.99937900  0.79014200  0.75080200  1
  O  O48  1  0.98988000  0.76537000  0.93346600  1
  O  O49  1  0.09454100  0.52392500  0.67767900  1
  O  O50  1  0.18404300  0.32955600  0.83424600  1
  O  O51  1  0.10207900  0.37803800  0.17585800  1
  O  O52  1  0.25473700  0.08186200  0.16130300  1
  O  O53  1  0.24584100  0.00343000  0.93366400  1
  O  O54  1  0.20611000  0.00552300  0.75398100  1
  O  O55  1  0.08637700  0.25085800  0.65693100  1
  O  O56  1  0.99176900  0.24679400  0.43407200  1
  O  O57  1  0.99937500  0.20904200  0.25036300  1
loop_
_geom_bond_atom_site_label_1
_geom_bond_atom_site_label_2
_geom_bond_distance
_geom_bond_site_symmetry_2
Li0 O2 1.874943 1_555
Li0 O48 1.893172 1_554
Li0 O46 2.049542 1_655
Li0 O5 2.230840 1_555
Li1 O0 1.958044 1_555
Li1 O27 1.964193 1_565
Li1 O29 2.070586 1_565
Li1 O9 2.193685 1_555
Li2 O56 1.891122 1_555
Li2 O19 1.973197 1_555
Li2 O55 2.032797 1_655
Li2 O11 2.231849 1_555
Li3 O12 1.865483 1_556
Li3 O21 2.128646 1_555
Li3 O4 2.163732 1_555
Li3 O15 2.221205 1_555
Li4 O20 1.899961 1_554
Li4 O7 1.986429 1_655
Li4 O23 1.997451 1_555
Li4 O14 2.237088 1_555
Li5 O34 1.881610 1_555
Li5 O53 1.960760 1_564
Li5 O52 2.058020 1_565
Li5 O16 2.210321 1_555
Li6 O27 1.966605 1_555
Li6 O19 1.994809 1_555
Li6 O17 2.073240 1_555
Li6 O32 2.180199 1_555
Li7 O28 1.871581 1_555
Li7 O35 1.944741 1_555
Li7 O37 2.056152 1_555
Li7 O22 2.243310 1_555
Li8 O35 1.963963 1_555
Li8 O0 1.992085 1_455
Li8 O1 2.051995 1_455
Li8 O43 2.199102 1_555
Li9 O53 1.939504 1_555
Li9 O7 1.975533 1_556
Li9 O8 2.062075 1_455
Li9 O50 2.188540 1_555
O0 P13 1.504097 1_655
O1 P1 1.543997 1_555
O1 V4 2.007083 1_655
O2 P8 1.481756 1_565
O3 P0 1.565541 1_555
O3 V2 1.860951 1_565
O4 P0 1.553169 1_555
O4 V5 1.988854 1_555
O5 P3 1.562130 1_555
O5 V4 2.002989 1_655
O6 P2 1.557822 1_555
O6 V4 1.855140 1_655
O7 P15 1.505625 1_555
O8 P5 1.565817 1_555
O8 V5 1.953821 1_555
O9 P4 1.585150 1_555
O9 V2 2.000636 1_565
O10 P1 1.553360 1_555
O10 V3 1.869903 1_565
O11 P4 1.591237 1_555
O11 V5 1.944590 1_555
O12 P3 1.510501 1_555
O13 P4 1.492093 1_555
O14 P3 1.580461 1_555
O14 V0 1.961901 1_555
O15 P7 1.577735 1_555
O15 V2 1.918072 1_565
O16 P3 1.577881 1_555
O16 V3 2.012156 1_565
O17 P2 1.555427 1_555
O17 V0 1.966359 1_555
O18 P5 1.614164 1_555
O18 P6 1.617647 1_555
O19 P6 1.502800 1_555
O20 P5 1.482583 1_555
O21 P5 1.559315 1_555
O21 V1 1.956095 1_555
O22 P4 1.584353 1_555
O22 V1 1.969712 1_555
O23 P8 1.548257 1_555
O23 V0 1.978724 1_555
O24 P9 1.527830 1_555
O24 V0 1.921931 1_555
O25 P9 1.552773 1_555
O25 V3 1.879114 1_565
O26 P1 1.600006 1_545
O26 P8 1.639735 1_555
O27 P1 1.504921 1_545
O28 P14 1.477617 1_565
O29 P6 1.560937 1_555
O29 V2 1.961032 1_555
O30 P6 1.527533 1_555
O30 V1 1.927347 1_555
O31 P7 1.522525 1_555
O31 V1 1.963117 1_555
O32 P11 1.564154 1_555
O32 V0 1.994922 1_555
O33 P10 1.556075 1_555
O33 V0 1.858494 1_555
O34 P10 1.480043 1_555
O35 P9 1.502790 1_555
O36 P9 1.609279 1_555
O36 P10 1.624149 1_555
O37 P13 1.530375 1_555
O37 V1 2.039388 1_555
O38 P12 1.620186 1_555
O38 V2 1.814150 1_555
O39 P8 1.551722 1_555
O39 V3 1.875545 1_555
O40 P12 1.578399 1_555
O40 V1 1.865912 1_555
O41 P12 1.477592 1_555
O42 P11 1.486318 1_555
O43 P11 1.577500 1_555
O43 V4 1.971634 1_555
O44 P14 1.554133 1_555
O44 V2 1.866998 1_555
O45 P11 1.617178 1_555
O45 V3 1.832240 1_555
O46 P10 1.554443 1_555
O46 V4 1.960778 1_555
O47 P13 1.609398 1_655
O47 P0 1.619961 1_555
O48 P0 1.479597 1_555
O49 P13 1.554332 1_555
O49 V5 1.849395 1_455
O50 P12 1.558222 1_555
O50 V5 1.992888 1_455
O51 P15 1.526403 1_555
O51 V4 1.919649 1_555
O52 P15 1.556983 1_555
O52 V3 1.970432 1_555
O53 P7 1.498543 1_545
O54 P7 1.604803 1_545
O54 P14 1.630082 1_555
O55 P14 1.551986 1_555
O55 V5 1.975336 1_455
O56 P2 1.481203 1_555
O57 P15 1.616861 1_655
O57 P2 1.618475 1_555
