# generated using pymatgen
data_Li4Ti2Co3O10
_symmetry_space_group_name_H-M   'P 1'
_cell_length_a   6.55718200
_cell_length_b   7.70525315
_cell_length_c   7.76809904
_cell_angle_alpha   94.31203650
_cell_angle_beta   91.59098290
_cell_angle_gamma   114.69728607
_symmetry_Int_Tables_number   1
_chemical_formula_structural   Li4Ti2Co3O10
_chemical_formula_sum   'Li8 Ti4 Co6 O20'
_cell_volume   354.81139697
_cell_formula_units_Z   2
loop_
 _symmetry_equiv_pos_site_id
 _symmetry_equiv_pos_as_xyz
  1  'x, y, z'
loop_
 _atom_site_type_symbol
 _atom_site_label
 _atom_site_symmetry_multiplicity
 _atom_site_fract_x
 _atom_site_fract_y
 _atom_site_fract_z
 _atom_site_occupancy
  Li  Li0  1  0.09194300  0.40529500  0.59435900  1
  Li  Li1  1  0.19173100  0.80376000  0.70088100  1
  Li  Li2  1  0.74258500  0.49328600  0.75406300  1
  Li  Li3  1  0.25741500  0.50671400  0.24593700  1
  Li  Li4  1  0.80826900  0.19624000  0.29911900  1
  Li  Li5  1  0.90805700  0.59470500  0.40564100  1
  Li  Li6  1  0.58071500  0.39732100  0.08763700  1
  Li  Li7  1  0.41928500  0.60267900  0.91236300  1
  Ti  Ti0  1  0.45460500  0.30140200  0.46693200  1
  Ti  Ti1  1  0.54539500  0.69859800  0.53306800  1
  Ti  Ti2  1  0.97298500  0.30659500  0.94458400  1
  Ti  Ti3  1  0.02701500  0.69340500  0.05541600  1
  Co  Co0  1  0.64600000  0.09923900  0.65319600  1
  Co  Co1  1  0.35400000  0.90076100  0.34680400  1
  Co  Co2  1  0.00000000  0.00000000  0.50000000  1
  Co  Co3  1  0.50000000  0.00000000  0.00000000  1
  Co  Co4  1  0.14705600  0.09749100  0.15178200  1
  Co  Co5  1  0.85294400  0.90250900  0.84821800  1
  O  O0  1  0.65815000  0.95518100  0.43942100  1
  O  O1  1  0.24761100  0.66718500  0.46968800  1
  O  O2  1  0.75238900  0.33281500  0.53031200  1
  O  O3  1  0.86389100  0.76341900  0.63074900  1
  O  O4  1  0.34185000  0.04481900  0.56057900  1
  O  O5  1  0.42807300  0.46229400  0.65166900  1
  O  O6  1  0.35327100  0.76618000  0.12746000  1
  O  O7  1  0.05487300  0.86010700  0.27338500  1
  O  O8  1  0.94512700  0.13989300  0.72661500  1
  O  O9  1  0.92328200  0.45367800  0.15482300  1
  O  O10  1  0.57192700  0.53770600  0.34833100  1
  O  O11  1  0.55254700  0.86164900  0.76434800  1
  O  O12  1  0.44745300  0.13835100  0.23565200  1
  O  O13  1  0.13610900  0.23658100  0.36925100  1
  O  O14  1  0.07671800  0.54632200  0.84517700  1
  O  O15  1  0.15088300  0.94348800  0.94076500  1
  O  O16  1  0.64672900  0.23382000  0.87254000  1
  O  O17  1  0.74759700  0.66701100  0.96190500  1
  O  O18  1  0.25240300  0.33298900  0.03809500  1
  O  O19  1  0.84911700  0.05651200  0.05923500  1
loop_
_geom_bond_atom_site_label_1
_geom_bond_atom_site_label_2
_geom_bond_distance
_geom_bond_site_symmetry_2
Li0 O5 2.087148 1_555
Li0 O2 2.091511 1_455
Li0 O1 2.163186 1_555
Li0 O14 2.184040 1_555
Li0 O13 2.198302 1_555
Li0 O8 2.211331 1_455
Li1 O3 2.089443 1_455
Li1 O4 2.107826 1_565
Li1 O1 2.131107 1_555
Li1 O15 2.161091 1_555
Li1 O14 2.211593 1_555
Li1 O11 2.249436 1_555
Li2 O17 2.008717 1_555
Li2 O2 2.074488 1_555
Li2 O5 2.100390 1_555
Li2 O16 2.120807 1_555
Li2 O14 2.142546 1_655
Li2 O3 2.200300 1_555
Li3 O18 2.008717 1_555
Li3 O1 2.074488 1_555
Li3 O10 2.100390 1_555
Li3 O6 2.120807 1_555
Li3 O9 2.142546 1_455
Li3 O13 2.200300 1_555
Li4 O13 2.089443 1_655
Li4 O0 2.107826 1_545
Li4 O2 2.131107 1_555
Li4 O19 2.161091 1_555
Li4 O9 2.211593 1_555
Li4 O12 2.249436 1_555
Li5 O10 2.087148 1_555
Li5 O1 2.091511 1_655
Li5 O2 2.163186 1_555
Li5 O9 2.184040 1_555
Li5 O3 2.198302 1_555
Li5 O7 2.211331 1_655
Li6 O18 2.015425 1_555
Li6 O9 2.142990 1_555
Li6 O16 2.178468 1_554
Li6 O17 2.221245 1_554
Li6 O10 2.236868 1_555
Li6 O12 2.238540 1_555
Li7 O17 2.015425 1_555
Li7 O14 2.142990 1_555
Li7 O6 2.178468 1_556
Li7 O18 2.221245 1_556
Li7 O5 2.236868 1_555
Li7 O11 2.238540 1_555
Co0 O8 1.915251 1_555
Co0 O16 1.925691 1_555
Co0 O0 1.949407 1_545
Co0 O11 1.949896 1_545
Co0 O4 1.961396 1_555
Co0 O2 1.970573 1_555
Co1 O7 1.915251 1_555
Co1 O6 1.925691 1_555
Co1 O4 1.949407 1_565
Co1 O12 1.949896 1_565
Co1 O0 1.961396 1_555
Co1 O1 1.970573 1_555
Co2 O13 2.029867 1_555
Co2 O3 2.029867 1_445
Co2 O7 2.112862 1_545
Co2 O8 2.112862 1_455
Co2 O4 2.153013 1_555
Co2 O0 2.153013 1_445
Co3 O16 2.006134 1_554
Co3 O6 2.006134 1_545
Co3 O12 2.157461 1_555
Co3 O11 2.157461 1_544
Co3 O19 2.172619 1_555
Co3 O15 2.172619 1_544
Co4 O18 1.943493 1_555
Co4 O12 1.945045 1_555
Co4 O19 1.950804 1_455
Co4 O13 1.950978 1_555
Co4 O15 1.957134 1_544
Co4 O7 1.992718 1_545
Co5 O17 1.943493 1_555
Co5 O11 1.945045 1_555
Co5 O15 1.950804 1_655
Co5 O3 1.950978 1_555
Co5 O19 1.957134 1_566
Co5 O8 1.992718 1_565
O0 Ti1 2.002290 1_555
O1 Ti1 1.909837 1_555
O2 Ti0 1.909837 1_555
O3 Ti1 2.042095 1_555
O4 Ti0 2.002290 1_555
O5 Ti0 1.884969 1_555
O5 Ti1 1.969002 1_555
O6 Ti3 2.021929 1_555
O7 Ti3 2.002474 1_555
O8 Ti2 2.002474 1_555
O9 Ti3 1.914336 1_655
O9 Ti2 2.029211 1_554
O10 Ti1 1.884969 1_555
O10 Ti0 1.969002 1_555
O11 Ti1 2.101206 1_555
O12 Ti0 2.101206 1_555
O13 Ti0 2.042095 1_555
O14 Ti2 1.914336 1_455
O14 Ti3 2.029211 1_556
O15 Ti3 2.038729 1_556
O16 Ti2 2.021929 1_555
O17 Ti3 1.875756 1_656
O18 Ti2 1.875756 1_454
O19 Ti2 2.038729 1_554
