# generated using pymatgen
data_MnP2(H4O5)2
_symmetry_space_group_name_H-M   'P 1'
_cell_length_a   10.24036200
_cell_length_b   5.46906300
_cell_length_c   8.76800056
_cell_angle_alpha   57.00789546
_cell_angle_beta   90.00000000
_cell_angle_gamma   90.00000000
_symmetry_Int_Tables_number   1
_chemical_formula_structural   MnP2(H4O5)2
_chemical_formula_sum   'Mn2 P4 H16 O20'
_cell_volume   411.86896254
_cell_formula_units_Z   2
loop_
 _symmetry_equiv_pos_site_id
 _symmetry_equiv_pos_as_xyz
  1  'x, y, z'
loop_
 _atom_site_type_symbol
 _atom_site_label
 _atom_site_symmetry_multiplicity
 _atom_site_fract_x
 _atom_site_fract_y
 _atom_site_fract_z
 _atom_site_occupancy
  Mn  Mn0  1  0.00000000  0.00000000  0.00000000  1
  Mn  Mn1  1  0.50000000  0.00000000  0.50000000  1
  P  P0  1  0.71645400  0.08804800  0.16874800  1
  P  P1  1  0.78354600  0.08804800  0.66874800  1
  P  P2  1  0.28354600  0.91195200  0.83125200  1
  P  P3  1  0.21645400  0.91195200  0.33125200  1
  H  H0  1  0.07982000  0.59087600  0.83170300  1
  H  H1  1  0.42018000  0.59087600  0.33170300  1
  H  H2  1  0.92018000  0.40912400  0.16829700  1
  H  H3  1  0.57982000  0.40912400  0.66829700  1
  H  H4  1  0.71835400  0.87991900  0.01501400  1
  H  H5  1  0.78164600  0.87991900  0.51501400  1
  H  H6  1  0.28164600  0.12008100  0.98498600  1
  H  H7  1  0.21835400  0.12008100  0.48498600  1
  H  H8  1  0.95845400  0.58500300  0.72626400  1
  H  H9  1  0.54154600  0.58500300  0.22626400  1
  H  H10  1  0.04154600  0.41499700  0.27373600  1
  H  H11  1  0.45845400  0.41499700  0.77373600  1
  H  H12  1  0.61905600  0.44452300  0.91570600  1
  H  H13  1  0.88094400  0.44452300  0.41570600  1
  H  H14  1  0.38094400  0.55547700  0.08429400  1
  H  H15  1  0.11905600  0.55547700  0.58429400  1
  O  O0  1  0.86420200  0.12850400  0.14035700  1
  O  O1  1  0.63579800  0.12850400  0.64035700  1
  O  O2  1  0.13579800  0.87149600  0.85964300  1
  O  O3  1  0.36420200  0.87149600  0.35964300  1
  O  O4  1  0.67215500  0.97725800  0.36160500  1
  O  O5  1  0.82784500  0.97725800  0.86160500  1
  O  O6  1  0.32784500  0.02274200  0.63839500  1
  O  O7  1  0.17215500  0.02274200  0.13839500  1
  O  O8  1  0.66550200  0.86442000  0.11860400  1
  O  O9  1  0.83449800  0.86442000  0.61860400  1
  O  O10  1  0.33449800  0.13558000  0.88139600  1
  O  O11  1  0.16550200  0.13558000  0.38139600  1
  O  O12  1  0.64339800  0.38861300  0.04126800  1
  O  O13  1  0.85660200  0.38861300  0.54126800  1
  O  O14  1  0.35660200  0.61138700  0.95873200  1
  O  O15  1  0.14339800  0.61138700  0.45873200  1
  O  O16  1  0.03936500  0.47466100  0.78693000  1
  O  O17  1  0.46063500  0.47466100  0.28693000  1
  O  O18  1  0.96063500  0.52533900  0.21307000  1
  O  O19  1  0.53936500  0.52533900  0.71307000  1
loop_
_geom_bond_atom_site_label_1
_geom_bond_atom_site_label_2
_geom_bond_distance
_geom_bond_site_symmetry_2
Mn0 O5 2.181791 1_444
Mn0 O7 2.181791 1_555
Mn0 O2 2.210014 1_544
Mn0 O0 2.210014 1_455
Mn0 O18 2.260535 1_445
Mn0 O16 2.260535 1_554
Mn1 O4 2.181791 1_545
Mn1 O6 2.181791 1_555
Mn1 O1 2.210014 1_555
Mn1 O3 2.210014 1_545
Mn1 O17 2.260535 1_555
Mn1 O19 2.260535 1_545
H0 O16 1.000717 1_555
H1 O17 1.000717 1_555
H2 O18 1.000717 1_555
H3 O19 1.000717 1_555
H4 O8 1.020407 1_555
H4 O5 1.603120 1_554
H5 O9 1.020407 1_555
H5 O4 1.603120 1_555
H6 O10 1.020407 1_555
H6 O7 1.603120 1_556
H7 O11 1.020407 1_555
H7 O6 1.603120 1_555
H8 O16 0.991988 1_655
H9 O17 0.991988 1_555
H10 O18 0.991988 1_455
H11 O19 0.991988 1_555
H12 O12 1.000532 1_556
H13 O13 1.000532 1_555
H14 O14 1.000532 1_554
H15 O15 1.000532 1_555
O0 P0 1.529734 1_555
O1 P1 1.529734 1_555
O2 P2 1.529734 1_555
O3 P3 1.529734 1_555
O4 P0 1.521998 1_565
O5 P1 1.521998 1_565
O6 P2 1.521998 1_545
O7 P3 1.521998 1_545
O8 P0 1.595922 1_565
O9 P1 1.595922 1_565
O10 P2 1.595922 1_545
O11 P3 1.595922 1_545
O12 P0 1.584353 1_555
O13 P1 1.584353 1_555
O14 P2 1.584353 1_555
O15 P3 1.584353 1_555
