# generated using pymatgen
data_Li4Cr3FeO8
_symmetry_space_group_name_H-M   'P 1'
_cell_length_a   5.14616300
_cell_length_b   5.95423412
_cell_length_c   10.72852387
_cell_angle_alpha   97.96469420
_cell_angle_beta   103.81857779
_cell_angle_gamma   106.81917977
_symmetry_Int_Tables_number   1
_chemical_formula_structural   Li4Cr3FeO8
_chemical_formula_sum   'Li8 Cr6 Fe2 O16'
_cell_volume   297.84328719
_cell_formula_units_Z   2
loop_
 _symmetry_equiv_pos_site_id
 _symmetry_equiv_pos_as_xyz
  1  'x, y, z'
loop_
 _atom_site_type_symbol
 _atom_site_label
 _atom_site_symmetry_multiplicity
 _atom_site_fract_x
 _atom_site_fract_y
 _atom_site_fract_z
 _atom_site_occupancy
  Li  Li0  1  0.00000000  0.00000000  0.00000000  1
  Li  Li1  1  0.74973100  0.62457600  0.74982600  1
  Li  Li2  1  0.25026900  0.37542400  0.25017400  1
  Li  Li3  1  0.49954000  0.74976800  0.49957800  1
  Li  Li4  1  0.00000000  0.50000000  0.00000000  1
  Li  Li5  1  0.75105700  0.12564100  0.74977100  1
  Li  Li6  1  0.24894300  0.87435900  0.25022900  1
  Li  Li7  1  0.50046000  0.25023200  0.50042200  1
  Cr  Cr0  1  0.87463100  0.56202300  0.37464500  1
  Cr  Cr1  1  0.37508700  0.31269500  0.87514200  1
  Cr  Cr2  1  0.12453800  0.93744200  0.62461100  1
  Cr  Cr3  1  0.62491300  0.68730500  0.12485800  1
  Cr  Cr4  1  0.87546200  0.06255800  0.37538900  1
  Cr  Cr5  1  0.12536900  0.43797700  0.62535500  1
  Fe  Fe0  1  0.37510500  0.81295900  0.87504000  1
  Fe  Fe1  1  0.62489500  0.18704100  0.12496000  1
  O  O0  1  0.16322100  0.40046900  0.43941900  1
  O  O1  1  0.58428200  0.22420000  0.31181900  1
  O  O2  1  0.66792000  0.15298300  0.93843500  1
  O  O3  1  0.08399800  0.97510900  0.80997300  1
  O  O4  1  0.83677900  0.59953100  0.56058100  1
  O  O5  1  0.41571800  0.77580000  0.68818100  1
  O  O6  1  0.91678800  0.52873400  0.19012300  1
  O  O7  1  0.33341500  0.35025400  0.06013200  1
  O  O8  1  0.16278600  0.90088500  0.43934200  1
  O  O9  1  0.58641200  0.72394300  0.30998400  1
  O  O10  1  0.66658500  0.64974600  0.93986800  1
  O  O11  1  0.08321200  0.47126600  0.80987700  1
  O  O12  1  0.41358800  0.27605700  0.69001600  1
  O  O13  1  0.91600200  0.02489100  0.19002700  1
  O  O14  1  0.83721400  0.09911500  0.56065800  1
  O  O15  1  0.33208000  0.84701700  0.06156500  1
loop_
_geom_bond_atom_site_label_1
_geom_bond_atom_site_label_2
_geom_bond_distance
_geom_bond_site_symmetry_2
Li0 O2 2.171369 1_454
Li0 O15 2.171369 1_545
Li0 O7 2.176482 1_555
Li0 O10 2.176482 1_444
Li0 O13 2.177034 1_455
Li0 O3 2.177034 1_544
Li1 O5 2.172644 1_555
Li1 O10 2.175249 1_555
Li1 O12 2.175725 1_555
Li1 O4 2.175851 1_555
Li1 O11 2.175986 1_655
Li1 O3 2.179555 1_655
Li2 O1 2.172644 1_555
Li2 O7 2.175249 1_555
Li2 O9 2.175725 1_555
Li2 O0 2.175851 1_555
Li2 O6 2.175986 1_455
Li2 O13 2.179555 1_455
Li3 O5 2.161735 1_555
Li3 O9 2.179086 1_555
Li3 O0 2.179205 1_555
Li3 O4 2.181410 1_555
Li3 O8 2.181523 1_555
Li3 O14 2.182288 1_565
Li4 O15 2.159898 1_555
Li4 O2 2.159898 1_454
Li4 O7 2.161284 1_555
Li4 O10 2.161284 1_454
Li4 O11 2.176263 1_554
Li4 O6 2.176263 1_455
Li5 O11 2.154694 1_655
Li5 O2 2.160819 1_555
Li5 O3 2.162559 1_645
Li5 O14 2.172423 1_555
Li5 O5 2.178829 1_545
Li5 O12 2.180943 1_555
Li6 O6 2.154694 1_455
Li6 O15 2.160819 1_555
Li6 O13 2.162559 1_465
Li6 O8 2.172423 1_555
Li6 O1 2.178829 1_565
Li6 O9 2.180943 1_555
Li7 O1 2.161735 1_555
Li7 O12 2.179086 1_555
Li7 O4 2.179205 1_555
Li7 O0 2.181410 1_555
Li7 O14 2.181523 1_555
Li7 O8 2.182288 1_545
Cr0 O6 2.031420 1_555
Cr0 O9 2.032748 1_555
Cr0 O0 2.032935 1_655
Cr0 O1 2.033915 1_555
Cr0 O8 2.034811 1_655
Cr0 O4 2.038249 1_555
Cr1 O12 2.030881 1_555
Cr1 O10 2.033238 1_555
Cr1 O11 2.034540 1_555
Cr1 O3 2.034916 1_545
Cr1 O7 2.035432 1_556
Cr1 O2 2.038584 1_555
Cr2 O14 2.026293 1_465
Cr2 O4 2.029720 1_455
Cr2 O8 2.031923 1_555
Cr2 O12 2.035635 1_565
Cr2 O3 2.037219 1_555
Cr2 O5 2.040873 1_555
Cr3 O9 2.030881 1_555
Cr3 O7 2.033238 1_555
Cr3 O6 2.034540 1_555
Cr3 O13 2.034916 1_565
Cr3 O10 2.035432 1_554
Cr3 O15 2.038584 1_555
Cr4 O8 2.026293 1_645
Cr4 O0 2.029720 1_655
Cr4 O14 2.031923 1_555
Cr4 O9 2.035635 1_545
Cr4 O13 2.037219 1_555
Cr4 O1 2.040873 1_555
Cr5 O11 2.031420 1_555
Cr5 O12 2.032748 1_555
Cr5 O4 2.032935 1_455
Cr5 O5 2.033915 1_555
Cr5 O14 2.034811 1_455
Cr5 O0 2.038249 1_555
Fe0 O3 2.046447 1_555
Fe0 O2 2.048292 1_565
Fe0 O10 2.051996 1_555
Fe0 O5 2.053176 1_555
Fe0 O15 2.054235 1_556
Fe0 O11 2.054265 1_555
Fe1 O13 2.046447 1_555
Fe1 O15 2.048292 1_545
Fe1 O7 2.051996 1_555
Fe1 O1 2.053176 1_555
Fe1 O2 2.054235 1_554
Fe1 O6 2.054265 1_555
