# generated using pymatgen
data_Li4MnNb2WO12
_symmetry_space_group_name_H-M   'P 1'
_cell_length_a   5.46349838
_cell_length_b   10.93677366
_cell_length_c   9.63551192
_cell_angle_alpha   28.17676204
_cell_angle_beta   51.10676057
_cell_angle_gamma   56.34351229
_symmetry_Int_Tables_number   1
_chemical_formula_structural   Li4MnNb2WO12
_chemical_formula_sum   'Li4 Mn1 Nb2 W1 O12'
_cell_volume   211.59743463
_cell_formula_units_Z   1
loop_
 _symmetry_equiv_pos_site_id
 _symmetry_equiv_pos_as_xyz
  1  'x, y, z'
loop_
 _atom_site_type_symbol
 _atom_site_label
 _atom_site_symmetry_multiplicity
 _atom_site_fract_x
 _atom_site_fract_y
 _atom_site_fract_z
 _atom_site_occupancy
  Li  Li0  1  0.25449000  0.99787600  0.31202100  1
  Li  Li1  1  0.32384200  0.49862300  0.27051800  1
  Li  Li2  1  0.77351800  0.00630200  0.73221900  1
  Li  Li3  1  0.76758800  0.49622900  0.81273300  1
  Mn  Mn0  1  0.00168300  0.50006000  0.99851800  1
  Nb  Nb0  1  0.48799300  0.00447100  0.50599500  1
  Nb  Nb1  1  0.52498800  0.49833100  0.50215600  1
  W  W0  1  0.00339400  0.00307000  0.00477000  1
  O  O0  1  0.35222300  0.29984500  0.13592800  1
  O  O1  1  0.22531500  0.12405300  0.63370800  1
  O  O2  1  0.11403000  0.31269100  0.74399200  1
  O  O3  1  0.85713100  0.20565300  0.23108200  1
  O  O4  1  0.36872500  0.81869600  0.11266400  1
  O  O5  1  0.72990700  0.39044300  0.35512000  1
  O  O6  1  0.24287600  0.61384600  0.63150400  1
  O  O7  1  0.62397900  0.17182400  0.88522500  1
  O  O8  1  0.13658300  0.80394700  0.73992200  1
  O  O9  1  0.88740600  0.69101200  0.23858800  1
  O  O10  1  0.75221800  0.87262700  0.36702600  1
  O  O11  1  0.64331200  0.69040100  0.85751700  1
loop_
_geom_bond_atom_site_label_1
_geom_bond_atom_site_label_2
_geom_bond_distance
_geom_bond_site_symmetry_2
Li0 O3 2.004658 1_465
Li0 O6 2.092048 1_555
Li0 O7 2.155321 1_564
Li0 O8 2.162200 1_555
Li0 O0 2.238044 1_565
Li0 O10 2.439900 1_555
Li1 O11 1.975463 1_554
Li1 O1 2.030465 1_555
Li1 O9 2.103901 1_455
Li1 O5 2.155800 1_555
Li1 O4 2.392454 1_555
Li1 O2 2.433850 1_555
Li2 O8 1.966578 1_645
Li2 O5 1.993678 1_555
Li2 O4 2.031723 1_546
Li3 O0 2.048699 1_556
Li3 O10 2.073301 1_555
Li3 O2 2.146850 1_655
Li3 O3 2.180893 1_556
Li3 O11 2.192343 1_555
Li3 O6 2.344190 1_655
Mn0 O8 1.899192 1_555
Mn0 O0 1.907957 1_556
Mn0 O5 1.937118 1_456
Mn0 O11 1.961983 1_455
Mn0 O3 1.971933 1_456
Mn0 O6 1.999561 1_555
Nb0 O1 1.955406 1_555
Nb0 O11 1.964254 1_545
Nb0 O3 1.964725 1_555
Nb0 O0 2.014499 1_555
Nb0 O8 2.023428 1_545
Nb0 O10 2.150710 1_545
Nb1 O9 1.919994 1_555
Nb1 O6 1.931423 1_555
Nb1 O7 1.948579 1_555
Nb1 O5 2.035696 1_555
Nb1 O4 2.148338 1_555
Nb1 O2 2.176081 1_555
O1 W0 1.999584 1_556
O2 W0 1.872587 1_556
O4 W0 1.891972 1_565
O7 W0 2.009962 1_656
O9 W0 2.043012 1_665
O10 W0 1.864959 1_665
