# generated using pymatgen
data_RbSmGeSe4
_symmetry_space_group_name_H-M   'P 1'
_cell_length_a   6.85565100
_cell_length_b   7.12173600
_cell_length_c   18.12534600
_cell_angle_alpha   90.00000000
_cell_angle_beta   90.00000000
_cell_angle_gamma   90.00000000
_symmetry_Int_Tables_number   1
_chemical_formula_structural   RbSmGeSe4
_chemical_formula_sum   'Rb4 Sm4 Ge4 Se16'
_cell_volume   884.95436776
_cell_formula_units_Z   4
loop_
 _symmetry_equiv_pos_site_id
 _symmetry_equiv_pos_as_xyz
  1  'x, y, z'
loop_
 _atom_site_type_symbol
 _atom_site_label
 _atom_site_symmetry_multiplicity
 _atom_site_fract_x
 _atom_site_fract_y
 _atom_site_fract_z
 _atom_site_occupancy
  Rb  Rb0  1  0.51700400  0.99377000  0.53128400  1
  Rb  Rb1  1  0.99583300  0.00251600  0.03291100  1
  Rb  Rb2  1  0.00602800  0.49896100  0.46885500  1
  Rb  Rb3  1  0.49614500  0.49762000  0.96732400  1
  Sm  Sm0  1  0.78917900  0.01779200  0.77635000  1
  Sm  Sm1  1  0.29145200  0.47243600  0.22626200  1
  Sm  Sm2  1  0.21295200  0.52432700  0.72472700  1
  Sm  Sm3  1  0.70167300  0.98282100  0.27528600  1
  Ge  Ge0  1  0.79625500  0.51286400  0.16493100  1
  Ge  Ge1  1  0.21610800  0.01474700  0.33787000  1
  Ge  Ge2  1  0.70677200  0.48017700  0.66423800  1
  Ge  Ge3  1  0.28656700  0.98131100  0.83473300  1
  Se  Se0  1  0.10668100  0.08293000  0.21425700  1
  Se  Se1  1  0.45164000  0.25545600  0.35650900  1
  Se  Se2  1  0.55966200  0.98369400  0.91303700  1
  Se  Se3  1  0.08965400  0.26619700  0.85118700  1
  Se  Se4  1  0.94268000  0.24100900  0.64400600  1
  Se  Se5  1  0.39776700  0.73902700  0.35209400  1
  Se  Se6  1  0.59365200  0.23370100  0.15125100  1
  Se  Se7  1  0.40730000  0.91498800  0.71542200  1
  Se  Se8  1  0.90141500  0.58117900  0.28778000  1
  Se  Se9  1  0.59831900  0.41179400  0.78700100  1
  Se  Se10  1  0.43990700  0.49341600  0.58482400  1
  Se  Se11  1  0.90929900  0.76650500  0.64789500  1
  Se  Se12  1  0.93911900  0.00649900  0.41455300  1
  Se  Se13  1  0.55269000  0.76205900  0.14208300  1
  Se  Se14  1  0.06588100  0.50678500  0.08436600  1
  Se  Se15  1  0.05023300  0.74044000  0.85655200  1
loop_
_geom_bond_atom_site_label_1
_geom_bond_atom_site_label_2
_geom_bond_distance
_geom_bond_site_symmetry_2
Rb0 Se7 3.466955 1_555
Rb0 Se12 3.585985 1_565
Rb0 Se1 3.702614 1_565
Rb0 Se10 3.725981 1_565
Rb0 Se10 3.730797 1_555
Rb0 Se11 3.784185 1_555
Rb0 Se5 3.808978 1_555
Rb0 Se4 3.973798 1_565
Rb1 Se0 3.421925 1_655
Rb1 Se14 3.683017 1_645
Rb1 Se2 3.698697 1_544
Rb1 Se15 3.720312 1_644
Rb1 Se14 3.741344 1_655
Rb1 Se3 3.845683 1_654
Rb1 Se6 3.861840 1_555
Rb1 Se13 4.009711 1_545
Rb2 Se8 3.410139 1_455
Rb2 Se10 3.642480 1_555
Rb2 Se12 3.671442 1_455
Rb2 Se4 3.693503 1_455
Rb2 Se12 3.774139 1_465
Rb2 Se11 3.821164 1_455
Rb2 Se5 3.822889 1_555
Rb2 Se1 4.060384 1_555
Rb3 Se9 3.398059 1_555
Rb3 Se2 3.625068 1_555
Rb3 Se14 3.633962 1_556
Rb3 Se13 3.705461 1_556
Rb3 Se2 3.814937 1_545
Rb3 Se3 3.861800 1_555
Rb3 Se6 3.885027 1_556
Rb3 Se15 4.045617 1_555
Ge0 Se14 2.356071 1_655
Ge0 Se8 2.390516 1_555
Ge0 Se6 2.437904 1_555
Ge0 Se13 2.471697 1_555
Ge1 Se5 2.339490 1_545
Ge1 Se12 2.353988 1_455
Ge1 Se1 2.379113 1_555
Ge1 Se0 2.412166 1_555
Ge2 Se10 2.329801 1_555
Ge2 Se4 2.377256 1_555
Ge2 Se9 2.396071 1_555
Ge2 Se11 2.484692 1_555
Ge3 Se2 2.349460 1_555
Ge3 Se7 2.363224 1_555
Ge3 Se15 2.392528 1_555
Ge3 Se3 2.455142 1_565
Se0 Sm1 3.057252 1_555
Se0 Sm3 3.072684 1_445
Se1 Sm3 2.979190 1_545
Se1 Sm1 3.027729 1_555
Se2 Sm0 2.944968 1_565
Se3 Sm0 3.035288 1_455
Se3 Sm2 3.057425 1_555
Se4 Sm0 3.064100 1_555
Se4 Sm2 3.105645 1_655
Se5 Sm3 3.048528 1_555
Se5 Sm1 3.055764 1_555
Se6 Sm3 2.965640 1_545
Se6 Sm1 3.005242 1_555
Se7 Sm0 2.934225 1_565
Se7 Sm2 3.089375 1_555
Se8 Sm1 2.998851 1_655
Se8 Sm3 3.179348 1_555
Se9 Sm2 2.982649 1_555
Se9 Sm0 3.102076 1_555
Se10 Sm2 2.983219 1_555
Se11 Sm2 3.040999 1_655
Se11 Sm0 3.049879 1_565
Se12 Sm3 3.008359 1_545
Se13 Sm3 3.056818 1_555
Se13 Sm1 3.128882 1_555
Se14 Sm1 3.010988 1_555
Se15 Sm0 3.036074 1_465
Se15 Sm2 3.053256 1_555
