# generated using pymatgen
data_Li4V5CuClO15
_symmetry_space_group_name_H-M   'P 1'
_cell_length_a   8.96325100
_cell_length_b   8.96325100
_cell_length_c   5.50150300
_cell_angle_alpha   90.00000000
_cell_angle_beta   90.00000000
_cell_angle_gamma   90.00000000
_symmetry_Int_Tables_number   1
_chemical_formula_structural   Li4V5CuClO15
_chemical_formula_sum   'Li4 V5 Cu1 Cl1 O15'
_cell_volume   441.99002751
_cell_formula_units_Z   1
loop_
 _symmetry_equiv_pos_site_id
 _symmetry_equiv_pos_as_xyz
  1  'x, y, z'
loop_
 _atom_site_type_symbol
 _atom_site_label
 _atom_site_symmetry_multiplicity
 _atom_site_fract_x
 _atom_site_fract_y
 _atom_site_fract_z
 _atom_site_occupancy
  Li  Li0  1  0.19007400  0.17576300  0.43703700  1
  Li  Li1  1  0.82423700  0.19007400  0.43703700  1
  Li  Li2  1  0.17576300  0.80992600  0.43703700  1
  Li  Li3  1  0.80992600  0.82423700  0.43703700  1
  V  V0  1  0.64050000  0.14012200  0.90125900  1
  V  V1  1  0.14012200  0.35950000  0.90125900  1
  V  V2  1  0.50000000  0.50000000  0.86539300  1
  V  V3  1  0.85987800  0.64050000  0.90125900  1
  V  V4  1  0.35950000  0.85987800  0.90125900  1
  Cu  Cu0  1  0.00000000  0.00000000  0.80360700  1
  Cl  Cl0  1  0.00000000  0.00000000  0.27041900  1
  O  O0  1  0.50000000  0.00000000  0.84439600  1
  O  O1  1  0.80156300  0.08708500  0.74575900  1
  O  O2  1  0.67444900  0.15463900  0.19855000  1
  O  O3  1  0.08708500  0.19843700  0.74575900  1
  O  O4  1  0.58487000  0.31275300  0.77802100  1
  O  O5  1  0.15463900  0.32555100  0.19855000  1
  O  O6  1  0.31275300  0.41513000  0.77802100  1
  O  O7  1  0.00000000  0.50000000  0.84439600  1
  O  O8  1  0.50000000  0.50000000  0.15835200  1
  O  O9  1  0.68724700  0.58487000  0.77802100  1
  O  O10  1  0.84536100  0.67444900  0.19855000  1
  O  O11  1  0.41513000  0.68724700  0.77802100  1
  O  O12  1  0.91291500  0.80156300  0.74575900  1
  O  O13  1  0.32555100  0.84536100  0.19855000  1
  O  O14  1  0.19843700  0.91291500  0.74575900  1
loop_
_geom_bond_atom_site_label_1
_geom_bond_atom_site_label_2
_geom_bond_distance
_geom_bond_site_symmetry_2
Li0 O5 1.903906 1_555
Li0 O3 1.943741 1_555
Li1 O2 1.903906 1_555
Li1 O1 1.943741 1_555
Li2 O13 1.903906 1_555
Li2 O14 1.943741 1_555
Li3 O10 1.903906 1_555
Li3 O12 1.943741 1_555
Cu0 O12 1.968280 1_445
Cu0 O1 1.968280 1_455
Cu0 O14 1.968280 1_545
Cu0 O3 1.968280 1_555
Cl0 Li1 2.494932 1_455
Cl0 Li2 2.494932 1_545
Cl0 Li0 2.494932 1_555
Cl0 Li3 2.494932 1_445
Cl0 Cu0 2.568168 1_554
O0 V0 1.805879 1_555
O0 V4 1.805879 1_545
O1 V0 1.744122 1_555
O2 V0 1.668694 1_554
O3 V1 1.744122 1_555
O4 V0 1.761405 1_555
O4 V2 1.904354 1_555
O5 V1 1.668694 1_554
O6 V1 1.761405 1_555
O6 V2 1.904354 1_555
O7 V3 1.805879 1_455
O7 V1 1.805879 1_555
O8 V2 1.611715 1_554
O9 V3 1.761405 1_555
O9 V2 1.904354 1_555
O10 V3 1.668694 1_554
O11 V4 1.761405 1_555
O11 V2 1.904354 1_555
O12 V3 1.744122 1_555
O13 V4 1.668694 1_554
O14 V4 1.744122 1_555
