# generated using pymatgen
data_Li4Mn5SnO12
_symmetry_space_group_name_H-M   'P 1'
_cell_length_a   5.23006695
_cell_length_b   5.23006695
_cell_length_c   10.30973009
_cell_angle_alpha   89.53024247
_cell_angle_beta   89.53024247
_cell_angle_gamma   118.09832392
_symmetry_Int_Tables_number   1
_chemical_formula_structural   Li4Mn5SnO12
_chemical_formula_sum   'Li4 Mn5 Sn1 O12'
_cell_volume   248.73931468
_cell_formula_units_Z   1
loop_
 _symmetry_equiv_pos_site_id
 _symmetry_equiv_pos_as_xyz
  1  'x, y, z'
loop_
 _atom_site_type_symbol
 _atom_site_label
 _atom_site_symmetry_multiplicity
 _atom_site_fract_x
 _atom_site_fract_y
 _atom_site_fract_z
 _atom_site_occupancy
  Li  Li0  1  0.62870000  0.13826900  0.74772100  1
  Li  Li1  1  0.86173100  0.37130000  0.25227900  1
  Li  Li2  1  0.13826900  0.62870000  0.74772100  1
  Li  Li3  1  0.37130000  0.86173100  0.25227900  1
  Mn  Mn0  1  0.83623600  0.16376400  0.50000000  1
  Mn  Mn1  1  0.33642300  0.66357700  0.00000000  1
  Mn  Mn2  1  0.66357700  0.33642300  0.00000000  1
  Mn  Mn3  1  0.16376400  0.83623600  0.50000000  1
  Mn  Mn4  1  0.50000000  0.50000000  0.50000000  1
  Sn  Sn0  1  0.00000000  0.00000000  0.00000000  1
  O  O0  1  0.68625000  0.04510600  0.11312600  1
  O  O1  1  0.95489400  0.31375000  0.88687400  1
  O  O2  1  0.53281300  0.17096000  0.39409700  1
  O  O3  1  0.17096000  0.53281300  0.39409700  1
  O  O4  1  0.82904000  0.46718700  0.60590300  1
  O  O5  1  0.17431800  0.17431800  0.58723700  1
  O  O6  1  0.46718700  0.82904000  0.60590300  1
  O  O7  1  0.04510600  0.68625000  0.11312600  1
  O  O8  1  0.34007100  0.34007100  0.09568400  1
  O  O9  1  0.31375000  0.95489400  0.88687400  1
  O  O10  1  0.65992900  0.65992900  0.90431600  1
  O  O11  1  0.82568200  0.82568200  0.41276300  1
loop_
_geom_bond_atom_site_label_1
_geom_bond_atom_site_label_2
_geom_bond_distance
_geom_bond_site_symmetry_2
Li0 O9 2.035153 1_545
Li0 O6 2.058901 1_545
Li0 O1 2.097095 1_555
Li0 O4 2.104917 1_555
Li1 O7 2.035153 1_655
Li1 O3 2.058901 1_655
Li1 O0 2.097095 1_555
Li1 O2 2.104917 1_555
Li2 O1 2.035153 1_455
Li2 O4 2.058901 1_455
Li2 O9 2.097095 1_555
Li2 O6 2.104917 1_555
Li3 O0 2.035153 1_565
Li3 O2 2.058901 1_565
Li3 O7 2.097095 1_555
Li3 O3 2.104917 1_555
Mn0 O4 1.948289 1_555
Mn0 O2 1.948289 1_555
Mn0 O5 1.968096 1_655
Mn0 O11 1.968096 1_545
Mn0 O6 2.175656 1_545
Mn0 O3 2.175656 1_655
Mn1 O9 1.959339 1_554
Mn1 O7 1.959339 1_555
Mn1 O8 1.959482 1_555
Mn1 O10 1.959482 1_554
Mn1 O1 2.307294 1_454
Mn1 O0 2.307294 1_565
Mn2 O0 1.959339 1_555
Mn2 O1 1.959339 1_554
Mn2 O8 1.959482 1_555
Mn2 O10 1.959482 1_554
Mn2 O9 2.307294 1_544
Mn2 O7 2.307294 1_655
Mn3 O6 1.948289 1_555
Mn3 O3 1.948289 1_555
Mn3 O5 1.968096 1_565
Mn3 O11 1.968096 1_455
Mn3 O4 2.175656 1_455
Mn3 O2 2.175656 1_565
Mn4 O11 1.956626 1_555
Mn4 O5 1.956626 1_555
Mn4 O4 2.118721 1_555
Mn4 O2 2.118721 1_555
Mn4 O6 2.118721 1_555
Mn4 O3 2.118721 1_555
O0 Sn0 2.108635 1_655
O1 Sn0 2.108635 1_656
O7 Sn0 2.108635 1_565
O8 Sn0 2.092280 1_555
O9 Sn0 2.108635 1_566
O10 Sn0 2.092280 1_666
