# generated using pymatgen
data_Na2SbAsCO7
_symmetry_space_group_name_H-M   'P 1'
_cell_length_a   7.06393300
_cell_length_b   5.50863400
_cell_length_c   9.51635594
_cell_angle_alpha   85.36726431
_cell_angle_beta   90.00000000
_cell_angle_gamma   90.00000000
_symmetry_Int_Tables_number   1
_chemical_formula_structural   Na2SbAsCO7
_chemical_formula_sum   'Na4 Sb2 As2 C2 O14'
_cell_volume   369.09652675
_cell_formula_units_Z   2
loop_
 _symmetry_equiv_pos_site_id
 _symmetry_equiv_pos_as_xyz
  1  'x, y, z'
loop_
 _atom_site_type_symbol
 _atom_site_label
 _atom_site_symmetry_multiplicity
 _atom_site_fract_x
 _atom_site_fract_y
 _atom_site_fract_z
 _atom_site_occupancy
  Na  Na0  1  0.49168800  0.23500300  0.78291500  1
  Na  Na1  1  0.00831200  0.23500300  0.78291500  1
  Na  Na2  1  0.50831200  0.76499700  0.21708500  1
  Na  Na3  1  0.99168800  0.76499700  0.21708500  1
  Sb  Sb0  1  0.75000000  0.80093500  0.63881500  1
  Sb  Sb1  1  0.25000000  0.19906500  0.36118500  1
  As  As0  1  0.25000000  0.72904500  0.60421900  1
  As  As1  1  0.75000000  0.27095500  0.39578100  1
  C  C0  1  0.75000000  0.71874900  0.92348300  1
  C  C1  1  0.25000000  0.28125100  0.07651700  1
  O  O0  1  0.25000000  0.27575300  0.94602400  1
  O  O1  1  0.75000000  0.93198400  0.83987300  1
  O  O2  1  0.75000000  0.52438400  0.85319100  1
  O  O3  1  0.05614400  0.86315600  0.67708600  1
  O  O4  1  0.44385600  0.86315600  0.67708600  1
  O  O5  1  0.75000000  0.18662100  0.57976100  1
  O  O6  1  0.25000000  0.42273700  0.63178600  1
  O  O7  1  0.75000000  0.57726300  0.36821400  1
  O  O8  1  0.25000000  0.81337900  0.42023900  1
  O  O9  1  0.55614400  0.13684400  0.32291400  1
  O  O10  1  0.94385600  0.13684400  0.32291400  1
  O  O11  1  0.25000000  0.47561600  0.14680900  1
  O  O12  1  0.25000000  0.06801600  0.16012700  1
  O  O13  1  0.75000000  0.72424700  0.05397600  1
loop_
_geom_bond_atom_site_label_1
_geom_bond_atom_site_label_2
_geom_bond_distance
_geom_bond_site_symmetry_2
Na0 O0 2.330402 1_555
Na0 O4 2.378546 1_545
Na0 O6 2.410892 1_555
Na0 O1 2.502692 1_545
Na0 O2 2.547573 1_555
Na0 O5 2.687263 1_555
Na1 O0 2.330402 1_555
Na1 O3 2.378546 1_545
Na1 O6 2.410892 1_555
Na1 O1 2.502692 1_445
Na1 O2 2.547573 1_455
Na1 O5 2.687263 1_455
Na2 O13 2.330402 1_555
Na2 O9 2.378546 1_565
Na2 O7 2.410892 1_555
Na2 O12 2.502692 1_565
Na2 O11 2.547573 1_555
Na2 O8 2.687263 1_555
Na3 O13 2.330402 1_555
Na3 O10 2.378546 1_565
Na3 O7 2.410892 1_555
Na3 O12 2.502692 1_665
Na3 O11 2.547573 1_655
Na3 O8 2.687263 1_655
As0 O6 1.686543 1_555
As0 O4 1.727597 1_555
As0 O3 1.727597 1_555
As0 O8 1.774767 1_555
As1 O7 1.686543 1_555
As1 O10 1.727597 1_555
As1 O9 1.727597 1_555
As1 O5 1.774767 1_555
C0 O13 1.244630 1_556
C0 O2 1.307486 1_555
C0 O1 1.364503 1_555
C1 O0 1.244630 1_554
C1 O11 1.307486 1_555
C1 O12 1.364503 1_555
O1 Sb0 2.098840 1_555
O2 Sb0 2.445544 1_555
O3 Sb0 2.224195 1_455
O4 Sb0 2.224195 1_555
O5 Sb0 2.153343 1_545
O8 Sb1 2.153343 1_565
O9 Sb1 2.224195 1_555
O10 Sb1 2.224195 1_655
O11 Sb1 2.445544 1_555
O12 Sb1 2.098840 1_555
