# generated using pymatgen
data_MnFe3Sn2(PO4)6
_symmetry_space_group_name_H-M   'P 1'
_cell_length_a   8.68988570
_cell_length_b   8.68988570
_cell_length_c   8.68988550
_cell_angle_alpha   60.48216904
_cell_angle_beta   60.48216904
_cell_angle_gamma   60.48216660
_symmetry_Int_Tables_number   1
_chemical_formula_structural   MnFe3Sn2(PO4)6
_chemical_formula_sum   'Mn1 Fe3 Sn2 P6 O24'
_cell_volume   469.06671380
_cell_formula_units_Z   1
loop_
 _symmetry_equiv_pos_site_id
 _symmetry_equiv_pos_as_xyz
  1  'x, y, z'
loop_
 _atom_site_type_symbol
 _atom_site_label
 _atom_site_symmetry_multiplicity
 _atom_site_fract_x
 _atom_site_fract_y
 _atom_site_fract_z
 _atom_site_occupancy
  Mn  Mn0  1  0.15319700  0.15319700  0.15319700  1
  Fe  Fe0  1  0.84868000  0.84868000  0.84868000  1
  Fe  Fe1  1  0.64878700  0.64878700  0.64878700  1
  Fe  Fe2  1  0.35081300  0.35081300  0.35081300  1
  Sn  Sn0  1  0.00109100  0.00109100  0.00109100  1
  Sn  Sn1  1  0.50116000  0.50116000  0.50116000  1
  P  P0  1  0.55221200  0.95315100  0.25021900  1
  P  P1  1  0.25022000  0.55221200  0.95315100  1
  P  P2  1  0.04259700  0.74711800  0.45319800  1
  P  P3  1  0.74711800  0.45319800  0.04259700  1
  P  P4  1  0.45319800  0.04259700  0.74711800  1
  P  P5  1  0.95315100  0.25022000  0.55221200  1
  O  O0  1  0.50176500  0.89289700  0.67341100  1
  O  O1  1  0.89289700  0.67341100  0.50176500  1
  O  O2  1  0.75378900  0.93881600  0.09048600  1
  O  O3  1  0.67341100  0.50176500  0.89289700  1
  O  O4  1  0.40949800  0.97877000  0.18149000  1
  O  O5  1  0.58016900  0.75631800  0.40790200  1
  O  O6  1  0.09048600  0.75378900  0.93881600  1
  O  O7  1  0.40790200  0.58016900  0.75631800  1
  O  O8  1  0.00289400  0.81874100  0.60353700  1
  O  O9  1  0.75631800  0.40790200  0.58016900  1
  O  O10  1  0.05475900  0.90429200  0.25385000  1
  O  O11  1  0.81874100  0.60353700  0.00289400  1
  O  O12  1  0.18149000  0.40949800  0.97877000  1
  O  O13  1  0.93881600  0.09048600  0.75378900  1
  O  O14  1  0.24024000  0.59081300  0.43361500  1
  O  O15  1  0.97877000  0.18149000  0.40949800  1
  O  O16  1  0.59081300  0.43361500  0.24024000  1
  O  O17  1  0.90429200  0.25385000  0.05475900  1
  O  O18  1  0.43361500  0.24024000  0.59081300  1
  O  O19  1  0.60353700  0.00289400  0.81874100  1
  O  O20  1  0.31268800  0.50556900  0.11146300  1
  O  O21  1  0.25385000  0.05475900  0.90429200  1
  O  O22  1  0.11146300  0.31268800  0.50556900  1
  O  O23  1  0.50556900  0.11146300  0.31268800  1
loop_
_geom_bond_atom_site_label_1
_geom_bond_atom_site_label_2
_geom_bond_distance
_geom_bond_site_symmetry_2
Mn0 O4 2.040652 1_545
Mn0 O15 2.040652 1_455
Mn0 O12 2.040652 1_554
Mn0 O21 2.323114 1_554
Mn0 O17 2.323114 1_455
Mn0 O10 2.323114 1_545
Fe0 O19 1.947074 1_565
Fe0 O8 1.947074 1_655
Fe0 O11 1.947074 1_556
Fe0 O2 2.233112 1_556
Fe0 O6 2.233112 1_655
Fe0 O13 2.233112 1_565
Fe1 O0 1.919700 1_555
Fe1 O3 1.919700 1_555
Fe1 O1 1.919700 1_555
Fe1 O5 2.089002 1_555
Fe1 O9 2.089002 1_555
Fe1 O7 2.089002 1_555
Fe2 O23 1.930832 1_555
Fe2 O20 1.930832 1_555
Fe2 O22 1.930832 1_555
Fe2 O18 2.147879 1_555
Fe2 O14 2.147879 1_555
Fe2 O16 2.147879 1_555
O0 P4 1.514700 1_565
O1 P2 1.514700 1_655
O2 P0 1.603144 1_555
O2 Sn0 2.145071 1_665
O3 P3 1.514700 1_556
O4 P0 1.507007 1_555
O5 P0 1.572041 1_555
O5 Sn1 2.285983 1_555
O6 P1 1.603147 1_555
O6 Sn0 2.145071 1_566
O7 P1 1.572037 1_555
O7 Sn1 2.285983 1_555
O8 P2 1.535791 1_555
O9 P5 1.572037 1_555
O9 Sn1 2.285983 1_555
O10 P2 1.583641 1_555
O10 Sn0 2.133466 1_565
O11 P3 1.535791 1_555
O12 P1 1.507013 1_555
O13 P5 1.603147 1_555
O13 Sn0 2.145071 1_656
O14 P2 1.569928 1_555
O14 Sn1 2.283109 1_555
O15 P5 1.507013 1_555
O16 P3 1.569928 1_555
O16 Sn1 2.283109 1_555
O17 P3 1.583641 1_555
O17 Sn0 2.133466 1_655
O18 P4 1.569928 1_555
O18 Sn1 2.283109 1_555
O19 P4 1.535791 1_555
O20 P1 1.523535 1_554
O21 P4 1.583641 1_555
O21 Sn0 2.133466 1_556
O22 P5 1.523535 1_455
O23 P0 1.523541 1_545
