# generated using pymatgen
data_Ti2N2O
_symmetry_space_group_name_H-M   'P 1'
_cell_length_a   8.19294300
_cell_length_b   8.22062821
_cell_length_c   8.23533175
_cell_angle_alpha   109.53958594
_cell_angle_beta   109.40120883
_cell_angle_gamma   109.29562870
_symmetry_Int_Tables_number   1
_chemical_formula_structural   Ti2N2O
_chemical_formula_sum   'Ti16 N16 O8'
_cell_volume   427.90661183
_cell_formula_units_Z   8
loop_
 _symmetry_equiv_pos_site_id
 _symmetry_equiv_pos_as_xyz
  1  'x, y, z'
loop_
 _atom_site_type_symbol
 _atom_site_label
 _atom_site_symmetry_multiplicity
 _atom_site_fract_x
 _atom_site_fract_y
 _atom_site_fract_z
 _atom_site_occupancy
  Ti  Ti0  1  0.51292500  0.49943200  0.50096900  1
  Ti  Ti1  1  0.21407100  0.75989100  0.45572100  1
  Ti  Ti2  1  0.95912200  0.20840800  0.25840200  1
  Ti  Ti3  1  0.46209500  0.71208100  0.24617800  1
  Ti  Ti4  1  0.29120000  0.23876100  0.03553600  1
  Ti  Ti5  1  0.00156100  0.00990500  0.49857000  1
  Ti  Ti6  1  0.75949900  0.96442100  0.70403200  1
  Ti  Ti7  1  0.98758000  0.49937900  0.99179300  1
  Ti  Ti8  1  0.24390700  0.54413900  0.79370700  1
  Ti  Ti9  1  0.50343600  0.00880300  0.01227000  1
  Ti  Ti10  1  0.73484400  0.45113000  0.20111500  1
  Ti  Ti11  1  0.25105400  0.03571100  0.29559300  1
  Ti  Ti12  1  0.71029000  0.75093500  0.96179900  1
  Ti  Ti13  1  0.03886300  0.79702000  0.75528800  1
  Ti  Ti14  1  0.54614300  0.28881900  0.74937100  1
  Ti  Ti15  1  0.79114900  0.25081900  0.54361700  1
  N  N0  1  0.77194700  0.72316900  0.73095000  1
  N  N1  1  0.54981400  0.50991000  0.27715100  1
  N  N2  1  0.50726000  0.77106800  0.04545100  1
  N  N3  1  0.72401500  0.23175300  0.27130800  1
  N  N4  1  0.23572800  0.77165600  0.22604300  1
  N  N5  1  0.04035200  0.05162800  0.77620900  1
  N  N6  1  0.05543100  0.27864700  0.54164200  1
  N  N7  1  0.76521300  0.22372400  0.77745400  1
  N  N8  1  0.77460500  0.55001300  0.00870200  1
  N  N9  1  0.95824400  0.95321500  0.22605000  1
  N  N10  1  0.72469000  0.95748200  0.45022400  1
  N  N11  1  0.99395000  0.54143600  0.77026500  1
  N  N12  1  0.26452900  0.98874000  0.03887000  1
  N  N13  1  0.48737300  0.22289500  0.94910500  1
  N  N14  1  0.27697600  0.03451800  0.55112700  1
  N  N15  1  0.53857900  0.26824000  0.49040200  1
  O  O0  1  0.27214600  0.76127700  0.72162100  1
  O  O1  1  0.22245200  0.27661800  0.26556300  1
  O  O2  1  0.45426400  0.73272000  0.51058300  1
  O  O3  1  0.00818900  0.45820100  0.23553500  1
  O  O4  1  0.22603300  0.44853900  0.98734800  1
  O  O5  1  0.95609600  0.72373300  0.46120900  1
  O  O6  1  0.73500900  0.00901700  0.95907600  1
  O  O7  1  0.44936800  0.49214400  0.72414700  1
loop_
_geom_bond_atom_site_label_1
_geom_bond_atom_site_label_2
_geom_bond_distance
_geom_bond_site_symmetry_2
N0 Ti0 1.973204 1_555
N0 Ti13 1.985185 1_655
N0 Ti12 2.084583 1_555
N0 Ti6 2.098936 1_555
N1 Ti10 1.958578 1_555
N1 Ti0 1.988794 1_555
N1 Ti3 2.072406 1_555
N1 Ti4 2.127930 1_555
N2 Ti3 1.982079 1_555
N2 Ti12 2.033694 1_554
N2 Ti8 2.052955 1_554
N2 Ti9 2.070522 1_565
N3 Ti9 1.951995 1_555
N3 Ti2 2.031038 1_555
N3 Ti10 2.054266 1_555
N3 Ti15 2.060241 1_555
N4 Ti1 1.988092 1_555
N4 Ti11 1.999044 1_565
N4 Ti3 2.038925 1_555
N4 Ti7 2.088877 1_454
N5 Ti6 1.969269 1_445
N5 Ti4 1.987011 1_556
N5 Ti13 2.037437 1_545
N5 Ti5 2.089762 1_555
N6 Ti5 1.982097 1_555
N6 Ti2 1.993014 1_455
N6 Ti8 2.017300 1_555
N6 Ti15 2.106994 1_455
N7 Ti6 1.991165 1_545
N7 Ti14 2.000752 1_555
N7 Ti7 2.007335 1_555
N7 Ti15 2.081029 1_555
N8 Ti7 1.959579 1_554
N8 Ti12 2.005421 1_554
N8 Ti14 2.072604 1_554
N8 Ti10 2.075417 1_555
N9 Ti12 2.009386 1_554
N9 Ti5 2.010448 1_665
N9 Ti2 2.021602 1_565
N9 Ti11 2.072489 1_665
N10 Ti6 1.991723 1_555
N10 Ti3 1.996066 1_555
N10 Ti5 2.031988 1_665
N10 Ti15 2.077584 1_565
N11 Ti7 1.980853 1_555
N11 Ti8 1.983933 1_655
N11 Ti13 2.063401 1_655
N11 Ti15 2.070164 1_555
N12 Ti9 2.000523 1_565
N12 Ti4 2.004445 1_565
N12 Ti13 2.024813 1_554
N12 Ti11 2.065983 1_565
N13 Ti4 1.985783 1_556
N13 Ti10 2.005986 1_556
N13 Ti9 2.026179 1_556
N13 Ti14 2.044789 1_555
N14 Ti1 1.937841 1_545
N14 Ti14 2.043810 1_555
N14 Ti11 2.047435 1_555
N14 Ti5 2.076228 1_555
N15 Ti0 1.956868 1_555
N15 Ti15 2.032213 1_555
N15 Ti11 2.058861 1_555
N15 Ti14 2.060285 1_555
O0 Ti8 2.029622 1_555
O0 Ti1 2.075851 1_555
O0 Ti13 2.117755 1_555
O0 Ti9 2.154289 1_566
O1 Ti2 2.016514 1_455
O1 Ti4 2.105473 1_555
O1 Ti0 2.110850 1_555
O1 Ti11 2.152649 1_555
O2 Ti1 1.973300 1_555
O2 Ti0 2.109017 1_555
O2 Ti6 2.143655 1_555
O2 Ti3 2.151077 1_555
O3 Ti2 2.043809 1_455
O3 Ti7 2.107002 1_454
O3 Ti1 2.116396 1_555
O3 Ti10 2.140162 1_455
O4 Ti8 2.024734 1_555
O4 Ti4 2.083742 1_556
O4 Ti3 2.093000 1_556
O4 Ti7 2.137656 1_455
O5 Ti1 2.053009 1_655
O5 Ti13 2.085915 1_655
O5 Ti10 2.102567 1_555
O5 Ti5 2.151346 1_665
O6 Ti12 2.072093 1_545
O6 Ti9 2.083748 1_556
O6 Ti6 2.097557 1_545
O6 Ti2 2.106129 1_556
O7 Ti8 2.072878 1_555
O7 Ti0 2.083662 1_555
O7 Ti12 2.087072 1_555
O7 Ti14 2.112876 1_555
