# generated using pymatgen
data_Li2VO2F
_symmetry_space_group_name_H-M   'P 1'
_cell_length_a   5.71968390
_cell_length_b   7.10405202
_cell_length_c   5.71967070
_cell_angle_alpha   78.85022667
_cell_angle_beta   89.58998441
_cell_angle_gamma   101.93289630
_symmetry_Int_Tables_number   1
_chemical_formula_structural   Li2VO2F
_chemical_formula_sum   'Li8 V4 O8 F4'
_cell_volume   222.82373887
_cell_formula_units_Z   4
loop_
 _symmetry_equiv_pos_site_id
 _symmetry_equiv_pos_as_xyz
  1  'x, y, z'
loop_
 _atom_site_type_symbol
 _atom_site_label
 _atom_site_symmetry_multiplicity
 _atom_site_fract_x
 _atom_site_fract_y
 _atom_site_fract_z
 _atom_site_occupancy
  Li  Li0  1  0.50702000  0.02389900  0.99474200  1
  Li  Li1  1  0.00667400  0.02391400  0.49504400  1
  Li  Li2  1  0.82665900  0.30942200  0.17162300  1
  Li  Li3  1  0.32631400  0.30943600  0.67192300  1
  Li  Li4  1  0.17228100  0.68984900  0.82757600  1
  Li  Li5  1  0.67251200  0.68993500  0.32752900  1
  Li  Li6  1  0.66105300  0.64348700  0.83908900  1
  Li  Li7  1  0.16082200  0.64340000  0.33913500  1
  V  V0  1  0.00311500  0.00411000  0.00106300  1
  V  V1  1  0.83021900  0.32922200  0.66560700  1
  V  V2  1  0.50241000  0.00378500  0.50059900  1
  V  V3  1  0.33092100  0.32954700  0.16606900  1
  O  O0  1  0.24833500  0.98943000  0.75366400  1
  O  O1  1  0.74837200  0.98955700  0.25361800  1
  O  O2  1  0.58499800  0.34390400  0.91300200  1
  O  O3  1  0.08496100  0.34377600  0.41304900  1
  O  O4  1  0.75642300  0.01847300  0.74716000  1
  O  O5  1  0.25642400  0.01884700  0.24693900  1
  O  O6  1  0.07691000  0.31485900  0.91950800  1
  O  O7  1  0.57691000  0.31448500  0.41972900  1
  F  F0  1  0.92294400  0.69052200  0.07775900  1
  F  F1  1  0.42242900  0.69040200  0.57734300  1
  F  F2  1  0.91038900  0.64281100  0.58890700  1
  F  F3  1  0.41090500  0.64293200  0.08932400  1
loop_
_geom_bond_atom_site_label_1
_geom_bond_atom_site_label_2
_geom_bond_distance
_geom_bond_site_symmetry_2
Li0 O4 2.014112 1_555
Li0 O5 2.016332 1_556
Li0 O0 2.039719 1_545
Li0 O1 2.046077 1_546
Li0 O2 2.179958 1_555
Li1 O4 2.013882 1_455
Li1 O5 2.016848 1_555
Li1 O1 2.039498 1_445
Li1 O0 2.046410 1_545
Li1 O3 2.178979 1_555
Li2 O6 2.013886 1_654
Li2 O7 2.016839 1_555
Li2 O3 2.039495 1_655
Li2 O2 2.046413 1_554
Li2 O1 2.179000 1_545
Li3 O6 2.014122 1_555
Li3 O7 2.016326 1_555
Li3 O2 2.039718 1_555
Li3 O3 2.046071 1_555
Li3 O0 2.179965 1_545
Li4 O0 2.040566 1_555
Li4 O6 2.554192 1_555
Li5 O1 2.040850 1_555
Li5 O7 2.557325 1_555
Li6 O2 2.040579 1_555
Li6 O4 2.554164 1_565
Li7 O3 2.040863 1_555
Li7 O5 2.557305 1_565
O0 V2 2.017152 1_565
O0 V0 2.017326 1_566
O1 V0 2.017468 1_665
O1 V2 2.017557 1_565
O2 V3 2.017165 1_556
O2 V1 2.017319 1_555
O3 V1 2.017474 1_455
O3 V3 2.017547 1_555
O4 V2 2.033242 1_555
O4 V0 2.035164 1_656
O4 V1 2.117249 1_555
O5 V0 2.027624 1_555
O5 V2 2.031599 1_555
O5 V3 2.116784 1_555
O6 V3 2.033234 1_556
O6 V1 2.035152 1_455
O6 V0 2.117249 1_556
O7 V1 2.027632 1_555
O7 V3 2.031611 1_555
O7 V2 2.116783 1_555
F0 Li4 2.014394 1_654
F0 Li5 2.014598 1_555
F0 Li6 2.053701 1_554
F0 Li7 2.054787 1_655
F0 V0 2.135951 1_665
F1 Li4 2.015386 1_555
F1 Li5 2.015493 1_555
F1 Li7 2.050677 1_555
F1 Li6 2.059029 1_555
F1 V2 2.134558 1_565
F2 Li6 2.014392 1_555
F2 Li7 2.014606 1_655
F2 Li4 2.053704 1_655
F2 Li5 2.054793 1_555
F2 V1 2.135958 1_555
F3 Li6 2.015390 1_554
F3 Li7 2.015483 1_555
F3 Li5 2.050666 1_555
F3 Li4 2.059039 1_554
F3 V3 2.134571 1_555
