# generated using pymatgen
data_K7P6H2NO22
_symmetry_space_group_name_H-M   'P 1'
_cell_length_a   6.61529000
_cell_length_b   9.85941879
_cell_length_c   9.89909775
_cell_angle_alpha   75.86469342
_cell_angle_beta   72.86518820
_cell_angle_gamma   73.62889729
_symmetry_Int_Tables_number   1
_chemical_formula_structural   K7P6H2NO22
_chemical_formula_sum   'K7 P6 H2 N1 O22'
_cell_volume   582.75745826
_cell_formula_units_Z   1
loop_
 _symmetry_equiv_pos_site_id
 _symmetry_equiv_pos_as_xyz
  1  'x, y, z'
loop_
 _atom_site_type_symbol
 _atom_site_label
 _atom_site_symmetry_multiplicity
 _atom_site_fract_x
 _atom_site_fract_y
 _atom_site_fract_z
 _atom_site_occupancy
  K  K0  1  0.71821100  0.54975200  0.16265300  1
  K  K1  1  0.50084500  0.99928500  0.99995300  1
  K  K2  1  0.75529700  0.15146200  0.55450900  1
  K  K3  1  0.32485800  0.28396200  0.27391800  1
  K  K4  1  0.28612500  0.44745500  0.83789200  1
  K  K5  1  0.24985200  0.84450800  0.44591900  1
  K  K6  1  0.66924700  0.72145300  0.73419400  1
  P  P0  1  0.18018000  0.69906600  0.08869100  1
  P  P1  1  0.07324300  0.85763600  0.81750200  1
  P  P2  1  0.18516000  0.13872800  0.70260900  1
  P  P3  1  0.82366300  0.29799700  0.91159500  1
  P  P4  1  0.93091000  0.13791800  0.18365000  1
  P  P5  1  0.81872500  0.85795900  0.29846700  1
  H  H0  1  0.45587500  0.47652100  0.46997700  1
  H  H1  1  0.23218400  0.54147500  0.43294100  1
  N  N0  1  0.82434100  0.49024800  0.52681500  1
  O  O0  1  0.39939600  0.73415600  0.03016700  1
  O  O1  1  0.01284400  0.79755600  0.98880500  1
  O  O2  1  0.16061600  0.54629200  0.11061900  1
  O  O3  1  0.06393600  0.76393500  0.23762300  1
  O  O4  1  0.23894900  0.74429200  0.73997700  1
  O  O5  1  0.86059300  0.91989700  0.77504500  1
  O  O6  1  0.19070900  0.98459800  0.81360700  1
  O  O7  1  0.19364500  0.11680900  0.55584300  1
  O  O8  1  0.35282400  0.20025900  0.72641100  1
  O  O9  1  0.94111600  0.23228800  0.76299200  1
  O  O10  1  0.60408600  0.26215100  0.96738100  1
  O  O11  1  0.84256200  0.45061700  0.88893700  1
  O  O12  1  0.98934800  0.19968800  0.01198700  1
  O  O13  1  0.76421200  0.24911700  0.26199900  1
  O  O14  1  0.14595400  0.07559400  0.22330200  1
  O  O15  1  0.81523100  0.01062000  0.18627600  1
  O  O16  1  0.65154600  0.79590600  0.27589000  1
  O  O17  1  0.80987000  0.88148200  0.44506900  1
  O  O18  1  0.38770800  0.50976700  0.38920500  1
  O  O19  1  0.62785200  0.50518800  0.60110000  1
  O  O20  1  0.95134600  0.55032000  0.55333200  1
  O  O21  1  0.88904000  0.41667100  0.42813700  1
loop_
_geom_bond_atom_site_label_1
_geom_bond_atom_site_label_2
_geom_bond_distance
_geom_bond_site_symmetry_2
K0 O18 2.670206 1_555
K0 O16 2.788392 1_555
K0 O0 2.788785 1_555
K0 O2 2.809932 1_655
K0 O13 2.844235 1_555
K0 O11 2.915570 1_554
K0 O21 3.022460 1_555
K1 O14 2.779261 1_566
K1 O10 2.783387 1_565
K1 O0 2.803877 1_556
K1 O5 2.812845 1_555
K1 O8 3.172597 1_565
K1 O6 3.187620 1_555
K1 O15 3.198718 1_566
K1 O16 3.205995 1_556
K2 O8 2.687762 1_555
K2 O13 2.807954 1_555
K2 O7 2.826235 1_655
K2 O5 2.833516 1_545
K2 O21 2.870403 1_555
K2 O17 3.004286 1_545
K2 O9 3.042314 1_555
K3 O13 2.798978 1_555
K3 O2 2.809248 1_555
K3 O14 2.845175 1_555
K3 O7 2.896653 1_555
K3 O18 2.911026 1_555
K3 O21 2.934331 1_455
K3 O10 3.075408 1_554
K4 O10 2.771976 1_555
K4 O8 2.788023 1_555
K4 O4 2.807126 1_555
K4 O19 2.807171 1_555
K4 O11 2.819373 1_455
K4 O2 2.904425 1_556
K5 O16 2.676674 1_555
K5 O4 2.822505 1_555
K5 O17 2.831857 1_455
K5 O14 2.842029 1_565
K5 O7 3.025861 1_565
K5 O3 3.039805 1_555
K6 O20 2.695668 1_555
K6 O5 2.770925 1_555
K6 O4 2.775924 1_555
K6 O11 2.846504 1_555
K6 O19 2.875961 1_555
K6 O17 2.932446 1_555
K6 O0 2.959367 1_556
H0 O18 0.975310 1_555
H1 O18 0.982858 1_555
N0 O21 1.260294 1_555
N0 O20 1.269640 1_555
N0 O19 1.278186 1_555
O0 P0 1.499407 1_555
O1 P1 1.621619 1_555
O1 P0 1.648049 1_556
O2 P0 1.505436 1_555
O3 P0 1.639877 1_555
O3 P5 1.644019 1_455
O4 P1 1.507325 1_555
O5 P1 1.505975 1_655
O6 P1 1.636877 1_555
O6 P2 1.641562 1_565
O7 P2 1.503028 1_555
O8 P2 1.502289 1_555
O9 P2 1.635772 1_655
O9 P3 1.641827 1_555
O10 P3 1.503734 1_555
O11 P3 1.501624 1_555
O12 P4 1.627315 1_555
O12 P3 1.643447 1_554
O13 P4 1.499804 1_555
O14 P4 1.507925 1_455
O15 P4 1.635630 1_555
O15 P5 1.636606 1_545
O16 P5 1.497064 1_555
O17 P5 1.506626 1_555
