# generated using pymatgen
data_ZrU9O20
_symmetry_space_group_name_H-M   'P 1'
_cell_length_a   6.60598200
_cell_length_b   7.63099197
_cell_length_c   8.52948593
_cell_angle_alpha   102.92273861
_cell_angle_beta   97.43138934
_cell_angle_gamma   106.78101042
_symmetry_Int_Tables_number   1
_chemical_formula_structural   ZrU9O20
_chemical_formula_sum   'Zr1 U9 O20'
_cell_volume   392.47845497
_cell_formula_units_Z   1
loop_
 _symmetry_equiv_pos_site_id
 _symmetry_equiv_pos_as_xyz
  1  'x, y, z'
loop_
 _atom_site_type_symbol
 _atom_site_label
 _atom_site_symmetry_multiplicity
 _atom_site_fract_x
 _atom_site_fract_y
 _atom_site_fract_z
 _atom_site_occupancy
  Zr  Zr0  1  0.00000000  0.00000000  0.00000000  1
  U  U0  1  0.00000000  0.50000000  0.00000000  1
  U  U1  1  0.40057500  0.80131800  0.80123800  1
  U  U2  1  0.39799300  0.29851900  0.80082900  1
  U  U3  1  0.80099400  0.10016100  0.60202300  1
  U  U4  1  0.80103000  0.60139000  0.60177800  1
  U  U5  1  0.19897000  0.39861000  0.39822200  1
  U  U6  1  0.19900600  0.89983900  0.39797700  1
  U  U7  1  0.60200700  0.70148100  0.19917100  1
  U  U8  1  0.59942500  0.19868200  0.19876200  1
  O  O0  1  0.34123800  0.07243800  0.95154000  1
  O  O1  1  0.34907600  0.57541300  0.94947800  1
  O  O2  1  0.04935300  0.21933600  0.85422300  1
  O  O3  1  0.04978800  0.73236900  0.85429500  1
  O  O4  1  0.44967000  0.52550000  0.65033300  1
  O  O5  1  0.45089400  0.02482200  0.65087500  1
  O  O6  1  0.75222800  0.37558200  0.75117900  1
  O  O7  1  0.75661400  0.87854400  0.75743000  1
  O  O8  1  0.14996400  0.67501600  0.54974900  1
  O  O9  1  0.15070700  0.17494600  0.54980100  1
  O  O10  1  0.85003600  0.32498400  0.45025100  1
  O  O11  1  0.55033000  0.47450000  0.34966700  1
  O  O12  1  0.54910600  0.97517800  0.34912500  1
  O  O13  1  0.84929300  0.82505400  0.45019900  1
  O  O14  1  0.24338600  0.12145600  0.24257000  1
  O  O15  1  0.24777200  0.62441800  0.24882100  1
  O  O16  1  0.65092400  0.42458700  0.05052200  1
  O  O17  1  0.65876200  0.92756200  0.04846000  1
  O  O18  1  0.95021200  0.26763100  0.14570500  1
  O  O19  1  0.95064700  0.78066400  0.14577700  1
loop_
_geom_bond_atom_site_label_1
_geom_bond_atom_site_label_2
_geom_bond_distance
_geom_bond_site_symmetry_2
O0 Zr0 2.276309 1_556
O0 U1 2.342972 1_545
O0 U8 2.344328 1_556
O0 U2 2.347883 1_555
O1 U1 2.331047 1_555
O1 U0 2.331557 1_556
O1 U2 2.340651 1_555
O1 U7 2.342653 1_556
O2 Zr0 2.274730 1_556
O2 U2 2.338305 1_555
O2 U3 2.344502 1_455
O2 U0 2.357193 1_556
O3 Zr0 2.276401 1_566
O3 U4 2.347677 1_455
O3 U1 2.350580 1_555
O3 U0 2.356183 1_556
O4 U4 2.339672 1_555
O4 U1 2.341448 1_555
O4 U5 2.350732 1_555
O4 U2 2.351773 1_555
O5 U1 2.329283 1_545
O5 U3 2.332733 1_555
O5 U2 2.337190 1_555
O5 U6 2.359325 1_545
O6 U0 2.321102 1_656
O6 U3 2.332519 1_555
O6 U4 2.337659 1_555
O6 U2 2.360979 1_555
O7 Zr0 2.268510 1_666
O7 U3 2.349450 1_565
O7 U4 2.350521 1_555
O7 U1 2.354620 1_555
O8 U4 2.335421 1_455
O8 U6 2.346286 1_555
O8 U1 2.346562 1_555
O8 U5 2.346780 1_555
O9 U2 2.333432 1_555
O9 U6 2.337455 1_545
O9 U5 2.337886 1_555
O9 U3 2.340876 1_455
O10 U5 2.335421 1_655
O10 U3 2.346286 1_555
O10 U8 2.346562 1_555
O10 U4 2.346780 1_555
O11 U5 2.339672 1_555
O11 U8 2.341448 1_555
O11 U4 2.350732 1_555
O11 U7 2.351773 1_555
O12 U8 2.329283 1_565
O12 U6 2.332733 1_555
O12 U7 2.337190 1_555
O12 U3 2.359325 1_565
O13 U7 2.333432 1_555
O13 U3 2.337455 1_565
O13 U4 2.337886 1_555
O13 U6 2.340876 1_655
O14 Zr0 2.268510 1_555
O14 U6 2.349450 1_545
O14 U5 2.350521 1_555
O14 U8 2.354620 1_555
O15 U0 2.321102 1_555
O15 U6 2.332519 1_555
O15 U5 2.337659 1_555
O15 U7 2.360979 1_555
O16 U8 2.331047 1_555
O16 U0 2.331557 1_655
O16 U7 2.340651 1_555
O16 U2 2.342653 1_554
O17 Zr0 2.276309 1_665
O17 U8 2.342972 1_565
O17 U1 2.344328 1_554
O17 U7 2.347883 1_555
O18 Zr0 2.276401 1_655
O18 U5 2.347677 1_655
O18 U8 2.350580 1_555
O18 U0 2.356183 1_655
O19 Zr0 2.274730 1_665
O19 U7 2.338305 1_555
O19 U6 2.344502 1_655
O19 U0 2.357193 1_655
