# generated using pymatgen
data_Mn3F8
_symmetry_space_group_name_H-M   'P 1'
_cell_length_a   6.47675065
_cell_length_b   6.47675065
_cell_length_c   9.28370515
_cell_angle_alpha   89.65661446
_cell_angle_beta   89.65661446
_cell_angle_gamma   120.35467908
_symmetry_Int_Tables_number   1
_chemical_formula_structural   Mn3F8
_chemical_formula_sum   'Mn6 F16'
_cell_volume   336.02493467
_cell_formula_units_Z   2
loop_
 _symmetry_equiv_pos_site_id
 _symmetry_equiv_pos_as_xyz
  1  'x, y, z'
loop_
 _atom_site_type_symbol
 _atom_site_label
 _atom_site_symmetry_multiplicity
 _atom_site_fract_x
 _atom_site_fract_y
 _atom_site_fract_z
 _atom_site_occupancy
  Mn  Mn0  1  0.83324000  0.16663000  0.24799100  1
  Mn  Mn1  1  0.33383600  0.16705900  0.24836100  1
  Mn  Mn2  1  0.16705900  0.33383600  0.74836100  1
  Mn  Mn3  1  0.83342800  0.66610300  0.24724500  1
  Mn  Mn4  1  0.66610300  0.83342800  0.74724500  1
  Mn  Mn5  1  0.16663000  0.83324000  0.74799100  1
  F  F0  1  0.00262000  0.01491900  0.62926500  1
  F  F1  1  0.01491900  0.00262000  0.12926500  1
  F  F2  1  0.87930800  0.17314800  0.84958900  1
  F  F3  1  0.53466200  0.04807300  0.14886600  1
  F  F4  1  0.28640000  0.13244100  0.84632100  1
  F  F5  1  0.96075200  0.45779100  0.14818400  1
  F  F6  1  0.65154000  0.33092000  0.36766100  1
  F  F7  1  0.49352300  0.45331800  0.14576800  1
  F  F8  1  0.87483900  0.70569900  0.84818200  1
  F  F9  1  0.13244100  0.28640000  0.34632100  1
  F  F10  1  0.45331800  0.49352300  0.64576800  1
  F  F11  1  0.33092000  0.65154000  0.86766100  1
  F  F12  1  0.04807300  0.53466200  0.64886600  1
  F  F13  1  0.70569900  0.87483900  0.34818200  1
  F  F14  1  0.45779100  0.96075200  0.64818400  1
  F  F15  1  0.17314800  0.87930800  0.34958900  1
loop_
_geom_bond_atom_site_label_1
_geom_bond_atom_site_label_2
_geom_bond_distance
_geom_bond_site_symmetry_2
F0 Mn2 2.107442 1_555
F0 Mn4 2.167563 1_445
F0 Mn5 2.233756 1_545
F1 Mn1 2.107442 1_555
F1 Mn3 2.167563 1_445
F1 Mn0 2.233756 1_455
F2 Mn2 1.856491 1_655
F2 Mn4 2.149595 1_545
F3 Mn0 1.924867 1_555
F3 Mn1 2.036206 1_555
F4 Mn5 1.923722 1_545
F4 Mn2 2.034487 1_555
F5 Mn0 1.868843 1_555
F5 Mn3 2.115749 1_555
F6 Mn1 2.102691 1_555
F6 Mn3 2.172703 1_555
F6 Mn0 2.239543 1_555
F7 Mn1 1.855591 1_555
F7 Mn3 2.146465 1_555
F8 Mn5 1.873762 1_655
F8 Mn4 2.127549 1_555
F9 Mn0 1.923722 1_455
F9 Mn1 2.034487 1_555
F10 Mn2 1.855591 1_555
F10 Mn4 2.146465 1_555
F11 Mn2 2.102691 1_555
F11 Mn4 2.172703 1_555
F11 Mn5 2.239543 1_555
F12 Mn5 1.924867 1_555
F12 Mn2 2.036206 1_555
F13 Mn0 1.873762 1_565
F13 Mn3 2.127549 1_555
F14 Mn5 1.868843 1_555
F14 Mn4 2.115749 1_555
F15 Mn1 1.856491 1_565
F15 Mn3 2.149595 1_455
