# generated using pymatgen
data_Na3Li3Fe2P2(CO7)2
_symmetry_space_group_name_H-M   'P 1'
_cell_length_a   8.31181755
_cell_length_b   10.06546607
_cell_length_c   8.38521373
_cell_angle_alpha   108.74171660
_cell_angle_beta   103.08491664
_cell_angle_gamma   106.88875076
_symmetry_Int_Tables_number   1
_chemical_formula_structural   Na3Li3Fe2P2(CO7)2
_chemical_formula_sum   'Na6 Li6 Fe4 P4 C4 O28'
_cell_volume   594.78795317
_cell_formula_units_Z   2
loop_
 _symmetry_equiv_pos_site_id
 _symmetry_equiv_pos_as_xyz
  1  'x, y, z'
loop_
 _atom_site_type_symbol
 _atom_site_label
 _atom_site_symmetry_multiplicity
 _atom_site_fract_x
 _atom_site_fract_y
 _atom_site_fract_z
 _atom_site_occupancy
  Na  Na0  1  0.28707100  0.08404600  0.55759700  1
  Na  Na1  1  0.78730500  0.08402900  0.05742400  1
  Na  Na2  1  0.25534900  0.25547300  0.25350700  1
  Na  Na3  1  0.75511300  0.25546400  0.75350200  1
  Na  Na4  1  0.20634800  0.91413000  0.94901200  1
  Na  Na5  1  0.70619300  0.91410000  0.44915300  1
  Li  Li0  1  0.02157900  0.28582200  0.48812000  1
  Li  Li1  1  0.52138100  0.28535200  0.98862800  1
  Li  Li2  1  0.48725500  0.72162200  0.01274400  1
  Li  Li3  1  0.98698500  0.72149300  0.51281000  1
  Li  Li4  1  0.25580800  0.72391000  0.23557200  1
  Li  Li5  1  0.75581000  0.72402100  0.73584900  1
  Fe  Fe0  1  0.69492300  0.34990700  0.44023500  1
  Fe  Fe1  1  0.80966000  0.65445300  0.05845200  1
  Fe  Fe2  1  0.19507400  0.35004300  0.94018100  1
  Fe  Fe3  1  0.30962500  0.65461300  0.55816500  1
  P  P0  1  0.43570300  0.42407100  0.68825600  1
  P  P1  1  0.93579500  0.42403400  0.18836100  1
  P  P2  1  0.06381300  0.58195600  0.80733100  1
  P  P3  1  0.56373100  0.58189000  0.30732800  1
  C  C0  1  0.01051500  0.04341800  0.76179500  1
  C  C1  1  0.51077000  0.04357800  0.26154700  1
  C  C2  1  0.48663700  0.95199600  0.74617400  1
  C  C3  1  0.98661200  0.95201500  0.24608300  1
  O  O0  1  0.05977800  0.09950000  0.33719500  1
  O  O1  1  0.55989100  0.09944600  0.83736700  1
  O  O2  1  0.15341300  0.11220400  0.90700600  1
  O  O3  1  0.65338000  0.11219300  0.40699600  1
  O  O4  1  0.94921800  0.12631500  0.69543300  1
  O  O5  1  0.44988100  0.12661300  0.19502000  1
  O  O6  1  0.52514300  0.32947400  0.58182000  1
  O  O7  1  0.02550100  0.32968900  0.08208200  1
  O  O8  1  0.35649600  0.32987700  0.78862100  1
  O  O9  1  0.85670400  0.32994600  0.28894300  1
  O  O10  1  0.28078700  0.43331800  0.55264200  1
  O  O11  1  0.78076500  0.43312300  0.05275500  1
  O  O12  1  0.93853000  0.41742100  0.66835400  1
  O  O13  1  0.43838500  0.41738300  0.16823300  1
  O  O14  1  0.57151600  0.58757900  0.82188100  1
  O  O15  1  0.07128500  0.58764100  0.32180400  1
  O  O16  1  0.21079900  0.57687400  0.95718400  1
  O  O17  1  0.71063500  0.57683700  0.45733600  1
  O  O18  1  0.15264300  0.67885900  0.71478500  1
  O  O19  1  0.65285500  0.67883300  0.21501100  1
  O  O20  1  0.95658600  0.66919500  0.89331000  1
  O  O21  1  0.45657600  0.66933500  0.39311400  1
  O  O22  1  0.55274500  0.86384100  0.79714100  1
  O  O23  1  0.05291000  0.86403100  0.29724700  1
  O  O24  1  0.34467600  0.88975400  0.60115200  1
  O  O25  1  0.84462600  0.88964600  0.10106300  1
  O  O26  1  0.43264300  0.89488500  0.18410800  1
  O  O27  1  0.93257100  0.89475000  0.68456600  1
loop_
_geom_bond_atom_site_label_1
_geom_bond_atom_site_label_2
_geom_bond_distance
_geom_bond_site_symmetry_2
Na0 O24 2.260754 1_545
Na0 O0 2.404880 1_555
Na0 O8 2.406725 1_555
Na0 O23 2.433779 1_545
Na0 O6 2.591306 1_555
Na0 O1 2.796954 1_555
Na1 O25 2.260921 1_545
Na1 O1 2.403546 1_554
Na1 O9 2.409129 1_555
Na1 O22 2.435323 1_544
Na1 O7 2.591979 1_655
Na1 O0 2.794895 1_655
Na2 O13 2.298381 1_555
Na2 O0 2.311111 1_555
Na2 O5 2.388735 1_555
Na2 O10 2.489045 1_555
Na2 O7 2.559277 1_555
Na2 O2 2.592731 1_554
Na2 O6 2.842338 1_555
Na3 O12 2.299613 1_555
Na3 O1 2.310716 1_555
Na3 O4 2.386930 1_555
Na3 O11 2.488476 1_556
Na3 O6 2.559611 1_555
Na3 O3 2.592919 1_555
Na3 O7 2.845729 1_656
Na4 O2 2.276685 1_565
Na4 O18 2.380064 1_555
Na4 O5 2.384473 1_566
Na4 O26 2.497943 1_556
Na4 O20 2.540314 1_455
Na4 O27 2.704205 1_455
Na5 O3 2.276952 1_565
Na5 O19 2.380588 1_555
Na5 O4 2.382695 1_565
Na5 O27 2.500647 1_555
Na5 O21 2.537683 1_555
Na5 O26 2.706782 1_555
Li0 O0 2.054831 1_555
Li0 O12 2.057261 1_455
Li0 O10 2.058204 1_555
Li0 O9 2.158381 1_455
Li1 O1 2.054112 1_555
Li1 O13 2.055986 1_556
Li1 O11 2.060950 1_556
Li1 O8 2.165854 1_555
Li2 O26 2.111207 1_555
Li2 O14 2.131010 1_554
Li2 O19 2.171054 1_555
Li2 O16 2.180316 1_554
Li3 O27 2.111692 1_555
Li3 O15 2.131042 1_655
Li3 O18 2.168598 1_655
Li3 O17 2.179502 1_555
Li4 O26 2.145453 1_555
Li4 O15 2.161856 1_555
Li4 O21 2.198262 1_555
Li4 O16 2.200519 1_554
Li4 O23 2.531590 1_555
Li5 O27 2.142562 1_555
Li5 O14 2.160476 1_555
Li5 O20 2.199640 1_555
Li5 O17 2.201419 1_555
Li5 O22 2.530164 1_555
Fe0 O6 2.046971 1_555
Fe0 O9 2.055129 1_555
Fe0 O12 2.198200 1_555
Fe0 O17 2.205155 1_555
Fe0 O3 2.229299 1_555
Fe0 O5 2.429398 1_555
Fe1 O20 2.055090 1_554
Fe1 O19 2.058113 1_555
Fe1 O11 2.153729 1_555
Fe1 O25 2.196826 1_555
Fe1 O14 2.212716 1_554
Fe1 O23 2.349828 1_655
Fe2 O7 2.047578 1_556
Fe2 O8 2.054511 1_555
Fe2 O13 2.196741 1_556
Fe2 O16 2.204364 1_555
Fe2 O2 2.230498 1_555
Fe2 O4 2.432354 1_455
Fe3 O21 2.054583 1_555
Fe3 O18 2.059556 1_555
Fe3 O10 2.153960 1_555
Fe3 O24 2.195484 1_555
Fe3 O15 2.212410 1_555
Fe3 O22 2.348635 1_555
C0 O4 1.297091 1_455
C0 O2 1.303198 1_555
C0 O27 1.304748 1_445
C1 O5 1.297461 1_555
C1 O3 1.303068 1_555
C1 O26 1.305066 1_545
C2 O22 1.300982 1_555
C2 O1 1.301156 1_565
C2 O24 1.301831 1_555
C3 O23 1.301025 1_655
C3 O0 1.301363 1_665
C3 O25 1.301833 1_555
O6 P0 1.556092 1_555
O7 P1 1.555755 1_455
O8 P0 1.562542 1_555
O9 P1 1.562996 1_555
O10 P0 1.560268 1_555
O11 P1 1.560025 1_555
O12 P2 1.547079 1_655
O13 P3 1.547256 1_555
O14 P0 1.549581 1_555
O15 P1 1.549181 1_455
O16 P2 1.567370 1_555
O17 P3 1.567632 1_555
O18 P2 1.557593 1_555
O19 P3 1.557297 1_555
O20 P2 1.556922 1_655
O21 P3 1.556962 1_555
