# generated using pymatgen
data_Rb2Sn2O3
_symmetry_space_group_name_H-M   'P 1'
_cell_length_a   6.14725272
_cell_length_b   6.14725395
_cell_length_c   6.14725264
_cell_angle_alpha   59.66469858
_cell_angle_beta   59.66469137
_cell_angle_gamma   59.66469280
_symmetry_Int_Tables_number   1
_chemical_formula_structural   Rb2Sn2O3
_chemical_formula_sum   'Rb2 Sn2 O3'
_cell_volume   163.00732697
_cell_formula_units_Z   1
loop_
 _symmetry_equiv_pos_site_id
 _symmetry_equiv_pos_as_xyz
  1  'x, y, z'
loop_
 _atom_site_type_symbol
 _atom_site_label
 _atom_site_symmetry_multiplicity
 _atom_site_fract_x
 _atom_site_fract_y
 _atom_site_fract_z
 _atom_site_occupancy
  Rb  Rb0  1  0.50000000  0.50000000  0.50000000  1
  Rb  Rb1  1  0.00000000  0.00000000  0.00000000  1
  Sn  Sn0  1  0.23622767  0.23622767  0.23622767  1
  Sn  Sn1  1  0.76377233  0.76377233  0.76377233  1
  O  O0  1  0.00000000  0.50000000  0.00000000  1
  O  O1  1  0.00000000  0.00000000  0.50000000  1
  O  O2  1  0.50000000  0.00000000  0.00000000  1
loop_
_geom_bond_atom_site_label_1
_geom_bond_atom_site_label_2
_geom_bond_distance
_geom_bond_site_symmetry_2
O0 Sn0 2.054225 1_555
O0 Sn1 2.054225 1_454
O0 Rb0 3.058035 1_455
O0 Rb0 3.058035 1_554
O0 Rb1 3.073627 1_555
O0 Rb1 3.073627 1_565
O1 Sn0 2.054226 1_555
O1 Sn1 2.054226 1_445
O1 Rb0 3.058036 1_455
O1 Rb0 3.058036 1_545
O1 Rb1 3.073626 1_556
O1 Rb1 3.073626 1_555
O2 Sn1 2.054225 1_544
O2 Sn0 2.054225 1_555
O2 Rb0 3.058036 1_545
O2 Rb0 3.058036 1_554
O2 Rb1 3.073626 1_655
O2 Rb1 3.073626 1_555
