# generated using pymatgen
data_Ba2SrI6
_symmetry_space_group_name_H-M   'P 1'
_cell_length_a   7.79405300
_cell_length_b   8.67870100
_cell_length_c   28.69451000
_cell_angle_alpha   90.00000000
_cell_angle_beta   90.00000000
_cell_angle_gamma   90.00000000
_symmetry_Int_Tables_number   1
_chemical_formula_structural   Ba2SrI6
_chemical_formula_sum   'Ba8 Sr4 I24'
_cell_volume   1940.96137874
_cell_formula_units_Z   4
loop_
 _symmetry_equiv_pos_site_id
 _symmetry_equiv_pos_as_xyz
  1  'x, y, z'
loop_
 _atom_site_type_symbol
 _atom_site_label
 _atom_site_symmetry_multiplicity
 _atom_site_fract_x
 _atom_site_fract_y
 _atom_site_fract_z
 _atom_site_occupancy
  Ba  Ba0  1  0.00000000  0.25000000  0.04951300  1
  Ba  Ba1  1  0.00000000  0.75000000  0.28385400  1
  Ba  Ba2  1  0.00000000  0.25000000  0.71614600  1
  Ba  Ba3  1  0.00000000  0.75000000  0.95048700  1
  Ba  Ba4  1  0.50000000  0.25000000  0.21614600  1
  Ba  Ba5  1  0.50000000  0.25000000  0.54951300  1
  Ba  Ba6  1  0.50000000  0.75000000  0.78385400  1
  Ba  Ba7  1  0.50000000  0.75000000  0.45048700  1
  Sr  Sr0  1  0.00000000  0.25000000  0.38344200  1
  Sr  Sr1  1  0.00000000  0.75000000  0.61655800  1
  Sr  Sr2  1  0.50000000  0.25000000  0.88344200  1
  Sr  Sr3  1  0.50000000  0.75000000  0.11655800  1
  I  I0  1  0.24391900  0.58378900  0.03894900  1
  I  I1  1  0.24391900  0.08378900  0.96105100  1
  I  I2  1  0.26430300  0.58506600  0.19966100  1
  I  I3  1  0.26430300  0.08506600  0.80033900  1
  I  I4  1  0.23240100  0.56533000  0.37155400  1
  I  I5  1  0.23240100  0.06533000  0.62844600  1
  I  I6  1  0.26759900  0.56533000  0.87155400  1
  I  I7  1  0.26759900  0.06533000  0.12844600  1
  I  I8  1  0.23569700  0.08506600  0.30033900  1
  I  I9  1  0.23569700  0.58506600  0.69966100  1
  I  I10  1  0.25608100  0.08378900  0.46105100  1
  I  I11  1  0.25608100  0.58378900  0.53894900  1
  I  I12  1  0.74391900  0.41621100  0.46105100  1
  I  I13  1  0.74391900  0.91621100  0.53894900  1
  I  I14  1  0.76430300  0.41493400  0.30033900  1
  I  I15  1  0.76430300  0.91493400  0.69966100  1
  I  I16  1  0.73240100  0.43467000  0.12844600  1
  I  I17  1  0.73240100  0.93467000  0.87155400  1
  I  I18  1  0.76759900  0.43467000  0.62844600  1
  I  I19  1  0.76759900  0.93467000  0.37155400  1
  I  I20  1  0.73569700  0.91493400  0.19966100  1
  I  I21  1  0.73569700  0.41493400  0.80033900  1
  I  I22  1  0.75608100  0.91621100  0.03894900  1
  I  I23  1  0.75608100  0.41621100  0.96105100  1
loop_
_geom_bond_atom_site_label_1
_geom_bond_atom_site_label_2
_geom_bond_distance
_geom_bond_site_symmetry_2
Ba0 I16 3.471119 1_455
Ba0 I7 3.471119 1_555
Ba0 I0 3.478204 1_555
Ba0 I22 3.478204 1_445
Ba0 I1 3.484018 1_554
Ba0 I23 3.484018 1_454
Ba1 I14 3.471967 1_455
Ba1 I8 3.471967 1_565
Ba1 I20 3.482667 1_455
Ba1 I2 3.482667 1_555
Ba1 I4 3.490333 1_555
Ba1 I19 3.490333 1_455
Ba2 I9 3.471967 1_555
Ba2 I15 3.471967 1_445
Ba2 I21 3.482667 1_455
Ba2 I3 3.482667 1_555
Ba2 I18 3.490333 1_455
Ba2 I5 3.490333 1_555
Ba3 I6 3.471119 1_555
Ba3 I17 3.471119 1_455
Ba3 I1 3.478204 1_565
Ba3 I23 3.478204 1_455
Ba3 I22 3.484018 1_456
Ba3 I0 3.484018 1_556
Ba4 I2 3.471967 1_555
Ba4 I20 3.471967 1_545
Ba4 I14 3.482667 1_555
Ba4 I8 3.482667 1_555
Ba4 I7 3.490333 1_555
Ba4 I16 3.490333 1_555
Ba5 I18 3.471119 1_555
Ba5 I5 3.471119 1_555
Ba5 I13 3.478204 1_545
Ba5 I11 3.478204 1_555
Ba5 I10 3.484018 1_555
Ba5 I12 3.484018 1_555
Ba6 I21 3.471967 1_555
Ba6 I3 3.471967 1_565
Ba6 I9 3.482667 1_555
Ba6 I15 3.482667 1_555
Ba6 I6 3.490333 1_555
Ba6 I17 3.490333 1_555
Ba7 I19 3.471119 1_555
Ba7 I4 3.471119 1_555
Ba7 I10 3.478204 1_565
Ba7 I12 3.478204 1_555
Ba7 I11 3.484018 1_555
Ba7 I13 3.484018 1_555
I0 Sr3 3.320205 1_555
I1 Sr2 3.320205 1_555
I2 Sr3 3.333160 1_555
I3 Sr2 3.333160 1_555
I4 Sr0 3.299487 1_555
I5 Sr1 3.299487 1_545
I6 Sr2 3.299487 1_555
I7 Sr3 3.299487 1_545
I8 Sr0 3.333160 1_555
I9 Sr1 3.333160 1_555
I10 Sr0 3.320205 1_555
I11 Sr1 3.320205 1_555
I12 Sr0 3.320205 1_655
I13 Sr1 3.320205 1_655
I14 Sr0 3.333160 1_655
I15 Sr1 3.333160 1_655
I16 Sr3 3.299487 1_555
I17 Sr2 3.299487 1_565
I18 Sr1 3.299487 1_655
I19 Sr0 3.299487 1_665
I20 Sr3 3.333160 1_555
I21 Sr2 3.333160 1_555
I22 Sr3 3.320205 1_555
I23 Sr2 3.320205 1_555
