# generated using pymatgen
data_LiVSiO5
_symmetry_space_group_name_H-M   'P 1'
_cell_length_a   6.16682432
_cell_length_b   4.60491505
_cell_length_c   6.34557676
_cell_angle_alpha   86.01136391
_cell_angle_beta   90.00000000
_cell_angle_gamma   90.00000000
_symmetry_Int_Tables_number   1
_chemical_formula_structural   LiVSiO5
_chemical_formula_sum   'Li2 V2 Si2 O10'
_cell_volume   179.76333069
_cell_formula_units_Z   2
loop_
 _symmetry_equiv_pos_site_id
 _symmetry_equiv_pos_as_xyz
  1  'x, y, z'
loop_
 _atom_site_type_symbol
 _atom_site_label
 _atom_site_symmetry_multiplicity
 _atom_site_fract_x
 _atom_site_fract_y
 _atom_site_fract_z
 _atom_site_occupancy
  Li  Li0  1  0.00000000  0.50000000  0.50000000  1
  Li  Li1  1  0.50000000  0.50000000  0.50000000  1
  V  V0  1  0.75000000  0.89668399  0.75106802  1
  V  V1  1  0.25000000  0.10331601  0.24893198  1
  Si  Si0  1  0.25000000  0.98150397  0.74634142  1
  Si  Si1  1  0.75000000  0.01849603  0.25365858  1
  O  O0  1  0.25000000  0.14083361  0.96727143  1
  O  O1  1  0.75000000  0.24564535  0.69656693  1
  O  O2  1  0.46434156  0.77416474  0.73428297  1
  O  O3  1  0.03565844  0.77416474  0.73428297  1
  O  O4  1  0.25000000  0.22733161  0.55072317  1
  O  O5  1  0.75000000  0.77266839  0.44927683  1
  O  O6  1  0.96434156  0.22583526  0.26571703  1
  O  O7  1  0.53565844  0.22583526  0.26571703  1
  O  O8  1  0.25000000  0.75435465  0.30343307  1
  O  O9  1  0.75000000  0.85916639  0.03272857  1
loop_
_geom_bond_atom_site_label_1
_geom_bond_atom_site_label_2
_geom_bond_distance
_geom_bond_site_symmetry_2
Li0 O4 2.000200 1_555
Li0 O5 2.000200 1_455
Li0 O6 2.028188 1_455
Li0 O3 2.028188 1_555
Li0 O8 2.258616 1_555
Li0 O1 2.258616 1_455
Li1 O4 2.000200 1_555
Li1 O5 2.000200 1_555
Li1 O7 2.028188 1_555
Li1 O2 2.028188 1_555
Li1 O8 2.258616 1_555
Li1 O1 2.258616 1_555
O0 Si0 1.626903 1_545
O0 V1 1.783628 1_556
O1 V0 1.620043 1_545
O2 Si0 1.635480 1_555
O2 V0 1.855066 1_555
O3 Si0 1.635480 1_555
O3 V0 1.855066 1_455
O4 Si0 1.620749 1_545
O4 V1 2.036088 1_555
O5 Si1 1.620749 1_565
O5 V0 2.036088 1_555
O6 Si1 1.635480 1_555
O6 V1 1.855066 1_655
O7 Si1 1.635480 1_555
O7 V1 1.855066 1_555
O8 V1 1.620043 1_565
O9 Si1 1.626903 1_565
O9 V0 1.783628 1_554
