# generated using pymatgen
data_Y(BiO2)3
_symmetry_space_group_name_H-M   'P 1'
_cell_length_a   7.01502989
_cell_length_b   7.01502989
_cell_length_c   7.01503000
_cell_angle_alpha   92.77863363
_cell_angle_beta   92.77863363
_cell_angle_gamma   92.77863018
_symmetry_Int_Tables_number   1
_chemical_formula_structural   Y(BiO2)3
_chemical_formula_sum   'Y2 Bi6 O12'
_cell_volume   343.95562089
_cell_formula_units_Z   2
loop_
 _symmetry_equiv_pos_site_id
 _symmetry_equiv_pos_as_xyz
  1  'x, y, z'
loop_
 _atom_site_type_symbol
 _atom_site_label
 _atom_site_symmetry_multiplicity
 _atom_site_fract_x
 _atom_site_fract_y
 _atom_site_fract_z
 _atom_site_occupancy
  Y  Y0  1  0.00000000  0.00000000  0.00000000  1
  Y  Y1  1  0.50000000  0.50000000  0.50000000  1
  Bi  Bi0  1  0.93149900  0.44720900  0.74924500  1
  Bi  Bi1  1  0.74924500  0.93149900  0.44720900  1
  Bi  Bi2  1  0.55279100  0.25075500  0.06850100  1
  Bi  Bi3  1  0.44720900  0.74924500  0.93149900  1
  Bi  Bi4  1  0.25075500  0.06850100  0.55279100  1
  Bi  Bi5  1  0.06850100  0.55279100  0.25075500  1
  O  O0  1  0.92636600  0.30900700  0.07472500  1
  O  O1  1  0.92527500  0.07363400  0.69099300  1
  O  O2  1  0.81228200  0.60012500  0.47421900  1
  O  O3  1  0.69099300  0.92527500  0.07363400  1
  O  O4  1  0.60012500  0.47421900  0.81228200  1
  O  O5  1  0.52578100  0.18771800  0.39987500  1
  O  O6  1  0.47421900  0.81228200  0.60012500  1
  O  O7  1  0.39987500  0.52578100  0.18771800  1
  O  O8  1  0.30900700  0.07472500  0.92636600  1
  O  O9  1  0.18771800  0.39987500  0.52578100  1
  O  O10  1  0.07472500  0.92636600  0.30900700  1
  O  O11  1  0.07363400  0.69099300  0.92527500  1
loop_
_geom_bond_atom_site_label_1
_geom_bond_atom_site_label_2
_geom_bond_distance
_geom_bond_site_symmetry_2
Bi0 O11 2.225806 1_655
Bi0 O2 2.388217 1_555
Bi0 O4 2.401968 1_555
Bi0 O9 2.465525 1_655
Bi0 O0 2.524610 1_556
Bi0 O1 2.630588 1_555
Bi1 O1 2.225806 1_565
Bi1 O6 2.388217 1_555
Bi1 O2 2.401968 1_555
Bi1 O5 2.465525 1_565
Bi1 O10 2.524610 1_655
Bi1 O3 2.630588 1_555
Bi2 O8 2.225806 1_554
Bi2 O7 2.388217 1_555
Bi2 O5 2.401968 1_555
Bi2 O4 2.465525 1_554
Bi2 O3 2.524610 1_545
Bi2 O0 2.630588 1_555
Bi3 O3 2.225806 1_556
Bi3 O4 2.388217 1_555
Bi3 O6 2.401968 1_555
Bi3 O7 2.465525 1_556
Bi3 O8 2.524610 1_565
Bi3 O11 2.630588 1_555
Bi4 O10 2.225806 1_545
Bi4 O5 2.388217 1_555
Bi4 O9 2.401968 1_555
Bi4 O6 2.465525 1_545
Bi4 O1 2.524610 1_455
Bi4 O8 2.630588 1_555
Bi5 O0 2.225806 1_455
Bi5 O9 2.388217 1_555
Bi5 O7 2.401968 1_555
Bi5 O2 2.465525 1_455
Bi5 O11 2.524610 1_554
Bi5 O10 2.630588 1_555
O0 Y0 2.294589 1_655
O1 Y0 2.294589 1_656
O2 Y1 2.286180 1_555
O3 Y0 2.294589 1_665
O4 Y1 2.286180 1_555
O5 Y1 2.286179 1_555
O6 Y1 2.286179 1_555
O7 Y1 2.286180 1_555
O8 Y0 2.294589 1_556
O9 Y1 2.286180 1_555
O10 Y0 2.294589 1_565
O11 Y0 2.294589 1_566
