# generated using pymatgen
data_Li7Mn3Co3O16
_symmetry_space_group_name_H-M   'P 1'
_cell_length_a   5.67569762
_cell_length_b   5.67569762
_cell_length_c   9.92152488
_cell_angle_alpha   87.55805022
_cell_angle_beta   87.55805022
_cell_angle_gamma   59.87690197
_symmetry_Int_Tables_number   1
_chemical_formula_structural   Li7Mn3Co3O16
_chemical_formula_sum   'Li7 Mn3 Co3 O16'
_cell_volume   276.10986622
_cell_formula_units_Z   1
loop_
 _symmetry_equiv_pos_site_id
 _symmetry_equiv_pos_as_xyz
  1  'x, y, z'
loop_
 _atom_site_type_symbol
 _atom_site_label
 _atom_site_symmetry_multiplicity
 _atom_site_fract_x
 _atom_site_fract_y
 _atom_site_fract_z
 _atom_site_occupancy
  Li  Li0  1  0.97557000  0.97557000  0.50913800  1
  Li  Li1  1  0.66268900  0.66268900  0.02213500  1
  Li  Li2  1  0.66607200  0.66607200  0.57892000  1
  Li  Li3  1  0.66497600  0.66497600  0.79661600  1
  Li  Li4  1  0.65892400  0.17224900  0.04407700  1
  Li  Li5  1  0.31495300  0.31495300  0.50086000  1
  Li  Li6  1  0.17224900  0.65892400  0.04407700  1
  Mn  Mn0  1  0.82650600  0.32950400  0.28204700  1
  Mn  Mn1  1  0.32950400  0.82650600  0.28204700  1
  Mn  Mn2  1  0.16328300  0.16328300  0.79444500  1
  Co  Co0  1  0.83087300  0.83087300  0.29032000  1
  Co  Co1  1  0.66202800  0.16576000  0.78762400  1
  Co  Co2  1  0.16576000  0.66202800  0.78762400  1
  O  O0  1  0.99684200  0.99684200  0.17914200  1
  O  O1  1  0.00268300  0.00268300  0.69029500  1
  O  O2  1  0.83693100  0.83693100  0.89475100  1
  O  O3  1  0.95863200  0.53699300  0.17512500  1
  O  O4  1  0.53699300  0.95863200  0.17512500  1
  O  O5  1  0.65568700  0.65568700  0.38804900  1
  O  O6  1  0.82183000  0.31144800  0.89552200  1
  O  O7  1  0.51134000  0.51134000  0.16792800  1
  O  O8  1  0.67261100  0.14533900  0.38681600  1
  O  O9  1  0.49085300  0.49085300  0.68649900  1
  O  O10  1  0.31144800  0.82183000  0.89552200  1
  O  O11  1  0.49693800  0.01809600  0.68489200  1
  O  O12  1  0.32870600  0.32870600  0.89544600  1
  O  O13  1  0.14533900  0.67261100  0.38681600  1
  O  O14  1  0.01809600  0.49693800  0.68489200  1
  O  O15  1  0.14229900  0.14229900  0.38979200  1
loop_
_geom_bond_atom_site_label_1
_geom_bond_atom_site_label_2
_geom_bond_distance
_geom_bond_site_symmetry_2
Li0 O1 1.829959 1_665
Li0 O13 1.942469 1_655
Li0 O8 1.942469 1_565
Li0 O15 1.975073 1_665
Li1 O7 2.024107 1_555
Li1 O2 2.078932 1_554
Li1 O3 2.134600 1_555
Li1 O4 2.134600 1_555
Li1 O10 2.162737 1_554
Li1 O6 2.162737 1_554
Li2 O5 1.901493 1_555
Li2 O9 1.982180 1_555
Li2 O11 2.046165 1_565
Li2 O14 2.046165 1_655
Li3 O6 1.973656 1_555
Li3 O10 1.973656 1_555
Li3 O2 1.992738 1_555
Li3 O14 2.034045 1_655
Li3 O11 2.034045 1_565
Li3 O9 2.076366 1_555
Li4 O6 2.041882 1_554
Li4 O4 2.066537 1_545
Li4 O7 2.100305 1_555
Li4 O0 2.157340 1_545
Li4 O12 2.220192 1_554
Li4 O2 2.240649 1_544
Li5 O13 2.064796 1_555
Li5 O8 2.064796 1_555
Li5 O15 2.069476 1_555
Li5 O14 2.321913 1_555
Li5 O11 2.321913 1_555
Li5 O9 2.588346 1_555
Li6 O10 2.041882 1_554
Li6 O3 2.066537 1_455
Li6 O7 2.100305 1_555
Li6 O0 2.157340 1_455
Li6 O12 2.220192 1_554
Li6 O2 2.240649 1_454
Mn0 O15 1.907668 1_655
Mn0 O8 1.918970 1_555
Mn0 O5 1.936719 1_555
Mn0 O7 1.940842 1_555
Mn0 O3 1.945952 1_555
Mn0 O0 1.946775 1_545
Mn1 O15 1.907668 1_565
Mn1 O13 1.918970 1_555
Mn1 O5 1.936719 1_555
Mn1 O7 1.940842 1_555
Mn1 O4 1.945952 1_555
Mn1 O0 1.946775 1_455
Mn2 O1 1.929759 1_555
Mn2 O10 1.933677 1_545
Mn2 O6 1.933677 1_455
Mn2 O14 1.944550 1_555
Mn2 O11 1.944550 1_555
Mn2 O12 1.952523 1_555
Co0 O8 1.836345 1_565
Co0 O13 1.836345 1_655
Co0 O4 1.868697 1_555
Co0 O3 1.868697 1_555
Co0 O0 1.924832 1_555
Co0 O5 1.935315 1_555
Co1 O9 1.865760 1_555
Co1 O11 1.887235 1_555
Co1 O6 1.887667 1_555
Co1 O1 1.910045 1_655
Co1 O2 1.913010 1_545
Co1 O12 1.932473 1_555
Co2 O9 1.865760 1_555
Co2 O14 1.887235 1_555
Co2 O10 1.887667 1_555
Co2 O1 1.910045 1_565
Co2 O2 1.913010 1_455
Co2 O12 1.932473 1_555
