# generated using pymatgen
data_Na5Fe2P2(CO7)2
_symmetry_space_group_name_H-M   'P 1'
_cell_length_a   18.02590612
_cell_length_b   5.25901147
_cell_length_c   6.59535254
_cell_angle_alpha   90.00000000
_cell_angle_beta   90.00000000
_cell_angle_gamma   89.48971372
_symmetry_Int_Tables_number   1
_chemical_formula_structural   Na5Fe2P2(CO7)2
_chemical_formula_sum   'Na10 Fe4 P4 C4 O28'
_cell_volume   625.20438216
_cell_formula_units_Z   2
loop_
 _symmetry_equiv_pos_site_id
 _symmetry_equiv_pos_as_xyz
  1  'x, y, z'
loop_
 _atom_site_type_symbol
 _atom_site_label
 _atom_site_symmetry_multiplicity
 _atom_site_fract_x
 _atom_site_fract_y
 _atom_site_fract_z
 _atom_site_occupancy
  Na  Na0  1  0.04366732  0.76808303  0.26698670  1
  Na  Na1  1  0.13326533  0.24529172  0.01792175  1
  Na  Na2  1  0.37039838  0.74857995  0.49407926  1
  Na  Na3  1  0.36935272  0.74760387  0.00184320  1
  Na  Na4  1  0.46272407  0.24259350  0.76228961  1
  Na  Na5  1  0.54366732  0.76808303  0.23301330  1
  Na  Na6  1  0.63326533  0.24529172  0.48207825  1
  Na  Na7  1  0.86935272  0.74760387  0.49815680  1
  Na  Na8  1  0.87039838  0.74857995  0.00592074  1
  Na  Na9  1  0.96272407  0.24259350  0.73771039  1
  Fe  Fe0  1  0.17269645  0.78551189  0.73672637  1
  Fe  Fe1  1  0.32336338  0.22226877  0.24763793  1
  Fe  Fe2  1  0.67269645  0.78551189  0.76327363  1
  Fe  Fe3  1  0.82336338  0.22226877  0.25236207  1
  P  P0  1  0.20852311  0.70044221  0.24572078  1
  P  P1  1  0.28904312  0.28717685  0.74838818  1
  P  P2  1  0.70852311  0.70044221  0.25427922  1
  P  P3  1  0.78904312  0.28717685  0.75161182  1
  C  C0  1  0.03226993  0.73224021  0.75716065  1
  C  C1  1  0.46924306  0.27393613  0.25407511  1
  C  C2  1  0.53226993  0.73224021  0.74283935  1
  C  C3  1  0.96924306  0.27393613  0.24592489  1
  O  O0  1  0.03946918  0.29453092  0.23414322  1
  O  O1  1  0.06367970  0.95512129  0.75518659  1
  O  O2  1  0.07670200  0.53646370  0.75839337  1
  O  O3  1  0.15977471  0.78438133  0.05889240  1
  O  O4  1  0.16132983  0.76939033  0.43834461  1
  O  O5  1  0.21739527  0.12787897  0.75636157  1
  O  O6  1  0.22218466  0.41203533  0.23393211  1
  O  O7  1  0.26727638  0.57807390  0.74890735  1
  O  O8  1  0.28308969  0.84250838  0.24912144  1
  O  O9  1  0.33784608  0.22791568  0.56105152  1
  O  O10  1  0.34031372  0.23241032  0.93263004  1
  O  O11  1  0.42608095  0.47643319  0.24670000  1
  O  O12  1  0.43753509  0.04967844  0.24742185  1
  O  O13  1  0.46103389  0.70986811  0.74661584  1
  O  O14  1  0.53946918  0.29453092  0.26585678  1
  O  O15  1  0.56367970  0.95512129  0.74481341  1
  O  O16  1  0.57670200  0.53646370  0.74160663  1
  O  O17  1  0.66132983  0.76939033  0.06165539  1
  O  O18  1  0.65977471  0.78438133  0.44110760  1
  O  O19  1  0.71739527  0.12787897  0.74363843  1
  O  O20  1  0.72218466  0.41203533  0.26606789  1
  O  O21  1  0.76727638  0.57807390  0.75109265  1
  O  O22  1  0.78308969  0.84250838  0.25087856  1
  O  O23  1  0.84031372  0.23241032  0.56736996  1
  O  O24  1  0.83784608  0.22791568  0.93894848  1
  O  O25  1  0.92608095  0.47643319  0.25330000  1
  O  O26  1  0.93753509  0.04967844  0.25257815  1
  O  O27  1  0.96103389  0.70986811  0.75338416  1
loop_
_geom_bond_atom_site_label_1
_geom_bond_atom_site_label_2
_geom_bond_distance
_geom_bond_site_symmetry_2
Na0 O4 2.403354 1_555
Na0 O26 2.410754 1_465
Na0 O0 2.501635 1_555
Na0 O3 2.504911 1_555
Na0 O25 2.628930 1_455
Na0 O0 2.777416 1_565
Na1 O0 2.225211 1_555
Na1 O6 2.322241 1_555
Na1 O5 2.374938 1_554
Na1 O3 2.481166 1_545
Na1 O2 2.507279 1_554
Na1 O1 2.634176 1_544
Na1 O3 2.891913 1_555
Na2 O8 2.305899 1_555
Na2 O13 2.340705 1_555
Na2 O11 2.385843 1_555
Na2 O12 2.579260 1_565
Na2 O9 2.620623 1_565
Na2 O7 2.667176 1_555
Na2 O9 2.840012 1_555
Na3 O8 2.304995 1_555
Na3 O13 2.366072 1_554
Na3 O11 2.379365 1_555
Na3 O12 2.586965 1_565
Na3 O10 2.638008 1_564
Na3 O7 2.644364 1_554
Na3 O10 2.801525 1_554
Na4 O15 2.358307 1_545
Na4 O13 2.459493 1_555
Na4 O10 2.477099 1_555
Na4 O16 2.585504 1_555
Na4 O9 2.614916 1_555
Na4 O13 2.803952 1_545
Na5 O17 2.403354 1_555
Na5 O12 2.410754 1_565
Na5 O14 2.501635 1_555
Na5 O18 2.504911 1_555
Na5 O11 2.628930 1_555
Na5 O14 2.777416 1_565
Na6 O14 2.225211 1_555
Na6 O20 2.322241 1_555
Na6 O19 2.374938 1_555
Na6 O18 2.481166 1_545
Na6 O16 2.507279 1_555
Na6 O15 2.634176 1_545
Na6 O18 2.891913 1_555
Na7 O22 2.304995 1_555
Na7 O27 2.366072 1_555
Na7 O25 2.379365 1_555
Na7 O26 2.586965 1_565
Na7 O23 2.638008 1_565
Na7 O21 2.644364 1_555
Na7 O23 2.801525 1_555
Na8 O22 2.305899 1_555
Na8 O27 2.340705 1_554
Na8 O25 2.385843 1_555
Na8 O26 2.579260 1_565
Na8 O24 2.620623 1_564
Na8 O21 2.667176 1_554
Na8 O24 2.840012 1_554
Na9 O1 2.358307 1_645
Na9 O27 2.459493 1_555
Na9 O23 2.477099 1_555
Na9 O2 2.585504 1_655
Na9 O24 2.614916 1_555
Na9 O27 2.803952 1_545
Fe0 O4 1.980464 1_555
Fe0 O5 1.983348 1_565
Fe0 O7 2.017443 1_555
Fe0 O3 2.137541 1_556
Fe0 O1 2.154285 1_555
Fe0 O2 2.184140 1_555
Fe1 O6 2.073188 1_555
Fe1 O9 2.083738 1_555
Fe1 O10 2.100682 1_554
Fe1 O8 2.131107 1_545
Fe1 O12 2.241903 1_555
Fe1 O11 2.293273 1_555
Fe2 O17 1.980464 1_556
Fe2 O19 1.983348 1_565
Fe2 O21 2.017443 1_555
Fe2 O18 2.137541 1_555
Fe2 O15 2.154285 1_555
Fe2 O16 2.184140 1_555
Fe3 O20 2.073188 1_555
Fe3 O24 2.083738 1_554
Fe3 O23 2.100682 1_555
Fe3 O22 2.131107 1_545
Fe3 O26 2.241903 1_555
Fe3 O25 2.293273 1_555
C0 O27 1.290756 1_455
C0 O2 1.298815 1_555
C0 O1 1.306315 1_555
C1 O14 1.273847 1_555
C1 O11 1.314166 1_555
C1 O12 1.315880 1_555
C2 O13 1.290756 1_555
C2 O16 1.298815 1_555
C2 O15 1.306315 1_555
C3 O0 1.273847 1_655
C3 O25 1.314166 1_555
C3 O26 1.315880 1_555
O3 P0 1.574308 1_555
O4 P0 1.569602 1_555
O5 P1 1.546570 1_555
O6 P0 1.536399 1_555
O7 P1 1.575961 1_555
O8 P0 1.543786 1_555
O9 P1 1.546847 1_555
O10 P1 1.552070 1_555
O17 P2 1.569602 1_555
O18 P2 1.574308 1_555
O19 P3 1.546570 1_555
O20 P2 1.536399 1_555
O21 P3 1.575961 1_555
O22 P2 1.543786 1_555
O23 P3 1.552070 1_555
O24 P3 1.546847 1_555
