# generated using pymatgen
data_Li2CoSiO4
_symmetry_space_group_name_H-M   'P 1'
_cell_length_a   5.01490102
_cell_length_b   6.13836838
_cell_length_c   10.72614789
_cell_angle_alpha   90.00000000
_cell_angle_beta   90.00000000
_cell_angle_gamma   90.00000000
_symmetry_Int_Tables_number   1
_chemical_formula_structural   Li2CoSiO4
_chemical_formula_sum   'Li8 Co4 Si4 O16'
_cell_volume   330.18633399
_cell_formula_units_Z   4
loop_
 _symmetry_equiv_pos_site_id
 _symmetry_equiv_pos_as_xyz
  1  'x, y, z'
loop_
 _atom_site_type_symbol
 _atom_site_label
 _atom_site_symmetry_multiplicity
 _atom_site_fract_x
 _atom_site_fract_y
 _atom_site_fract_z
 _atom_site_occupancy
  Li  Li0  1  0.20026514  0.99476548  0.66897871  1
  Li  Li1  1  0.29973486  0.99476548  0.16897871  1
  Li  Li2  1  0.20026514  0.50523452  0.66897871  1
  Li  Li3  1  0.29973486  0.50523452  0.16897871  1
  Li  Li4  1  0.70026514  0.49476548  0.83102129  1
  Li  Li5  1  0.79973486  0.49476548  0.33102129  1
  Li  Li6  1  0.79973486  0.00523452  0.33102129  1
  Li  Li7  1  0.70026514  0.00523452  0.83102129  1
  Co  Co0  1  0.80696471  0.25000000  0.57658920  1
  Co  Co1  1  0.69303529  0.25000000  0.07658920  1
  Co  Co2  1  0.30696471  0.75000000  0.92341080  1
  Co  Co3  1  0.19303529  0.75000000  0.42341080  1
  Si  Si0  1  0.19017073  0.25000000  0.91427304  1
  Si  Si1  1  0.30982927  0.25000000  0.41427304  1
  Si  Si2  1  0.69017073  0.75000000  0.58572696  1
  Si  Si3  1  0.80982927  0.75000000  0.08572696  1
  O  O0  1  0.29945819  0.03440189  0.84018361  1
  O  O1  1  0.20054181  0.03440189  0.34018361  1
  O  O2  1  0.86317741  0.25000000  0.91298469  1
  O  O3  1  0.20795110  0.25000000  0.55903651  1
  O  O4  1  0.29204890  0.25000000  0.05903651  1
  O  O5  1  0.63682259  0.25000000  0.41298469  1
  O  O6  1  0.29945819  0.46559811  0.84018361  1
  O  O7  1  0.20054181  0.46559811  0.34018361  1
  O  O8  1  0.70054181  0.53440189  0.15981639  1
  O  O9  1  0.79945819  0.53440189  0.65981639  1
  O  O10  1  0.70795110  0.75000000  0.94096349  1
  O  O11  1  0.36317741  0.75000000  0.58701531  1
  O  O12  1  0.79204890  0.75000000  0.44096349  1
  O  O13  1  0.13682259  0.75000000  0.08701531  1
  O  O14  1  0.79945819  0.96559811  0.65981639  1
  O  O15  1  0.70054181  0.96559811  0.15981639  1
loop_
_geom_bond_atom_site_label_1
_geom_bond_atom_site_label_2
_geom_bond_distance
_geom_bond_site_symmetry_2
Li0 O0 1.918045 1_565
Li0 O11 1.922958 1_555
Li0 O3 1.961314 1_565
Li0 O14 2.020357 1_455
Li1 O1 1.918045 1_565
Li1 O13 1.922958 1_555
Li1 O4 1.961314 1_565
Li1 O15 2.020357 1_555
Li2 O6 1.918045 1_555
Li2 O11 1.922958 1_555
Li2 O3 1.961314 1_555
Li2 O9 2.020357 1_455
Li3 O7 1.918045 1_555
Li3 O13 1.922958 1_555
Li3 O4 1.961314 1_555
Li3 O8 2.020357 1_555
Li4 O9 1.918045 1_555
Li4 O2 1.922958 1_555
Li4 O10 1.961314 1_555
Li4 O6 2.020357 1_555
Li5 O8 1.918045 1_555
Li5 O5 1.922958 1_555
Li5 O12 1.961314 1_555
Li5 O7 2.020357 1_655
Li6 O15 1.918045 1_545
Li6 O5 1.922958 1_555
Li6 O12 1.961314 1_545
Li6 O1 2.020357 1_655
Li7 O14 1.918045 1_545
Li7 O2 1.922958 1_555
Li7 O10 1.961314 1_545
Li7 O0 2.020357 1_555
Co0 O5 1.951285 1_555
Co0 O9 1.961131 1_555
Co0 O14 1.961131 1_545
Co0 O3 2.019701 1_655
Co1 O2 1.951285 1_554
Co1 O8 1.961131 1_555
Co1 O15 1.961131 1_545
Co1 O4 2.019701 1_555
Co2 O13 1.951285 1_556
Co2 O6 1.961131 1_555
Co2 O0 1.961131 1_565
Co2 O10 2.019701 1_555
Co3 O11 1.951285 1_555
Co3 O7 1.961131 1_555
Co3 O1 1.961131 1_565
Co3 O12 2.019701 1_455
O0 Si0 1.638096 1_555
O1 Si1 1.638096 1_555
O2 Si0 1.639897 1_655
O3 Si1 1.634648 1_555
O4 Si0 1.634648 1_554
O5 Si1 1.639897 1_555
O6 Si0 1.638096 1_555
O7 Si1 1.638096 1_555
O8 Si3 1.638096 1_555
O9 Si2 1.638096 1_555
O10 Si3 1.634648 1_556
O11 Si2 1.639897 1_555
O12 Si2 1.634648 1_555
O13 Si3 1.639897 1_455
O14 Si2 1.638096 1_555
O15 Si3 1.638096 1_555
