# generated using pymatgen
data_LiCuSi2O5
_symmetry_space_group_name_H-M   'P 1'
_cell_length_a   4.93629000
_cell_length_b   5.73663500
_cell_length_c   7.97171785
_cell_angle_alpha   73.01532959
_cell_angle_beta   90.00000000
_cell_angle_gamma   90.00000000
_symmetry_Int_Tables_number   1
_chemical_formula_structural   LiCuSi2O5
_chemical_formula_sum   'Li2 Cu2 Si4 O10'
_cell_volume   215.89452370
_cell_formula_units_Z   2
loop_
 _symmetry_equiv_pos_site_id
 _symmetry_equiv_pos_as_xyz
  1  'x, y, z'
loop_
 _atom_site_type_symbol
 _atom_site_label
 _atom_site_symmetry_multiplicity
 _atom_site_fract_x
 _atom_site_fract_y
 _atom_site_fract_z
 _atom_site_occupancy
  Li  Li0  1  0.68250500  0.05749400  0.17619500  1
  Li  Li1  1  0.18250500  0.94250600  0.82380500  1
  Cu  Cu0  1  0.71433200  0.98570200  0.62764900  1
  Cu  Cu1  1  0.21433200  0.01429800  0.37235100  1
  Si  Si0  1  0.18220500  0.35253400  0.98493000  1
  Si  Si1  1  0.66876600  0.45042400  0.40446700  1
  Si  Si2  1  0.16876600  0.54957600  0.59553300  1
  Si  Si3  1  0.68220500  0.64746600  0.01507000  1
  O  O0  1  0.28284200  0.10507200  0.12511500  1
  O  O1  1  0.73984300  0.18259800  0.38572700  1
  O  O2  1  0.22545100  0.32756600  0.78447700  1
  O  O3  1  0.85355300  0.40166600  0.00643000  1
  O  O4  1  0.34415900  0.46893400  0.44708000  1
  O  O5  1  0.84415900  0.53106600  0.55292000  1
  O  O6  1  0.35355300  0.59833400  0.99357000  1
  O  O7  1  0.72545100  0.67243400  0.21552300  1
  O  O8  1  0.23984300  0.81740200  0.61427300  1
  O  O9  1  0.78284200  0.89492800  0.87488500  1
loop_
_geom_bond_atom_site_label_1
_geom_bond_atom_site_label_2
_geom_bond_distance
_geom_bond_site_symmetry_2
Li0 O0 2.016809 1_555
Li0 O1 2.021267 1_555
Li0 O7 2.148973 1_545
Li0 O3 2.209422 1_555
Li1 O9 2.016809 1_455
Li1 O8 2.021267 1_555
Li1 O2 2.148973 1_565
Li1 O6 2.209422 1_555
Cu0 O9 1.915818 1_555
Cu0 O1 1.933462 1_565
Cu0 O8 2.547475 1_555
Cu1 O0 1.915818 1_555
Cu1 O8 1.933462 1_545
Cu1 O1 2.547475 1_455
O0 Si0 1.607497 1_554
O1 Si1 1.624839 1_555
O2 Si0 1.659296 1_555
O2 Si2 1.687680 1_555
O3 Si3 1.662884 1_555
O3 Si0 1.664021 1_654
O4 Si2 1.638276 1_555
O4 Si1 1.647812 1_555
O5 Si1 1.638276 1_555
O5 Si2 1.647812 1_655
O6 Si0 1.662884 1_555
O6 Si3 1.664021 1_556
O7 Si3 1.659296 1_555
O7 Si1 1.687680 1_555
O8 Si2 1.624839 1_555
O9 Si3 1.607497 1_556
