# generated using pymatgen
data_Li5Cr3FeO8
_symmetry_space_group_name_H-M   'P 1'
_cell_length_a   6.05549831
_cell_length_b   6.05549831
_cell_length_c   6.05549787
_cell_angle_alpha   59.34832886
_cell_angle_beta   59.34832886
_cell_angle_gamma   59.34832864
_symmetry_Int_Tables_number   1
_chemical_formula_structural   Li5Cr3FeO8
_chemical_formula_sum   'Li5 Cr3 Fe1 O8'
_cell_volume   154.68347062
_cell_formula_units_Z   1
loop_
 _symmetry_equiv_pos_site_id
 _symmetry_equiv_pos_as_xyz
  1  'x, y, z'
loop_
 _atom_site_type_symbol
 _atom_site_label
 _atom_site_symmetry_multiplicity
 _atom_site_fract_x
 _atom_site_fract_y
 _atom_site_fract_z
 _atom_site_occupancy
  Li  Li0  1  0.06693400  0.06693400  0.06693400  1
  Li  Li1  1  0.00000000  0.00000000  0.50000000  1
  Li  Li2  1  0.93306600  0.93306600  0.93306600  1
  Li  Li3  1  0.00000000  0.50000000  0.00000000  1
  Li  Li4  1  0.50000000  0.00000000  0.00000000  1
  Cr  Cr0  1  0.00000000  0.50000000  0.50000000  1
  Cr  Cr1  1  0.50000000  0.00000000  0.50000000  1
  Cr  Cr2  1  0.50000000  0.50000000  0.00000000  1
  Fe  Fe0  1  0.50000000  0.50000000  0.50000000  1
  O  O0  1  0.25784400  0.25784400  0.25784400  1
  O  O1  1  0.72426300  0.25595900  0.25595900  1
  O  O2  1  0.25595900  0.72426300  0.25595900  1
  O  O3  1  0.25595900  0.25595900  0.72426300  1
  O  O4  1  0.74404100  0.74404100  0.27573700  1
  O  O5  1  0.74404100  0.27573700  0.74404100  1
  O  O6  1  0.27573700  0.74404100  0.74404100  1
  O  O7  1  0.74215600  0.74215600  0.74215600  1
loop_
_geom_bond_atom_site_label_1
_geom_bond_atom_site_label_2
_geom_bond_distance
_geom_bond_site_symmetry_2
Li0 O3 1.848920 1_554
Li0 O1 1.848920 1_455
Li0 O2 1.848920 1_545
Li1 O0 2.200627 1_555
Li1 O7 2.200627 1_445
Li1 O6 2.217174 1_545
Li1 O5 2.217174 1_455
Li1 O2 2.217174 1_545
Li1 O1 2.217174 1_455
Li2 O4 1.848920 1_556
Li2 O5 1.848920 1_565
Li2 O6 1.848920 1_655
Li3 O0 2.200627 1_555
Li3 O7 2.200627 1_454
Li3 O3 2.217174 1_554
Li3 O4 2.217174 1_455
Li3 O6 2.217174 1_554
Li3 O1 2.217174 1_455
Li4 O0 2.200627 1_555
Li4 O7 2.200627 1_544
Li4 O4 2.217174 1_545
Li4 O3 2.217174 1_554
Li4 O2 2.217174 1_545
Li4 O5 2.217174 1_554
Cr0 O3 2.048148 1_555
Cr0 O4 2.048148 1_455
Cr0 O5 2.048148 1_455
Cr0 O2 2.048148 1_555
Cr0 O7 2.064424 1_455
Cr0 O0 2.064424 1_555
Cr1 O4 2.048148 1_545
Cr1 O3 2.048148 1_555
Cr1 O6 2.048148 1_545
Cr1 O1 2.048148 1_555
Cr1 O7 2.064424 1_545
Cr1 O0 2.064424 1_555
Cr2 O1 2.048148 1_555
Cr2 O2 2.048148 1_555
Cr2 O6 2.048148 1_554
Cr2 O5 2.048148 1_554
Cr2 O7 2.064424 1_554
Cr2 O0 2.064424 1_555
Fe0 O6 2.084740 1_555
Fe0 O5 2.084740 1_555
Fe0 O1 2.084740 1_555
Fe0 O2 2.084740 1_555
Fe0 O4 2.084740 1_555
Fe0 O3 2.084740 1_555
