# generated using pymatgen
data_Mg16Si8HO32
_symmetry_space_group_name_H-M   'P 1'
_cell_length_a   8.21056300
_cell_length_b   8.21003517
_cell_length_c   8.23272265
_cell_angle_alpha   89.85546476
_cell_angle_beta   89.56547138
_cell_angle_gamma   89.88986828
_symmetry_Int_Tables_number   1
_chemical_formula_structural   Mg16Si8HO32
_chemical_formula_sum   'Mg16 Si8 H1 O32'
_cell_volume   554.94096127
_cell_formula_units_Z   1
loop_
 _symmetry_equiv_pos_site_id
 _symmetry_equiv_pos_as_xyz
  1  'x, y, z'
loop_
 _atom_site_type_symbol
 _atom_site_label
 _atom_site_symmetry_multiplicity
 _atom_site_fract_x
 _atom_site_fract_y
 _atom_site_fract_z
 _atom_site_occupancy
  Mg  Mg0  1  0.37779300  0.63391600  0.37697300  1
  Mg  Mg1  1  0.87288400  0.37549000  0.12374000  1
  Mg  Mg2  1  0.62533100  0.87483900  0.87499400  1
  Mg  Mg3  1  0.12565600  0.12199400  0.62678200  1
  Mg  Mg4  1  0.87473600  0.62565300  0.87583000  1
  Mg  Mg5  1  0.39130100  0.37988500  0.65093300  1
  Mg  Mg6  1  0.12375900  0.87405900  0.37461300  1
  Mg  Mg7  1  0.62693700  0.12390800  0.12434900  1
  Mg  Mg8  1  0.87366400  0.12338000  0.37477900  1
  Mg  Mg9  1  0.37585200  0.87269800  0.12369300  1
  Mg  Mg10  1  0.12320100  0.37483700  0.87374600  1
  Mg  Mg11  1  0.62687700  0.62834300  0.62416500  1
  Mg  Mg12  1  0.37524300  0.12103600  0.87305300  1
  Mg  Mg13  1  0.87483400  0.87571700  0.62514900  1
  Mg  Mg14  1  0.63151000  0.37594400  0.37859200  1
  Mg  Mg15  1  0.12445200  0.62626600  0.12392000  1
  Si  Si0  1  0.99927200  0.99915000  0.99957400  1
  Si  Si1  1  0.24990900  0.75041300  0.75007400  1
  Si  Si2  1  0.49962800  0.00203700  0.49993800  1
  Si  Si3  1  0.75008700  0.75025500  0.24973100  1
  Si  Si4  1  0.50052800  0.50073200  0.00439800  1
  Si  Si5  1  0.75191800  0.24939500  0.75056900  1
  Si  Si6  1  0.99794200  0.50274600  0.49748500  1
  Si  Si7  1  0.23895900  0.23692600  0.23286100  1
  H  H0  1  0.25179500  0.36689000  0.45164700  1
  O  O0  1  0.63413300  0.37011200  0.63159400  1
  O  O1  1  0.13137400  0.62973300  0.86775900  1
  O  O2  1  0.37038800  0.12806700  0.12643600  1
  O  O3  1  0.86810500  0.86789700  0.36899600  1
  O  O4  1  0.61724400  0.12220500  0.38042600  1
  O  O5  1  0.11909100  0.88176900  0.11855000  1
  O  O6  1  0.88193700  0.61846900  0.61946400  1
  O  O7  1  0.38063200  0.38025500  0.88968900  1
  O  O8  1  0.12798700  0.36805300  0.12609200  1
  O  O9  1  0.63064500  0.63014600  0.36935400  1
  O  O10  1  0.87044500  0.13172200  0.63036400  1
  O  O11  1  0.36874800  0.86790100  0.86819600  1
  O  O12  1  0.11919000  0.11923800  0.88131100  1
  O  O13  1  0.61816400  0.88275200  0.61835600  1
  O  O14  1  0.38032400  0.61805400  0.12301200  1
  O  O15  1  0.88290000  0.38106600  0.38091700  1
  O  O16  1  0.13155500  0.86854900  0.63062300  1
  O  O17  1  0.63110100  0.13185500  0.86850200  1
  O  O18  1  0.86878200  0.63061500  0.13125900  1
  O  O19  1  0.34739900  0.36286200  0.37070800  1
  O  O20  1  0.12066100  0.61858600  0.37981100  1
  O  O21  1  0.61620400  0.38058000  0.12440700  1
  O  O22  1  0.38104000  0.12352300  0.61841300  1
  O  O23  1  0.88122100  0.88119900  0.88101300  1
  O  O24  1  0.63105700  0.86843600  0.13132800  1
  O  O25  1  0.12843700  0.12847900  0.36565700  1
  O  O26  1  0.37013200  0.63042100  0.63108600  1
  O  O27  1  0.86976000  0.36903300  0.86746000  1
  O  O28  1  0.61802500  0.61760300  0.88195500  1
  O  O29  1  0.12825300  0.38098500  0.60765800  1
  O  O30  1  0.88138900  0.11920100  0.11884200  1
  O  O31  1  0.38080900  0.88439600  0.38130500  1
loop_
_geom_bond_atom_site_label_1
_geom_bond_atom_site_label_2
_geom_bond_distance
_geom_bond_site_symmetry_2
Mg0 O31 2.057049 1_555
Mg0 O9 2.076703 1_555
Mg0 O26 2.092636 1_555
Mg0 O14 2.095113 1_555
Mg0 O20 2.115137 1_555
Mg0 O19 2.240555 1_555
Mg1 O8 2.095547 1_655
Mg1 O18 2.095854 1_555
Mg1 O30 2.105644 1_555
Mg1 O21 2.107787 1_555
Mg1 O27 2.111033 1_554
Mg1 O15 2.120100 1_555
Mg2 O23 2.102713 1_555
Mg2 O11 2.108741 1_555
Mg2 O17 2.111266 1_565
Mg2 O24 2.111726 1_556
Mg2 O28 2.113504 1_555
Mg2 O13 2.114926 1_555
Mg3 O16 2.081429 1_545
Mg3 O12 2.095803 1_555
Mg3 O10 2.096781 1_455
Mg3 O22 2.097516 1_555
Mg3 O29 2.131886 1_555
Mg3 O25 2.150244 1_555
Mg4 O23 2.099369 1_555
Mg4 O18 2.103569 1_556
Mg4 O1 2.108014 1_655
Mg4 O27 2.108644 1_555
Mg4 O28 2.109121 1_555
Mg4 O6 2.111939 1_555
Mg5 O7 1.966909 1_555
Mg5 O0 2.000402 1_555
Mg5 O26 2.070059 1_555
Mg5 O22 2.124283 1_555
Mg5 O29 2.191622 1_555
Mg6 O25 2.090329 1_565
Mg6 O20 2.097970 1_555
Mg6 O3 2.100632 1_455
Mg6 O16 2.109485 1_555
Mg6 O5 2.109523 1_555
Mg6 O31 2.113535 1_555
Mg7 O30 2.089627 1_555
Mg7 O24 2.098291 1_545
Mg7 O2 2.106563 1_555
Mg7 O17 2.107183 1_554
Mg7 O21 2.108960 1_555
Mg7 O4 2.109121 1_555
Mg8 O25 2.093103 1_655
Mg8 O3 2.098777 1_545
Mg8 O10 2.105411 1_555
Mg8 O4 2.105553 1_555
Mg8 O30 2.107896 1_555
Mg8 O15 2.117859 1_555
Mg9 O14 2.090909 1_555
Mg9 O24 2.097018 1_555
Mg9 O2 2.097157 1_565
Mg9 O11 2.105156 1_554
Mg9 O5 2.110066 1_555
Mg9 O31 2.123965 1_555
Mg10 O8 2.078768 1_556
Mg10 O27 2.082569 1_455
Mg10 O1 2.094353 1_555
Mg10 O12 2.099558 1_555
Mg10 O7 2.119277 1_555
Mg10 O29 2.191163 1_555
Mg11 O13 2.090233 1_555
Mg11 O6 2.095667 1_555
Mg11 O9 2.097797 1_555
Mg11 O26 2.108396 1_555
Mg11 O0 2.121549 1_555
Mg11 O28 2.124621 1_555
Mg12 O11 2.079527 1_545
Mg12 O2 2.087052 1_556
Mg12 O22 2.096609 1_555
Mg12 O17 2.102832 1_555
Mg12 O12 2.103002 1_555
Mg12 O7 2.133510 1_555
Mg13 O10 2.102591 1_565
Mg13 O23 2.108104 1_555
Mg13 O13 2.109247 1_555
Mg13 O16 2.109352 1_655
Mg13 O3 2.111121 1_555
Mg13 O6 2.113335 1_555
Mg14 O15 2.064797 1_555
Mg14 O0 2.083598 1_555
Mg14 O4 2.086731 1_555
Mg14 O9 2.088201 1_555
Mg14 O21 2.097601 1_555
Mg14 O19 2.336789 1_555
Mg15 O5 2.098427 1_555
Mg15 O18 2.099843 1_455
Mg15 O14 2.101762 1_555
Mg15 O20 2.107460 1_555
Mg15 O1 2.109359 1_554
Mg15 O8 2.120113 1_555
H0 O19 1.026332 1_555
H0 O29 1.634780 1_555
H0 Mg5 2.011223 1_555
O0 Si5 1.697848 1_555
O1 Si1 1.688822 1_555
O2 Si7 1.648274 1_555
O3 Si3 1.690769 1_555
O4 Si2 1.690663 1_555
O5 Si0 1.691795 1_454
O6 Si6 1.674857 1_555
O7 Si4 1.691690 1_556
O8 Si7 1.662949 1_555
O9 Si3 1.699465 1_555
O10 Si5 1.687114 1_555
O11 Si1 1.688463 1_555
O12 Si0 1.695221 1_445
O13 Si2 1.691937 1_565
O14 Si4 1.685794 1_555
O15 Si6 1.683262 1_555
O16 Si1 1.690609 1_555
O17 Si5 1.685902 1_555
O18 Si3 1.688965 1_555
O19 Si7 1.781696 1_555
O20 Si6 1.685971 1_455
O21 Si4 1.690267 1_555
O22 Si2 1.697344 1_555
O23 Si0 1.688993 1_555
O24 Si3 1.689015 1_555
O25 Si7 1.671701 1_555
O26 Si1 1.700274 1_555
O27 Si5 1.688063 1_555
O28 Si4 1.688614 1_556
O29 Si6 1.724179 1_455
O30 Si0 1.690912 1_544
O31 Si2 1.691538 1_565
