# generated using pymatgen
data_Fe3(SnS4)2
_symmetry_space_group_name_H-M   'P 1'
_cell_length_a   7.15021910
_cell_length_b   7.15021910
_cell_length_c   7.15021910
_cell_angle_alpha   121.80367796
_cell_angle_beta   117.92804262
_cell_angle_gamma   90.26512822
_symmetry_Int_Tables_number   1
_chemical_formula_structural   Fe3(SnS4)2
_chemical_formula_sum   'Fe3 Sn2 S8'
_cell_volume   258.64232925
_cell_formula_units_Z   1
loop_
 _symmetry_equiv_pos_site_id
 _symmetry_equiv_pos_as_xyz
  1  'x, y, z'
loop_
 _atom_site_type_symbol
 _atom_site_label
 _atom_site_symmetry_multiplicity
 _atom_site_fract_x
 _atom_site_fract_y
 _atom_site_fract_z
 _atom_site_occupancy
  Fe  Fe0  1  0.63000200  0.36743500  0.73743300  1
  Fe  Fe1  1  0.24511500  0.74511500  0.50000000  1
  Fe  Fe2  1  0.63000200  0.89256900  0.26256700  1
  Sn  Sn0  1  0.11253500  0.37394200  0.73859300  1
  Sn  Sn1  1  0.63534900  0.37394200  0.26140700  1
  S  S0  1  0.39556200  0.13829500  0.74273400  1
  S  S1  1  0.40909000  0.62895500  0.78013600  1
  S  S2  1  0.82892900  0.12198000  0.70694800  1
  S  S3  1  0.41503200  0.12198000  0.29305200  1
  S  S4  1  0.85200200  0.61585200  0.76385100  1
  S  S5  1  0.85200200  0.08815100  0.23614900  1
  S  S6  1  0.39556200  0.65282800  0.25726600  1
  S  S7  1  0.84881900  0.62895500  0.21986400  1
loop_
_geom_bond_atom_site_label_1
_geom_bond_atom_site_label_2
_geom_bond_distance
_geom_bond_site_symmetry_2
Fe0 S4 2.247168 1_555
Fe0 S3 2.249702 1_555
Fe0 S2 2.249707 1_555
Fe0 S0 2.365444 1_555
Fe0 S7 2.441758 1_556
Fe0 S1 2.441763 1_555
Fe1 S0 2.270074 1_565
Fe1 S6 2.270080 1_555
Fe1 S1 2.374725 1_555
Fe1 S7 2.374726 1_455
Fe2 S5 2.247173 1_565
Fe2 S2 2.249702 1_565
Fe2 S3 2.249702 1_565
Fe2 S6 2.365439 1_555
Fe2 S1 2.441758 1_554
Fe2 S7 2.441758 1_555
S0 Sn1 2.638792 1_556
S0 Sn0 2.638798 1_555
S1 Sn0 2.590866 1_555
S2 Sn0 2.552602 1_655
S3 Sn1 2.552608 1_555
S4 Sn0 2.551567 1_655
S4 Sn1 2.551572 1_555
S5 Sn1 2.551572 1_555
S5 Sn0 2.551572 1_655
S6 Sn1 2.638793 1_555
S6 Sn0 2.638793 1_554
S7 Sn1 2.590871 1_555
