# generated using pymatgen
data_CeHfO4
_symmetry_space_group_name_H-M   'P 1'
_cell_length_a   5.41320600
_cell_length_b   7.70280100
_cell_length_c   7.71319142
_cell_angle_alpha   83.52235420
_cell_angle_beta   90.00000000
_cell_angle_gamma   90.00000000
_symmetry_Int_Tables_number   1
_chemical_formula_structural   CeHfO4
_chemical_formula_sum   'Ce4 Hf4 O16'
_cell_volume   319.56256275
_cell_formula_units_Z   4
loop_
 _symmetry_equiv_pos_site_id
 _symmetry_equiv_pos_as_xyz
  1  'x, y, z'
loop_
 _atom_site_type_symbol
 _atom_site_label
 _atom_site_symmetry_multiplicity
 _atom_site_fract_x
 _atom_site_fract_y
 _atom_site_fract_z
 _atom_site_occupancy
  Ce  Ce0  1  0.27257600  0.38524900  0.35301700  1
  Ce  Ce1  1  0.22742400  0.88524900  0.35301700  1
  Ce  Ce2  1  0.77257600  0.11475100  0.64698300  1
  Ce  Ce3  1  0.72742400  0.61475100  0.64698300  1
  Hf  Hf0  1  0.77254300  0.18519500  0.15344900  1
  Hf  Hf1  1  0.72745700  0.68519500  0.15344900  1
  Hf  Hf2  1  0.27254300  0.31480500  0.84655100  1
  Hf  Hf3  1  0.22745700  0.81480500  0.84655100  1
  O  O0  1  0.09957700  0.31570400  0.08049500  1
  O  O1  1  0.40042300  0.81570400  0.08049500  1
  O  O2  1  0.60921400  0.42817100  0.17657900  1
  O  O3  1  0.89078600  0.92817100  0.17657900  1
  O  O4  1  0.49021400  0.11419000  0.33244700  1
  O  O5  1  0.99033200  0.16591300  0.39683500  1
  O  O6  1  0.00978600  0.61419000  0.33244700  1
  O  O7  1  0.50966800  0.66591300  0.39683500  1
  O  O8  1  0.49033200  0.33408700  0.60316500  1
  O  O9  1  0.99021400  0.38581000  0.66755300  1
  O  O10  1  0.00966800  0.83408700  0.60316500  1
  O  O11  1  0.50978600  0.88581000  0.66755300  1
  O  O12  1  0.10921400  0.07182900  0.82342100  1
  O  O13  1  0.39078600  0.57182900  0.82342100  1
  O  O14  1  0.59957700  0.18429600  0.91950500  1
  O  O15  1  0.90042300  0.68429600  0.91950500  1
loop_
_geom_bond_atom_site_label_1
_geom_bond_atom_site_label_2
_geom_bond_distance
_geom_bond_site_symmetry_2
Ce0 O6 2.257330 1_555
Ce0 O8 2.257421 1_555
Ce0 O5 2.274668 1_455
Ce0 O2 2.276089 1_555
Ce0 O0 2.415883 1_555
Ce0 O4 2.418112 1_555
Ce0 O7 2.569063 1_555
Ce0 O9 2.867838 1_455
Ce1 O4 2.257330 1_565
Ce1 O10 2.257421 1_555
Ce1 O7 2.274668 1_555
Ce1 O3 2.276089 1_455
Ce1 O1 2.415883 1_555
Ce1 O6 2.418112 1_555
Ce1 O5 2.569063 1_465
Ce1 O11 2.867838 1_555
Ce2 O11 2.257330 1_545
Ce2 O5 2.257421 1_555
Ce2 O8 2.274668 1_555
Ce2 O12 2.276089 1_655
Ce2 O14 2.415883 1_555
Ce2 O9 2.418112 1_555
Ce2 O10 2.569063 1_645
Ce2 O4 2.867838 1_555
Ce3 O9 2.257330 1_555
Ce3 O7 2.257421 1_555
Ce3 O10 2.274668 1_655
Ce3 O13 2.276089 1_555
Ce3 O15 2.415883 1_555
Ce3 O11 2.418112 1_555
Ce3 O8 2.569063 1_555
Ce3 O6 2.867838 1_655
Hf0 O14 2.033613 1_554
Hf0 O3 2.069168 1_545
Hf0 O0 2.081724 1_655
Hf0 O4 2.090612 1_555
Hf0 O2 2.095646 1_555
Hf0 O5 2.207540 1_555
Hf1 O15 2.033613 1_554
Hf1 O2 2.069168 1_555
Hf1 O1 2.081724 1_555
Hf1 O6 2.090612 1_655
Hf1 O3 2.095646 1_555
Hf1 O7 2.207540 1_555
Hf2 O0 2.033613 1_556
Hf2 O13 2.069168 1_555
Hf2 O14 2.081724 1_555
Hf2 O9 2.090612 1_455
Hf2 O12 2.095646 1_555
Hf2 O8 2.207540 1_555
Hf3 O1 2.033613 1_556
Hf3 O12 2.069168 1_565
Hf3 O15 2.081724 1_455
Hf3 O11 2.090612 1_555
Hf3 O13 2.095646 1_555
Hf3 O10 2.207540 1_555
