# generated using pymatgen
data_Li2Fe3CoO8
_symmetry_space_group_name_H-M   'P 1'
_cell_length_a   8.11536000
_cell_length_b   8.11536000
_cell_length_c   8.11536000
_cell_angle_alpha   90.00000000
_cell_angle_beta   90.00000000
_cell_angle_gamma   90.00000000
_symmetry_Int_Tables_number   1
_chemical_formula_structural   Li2Fe3CoO8
_chemical_formula_sum   'Li8 Fe12 Co4 O32'
_cell_volume   534.47004551
_cell_formula_units_Z   4
loop_
 _symmetry_equiv_pos_site_id
 _symmetry_equiv_pos_as_xyz
  1  'x, y, z'
loop_
 _atom_site_type_symbol
 _atom_site_label
 _atom_site_symmetry_multiplicity
 _atom_site_fract_x
 _atom_site_fract_y
 _atom_site_fract_z
 _atom_site_occupancy
  Li  Li0  1  0.12567600  0.87432400  0.37432400  1
  Li  Li1  1  0.25158700  0.75158700  0.74841300  1
  Li  Li2  1  0.24841300  0.24841300  0.24841300  1
  Li  Li3  1  0.37432400  0.12567600  0.87432400  1
  Li  Li4  1  0.62567600  0.62567600  0.62567600  1
  Li  Li5  1  0.75158700  0.74841300  0.25158700  1
  Li  Li6  1  0.74841300  0.25158700  0.75158700  1
  Li  Li7  1  0.87432400  0.37432400  0.12567600  1
  Fe  Fe0  1  0.12698600  0.62042100  0.12010800  1
  Fe  Fe1  1  0.12042100  0.37989200  0.87301400  1
  Fe  Fe2  1  0.12010800  0.12698600  0.62042100  1
  Fe  Fe3  1  0.37989200  0.87301400  0.12042100  1
  Fe  Fe4  1  0.37957900  0.62010800  0.37301400  1
  Fe  Fe5  1  0.37301400  0.37957900  0.62010800  1
  Fe  Fe6  1  0.62698600  0.87957900  0.87989200  1
  Fe  Fe7  1  0.62042100  0.12010800  0.12698600  1
  Fe  Fe8  1  0.62010800  0.37301400  0.37957900  1
  Fe  Fe9  1  0.87989200  0.62698600  0.87957900  1
  Fe  Fe10  1  0.87957900  0.87989200  0.62698600  1
  Fe  Fe11  1  0.87301400  0.12042100  0.37989200  1
  Co  Co0  1  0.99455600  0.50544400  0.49455600  1
  Co  Co1  1  0.50544400  0.49455600  0.99455600  1
  Co  Co2  1  0.49455600  0.99455600  0.50544400  1
  Co  Co3  1  0.00544400  0.00544400  0.00544400  1
  O  O0  1  0.10421000  0.12751300  0.39486900  1
  O  O1  1  0.10513100  0.89579000  0.62751300  1
  O  O2  1  0.11469100  0.61469100  0.88530900  1
  O  O3  1  0.12751300  0.39486900  0.10421000  1
  O  O4  1  0.12198600  0.14437800  0.86238600  1
  O  O5  1  0.13295300  0.36704700  0.63295300  1
  O  O6  1  0.13761400  0.62198600  0.35562200  1
  O  O7  1  0.14437800  0.86238600  0.12198600  1
  O  O8  1  0.35562200  0.13761400  0.62198600  1
  O  O9  1  0.36238600  0.37801400  0.85562200  1
  O  O10  1  0.36704700  0.63295300  0.13295300  1
  O  O11  1  0.37801400  0.85562200  0.36238600  1
  O  O12  1  0.37248700  0.60513100  0.60421000  1
  O  O13  1  0.38530900  0.38530900  0.38530900  1
  O  O14  1  0.39486900  0.10421000  0.12751300  1
  O  O15  1  0.39579000  0.87248700  0.89486900  1
  O  O16  1  0.60421000  0.37248700  0.60513100  1
  O  O17  1  0.60513100  0.60421000  0.37248700  1
  O  O18  1  0.61469100  0.88530900  0.11469100  1
  O  O19  1  0.62751300  0.10513100  0.89579000  1
  O  O20  1  0.62198600  0.35562200  0.13761400  1
  O  O21  1  0.63295300  0.13295300  0.36704700  1
  O  O22  1  0.63761400  0.87801400  0.64437800  1
  O  O23  1  0.64437800  0.63761400  0.87801400  1
  O  O24  1  0.85562200  0.36238600  0.37801400  1
  O  O25  1  0.86238600  0.12198600  0.14437800  1
  O  O26  1  0.86704700  0.86704700  0.86704700  1
  O  O27  1  0.87801400  0.64437800  0.63761400  1
  O  O28  1  0.87248700  0.89486900  0.39579000  1
  O  O29  1  0.88530900  0.11469100  0.61469100  1
  O  O30  1  0.89486900  0.39579000  0.87248700  1
  O  O31  1  0.89579000  0.62751300  0.10513100  1
loop_
_geom_bond_atom_site_label_1
_geom_bond_atom_site_label_2
_geom_bond_distance
_geom_bond_site_symmetry_2
Li0 O11 2.055715 1_555
Li0 O7 2.055715 1_555
Li0 O6 2.055715 1_555
Li0 O28 2.068821 1_455
Li0 O0 2.068821 1_565
Li0 O1 2.068821 1_555
Li1 O2 1.924240 1_555
Li1 O15 1.935146 1_555
Li1 O12 1.935146 1_555
Li1 O1 1.935146 1_555
Li2 O13 1.924240 1_555
Li2 O0 1.935146 1_555
Li2 O14 1.935146 1_555
Li2 O3 1.935146 1_555
Li3 O9 2.055715 1_555
Li3 O4 2.055715 1_555
Li3 O8 2.055715 1_555
Li3 O15 2.068821 1_545
Li3 O14 2.068821 1_556
Li3 O19 2.068821 1_555
Li4 O22 2.055715 1_555
Li4 O23 2.055715 1_555
Li4 O27 2.055715 1_555
Li4 O16 2.068821 1_555
Li4 O17 2.068821 1_555
Li4 O12 2.068821 1_555
Li5 O18 1.924240 1_555
Li5 O28 1.935146 1_555
Li5 O17 1.935146 1_555
Li5 O31 1.935146 1_555
Li6 O29 1.924240 1_555
Li6 O30 1.935146 1_555
Li6 O16 1.935146 1_555
Li6 O19 1.935146 1_555
Li7 O24 2.055715 1_555
Li7 O25 2.055715 1_555
Li7 O20 2.055715 1_555
Li7 O30 2.068821 1_554
Li7 O3 2.068821 1_655
Li7 O31 2.068821 1_555
Fe0 O3 1.834982 1_555
Fe0 O31 1.881052 1_455
Fe0 O2 1.908656 1_554
Fe0 O6 1.913268 1_555
Fe0 O10 1.953617 1_555
Fe0 O7 1.968758 1_555
Fe1 O30 1.834982 1_455
Fe1 O3 1.881052 1_556
Fe1 O2 1.908656 1_555
Fe1 O4 1.913268 1_555
Fe1 O5 1.953617 1_555
Fe1 O9 1.968758 1_555
Fe2 O0 1.834982 1_555
Fe2 O1 1.881052 1_545
Fe2 O29 1.908656 1_455
Fe2 O8 1.913268 1_555
Fe2 O5 1.953617 1_555
Fe2 O4 1.968758 1_555
Fe3 O15 1.834982 1_554
Fe3 O14 1.881052 1_565
Fe3 O18 1.908656 1_555
Fe3 O7 1.913268 1_555
Fe3 O10 1.953617 1_555
Fe3 O11 1.968758 1_555
Fe4 O17 1.834982 1_555
Fe4 O12 1.881052 1_555
Fe4 O13 1.908656 1_555
Fe4 O11 1.913268 1_555
Fe4 O10 1.953617 1_555
Fe4 O6 1.968758 1_555
Fe5 O12 1.834982 1_555
Fe5 O16 1.881052 1_555
Fe5 O13 1.908656 1_555
Fe5 O9 1.913268 1_555
Fe5 O5 1.953617 1_555
Fe5 O8 1.968758 1_555
Fe6 O19 1.834982 1_565
Fe6 O15 1.881052 1_555
Fe6 O18 1.908656 1_556
Fe6 O22 1.913268 1_555
Fe6 O26 1.953617 1_555
Fe6 O23 1.968758 1_555
Fe7 O14 1.834982 1_555
Fe7 O19 1.881052 1_554
Fe7 O18 1.908656 1_545
Fe7 O20 1.913268 1_555
Fe7 O21 1.953617 1_555
Fe7 O25 1.968758 1_555
Fe8 O16 1.834982 1_555
Fe8 O17 1.881052 1_555
Fe8 O13 1.908656 1_555
Fe8 O24 1.913268 1_555
Fe8 O21 1.953617 1_555
Fe8 O20 1.968758 1_555
Fe9 O31 1.834982 1_556
Fe9 O30 1.881052 1_555
Fe9 O2 1.908656 1_655
Fe9 O23 1.913268 1_555
Fe9 O26 1.953617 1_555
Fe9 O27 1.968758 1_555
Fe10 O1 1.834982 1_655
Fe10 O28 1.881052 1_555
Fe10 O29 1.908656 1_565
Fe10 O27 1.913268 1_555
Fe10 O26 1.953617 1_555
Fe10 O22 1.968758 1_555
Fe11 O28 1.834982 1_545
Fe11 O0 1.881052 1_655
Fe11 O29 1.908656 1_555
Fe11 O25 1.913268 1_555
Fe11 O21 1.953617 1_555
Fe11 O24 1.968758 1_555
Co0 O6 1.874460 1_655
Co0 O27 1.874460 1_555
Co0 O24 1.874460 1_555
Co0 O5 1.945338 1_655
Co1 O20 1.874460 1_556
Co1 O23 1.874460 1_555
Co1 O9 1.874460 1_555
Co1 O10 1.945338 1_556
Co2 O8 1.874460 1_565
Co2 O22 1.874460 1_555
Co2 O11 1.874460 1_555
Co2 O21 1.945338 1_565
Co3 O7 1.874460 1_545
Co3 O25 1.874460 1_455
Co3 O4 1.874460 1_554
Co3 O26 1.945338 1_444
