# generated using pymatgen
data_KB6P(H2O7)2
_symmetry_space_group_name_H-M   'P 1'
_cell_length_a   12.27398100
_cell_length_b   12.27398100
_cell_length_c   7.68284200
_cell_angle_alpha   90.00000000
_cell_angle_beta   90.00000000
_cell_angle_gamma   90.00000000
_symmetry_Int_Tables_number   1
_chemical_formula_structural   KB6P(H2O7)2
_chemical_formula_sum   'K4 B24 P4 H16 O56'
_cell_volume   1157.42483067
_cell_formula_units_Z   4
loop_
 _symmetry_equiv_pos_site_id
 _symmetry_equiv_pos_as_xyz
  1  'x, y, z'
loop_
 _atom_site_type_symbol
 _atom_site_label
 _atom_site_symmetry_multiplicity
 _atom_site_fract_x
 _atom_site_fract_y
 _atom_site_fract_z
 _atom_site_occupancy
  K  K0  1  0.00000000  0.50000000  0.88821700  1
  K  K1  1  0.00000000  0.50000000  0.38821700  1
  K  K2  1  0.50000000  0.00000000  0.11178300  1
  K  K3  1  0.50000000  0.00000000  0.61178300  1
  B  B0  1  0.82132200  0.30385700  0.18507100  1
  B  B1  1  0.17867800  0.30385700  0.68507100  1
  B  B2  1  0.19614300  0.32132200  0.18507100  1
  B  B3  1  0.80385700  0.32132200  0.68507100  1
  B  B4  1  0.38401600  0.38401600  0.25000000  1
  B  B5  1  0.61598400  0.38401600  0.75000000  1
  B  B6  1  0.38401600  0.61598400  0.75000000  1
  B  B7  1  0.61598400  0.61598400  0.25000000  1
  B  B8  1  0.80385700  0.67867800  0.18507100  1
  B  B9  1  0.19614300  0.67867800  0.68507100  1
  B  B10  1  0.82132200  0.69614300  0.68507100  1
  B  B11  1  0.17867800  0.69614300  0.18507100  1
  B  B12  1  0.32132200  0.80385700  0.81492900  1
  B  B13  1  0.67867800  0.80385700  0.31492900  1
  B  B14  1  0.30385700  0.82132200  0.31492900  1
  B  B15  1  0.69614300  0.82132200  0.81492900  1
  B  B16  1  0.88401600  0.88401600  0.75000000  1
  B  B17  1  0.11598400  0.88401600  0.25000000  1
  B  B18  1  0.88401600  0.11598400  0.25000000  1
  B  B19  1  0.11598400  0.11598400  0.75000000  1
  B  B20  1  0.69614300  0.17867800  0.31492900  1
  B  B21  1  0.30385700  0.17867800  0.81492900  1
  B  B22  1  0.67867800  0.19614300  0.81492900  1
  B  B23  1  0.32132200  0.19614300  0.31492900  1
  P  P0  1  0.50000000  0.50000000  0.00000000  1
  P  P1  1  0.50000000  0.50000000  0.50000000  1
  P  P2  1  0.00000000  0.00000000  0.00000000  1
  P  P3  1  0.00000000  0.00000000  0.50000000  1
  H  H0  1  0.04048200  0.28420300  0.13455000  1
  H  H1  1  0.95951800  0.28420300  0.63455000  1
  H  H2  1  0.78420300  0.45951800  0.13455000  1
  H  H3  1  0.21579700  0.45951800  0.63455000  1
  H  H4  1  0.21579700  0.54048200  0.13455000  1
  H  H5  1  0.78420300  0.54048200  0.63455000  1
  H  H6  1  0.95951800  0.71579700  0.13455000  1
  H  H7  1  0.04048200  0.71579700  0.63455000  1
  H  H8  1  0.45951800  0.78420300  0.36545000  1
  H  H9  1  0.54048200  0.78420300  0.86545000  1
  H  H10  1  0.71579700  0.95951800  0.36545000  1
  H  H11  1  0.28420300  0.95951800  0.86545000  1
  H  H12  1  0.28420300  0.04048200  0.36545000  1
  H  H13  1  0.71579700  0.04048200  0.86545000  1
  H  H14  1  0.45951800  0.21579700  0.86545000  1
  H  H15  1  0.54048200  0.21579700  0.36545000  1
  O  O0  1  0.40142300  0.27347800  0.31723400  1
  O  O1  1  0.59857700  0.27347800  0.81723400  1
  O  O2  1  0.28180000  0.28180000  0.75000000  1
  O  O3  1  0.71820000  0.28180000  0.25000000  1
  O  O4  1  0.09338800  0.34458600  0.12333200  1
  O  O5  1  0.90661200  0.34458600  0.62333200  1
  O  O6  1  0.46696300  0.40033700  0.11060600  1
  O  O7  1  0.53303700  0.40033700  0.61060600  1
  O  O8  1  0.27347800  0.40142300  0.18276600  1
  O  O9  1  0.72652200  0.40142300  0.68276600  1
  O  O10  1  0.84458600  0.40661200  0.12333200  1
  O  O11  1  0.15541400  0.40661200  0.62333200  1
  O  O12  1  0.40033700  0.46696300  0.38939400  1
  O  O13  1  0.59966300  0.46696300  0.88939400  1
  O  O14  1  0.59966300  0.53303700  0.38939400  1
  O  O15  1  0.40033700  0.53303700  0.88939400  1
  O  O16  1  0.84458600  0.59338800  0.62333200  1
  O  O17  1  0.15541400  0.59338800  0.12333200  1
  O  O18  1  0.27347800  0.59857700  0.68276600  1
  O  O19  1  0.72652200  0.59857700  0.18276600  1
  O  O20  1  0.46696300  0.59966300  0.61060600  1
  O  O21  1  0.53303700  0.59966300  0.11060600  1
  O  O22  1  0.90661200  0.65541400  0.12333200  1
  O  O23  1  0.09338800  0.65541400  0.62333200  1
  O  O24  1  0.71820000  0.71820000  0.75000000  1
  O  O25  1  0.28180000  0.71820000  0.25000000  1
  O  O26  1  0.40142300  0.72652200  0.81723400  1
  O  O27  1  0.59857700  0.72652200  0.31723400  1
  O  O28  1  0.90142300  0.77347800  0.68276600  1
  O  O29  1  0.09857700  0.77347800  0.18276600  1
  O  O30  1  0.78180000  0.78180000  0.25000000  1
  O  O31  1  0.21820000  0.78180000  0.75000000  1
  O  O32  1  0.40661200  0.84458600  0.37666800  1
  O  O33  1  0.59338800  0.84458600  0.87666800  1
  O  O34  1  0.96696300  0.90033700  0.88939400  1
  O  O35  1  0.03303700  0.90033700  0.38939400  1
  O  O36  1  0.77347800  0.90142300  0.81723400  1
  O  O37  1  0.22652200  0.90142300  0.31723400  1
  O  O38  1  0.34458600  0.90661200  0.87666800  1
  O  O39  1  0.65541400  0.90661200  0.37666800  1
  O  O40  1  0.90033700  0.96696300  0.61060600  1
  O  O41  1  0.09966300  0.96696300  0.11060600  1
  O  O42  1  0.90033700  0.03303700  0.11060600  1
  O  O43  1  0.09966300  0.03303700  0.61060600  1
  O  O44  1  0.34458600  0.09338800  0.37666800  1
  O  O45  1  0.65541400  0.09338800  0.87666800  1
  O  O46  1  0.77347800  0.09857700  0.31723400  1
  O  O47  1  0.22652200  0.09857700  0.81723400  1
  O  O48  1  0.96696300  0.09966300  0.38939400  1
  O  O49  1  0.03303700  0.09966300  0.88939400  1
  O  O50  1  0.40661200  0.15541400  0.87666800  1
  O  O51  1  0.59338800  0.15541400  0.37666800  1
  O  O52  1  0.78180000  0.21820000  0.75000000  1
  O  O53  1  0.21820000  0.21820000  0.25000000  1
  O  O54  1  0.90142300  0.22652200  0.18276600  1
  O  O55  1  0.09857700  0.22652200  0.68276600  1
loop_
_geom_bond_atom_site_label_1
_geom_bond_atom_site_label_2
_geom_bond_distance
_geom_bond_site_symmetry_2
K0 O4 2.866273 1_556
K0 O17 2.866273 1_556
K0 O22 2.866273 1_456
K0 O10 2.866273 1_456
K0 O11 3.015646 1_555
K0 O5 3.015646 1_455
K0 O23 3.015646 1_555
K0 O16 3.015646 1_455
K1 O5 2.866273 1_455
K1 O11 2.866273 1_555
K1 O23 2.866273 1_555
K1 O16 2.866273 1_455
K1 O17 3.015646 1_555
K1 O4 3.015646 1_555
K1 O22 3.015646 1_455
K1 O10 3.015646 1_455
K2 O50 2.866273 1_554
K2 O38 2.866273 1_544
K2 O33 2.866273 1_544
K2 O45 2.866273 1_554
K2 O44 3.015646 1_555
K2 O51 3.015646 1_555
K2 O39 3.015646 1_545
K2 O32 3.015646 1_545
K3 O51 2.866273 1_555
K3 O44 2.866273 1_555
K3 O39 2.866273 1_545
K3 O32 2.866273 1_545
K3 O50 3.015646 1_555
K3 O38 3.015646 1_545
K3 O45 3.015646 1_555
K3 O33 3.015646 1_545
B0 O54 1.366715 1_555
B0 O10 1.377382 1_555
B0 O3 1.387146 1_555
B1 O55 1.366715 1_555
B1 O11 1.377382 1_555
B1 O2 1.387146 1_555
B2 O8 1.366715 1_555
B2 O4 1.377382 1_555
B2 O53 1.387146 1_555
B3 O9 1.366715 1_555
B3 O5 1.377382 1_555
B3 O52 1.387146 1_555
B4 O8 1.467384 1_555
B4 O0 1.467384 1_555
B4 O6 1.491158 1_555
B4 O12 1.491158 1_555
B5 O9 1.467384 1_555
B5 O1 1.467384 1_555
B5 O13 1.491158 1_555
B5 O7 1.491158 1_555
B6 O26 1.467384 1_555
B6 O18 1.467384 1_555
B6 O20 1.491158 1_555
B6 O15 1.491158 1_555
B7 O19 1.467384 1_555
B7 O27 1.467384 1_555
B7 O21 1.491158 1_555
B7 O14 1.491158 1_555
B8 O19 1.366715 1_555
B8 O22 1.377382 1_555
B8 O30 1.387146 1_555
B9 O18 1.366715 1_555
B9 O23 1.377382 1_555
B9 O31 1.387146 1_555
B10 O28 1.366715 1_555
B10 O16 1.377382 1_555
B10 O24 1.387146 1_555
B11 O29 1.366715 1_555
B11 O17 1.377382 1_555
B11 O25 1.387146 1_555
B12 O26 1.366715 1_555
B12 O38 1.377382 1_555
B12 O31 1.387146 1_555
B13 O27 1.366715 1_555
B13 O39 1.377382 1_555
B13 O30 1.387146 1_555
B14 O37 1.366715 1_555
B14 O32 1.377382 1_555
B14 O25 1.387146 1_555
B15 O36 1.366715 1_555
B15 O33 1.377382 1_555
B15 O24 1.387146 1_555
B16 O28 1.467384 1_555
B16 O36 1.467384 1_555
B16 O34 1.491158 1_555
B16 O40 1.491158 1_555
B17 O37 1.467384 1_555
B17 O29 1.467384 1_555
B17 O41 1.491158 1_555
B17 O35 1.491158 1_555
B18 O54 1.467384 1_555
B18 O46 1.467384 1_555
B18 O48 1.491158 1_555
B18 O42 1.491158 1_555
B19 O55 1.467384 1_555
B19 O47 1.467384 1_555
B19 O49 1.491158 1_555
B19 O43 1.491158 1_555
B20 O46 1.366715 1_555
B20 O51 1.377382 1_555
B20 O3 1.387146 1_555
B21 O47 1.366715 1_555
B21 O50 1.377382 1_555
B21 O2 1.387146 1_555
B22 O1 1.366715 1_555
B22 O45 1.377382 1_555
B22 O52 1.387146 1_555
B23 O0 1.366715 1_555
B23 O44 1.377382 1_555
B23 O53 1.387146 1_555
H0 O4 0.989138 1_555
H1 O5 0.989138 1_555
H2 O10 0.989138 1_555
H3 O11 0.989138 1_555
H4 O17 0.989138 1_555
H5 O16 0.989138 1_555
H6 O22 0.989138 1_555
H7 O23 0.989138 1_555
H8 O32 0.989138 1_555
H9 O33 0.989138 1_555
H10 O39 0.989138 1_555
H11 O38 0.989138 1_555
H12 O44 0.989138 1_555
H13 O45 0.989138 1_555
H14 O50 0.989138 1_555
H15 O51 0.989138 1_555
O6 P0 1.543665 1_555
O7 P1 1.543665 1_555
O12 P1 1.543665 1_555
O13 P0 1.543665 1_556
O14 P1 1.543665 1_555
O15 P0 1.543665 1_556
O20 P1 1.543665 1_555
O21 P0 1.543665 1_555
O34 P2 1.543665 1_666
O35 P3 1.543665 1_565
O40 P3 1.543665 1_665
O41 P2 1.543665 1_565
O42 P2 1.543665 1_655
O43 P3 1.543665 1_555
O48 P3 1.543665 1_655
O49 P2 1.543665 1_556
