# generated using pymatgen
data_LiVCO4
_symmetry_space_group_name_H-M   'P 1'
_cell_length_a   3.18529243
_cell_length_b   9.42964291
_cell_length_c   9.36382990
_cell_angle_alpha   90.04973581
_cell_angle_beta   90.00158004
_cell_angle_gamma   88.50205553
_symmetry_Int_Tables_number   1
_chemical_formula_structural   LiVCO4
_chemical_formula_sum   'Li4 V4 C4 O16'
_cell_volume   281.15736801
_cell_formula_units_Z   4
loop_
 _symmetry_equiv_pos_site_id
 _symmetry_equiv_pos_as_xyz
  1  'x, y, z'
loop_
 _atom_site_type_symbol
 _atom_site_label
 _atom_site_symmetry_multiplicity
 _atom_site_fract_x
 _atom_site_fract_y
 _atom_site_fract_z
 _atom_site_occupancy
  Li  Li0  1  0.25263000  0.40862400  0.80806300  1
  Li  Li1  1  0.25279600  0.90839100  0.69192400  1
  Li  Li2  1  0.74719400  0.09159500  0.30806100  1
  Li  Li3  1  0.74736600  0.59135000  0.19196100  1
  V  V0  1  0.23984800  0.88131100  0.06157600  1
  V  V1  1  0.76013600  0.11867000  0.93842500  1
  V  V2  1  0.24025900  0.38102600  0.43873400  1
  V  V3  1  0.75980300  0.61896900  0.56129300  1
  C  C0  1  0.25576800  0.33401100  0.13013300  1
  C  C1  1  0.25600400  0.83401100  0.36978600  1
  C  C2  1  0.74398100  0.16599900  0.63022500  1
  C  C3  1  0.74423300  0.66601500  0.86984700  1
  O  O0  1  0.25139900  0.99845400  0.88735000  1
  O  O1  1  0.25151200  0.49883100  0.61268100  1
  O  O2  1  0.74854100  0.50116100  0.38731900  1
  O  O3  1  0.74861600  0.00152700  0.11265600  1
  O  O4  1  0.24006600  0.26065100  0.24880400  1
  O  O5  1  0.24093400  0.76045700  0.25117600  1
  O  O6  1  0.75909200  0.23954700  0.74883000  1
  O  O7  1  0.75994200  0.73938900  0.75118800  1
  O  O8  1  0.26532700  0.26006200  0.00708700  1
  O  O9  1  0.26533900  0.76028600  0.49285500  1
  O  O10  1  0.73467100  0.23971200  0.50714600  1
  O  O11  1  0.73469500  0.73993800  0.99291300  1
  O  O12  1  0.25690000  0.46682400  0.12768400  1
  O  O13  1  0.25685400  0.96683100  0.37212900  1
  O  O14  1  0.74306300  0.03317100  0.62788400  1
  O  O15  1  0.74304700  0.53319500  0.87227200  1
loop_
_geom_bond_atom_site_label_1
_geom_bond_atom_site_label_2
_geom_bond_distance
_geom_bond_site_symmetry_2
Li0 O1 2.018234 1_555
Li0 O15 2.067642 1_455
Li0 O15 2.067897 1_555
Li0 O6 2.305665 1_555
Li0 O8 2.332121 1_556
Li0 O6 2.334605 1_455
Li1 O0 2.016689 1_555
Li1 O14 2.068847 1_565
Li1 O14 2.069197 1_465
Li1 O7 2.307389 1_555
Li1 O9 2.327932 1_555
Li1 O7 2.333351 1_455
Li2 O3 2.016530 1_555
Li2 O13 2.069011 1_645
Li2 O13 2.069013 1_545
Li2 O4 2.307677 1_555
Li2 O10 2.328120 1_555
Li2 O4 2.333732 1_655
Li3 O2 2.017957 1_555
Li3 O12 2.067475 1_655
Li3 O12 2.067953 1_555
Li3 O5 2.305750 1_555
Li3 O11 2.332448 1_554
Li3 O5 2.334829 1_655
C0 O12 1.252708 1_555
C0 O4 1.311098 1_555
C0 O8 1.346177 1_555
C1 O13 1.252692 1_555
C1 O5 1.310457 1_555
C1 O9 1.346297 1_555
C2 O14 1.252773 1_555
C2 O6 1.310394 1_555
C2 O10 1.346318 1_555
C3 O15 1.252775 1_555
C3 O7 1.311073 1_555
C3 O11 1.346210 1_555
O0 V1 1.966920 1_465
O0 V0 1.971884 1_556
O0 V1 2.057854 1_565
O1 V3 1.968794 1_455
O1 V2 1.971612 1_555
O1 V3 2.057458 1_555
O2 V2 1.968862 1_655
O2 V3 1.971837 1_555
O2 V2 2.057478 1_555
O3 V0 1.966854 1_645
O3 V1 1.971920 1_554
O3 V0 2.057944 1_545
O4 V2 2.109012 1_555
O5 V0 2.110453 1_555
O6 V1 2.110532 1_555
O7 V3 2.108962 1_555
O8 V1 2.136311 1_554
O8 V1 2.211580 1_454
O9 V3 2.135130 1_555
O9 V3 2.212046 1_455
O10 V2 2.134920 1_555
O10 V2 2.212081 1_655
O11 V0 2.136293 1_556
O11 V0 2.211381 1_656
