# generated using pymatgen
data_Na6Sn2O7
_symmetry_space_group_name_H-M   'P 1'
_cell_length_a   6.63152993
_cell_length_b   6.63152993
_cell_length_c   11.05000412
_cell_angle_alpha   79.24502142
_cell_angle_beta   79.24502142
_cell_angle_gamma   59.97360460
_symmetry_Int_Tables_number   1
_chemical_formula_structural   Na6Sn2O7
_chemical_formula_sum   'Na12 Sn4 O14'
_cell_volume   410.85057018
_cell_formula_units_Z   2
loop_
 _symmetry_equiv_pos_site_id
 _symmetry_equiv_pos_as_xyz
  1  'x, y, z'
loop_
 _atom_site_type_symbol
 _atom_site_label
 _atom_site_symmetry_multiplicity
 _atom_site_fract_x
 _atom_site_fract_y
 _atom_site_fract_z
 _atom_site_occupancy
  Na  Na0  1  0.53005900  0.32611100  0.12213500  1
  Na  Na1  1  0.07598400  0.78501000  0.09663400  1
  Na  Na2  1  0.32611100  0.53005900  0.62213500  1
  Na  Na3  1  0.78501000  0.07598400  0.59663400  1
  Na  Na4  1  0.67194500  0.92529800  0.38054600  1
  Na  Na5  1  0.92529800  0.67194500  0.88054600  1
  Na  Na6  1  0.07470200  0.32805500  0.11945400  1
  Na  Na7  1  0.32805500  0.07470200  0.61945400  1
  Na  Na8  1  0.21499000  0.92401600  0.40336600  1
  Na  Na9  1  0.67388900  0.46994100  0.37786500  1
  Na  Na10  1  0.92401600  0.21499000  0.90336600  1
  Na  Na11  1  0.46994100  0.67388900  0.87786500  1
  Sn  Sn0  1  0.17579300  0.46973600  0.37372200  1
  Sn  Sn1  1  0.46973600  0.17579300  0.87372200  1
  Sn  Sn2  1  0.53026400  0.82420700  0.12627800  1
  Sn  Sn3  1  0.82420700  0.53026400  0.62627800  1
  O  O0  1  0.46912600  0.27685700  0.45861300  1
  O  O1  1  0.27685700  0.46912600  0.95861300  1
  O  O2  1  0.71884300  0.99604200  0.00346100  1
  O  O3  1  0.92147200  0.60617100  0.25846300  1
  O  O4  1  0.39382900  0.07852800  0.24153700  1
  O  O5  1  0.99604200  0.71884300  0.50346100  1
  O  O6  1  0.00395800  0.28115700  0.49653900  1
  O  O7  1  0.60617100  0.92147200  0.75846300  1
  O  O8  1  0.07852800  0.39382900  0.74153700  1
  O  O9  1  0.28115700  0.00395800  0.99653900  1
  O  O10  1  0.72314300  0.53087400  0.04138700  1
  O  O11  1  0.34385200  0.65614800  0.25000000  1
  O  O12  1  0.53087400  0.72314300  0.54138700  1
  O  O13  1  0.65614800  0.34385200  0.75000000  1
loop_
_geom_bond_atom_site_label_1
_geom_bond_atom_site_label_2
_geom_bond_distance
_geom_bond_site_symmetry_2
Na0 O10 2.267386 1_555
Na0 O4 2.341740 1_555
Na0 O2 2.407103 1_545
Na0 O1 2.425465 1_554
Na0 O11 2.471742 1_555
Na1 O3 2.322707 1_455
Na1 O2 2.383897 1_455
Na1 O11 2.412796 1_555
Na1 O9 2.449265 1_564
Na1 O1 2.475906 1_554
Na2 O12 2.267386 1_555
Na2 O8 2.341740 1_555
Na2 O5 2.407103 1_455
Na2 O0 2.425465 1_555
Na2 O13 2.471742 1_555
Na3 O7 2.322707 1_545
Na3 O5 2.383897 1_545
Na3 O13 2.412796 1_555
Na3 O6 2.449265 1_655
Na3 O0 2.475906 1_555
Na4 O0 2.273290 1_565
Na4 O4 2.322229 1_565
Na4 O12 2.361467 1_555
Na4 O3 2.400918 1_555
Na4 O5 2.406047 1_555
Na5 O1 2.273290 1_655
Na5 O8 2.322229 1_655
Na5 O10 2.361467 1_556
Na5 O7 2.400918 1_555
Na5 O2 2.406047 1_556
Na6 O10 2.273290 1_455
Na6 O3 2.322229 1_455
Na6 O1 2.361467 1_554
Na6 O4 2.400918 1_555
Na6 O9 2.406047 1_554
Na7 O12 2.273290 1_545
Na7 O7 2.322229 1_545
Na7 O0 2.361467 1_555
Na7 O8 2.400918 1_555
Na7 O6 2.406047 1_555
Na8 O4 2.322707 1_565
Na8 O6 2.383897 1_565
Na8 O11 2.412796 1_555
Na8 O5 2.449265 1_455
Na8 O12 2.475906 1_555
Na9 O0 2.267386 1_555
Na9 O3 2.341740 1_555
Na9 O6 2.407103 1_655
Na9 O12 2.425465 1_555
Na9 O11 2.471742 1_555
Na10 O8 2.322707 1_655
Na10 O9 2.383897 1_655
Na10 O13 2.412796 1_555
Na10 O2 2.449265 1_546
Na10 O10 2.475906 1_556
Na11 O1 2.267386 1_555
Na11 O7 2.341740 1_555
Na11 O9 2.407103 1_565
Na11 O10 2.425465 1_556
Na11 O13 2.471742 1_555
O0 Sn0 2.010739 1_555
O1 Sn1 2.010739 1_555
O2 Sn1 2.116718 1_564
O2 Sn2 2.218071 1_555
O3 Sn0 2.032132 1_655
O4 Sn2 2.032132 1_545
O5 Sn0 2.116718 1_655
O5 Sn3 2.218071 1_555
O6 Sn3 2.116718 1_455
O6 Sn0 2.218071 1_555
O7 Sn1 2.032132 1_565
O8 Sn3 2.032132 1_455
O9 Sn2 2.116718 1_546
O9 Sn1 2.218071 1_555
O10 Sn2 2.010739 1_555
O11 Sn0 2.195159 1_555
O11 Sn2 2.195159 1_555
O12 Sn3 2.010739 1_555
O13 Sn1 2.195159 1_555
O13 Sn3 2.195159 1_555
