# generated using pymatgen
data_Sn2(SO4)3
_symmetry_space_group_name_H-M   'P 1'
_cell_length_a   9.50476519
_cell_length_b   9.50476519
_cell_length_c   9.50476528
_cell_angle_alpha   52.51885514
_cell_angle_beta   52.51885515
_cell_angle_gamma   52.51885582
_symmetry_Int_Tables_number   1
_chemical_formula_structural   Sn2(SO4)3
_chemical_formula_sum   'Sn4 S6 O24'
_cell_volume   500.53967615
_cell_formula_units_Z   2
loop_
 _symmetry_equiv_pos_site_id
 _symmetry_equiv_pos_as_xyz
  1  'x, y, z'
loop_
 _atom_site_type_symbol
 _atom_site_label
 _atom_site_symmetry_multiplicity
 _atom_site_fract_x
 _atom_site_fract_y
 _atom_site_fract_z
 _atom_site_occupancy
  Sn  Sn0  1  0.86443599  0.86443599  0.86443599  1
  Sn  Sn1  1  0.66207454  0.66207454  0.66207454  1
  Sn  Sn2  1  0.33792546  0.33792546  0.33792546  1
  Sn  Sn3  1  0.13556401  0.13556401  0.13556401  1
  S  S0  1  0.26637636  0.56503290  0.93821732  1
  S  S1  1  0.06178268  0.73362364  0.43496710  1
  S  S2  1  0.43496710  0.06178268  0.73362364  1
  S  S3  1  0.56503290  0.93821732  0.26637636  1
  S  S4  1  0.93821732  0.26637636  0.56503290  1
  S  S5  1  0.73362364  0.43496710  0.06178268  1
  O  O0  1  0.48017436  0.85572483  0.79052357  1
  O  O1  1  0.79052357  0.48017436  0.85572483  1
  O  O2  1  0.23067540  0.44522235  0.92842872  1
  O  O3  1  0.15969629  0.76921422  0.85526015  1
  O  O4  1  0.85572483  0.79052357  0.48017436  1
  O  O5  1  0.23078578  0.14473985  0.84030371  1
  O  O6  1  0.07157128  0.76932460  0.55477765  1
  O  O7  1  0.47729695  0.52351802  0.84094163  1
  O  O8  1  0.15905837  0.52270305  0.47648198  1
  O  O9  1  0.55477765  0.07157128  0.76932460  1
  O  O10  1  0.14473985  0.84030371  0.23078578  1
  O  O11  1  0.47648198  0.15905837  0.52270305  1
  O  O12  1  0.52351802  0.84094163  0.47729695  1
  O  O13  1  0.85526015  0.15969629  0.76921422  1
  O  O14  1  0.44522235  0.92842872  0.23067540  1
  O  O15  1  0.84094163  0.47729695  0.52351802  1
  O  O16  1  0.52270305  0.47648198  0.15905837  1
  O  O17  1  0.92842872  0.23067540  0.44522235  1
  O  O18  1  0.76921422  0.85526015  0.15969629  1
  O  O19  1  0.14427517  0.20947643  0.51982564  1
  O  O20  1  0.84030371  0.23078578  0.14473985  1
  O  O21  1  0.76932460  0.55477765  0.07157128  1
  O  O22  1  0.20947643  0.51982564  0.14427517  1
  O  O23  1  0.51982564  0.14427517  0.20947643  1
loop_
_geom_bond_atom_site_label_1
_geom_bond_atom_site_label_2
_geom_bond_distance
_geom_bond_site_symmetry_2
O0 S2 1.510807 1_565
O0 Sn1 2.039768 1_555
O1 S5 1.510807 1_556
O1 Sn1 2.039768 1_555
O2 S0 1.434654 1_555
O2 Sn3 2.715882 1_556
O3 S0 1.460153 1_555
O3 Sn0 2.325853 1_455
O4 S1 1.510807 1_655
O4 Sn1 2.039768 1_555
O5 S2 1.460153 1_555
O5 Sn3 2.325853 1_556
O6 S1 1.434655 1_555
O6 Sn0 2.715882 1_455
O7 S0 1.501694 1_555
O7 Sn1 2.040939 1_555
O8 S1 1.501694 1_555
O8 Sn2 2.040939 1_555
O9 S2 1.434654 1_555
O9 Sn0 2.715882 1_545
O10 S1 1.460153 1_555
O10 Sn3 2.325853 1_565
O11 S2 1.501694 1_555
O11 Sn2 2.040939 1_555
O12 S3 1.501694 1_555
O12 Sn1 2.040939 1_555
O13 S4 1.460153 1_555
O13 Sn0 2.325853 1_545
O14 S3 1.434654 1_555
O14 Sn3 2.715882 1_565
O15 S4 1.501694 1_555
O15 Sn1 2.040939 1_555
O16 S5 1.501694 1_555
O16 Sn2 2.040939 1_555
O17 S4 1.434655 1_555
O17 Sn3 2.715882 1_655
O18 S3 1.460153 1_555
O18 Sn0 2.325853 1_554
O19 S4 1.510807 1_455
O19 Sn2 2.039768 1_555
O20 S5 1.460153 1_555
O20 Sn3 2.325853 1_655
O21 S5 1.434654 1_555
O21 Sn0 2.715882 1_554
O22 S0 1.510807 1_554
O22 Sn2 2.039768 1_555
O23 S3 1.510807 1_545
O23 Sn2 2.039768 1_555
