# generated using pymatgen
data_CrFe3Co2(PO4)6
_symmetry_space_group_name_H-M   'P 1'
_cell_length_a   8.41403374
_cell_length_b   8.41403374
_cell_length_c   8.41403411
_cell_angle_alpha   61.82409773
_cell_angle_beta   61.82409773
_cell_angle_gamma   61.82410421
_symmetry_Int_Tables_number   1
_chemical_formula_structural   CrFe3Co2(PO4)6
_chemical_formula_sum   'Cr1 Fe3 Co2 P6 O24'
_cell_volume   438.41654163
_cell_formula_units_Z   1
loop_
 _symmetry_equiv_pos_site_id
 _symmetry_equiv_pos_as_xyz
  1  'x, y, z'
loop_
 _atom_site_type_symbol
 _atom_site_label
 _atom_site_symmetry_multiplicity
 _atom_site_fract_x
 _atom_site_fract_y
 _atom_site_fract_z
 _atom_site_occupancy
  Cr  Cr0  1  0.85839700  0.85839700  0.85839700  1
  Fe  Fe0  1  0.35469500  0.35469500  0.35469500  1
  Fe  Fe1  1  0.14498700  0.14498700  0.14498700  1
  Fe  Fe2  1  0.64465800  0.64465800  0.64465800  1
  Co  Co0  1  0.00181500  0.00181500  0.00181500  1
  Co  Co1  1  0.49978400  0.49978400  0.49978400  1
  P  P0  1  0.74984100  0.04545000  0.45624500  1
  P  P1  1  0.04545000  0.45624500  0.74984100  1
  P  P2  1  0.45624500  0.74984100  0.04545000  1
  P  P3  1  0.54697600  0.24874300  0.95183400  1
  P  P4  1  0.95183400  0.54697600  0.24874300  1
  P  P5  1  0.24874300  0.95183400  0.54697600  1
  O  O0  1  0.89133000  0.49662100  0.67702300  1
  O  O1  1  0.49662100  0.67702300  0.89133000  1
  O  O2  1  0.67702300  0.89133000  0.49662100  1
  O  O3  1  0.90555600  0.06042000  0.25412600  1
  O  O4  1  0.82065700  0.00288300  0.61293000  1
  O  O5  1  0.59491200  0.24779700  0.44111300  1
  O  O6  1  0.06042000  0.25412600  0.90555600  1
  O  O7  1  0.24779700  0.44111300  0.59491200  1
  O  O8  1  0.39187900  0.17613500  0.99464600  1
  O  O9  1  0.44111300  0.59491200  0.24779700  1
  O  O10  1  0.74880500  0.09166000  0.93692400  1
  O  O11  1  0.99464600  0.39187900  0.17613500  1
  O  O12  1  0.00288300  0.61293000  0.82065700  1
  O  O13  1  0.25412600  0.90555600  0.06042000  1
  O  O14  1  0.56237600  0.40399500  0.75037500  1
  O  O15  1  0.61293000  0.82065700  0.00288300  1
  O  O16  1  0.75037500  0.56237600  0.40399500  1
  O  O17  1  0.93692400  0.74880500  0.09166000  1
  O  O18  1  0.40399500  0.75037500  0.56237600  1
  O  O19  1  0.17613500  0.99464600  0.39187900  1
  O  O20  1  0.09166000  0.93692400  0.74880500  1
  O  O21  1  0.31886600  0.10792700  0.50760900  1
  O  O22  1  0.50760900  0.31886600  0.10792700  1
  O  O23  1  0.10792700  0.50760900  0.31886600  1
loop_
_geom_bond_atom_site_label_1
_geom_bond_atom_site_label_2
_geom_bond_distance
_geom_bond_site_symmetry_2
Cr0 O15 1.930839 1_556
Cr0 O4 1.930839 1_565
Cr0 O12 1.930839 1_655
Cr0 O20 2.019689 1_655
Cr0 O10 2.019689 1_565
Cr0 O17 2.019689 1_556
Fe0 O21 1.938914 1_555
Fe0 O22 1.938914 1_555
Fe0 O23 1.938914 1_555
Fe0 O9 2.115751 1_555
Fe0 O5 2.115751 1_555
Fe0 O7 2.115751 1_555
Fe1 O8 1.924508 1_554
Fe1 O19 1.924508 1_545
Fe1 O11 1.924508 1_455
Fe1 O3 2.097072 1_455
Fe1 O13 2.097072 1_545
Fe1 O6 2.097072 1_554
Fe2 O2 1.924947 1_555
Fe2 O1 1.924947 1_555
Fe2 O0 1.924947 1_555
Fe2 O14 2.100550 1_555
Fe2 O18 2.100550 1_555
Fe2 O16 2.100550 1_555
Co0 O6 2.096123 1_554
Co0 O13 2.096123 1_545
Co0 O3 2.096123 1_455
Co0 O17 2.142342 1_445
Co0 O10 2.142342 1_454
Co0 O20 2.142342 1_544
Co1 O7 2.095801 1_555
Co1 O5 2.095801 1_555
Co1 O9 2.095801 1_555
Co1 O16 2.101338 1_555
Co1 O18 2.101338 1_555
Co1 O14 2.101338 1_555
O0 P1 1.519913 1_655
O1 P2 1.519913 1_556
O2 P0 1.519913 1_565
O3 P0 1.572896 1_555
O4 P0 1.521760 1_555
O5 P0 1.571726 1_555
O6 P1 1.572896 1_555
O7 P1 1.571726 1_555
O8 P3 1.518925 1_555
O9 P2 1.571726 1_555
O10 P3 1.575524 1_555
O11 P4 1.518925 1_555
O12 P1 1.521760 1_555
O13 P2 1.572896 1_555
O14 P3 1.567754 1_555
O15 P2 1.521760 1_555
O16 P4 1.567754 1_555
O17 P4 1.575524 1_555
O18 P5 1.567754 1_555
O19 P5 1.518925 1_555
O20 P5 1.575524 1_555
O21 P5 1.522888 1_545
O22 P3 1.522888 1_554
O23 P4 1.522888 1_455
