# generated using pymatgen
data_Ba(HO)2
_symmetry_space_group_name_H-M   'P 1'
_cell_length_a   7.30199500
_cell_length_b   11.38269600
_cell_length_c   16.71623900
_cell_angle_alpha   90.00000000
_cell_angle_beta   90.00000000
_cell_angle_gamma   90.00000000
_symmetry_Int_Tables_number   1
_chemical_formula_structural   Ba(HO)2
_chemical_formula_sum   'Ba20 H40 O40'
_cell_volume   1389.39342800
_cell_formula_units_Z   20
loop_
 _symmetry_equiv_pos_site_id
 _symmetry_equiv_pos_as_xyz
  1  'x, y, z'
loop_
 _atom_site_type_symbol
 _atom_site_label
 _atom_site_symmetry_multiplicity
 _atom_site_fract_x
 _atom_site_fract_y
 _atom_site_fract_z
 _atom_site_occupancy
  Ba  Ba0  1  0.04159100  0.81327800  0.25000000  1
  Ba  Ba1  1  0.45840900  0.31327800  0.25000000  1
  Ba  Ba2  1  0.95840900  0.18672200  0.75000000  1
  Ba  Ba3  1  0.54159100  0.68672200  0.75000000  1
  Ba  Ba4  1  0.58199400  0.97787300  0.37545800  1
  Ba  Ba5  1  0.91800600  0.47787300  0.12454200  1
  Ba  Ba6  1  0.41800600  0.02212700  0.87545800  1
  Ba  Ba7  1  0.08199400  0.52212700  0.62454200  1
  Ba  Ba8  1  0.41800600  0.02212700  0.62454200  1
  Ba  Ba9  1  0.08199400  0.52212700  0.87545800  1
  Ba  Ba10  1  0.58199400  0.97787300  0.12454200  1
  Ba  Ba11  1  0.91800600  0.47787300  0.37545800  1
  Ba  Ba12  1  0.07398000  0.83443600  0.48772700  1
  Ba  Ba13  1  0.42602000  0.33443600  0.01227300  1
  Ba  Ba14  1  0.92602000  0.16556400  0.98772700  1
  Ba  Ba15  1  0.57398000  0.66556400  0.51227300  1
  Ba  Ba16  1  0.92602000  0.16556400  0.51227300  1
  Ba  Ba17  1  0.57398000  0.66556400  0.98772700  1
  Ba  Ba18  1  0.07398000  0.83443600  0.01227300  1
  Ba  Ba19  1  0.42602000  0.33443600  0.48772700  1
  H  H0  1  0.24951800  0.56105700  0.25000000  1
  H  H1  1  0.25048200  0.06105700  0.25000000  1
  H  H2  1  0.75048200  0.43894300  0.75000000  1
  H  H3  1  0.74951800  0.93894300  0.75000000  1
  H  H4  1  0.59459800  0.75112200  0.25000000  1
  H  H5  1  0.90540200  0.25112200  0.25000000  1
  H  H6  1  0.40540200  0.24887800  0.75000000  1
  H  H7  1  0.09459800  0.74887800  0.75000000  1
  H  H8  1  0.03949700  0.04822600  0.33883200  1
  H  H9  1  0.46050300  0.54822600  0.16116800  1
  H  H10  1  0.96050300  0.95177400  0.83883200  1
  H  H11  1  0.53949700  0.45177400  0.66116800  1
  H  H12  1  0.96050300  0.95177400  0.66116800  1
  H  H13  1  0.53949700  0.45177400  0.83883200  1
  H  H14  1  0.03949700  0.04822600  0.16116800  1
  H  H15  1  0.46050300  0.54822600  0.33883200  1
  H  H16  1  0.37258100  0.72307200  0.34936300  1
  H  H17  1  0.12741900  0.22307200  0.15063700  1
  H  H18  1  0.62741900  0.27692800  0.84936300  1
  H  H19  1  0.87258100  0.77692800  0.65063700  1
  H  H20  1  0.62741900  0.27692800  0.65063700  1
  H  H21  1  0.87258100  0.77692800  0.84936300  1
  H  H22  1  0.37258100  0.72307200  0.15063700  1
  H  H23  1  0.12741900  0.22307200  0.34936300  1
  H  H24  1  0.75964600  0.74094900  0.35421300  1
  H  H25  1  0.74035400  0.24094900  0.14578700  1
  H  H26  1  0.24035400  0.25905100  0.85421300  1
  H  H27  1  0.25964600  0.75905100  0.64578700  1
  H  H28  1  0.24035400  0.25905100  0.64578700  1
  H  H29  1  0.25964600  0.75905100  0.85421300  1
  H  H30  1  0.75964600  0.74094900  0.14578700  1
  H  H31  1  0.74035400  0.24094900  0.35421300  1
  H  H32  1  0.25005400  0.58511500  0.42843200  1
  H  H33  1  0.24994600  0.08511500  0.07156800  1
  H  H34  1  0.74994600  0.41488500  0.92843200  1
  H  H35  1  0.75005400  0.91488500  0.57156800  1
  H  H36  1  0.74994600  0.41488500  0.57156800  1
  H  H37  1  0.75005400  0.91488500  0.92843200  1
  H  H38  1  0.25005400  0.58511500  0.07156800  1
  H  H39  1  0.24994600  0.08511500  0.42843200  1
  O  O0  1  0.11960000  0.57887000  0.25000000  1
  O  O1  1  0.38040000  0.07887000  0.25000000  1
  O  O2  1  0.88040000  0.42113000  0.75000000  1
  O  O3  1  0.61960000  0.92113000  0.75000000  1
  O  O4  1  0.68106100  0.81610600  0.25000000  1
  O  O5  1  0.81893900  0.31610600  0.25000000  1
  O  O6  1  0.31893900  0.18389400  0.75000000  1
  O  O7  1  0.18106100  0.68389400  0.75000000  1
  O  O8  1  0.96698600  0.98789700  0.36448800  1
  O  O9  1  0.53301400  0.48789700  0.13551200  1
  O  O10  1  0.03301400  0.01210300  0.86448800  1
  O  O11  1  0.46698600  0.51210300  0.63551200  1
  O  O12  1  0.03301400  0.01210300  0.63551200  1
  O  O13  1  0.46698600  0.51210300  0.86448800  1
  O  O14  1  0.96698600  0.98789700  0.13551200  1
  O  O15  1  0.53301400  0.48789700  0.36448800  1
  O  O16  1  0.33909400  0.78926000  0.38297500  1
  O  O17  1  0.16090600  0.28926000  0.11702500  1
  O  O18  1  0.66090600  0.21074000  0.88297500  1
  O  O19  1  0.83909400  0.71074000  0.61702500  1
  O  O20  1  0.66090600  0.21074000  0.61702500  1
  O  O21  1  0.83909400  0.71074000  0.88297500  1
  O  O22  1  0.33909400  0.78926000  0.11702500  1
  O  O23  1  0.16090600  0.28926000  0.38297500  1
  O  O24  1  0.84150300  0.71394800  0.39724300  1
  O  O25  1  0.65849700  0.21394800  0.10275700  1
  O  O26  1  0.15849700  0.28605200  0.89724300  1
  O  O27  1  0.34150300  0.78605200  0.60275700  1
  O  O28  1  0.15849700  0.28605200  0.60275700  1
  O  O29  1  0.34150300  0.78605200  0.89724300  1
  O  O30  1  0.84150300  0.71394800  0.10275700  1
  O  O31  1  0.65849700  0.21394800  0.39724300  1
  O  O32  1  0.20247300  0.55625600  0.47917300  1
  O  O33  1  0.29752700  0.05625600  0.02082700  1
  O  O34  1  0.79752700  0.44374400  0.97917300  1
  O  O35  1  0.70247300  0.94374400  0.52082700  1
  O  O36  1  0.79752700  0.44374400  0.52082700  1
  O  O37  1  0.70247300  0.94374400  0.97917300  1
  O  O38  1  0.20247300  0.55625600  0.02082700  1
  O  O39  1  0.29752700  0.05625600  0.47917300  1
loop_
_geom_bond_atom_site_label_1
_geom_bond_atom_site_label_2
_geom_bond_distance
_geom_bond_site_symmetry_2
Ba0 O4 2.632785 1_455
Ba0 O0 2.728321 1_555
Ba0 O8 2.812495 1_455
Ba0 O14 2.812495 1_455
Ba1 O5 2.632785 1_555
Ba1 O1 2.728321 1_555
Ba1 O15 2.812495 1_555
Ba1 O9 2.812495 1_555
Ba2 O6 2.632785 1_655
Ba2 O2 2.728321 1_555
Ba2 O10 2.812495 1_655
Ba2 O12 2.812495 1_655
Ba3 O7 2.632785 1_555
Ba3 O3 2.728321 1_555
Ba3 O13 2.812495 1_555
Ba3 O11 2.812495 1_555
Ba4 O35 2.613401 1_555
Ba4 O31 2.768675 1_565
Ba4 O16 2.787638 1_555
Ba4 O1 2.808328 1_565
Ba4 O8 2.819494 1_555
Ba4 O39 2.848948 1_565
Ba4 H39 2.855349 1_565
Ba4 O4 2.883059 1_555
Ba4 H24 3.013602 1_555
Ba5 O34 2.613401 1_554
Ba5 O30 2.768675 1_555
Ba5 O17 2.787638 1_655
Ba5 O0 2.808328 1_655
Ba5 O9 2.819494 1_555
Ba5 O38 2.848948 1_655
Ba5 H38 2.855349 1_655
Ba5 O5 2.883059 1_555
Ba5 H25 3.013602 1_555
Ba6 O33 2.613401 1_556
Ba6 O29 2.768675 1_545
Ba6 O18 2.787638 1_555
Ba6 O3 2.808328 1_545
Ba6 O10 2.819494 1_555
Ba6 O37 2.848948 1_545
Ba6 H37 2.855349 1_545
Ba6 O6 2.883059 1_555
Ba6 H26 3.013602 1_555
Ba7 O32 2.613401 1_555
Ba7 O28 2.768675 1_555
Ba7 O19 2.787638 1_455
Ba7 O2 2.808328 1_455
Ba7 O11 2.819494 1_555
Ba7 O36 2.848948 1_455
Ba7 H36 2.855349 1_455
Ba7 O7 2.883059 1_555
Ba7 H27 3.013602 1_555
Ba8 O39 2.613401 1_555
Ba8 O27 2.768675 1_545
Ba8 O20 2.787638 1_555
Ba8 O3 2.808328 1_545
Ba8 O12 2.819494 1_555
Ba8 O35 2.848948 1_545
Ba8 H35 2.855349 1_545
Ba8 O6 2.883059 1_555
Ba8 H28 3.013602 1_555
Ba9 O38 2.613401 1_556
Ba9 O26 2.768675 1_555
Ba9 O21 2.787638 1_455
Ba9 O2 2.808328 1_455
Ba9 O13 2.819494 1_555
Ba9 O34 2.848948 1_455
Ba9 H34 2.855349 1_455
Ba9 O7 2.883059 1_555
Ba9 H29 3.013602 1_555
Ba10 O37 2.613401 1_554
Ba10 O25 2.768675 1_565
Ba10 O22 2.787638 1_555
Ba10 O1 2.808328 1_565
Ba10 O14 2.819494 1_555
Ba10 O33 2.848948 1_565
Ba10 H33 2.855349 1_565
Ba10 O4 2.883059 1_555
Ba10 H30 3.013602 1_555
Ba11 O36 2.613401 1_555
Ba11 O24 2.768675 1_555
Ba11 O23 2.787638 1_655
Ba11 O0 2.808328 1_655
Ba11 O15 2.819494 1_555
Ba11 O32 2.848948 1_655
Ba11 H32 2.855349 1_655
Ba11 O5 2.883059 1_555
Ba11 H31 3.013602 1_555
Ba12 O24 2.655264 1_455
Ba12 O16 2.660488 1_555
Ba12 O27 2.795839 1_555
Ba12 O8 2.811703 1_455
Ba12 H35 2.897835 1_455
Ba12 O39 3.010008 1_565
Ba12 O35 3.035326 1_455
Ba12 O19 3.097691 1_455
Ba12 O12 3.206590 1_565
Ba12 O32 3.305617 1_555
Ba13 O25 2.655264 1_555
Ba13 O17 2.660488 1_555
Ba13 O26 2.795839 1_554
Ba13 O9 2.811703 1_555
Ba13 H34 2.897835 1_554
Ba13 O38 3.010008 1_555
Ba13 O34 3.035326 1_554
Ba13 O18 3.097691 1_554
Ba13 O13 3.206590 1_554
Ba13 O33 3.305617 1_555
Ba14 O26 2.655264 1_655
Ba14 O18 2.660488 1_555
Ba14 O25 2.795839 1_556
Ba14 O10 2.811703 1_655
Ba14 H33 2.897835 1_656
Ba14 O37 3.010008 1_545
Ba14 O33 3.035326 1_656
Ba14 O17 3.097691 1_656
Ba14 O14 3.206590 1_546
Ba14 O34 3.305617 1_555
Ba15 O27 2.655264 1_555
Ba15 O19 2.660488 1_555
Ba15 O24 2.795839 1_555
Ba15 O11 2.811703 1_555
Ba15 H32 2.897835 1_555
Ba15 O36 3.010008 1_555
Ba15 O32 3.035326 1_555
Ba15 O16 3.097691 1_555
Ba15 O15 3.206590 1_555
Ba15 O35 3.305617 1_555
Ba16 O28 2.655264 1_655
Ba16 O20 2.660488 1_555
Ba16 O31 2.795839 1_555
Ba16 O12 2.811703 1_655
Ba16 H39 2.897835 1_655
Ba16 O35 3.010008 1_545
Ba16 O39 3.035326 1_655
Ba16 O23 3.097691 1_655
Ba16 O8 3.206590 1_545
Ba16 O36 3.305617 1_555
Ba17 O29 2.655264 1_555
Ba17 O21 2.660488 1_555
Ba17 O30 2.795839 1_556
Ba17 O13 2.811703 1_555
Ba17 H38 2.897835 1_556
Ba17 O34 3.010008 1_555
Ba17 O38 3.035326 1_556
Ba17 O22 3.097691 1_556
Ba17 O9 3.206590 1_556
Ba17 O37 3.305617 1_555
Ba18 O30 2.655264 1_455
Ba18 O22 2.660488 1_555
Ba18 O29 2.795839 1_554
Ba18 O14 2.811703 1_455
Ba18 H37 2.897835 1_454
Ba18 O33 3.010008 1_565
Ba18 O37 3.035326 1_454
Ba18 O21 3.097691 1_454
Ba18 O10 3.206590 1_564
Ba18 O38 3.305617 1_555
Ba19 O31 2.655264 1_555
Ba19 O23 2.660488 1_555
Ba19 O28 2.795839 1_555
Ba19 O15 2.811703 1_555
Ba19 H36 2.897835 1_555
Ba19 O32 3.010008 1_555
Ba19 O36 3.035326 1_555
Ba19 O20 3.097691 1_555
Ba19 O11 3.206590 1_555
Ba19 O39 3.305617 1_555
H0 O0 0.970087 1_555
H1 O1 0.970087 1_555
H2 O2 0.970087 1_555
H3 O3 0.970087 1_555
H4 O4 0.972498 1_555
H5 O5 0.972498 1_555
H6 O6 0.972498 1_555
H7 O7 0.972498 1_555
H8 O8 0.967389 1_445
H9 O9 0.967389 1_555
H10 O10 0.967389 1_665
H11 O11 0.967389 1_555
H12 O12 0.967389 1_665
H13 O13 0.967389 1_555
H14 O14 0.967389 1_445
H15 O15 0.967389 1_555
H16 O16 0.971130 1_555
H17 O17 0.971130 1_555
H18 O18 0.971130 1_555
H19 O19 0.971130 1_555
H20 O20 0.971130 1_555
H21 O21 0.971130 1_555
H22 O22 0.971130 1_555
H23 O23 0.971130 1_555
H24 O24 0.984439 1_555
H25 O25 0.984439 1_555
H26 O26 0.984439 1_555
H27 O27 0.984439 1_555
H28 O28 0.984439 1_555
H29 O29 0.984439 1_555
H30 O30 0.984439 1_555
H31 O31 0.984439 1_555
H32 O32 0.973684 1_555
H33 O33 0.973684 1_555
H34 O34 0.973684 1_555
H35 O35 0.973684 1_555
H36 O36 0.973684 1_555
H37 O37 0.973684 1_555
H38 O38 0.973684 1_555
H39 O39 0.973684 1_555
