# generated using pymatgen
data_ZnH12C6S2(N5O)2
_symmetry_space_group_name_H-M   'P 1'
_cell_length_a   10.02171245
_cell_length_b   10.02171245
_cell_length_c   18.73689901
_cell_angle_alpha   67.70601032
_cell_angle_beta   67.70601032
_cell_angle_gamma   27.45753362
_symmetry_Int_Tables_number   1
_chemical_formula_structural   ZnH12C6S2(N5O)2
_chemical_formula_sum   'Zn2 H24 C12 S4 N20 O4'
_cell_volume   798.79881835
_cell_formula_units_Z   2
loop_
 _symmetry_equiv_pos_site_id
 _symmetry_equiv_pos_as_xyz
  1  'x, y, z'
loop_
 _atom_site_type_symbol
 _atom_site_label
 _atom_site_symmetry_multiplicity
 _atom_site_fract_x
 _atom_site_fract_y
 _atom_site_fract_z
 _atom_site_occupancy
  Zn  Zn0  1  0.66664700  0.33335300  0.75000000  1
  Zn  Zn1  1  0.33335300  0.66664700  0.25000000  1
  H  H0  1  0.39510900  0.84330100  0.04124200  1
  H  H1  1  0.15669900  0.60489100  0.45875800  1
  H  H2  1  0.60489100  0.15669900  0.95875800  1
  H  H3  1  0.84330100  0.39510900  0.54124200  1
  H  H4  1  0.50177900  0.58485500  0.03525100  1
  H  H5  1  0.41514500  0.49822100  0.46474900  1
  H  H6  1  0.49822100  0.41514500  0.96474900  1
  H  H7  1  0.58485500  0.50177900  0.53525100  1
  H  H8  1  0.11913800  0.24168200  0.95157000  1
  H  H9  1  0.75831800  0.88086200  0.54843000  1
  H  H10  1  0.88086200  0.75831800  0.04843000  1
  H  H11  1  0.24168200  0.11913800  0.45157000  1
  H  H12  1  0.01212700  0.29522700  0.87489000  1
  H  H13  1  0.70477300  0.98787300  0.62511000  1
  H  H14  1  0.98787300  0.70477300  0.12511000  1
  H  H15  1  0.29522700  0.01212700  0.37489000  1
  H  H16  1  0.87907500  0.47561700  0.73723400  1
  H  H17  1  0.52438300  0.12092500  0.76276600  1
  H  H18  1  0.12092500  0.52438300  0.26276600  1
  H  H19  1  0.47561700  0.87907500  0.23723400  1
  H  H20  1  0.76677000  0.70165900  0.76100000  1
  H  H21  1  0.29834100  0.23323000  0.73900000  1
  H  H22  1  0.23323000  0.29834100  0.23900000  1
  H  H23  1  0.70165900  0.76677000  0.26100000  1
  C  C0  1  0.09930100  0.98113500  0.86356000  1
  C  C1  1  0.01886500  0.90069900  0.63644000  1
  C  C2  1  0.90069900  0.01886500  0.13644000  1
  C  C3  1  0.98113500  0.09930100  0.36356000  1
  C  C4  1  0.26775800  0.91946800  0.94915500  1
  C  C5  1  0.08053200  0.73224200  0.55084500  1
  C  C6  1  0.73224200  0.08053200  0.05084500  1
  C  C7  1  0.91946800  0.26775800  0.44915500  1
  C  C8  1  0.13813600  0.59904100  0.85268800  1
  C  C9  1  0.40095900  0.86186400  0.64731200  1
  C  C10  1  0.86186400  0.40095900  0.14731200  1
  C  C11  1  0.59904100  0.13813600  0.35268800  1
  S  S0  1  0.85438400  0.75353300  0.90204600  1
  S  S1  1  0.24646700  0.14561600  0.59795400  1
  S  S2  1  0.14561600  0.24646700  0.09795400  1
  S  S3  1  0.75353300  0.85438400  0.40204600  1
  N  N0  1  0.34841500  0.48204800  0.81667000  1
  N  N1  1  0.51795200  0.65158500  0.68333000  1
  N  N2  1  0.65158500  0.51795200  0.18333000  1
  N  N3  1  0.48204800  0.34841500  0.31667000  1
  N  N4  1  0.94577500  0.11991600  0.81632300  1
  N  N5  1  0.88008400  0.05422500  0.68367700  1
  N  N6  1  0.05422500  0.88008400  0.18367700  1
  N  N7  1  0.11991600  0.94577500  0.31632300  1
  N  N8  1  0.27012100  0.81833800  0.91606400  1
  N  N9  1  0.18166200  0.72987900  0.58393600  1
  N  N10  1  0.72987900  0.18166200  0.08393600  1
  N  N11  1  0.81833800  0.27012100  0.41606400  1
  N  N12  1  0.42507700  0.75412900  0.00928200  1
  N  N13  1  0.24587100  0.57492300  0.49071800  1
  N  N14  1  0.57492300  0.24587100  0.99071800  1
  N  N15  1  0.75412900  0.42507700  0.50928200  1
  N  N16  1  0.11844400  0.17215400  0.92402000  1
  N  N17  1  0.82784600  0.88155600  0.57598000  1
  N  N18  1  0.88155600  0.82784600  0.07598000  1
  N  N19  1  0.17215400  0.11844400  0.42402000  1
  O  O0  1  0.91795200  0.49399300  0.76994800  1
  O  O1  1  0.50600700  0.08204800  0.73005200  1
  O  O2  1  0.08204800  0.50600700  0.23005200  1
  O  O3  1  0.49399300  0.91795200  0.26994800  1
loop_
_geom_bond_atom_site_label_1
_geom_bond_atom_site_label_2
_geom_bond_distance
_geom_bond_site_symmetry_2
H0 N12 1.020135 1_555
H1 N13 1.020135 1_555
H2 N14 1.020135 1_555
H3 N15 1.020135 1_555
H4 N12 1.024076 1_555
H5 N13 1.024076 1_555
H6 N14 1.024076 1_555
H7 N15 1.024076 1_555
H8 N16 1.017964 1_555
H9 N17 1.017964 1_555
H10 N18 1.017964 1_555
H11 N19 1.017964 1_555
H12 N16 1.026835 1_555
H13 N17 1.026835 1_555
H14 N18 1.026835 1_555
H15 N19 1.026835 1_555
H16 O0 0.977553 1_555
H17 O1 0.977553 1_555
H18 O2 0.977553 1_555
H19 O3 0.977553 1_555
H20 O0 0.993443 1_555
H21 O1 0.993443 1_555
H22 O2 0.993443 1_555
H23 O3 0.993443 1_555
C0 N4 1.177512 1_465
C0 N8 1.289772 1_555
C1 N5 1.177512 1_465
C1 N9 1.289772 1_555
C2 N6 1.177512 1_645
C2 N10 1.289772 1_555
C3 N7 1.177512 1_645
C3 N11 1.289772 1_555
C4 N16 1.333630 1_565
C4 N12 1.339975 1_556
C4 N8 1.354695 1_555
C5 N17 1.333630 1_455
C5 N13 1.339975 1_555
C5 N9 1.354695 1_555
C6 N18 1.333630 1_545
C6 N14 1.339975 1_554
C6 N10 1.354695 1_555
C7 N19 1.333630 1_655
C7 N15 1.339975 1_555
C7 N11 1.354695 1_555
C8 N0 1.186348 1_555
C8 S0 1.617509 1_455
C9 N1 1.186348 1_555
C9 S1 1.617509 1_565
C10 N2 1.186348 1_555
C10 S2 1.617509 1_655
C11 N3 1.186348 1_555
C11 S3 1.617509 1_545
N0 Zn0 1.976773 1_555
N1 Zn0 1.976773 1_555
N2 Zn1 1.976773 1_555
N3 Zn1 1.976773 1_555
N4 Zn0 1.986566 1_555
N5 Zn0 1.986566 1_555
N6 Zn1 1.986566 1_555
N7 Zn1 1.986566 1_555
