# generated using pymatgen
data_LiTi2Mn3O10
_symmetry_space_group_name_H-M   'P 1'
_cell_length_a   5.02144300
_cell_length_b   5.08531796
_cell_length_c   7.92643206
_cell_angle_alpha   74.94056867
_cell_angle_beta   73.60722125
_cell_angle_gamma   81.99385000
_symmetry_Int_Tables_number   1
_chemical_formula_structural   LiTi2Mn3O10
_chemical_formula_sum   'Li1 Ti2 Mn3 O10'
_cell_volume   187.03406721
_cell_formula_units_Z   1
loop_
 _symmetry_equiv_pos_site_id
 _symmetry_equiv_pos_as_xyz
  1  'x, y, z'
loop_
 _atom_site_type_symbol
 _atom_site_label
 _atom_site_symmetry_multiplicity
 _atom_site_fract_x
 _atom_site_fract_y
 _atom_site_fract_z
 _atom_site_occupancy
  Li  Li0  1  0.67627100  0.50056400  0.45570100  1
  Ti  Ti0  1  0.12406200  0.98553100  0.31703800  1
  Ti  Ti1  1  0.89332900  0.99201600  0.67356000  1
  Mn  Mn0  1  0.00962800  0.50220500  0.99703200  1
  Mn  Mn1  1  0.70457800  0.01702100  0.09422900  1
  Mn  Mn2  1  0.31214800  0.99408200  0.89578300  1
  O  O0  1  0.04517000  0.78558700  0.12227000  1
  O  O1  1  0.36372900  0.21105100  0.05314100  1
  O  O2  1  0.09231500  0.21796500  0.46907700  1
  O  O3  1  0.19594700  0.75708400  0.78409000  1
  O  O4  1  0.47798700  0.81715400  0.30563600  1
  O  O5  1  0.54789800  0.18248900  0.68524600  1
  O  O6  1  0.81861400  0.25093200  0.21126900  1
  O  O7  1  0.90084600  0.76854200  0.51899800  1
  O  O8  1  0.65109500  0.79393100  0.94083200  1
  O  O9  1  0.96909600  0.22076000  0.87347000  1
loop_
_geom_bond_atom_site_label_1
_geom_bond_atom_site_label_2
_geom_bond_distance
_geom_bond_site_symmetry_2
Li0 O4 2.055489 1_555
Li0 O5 2.107482 1_555
Li0 O7 2.117363 1_555
Li0 O2 2.377089 1_655
Li0 O6 2.473840 1_555
Mn0 O3 1.927133 1_555
Mn0 O6 1.931562 1_456
Mn0 O9 1.992780 1_455
Mn0 O0 2.002259 1_556
Mn0 O1 2.218662 1_556
Mn0 O8 2.237369 1_455
Mn1 O4 1.869911 1_545
Mn1 O6 1.914812 1_555
Mn1 O1 1.919970 1_555
Mn1 O8 1.955390 1_544
Mn1 O0 1.969129 1_645
Mn1 O9 2.007240 1_554
Mn2 O5 1.863947 1_565
Mn2 O3 1.902298 1_555
Mn2 O8 1.931816 1_555
Mn2 O1 1.953790 1_566
Mn2 O9 1.959683 1_465
Mn2 O0 2.047601 1_556
O0 Ti0 2.201645 1_555
O1 Ti0 2.203641 1_545
O2 Ti1 1.839467 1_445
O2 Ti0 1.858535 1_545
O3 Ti1 2.050815 1_455
O4 Ti0 1.850806 1_555
O5 Ti1 1.855646 1_545
O6 Ti0 2.106684 1_645
O7 Ti0 1.857532 1_655
O7 Ti1 1.865282 1_555
O8 Ti1 2.181794 1_555
O9 Ti1 2.330262 1_545
