# generated using pymatgen
data_Na3SiBiBO7
_symmetry_space_group_name_H-M   'P 1'
_cell_length_a   7.01833400
_cell_length_b   5.37527400
_cell_length_c   9.30122853
_cell_angle_alpha   89.49065181
_cell_angle_beta   90.00000000
_cell_angle_gamma   90.00000000
_symmetry_Int_Tables_number   1
_chemical_formula_structural   Na3SiBiBO7
_chemical_formula_sum   'Na6 Si2 Bi2 B2 O14'
_cell_volume   350.87933657
_cell_formula_units_Z   2
loop_
 _symmetry_equiv_pos_site_id
 _symmetry_equiv_pos_as_xyz
  1  'x, y, z'
loop_
 _atom_site_type_symbol
 _atom_site_label
 _atom_site_symmetry_multiplicity
 _atom_site_fract_x
 _atom_site_fract_y
 _atom_site_fract_z
 _atom_site_occupancy
  Na  Na0  1  0.25000000  0.75848600  0.92361900  1
  Na  Na1  1  0.00752200  0.25018800  0.75394600  1
  Na  Na2  1  0.49247800  0.25018800  0.75394600  1
  Na  Na3  1  0.50752200  0.74981200  0.24605400  1
  Na  Na4  1  0.99247800  0.74981200  0.24605400  1
  Na  Na5  1  0.75000000  0.24151400  0.07638100  1
  Si  Si0  1  0.25000000  0.70409400  0.58569600  1
  Si  Si1  1  0.75000000  0.29590600  0.41430400  1
  Bi  Bi0  1  0.75000000  0.77884600  0.65378300  1
  Bi  Bi1  1  0.25000000  0.22115400  0.34621700  1
  B  B0  1  0.75000000  0.73515100  0.94375800  1
  B  B1  1  0.25000000  0.26484900  0.05624200  1
  O  O0  1  0.25000000  0.29051800  0.91271100  1
  O  O1  1  0.75000000  0.96689100  0.87078100  1
  O  O2  1  0.75000000  0.52452600  0.85143300  1
  O  O3  1  0.06876500  0.79703700  0.68506600  1
  O  O4  1  0.43123500  0.79703700  0.68506600  1
  O  O5  1  0.25000000  0.39709300  0.57381900  1
  O  O6  1  0.75000000  0.18258100  0.57950700  1
  O  O7  1  0.25000000  0.81741900  0.42049300  1
  O  O8  1  0.75000000  0.60290700  0.42618100  1
  O  O9  1  0.56876500  0.20296300  0.31493400  1
  O  O10  1  0.93123500  0.20296300  0.31493400  1
  O  O11  1  0.25000000  0.47547400  0.14856700  1
  O  O12  1  0.25000000  0.03310900  0.12921900  1
  O  O13  1  0.75000000  0.70948200  0.08728900  1
loop_
_geom_bond_atom_site_label_1
_geom_bond_atom_site_label_2
_geom_bond_distance
_geom_bond_site_symmetry_2
Na0 O12 2.426169 1_566
Na0 O0 2.518403 1_555
Na0 O4 2.564352 1_555
Na0 O3 2.564352 1_555
Na0 O11 2.575918 1_556
Na0 O0 2.860715 1_565
Na1 O0 2.264830 1_555
Na1 O6 2.457977 1_455
Na1 O2 2.507417 1_455
Na1 O5 2.510598 1_555
Na1 O3 2.560493 1_545
Na1 O1 2.595580 1_445
Na2 O0 2.264830 1_555
Na2 O6 2.457977 1_555
Na2 O2 2.507417 1_555
Na2 O5 2.510598 1_555
Na2 O4 2.560493 1_545
Na2 O1 2.595580 1_545
Na3 O13 2.264830 1_555
Na3 O7 2.457977 1_555
Na3 O11 2.507417 1_555
Na3 O8 2.510598 1_555
Na3 O9 2.560493 1_565
Na3 O12 2.595580 1_565
Na4 O13 2.264830 1_555
Na4 O7 2.457977 1_655
Na4 O11 2.507417 1_655
Na4 O8 2.510598 1_555
Na4 O10 2.560493 1_565
Na4 O12 2.595580 1_665
Na5 O1 2.426169 1_544
Na5 O13 2.518403 1_555
Na5 O10 2.564352 1_555
Na5 O9 2.564352 1_555
Na5 O2 2.575918 1_554
Na5 O13 2.860715 1_545
Bi0 O3 2.258272 1_655
Bi0 O4 2.258272 1_555
Bi0 O1 2.265327 1_555
Bi0 O6 2.271637 1_565
Bi0 O2 2.281181 1_555
Bi0 O8 2.326280 1_555
Bi1 O9 2.258272 1_555
Bi1 O10 2.258272 1_455
Bi1 O12 2.265327 1_555
Bi1 O7 2.271637 1_545
Bi1 O11 2.281181 1_555
Bi1 O5 2.326280 1_555
B0 O13 1.340905 1_556
B0 O1 1.413290 1_555
B0 O2 1.427065 1_555
B1 O0 1.340905 1_554
B1 O12 1.413290 1_555
B1 O11 1.427065 1_555
O3 Si0 1.652262 1_555
O4 Si0 1.652262 1_555
O5 Si0 1.654888 1_555
O6 Si1 1.647889 1_555
O7 Si0 1.647889 1_555
O8 Si1 1.654888 1_555
O9 Si1 1.652262 1_555
O10 Si1 1.652262 1_555
