# generated using pymatgen
data_CrB3(HO3)3
_symmetry_space_group_name_H-M   'P 1'
_cell_length_a   9.31284400
_cell_length_b   11.76462100
_cell_length_c   14.27438200
_cell_angle_alpha   90.00000000
_cell_angle_beta   90.00000000
_cell_angle_gamma   90.00000000
_symmetry_Int_Tables_number   1
_chemical_formula_structural   CrB3(HO3)3
_chemical_formula_sum   'Cr8 B24 H24 O72'
_cell_volume   1563.93098395
_cell_formula_units_Z   8
loop_
 _symmetry_equiv_pos_site_id
 _symmetry_equiv_pos_as_xyz
  1  'x, y, z'
loop_
 _atom_site_type_symbol
 _atom_site_label
 _atom_site_symmetry_multiplicity
 _atom_site_fract_x
 _atom_site_fract_y
 _atom_site_fract_z
 _atom_site_occupancy
  Cr  Cr0  1  0.34369800  0.23551000  0.32485000  1
  Cr  Cr1  1  0.65630200  0.23551000  0.82485000  1
  Cr  Cr2  1  0.15630200  0.26449000  0.82485000  1
  Cr  Cr3  1  0.84369800  0.26449000  0.32485000  1
  Cr  Cr4  1  0.15630200  0.73551000  0.67515000  1
  Cr  Cr5  1  0.84369800  0.73551000  0.17515000  1
  Cr  Cr6  1  0.34369800  0.76449000  0.17515000  1
  Cr  Cr7  1  0.65630200  0.76449000  0.67515000  1
  B  B0  1  0.96638500  0.14789200  0.58070300  1
  B  B1  1  0.03361500  0.14789200  0.08070300  1
  B  B2  1  0.53257500  0.14457200  0.07430600  1
  B  B3  1  0.46742500  0.14457200  0.57430600  1
  B  B4  1  0.90937800  0.24563700  0.95023000  1
  B  B5  1  0.09062200  0.24563700  0.45023000  1
  B  B6  1  0.40937800  0.25436300  0.95023000  1
  B  B7  1  0.59062200  0.25436300  0.45023000  1
  B  B8  1  0.03257500  0.35542800  0.07430600  1
  B  B9  1  0.96742500  0.35542800  0.57430600  1
  B  B10  1  0.53361500  0.35210800  0.08070300  1
  B  B11  1  0.46638500  0.35210800  0.58070300  1
  B  B12  1  0.46638500  0.64789200  0.91929700  1
  B  B13  1  0.53361500  0.64789200  0.41929700  1
  B  B14  1  0.03257500  0.64457200  0.42569400  1
  B  B15  1  0.96742500  0.64457200  0.92569400  1
  B  B16  1  0.40937800  0.74563700  0.54977000  1
  B  B17  1  0.59062200  0.74563700  0.04977000  1
  B  B18  1  0.09062200  0.75436300  0.04977000  1
  B  B19  1  0.90937800  0.75436300  0.54977000  1
  B  B20  1  0.46742500  0.85542800  0.92569400  1
  B  B21  1  0.53257500  0.85542800  0.42569400  1
  B  B22  1  0.03361500  0.85210800  0.41929700  1
  B  B23  1  0.96638500  0.85210800  0.91929700  1
  H  H0  1  0.06422900  0.98324600  0.08686000  1
  H  H1  1  0.93577100  0.98324600  0.58686000  1
  H  H2  1  0.56266900  0.02259200  0.42253500  1
  H  H3  1  0.43733100  0.02259200  0.92253500  1
  H  H4  1  0.29654500  0.20387400  0.69454200  1
  H  H5  1  0.70345500  0.20387400  0.19454200  1
  H  H6  1  0.20345500  0.29612600  0.19454200  1
  H  H7  1  0.79654500  0.29612600  0.69454200  1
  H  H8  1  0.06266900  0.47740800  0.42253500  1
  H  H9  1  0.93733100  0.47740800  0.92253500  1
  H  H10  1  0.56422900  0.51675400  0.08686000  1
  H  H11  1  0.43577100  0.51675400  0.58686000  1
  H  H12  1  0.43577100  0.48324600  0.91314000  1
  H  H13  1  0.56422900  0.48324600  0.41314000  1
  H  H14  1  0.06266900  0.52259200  0.07746500  1
  H  H15  1  0.93733100  0.52259200  0.57746500  1
  H  H16  1  0.79654500  0.70387400  0.80545800  1
  H  H17  1  0.20345500  0.70387400  0.30545800  1
  H  H18  1  0.29654500  0.79612600  0.80545800  1
  H  H19  1  0.70345500  0.79612600  0.30545800  1
  H  H20  1  0.43733100  0.97740800  0.57746500  1
  H  H21  1  0.56266900  0.97740800  0.07746500  1
  H  H22  1  0.06422900  0.01675400  0.41314000  1
  H  H23  1  0.93577100  0.01675400  0.91314000  1
  O  O0  1  0.41770900  0.04772400  0.61297200  1
  O  O1  1  0.58229100  0.04772400  0.11297200  1
  O  O2  1  0.08631200  0.05313000  0.12160700  1
  O  O3  1  0.91368800  0.05313000  0.62160700  1
  O  O4  1  0.32848200  0.10890900  0.28940400  1
  O  O5  1  0.67151800  0.10890900  0.78940400  1
  O  O6  1  0.94537700  0.14533100  0.00256100  1
  O  O7  1  0.05462300  0.14533100  0.50256100  1
  O  O8  1  0.55013100  0.14833200  0.49394100  1
  O  O9  1  0.44986900  0.14833200  0.99394100  1
  O  O10  1  0.78131700  0.17540100  0.23862300  1
  O  O11  1  0.21868300  0.17540100  0.73862300  1
  O  O12  1  0.01628500  0.23509900  0.35354800  1
  O  O13  1  0.98371500  0.23509900  0.85354800  1
  O  O14  1  0.24617900  0.25058100  0.42540900  1
  O  O15  1  0.75382100  0.25058100  0.92540900  1
  O  O16  1  0.42766200  0.24603800  0.61945900  1
  O  O17  1  0.57233800  0.24603800  0.11945900  1
  O  O18  1  0.07233800  0.25396200  0.11945900  1
  O  O19  1  0.92766200  0.25396200  0.61945900  1
  O  O20  1  0.74617900  0.24941900  0.42540900  1
  O  O21  1  0.25382100  0.24941900  0.92540900  1
  O  O22  1  0.48371500  0.26490100  0.85354800  1
  O  O23  1  0.51628500  0.26490100  0.35354800  1
  O  O24  1  0.28131700  0.32459900  0.23862300  1
  O  O25  1  0.71868300  0.32459900  0.73862300  1
  O  O26  1  0.05013100  0.35166800  0.49394100  1
  O  O27  1  0.94986900  0.35166800  0.99394100  1
  O  O28  1  0.55462300  0.35466900  0.50256100  1
  O  O29  1  0.44537700  0.35466900  0.00256100  1
  O  O30  1  0.82848200  0.39109100  0.28940400  1
  O  O31  1  0.17151800  0.39109100  0.78940400  1
  O  O32  1  0.58631200  0.44687000  0.12160700  1
  O  O33  1  0.41368800  0.44687000  0.62160700  1
  O  O34  1  0.08229100  0.45227600  0.11297200  1
  O  O35  1  0.91770900  0.45227600  0.61297200  1
  O  O36  1  0.08229100  0.54772400  0.38702800  1
  O  O37  1  0.91770900  0.54772400  0.88702800  1
  O  O38  1  0.58631200  0.55313000  0.37839300  1
  O  O39  1  0.41368800  0.55313000  0.87839300  1
  O  O40  1  0.82848200  0.60890900  0.21059600  1
  O  O41  1  0.17151800  0.60890900  0.71059600  1
  O  O42  1  0.44537700  0.64533100  0.49743900  1
  O  O43  1  0.55462300  0.64533100  0.99743900  1
  O  O44  1  0.05013100  0.64833200  0.00605900  1
  O  O45  1  0.94986900  0.64833200  0.50605900  1
  O  O46  1  0.28131700  0.67540100  0.26137700  1
  O  O47  1  0.71868300  0.67540100  0.76137700  1
  O  O48  1  0.48371500  0.73509900  0.64645200  1
  O  O49  1  0.51628500  0.73509900  0.14645200  1
  O  O50  1  0.25382100  0.75058100  0.57459100  1
  O  O51  1  0.74617900  0.75058100  0.07459100  1
  O  O52  1  0.92766200  0.74603800  0.88054100  1
  O  O53  1  0.07233800  0.74603800  0.38054100  1
  O  O54  1  0.42766200  0.75396200  0.88054100  1
  O  O55  1  0.57233800  0.75396200  0.38054100  1
  O  O56  1  0.24617900  0.74941900  0.07459100  1
  O  O57  1  0.75382100  0.74941900  0.57459100  1
  O  O58  1  0.01628500  0.76490100  0.14645200  1
  O  O59  1  0.98371500  0.76490100  0.64645200  1
  O  O60  1  0.21868300  0.82459900  0.76137700  1
  O  O61  1  0.78131700  0.82459900  0.26137700  1
  O  O62  1  0.44986900  0.85166800  0.50605900  1
  O  O63  1  0.55013100  0.85166800  0.00605900  1
  O  O64  1  0.05462300  0.85466900  0.99743900  1
  O  O65  1  0.94537700  0.85466900  0.49743900  1
  O  O66  1  0.32848200  0.89109100  0.21059600  1
  O  O67  1  0.67151800  0.89109100  0.71059600  1
  O  O68  1  0.08631200  0.94687000  0.37839300  1
  O  O69  1  0.91368800  0.94687000  0.87839300  1
  O  O70  1  0.41770900  0.95227600  0.88702800  1
  O  O71  1  0.58229100  0.95227600  0.38702800  1
loop_
_geom_bond_atom_site_label_1
_geom_bond_atom_site_label_2
_geom_bond_distance
_geom_bond_site_symmetry_2
Cr0 O4 1.579378 1_555
Cr0 O23 1.694316 1_555
Cr0 O14 1.707820 1_555
Cr0 O24 1.717838 1_555
Cr1 O5 1.579378 1_555
Cr1 O22 1.694316 1_555
Cr1 O15 1.707820 1_555
Cr1 O25 1.717838 1_555
Cr2 O31 1.579378 1_555
Cr2 O13 1.694316 1_455
Cr2 O21 1.707820 1_555
Cr2 O11 1.717838 1_555
Cr3 O30 1.579378 1_555
Cr3 O12 1.694316 1_655
Cr3 O20 1.707820 1_555
Cr3 O10 1.717838 1_555
Cr4 O41 1.579378 1_555
Cr4 O59 1.694316 1_455
Cr4 O50 1.707820 1_555
Cr4 O60 1.717838 1_555
Cr5 O40 1.579378 1_555
Cr5 O58 1.694316 1_655
Cr5 O51 1.707820 1_555
Cr5 O61 1.717838 1_555
Cr6 O66 1.579378 1_555
Cr6 O49 1.694316 1_555
Cr6 O56 1.707820 1_555
Cr6 O46 1.717838 1_555
Cr7 O67 1.579378 1_555
Cr7 O48 1.694316 1_555
Cr7 O57 1.707820 1_555
Cr7 O47 1.717838 1_555
B0 O3 1.350787 1_555
B0 O7 1.385769 1_655
B0 O19 1.411838 1_555
B1 O2 1.350787 1_555
B1 O6 1.385769 1_455
B1 O18 1.411838 1_555
B2 O1 1.348030 1_555
B2 O9 1.382456 1_554
B2 O17 1.406232 1_555
B3 O0 1.348030 1_555
B3 O8 1.382456 1_555
B3 O16 1.406232 1_555
B4 O6 1.436294 1_556
B4 O27 1.444835 1_555
B4 O15 1.492509 1_555
B4 O13 1.548949 1_555
B5 O7 1.436294 1_555
B5 O26 1.444835 1_555
B5 O14 1.492509 1_555
B5 O12 1.548949 1_555
B6 O29 1.436294 1_556
B6 O9 1.444835 1_555
B6 O21 1.492509 1_555
B6 O22 1.548949 1_555
B7 O28 1.436294 1_555
B7 O8 1.444835 1_555
B7 O20 1.492509 1_555
B7 O23 1.548949 1_555
B8 O34 1.348030 1_555
B8 O27 1.382456 1_454
B8 O18 1.406232 1_555
B9 O35 1.348030 1_555
B9 O26 1.382456 1_655
B9 O19 1.406232 1_555
B10 O32 1.350787 1_555
B10 O29 1.385769 1_555
B10 O17 1.411838 1_555
B11 O33 1.350787 1_555
B11 O28 1.385769 1_555
B11 O16 1.411838 1_555
B12 O39 1.350787 1_555
B12 O43 1.385769 1_555
B12 O54 1.411838 1_555
B13 O38 1.350787 1_555
B13 O42 1.385769 1_555
B13 O55 1.411838 1_555
B14 O36 1.348030 1_555
B14 O45 1.382456 1_455
B14 O53 1.406232 1_555
B15 O37 1.348030 1_555
B15 O44 1.382456 1_656
B15 O52 1.406232 1_555
B16 O42 1.436294 1_555
B16 O62 1.444835 1_555
B16 O50 1.492509 1_555
B16 O48 1.548949 1_555
B17 O43 1.436294 1_554
B17 O63 1.444835 1_555
B17 O51 1.492509 1_555
B17 O49 1.548949 1_555
B18 O64 1.436294 1_554
B18 O44 1.444835 1_555
B18 O56 1.492509 1_555
B18 O58 1.548949 1_555
B19 O65 1.436294 1_555
B19 O45 1.444835 1_555
B19 O57 1.492509 1_555
B19 O59 1.548949 1_555
B20 O70 1.348030 1_555
B20 O63 1.382456 1_556
B20 O54 1.406232 1_555
B21 O71 1.348030 1_555
B21 O62 1.382456 1_555
B21 O55 1.406232 1_555
B22 O68 1.350787 1_555
B22 O65 1.385769 1_455
B22 O53 1.411838 1_555
B23 O69 1.350787 1_555
B23 O64 1.385769 1_655
B23 O52 1.411838 1_555
H0 O2 0.981961 1_565
H1 O3 0.981961 1_565
H2 O71 0.987222 1_545
H3 O70 0.987222 1_545
H4 O11 1.016824 1_555
H4 O16 1.698750 1_555
H5 O10 1.016824 1_555
H5 O17 1.698750 1_555
H6 O24 1.016824 1_555
H6 O18 1.698750 1_555
H7 O25 1.016824 1_555
H7 O19 1.698750 1_555
H8 O36 0.987222 1_555
H9 O37 0.987222 1_555
H10 O32 0.981961 1_555
H11 O33 0.981961 1_555
H12 O39 0.981961 1_555
H13 O38 0.981961 1_555
H14 O34 0.987222 1_555
H15 O35 0.987222 1_555
H16 O47 1.016824 1_555
H16 O52 1.698750 1_555
H17 O46 1.016824 1_555
H17 O53 1.698750 1_555
H18 O60 1.016824 1_555
H18 O54 1.698750 1_555
H19 O61 1.016824 1_555
H19 O55 1.698750 1_555
H20 O0 0.987222 1_565
H21 O1 0.987222 1_565
H22 O68 0.981961 1_545
H23 O69 0.981961 1_545
