# generated using pymatgen
data_Li6Cr3Fe(PO4)6
_symmetry_space_group_name_H-M   'P 1'
_cell_length_a   8.53711100
_cell_length_b   8.57713430
_cell_length_c   8.57675333
_cell_angle_alpha   61.57418739
_cell_angle_beta   61.56032363
_cell_angle_gamma   61.54343773
_symmetry_Int_Tables_number   1
_chemical_formula_structural   Li6Cr3Fe(PO4)6
_chemical_formula_sum   'Li6 Cr3 Fe1 P6 O24'
_cell_volume   459.61727743
_cell_formula_units_Z   1
loop_
 _symmetry_equiv_pos_site_id
 _symmetry_equiv_pos_as_xyz
  1  'x, y, z'
loop_
 _atom_site_type_symbol
 _atom_site_label
 _atom_site_symmetry_multiplicity
 _atom_site_fract_x
 _atom_site_fract_y
 _atom_site_fract_z
 _atom_site_occupancy
  Li  Li0  1  0.02647100  0.00349100  0.99528200  1
  Li  Li1  1  0.75001400  0.14797900  0.35114800  1
  Li  Li2  1  0.47262400  0.50447200  0.49605100  1
  Li  Li3  1  0.24998700  0.85014200  0.65434300  1
  Li  Li4  1  0.65541300  0.24988700  0.84631400  1
  Li  Li5  1  0.84915000  0.65765100  0.24816100  1
  Cr  Cr0  1  0.14151200  0.14543300  0.13873000  1
  Cr  Cr1  1  0.35917400  0.36145900  0.35531600  1
  Cr  Cr2  1  0.64383000  0.64535500  0.64489800  1
  Fe  Fe0  1  0.85315000  0.85161400  0.85176100  1
  P  P0  1  0.04880600  0.75084700  0.44818200  1
  P  P1  1  0.44892900  0.04954100  0.74955400  1
  P  P2  1  0.75012200  0.45235900  0.04560600  1
  P  P3  1  0.25074700  0.54137100  0.95975700  1
  P  P4  1  0.54296700  0.96320700  0.25122900  1
  P  P5  1  0.95806400  0.25042000  0.53754300  1
  O  O0  1  0.13041500  0.28994300  0.49823100  1
  O  O1  1  0.29851300  0.51328000  0.12227600  1
  O  O2  1  0.04782900  0.92226400  0.26576900  1
  O  O3  1  0.53139900  0.12224500  0.29657400  1
  O  O4  1  0.23898700  0.59257600  0.42976600  1
  O  O5  1  0.01528000  0.80828500  0.61069500  1
  O  O6  1  0.25844400  0.07226500  0.90677900  1
  O  O7  1  0.45411800  0.23176900  0.57786000  1
  O  O8  1  0.59302100  0.43249900  0.23970800  1
  O  O9  1  0.20222800  0.37926200  0.98761600  1
  O  O10  1  0.09024800  0.73646000  0.93261400  1
  O  O11  1  0.37102400  0.00291000  0.21058900  1
  O  O12  1  0.61068300  0.01228500  0.81120700  1
  O  O13  1  0.90637000  0.25794000  0.06939500  1
  O  O14  1  0.81122600  0.61071500  0.01297600  1
  O  O15  1  0.41286700  0.56492000  0.76504500  1
  O  O16  1  0.56335000  0.76952700  0.41323600  1
  O  O17  1  0.73445700  0.93229100  0.08872600  1
  O  O18  1  0.96955100  0.20472400  0.37862100  1
  O  O19  1  0.76673100  0.41461600  0.56507400  1
  O  O20  1  0.47936100  0.88759400  0.69411400  1
  O  O21  1  0.93403000  0.09008800  0.73153700  1
  O  O22  1  0.69180700  0.48313400  0.88676200  1
  O  O23  1  0.88710100  0.69217800  0.48195300  1
loop_
_geom_bond_atom_site_label_1
_geom_bond_atom_site_label_2
_geom_bond_distance
_geom_bond_site_symmetry_2
Li0 O6 2.025153 1_555
Li0 O2 2.154914 1_546
Li0 O13 2.187662 1_456
Li0 O10 2.352861 1_545
Li0 O21 2.415286 1_455
Li0 O17 2.512365 1_446
Li1 O13 2.113880 1_555
Li1 O8 2.132553 1_555
Li1 O3 2.252559 1_555
Li1 O18 2.281271 1_555
Li1 O7 2.366534 1_555
Li1 O2 2.373621 1_645
Li2 O4 2.026637 1_555
Li2 O7 2.161564 1_555
Li2 O8 2.192357 1_555
Li2 O15 2.370119 1_555
Li2 O16 2.426841 1_555
Li2 O19 2.527038 1_555
Li3 O10 2.111457 1_555
Li3 O15 2.150386 1_555
Li3 O20 2.322506 1_555
Li3 O5 2.410783 1_555
Li3 O16 2.498093 1_555
Li3 O21 2.501125 1_465
Li4 O21 2.110168 1_555
Li4 O19 2.137608 1_555
Li4 O22 2.361146 1_555
Li4 O12 2.413515 1_555
Li4 O15 2.514805 1_555
Li4 O17 2.528061 1_546
Li5 O17 2.094781 1_555
Li5 O16 2.156484 1_555
Li5 O23 2.342853 1_555
Li5 O14 2.419714 1_555
Li5 O10 2.509268 1_654
Li5 O19 2.531864 1_555
Cr0 O9 1.961364 1_554
Cr0 O11 1.965617 1_555
Cr0 O6 2.011984 1_554
Cr0 O18 2.013653 1_455
Cr0 O13 2.014755 1_455
Cr0 O2 2.033257 1_545
Cr1 O1 1.955535 1_555
Cr1 O0 1.959202 1_555
Cr1 O3 2.007257 1_555
Cr1 O4 2.008191 1_555
Cr1 O8 2.009627 1_555
Cr1 O7 2.032355 1_555
Cr2 O23 1.980822 1_555
Cr2 O22 1.981204 1_555
Cr2 O20 1.989188 1_555
Cr2 O15 2.027298 1_555
Cr2 O19 2.028114 1_555
Cr2 O16 2.035294 1_555
Fe0 O12 1.953410 1_565
Fe0 O14 1.955168 1_556
Fe0 O5 1.960695 1_655
Fe0 O10 2.081623 1_655
Fe0 O17 2.084562 1_556
Fe0 O21 2.093704 1_565
O0 P5 1.512467 1_455
O1 P3 1.515016 1_554
O2 P0 1.555719 1_555
O3 P4 1.536833 1_545
O4 P0 1.537304 1_555
O5 P0 1.551385 1_555
O6 P1 1.536361 1_555
O7 P1 1.557563 1_555
O8 P2 1.555749 1_555
O9 P3 1.516659 1_555
O10 P3 1.574668 1_555
O11 P4 1.513318 1_545
O12 P1 1.550078 1_555
O13 P2 1.554736 1_555
O14 P2 1.539331 1_555
O15 P3 1.577672 1_555
O16 P4 1.574130 1_555
O17 P4 1.566497 1_555
O18 P5 1.538104 1_555
O19 P5 1.569785 1_555
O20 P1 1.546048 1_565
O21 P5 1.570663 1_555
O22 P2 1.533613 1_556
O23 P0 1.544438 1_655
