# generated using pymatgen
data_Li7Fe8(BO3)8
_symmetry_space_group_name_H-M   'P 1'
_cell_length_a   5.25888100
_cell_length_b   9.00237534
_cell_length_c   10.23189454
_cell_angle_alpha   90.17037267
_cell_angle_beta   92.00774372
_cell_angle_gamma   90.04936321
_symmetry_Int_Tables_number   1
_chemical_formula_structural   Li7Fe8(BO3)8
_chemical_formula_sum   'Li7 Fe8 B8 O24'
_cell_volume   484.10291449
_cell_formula_units_Z   1
loop_
 _symmetry_equiv_pos_site_id
 _symmetry_equiv_pos_as_xyz
  1  'x, y, z'
loop_
 _atom_site_type_symbol
 _atom_site_label
 _atom_site_symmetry_multiplicity
 _atom_site_fract_x
 _atom_site_fract_y
 _atom_site_fract_z
 _atom_site_occupancy
  Li  Li0  1  0.33639700  0.01028800  0.83457400  1
  Li  Li1  1  0.65919800  0.00906000  0.08633000  1
  Li  Li2  1  0.14885600  0.49014400  0.57777600  1
  Li  Li3  1  0.15717500  0.50322500  0.08983200  1
  Li  Li4  1  0.83422600  0.50693300  0.84220900  1
  Li  Li5  1  0.33735900  0.98994700  0.33675500  1
  Li  Li6  1  0.66133900  0.99703900  0.58302500  1
  Fe  Fe0  1  0.16222800  0.16516800  0.11601000  1
  Fe  Fe1  1  0.84816600  0.17735400  0.36508500  1
  Fe  Fe2  1  0.34151200  0.33764900  0.86633400  1
  Fe  Fe3  1  0.66172800  0.33615900  0.61620500  1
  Fe  Fe4  1  0.33868700  0.64993400  0.36774400  1
  Fe  Fe5  1  0.16225500  0.83714700  0.61177600  1
  Fe  Fe6  1  0.66416800  0.67036700  0.12401300  1
  Fe  Fe7  1  0.84474900  0.83556700  0.86356900  1
  B  B0  1  0.16226600  0.16837100  0.62708800  1
  B  B1  1  0.33238800  0.32528600  0.37462100  1
  B  B2  1  0.83241800  0.16561400  0.87546500  1
  B  B3  1  0.65855900  0.34075800  0.11831800  1
  B  B4  1  0.33118900  0.67046200  0.88323900  1
  B  B5  1  0.66155400  0.66834700  0.62496100  1
  B  B6  1  0.17117700  0.82715700  0.12474300  1
  B  B7  1  0.83191700  0.83822900  0.36260100  1
  O  O0  1  0.31120500  0.03980700  0.63694900  1
  O  O1  1  0.09402900  0.15980100  0.90339800  1
  O  O2  1  0.68562600  0.03852500  0.89042500  1
  O  O3  1  0.21815300  0.19251200  0.32844100  1
  O  O4  1  0.27510700  0.30495600  0.65723700  1
  O  O5  1  0.77753700  0.20656200  0.14967200  1
  O  O6  1  0.90832000  0.15859600  0.58925900  1
  O  O7  1  0.40052000  0.34214800  0.08427100  1
  O  O8  1  0.18845000  0.45204500  0.38432900  1
  O  O9  1  0.58399400  0.32266100  0.41485300  1
  O  O10  1  0.71770600  0.29866300  0.83699100  1
  O  O11  1  0.18858300  0.54316600  0.88786500  1
  O  O12  1  0.79834500  0.47172000  0.11705500  1
  O  O13  1  0.29195900  0.69072900  0.14869700  1
  O  O14  1  0.40766100  0.66170600  0.58180500  1
  O  O15  1  0.80467400  0.54127200  0.64439500  1
  O  O16  1  0.59248000  0.67051800  0.92755500  1
  O  O17  1  0.09025000  0.83134800  0.39734500  1
  O  O18  1  0.22482800  0.80175300  0.83642800  1
  O  O19  1  0.70276800  0.71130400  0.30789900  1
  O  O20  1  0.77616400  0.80579100  0.65406000  1
  O  O21  1  0.30589000  0.95726800  0.13437800  1
  O  O22  1  0.91124000  0.82757400  0.08906900  1
  O  O23  1  0.68909100  0.96252300  0.38522900  1
loop_
_geom_bond_atom_site_label_1
_geom_bond_atom_site_label_2
_geom_bond_distance
_geom_bond_site_symmetry_2
Li0 O2 1.920653 1_555
Li0 O18 1.966723 1_545
Li0 O1 1.998078 1_555
Li0 O0 2.039965 1_555
Li1 O5 1.982816 1_555
Li1 O21 1.993775 1_545
Li1 O2 2.032297 1_554
Li1 O22 2.104364 1_545
Li2 O4 1.962987 1_555
Li2 O15 2.009638 1_455
Li2 O8 2.025759 1_555
Li2 O14 2.057068 1_555
Li3 O13 1.917405 1_555
Li3 O7 1.936867 1_555
Li3 O12 1.937870 1_455
Li3 O11 2.110745 1_554
Li4 O11 1.932455 1_655
Li4 O10 1.972006 1_555
Li4 O15 2.048927 1_555
Li4 O16 2.149624 1_555
Li5 O23 1.914584 1_555
Li5 O3 1.929968 1_565
Li5 O17 2.042087 1_555
Li5 O21 2.091415 1_555
Li6 O6 1.948518 1_565
Li6 O20 1.958467 1_555
Li6 O0 1.978443 1_565
Li6 O23 2.056882 1_555
Fe0 O21 2.025721 1_545
Fe0 O7 2.059712 1_555
Fe0 O5 2.097513 1_455
Fe0 O1 2.192740 1_554
Fe0 O3 2.196226 1_555
Fe1 O9 1.987261 1_555
Fe1 O3 1.998995 1_655
Fe1 O23 2.119974 1_545
Fe1 O5 2.238601 1_555
Fe1 O6 2.311128 1_555
Fe2 O11 2.032463 1_555
Fe2 O10 2.041914 1_555
Fe2 O1 2.106100 1_555
Fe2 O4 2.174760 1_555
Fe2 O7 2.240844 1_556
Fe3 O15 2.009261 1_555
Fe3 O6 2.082995 1_555
Fe3 O9 2.089442 1_555
Fe3 O4 2.109164 1_555
Fe3 O10 2.293918 1_555
Fe4 O8 1.958425 1_555
Fe4 O19 2.104384 1_555
Fe4 O17 2.119986 1_555
Fe4 O14 2.209724 1_555
Fe4 O13 2.277058 1_555
Fe5 O0 1.997257 1_565
Fe5 O14 2.069398 1_555
Fe5 O20 2.109669 1_455
Fe5 O17 2.213815 1_555
Fe5 O18 2.333448 1_555
Fe6 O19 1.919911 1_555
Fe6 O12 1.925073 1_555
Fe6 O22 1.962489 1_555
Fe6 O13 1.990929 1_555
Fe6 O16 2.032166 1_554
Fe7 O2 2.032198 1_565
Fe7 O18 2.050459 1_655
Fe7 O16 2.111773 1_555
Fe7 O20 2.177044 1_555
Fe7 O22 2.322831 1_556
B0 O6 1.380008 1_455
B0 O4 1.393863 1_555
B0 O0 1.399970 1_555
B1 O9 1.372126 1_555
B1 O8 1.375176 1_555
B1 O3 1.410097 1_555
B2 O2 1.391447 1_555
B2 O10 1.393169 1_555
B2 O1 1.396374 1_655
B3 O12 1.389171 1_555
B3 O7 1.389203 1_555
B3 O5 1.394064 1_555
B4 O11 1.370850 1_555
B4 O18 1.387430 1_555
B4 O16 1.431814 1_555
B5 O15 1.380962 1_555
B5 O14 1.392728 1_555
B5 O20 1.402440 1_555
B6 O21 1.369875 1_555
B6 O13 1.401487 1_555
B6 O22 1.402473 1_455
B7 O23 1.371818 1_555
B7 O17 1.393660 1_655
B7 O19 1.431214 1_555
