# generated using pymatgen
data_LiMnSiO4
_symmetry_space_group_name_H-M   'P 1'
_cell_length_a   5.93038000
_cell_length_b   7.36472000
_cell_length_c   15.64036100
_cell_angle_alpha   90.00000000
_cell_angle_beta   90.00000000
_cell_angle_gamma   90.00000000
_symmetry_Int_Tables_number   1
_chemical_formula_structural   LiMnSiO4
_chemical_formula_sum   'Li8 Mn8 Si8 O32'
_cell_volume   683.10196624
_cell_formula_units_Z   8
loop_
 _symmetry_equiv_pos_site_id
 _symmetry_equiv_pos_as_xyz
  1  'x, y, z'
loop_
 _atom_site_type_symbol
 _atom_site_label
 _atom_site_symmetry_multiplicity
 _atom_site_fract_x
 _atom_site_fract_y
 _atom_site_fract_z
 _atom_site_occupancy
  Li  Li0  1  0.09042200  0.26330500  0.26508300  1
  Li  Li1  1  0.59042200  0.26330500  0.23491700  1
  Li  Li2  1  0.59042200  0.23669500  0.73491700  1
  Li  Li3  1  0.09042200  0.23669500  0.76508300  1
  Li  Li4  1  0.40957800  0.76330500  0.26508300  1
  Li  Li5  1  0.90957800  0.76330500  0.23491700  1
  Li  Li6  1  0.40957800  0.73669500  0.76508300  1
  Li  Li7  1  0.90957800  0.73669500  0.73491700  1
  Mn  Mn0  1  0.38942300  0.17002200  0.53403700  1
  Mn  Mn1  1  0.88942300  0.17002200  0.96596300  1
  Mn  Mn2  1  0.38942300  0.32997800  0.03403700  1
  Mn  Mn3  1  0.88942300  0.32997800  0.46596300  1
  Mn  Mn4  1  0.11057700  0.67002200  0.53403700  1
  Mn  Mn5  1  0.61057700  0.67002200  0.96596300  1
  Mn  Mn6  1  0.11057700  0.82997800  0.03403700  1
  Mn  Mn7  1  0.61057700  0.82997800  0.46596300  1
  Si  Si0  1  0.90663200  0.03324300  0.61386100  1
  Si  Si1  1  0.40663200  0.03324300  0.88613900  1
  Si  Si2  1  0.90663200  0.46675700  0.11386100  1
  Si  Si3  1  0.40663200  0.46675700  0.38613900  1
  Si  Si4  1  0.59336800  0.53324300  0.61386100  1
  Si  Si5  1  0.09336800  0.53324300  0.88613900  1
  Si  Si6  1  0.59336800  0.96675700  0.11386100  1
  Si  Si7  1  0.09336800  0.96675700  0.38613900  1
  O  O0  1  0.83069400  0.98699500  0.05479700  1
  O  O1  1  0.33069400  0.98699500  0.44520300  1
  O  O2  1  0.35790900  0.10927200  0.79263800  1
  O  O3  1  0.85790900  0.10927200  0.70736200  1
  O  O4  1  0.46728400  0.16596600  0.12241800  1
  O  O5  1  0.96728400  0.16596600  0.37758200  1
  O  O6  1  0.06491100  0.17484600  0.55596800  1
  O  O7  1  0.56491100  0.17484600  0.94403200  1
  O  O8  1  0.06491100  0.32515400  0.05596800  1
  O  O9  1  0.56491100  0.32515400  0.44403200  1
  O  O10  1  0.46728400  0.33403400  0.62241800  1
  O  O11  1  0.96728400  0.33403400  0.87758200  1
  O  O12  1  0.85790900  0.39072800  0.20736200  1
  O  O13  1  0.35790900  0.39072800  0.29263800  1
  O  O14  1  0.83069400  0.51300500  0.55479700  1
  O  O15  1  0.33069400  0.51300500  0.94520300  1
  O  O16  1  0.16930600  0.48699500  0.44520300  1
  O  O17  1  0.66930600  0.48699500  0.05479700  1
  O  O18  1  0.64209100  0.60927200  0.70736200  1
  O  O19  1  0.14209100  0.60927200  0.79263800  1
  O  O20  1  0.03271600  0.66596600  0.12241800  1
  O  O21  1  0.53271600  0.66596600  0.37758200  1
  O  O22  1  0.43508900  0.67484600  0.55596800  1
  O  O23  1  0.93508900  0.67484600  0.94403200  1
  O  O24  1  0.43508900  0.82515400  0.05596800  1
  O  O25  1  0.93508900  0.82515400  0.44403200  1
  O  O26  1  0.03271600  0.83403400  0.62241800  1
  O  O27  1  0.53271600  0.83403400  0.87758200  1
  O  O28  1  0.64209100  0.89072800  0.20736200  1
  O  O29  1  0.14209100  0.89072800  0.29263800  1
  O  O30  1  0.66930600  0.01300500  0.55479700  1
  O  O31  1  0.16930600  0.01300500  0.94520300  1
loop_
_geom_bond_atom_site_label_1
_geom_bond_atom_site_label_2
_geom_bond_distance
_geom_bond_site_symmetry_2
Li0 O13 1.892813 1_555
Li0 O12 1.896577 1_455
Li0 O5 2.035463 1_455
Li1 O12 1.892813 1_555
Li1 O13 1.896577 1_555
Li1 O4 2.035463 1_555
Li2 O3 1.892813 1_555
Li2 O2 1.896577 1_555
Li2 O10 2.035463 1_555
Li3 O2 1.892813 1_555
Li3 O3 1.896577 1_455
Li3 O11 2.035463 1_455
Li4 O29 1.892813 1_555
Li4 O28 1.896577 1_555
Li4 O21 2.035463 1_555
Li5 O28 1.892813 1_555
Li5 O29 1.896577 1_655
Li5 O20 2.035463 1_655
Li6 O19 1.892813 1_555
Li6 O18 1.896577 1_555
Li6 O27 2.035463 1_555
Li7 O18 1.892813 1_555
Li7 O19 1.896577 1_655
Li7 O26 2.035463 1_655
Mn0 O10 1.892887 1_555
Mn0 O6 1.955131 1_555
Mn0 O1 1.966894 1_545
Mn0 O30 2.048813 1_555
Mn0 O9 2.090465 1_555
Mn1 O11 1.892887 1_555
Mn1 O7 1.955131 1_555
Mn1 O0 1.966894 1_546
Mn1 O31 2.048813 1_655
Mn1 O8 2.090465 1_656
Mn2 O4 1.892887 1_555
Mn2 O8 1.955131 1_555
Mn2 O15 1.966894 1_554
Mn2 O17 2.048813 1_555
Mn2 O7 2.090465 1_554
Mn3 O5 1.892887 1_555
Mn3 O9 1.955131 1_555
Mn3 O14 1.966894 1_555
Mn3 O16 2.048813 1_655
Mn3 O6 2.090465 1_655
Mn4 O26 1.892887 1_555
Mn4 O22 1.955131 1_555
Mn4 O16 1.966894 1_555
Mn4 O14 2.048813 1_455
Mn4 O25 2.090465 1_455
Mn5 O27 1.892887 1_555
Mn5 O23 1.955131 1_555
Mn5 O17 1.966894 1_556
Mn5 O15 2.048813 1_555
Mn5 O24 2.090465 1_556
Mn6 O20 1.892887 1_555
Mn6 O24 1.955131 1_555
Mn6 O31 1.966894 1_564
Mn6 O0 2.048813 1_455
Mn6 O23 2.090465 1_454
Mn7 O21 1.892887 1_555
Mn7 O25 1.955131 1_555
Mn7 O30 1.966894 1_565
Mn7 O1 2.048813 1_555
Mn7 O22 2.090465 1_555
O0 Si6 1.690106 1_555
O1 Si7 1.690106 1_555
O2 Si1 1.592356 1_555
O3 Si0 1.592356 1_555
O4 Si6 1.652102 1_545
O5 Si7 1.652102 1_645
O6 Si0 1.669884 1_455
O7 Si1 1.669884 1_555
O8 Si2 1.669884 1_455
O9 Si3 1.669884 1_555
O10 Si4 1.652102 1_555
O11 Si5 1.652102 1_655
O12 Si2 1.592356 1_555
O13 Si3 1.592356 1_555
O14 Si4 1.690106 1_555
O15 Si5 1.690106 1_555
O16 Si3 1.690106 1_555
O17 Si2 1.690106 1_555
O18 Si4 1.592356 1_555
O19 Si5 1.592356 1_555
O20 Si2 1.652102 1_455
O21 Si3 1.652102 1_555
O22 Si4 1.669884 1_555
O23 Si5 1.669884 1_655
O24 Si6 1.669884 1_555
O25 Si7 1.669884 1_655
O26 Si0 1.652102 1_465
O27 Si1 1.652102 1_565
O28 Si6 1.592356 1_555
O29 Si7 1.592356 1_555
O30 Si0 1.690106 1_555
O31 Si1 1.690106 1_555
