# generated using pymatgen
data_Li5Cu3(TeO5)2
_symmetry_space_group_name_H-M   'P 1'
_cell_length_a   5.43813600
_cell_length_b   5.62272063
_cell_length_c   8.18496420
_cell_angle_alpha   98.92305931
_cell_angle_beta   108.77018615
_cell_angle_gamma   105.67881309
_symmetry_Int_Tables_number   1
_chemical_formula_structural   Li5Cu3(TeO5)2
_chemical_formula_sum   'Li5 Cu3 Te2 O10'
_cell_volume   219.95475601
_cell_formula_units_Z   1
loop_
 _symmetry_equiv_pos_site_id
 _symmetry_equiv_pos_as_xyz
  1  'x, y, z'
loop_
 _atom_site_type_symbol
 _atom_site_label
 _atom_site_symmetry_multiplicity
 _atom_site_fract_x
 _atom_site_fract_y
 _atom_site_fract_z
 _atom_site_occupancy
  Li  Li0  1  0.23118900  0.89555300  0.37599800  1
  Li  Li1  1  0.40980600  0.28483800  0.81736100  1
  Li  Li2  1  0.50000000  0.50000000  0.50000000  1
  Li  Li3  1  0.59019400  0.71516200  0.18263900  1
  Li  Li4  1  0.76881100  0.10444700  0.62400200  1
  Cu  Cu0  1  0.00000000  0.50000000  0.00000000  1
  Cu  Cu1  1  0.76761600  0.86122900  0.89141300  1
  Cu  Cu2  1  0.23238400  0.13877100  0.10858700  1
  Te  Te0  1  0.13537000  0.69454300  0.69586800  1
  Te  Te1  1  0.86463000  0.30545700  0.30413200  1
  O  O0  1  0.04955000  0.98732200  0.78904600  1
  O  O1  1  0.41336400  0.66952600  0.90316500  1
  O  O2  1  0.16088000  0.37138500  0.55385200  1
  O  O3  1  0.16161300  0.53364900  0.25126700  1
  O  O4  1  0.40710800  0.90881900  0.63251100  1
  O  O5  1  0.59289200  0.09118100  0.36748900  1
  O  O6  1  0.83838700  0.46635100  0.74873300  1
  O  O7  1  0.83912000  0.62861500  0.44614800  1
  O  O8  1  0.58663600  0.33047400  0.09683500  1
  O  O9  1  0.95045000  0.01267800  0.21095400  1
loop_
_geom_bond_atom_site_label_1
_geom_bond_atom_site_label_2
_geom_bond_distance
_geom_bond_site_symmetry_2
Li0 O4 1.987241 1_555
Li0 O3 2.004247 1_555
Li0 O5 2.006572 1_565
Li0 O9 2.020283 1_465
Li0 O7 2.540457 1_455
Li1 O8 2.119455 1_556
Li1 O0 2.122846 1_545
Li1 O1 2.160911 1_555
Li1 O2 2.350284 1_555
Li1 O4 2.395000 1_545
Li1 O6 2.554199 1_555
Li2 O7 2.004853 1_555
Li2 O2 2.004853 1_555
Li2 O6 2.337428 1_555
Li2 O3 2.337428 1_555
Li2 O4 2.631016 1_555
Li2 O5 2.631016 1_555
Li3 O1 2.119455 1_554
Li3 O9 2.122846 1_565
Li3 O8 2.160911 1_555
Li3 O7 2.350284 1_555
Li3 O5 2.395000 1_565
Li3 O3 2.554199 1_555
Li4 O5 1.987241 1_555
Li4 O6 2.004247 1_555
Li4 O4 2.006572 1_545
Li4 O0 2.020283 1_645
Li4 O2 2.540457 1_655
Cu0 O3 1.914177 1_555
Cu0 O6 1.914177 1_454
Cu1 O1 1.977744 1_555
Cu1 O0 1.994705 1_655
Cu1 O9 2.394195 1_566
Cu1 O4 2.488287 1_555
Cu1 O6 2.527520 1_555
Cu2 O8 1.977744 1_555
Cu2 O9 1.994705 1_455
Cu2 O0 2.394195 1_544
Cu2 O5 2.488287 1_555
Cu2 O3 2.527520 1_555
O0 Te0 1.940184 1_555
O1 Te0 1.929335 1_555
O2 Te1 2.057585 1_455
O2 Te0 2.063203 1_555
O3 Te1 1.985891 1_455
O4 Te0 1.904974 1_555
O5 Te1 1.904974 1_555
O6 Te0 1.985891 1_655
O7 Te0 2.057585 1_655
O7 Te1 2.063203 1_555
O8 Te1 1.929335 1_555
O9 Te1 1.940184 1_555
