# generated using pymatgen
data_Li2V2FeO6
_symmetry_space_group_name_H-M   'P 1'
_cell_length_a   5.13591911
_cell_length_b   5.13591911
_cell_length_c   10.12165835
_cell_angle_alpha   87.73292326
_cell_angle_beta   87.73292326
_cell_angle_gamma   57.98591896
_symmetry_Int_Tables_number   1
_chemical_formula_structural   Li2V2FeO6
_chemical_formula_sum   'Li4 V4 Fe2 O12'
_cell_volume   226.15031846
_cell_formula_units_Z   2
loop_
 _symmetry_equiv_pos_site_id
 _symmetry_equiv_pos_as_xyz
  1  'x, y, z'
loop_
 _atom_site_type_symbol
 _atom_site_label
 _atom_site_symmetry_multiplicity
 _atom_site_fract_x
 _atom_site_fract_y
 _atom_site_fract_z
 _atom_site_occupancy
  Li  Li0  1  0.19299300  0.47351600  0.75109600  1
  Li  Li1  1  0.47351600  0.19299300  0.25109600  1
  Li  Li2  1  0.52648400  0.80700700  0.74890400  1
  Li  Li3  1  0.80700700  0.52648400  0.24890400  1
  V  V0  1  0.15687800  0.68399400  0.01019700  1
  V  V1  1  0.68399400  0.15687800  0.51019700  1
  V  V2  1  0.31600600  0.84312200  0.48980300  1
  V  V3  1  0.84312200  0.31600600  0.98980300  1
  Fe  Fe0  1  0.50000000  0.00000000  0.00000000  1
  Fe  Fe1  1  0.00000000  0.50000000  0.50000000  1
  O  O0  1  0.99147200  0.81643600  0.60755000  1
  O  O1  1  0.34554600  0.48636400  0.40064100  1
  O  O2  1  0.18356400  0.00852800  0.89245000  1
  O  O3  1  0.48636400  0.34554600  0.90064100  1
  O  O4  1  0.51363600  0.65445400  0.09935900  1
  O  O5  1  0.15866300  0.33000000  0.10637900  1
  O  O6  1  0.81643600  0.99147200  0.10755000  1
  O  O7  1  0.65445400  0.51363600  0.59935900  1
  O  O8  1  0.33000000  0.15866300  0.60637900  1
  O  O9  1  0.00852800  0.18356400  0.39245000  1
  O  O10  1  0.67000000  0.84133700  0.39362100  1
  O  O11  1  0.84133700  0.67000000  0.89362100  1
loop_
_geom_bond_atom_site_label_1
_geom_bond_atom_site_label_2
_geom_bond_distance
_geom_bond_site_symmetry_2
Li0 O3 2.011241 1_555
Li0 O8 2.038386 1_555
Li0 O0 2.065891 1_455
Li0 O11 2.082781 1_455
Li1 O1 2.011241 1_555
Li1 O5 2.038386 1_555
Li1 O6 2.065891 1_545
Li1 O10 2.082781 1_545
Li2 O7 2.011241 1_555
Li2 O11 2.038386 1_555
Li2 O2 2.065891 1_565
Li2 O8 2.082781 1_565
Li3 O4 2.011241 1_555
Li3 O10 2.038386 1_555
Li3 O9 2.065891 1_655
Li3 O5 2.082781 1_655
Fe0 O6 1.972029 1_545
Fe0 O2 1.972029 1_554
Fe0 O3 1.974445 1_554
Fe0 O4 1.974445 1_545
Fe0 O11 1.987451 1_544
Fe0 O5 1.987451 1_555
Fe1 O9 1.972029 1_555
Fe1 O0 1.972029 1_455
Fe1 O7 1.974445 1_455
Fe1 O1 1.974445 1_555
Fe1 O10 1.987451 1_455
Fe1 O8 1.987451 1_555
O0 V1 1.892412 1_565
O0 V2 2.071097 1_655
O1 V1 2.000007 1_555
O1 V2 2.004987 1_555
O2 V3 1.892412 1_455
O2 V0 2.071097 1_546
O3 V0 2.000007 1_556
O3 V3 2.004987 1_555
O4 V3 2.000007 1_554
O4 V0 2.004987 1_555
O5 V0 2.023923 1_555
O5 V3 2.074907 1_454
O6 V0 1.892412 1_655
O6 V3 2.071097 1_564
O7 V2 2.000007 1_555
O7 V1 2.004987 1_555
O8 V1 2.023923 1_555
O8 V2 2.074907 1_545
O9 V2 1.892412 1_545
O9 V1 2.071097 1_455
O10 V2 2.023923 1_555
O10 V1 2.074907 1_565
O11 V3 2.023923 1_555
O11 V0 2.074907 1_656
