# generated using pymatgen
data_LiCr10O15
_symmetry_space_group_name_H-M   'P 1'
_cell_length_a   7.77987602
_cell_length_b   7.77987602
_cell_length_c   9.44580200
_cell_angle_alpha   90.00000000
_cell_angle_beta   90.00000000
_cell_angle_gamma   96.26323977
_symmetry_Int_Tables_number   1
_chemical_formula_structural   LiCr10O15
_chemical_formula_sum   'Li2 Cr20 O30'
_cell_volume   568.30854547
_cell_formula_units_Z   2
loop_
 _symmetry_equiv_pos_site_id
 _symmetry_equiv_pos_as_xyz
  1  'x, y, z'
loop_
 _atom_site_type_symbol
 _atom_site_label
 _atom_site_symmetry_multiplicity
 _atom_site_fract_x
 _atom_site_fract_y
 _atom_site_fract_z
 _atom_site_occupancy
  Li  Li0  1  0.00000000  0.00000000  0.00000000  1
  Li  Li1  1  0.50000000  0.50000000  0.50000000  1
  Cr  Cr0  1  0.18794100  0.18794100  0.63324800  1
  Cr  Cr1  1  0.31205900  0.31205900  0.13324800  1
  Cr  Cr2  1  0.09758200  0.58060600  0.38715200  1
  Cr  Cr3  1  0.08060600  0.59758200  0.11284800  1
  Cr  Cr4  1  0.59758200  0.08060600  0.11284800  1
  Cr  Cr5  1  0.58060600  0.09758200  0.38715200  1
  Cr  Cr6  1  0.29069900  0.54389600  0.85254800  1
  Cr  Cr7  1  0.04389600  0.79069900  0.64745200  1
  Cr  Cr8  1  0.79069900  0.04389600  0.64745200  1
  Cr  Cr9  1  0.54389600  0.29069900  0.85254800  1
  Cr  Cr10  1  0.70930100  0.45610400  0.14745200  1
  Cr  Cr11  1  0.20930100  0.95610400  0.35254800  1
  Cr  Cr12  1  0.95610400  0.20930100  0.35254800  1
  Cr  Cr13  1  0.45610400  0.70930100  0.14745200  1
  Cr  Cr14  1  0.90241800  0.41939400  0.61284800  1
  Cr  Cr15  1  0.40241800  0.91939400  0.88715200  1
  Cr  Cr16  1  0.91939400  0.40241800  0.88715200  1
  Cr  Cr17  1  0.41939400  0.90241800  0.61284800  1
  Cr  Cr18  1  0.68794100  0.68794100  0.86675200  1
  Cr  Cr19  1  0.81205900  0.81205900  0.36675200  1
  O  O0  1  0.13872800  0.13872800  0.22927300  1
  O  O1  1  0.10063000  0.36110100  0.49246600  1
  O  O2  1  0.36110100  0.10063000  0.49246600  1
  O  O3  1  0.39937000  0.13889900  0.99246600  1
  O  O4  1  0.13889900  0.39937000  0.99246600  1
  O  O5  1  0.56638900  0.06638900  0.75000000  1
  O  O6  1  0.06638900  0.56638900  0.75000000  1
  O  O7  1  0.36127200  0.36127200  0.72927300  1
  O  O8  1  0.03868300  0.77530500  0.26124300  1
  O  O9  1  0.27530500  0.53868300  0.23875700  1
  O  O10  1  0.77530500  0.03868300  0.26124300  1
  O  O11  1  0.53868300  0.27530500  0.23875700  1
  O  O12  1  0.74176100  0.25823900  0.00000000  1
  O  O13  1  0.50000000  0.50000000  0.00000000  1
  O  O14  1  0.25823900  0.74176100  0.00000000  1
  O  O15  1  0.00000000  0.00000000  0.50000000  1
  O  O16  1  0.75823900  0.24176100  0.50000000  1
  O  O17  1  0.24176100  0.75823900  0.50000000  1
  O  O18  1  0.96131700  0.22469500  0.73875700  1
  O  O19  1  0.46131700  0.72469500  0.76124300  1
  O  O20  1  0.22469500  0.96131700  0.73875700  1
  O  O21  1  0.72469500  0.46131700  0.76124300  1
  O  O22  1  0.63872800  0.63872800  0.27072700  1
  O  O23  1  0.43361100  0.93361100  0.25000000  1
  O  O24  1  0.93361100  0.43361100  0.25000000  1
  O  O25  1  0.60063000  0.86110100  0.00753400  1
  O  O26  1  0.86110100  0.60063000  0.00753400  1
  O  O27  1  0.89937000  0.63889900  0.50753400  1
  O  O28  1  0.63889900  0.89937000  0.50753400  1
  O  O29  1  0.86127200  0.86127200  0.77072700  1
loop_
_geom_bond_atom_site_label_1
_geom_bond_atom_site_label_2
_geom_bond_distance
_geom_bond_site_symmetry_2
Li0 O29 2.601090 1_444
Li0 O0 2.601090 1_555
Li1 O7 2.601090 1_555
Li1 O22 2.601090 1_555
Cr0 O7 2.015641 1_555
Cr0 O2 2.060166 1_555
Cr0 O1 2.060166 1_555
Cr0 O18 2.072089 1_455
Cr0 O20 2.072089 1_545
Cr0 O15 2.322390 1_555
Cr1 O0 2.015641 1_555
Cr1 O3 2.060166 1_554
Cr1 O4 2.060166 1_554
Cr1 O11 2.072089 1_555
Cr1 O9 2.072089 1_555
Cr1 O13 2.322390 1_555
Cr2 O1 1.978709 1_555
Cr2 O17 1.991486 1_555
Cr2 O27 2.007296 1_455
Cr2 O8 2.017498 1_555
Cr2 O9 2.020228 1_555
Cr2 O24 2.072488 1_455
Cr3 O26 1.978709 1_455
Cr3 O14 1.991486 1_555
Cr3 O4 2.007296 1_554
Cr3 O9 2.017498 1_555
Cr3 O8 2.020228 1_555
Cr3 O24 2.072488 1_455
Cr4 O25 1.978709 1_545
Cr4 O12 1.991486 1_555
Cr4 O3 2.007296 1_554
Cr4 O11 2.017498 1_555
Cr4 O10 2.020228 1_555
Cr4 O23 2.072488 1_545
Cr5 O2 1.978709 1_555
Cr5 O16 1.991486 1_555
Cr5 O28 2.007296 1_545
Cr5 O10 2.017498 1_555
Cr5 O11 2.020228 1_555
Cr5 O23 2.072488 1_545
Cr6 O7 1.961177 1_555
Cr6 O19 2.019132 1_555
Cr6 O6 2.020129 1_555
Cr6 O4 2.028787 1_555
Cr6 O14 2.111430 1_556
Cr6 O13 2.197575 1_556
Cr7 O29 1.961177 1_455
Cr7 O20 2.019132 1_555
Cr7 O6 2.020129 1_555
Cr7 O27 2.028787 1_455
Cr7 O17 2.111430 1_555
Cr7 O15 2.197575 1_565
Cr8 O29 1.961177 1_545
Cr8 O18 2.019132 1_555
Cr8 O5 2.020129 1_555
Cr8 O28 2.028787 1_545
Cr8 O16 2.111430 1_555
Cr8 O15 2.197575 1_655
Cr9 O7 1.961177 1_555
Cr9 O21 2.019132 1_555
Cr9 O5 2.020129 1_555
Cr9 O3 2.028787 1_555
Cr9 O12 2.111430 1_556
Cr9 O13 2.197575 1_556
Cr10 O22 1.961177 1_555
Cr10 O11 2.019132 1_555
Cr10 O24 2.020129 1_555
Cr10 O26 2.028787 1_555
Cr10 O12 2.111430 1_555
Cr10 O13 2.197575 1_555
Cr11 O0 1.961177 1_565
Cr11 O8 2.019132 1_555
Cr11 O23 2.020129 1_555
Cr11 O2 2.028787 1_565
Cr11 O17 2.111430 1_555
Cr11 O15 2.197575 1_565
Cr12 O0 1.961177 1_655
Cr12 O10 2.019132 1_555
Cr12 O24 2.020129 1_555
Cr12 O1 2.028787 1_655
Cr12 O16 2.111430 1_555
Cr12 O15 2.197575 1_655
Cr13 O22 1.961177 1_555
Cr13 O9 2.019132 1_555
Cr13 O23 2.020129 1_555
Cr13 O25 2.028787 1_555
Cr13 O14 2.111430 1_555
Cr13 O13 2.197575 1_555
Cr14 O27 1.978709 1_555
Cr14 O16 1.991486 1_555
Cr14 O1 2.007296 1_655
Cr14 O18 2.017498 1_555
Cr14 O21 2.020228 1_555
Cr14 O6 2.072488 1_655
Cr15 O3 1.978709 1_565
Cr15 O14 1.991486 1_556
Cr15 O25 2.007296 1_556
Cr15 O19 2.017498 1_555
Cr15 O20 2.020228 1_555
Cr15 O5 2.072488 1_565
Cr16 O4 1.978709 1_655
Cr16 O12 1.991486 1_556
Cr16 O26 2.007296 1_556
Cr16 O21 2.017498 1_555
Cr16 O18 2.020228 1_555
Cr16 O6 2.072488 1_655
Cr17 O28 1.978709 1_555
Cr17 O17 1.991486 1_555
Cr17 O2 2.007296 1_565
Cr17 O20 2.017498 1_555
Cr17 O19 2.020228 1_555
Cr17 O5 2.072488 1_565
Cr18 O29 2.015641 1_555
Cr18 O26 2.060166 1_556
Cr18 O25 2.060166 1_556
Cr18 O21 2.072089 1_555
Cr18 O19 2.072089 1_555
Cr18 O13 2.322390 1_556
Cr19 O22 2.015641 1_555
Cr19 O28 2.060166 1_555
Cr19 O27 2.060166 1_555
Cr19 O10 2.072089 1_565
Cr19 O8 2.072089 1_655
Cr19 O15 2.322390 1_665
