# generated using pymatgen
data_Li6Mn2O5F2
_symmetry_space_group_name_H-M   'P 1'
_cell_length_a   5.87109500
_cell_length_b   5.88297569
_cell_length_c   9.91427516
_cell_angle_alpha   95.43912949
_cell_angle_beta   93.55901840
_cell_angle_gamma   118.10458808
_symmetry_Int_Tables_number   1
_chemical_formula_structural   Li6Mn2O5F2
_chemical_formula_sum   'Li12 Mn4 O10 F4'
_cell_volume   298.46811449
_cell_formula_units_Z   2
loop_
 _symmetry_equiv_pos_site_id
 _symmetry_equiv_pos_as_xyz
  1  'x, y, z'
loop_
 _atom_site_type_symbol
 _atom_site_label
 _atom_site_symmetry_multiplicity
 _atom_site_fract_x
 _atom_site_fract_y
 _atom_site_fract_z
 _atom_site_occupancy
  Li  Li0  1  0.79044200  0.86870200  0.90809000  1
  Li  Li1  1  0.52877400  0.86650500  0.39261800  1
  Li  Li2  1  0.09230900  0.89318900  0.42051000  1
  Li  Li3  1  0.32033700  0.87791500  0.90178800  1
  Li  Li4  1  0.66913300  0.58499500  0.10890700  1
  Li  Li5  1  0.91852400  0.58017200  0.60475100  1
  Li  Li6  1  0.08147600  0.41982800  0.39524900  1
  Li  Li7  1  0.33086700  0.41500500  0.89109300  1
  Li  Li8  1  0.67966300  0.12208500  0.09821200  1
  Li  Li9  1  0.90769100  0.10681100  0.57949000  1
  Li  Li10  1  0.47122600  0.13349500  0.60738200  1
  Li  Li11  1  0.20955800  0.13129800  0.09191000  1
  Mn  Mn0  1  0.20434800  0.62025300  0.11908600  1
  Mn  Mn1  1  0.44076300  0.60650300  0.62284500  1
  Mn  Mn2  1  0.55923700  0.39349700  0.37715500  1
  Mn  Mn3  1  0.79565200  0.37974700  0.88091400  1
  O  O0  1  0.49607900  0.75412700  0.02205200  1
  O  O1  1  0.26332100  0.74881600  0.52594000  1
  O  O2  1  0.74844900  0.73570000  0.48591100  1
  O  O3  1  0.36911800  0.49985900  0.25104100  1
  O  O4  1  0.01834600  0.75115200  0.00884800  1
  O  O5  1  0.98165400  0.24884800  0.99115200  1
  O  O6  1  0.63088200  0.50014100  0.74895900  1
  O  O7  1  0.25155100  0.26430000  0.51408900  1
  O  O8  1  0.73667900  0.25118400  0.47406000  1
  O  O9  1  0.50392100  0.24587300  0.97794800  1
  F  F0  1  0.89876400  0.50946700  0.23837300  1
  F  F1  1  0.10123600  0.49053300  0.76162700  1
  F  F2  1  0.36535800  0.03008200  0.25891100  1
  F  F3  1  0.63464200  0.96991800  0.74108900  1
loop_
_geom_bond_atom_site_label_1
_geom_bond_atom_site_label_2
_geom_bond_distance
_geom_bond_site_symmetry_2
Li0 O0 2.001739 1_556
Li0 O4 2.025661 1_656
Li0 O5 2.027446 1_565
Li0 O6 2.306981 1_555
Li1 O2 2.008229 1_555
Li1 O1 2.016935 1_555
Li1 O8 2.047426 1_565
Li1 O3 2.204340 1_555
Li2 O1 1.914022 1_555
Li2 O2 1.966890 1_455
Li2 O7 2.021526 1_565
Li3 O0 1.932979 1_556
Li3 O9 1.951562 1_565
Li3 O4 1.991056 1_556
Li4 O0 1.941672 1_555
Li4 O9 2.033757 1_554
Li4 O4 2.165939 1_655
Li4 O3 2.224845 1_555
Li5 O8 1.992637 1_555
Li5 O2 2.035065 1_555
Li5 O1 2.035647 1_655
Li5 O6 2.189971 1_555
Li6 O1 1.992637 1_555
Li6 O7 2.035065 1_555
Li6 O8 2.035647 1_455
Li6 O3 2.189971 1_555
Li7 O9 1.941672 1_555
Li7 O0 2.033757 1_556
Li7 O5 2.165939 1_455
Li7 O6 2.224845 1_555
Li8 O9 1.932979 1_554
Li8 O0 1.951562 1_545
Li8 O5 1.991056 1_554
Li9 O8 1.914022 1_555
Li9 O7 1.966890 1_655
Li9 O2 2.021526 1_545
Li10 O7 2.008229 1_555
Li10 O8 2.016935 1_555
Li10 O1 2.047426 1_545
Li10 O6 2.204340 1_555
Li11 O9 2.001739 1_554
Li11 O5 2.025661 1_454
Li11 O4 2.027446 1_545
Li11 O3 2.306981 1_555
Mn0 O0 1.885910 1_555
Mn0 O4 1.945184 1_555
Mn0 O3 1.952702 1_555
Mn0 O5 2.160901 1_454
Mn1 O1 1.886599 1_555
Mn1 O7 1.944798 1_555
Mn1 O6 1.958025 1_555
Mn1 O2 2.211456 1_555
Mn2 O8 1.886599 1_555
Mn2 O2 1.944798 1_555
Mn2 O3 1.958025 1_555
Mn2 O7 2.211456 1_555
Mn3 O9 1.885910 1_555
Mn3 O5 1.945184 1_555
Mn3 O6 1.952702 1_555
Mn3 O4 2.160901 1_656
F0 Li4 2.029835 1_555
F0 Li6 2.080658 1_655
F0 Mn0 2.085697 1_655
F0 Li8 2.279266 1_555
F0 Mn2 2.359957 1_555
F0 Li2 2.490706 1_655
F1 Li7 2.029835 1_555
F1 Li5 2.080658 1_455
F1 Mn3 2.085697 1_455
F1 Li3 2.279266 1_555
F1 Mn1 2.359957 1_555
F1 Li9 2.490706 1_455
F2 Mn2 2.075377 1_555
F2 Li11 2.108229 1_555
F2 Li1 2.134858 1_545
F2 Li2 2.265489 1_545
F2 Mn0 2.384255 1_545
F2 Li8 2.413284 1_555
F3 Mn1 2.075377 1_555
F3 Li0 2.108229 1_555
F3 Li10 2.134858 1_565
F3 Li9 2.265489 1_565
F3 Mn3 2.384255 1_565
F3 Li3 2.413284 1_555
