# generated using pymatgen
data_NdBO3
_symmetry_space_group_name_H-M   'P 1'
_cell_length_a   5.04930330
_cell_length_b   5.72881457
_cell_length_c   8.09798399
_cell_angle_alpha   90.00000000
_cell_angle_beta   90.00000000
_cell_angle_gamma   90.00000000
_symmetry_Int_Tables_number   1
_chemical_formula_structural   NdBO3
_chemical_formula_sum   'Nd4 B4 O12'
_cell_volume   234.24651458
_cell_formula_units_Z   4
loop_
 _symmetry_equiv_pos_site_id
 _symmetry_equiv_pos_as_xyz
  1  'x, y, z'
loop_
 _atom_site_type_symbol
 _atom_site_label
 _atom_site_symmetry_multiplicity
 _atom_site_fract_x
 _atom_site_fract_y
 _atom_site_fract_z
 _atom_site_occupancy
  Nd  Nd0  1  0.25000000  0.25805119  0.41511118  1
  Nd  Nd1  1  0.75000000  0.74194881  0.58488882  1
  Nd  Nd2  1  0.25000000  0.75805119  0.08488882  1
  Nd  Nd3  1  0.75000000  0.24194881  0.91511118  1
  B  B0  1  0.25000000  0.41653597  0.76232830  1
  B  B1  1  0.75000000  0.58346403  0.23767170  1
  B  B2  1  0.25000000  0.91653597  0.73767170  1
  B  B3  1  0.75000000  0.08346403  0.26232830  1
  O  O0  1  0.48447821  0.91220814  0.82366302  1
  O  O1  1  0.98447821  0.08779186  0.17633698  1
  O  O2  1  0.01552179  0.41220814  0.67633698  1
  O  O3  1  0.51552179  0.58779186  0.32366302  1
  O  O4  1  0.75000000  0.09921085  0.43075667  1
  O  O5  1  0.25000000  0.90078915  0.56924333  1
  O  O6  1  0.75000000  0.59921085  0.06924333  1
  O  O7  1  0.25000000  0.40078915  0.93075667  1
  O  O8  1  0.51552179  0.08779186  0.17633698  1
  O  O9  1  0.01552179  0.91220814  0.82366302  1
  O  O10  1  0.98447821  0.58779186  0.32366302  1
  O  O11  1  0.48447821  0.41220814  0.67633698  1
loop_
_geom_bond_atom_site_label_1
_geom_bond_atom_site_label_2
_geom_bond_distance
_geom_bond_site_symmetry_2
Nd0 O5 2.397256 1_545
Nd0 O10 2.431932 1_455
Nd0 O3 2.431932 1_555
Nd0 O1 2.547081 1_455
Nd0 O8 2.547081 1_555
Nd0 O2 2.580039 1_555
Nd0 O11 2.580039 1_555
Nd0 O4 2.686626 1_555
Nd0 O4 2.686626 1_455
Nd1 O4 2.397256 1_565
Nd1 O11 2.431932 1_555
Nd1 O2 2.431932 1_655
Nd1 O0 2.547081 1_555
Nd1 O9 2.547081 1_655
Nd1 O10 2.580039 1_555
Nd1 O3 2.580039 1_555
Nd1 O5 2.686626 1_655
Nd1 O5 2.686626 1_555
Nd2 O7 2.397256 1_554
Nd2 O8 2.431932 1_565
Nd2 O1 2.431932 1_465
Nd2 O10 2.547081 1_455
Nd2 O3 2.547081 1_555
Nd2 O9 2.580039 1_554
Nd2 O0 2.580039 1_554
Nd2 O6 2.686626 1_455
Nd2 O6 2.686626 1_555
Nd3 O6 2.397256 1_556
Nd3 O9 2.431932 1_645
Nd3 O0 2.431932 1_545
Nd3 O2 2.547081 1_655
Nd3 O11 2.547081 1_555
Nd3 O1 2.580039 1_556
Nd3 O8 2.580039 1_556
Nd3 O7 2.686626 1_655
Nd3 O7 2.686626 1_555
B0 O7 1.366910 1_555
B0 O2 1.373779 1_555
B0 O11 1.373779 1_555
B1 O6 1.366910 1_555
B1 O3 1.373779 1_555
B1 O10 1.373779 1_555
B2 O5 1.366910 1_555
B2 O9 1.373779 1_555
B2 O0 1.373779 1_555
B3 O4 1.366910 1_555
B3 O8 1.373779 1_555
B3 O1 1.373779 1_555
