# generated using pymatgen
data_Li2Mn7F16
_symmetry_space_group_name_H-M   'P 1'
_cell_length_a   9.58738994
_cell_length_b   9.58738994
_cell_length_c   9.58738989
_cell_angle_alpha   39.74286265
_cell_angle_beta   39.74286265
_cell_angle_gamma   39.74286165
_symmetry_Int_Tables_number   1
_chemical_formula_structural   Li2Mn7F16
_chemical_formula_sum   'Li2 Mn7 F16'
_cell_volume   324.40916378
_cell_formula_units_Z   1
loop_
 _symmetry_equiv_pos_site_id
 _symmetry_equiv_pos_as_xyz
  1  'x, y, z'
loop_
 _atom_site_type_symbol
 _atom_site_label
 _atom_site_symmetry_multiplicity
 _atom_site_fract_x
 _atom_site_fract_y
 _atom_site_fract_z
 _atom_site_occupancy
  Li  Li0  1  0.66596400  0.66596400  0.66596400  1
  Li  Li1  1  0.33403600  0.33403600  0.33403600  1
  Mn  Mn0  1  0.00000000  0.00000000  0.00000000  1
  Mn  Mn1  1  0.11075300  0.47958200  0.74538200  1
  Mn  Mn2  1  0.52041800  0.25461800  0.88924700  1
  Mn  Mn3  1  0.25461800  0.88924700  0.52041800  1
  Mn  Mn4  1  0.74538200  0.11075300  0.47958200  1
  Mn  Mn5  1  0.47958200  0.74538200  0.11075300  1
  Mn  Mn6  1  0.88924700  0.52041800  0.25461800  1
  F  F0  1  0.76258400  0.76258400  0.76258400  1
  F  F1  1  0.00509700  0.34769700  0.75463700  1
  F  F2  1  0.15398600  0.59485100  0.84085800  1
  F  F3  1  0.40514900  0.15914200  0.84601400  1
  F  F4  1  0.65230300  0.24536300  0.99490300  1
  F  F5  1  0.24536300  0.99490300  0.65230300  1
  F  F6  1  0.15914200  0.84601400  0.40514900  1
  F  F7  1  0.58364900  0.58364900  0.58364900  1
  F  F8  1  0.41635100  0.41635100  0.41635100  1
  F  F9  1  0.84085800  0.15398600  0.59485100  1
  F  F10  1  0.75463700  0.00509700  0.34769700  1
  F  F11  1  0.34769700  0.75463700  0.00509700  1
  F  F12  1  0.59485100  0.84085800  0.15398600  1
  F  F13  1  0.84601400  0.40514900  0.15914200  1
  F  F14  1  0.99490300  0.65230300  0.24536300  1
  F  F15  1  0.23741600  0.23741600  0.23741600  1
loop_
_geom_bond_atom_site_label_1
_geom_bond_atom_site_label_2
_geom_bond_distance
_geom_bond_site_symmetry_2
F0 Mn1 2.108272 1_655
F0 Mn5 2.108272 1_556
F0 Mn4 2.108272 1_565
F1 Mn1 2.071644 1_555
F1 Mn0 2.159354 1_556
F1 Li0 2.368426 1_455
F2 Mn3 2.151782 1_555
F2 Mn1 2.252686 1_555
F2 Mn6 2.373990 1_456
F2 Mn2 2.398681 1_555
F3 Mn1 2.151782 1_555
F3 Mn2 2.252686 1_555
F3 Mn5 2.373989 1_546
F3 Mn4 2.398681 1_555
F4 Mn2 2.071644 1_555
F4 Mn0 2.159354 1_656
F4 Li1 2.368426 1_556
F5 Mn3 2.071644 1_555
F5 Mn0 2.159354 1_566
F5 Li1 2.368426 1_565
F6 Mn5 2.151782 1_555
F6 Mn3 2.252686 1_555
F6 Mn4 2.373989 1_465
F6 Mn1 2.398681 1_555
F7 Li0 2.177571 1_555
F7 Mn3 2.213345 1_555
F7 Mn6 2.213345 1_555
F7 Mn2 2.213345 1_555
F8 Li1 2.177571 1_555
F8 Mn4 2.213345 1_555
F8 Mn1 2.213345 1_555
F8 Mn5 2.213345 1_555
F9 Mn2 2.151782 1_555
F9 Mn4 2.252686 1_555
F9 Mn3 2.373989 1_645
F9 Mn6 2.398681 1_555
F10 Mn4 2.071644 1_555
F10 Mn0 2.159354 1_655
F10 Li0 2.368426 1_545
F11 Mn5 2.071644 1_555
F11 Mn0 2.159354 1_565
F11 Li0 2.368426 1_554
F12 Mn6 2.151782 1_555
F12 Mn5 2.252686 1_555
F12 Mn2 2.373989 1_564
F12 Mn3 2.398681 1_555
F13 Mn4 2.151782 1_555
F13 Mn6 2.252686 1_555
F13 Mn1 2.373990 1_654
F13 Mn5 2.398681 1_555
F14 Mn6 2.071644 1_555
F14 Mn0 2.159354 1_665
F14 Li1 2.368426 1_655
F15 Mn6 2.108272 1_455
F15 Mn2 2.108272 1_554
F15 Mn3 2.108272 1_545
