# generated using pymatgen
data_Fe3Cu(PO4)4
_symmetry_space_group_name_H-M   'P 1'
_cell_length_a   4.85071316
_cell_length_b   9.91898016
_cell_length_c   5.91077300
_cell_angle_alpha   90.00000000
_cell_angle_beta   90.00000000
_cell_angle_gamma   89.97473591
_symmetry_Int_Tables_number   1
_chemical_formula_structural   Fe3Cu(PO4)4
_chemical_formula_sum   'Fe3 Cu1 P4 O16'
_cell_volume   284.39165898
_cell_formula_units_Z   1
loop_
 _symmetry_equiv_pos_site_id
 _symmetry_equiv_pos_as_xyz
  1  'x, y, z'
loop_
 _atom_site_type_symbol
 _atom_site_label
 _atom_site_symmetry_multiplicity
 _atom_site_fract_x
 _atom_site_fract_y
 _atom_site_fract_z
 _atom_site_occupancy
  Fe  Fe0  1  0.47109200  0.22696100  0.75000000  1
  Fe  Fe1  1  0.53080300  0.77209600  0.25000000  1
  Fe  Fe2  1  0.96762800  0.27362600  0.25000000  1
  Cu  Cu0  1  0.04466300  0.72376800  0.75000000  1
  P  P0  1  0.08286300  0.59682700  0.25000000  1
  P  P1  1  0.41872800  0.09542000  0.25000000  1
  P  P2  1  0.57673600  0.90153000  0.75000000  1
  P  P3  1  0.91943900  0.40747200  0.75000000  1
  O  O0  1  0.15364000  0.44644700  0.25000000  1
  O  O1  1  0.23357800  0.67182100  0.04934900  1
  O  O2  1  0.23357800  0.67182100  0.45065100  1
  O  O3  1  0.23142100  0.38411300  0.75000000  1
  O  O4  1  0.26216600  0.88814300  0.75000000  1
  O  O5  1  0.27397600  0.17090100  0.04728800  1
  O  O6  1  0.27397600  0.17090100  0.45271200  1
  O  O7  1  0.34536400  0.94565000  0.25000000  1
  O  O8  1  0.65262800  0.05181800  0.75000000  1
  O  O9  1  0.71851600  0.82684800  0.54608400  1
  O  O10  1  0.71851600  0.82684800  0.95391600  1
  O  O11  1  0.73060900  0.11615000  0.25000000  1
  O  O12  1  0.77106100  0.61643900  0.25000000  1
  O  O13  1  0.77499200  0.32937800  0.54769500  1
  O  O14  1  0.77499200  0.32937800  0.95230500  1
  O  O15  1  0.83903400  0.55564200  0.75000000  1
loop_
_geom_bond_atom_site_label_1
_geom_bond_atom_site_label_2
_geom_bond_distance
_geom_bond_site_symmetry_2
Fe0 O3 1.944171 1_555
Fe0 O8 1.947325 1_555
Fe0 O5 2.076453 1_556
Fe0 O6 2.076453 1_555
Fe0 O13 2.153200 1_555
Fe0 O14 2.153200 1_555
Fe1 O12 1.934020 1_555
Fe1 O7 1.941969 1_555
Fe1 O9 2.046280 1_555
Fe1 O10 2.046280 1_554
Fe1 O2 2.115608 1_555
Fe1 O1 2.115608 1_555
Fe2 O0 1.937525 1_655
Fe2 O11 1.939914 1_555
Fe2 O13 2.067540 1_555
Fe2 O14 2.067540 1_554
Fe2 O5 2.163501 1_655
Fe2 O6 2.163501 1_655
Cu0 O4 1.942407 1_555
Cu0 O15 1.943550 1_455
Cu0 O2 2.058042 1_555
Cu0 O1 2.058042 1_556
Cu0 O9 2.235977 1_455
Cu0 O10 2.235977 1_455
O0 P0 1.530469 1_555
O1 P0 1.579521 1_555
O2 P0 1.579521 1_555
O3 P3 1.530868 1_455
O4 P2 1.531714 1_555
O5 P1 1.577575 1_555
O6 P1 1.577575 1_555
O7 P1 1.527748 1_565
O8 P2 1.535644 1_545
O9 P2 1.572901 1_555
O10 P2 1.572901 1_555
O11 P1 1.526845 1_555
O12 P0 1.524836 1_655
O13 P3 1.587870 1_555
O14 P3 1.587870 1_555
O15 P3 1.520400 1_555
