# generated using pymatgen
data_AsS
_symmetry_space_group_name_H-M   'P 1'
_cell_length_a   6.81350500
_cell_length_b   9.00854634
_cell_length_c   27.19543104
_cell_angle_alpha   81.82811851
_cell_angle_beta   84.20338096
_cell_angle_gamma   78.42098885
_symmetry_Int_Tables_number   1
_chemical_formula_structural   AsS
_chemical_formula_sum   'As24 S24'
_cell_volume   1614.14760906
_cell_formula_units_Z   24
loop_
 _symmetry_equiv_pos_site_id
 _symmetry_equiv_pos_as_xyz
  1  'x, y, z'
loop_
 _atom_site_type_symbol
 _atom_site_label
 _atom_site_symmetry_multiplicity
 _atom_site_fract_x
 _atom_site_fract_y
 _atom_site_fract_z
 _atom_site_occupancy
  As  As0  1  0.87257800  0.16840400  0.95512200  1
  As  As1  1  0.45340200  0.19000000  0.14290700  1
  As  As2  1  0.36468500  0.73956600  0.17132900  1
  As  As3  1  0.83834500  0.08077600  0.51880600  1
  As  As4  1  0.84247600  0.38904600  0.43491100  1
  As  As5  1  0.45881200  0.17388300  0.68096600  1
  As  As6  1  0.02207500  0.67902000  0.32127800  1
  As  As7  1  0.48841800  0.21790100  0.97247900  1
  As  As8  1  0.10349300  0.33717800  0.84775300  1
  As  As9  1  0.08426900  0.60097300  0.79450500  1
  As  As10  1  0.31583200  0.65925700  0.66871500  1
  As  As11  1  0.66176600  0.28481000  0.37661200  1
  As  As12  1  0.88024200  0.54995500  0.26220500  1
  As  As13  1  0.82207600  0.86541900  0.18152600  1
  As  As14  1  0.60159200  0.73840900  0.96601100  1
  As  As15  1  0.15663600  0.13577300  0.65650300  1
  As  As16  1  0.64371300  0.74491800  0.30804300  1
  As  As17  1  0.21938400  0.44903900  0.55945100  1
  As  As18  1  0.27279700  0.80760000  0.46810300  1
  As  As19  1  0.73756900  0.81383900  0.71332100  1
  As  As20  1  0.31401300  0.24373300  0.05756600  1
  As  As21  1  0.38501200  0.99754600  0.94444500  1
  As  As22  1  0.99673200  0.68877500  0.51864100  1
  As  As23  1  0.29002900  0.81992400  0.02052400  1
  S  S0  1  0.78356700  0.09364800  0.12833500  1
  S  S1  1  0.82673900  0.72394400  0.02534800  1
  S  S2  1  0.02770700  0.00999400  0.44673200  1
  S  S3  1  0.06418400  0.53199900  0.39645500  1
  S  S4  1  0.43794500  0.96046300  0.73772400  1
  S  S5  1  0.31817700  0.47603800  0.73769200  1
  S  S6  1  0.10877000  0.87560000  0.21862400  1
  S  S7  1  0.28238200  0.03128600  0.11224400  1
  S  S8  1  0.23472300  0.62832400  0.12360000  1
  S  S9  1  0.44224500  0.50191600  0.60717000  1
  S  S10  1  0.41616100  0.88381700  0.53250200  1
  S  S11  1  0.49841900  0.08769300  0.50585800  1
  S  S12  1  0.53850300  0.50984300  0.40833000  1
  S  S13  1  0.81551600  0.38488700  0.89870800  1
  S  S14  1  0.76658600  0.10832400  0.83929700  1
  S  S15  1  0.98249400  0.20094200  0.79378500  1
  S  S16  1  0.76802600  0.60685700  0.77424900  1
  S  S17  1  0.77689400  0.33167600  0.29534200  1
  S  S18  1  0.61767600  0.95331700  0.24701800  1
  S  S19  1  0.99162700  0.35448400  0.61545700  1
  S  S20  1  0.63746100  0.69838000  0.65336200  1
  S  S21  1  0.91965600  0.86806800  0.57255100  1
  S  S22  1  0.10854800  0.67012900  0.98752400  1
  S  S23  1  0.91094800  0.98652700  0.89927300  1
loop_
_geom_bond_atom_site_label_1
_geom_bond_atom_site_label_2
_geom_bond_distance
_geom_bond_site_symmetry_2
As0 S13 2.296461 1_555
As0 S23 2.348408 1_545
As0 As7 2.571878 1_555
As1 S0 2.259409 1_555
As1 S7 2.302498 1_555
As2 S8 2.105087 1_555
As2 S6 2.309500 1_555
As2 S7 2.862271 1_565
As3 S21 2.248607 1_545
As3 S2 2.329677 1_655
As3 S11 2.364889 1_555
As4 S3 2.261208 1_655
As4 S12 2.273834 1_555
As5 S4 2.306715 1_545
As6 S3 2.283087 1_555
As8 S13 2.288345 1_455
As8 S15 2.345779 1_455
As9 S16 2.265990 1_455
As9 S5 2.338970 1_555
As10 S20 2.276898 1_555
As10 S5 2.314874 1_555
As10 S9 2.333556 1_555
As11 S17 2.279453 1_555
As11 S12 2.286118 1_555
As12 S17 2.257985 1_555
As12 As6 2.482396 1_655
As12 As16 2.513216 1_555
As13 S18 2.279476 1_555
As13 S6 2.310483 1_655
As13 S0 2.324466 1_565
As14 S1 2.309606 1_556
As14 As21 2.524661 1_555
As15 S19 2.265181 1_455
As15 As5 2.329122 1_555
As16 S18 2.313071 1_555
As17 S9 2.254088 1_555
As17 S19 2.266706 1_455
As17 As22 2.557500 1_455
As18 S2 2.263467 1_565
As18 S10 2.334415 1_555
As18 As22 2.537855 1_455
As19 S20 2.279824 1_555
As19 S4 2.290381 1_555
As19 S16 2.302422 1_555
As20 S7 2.283019 1_555
As20 As7 2.511447 1_554
As21 As7 2.473537 1_565
As21 As23 2.542445 1_556
As22 S21 2.282803 1_555
As23 S22 2.322426 1_554
S1 S22 2.085441 1_654
S10 S11 2.040887 1_565
S14 S23 2.052760 1_545
S14 S15 2.055129 1_555
