# generated using pymatgen
data_Li3Mn(CoO3)2
_symmetry_space_group_name_H-M   'P 1'
_cell_length_a   3.04616146
_cell_length_b   9.84343283
_cell_length_c   7.64591191
_cell_angle_alpha   90.14227045
_cell_angle_beta   101.49825911
_cell_angle_gamma   98.90930772
_symmetry_Int_Tables_number   1
_chemical_formula_structural   Li3Mn(CoO3)2
_chemical_formula_sum   'Li6 Mn2 Co4 O12'
_cell_volume   221.81683977
_cell_formula_units_Z   2
loop_
 _symmetry_equiv_pos_site_id
 _symmetry_equiv_pos_as_xyz
  1  'x, y, z'
loop_
 _atom_site_type_symbol
 _atom_site_label
 _atom_site_symmetry_multiplicity
 _atom_site_fract_x
 _atom_site_fract_y
 _atom_site_fract_z
 _atom_site_occupancy
  Li  Li0  1  0.91666100  0.24997700  0.58335900  1
  Li  Li1  1  0.41669500  0.75000200  0.08337100  1
  Li  Li2  1  0.75137300  0.75349700  0.74924900  1
  Li  Li3  1  0.25133700  0.25347700  0.24922700  1
  Li  Li4  1  0.08200300  0.74653000  0.41745900  1
  Li  Li5  1  0.58199800  0.24652600  0.91748200  1
  Mn  Mn0  1  0.16660700  0.49995300  0.83316300  1
  Mn  Mn1  1  0.66670500  0.99999900  0.33341900  1
  Co  Co0  1  0.99837600  0.99858400  0.99806200  1
  Co  Co1  1  0.33497900  0.00142200  0.66866100  1
  Co  Co2  1  0.49828800  0.49856000  0.49798900  1
  Co  Co3  1  0.83499200  0.50141100  0.16860200  1
  O  O0  1  0.62075500  0.11290200  0.12857400  1
  O  O1  1  0.12073900  0.61295600  0.62847500  1
  O  O2  1  0.71258700  0.88706700  0.53816900  1
  O  O3  1  0.21258700  0.38713400  0.03808300  1
  O  O4  1  0.28815200  0.11387800  0.46268200  1
  O  O5  1  0.78829900  0.61389000  0.96266600  1
  O  O6  1  0.04519500  0.88615000  0.20401600  1
  O  O7  1  0.54504600  0.38613500  0.70397700  1
  O  O8  1  0.95619800  0.11629700  0.79619100  1
  O  O9  1  0.45629300  0.61631000  0.29624400  1
  O  O10  1  0.37708900  0.88368000  0.87042000  1
  O  O11  1  0.87704500  0.38366600  0.37045900  1
loop_
_geom_bond_atom_site_label_1
_geom_bond_atom_site_label_2
_geom_bond_distance
_geom_bond_site_symmetry_2
Li0 O8 2.091816 1_555
Li0 O11 2.092272 1_555
Li0 O7 2.192322 1_655
Li0 O4 2.192343 1_655
Li0 O4 2.192419 1_555
Li0 O7 2.192770 1_555
Li1 O9 2.092132 1_555
Li1 O10 2.092502 1_554
Li1 O5 2.192293 1_454
Li1 O6 2.192567 1_555
Li1 O6 2.192569 1_655
Li1 O5 2.192782 1_554
Li2 O2 2.080848 1_555
Li2 O5 2.132983 1_555
Li2 O10 2.160314 1_655
Li2 O10 2.160578 1_555
Li2 O1 2.218131 1_555
Li2 O1 2.218669 1_655
Li3 O3 2.081773 1_555
Li3 O4 2.133151 1_555
Li3 O11 2.160441 1_555
Li3 O11 2.160883 1_455
Li3 O0 2.217962 1_455
Li3 O0 2.218535 1_555
Li4 O1 2.080499 1_555
Li4 O6 2.133217 1_555
Li4 O9 2.160551 1_455
Li4 O9 2.161015 1_555
Li4 O2 2.217889 1_555
Li4 O2 2.218493 1_455
Li5 O0 2.081260 1_556
Li5 O7 2.133505 1_555
Li5 O8 2.160931 1_455
Li5 O8 2.161191 1_555
Li5 O3 2.218040 1_656
Li5 O3 2.218544 1_556
Mn0 O1 1.917220 1_555
Mn0 O3 1.917571 1_556
Mn0 O7 2.099425 1_455
Mn0 O7 2.099587 1_555
Mn0 O5 2.100877 1_555
Mn0 O5 2.101424 1_455
Mn1 O2 1.917186 1_555
Mn1 O0 1.917600 1_565
Mn1 O4 2.099579 1_665
Mn1 O6 2.099912 1_555
Mn1 O4 2.100550 1_565
Mn1 O6 2.100848 1_655
Co0 O6 1.921696 1_656
Co0 O8 1.928051 1_565
Co0 O10 2.099662 1_555
Co0 O10 2.100023 1_655
Co0 O0 2.106117 1_666
Co0 O0 2.106700 1_566
Co1 O4 1.921977 1_555
Co1 O10 1.927551 1_545
Co1 O8 2.099156 1_555
Co1 O8 2.099505 1_455
Co1 O2 2.106244 1_445
Co1 O2 2.106808 1_545
Co2 O7 1.921853 1_555
Co2 O9 1.927514 1_555
Co2 O11 2.099283 1_455
Co2 O11 2.099569 1_555
Co2 O1 2.106520 1_655
Co2 O1 2.106900 1_555
Co3 O5 1.921846 1_554
Co3 O11 1.928160 1_555
Co3 O9 2.099674 1_655
Co3 O9 2.099962 1_555
Co3 O3 2.106031 1_555
Co3 O3 2.106425 1_655
