# generated using pymatgen
data_CrOF
_symmetry_space_group_name_H-M   'P 1'
_cell_length_a   4.60051900
_cell_length_b   5.62605387
_cell_length_c   5.12339570
_cell_angle_alpha   91.46634025
_cell_angle_beta   90.00010820
_cell_angle_gamma   90.00007320
_symmetry_Int_Tables_number   1
_chemical_formula_structural   CrOF
_chemical_formula_sum   'Cr4 O4 F4'
_cell_volume   132.56423577
_cell_formula_units_Z   4
loop_
 _symmetry_equiv_pos_site_id
 _symmetry_equiv_pos_as_xyz
  1  'x, y, z'
loop_
 _atom_site_type_symbol
 _atom_site_label
 _atom_site_symmetry_multiplicity
 _atom_site_fract_x
 _atom_site_fract_y
 _atom_site_fract_z
 _atom_site_occupancy
  Cr  Cr0  1  0.98400100  0.14897300  0.27452400  1
  Cr  Cr1  1  0.48400100  0.35102700  0.72548100  1
  Cr  Cr2  1  0.51598900  0.64898000  0.27457700  1
  Cr  Cr3  1  0.01599000  0.85102100  0.72541500  1
  O  O0  1  0.77608300  0.88542100  0.41943900  1
  O  O1  1  0.72391200  0.38542100  0.41944500  1
  O  O2  1  0.27608400  0.61457900  0.58056000  1
  O  O3  1  0.22391100  0.11458000  0.58055700  1
  F  F0  1  0.24107900  0.88750200  0.07916300  1
  F  F1  1  0.25893600  0.38748500  0.07916400  1
  F  F2  1  0.74108000  0.61249700  0.92083700  1
  F  F3  1  0.75893400  0.11251500  0.92083800  1
loop_
_geom_bond_atom_site_label_1
_geom_bond_atom_site_label_2
_geom_bond_distance
_geom_bond_site_symmetry_2
Cr0 O1 1.924079 1_555
Cr0 O0 1.929017 1_545
Cr0 O3 1.931201 1_655
Cr0 F3 2.092548 1_554
Cr0 F1 2.114481 1_655
Cr0 F0 2.118779 1_645
Cr1 O3 1.924080 1_555
Cr1 O2 1.929027 1_555
Cr1 O1 1.931220 1_555
Cr1 F1 2.092534 1_556
Cr1 F3 2.114467 1_555
Cr1 F2 2.118762 1_555
Cr2 O0 1.923951 1_555
Cr2 O1 1.928962 1_555
Cr2 O2 1.930988 1_555
Cr2 F2 2.092856 1_554
Cr2 F0 2.114584 1_555
Cr2 F1 2.118924 1_555
Cr3 O2 1.923946 1_555
Cr3 O3 1.928936 1_565
Cr3 O0 1.930960 1_455
Cr3 F0 2.092882 1_556
Cr3 F2 2.114611 1_455
Cr3 F3 2.118956 1_465
