# generated using pymatgen
data_TiFe(PO4)2
_symmetry_space_group_name_H-M   'P 1'
_cell_length_a   7.82380263
_cell_length_b   7.82327495
_cell_length_c   9.99916744
_cell_angle_alpha   89.78017808
_cell_angle_beta   89.77845468
_cell_angle_gamma   100.83852572
_symmetry_Int_Tables_number   1
_chemical_formula_structural   TiFe(PO4)2
_chemical_formula_sum   'Ti4 Fe4 P8 O32'
_cell_volume   601.09772609
_cell_formula_units_Z   4
loop_
 _symmetry_equiv_pos_site_id
 _symmetry_equiv_pos_as_xyz
  1  'x, y, z'
loop_
 _atom_site_type_symbol
 _atom_site_label
 _atom_site_symmetry_multiplicity
 _atom_site_fract_x
 _atom_site_fract_y
 _atom_site_fract_z
 _atom_site_occupancy
  Ti  Ti0  1  0.61013500  0.86008100  0.22353600  1
  Ti  Ti1  1  0.10994900  0.36002100  0.22356800  1
  Ti  Ti2  1  0.38985800  0.13992100  0.77647100  1
  Ti  Ti3  1  0.89006000  0.63999500  0.77643300  1
  Fe  Fe0  1  0.11092000  0.86095200  0.27071600  1
  Fe  Fe1  1  0.88904900  0.13904400  0.72925200  1
  Fe  Fe2  1  0.61064400  0.36070400  0.27106800  1
  Fe  Fe3  1  0.38935100  0.63929900  0.72892200  1
  P  P0  1  0.34717200  0.09720200  0.09721900  1
  P  P1  1  0.84690100  0.59686500  0.09721900  1
  P  P2  1  0.65282500  0.90279300  0.90279000  1
  P  P3  1  0.15306700  0.40311000  0.90278700  1
  P  P4  1  0.82059400  0.07055300  0.39714600  1
  P  P5  1  0.32058500  0.57066300  0.39693800  1
  P  P6  1  0.17942100  0.92945800  0.60283000  1
  P  P7  1  0.67942200  0.42934500  0.60305500  1
  O  O0  1  0.69579000  0.94575200  0.05292900  1
  O  O1  1  0.19567800  0.44570800  0.05299700  1
  O  O2  1  0.30420700  0.05424000  0.94707600  1
  O  O3  1  0.80431500  0.55428600  0.94700900  1
  O  O4  1  0.49814400  0.24827400  0.10638100  1
  O  O5  1  0.99804600  0.74798000  0.10655100  1
  O  O6  1  0.50185300  0.75173000  0.89362000  1
  O  O7  1  0.00191400  0.25199800  0.89345800  1
  O  O8  1  0.47010000  0.72012800  0.35357000  1
  O  O9  1  0.97006500  0.22004700  0.35377700  1
  O  O10  1  0.52990800  0.27988000  0.64643300  1
  O  O11  1  0.02994200  0.77996400  0.64621400  1
  O  O12  1  0.19356500  0.94369300  0.45320200  1
  O  O13  1  0.69353200  0.44331800  0.45339300  1
  O  O14  1  0.80649000  0.05630800  0.54678400  1
  O  O15  1  0.30648900  0.55667600  0.54661300  1
  O  O16  1  0.17656100  0.13072600  0.16908200  1
  O  O17  1  0.67639000  0.63059500  0.16896000  1
  O  O18  1  0.38083900  0.92664600  0.16905100  1
  O  O19  1  0.88052900  0.42629000  0.16895200  1
  O  O20  1  0.61916900  0.07335800  0.83096100  1
  O  O21  1  0.11945800  0.57369700  0.83105400  1
  O  O22  1  0.82344600  0.86927500  0.83093800  1
  O  O23  1  0.32358200  0.36938500  0.83104500  1
  O  O24  1  0.84066500  0.89581900  0.32578400  1
  O  O25  1  0.34066200  0.39583500  0.32578000  1
  O  O26  1  0.64581900  0.09067700  0.32591800  1
  O  O27  1  0.14581100  0.59071800  0.32569300  1
  O  O28  1  0.15934900  0.10419200  0.67420200  1
  O  O29  1  0.65934600  0.60418200  0.67421600  1
  O  O30  1  0.35418800  0.90932700  0.67409100  1
  O  O31  1  0.85419600  0.40928800  0.67431500  1
loop_
_geom_bond_atom_site_label_1
_geom_bond_atom_site_label_2
_geom_bond_distance
_geom_bond_site_symmetry_2
Fe0 O5 1.996089 1_455
Fe0 O12 2.006846 1_555
Fe0 O27 2.248440 1_555
Fe0 O24 2.248876 1_455
Fe0 O16 2.307093 1_565
Fe0 O18 2.308338 1_555
Fe1 O7 1.996351 1_655
Fe1 O14 2.006494 1_555
Fe1 O31 2.248330 1_555
Fe1 O28 2.249136 1_655
Fe1 O22 2.307271 1_545
Fe1 O20 2.308261 1_555
Fe2 O4 1.997812 1_555
Fe2 O13 2.005620 1_555
Fe2 O25 2.246581 1_555
Fe2 O26 2.247241 1_555
Fe2 O17 2.310000 1_555
Fe2 O19 2.310035 1_555
Fe3 O6 1.997912 1_555
Fe3 O15 2.005439 1_555
Fe3 O29 2.246632 1_555
Fe3 O30 2.247175 1_555
Fe3 O21 2.310165 1_555
Fe3 O23 2.310232 1_555
O0 P2 1.563659 1_554
O0 Ti0 1.903145 1_555
O1 P3 1.563349 1_554
O1 Ti1 1.903022 1_555
O2 P0 1.563702 1_556
O2 Ti2 1.903140 1_555
O3 P1 1.563288 1_556
O3 Ti3 1.903151 1_555
O4 P0 1.508992 1_555
O5 P1 1.510181 1_555
O6 P2 1.508952 1_555
O7 P3 1.510204 1_555
O8 P5 1.549667 1_555
O8 Ti0 1.901753 1_555
O9 P4 1.549598 1_555
O9 Ti1 1.902469 1_655
O10 P7 1.549690 1_555
O10 Ti2 1.901856 1_555
O11 P6 1.549677 1_555
O11 Ti3 1.902512 1_455
O12 P6 1.501977 1_555
O13 P7 1.502186 1_555
O14 P4 1.502064 1_555
O15 P5 1.502316 1_555
O16 P0 1.578790 1_555
O16 Ti1 2.035480 1_555
O17 P1 1.578081 1_555
O17 Ti0 2.035940 1_555
O18 P0 1.578588 1_565
O18 Ti0 2.035446 1_555
O19 P1 1.578171 1_555
O19 Ti1 2.035731 1_655
O20 P2 1.578608 1_545
O20 Ti2 2.035562 1_555
O21 P3 1.578204 1_555
O21 Ti3 2.035679 1_455
O22 P2 1.578793 1_555
O22 Ti3 2.035429 1_555
O23 P3 1.578101 1_555
O23 Ti2 2.035844 1_555
O24 P4 1.577924 1_565
O24 Ti0 2.050199 1_555
O25 P5 1.577661 1_555
O25 Ti1 2.051228 1_555
O26 P4 1.577807 1_555
O26 Ti0 2.051199 1_545
O27 P5 1.577736 1_555
O27 Ti1 2.050546 1_555
O28 P6 1.577971 1_545
O28 Ti2 2.050166 1_555
O29 P7 1.577735 1_555
O29 Ti3 2.051260 1_555
O30 P6 1.577916 1_555
O30 Ti2 2.051178 1_565
O31 P7 1.577809 1_555
O31 Ti3 2.050578 1_555
