# generated using pymatgen
data_Mn2CrNi3(PO4)6
_symmetry_space_group_name_H-M   'P 1'
_cell_length_a   8.56250533
_cell_length_b   8.56250533
_cell_length_c   8.56250522
_cell_angle_alpha   60.58376907
_cell_angle_beta   60.58376907
_cell_angle_gamma   60.58376450
_symmetry_Int_Tables_number   1
_chemical_formula_structural   Mn2CrNi3(PO4)6
_chemical_formula_sum   'Mn2 Cr1 Ni3 P6 O24'
_cell_volume   449.75569894
_cell_formula_units_Z   1
loop_
 _symmetry_equiv_pos_site_id
 _symmetry_equiv_pos_as_xyz
  1  'x, y, z'
loop_
 _atom_site_type_symbol
 _atom_site_label
 _atom_site_symmetry_multiplicity
 _atom_site_fract_x
 _atom_site_fract_y
 _atom_site_fract_z
 _atom_site_occupancy
  Mn  Mn0  1  0.00171100  0.00171100  0.00171100  1
  Mn  Mn1  1  0.50025900  0.50025900  0.50025900  1
  Cr  Cr0  1  0.85817900  0.85817900  0.85817900  1
  Ni  Ni0  1  0.14328700  0.14328700  0.14328700  1
  Ni  Ni1  1  0.35775300  0.35775300  0.35775300  1
  Ni  Ni2  1  0.64300200  0.64300200  0.64300200  1
  P  P0  1  0.75026800  0.04322300  0.45861800  1
  P  P1  1  0.04322300  0.45861800  0.75026800  1
  P  P2  1  0.45861800  0.75026800  0.04322300  1
  P  P3  1  0.54279600  0.24946300  0.95573400  1
  P  P4  1  0.95573400  0.54279600  0.24946300  1
  P  P5  1  0.24946300  0.95573400  0.54279600  1
  O  O0  1  0.31057600  0.10905300  0.51395700  1
  O  O1  1  0.51395700  0.31057600  0.10905300  1
  O  O2  1  0.91142400  0.05681700  0.26172000  1
  O  O3  1  0.10905300  0.51395700  0.31057600  1
  O  O4  1  0.81894600  0.99731100  0.61785400  1
  O  O5  1  0.59137900  0.24066700  0.45144300  1
  O  O6  1  0.05681700  0.26172000  0.91142400  1
  O  O7  1  0.24066700  0.45144300  0.59137900  1
  O  O8  1  0.38905800  0.18581800  0.98678300  1
  O  O9  1  0.45144300  0.59137900  0.24066700  1
  O  O10  1  0.74371100  0.08607100  0.93454100  1
  O  O11  1  0.98678300  0.38905800  0.18581800  1
  O  O12  1  0.99731100  0.61785400  0.81894600  1
  O  O13  1  0.26172000  0.91142400  0.05681700  1
  O  O14  1  0.56117900  0.40767800  0.75468100  1
  O  O15  1  0.61785400  0.81894600  0.99731100  1
  O  O16  1  0.75468100  0.56117900  0.40767800  1
  O  O17  1  0.93454100  0.74371100  0.08607100  1
  O  O18  1  0.40767800  0.75468100  0.56117900  1
  O  O19  1  0.18581800  0.98678300  0.38905800  1
  O  O20  1  0.89138900  0.48971600  0.68393400  1
  O  O21  1  0.08607100  0.93454100  0.74371100  1
  O  O22  1  0.48971600  0.68393400  0.89138900  1
  O  O23  1  0.68393400  0.89138900  0.48971600  1
loop_
_geom_bond_atom_site_label_1
_geom_bond_atom_site_label_2
_geom_bond_distance
_geom_bond_site_symmetry_2
Mn0 O13 2.181681 1_545
Mn0 O2 2.181681 1_455
Mn0 O6 2.181681 1_554
Mn0 O10 2.237252 1_454
Mn0 O21 2.237252 1_544
Mn0 O17 2.237252 1_445
Mn1 O5 2.147757 1_555
Mn1 O9 2.147757 1_555
Mn1 O7 2.147757 1_555
Mn1 O18 2.158705 1_555
Mn1 O14 2.158705 1_555
Mn1 O16 2.158705 1_555
Cr0 O12 1.909031 1_555
Cr0 O4 1.909031 1_555
Cr0 O15 1.909031 1_555
Cr0 O10 1.985176 1_565
Cr0 O17 1.985176 1_556
Cr0 O21 1.985176 1_655
Ni0 O11 1.964751 1_455
Ni0 O19 1.964751 1_545
Ni0 O8 1.964751 1_554
Ni0 O13 2.060779 1_545
Ni0 O6 2.060779 1_554
Ni0 O2 2.060779 1_455
Ni1 O3 2.000827 1_555
Ni1 O1 2.000827 1_555
Ni1 O0 2.000827 1_555
Ni1 O5 2.113452 1_555
Ni1 O7 2.113452 1_555
Ni1 O9 2.113452 1_555
Ni2 O20 1.976651 1_555
Ni2 O22 1.976651 1_555
Ni2 O23 1.976651 1_555
Ni2 O18 2.073946 1_555
Ni2 O16 2.073946 1_555
Ni2 O14 2.073946 1_555
O0 P5 1.512503 1_545
O1 P3 1.512503 1_554
O2 P0 1.561992 1_555
O3 P4 1.512503 1_455
O4 P0 1.547052 1_565
O5 P0 1.560002 1_555
O6 P1 1.561992 1_555
O7 P1 1.560002 1_555
O8 P3 1.522863 1_555
O9 P2 1.560002 1_555
O10 P3 1.590066 1_555
O11 P4 1.522863 1_555
O12 P1 1.547052 1_655
O13 P2 1.561992 1_555
O14 P3 1.573547 1_555
O15 P2 1.547052 1_556
O16 P4 1.573547 1_555
O17 P4 1.590066 1_555
O18 P5 1.573547 1_555
O19 P5 1.522863 1_555
O20 P1 1.523304 1_655
O21 P5 1.590066 1_555
O22 P2 1.523304 1_556
O23 P0 1.523304 1_565
