# generated using pymatgen
data_Al3CrO6
_symmetry_space_group_name_H-M   'P 1'
_cell_length_a   5.18061849
_cell_length_b   4.81549823
_cell_length_c   7.08809674
_cell_angle_alpha   89.99999131
_cell_angle_beta   95.73684714
_cell_angle_gamma   90.00000164
_symmetry_Int_Tables_number   1
_chemical_formula_structural   Al3CrO6
_chemical_formula_sum   'Al6 Cr2 O12'
_cell_volume   175.94293876
_cell_formula_units_Z   2
loop_
 _symmetry_equiv_pos_site_id
 _symmetry_equiv_pos_as_xyz
  1  'x, y, z'
loop_
 _atom_site_type_symbol
 _atom_site_label
 _atom_site_symmetry_multiplicity
 _atom_site_fract_x
 _atom_site_fract_y
 _atom_site_fract_z
 _atom_site_occupancy
  Al  Al0  1  0.29475101  0.00162713  0.85271663  1
  Al  Al1  1  0.80122204  0.50179326  0.84997012  1
  Al  Al2  1  0.20416406  0.50223395  0.64696959  1
  Al  Al3  1  0.29475096  0.99837296  0.35271646  1
  Al  Al4  1  0.80122176  0.49820609  0.34997004  1
  Al  Al5  1  0.20416386  0.49776625  0.14696971  1
  Cr  Cr0  1  0.69951866  0.00179996  0.64980251  1
  Cr  Cr1  1  0.69951868  0.99819965  0.14980250  1
  O  O0  1  0.64633352  0.16465370  0.89788280  1
  O  O1  1  0.85232642  0.36233375  0.59544496  1
  O  O2  1  0.15335998  0.34301425  0.90307365  1
  O  O3  1  0.33846214  0.15377819  0.59466082  1
  O  O4  1  0.49964053  0.68976812  0.75393858  1
  O  O5  1  0.01022284  0.80047673  0.75553785  1
  O  O6  1  0.49964012  0.31023183  0.25393865  1
  O  O7  1  0.64633342  0.83534580  0.39788266  1
  O  O8  1  0.85232599  0.63766605  0.09544505  1
  O  O9  1  0.15336000  0.65698571  0.40307348  1
  O  O10  1  0.01022236  0.19952287  0.25553812  1
  O  O11  1  0.33846166  0.84622176  0.09466081  1
loop_
_geom_bond_atom_site_label_1
_geom_bond_atom_site_label_2
_geom_bond_distance
_geom_bond_site_symmetry_2
Al0 O5 1.839160 1_545
Al0 O2 1.848996 1_555
Al0 O11 1.864038 1_546
Al0 O0 1.979843 1_555
Al0 O3 2.004148 1_555
Al0 O4 2.005179 1_545
Al1 O8 1.852978 1_556
Al1 O0 1.857263 1_555
Al1 O4 1.873797 1_555
Al1 O5 1.958060 1_655
Al1 O1 1.967577 1_555
Al1 O2 1.979155 1_655
Al2 O3 1.867820 1_555
Al2 O4 1.871251 1_555
Al2 O9 1.876766 1_555
Al2 O1 1.943328 1_455
Al2 O5 1.954200 1_555
Al2 O2 2.011947 1_555
Al3 O10 1.839160 1_565
Al3 O9 1.848997 1_555
Al3 O3 1.864040 1_565
Al3 O7 1.979844 1_555
Al3 O11 2.004147 1_555
Al3 O6 2.005176 1_565
Al4 O1 1.852977 1_555
Al4 O7 1.857263 1_555
Al4 O6 1.873796 1_555
Al4 O10 1.958058 1_655
Al4 O8 1.967576 1_555
Al4 O9 1.979158 1_655
Al5 O11 1.867818 1_555
Al5 O6 1.871251 1_555
Al5 O2 1.876766 1_554
Al5 O8 1.943328 1_455
Al5 O10 1.954203 1_555
Al5 O9 2.011945 1_555
Cr0 O7 1.951548 1_545
Cr0 O1 1.962227 1_555
Cr0 O5 1.962482 1_645
Cr0 O0 1.969724 1_555
Cr0 O4 2.006901 1_545
Cr0 O3 2.010216 1_555
Cr1 O0 1.951546 1_564
Cr1 O8 1.962225 1_555
Cr1 O10 1.962480 1_665
Cr1 O7 1.969724 1_555
Cr1 O6 2.006904 1_565
Cr1 O11 2.010217 1_555
