# generated using pymatgen
data_NaLi5Mn2P2(CO7)2
_symmetry_space_group_name_H-M   'P 1'
_cell_length_a   5.01175500
_cell_length_b   8.65484623
_cell_length_c   13.30711662
_cell_angle_alpha   90.66802169
_cell_angle_beta   90.08110985
_cell_angle_gamma   92.20772748
_symmetry_Int_Tables_number   1
_chemical_formula_structural   NaLi5Mn2P2(CO7)2
_chemical_formula_sum   'Na2 Li10 Mn4 P4 C4 O28'
_cell_volume   576.74042487
_cell_formula_units_Z   2
loop_
 _symmetry_equiv_pos_site_id
 _symmetry_equiv_pos_as_xyz
  1  'x, y, z'
loop_
 _atom_site_type_symbol
 _atom_site_label
 _atom_site_symmetry_multiplicity
 _atom_site_fract_x
 _atom_site_fract_y
 _atom_site_fract_z
 _atom_site_occupancy
  Na  Na0  1  0.75188900  0.91205000  0.37657500  1
  Na  Na1  1  0.25279100  0.75297700  0.99931900  1
  Li  Li0  1  0.74619100  0.91635300  0.86404300  1
  Li  Li1  1  0.22914000  0.72973400  0.76175800  1
  Li  Li2  1  0.22423800  0.73323400  0.48898300  1
  Li  Li3  1  0.22313700  0.72764800  0.26772200  1
  Li  Li4  1  0.77087800  0.26778200  0.73494900  1
  Li  Li5  1  0.77457100  0.26419700  0.51215100  1
  Li  Li6  1  0.77277300  0.26436400  0.24008000  1
  Li  Li7  1  0.77054900  0.26556600  0.01319900  1
  Li  Li8  1  0.25767500  0.08990200  0.13184800  1
  Li  Li9  1  0.25844100  0.08507000  0.62662300  1
  Mn  Mn0  1  0.77385700  0.64622900  0.62665400  1
  Mn  Mn1  1  0.77251000  0.64335000  0.12623800  1
  Mn  Mn2  1  0.22315400  0.35307000  0.87451400  1
  Mn  Mn3  1  0.22900000  0.35132600  0.37548600  1
  P  P0  1  0.71225300  0.58349500  0.37552400  1
  P  P1  1  0.70744500  0.59115500  0.87265600  1
  P  P2  1  0.28724100  0.40900900  0.62604700  1
  P  P3  1  0.28651200  0.40660000  0.12631000  1
  C  C0  1  0.72695900  0.96043900  0.62260300  1
  C  C1  1  0.73117200  0.96094500  0.12774900  1
  C  C2  1  0.26597800  0.04673900  0.37567400  1
  C  C3  1  0.27947600  0.04290200  0.86838700  1
  O  O0  1  0.34728300  0.90012300  0.85868800  1
  O  O1  1  0.27831200  0.89627800  0.37642700  1
  O  O2  1  0.97792500  0.92131700  0.12605700  1
  O  O3  1  0.97454700  0.92132200  0.62246200  1
  O  O4  1  0.53948500  0.85554200  0.13277200  1
  O  O5  1  0.53609200  0.85379500  0.62029600  1
  O  O6  1  0.78262100  0.68633200  0.96899100  1
  O  O7  1  0.82806700  0.68908200  0.78487800  1
  O  O8  1  0.82488000  0.67359500  0.46868200  1
  O  O9  1  0.81942000  0.67566600  0.28368900  1
  O  O10  1  0.39695800  0.57932400  0.86170800  1
  O  O11  1  0.39905500  0.58419400  0.37646600  1
  O  O12  1  0.19575100  0.57897400  0.62720300  1
  O  O13  1  0.19243600  0.57539500  0.13291400  1
  O  O14  1  0.80829100  0.42351800  0.87456100  1
  O  O15  1  0.79632500  0.41282200  0.37309500  1
  O  O16  1  0.60051900  0.41579600  0.62715500  1
  O  O17  1  0.59929700  0.41426200  0.12383500  1
  O  O18  1  0.17822700  0.31196600  0.71577200  1
  O  O19  1  0.18315100  0.31598100  0.53259400  1
  O  O20  1  0.18837200  0.30694500  0.21654300  1
  O  O21  1  0.17446200  0.31692100  0.03281600  1
  O  O22  1  0.46808800  0.15080900  0.87481000  1
  O  O23  1  0.48219000  0.13433500  0.37559800  1
  O  O24  1  0.03059200  0.07897600  0.87200400  1
  O  O25  1  0.03705000  0.11148700  0.37487900  1
  O  O26  1  0.66861400  0.10591900  0.12522000  1
  O  O27  1  0.66416100  0.10519000  0.62479000  1
loop_
_geom_bond_atom_site_label_1
_geom_bond_atom_site_label_2
_geom_bond_distance
_geom_bond_site_symmetry_2
Na0 O25 2.198488 1_665
Na0 O1 2.372115 1_555
Na0 O23 2.393579 1_565
Na0 O9 2.413192 1_555
Na0 O8 2.451779 1_555
Na0 O1 2.647081 1_655
Na1 O0 2.315138 1_555
Na1 O13 2.375617 1_556
Na1 O4 2.421564 1_556
Na1 O6 2.436237 1_455
Na1 O10 2.481416 1_555
Na1 O2 2.639821 1_456
Na1 O6 2.768072 1_555
Li0 O24 1.966053 1_665
Li0 O0 1.999863 1_555
Li0 O7 2.272074 1_555
Li0 O6 2.457455 1_555
Li0 O22 2.508471 1_565
Li1 O0 2.018724 1_555
Li1 O7 2.051500 1_455
Li1 O10 2.071857 1_555
Li1 O12 2.205538 1_555
Li2 O8 2.064212 1_455
Li2 O1 2.080641 1_555
Li2 O11 2.172349 1_555
Li2 O12 2.286754 1_555
Li2 O5 2.531607 1_555
Li3 O1 2.053670 1_555
Li3 O9 2.067543 1_455
Li3 O11 2.129660 1_555
Li3 O13 2.215096 1_555
Li3 O4 2.623546 1_555
Li4 O27 2.075293 1_555
Li4 O18 2.079138 1_655
Li4 O16 2.133368 1_555
Li4 O14 2.285741 1_555
Li4 O22 2.593297 1_555
Li5 O19 2.095908 1_655
Li5 O27 2.106786 1_555
Li5 O16 2.206719 1_555
Li5 O15 2.266252 1_555
Li5 O23 2.555456 1_555
Li5 O25 2.626520 1_655
Li6 O26 2.093539 1_555
Li6 O20 2.125489 1_655
Li6 O15 2.175456 1_555
Li6 O17 2.227496 1_555
Li6 O23 2.562802 1_555
Li6 O25 2.627974 1_655
Li7 O21 2.071236 1_655
Li7 O26 2.094769 1_555
Li7 O17 2.145893 1_555
Li7 O14 2.312581 1_554
Li7 O22 2.551289 1_554
Li8 O2 1.984948 1_445
Li8 O26 2.060933 1_555
Li8 O20 2.218455 1_555
Li8 O21 2.427561 1_555
Li8 O4 2.516023 1_545
Li9 O3 1.969399 1_445
Li9 O27 2.034322 1_555
Li9 O18 2.330907 1_555
Li9 O19 2.411865 1_555
Li9 O5 2.482139 1_545
Mn0 O8 2.132837 1_555
Mn0 O16 2.144540 1_555
Mn0 O7 2.148704 1_555
Mn0 O5 2.196029 1_555
Mn0 O12 2.214625 1_655
Mn0 O3 2.549930 1_555
Mn1 O9 2.122102 1_555
Mn1 O6 2.129912 1_554
Mn1 O17 2.133457 1_555
Mn1 O13 2.208858 1_655
Mn1 O4 2.214942 1_555
Mn1 O2 2.580091 1_555
Mn2 O10 2.121108 1_555
Mn2 O21 2.146136 1_556
Mn2 O18 2.148125 1_555
Mn2 O22 2.176461 1_555
Mn2 O14 2.189169 1_455
Mn2 O24 2.526200 1_555
Mn3 O19 2.127927 1_555
Mn3 O20 2.153218 1_555
Mn3 O11 2.157670 1_555
Mn3 O15 2.252917 1_455
Mn3 O25 2.253903 1_555
Mn3 O23 2.306689 1_555
C0 O3 1.298726 1_555
C0 O27 1.303440 1_565
C0 O5 1.303504 1_555
C1 O2 1.296170 1_555
C1 O4 1.301409 1_555
C1 O26 1.305770 1_565
C2 O25 1.296206 1_555
C2 O23 1.298338 1_555
C2 O1 1.306214 1_545
C3 O24 1.298264 1_555
C3 O0 1.299205 1_545
C3 O22 1.304972 1_555
O6 P1 1.553697 1_555
O7 P1 1.560059 1_555
O8 P0 1.550818 1_555
O9 P0 1.552368 1_555
O10 P1 1.562000 1_555
O11 P0 1.569984 1_555
O12 P2 1.557512 1_555
O13 P3 1.553843 1_555
O14 P1 1.555132 1_555
O15 P0 1.551588 1_555
O16 P2 1.568950 1_555
O17 P3 1.566859 1_555
O18 P2 1.555438 1_555
O19 P2 1.552214 1_555
O20 P3 1.555873 1_555
O21 P3 1.551637 1_555
