# generated using pymatgen
data_Li4Ti3Cr3(NiO8)2
_symmetry_space_group_name_H-M   'P 1'
_cell_length_a   5.86286669
_cell_length_b   5.86286669
_cell_length_c   9.65946393
_cell_angle_alpha   89.97823051
_cell_angle_beta   89.97823051
_cell_angle_gamma   60.14613506
_symmetry_Int_Tables_number   1
_chemical_formula_structural   Li4Ti3Cr3(NiO8)2
_chemical_formula_sum   'Li4 Ti3 Cr3 Ni2 O16'
_cell_volume   287.96605323
_cell_formula_units_Z   1
loop_
 _symmetry_equiv_pos_site_id
 _symmetry_equiv_pos_as_xyz
  1  'x, y, z'
loop_
 _atom_site_type_symbol
 _atom_site_label
 _atom_site_symmetry_multiplicity
 _atom_site_fract_x
 _atom_site_fract_y
 _atom_site_fract_z
 _atom_site_occupancy
  Li  Li0  1  0.33124300  0.33124300  0.89308900  1
  Li  Li1  1  0.00640500  0.00640500  0.99633300  1
  Li  Li2  1  0.00468600  0.00468600  0.49828300  1
  Li  Li3  1  0.66403200  0.66403200  0.39517300  1
  Ti  Ti0  1  0.16474800  0.65891300  0.21679100  1
  Ti  Ti1  1  0.65891300  0.16474800  0.21679100  1
  Ti  Ti2  1  0.82540900  0.82540900  0.72083400  1
  Cr  Cr0  1  0.16712100  0.16712100  0.21109900  1
  Cr  Cr1  1  0.33415500  0.82790100  0.71141400  1
  Cr  Cr2  1  0.82790100  0.33415500  0.71141400  1
  Ni  Ni0  1  0.33428600  0.33428600  0.48976800  1
  Ni  Ni1  1  0.66733000  0.66733000  0.98928000  1
  O  O0  1  0.16571000  0.68249100  0.60610300  1
  O  O1  1  0.48149700  0.48149700  0.33112100  1
  O  O2  1  0.33734100  0.33734100  0.10191300  1
  O  O3  1  0.99957200  0.99957200  0.31400300  1
  O  O4  1  0.99786800  0.99786800  0.81259200  1
  O  O5  1  0.68249100  0.16571000  0.60610300  1
  O  O6  1  0.03529400  0.47795900  0.33064400  1
  O  O7  1  0.47795900  0.03529400  0.33064400  1
  O  O8  1  0.84154900  0.84154900  0.10452200  1
  O  O9  1  0.16084400  0.16084400  0.61258200  1
  O  O10  1  0.51374000  0.96400900  0.83118600  1
  O  O11  1  0.96400900  0.51374000  0.83118600  1
  O  O12  1  0.66904700  0.66904700  0.60202200  1
  O  O13  1  0.32037700  0.84754200  0.10828400  1
  O  O14  1  0.51896200  0.51896200  0.82633700  1
  O  O15  1  0.84754200  0.32037700  0.10828400  1
loop_
_geom_bond_atom_site_label_1
_geom_bond_atom_site_label_2
_geom_bond_distance
_geom_bond_site_symmetry_2
Li0 O10 1.960858 1_545
Li0 O11 1.960858 1_455
Li0 O14 2.010744 1_555
Li0 O2 2.018104 1_556
Li1 O4 1.776990 1_445
Li1 O15 1.928519 1_456
Li1 O13 1.928519 1_546
Li1 O8 1.972053 1_446
Li2 O3 1.780825 1_445
Li2 O9 1.931683 1_555
Li2 O5 1.941140 1_455
Li2 O0 1.941140 1_545
Li3 O1 1.953097 1_555
Li3 O6 1.987938 1_655
Li3 O7 1.987938 1_565
Li3 O12 1.998721 1_555
Cr0 O15 1.904964 1_455
Cr0 O13 1.904964 1_545
Cr0 O6 1.962286 1_555
Cr0 O7 1.962286 1_555
Cr0 O3 1.969041 1_445
Cr0 O2 2.023418 1_555
Cr1 O0 1.891164 1_555
Cr1 O14 1.931975 1_555
Cr1 O9 1.943916 1_565
Cr1 O4 1.969432 1_455
Cr1 O10 1.980386 1_555
Cr1 O12 2.004401 1_555
Cr2 O5 1.891164 1_555
Cr2 O14 1.931975 1_555
Cr2 O9 1.943916 1_655
Cr2 O4 1.969432 1_545
Cr2 O11 1.980386 1_555
Cr2 O12 2.004401 1_555
Ni0 O0 2.097469 1_555
Ni0 O5 2.097469 1_555
Ni0 O9 2.122028 1_555
Ni0 O1 2.139579 1_555
Ni0 O6 2.162386 1_555
Ni0 O7 2.162386 1_555
Ni1 O8 2.089543 1_556
Ni1 O15 2.105916 1_556
Ni1 O13 2.105916 1_556
Ni1 O10 2.146637 1_555
Ni1 O11 2.146637 1_555
Ni1 O14 2.178533 1_555
O0 Ti2 2.060471 1_455
O1 Ti1 1.956479 1_555
O1 Ti0 1.956479 1_555
O2 Ti0 1.977668 1_555
O2 Ti1 1.977668 1_555
O3 Ti1 1.970703 1_565
O3 Ti0 1.970703 1_655
O4 Ti2 1.961995 1_555
O5 Ti2 2.060471 1_545
O6 Ti0 1.926436 1_555
O7 Ti1 1.926436 1_555
O8 Ti0 1.973276 1_655
O8 Ti1 1.973276 1_565
O10 Ti2 1.912166 1_555
O11 Ti2 1.912166 1_555
O12 Ti2 1.958619 1_555
O13 Ti0 2.038900 1_555
O15 Ti1 2.038900 1_555
