# generated using pymatgen
data_Li2FeO2F
_symmetry_space_group_name_H-M   'P 1'
_cell_length_a   5.21507526
_cell_length_b   5.21507526
_cell_length_c   9.86984659
_cell_angle_alpha   84.81619222
_cell_angle_beta   84.81619222
_cell_angle_gamma   120.90691939
_symmetry_Int_Tables_number   1
_chemical_formula_structural   Li2FeO2F
_chemical_formula_sum   'Li8 Fe4 O8 F4'
_cell_volume   226.41523346
_cell_formula_units_Z   4
loop_
 _symmetry_equiv_pos_site_id
 _symmetry_equiv_pos_as_xyz
  1  'x, y, z'
loop_
 _atom_site_type_symbol
 _atom_site_label
 _atom_site_symmetry_multiplicity
 _atom_site_fract_x
 _atom_site_fract_y
 _atom_site_fract_z
 _atom_site_occupancy
  Li  Li0  1  0.81871300  0.62569900  0.99803300  1
  Li  Li1  1  0.50000000  0.00000000  0.00000000  1
  Li  Li2  1  0.18128700  0.37430100  0.00196700  1
  Li  Li3  1  0.73417300  0.26582700  0.25000000  1
  Li  Li4  1  0.00000000  0.50000000  0.50000000  1
  Li  Li5  1  0.37430100  0.18128700  0.50196700  1
  Li  Li6  1  0.62569900  0.81871300  0.49803300  1
  Li  Li7  1  0.26582700  0.73417300  0.75000000  1
  Fe  Fe0  1  0.41958000  0.58042000  0.25000000  1
  Fe  Fe1  1  0.10469900  0.89530100  0.25000000  1
  Fe  Fe2  1  0.89530100  0.10469900  0.75000000  1
  Fe  Fe3  1  0.58042000  0.41958000  0.75000000  1
  O  O0  1  0.57351600  0.71307700  0.86205600  1
  O  O1  1  0.14232800  0.63424900  0.13170900  1
  O  O2  1  0.71307700  0.57351600  0.36205600  1
  O  O3  1  0.63424900  0.14232800  0.63170900  1
  O  O4  1  0.85767200  0.36575100  0.86829100  1
  O  O5  1  0.42648400  0.28692300  0.13794400  1
  O  O6  1  0.36575100  0.85767200  0.36829100  1
  O  O7  1  0.28692300  0.42648400  0.63794400  1
  F  F0  1  0.20654600  0.04421200  0.87495600  1
  F  F1  1  0.04421200  0.20654600  0.37495600  1
  F  F2  1  0.79345400  0.95578800  0.12504400  1
  F  F3  1  0.95578800  0.79345400  0.62504400  1
loop_
_geom_bond_atom_site_label_1
_geom_bond_atom_site_label_2
_geom_bond_distance
_geom_bond_site_symmetry_2
Li0 O4 2.017041 1_555
Li0 O0 2.107635 1_555
Li0 O5 2.132738 1_556
Li0 O1 2.219604 1_656
Li1 O1 2.065480 1_545
Li1 O4 2.065480 1_554
Li1 O5 2.258930 1_555
Li1 O0 2.258930 1_544
Li2 O1 2.017041 1_555
Li2 O5 2.107635 1_555
Li2 O0 2.132738 1_554
Li2 O4 2.219604 1_454
Li3 O2 2.071267 1_555
Li3 O5 2.071267 1_555
Li3 O1 2.128310 1_655
Li3 O6 2.128310 1_545
Li4 O6 2.065480 1_555
Li4 O3 2.065480 1_455
Li4 O7 2.258930 1_555
Li4 O2 2.258930 1_455
Li5 O3 2.017041 1_555
Li5 O7 2.107635 1_555
Li5 O2 2.132738 1_555
Li5 O6 2.219604 1_545
Li6 O6 2.017041 1_555
Li6 O2 2.107635 1_555
Li6 O7 2.132738 1_555
Li6 O3 2.219604 1_565
Li7 O0 2.071267 1_555
Li7 O7 2.071267 1_555
Li7 O4 2.128310 1_455
Li7 O3 2.128310 1_565
Fe0 O2 1.980544 1_555
Fe0 O5 1.980544 1_555
Fe0 O6 2.048238 1_555
Fe0 O1 2.048238 1_555
Fe1 O1 1.943011 1_555
Fe1 O6 1.943011 1_555
Fe1 O2 1.986471 1_455
Fe1 O5 1.986471 1_565
Fe2 O4 1.943011 1_555
Fe2 O3 1.943011 1_555
Fe2 O0 1.986471 1_545
Fe2 O7 1.986471 1_655
Fe3 O0 1.980544 1_555
Fe3 O7 1.980544 1_555
Fe3 O4 2.048238 1_555
Fe3 O3 2.048238 1_555
F0 Fe3 2.088772 1_555
F0 Li1 2.137936 1_556
F0 Li0 2.207287 1_445
F0 Li7 2.244066 1_545
F0 Fe2 2.252248 1_455
F0 Li2 2.268308 1_556
F1 Fe0 2.088772 1_555
F1 Li4 2.137936 1_555
F1 Li6 2.207287 1_445
F1 Li3 2.244066 1_455
F1 Fe1 2.252248 1_545
F1 Li5 2.268308 1_555
F2 Fe0 2.088772 1_555
F2 Li1 2.137936 1_565
F2 Li2 2.207287 1_665
F2 Li3 2.244066 1_565
F2 Fe1 2.252248 1_655
F2 Li0 2.268308 1_554
F3 Fe3 2.088772 1_555
F3 Li4 2.137936 1_655
F3 Li5 2.207287 1_665
F3 Li7 2.244066 1_655
F3 Fe2 2.252248 1_565
F3 Li6 2.268308 1_555
