# generated using pymatgen
data_Ce2Ti2O7
_symmetry_space_group_name_H-M   'P 1'
_cell_length_a   7.32833871
_cell_length_b   7.32833871
_cell_length_c   7.32833871
_cell_angle_alpha   60.00000000
_cell_angle_beta   60.00000000
_cell_angle_gamma   60.00000000
_symmetry_Int_Tables_number   1
_chemical_formula_structural   Ce2Ti2O7
_chemical_formula_sum   'Ce4 Ti4 O14'
_cell_volume   278.29256561
_cell_formula_units_Z   2
loop_
 _symmetry_equiv_pos_site_id
 _symmetry_equiv_pos_as_xyz
  1  'x, y, z'
loop_
 _atom_site_type_symbol
 _atom_site_label
 _atom_site_symmetry_multiplicity
 _atom_site_fract_x
 _atom_site_fract_y
 _atom_site_fract_z
 _atom_site_occupancy
  Ce  Ce0  1  0.12500000  0.62500000  0.12500000  1
  Ce  Ce1  1  0.12500000  0.12500000  0.62500000  1
  Ce  Ce2  1  0.62500000  0.12500000  0.12500000  1
  Ce  Ce3  1  0.12500000  0.12500000  0.12500000  1
  Ti  Ti0  1  0.12500000  0.62500000  0.62500000  1
  Ti  Ti1  1  0.62500000  0.62500000  0.62500000  1
  Ti  Ti2  1  0.62500000  0.12500000  0.62500000  1
  Ti  Ti3  1  0.62500000  0.62500000  0.12500000  1
  O  O0  1  0.29695100  0.70304900  0.70304900  1
  O  O1  1  0.54695100  0.95304900  0.95304900  1
  O  O2  1  0.70304900  0.29695100  0.70304900  1
  O  O3  1  0.70304900  0.70304900  0.29695100  1
  O  O4  1  0.00000000  0.00000000  0.00000000  1
  O  O5  1  0.29695100  0.29695100  0.70304900  1
  O  O6  1  0.29695100  0.70304900  0.29695100  1
  O  O7  1  0.95304900  0.54695100  0.95304900  1
  O  O8  1  0.25000000  0.25000000  0.25000000  1
  O  O9  1  0.95304900  0.95304900  0.54695100  1
  O  O10  1  0.54695100  0.54695100  0.95304900  1
  O  O11  1  0.54695100  0.95304900  0.54695100  1
  O  O12  1  0.70304900  0.29695100  0.29695100  1
  O  O13  1  0.95304900  0.54695100  0.54695100  1
loop_
_geom_bond_atom_site_label_1
_geom_bond_atom_site_label_2
_geom_bond_distance
_geom_bond_site_symmetry_2
Ce0 O4 2.243836 1_565
Ce0 O8 2.243836 1_555
Ce0 O0 2.555839 1_554
Ce0 O7 2.555839 1_454
Ce0 O13 2.555839 1_455
Ce0 O10 2.555839 1_554
Ce0 O3 2.555839 1_455
Ce0 O6 2.555839 1_555
Ce1 O4 2.243836 1_556
Ce1 O8 2.243836 1_555
Ce1 O9 2.555839 1_445
Ce1 O0 2.555839 1_545
Ce1 O2 2.555839 1_455
Ce1 O11 2.555839 1_545
Ce1 O13 2.555839 1_455
Ce1 O5 2.555839 1_555
Ce2 O4 2.243836 1_655
Ce2 O8 2.243836 1_555
Ce2 O11 2.555839 1_545
Ce2 O1 2.555839 1_544
Ce2 O10 2.555839 1_554
Ce2 O2 2.555839 1_554
Ce2 O3 2.555839 1_545
Ce2 O12 2.555839 1_555
Ce3 O4 2.243836 1_555
Ce3 O8 2.243836 1_555
Ce3 O7 2.555839 1_454
Ce3 O9 2.555839 1_445
Ce3 O1 2.555839 1_544
Ce3 O6 2.555839 1_545
Ce3 O12 2.555839 1_455
Ce3 O5 2.555839 1_554
O0 Ti1 2.002706 1_555
O0 Ti0 2.002706 1_555
O1 Ti3 2.002706 1_556
O1 Ti2 2.002706 1_565
O2 Ti1 2.002706 1_555
O2 Ti2 2.002706 1_555
O3 Ti1 2.002706 1_555
O3 Ti3 2.002706 1_555
O5 Ti2 2.002706 1_555
O5 Ti0 2.002706 1_555
O6 Ti3 2.002706 1_555
O6 Ti0 2.002706 1_555
O7 Ti3 2.002706 1_556
O7 Ti0 2.002706 1_655
O9 Ti2 2.002706 1_565
O9 Ti0 2.002706 1_655
O10 Ti3 2.002706 1_556
O10 Ti1 2.002706 1_555
O11 Ti2 2.002706 1_565
O11 Ti1 2.002706 1_555
O12 Ti2 2.002706 1_555
O12 Ti3 2.002706 1_555
O13 Ti0 2.002706 1_655
O13 Ti1 2.002706 1_555
