# generated using pymatgen
data_Li6MnO3F2
_symmetry_space_group_name_H-M   'P 1'
_cell_length_a   5.63561067
_cell_length_b   5.63561067
_cell_length_c   9.74422871
_cell_angle_alpha   86.09744914
_cell_angle_beta   86.09744914
_cell_angle_gamma   53.84109315
_symmetry_Int_Tables_number   1
_chemical_formula_structural   Li6MnO3F2
_chemical_formula_sum   'Li12 Mn2 O6 F4'
_cell_volume   249.13830525
_cell_formula_units_Z   2
loop_
 _symmetry_equiv_pos_site_id
 _symmetry_equiv_pos_as_xyz
  1  'x, y, z'
loop_
 _atom_site_type_symbol
 _atom_site_label
 _atom_site_symmetry_multiplicity
 _atom_site_fract_x
 _atom_site_fract_y
 _atom_site_fract_z
 _atom_site_occupancy
  Li  Li0  1  0.60587400  0.72497900  0.72804700  1
  Li  Li1  1  0.72497900  0.60587400  0.22804700  1
  Li  Li2  1  0.25481200  0.20086200  0.00981500  1
  Li  Li3  1  0.20086200  0.25481200  0.50981500  1
  Li  Li4  1  0.74518800  0.79913800  0.99018500  1
  Li  Li5  1  0.79913800  0.74518800  0.49018500  1
  Li  Li6  1  0.39412600  0.27502100  0.27195300  1
  Li  Li7  1  0.27502100  0.39412600  0.77195300  1
  Li  Li8  1  0.66547800  0.31340400  0.43744700  1
  Li  Li9  1  0.68659600  0.33452200  0.06255300  1
  Li  Li10  1  0.33452200  0.68659600  0.56255300  1
  Li  Li11  1  0.31340400  0.66547800  0.93744700  1
  Mn  Mn0  1  0.84782800  0.15217200  0.75000000  1
  Mn  Mn1  1  0.15217200  0.84782800  0.25000000  1
  O  O0  1  0.42505500  0.79777500  0.07945800  1
  O  O1  1  0.79777500  0.42505500  0.57945800  1
  O  O2  1  0.20222500  0.57494500  0.42054200  1
  O  O3  1  0.57494500  0.20222500  0.92054200  1
  O  O4  1  0.76162200  0.23837800  0.25000000  1
  O  O5  1  0.23837800  0.76162200  0.75000000  1
  F  F0  1  0.46560900  0.92916500  0.37078700  1
  F  F1  1  0.92916500  0.46560900  0.87078700  1
  F  F2  1  0.07083500  0.53439100  0.12921300  1
  F  F3  1  0.53439100  0.07083500  0.62921300  1
loop_
_geom_bond_atom_site_label_1
_geom_bond_atom_site_label_2
_geom_bond_distance
_geom_bond_site_symmetry_2
Li0 O5 1.954156 1_555
Li0 O1 2.021337 1_555
Li1 O4 1.954156 1_555
Li1 O0 2.021337 1_555
Li2 O3 1.952827 1_554
Li2 O0 1.961701 1_545
Li3 O2 1.952827 1_555
Li3 O1 1.961701 1_455
Li4 O0 1.952827 1_556
Li4 O3 1.961701 1_565
Li5 O1 1.952827 1_555
Li5 O2 1.961701 1_655
Li6 O4 1.954156 1_555
Li6 O2 2.021337 1_555
Li7 O5 1.954156 1_555
Li7 O3 2.021337 1_555
Li8 O4 1.873131 1_555
Li8 O1 1.918131 1_555
Li8 O2 2.121335 1_555
Li9 O4 1.873131 1_555
Li9 O3 1.918131 1_554
Li9 O0 2.121335 1_555
Li10 O5 1.873131 1_555
Li10 O2 1.918131 1_555
Li10 O1 2.121335 1_555
Li11 O5 1.873131 1_555
Li11 O0 1.918131 1_556
Li11 O3 2.121335 1_555
Mn0 O5 1.993014 1_645
Mn0 O3 2.100048 1_555
Mn0 O1 2.100048 1_555
Mn1 O4 1.993014 1_465
Mn1 O2 2.100048 1_555
Mn1 O0 2.100048 1_555
F0 Li6 1.938950 1_565
F0 Li5 1.948170 1_555
F0 Li3 2.064340 1_565
F0 Li1 2.077544 1_555
F0 Mn1 2.455097 1_555
F0 Li10 2.561707 1_555
F1 Li7 1.938950 1_655
F1 Li4 1.948170 1_555
F1 Li2 2.064340 1_656
F1 Li0 2.077544 1_555
F1 Mn0 2.455097 1_555
F1 Li9 2.561707 1_556
F2 Li1 1.938950 1_455
F2 Li2 1.948170 1_555
F2 Li4 2.064340 1_454
F2 Li6 2.077544 1_555
F2 Mn1 2.455097 1_555
F2 Li11 2.561707 1_554
F3 Li0 1.938950 1_545
F3 Li3 1.948170 1_555
F3 Li5 2.064340 1_545
F3 Li7 2.077544 1_555
F3 Mn0 2.455097 1_555
F3 Li8 2.561707 1_555
