# generated using pymatgen
data_LiCo2OF3
_symmetry_space_group_name_H-M   'P 1'
_cell_length_a   6.11493000
_cell_length_b   6.15785919
_cell_length_c   8.51055657
_cell_angle_alpha   89.85616024
_cell_angle_beta   89.91552957
_cell_angle_gamma   89.08559900
_symmetry_Int_Tables_number   1
_chemical_formula_structural   LiCo2OF3
_chemical_formula_sum   'Li4 Co8 O4 F12'
_cell_volume   320.42181887
_cell_formula_units_Z   4
loop_
 _symmetry_equiv_pos_site_id
 _symmetry_equiv_pos_as_xyz
  1  'x, y, z'
loop_
 _atom_site_type_symbol
 _atom_site_label
 _atom_site_symmetry_multiplicity
 _atom_site_fract_x
 _atom_site_fract_y
 _atom_site_fract_z
 _atom_site_occupancy
  Li  Li0  1  0.24741500  0.48954500  0.25480800  1
  Li  Li1  1  0.48749400  0.25078500  0.00322400  1
  Li  Li2  1  0.50040500  0.76203800  0.49518700  1
  Li  Li3  1  0.73844400  0.49718900  0.74544700  1
  Co  Co0  1  0.01228600  0.24213800  0.01209800  1
  Co  Co1  1  0.99892400  0.76942500  0.50150300  1
  Co  Co2  1  0.25004500  0.22887100  0.60621800  1
  Co  Co3  1  0.25443800  0.77378000  0.89181900  1
  Co  Co4  1  0.24205200  0.01824500  0.25388000  1
  Co  Co5  1  0.74087900  0.00118000  0.73423200  1
  Co  Co6  1  0.77161900  0.23649700  0.37792800  1
  Co  Co7  1  0.74277600  0.73653200  0.12158000  1
  O  O0  1  0.01815300  0.26605500  0.24097200  1
  O  O1  1  0.25517400  0.02551700  0.01425800  1
  O  O2  1  0.24494000  0.97442200  0.48529600  1
  O  O3  1  0.75164600  0.98024200  0.51028400  1
  F  F0  1  0.01049100  0.74403200  0.24438400  1
  F  F1  1  0.24387200  0.51704500  0.49871900  1
  F  F2  1  0.26260800  0.49323000  0.00418500  1
  F  F3  1  0.49588000  0.26482100  0.24650600  1
  F  F4  1  0.48376000  0.73869400  0.25291200  1
  F  F5  1  0.51143700  0.25512400  0.75271800  1
  F  F6  1  0.51743100  0.74463700  0.74997500  1
  F  F7  1  0.74426100  0.00291400  0.98436800  1
  F  F8  1  0.75875200  0.51771800  0.51309800  1
  F  F9  1  0.75073100  0.47784800  0.98582800  1
  F  F10  1  0.98310300  0.25034800  0.75924500  1
  F  F11  1  0.98098200  0.74113000  0.75932700  1
loop_
_geom_bond_atom_site_label_1
_geom_bond_atom_site_label_2
_geom_bond_distance
_geom_bond_site_symmetry_2
Li0 O0 1.983963 1_555
Li1 O1 2.003264 1_555
Li2 O2 2.022980 1_555
Li2 O3 2.061450 1_555
Co0 O0 1.954199 1_555
Co0 O1 1.980494 1_555
Co0 F9 2.154095 1_454
Co0 F10 2.159967 1_454
Co0 F2 2.193854 1_555
Co0 F7 2.234247 1_454
Co1 O3 1.978578 1_555
Co1 O2 1.983631 1_655
Co1 F1 2.141298 1_655
Co1 F8 2.154185 1_555
Co1 F0 2.195152 1_655
Co1 F11 2.203407 1_555
Co2 O2 1.877460 1_545
Co2 F1 1.994294 1_555
Co2 F5 2.037311 1_555
Co2 F10 2.089451 1_455
Co3 O1 1.870075 1_566
Co3 F2 1.972473 1_556
Co3 F6 2.015409 1_555
Co3 F11 2.031114 1_455
Co4 O2 1.987275 1_545
Co4 O0 2.036690 1_555
Co4 O1 2.041183 1_555
Co4 F3 2.189295 1_555
Co4 F0 2.222637 1_545
Co4 F4 2.250956 1_545
Co5 O3 1.911568 1_545
Co5 F5 2.090239 1_555
Co5 F6 2.108989 1_545
Co5 F7 2.128983 1_555
Co5 F10 2.160678 1_555
Co5 F11 2.165584 1_545
Co6 O0 1.914907 1_655
Co6 O3 1.941802 1_545
Co6 F3 2.029684 1_555
Co6 F8 2.081774 1_555
Co7 F4 1.937075 1_555
Co7 F0 1.944760 1_655
Co7 F9 1.970076 1_554
Co7 F7 2.011287 1_564
F0 Li0 2.118919 1_555
F1 Li0 2.083191 1_555
F1 Li2 2.193810 1_555
F2 Li1 2.013583 1_555
F2 Li0 2.134906 1_555
F3 Li0 2.039958 1_555
F3 Li1 2.073229 1_555
F4 Li2 2.070026 1_555
F4 Li0 2.124472 1_555
F5 Li3 2.053767 1_555
F5 Li1 2.136881 1_556
F6 Li3 2.020942 1_555
F6 Li2 2.173331 1_555
F7 Li1 2.178247 1_556
F8 Li3 1.984971 1_555
F8 Li2 2.169356 1_555
F9 Li3 2.050359 1_555
F9 Li1 2.153623 1_556
F10 Li3 2.118844 1_555
F11 Li3 2.131321 1_555
