# generated using pymatgen
data_LiMnCO3F2
_symmetry_space_group_name_H-M   'P 1'
_cell_length_a   6.39932300
_cell_length_b   7.12821000
_cell_length_c   8.10446700
_cell_angle_alpha   90.00000000
_cell_angle_beta   90.00000000
_cell_angle_gamma   90.00000000
_symmetry_Int_Tables_number   1
_chemical_formula_structural   LiMnCO3F2
_chemical_formula_sum   'Li4 Mn4 C4 O12 F8'
_cell_volume   369.69108285
_cell_formula_units_Z   4
loop_
 _symmetry_equiv_pos_site_id
 _symmetry_equiv_pos_as_xyz
  1  'x, y, z'
loop_
 _atom_site_type_symbol
 _atom_site_label
 _atom_site_symmetry_multiplicity
 _atom_site_fract_x
 _atom_site_fract_y
 _atom_site_fract_z
 _atom_site_occupancy
  Li  Li0  1  0.75000000  0.26209600  0.29026200  1
  Li  Li1  1  0.75000000  0.76209600  0.20973800  1
  Li  Li2  1  0.25000000  0.73790400  0.70973800  1
  Li  Li3  1  0.25000000  0.23790400  0.79026200  1
  Mn  Mn0  1  0.75000000  0.92721800  0.62348600  1
  Mn  Mn1  1  0.75000000  0.42721800  0.87651400  1
  Mn  Mn2  1  0.25000000  0.57278200  0.12348600  1
  Mn  Mn3  1  0.25000000  0.07278200  0.37651400  1
  C  C0  1  0.75000000  0.57438200  0.54701400  1
  C  C1  1  0.75000000  0.07438200  0.95298600  1
  C  C2  1  0.25000000  0.92561800  0.04701400  1
  C  C3  1  0.25000000  0.42561800  0.45298600  1
  O  O0  1  0.75000000  0.22698000  0.04526400  1
  O  O1  1  0.75000000  0.72698000  0.45473600  1
  O  O2  1  0.75000000  0.41129100  0.49521500  1
  O  O3  1  0.75000000  0.91129100  0.00478500  1
  O  O4  1  0.75000000  0.12124100  0.79302100  1
  O  O5  1  0.75000000  0.62124100  0.70697900  1
  O  O6  1  0.25000000  0.08870900  0.99521500  1
  O  O7  1  0.25000000  0.87875900  0.20697900  1
  O  O8  1  0.25000000  0.37875900  0.29302100  1
  O  O9  1  0.25000000  0.58870900  0.50478500  1
  O  O10  1  0.25000000  0.27302000  0.54526400  1
  O  O11  1  0.25000000  0.77302000  0.95473600  1
  F  F0  1  0.95668500  0.57581700  0.14131700  1
  F  F1  1  0.95668500  0.07581700  0.35868300  1
  F  F2  1  0.54331500  0.57581700  0.14131700  1
  F  F3  1  0.54331500  0.07581700  0.35868300  1
  F  F4  1  0.45668500  0.42418300  0.85868300  1
  F  F5  1  0.45668500  0.92418300  0.64131700  1
  F  F6  1  0.04331500  0.92418300  0.64131700  1
  F  F7  1  0.04331500  0.42418300  0.85868300  1
loop_
_geom_bond_atom_site_label_1
_geom_bond_atom_site_label_2
_geom_bond_distance
_geom_bond_site_symmetry_2
Li0 O2 1.972322 1_555
Li0 O0 2.001294 1_555
Li1 O3 1.972322 1_555
Li1 O1 2.001294 1_555
Li2 O9 1.972322 1_555
Li2 O11 2.001294 1_555
Li3 O6 1.972322 1_555
Li3 O10 2.001294 1_555
Mn0 O4 1.949523 1_565
Mn0 O1 1.976791 1_555
Mn0 O5 2.283623 1_555
Mn1 O5 1.949523 1_555
Mn1 O0 1.976791 1_556
Mn1 O4 2.283623 1_555
Mn2 O8 1.949523 1_555
Mn2 O11 1.976791 1_554
Mn2 O7 2.283623 1_555
Mn3 O7 1.949523 1_545
Mn3 O10 1.976791 1_555
Mn3 O8 2.283623 1_555
C0 O2 1.236022 1_555
C0 O1 1.320039 1_555
C0 O5 1.338769 1_555
C1 O3 1.236022 1_546
C1 O0 1.320039 1_556
C1 O4 1.338769 1_555
C2 O6 1.236022 1_564
C2 O11 1.320039 1_554
C2 O7 1.338769 1_555
C3 O9 1.236022 1_555
C3 O10 1.320039 1_555
C3 O8 1.338769 1_555
F0 Mn2 1.882696 1_655
F0 Li1 1.954488 1_555
F1 Mn3 1.882696 1_655
F1 Li0 1.954488 1_555
F2 Mn2 1.882696 1_555
F2 Li1 1.954488 1_555
F3 Mn3 1.882696 1_555
F3 Li0 1.954488 1_555
F4 Mn1 1.882696 1_555
F4 Li3 1.954488 1_555
F5 Mn0 1.882696 1_555
F5 Li2 1.954488 1_555
F6 Mn0 1.882696 1_455
F6 Li2 1.954488 1_555
F7 Mn1 1.882696 1_455
F7 Li3 1.954488 1_555
