# generated using pymatgen
data_Li4Ti3Nb2Co3O16
_symmetry_space_group_name_H-M   'P 1'
_cell_length_a   6.01475252
_cell_length_b   11.51609568
_cell_length_c   10.36491975
_cell_angle_alpha   116.41907472
_cell_angle_beta   90.46728303
_cell_angle_gamma   105.21061300
_symmetry_Int_Tables_number   1
_chemical_formula_structural   Li4Ti3Nb2Co3O16
_chemical_formula_sum   'Li8 Ti6 Nb4 Co6 O32'
_cell_volume   613.92457067
_cell_formula_units_Z   2
loop_
 _symmetry_equiv_pos_site_id
 _symmetry_equiv_pos_as_xyz
  1  'x, y, z'
loop_
 _atom_site_type_symbol
 _atom_site_label
 _atom_site_symmetry_multiplicity
 _atom_site_fract_x
 _atom_site_fract_y
 _atom_site_fract_z
 _atom_site_occupancy
  Li  Li0  1  0.94973100  0.90368300  0.61979400  1
  Li  Li1  1  0.44977600  0.90368600  0.11972900  1
  Li  Li2  1  0.49206200  0.98583400  0.49382100  1
  Li  Li3  1  0.99204000  0.98572600  0.99377500  1
  Li  Li4  1  0.75014600  0.49510800  0.74631900  1
  Li  Li5  1  0.25008800  0.49509000  0.24630100  1
  Li  Li6  1  0.20332200  0.40729000  0.53711900  1
  Li  Li7  1  0.70330100  0.40726200  0.03716900  1
  Ti  Ti0  1  0.13373200  0.73384400  0.77804700  1
  Ti  Ti1  1  0.63369700  0.73381600  0.27809300  1
  Ti  Ti2  1  0.37777500  0.22065000  0.18880400  1
  Ti  Ti3  1  0.87780100  0.22061200  0.68871200  1
  Ti  Ti4  1  0.62672900  0.21993100  0.43702100  1
  Ti  Ti5  1  0.12662300  0.21993100  0.93704800  1
  Nb  Nb0  1  0.75055200  0.49971300  0.41621900  1
  Nb  Nb1  1  0.25025000  0.49967200  0.91619700  1
  Nb  Nb2  1  0.52068400  0.98809100  0.81876800  1
  Nb  Nb3  1  0.02089500  0.98793700  0.31870100  1
  Co  Co0  1  0.85007800  0.20898100  0.18946700  1
  Co  Co1  1  0.85231900  0.70890100  0.02508500  1
  Co  Co2  1  0.59717400  0.70891400  0.76996500  1
  Co  Co3  1  0.35002000  0.20903600  0.68941400  1
  Co  Co4  1  0.35234900  0.70885300  0.52498700  1
  Co  Co5  1  0.09762400  0.70899200  0.26983000  1
  O  O0  1  0.44471600  0.33299800  0.40670100  1
  O  O1  1  0.94476400  0.33306300  0.90673600  1
  O  O2  1  0.53210000  0.10682300  0.22721300  1
  O  O3  1  0.03210600  0.10685300  0.72720800  1
  O  O4  1  0.66144000  0.30524900  0.64956200  1
  O  O5  1  0.16142500  0.30522700  0.14953400  1
  O  O6  1  0.90807700  0.79783100  0.89557200  1
  O  O7  1  0.40784400  0.79797000  0.39553000  1
  O  O8  1  0.79666000  0.10313700  0.46973300  1
  O  O9  1  0.29674700  0.10311200  0.96968100  1
  O  O10  1  0.03878800  0.57985900  0.37344000  1
  O  O11  1  0.53855300  0.58011400  0.87351700  1
  O  O12  1  0.28372400  0.60858100  0.64462300  1
  O  O13  1  0.78416800  0.60871000  0.14503400  1
  O  O14  1  0.64763300  0.85302000  0.68638800  1
  O  O15  1  0.14776700  0.85311100  0.18614000  1
  O  O16  1  0.55315300  0.58874700  0.37678600  1
  O  O17  1  0.05288000  0.58873000  0.87697700  1
  O  O18  1  0.80057800  0.58893000  0.62356700  1
  O  O19  1  0.30049500  0.58883400  0.12358200  1
  O  O20  1  0.65433000  0.33754000  0.18657800  1
  O  O21  1  0.15433700  0.33768800  0.68665100  1
  O  O22  1  0.88434600  0.33760900  0.41692400  1
  O  O23  1  0.38429900  0.33757200  0.91685600  1
  O  O24  1  0.19035900  0.84950800  0.69075700  1
  O  O25  1  0.69035100  0.84926000  0.19058500  1
  O  O26  1  0.40704600  0.85017100  0.90964600  1
  O  O27  1  0.90714100  0.85028400  0.40967300  1
  O  O28  1  0.04848900  0.09328700  0.21362900  1
  O  O29  1  0.54862200  0.09332800  0.71359000  1
  O  O30  1  0.29791200  0.09349800  0.46240000  1
  O  O31  1  0.79791600  0.09348000  0.96233400  1
loop_
_geom_bond_atom_site_label_1
_geom_bond_atom_site_label_2
_geom_bond_distance
_geom_bond_site_symmetry_2
Li0 O24 1.972246 1_655
Li0 O27 1.975709 1_555
Li0 O14 1.985199 1_555
Li0 O3 2.005992 1_665
Li1 O25 1.973376 1_555
Li1 O26 1.975079 1_554
Li1 O15 1.983617 1_555
Li1 O2 2.005712 1_565
Li2 O7 1.852091 1_555
Li2 O29 2.023374 1_565
Li2 O30 2.029750 1_565
Li2 O8 2.062191 1_565
Li3 O6 1.852428 1_555
Li3 O28 2.024177 1_666
Li3 O31 2.030588 1_565
Li3 O9 2.063142 1_665
Li4 O4 1.870516 1_555
Li4 O11 1.961846 1_555
Li4 O18 1.983886 1_555
Li4 O17 1.985532 1_655
Li5 O5 1.870564 1_555
Li5 O10 1.959174 1_555
Li5 O19 1.982872 1_555
Li5 O16 1.986288 1_555
Li6 O12 1.988330 1_555
Li6 O21 2.029887 1_555
Li6 O22 2.034799 1_455
Li6 O0 2.078953 1_555
Li7 O13 1.989836 1_555
Li7 O20 2.029647 1_555
Li7 O23 2.035441 1_554
Li7 O1 2.079036 1_554
Nb0 O10 1.895034 1_655
Nb0 O18 1.904546 1_555
Nb0 O16 1.905738 1_555
Nb0 O22 2.221028 1_555
Nb0 O20 2.223271 1_555
Nb0 O0 2.248312 1_555
Nb1 O11 1.896080 1_555
Nb1 O17 1.904836 1_555
Nb1 O19 1.904899 1_556
Nb1 O23 2.221701 1_555
Nb1 O21 2.221887 1_555
Nb1 O1 2.246508 1_455
Nb2 O14 1.904298 1_555
Nb2 O29 1.938361 1_565
Nb2 O31 1.938624 1_565
Nb2 O26 2.156222 1_555
Nb2 O24 2.159576 1_555
Nb2 O9 2.267664 1_565
Nb3 O15 1.902994 1_555
Nb3 O30 1.938515 1_565
Nb3 O28 1.938699 1_565
Nb3 O27 2.154453 1_455
Nb3 O25 2.161071 1_455
Nb3 O8 2.270443 1_465
Co0 O5 2.058749 1_655
Co0 O28 2.094857 1_655
Co0 O31 2.095814 1_554
Co0 O2 2.106208 1_555
Co0 O22 2.125814 1_555
Co0 O20 2.128973 1_555
Co1 O6 2.003450 1_554
Co1 O13 2.020307 1_555
Co1 O15 2.153742 1_655
Co1 O11 2.153794 1_554
Co1 O17 2.177784 1_654
Co1 O25 2.211453 1_555
Co2 O6 2.002401 1_555
Co2 O12 2.014572 1_555
Co2 O14 2.148459 1_555
Co2 O11 2.150541 1_555
Co2 O18 2.181761 1_555
Co2 O26 2.226538 1_555
Co3 O4 2.058564 1_555
Co3 O30 2.094828 1_555
Co3 O29 2.095895 1_555
Co3 O3 2.106250 1_555
Co3 O23 2.125495 1_555
Co3 O21 2.129176 1_555
Co4 O7 2.004517 1_555
Co4 O12 2.018387 1_555
Co4 O10 2.153175 1_555
Co4 O14 2.154559 1_555
Co4 O16 2.178908 1_555
Co4 O24 2.214518 1_555
Co5 O7 1.999524 1_555
Co5 O13 2.012420 1_455
Co5 O15 2.149583 1_555
Co5 O10 2.154342 1_555
Co5 O19 2.179708 1_555
Co5 O27 2.228841 1_455
O0 Ti2 2.012062 1_555
O0 Ti4 2.024656 1_555
O1 Ti3 2.013272 1_555
O1 Ti5 2.024603 1_655
O2 Ti4 1.954440 1_555
O2 Ti2 1.958375 1_555
O3 Ti5 1.954605 1_555
O3 Ti3 1.958053 1_455
O4 Ti3 1.953750 1_555
O4 Ti4 1.954684 1_555
O5 Ti2 1.953696 1_555
O5 Ti5 1.954157 1_554
O6 Ti0 1.903159 1_655
O7 Ti1 1.904263 1_555
O8 Ti4 2.022428 1_555
O8 Ti3 2.030520 1_555
O9 Ti5 2.023091 1_555
O9 Ti2 2.031782 1_556
O12 Ti0 1.932703 1_555
O13 Ti1 1.932173 1_555
O16 Ti1 2.275138 1_555
O17 Ti0 2.277550 1_555
O18 Ti0 2.275795 1_655
O19 Ti1 2.276260 1_555
O20 Ti2 1.852781 1_555
O21 Ti3 1.853179 1_455
O22 Ti4 1.853505 1_555
O23 Ti5 1.853932 1_555
O24 Ti0 1.883660 1_555
O25 Ti1 1.883249 1_555
O26 Ti0 1.881330 1_555
O27 Ti1 1.882045 1_555
O28 Ti2 2.227100 1_555
O29 Ti3 2.226434 1_555
O30 Ti4 2.222373 1_555
O31 Ti5 2.221594 1_655
