# generated using pymatgen
data_Mn2OF3
_symmetry_space_group_name_H-M   'P 1'
_cell_length_a   7.37450089
_cell_length_b   7.37450089
_cell_length_c   7.08270800
_cell_angle_alpha   90.00000000
_cell_angle_beta   90.00000000
_cell_angle_gamma   128.66413007
_symmetry_Int_Tables_number   1
_chemical_formula_structural   Mn2OF3
_chemical_formula_sum   'Mn8 O4 F12'
_cell_volume   300.75750243
_cell_formula_units_Z   4
loop_
 _symmetry_equiv_pos_site_id
 _symmetry_equiv_pos_as_xyz
  1  'x, y, z'
loop_
 _atom_site_type_symbol
 _atom_site_label
 _atom_site_symmetry_multiplicity
 _atom_site_fract_x
 _atom_site_fract_y
 _atom_site_fract_z
 _atom_site_occupancy
  Mn  Mn0  1  0.62487900  0.87485900  0.75000000  1
  Mn  Mn1  1  0.12514100  0.37512100  0.75000000  1
  Mn  Mn2  1  0.12588600  0.87411400  0.75000000  1
  Mn  Mn3  1  0.37621400  0.62378600  0.25000000  1
  Mn  Mn4  1  0.62378600  0.37621400  0.75000000  1
  Mn  Mn5  1  0.87411400  0.12588600  0.25000000  1
  Mn  Mn6  1  0.37512100  0.12514100  0.25000000  1
  Mn  Mn7  1  0.87485900  0.62487900  0.25000000  1
  O  O0  1  0.46926200  0.53073800  0.75000000  1
  O  O1  1  0.78030600  0.21969400  0.75000000  1
  O  O2  1  0.53073800  0.46926200  0.25000000  1
  O  O3  1  0.21969400  0.78030600  0.25000000  1
  F  F0  1  0.97371500  0.02628500  0.75000000  1
  F  F1  1  0.62388500  0.87346500  0.05201200  1
  F  F2  1  0.12653500  0.37611500  0.05201200  1
  F  F3  1  0.87346500  0.62388500  0.94798800  1
  F  F4  1  0.62388500  0.87346500  0.44798800  1
  F  F5  1  0.12653500  0.37611500  0.44798800  1
  F  F6  1  0.37611500  0.12653500  0.94798800  1
  F  F7  1  0.02628500  0.97371500  0.25000000  1
  F  F8  1  0.27712700  0.72287300  0.75000000  1
  F  F9  1  0.72287300  0.27712700  0.25000000  1
  F  F10  1  0.87346500  0.62388500  0.55201200  1
  F  F11  1  0.37611500  0.12653500  0.55201200  1
loop_
_geom_bond_atom_site_label_1
_geom_bond_atom_site_label_2
_geom_bond_distance
_geom_bond_site_symmetry_2
Mn0 O0 2.029307 1_555
Mn0 O1 2.034337 1_565
Mn1 O0 2.029307 1_555
Mn1 O1 2.034337 1_455
Mn3 O2 2.054175 1_555
Mn3 O3 2.080709 1_555
Mn4 O0 2.054175 1_555
Mn4 O1 2.080709 1_555
Mn6 O2 2.029307 1_555
Mn6 O3 2.034337 1_545
Mn7 O2 2.029307 1_555
Mn7 O3 2.034337 1_655
F0 Mn2 2.022895 1_645
F0 Mn1 2.067674 1_655
F0 Mn0 2.067674 1_545
F1 Mn3 2.119084 1_555
F1 Mn5 2.131814 1_565
F1 Mn0 2.139078 1_554
F2 Mn3 2.119084 1_555
F2 Mn5 2.131814 1_455
F2 Mn1 2.139078 1_554
F3 Mn4 2.119084 1_555
F3 Mn2 2.131814 1_655
F3 Mn7 2.139078 1_556
F4 Mn3 2.119084 1_555
F4 Mn5 2.131814 1_565
F4 Mn0 2.139078 1_555
F5 Mn3 2.119084 1_555
F5 Mn5 2.131814 1_455
F5 Mn1 2.139078 1_555
F6 Mn4 2.119084 1_555
F6 Mn2 2.131814 1_545
F6 Mn6 2.139078 1_556
F7 Mn5 2.022895 1_465
F7 Mn6 2.067674 1_565
F7 Mn7 2.067674 1_455
F8 Mn2 2.010532 1_555
F8 Mn0 2.059459 1_555
F8 Mn1 2.059459 1_555
F9 Mn5 2.010532 1_555
F9 Mn7 2.059459 1_555
F9 Mn6 2.059459 1_555
F10 Mn4 2.119084 1_555
F10 Mn2 2.131814 1_655
F10 Mn7 2.139078 1_555
F11 Mn4 2.119084 1_555
F11 Mn2 2.131814 1_545
F11 Mn6 2.139078 1_555
