# generated using pymatgen
data_Na2CrPCO7
_symmetry_space_group_name_H-M   'P 1'
_cell_length_a   5.24091795
_cell_length_b   11.13706096
_cell_length_c   11.13647260
_cell_angle_alpha   108.09231274
_cell_angle_beta   91.44241203
_cell_angle_gamma   88.55516261
_symmetry_Int_Tables_number   1
_chemical_formula_structural   Na2CrPCO7
_chemical_formula_sum   'Na8 Cr4 P4 C4 O28'
_cell_volume   617.58043252
_cell_formula_units_Z   4
loop_
 _symmetry_equiv_pos_site_id
 _symmetry_equiv_pos_as_xyz
  1  'x, y, z'
loop_
 _atom_site_type_symbol
 _atom_site_label
 _atom_site_symmetry_multiplicity
 _atom_site_fract_x
 _atom_site_fract_y
 _atom_site_fract_z
 _atom_site_occupancy
  Na  Na0  1  0.23866200  0.36192800  0.12931100  1
  Na  Na1  1  0.23889700  0.86193100  0.62925000  1
  Na  Na2  1  0.23887400  0.12074300  0.88802200  1
  Na  Na3  1  0.23868600  0.62066100  0.38800500  1
  Na  Na4  1  0.76090800  0.63806200  0.87072100  1
  Na  Na5  1  0.76102600  0.13800200  0.37077000  1
  Na  Na6  1  0.76099100  0.87928400  0.11187100  1
  Na  Na7  1  0.76105600  0.37924100  0.61204700  1
  Cr  Cr0  1  0.78612200  0.05077900  0.69928400  1
  Cr  Cr1  1  0.21392600  0.94935300  0.30079300  1
  Cr  Cr2  1  0.78635500  0.55058400  0.19931500  1
  Cr  Cr3  1  0.21389900  0.44926400  0.80059000  1
  P  P0  1  0.71698400  0.33746300  0.91259100  1
  P  P1  1  0.71701100  0.83743700  0.41253000  1
  P  P2  1  0.28304000  0.66256600  0.08746800  1
  P  P3  1  0.28304400  0.16257800  0.58743400  1
  C  C0  1  0.72428200  0.41597500  0.33402500  1
  C  C1  1  0.72436300  0.91603200  0.83393200  1
  C  C2  1  0.27574600  0.58401300  0.66600000  1
  C  C3  1  0.27566500  0.08401300  0.16599100  1
  O  O0  1  0.30875400  0.15230600  0.09766400  1
  O  O1  1  0.30881200  0.65227900  0.59762400  1
  O  O2  1  0.69134900  0.84770600  0.90227100  1
  O  O3  1  0.69134800  0.34768000  0.40237500  1
  O  O4  1  0.94932900  0.44671000  0.30329800  1
  O  O5  1  0.94931600  0.94679700  0.80318700  1
  O  O6  1  0.05073800  0.55330300  0.69673900  1
  O  O7  1  0.05069800  0.05326900  0.19674300  1
  O  O8  1  0.53457600  0.46655800  0.28336200  1
  O  O9  1  0.53456700  0.96664400  0.78330600  1
  O  O10  1  0.46542000  0.53339800  0.71668000  1
  O  O11  1  0.46538300  0.03338700  0.21667300  1
  O  O12  1  0.14983300  0.58667300  0.16339700  1
  O  O13  1  0.14982600  0.08673300  0.66336400  1
  O  O14  1  0.85019100  0.41331800  0.83666300  1
  O  O15  1  0.85014100  0.91329400  0.33660800  1
  O  O16  1  0.42004700  0.35169800  0.89862000  1
  O  O17  1  0.42002000  0.85163900  0.39857200  1
  O  O18  1  0.57999600  0.64829300  0.10145800  1
  O  O19  1  0.58003600  0.14839000  0.60137300  1
  O  O20  1  0.79717400  0.19620200  0.86296700  1
  O  O21  1  0.79718700  0.69617600  0.36295800  1
  O  O22  1  0.79768300  0.38685800  0.05376800  1
  O  O23  1  0.79754400  0.88697000  0.55375300  1
  O  O24  1  0.20239600  0.61308900  0.94626400  1
  O  O25  1  0.20241900  0.11308800  0.44624000  1
  O  O26  1  0.20281900  0.80381300  0.13706200  1
  O  O27  1  0.20286100  0.30382100  0.63705900  1
loop_
_geom_bond_atom_site_label_1
_geom_bond_atom_site_label_2
_geom_bond_distance
_geom_bond_site_symmetry_2
Na0 O0 2.271921 1_555
Na0 O8 2.328474 1_555
Na0 O4 2.425826 1_455
Na0 O12 2.446597 1_555
Na0 O22 2.478108 1_455
Na0 O16 2.729937 1_554
Na1 O1 2.272155 1_555
Na1 O9 2.327929 1_555
Na1 O5 2.426384 1_455
Na1 O13 2.447378 1_565
Na1 O23 2.479970 1_455
Na1 O17 2.729113 1_555
Na2 O0 2.272028 1_556
Na2 O9 2.328241 1_545
Na2 O5 2.426474 1_445
Na2 O13 2.445877 1_555
Na2 O20 2.481522 1_455
Na2 O16 2.731388 1_555
Na3 O1 2.271860 1_555
Na3 O8 2.328712 1_555
Na3 O4 2.425665 1_455
Na3 O12 2.445203 1_555
Na3 O21 2.480753 1_455
Na3 O17 2.732030 1_555
Na4 O2 2.271944 1_555
Na4 O10 2.327048 1_555
Na4 O6 2.427412 1_655
Na4 O14 2.447038 1_555
Na4 O24 2.480659 1_655
Na4 O18 2.729495 1_556
Na5 O3 2.272302 1_555
Na5 O11 2.327778 1_555
Na5 O7 2.427196 1_655
Na5 O15 2.446317 1_545
Na5 O25 2.479788 1_655
Na5 O19 2.727795 1_555
Na6 O2 2.271372 1_554
Na6 O11 2.328249 1_565
Na6 O7 2.427324 1_665
Na6 O15 2.446820 1_555
Na6 O26 2.482482 1_655
Na6 O18 2.731951 1_555
Na7 O3 2.272232 1_555
Na7 O10 2.328142 1_555
Na7 O6 2.427584 1_655
Na7 O14 2.445382 1_555
Na7 O27 2.481785 1_655
Na7 O19 2.729788 1_555
Cr0 O20 2.028538 1_555
Cr0 O23 2.030141 1_545
Cr0 O13 2.032265 1_655
Cr0 O5 2.035685 1_545
Cr0 O19 2.038385 1_555
Cr0 O9 2.039765 1_545
Cr1 O25 2.029131 1_565
Cr1 O26 2.029571 1_555
Cr1 O15 2.032668 1_455
Cr1 O7 2.036417 1_565
Cr1 O17 2.038183 1_555
Cr1 O11 2.039400 1_565
Cr2 O21 2.029199 1_555
Cr2 O22 2.029620 1_555
Cr2 O12 2.031560 1_655
Cr2 O4 2.035004 1_555
Cr2 O18 2.039441 1_555
Cr2 O8 2.039973 1_555
Cr3 O27 2.027553 1_555
Cr3 O24 2.031097 1_555
Cr3 O14 2.032740 1_455
Cr3 O6 2.035658 1_555
Cr3 O10 2.038868 1_555
Cr3 O16 2.039115 1_555
C0 O3 1.249211 1_555
C0 O4 1.318635 1_555
C0 O8 1.328576 1_555
C1 O2 1.249460 1_555
C1 O5 1.318382 1_555
C1 O9 1.328871 1_555
C2 O1 1.249301 1_555
C2 O6 1.318397 1_555
C2 O10 1.328748 1_555
C3 O0 1.249125 1_555
C3 O7 1.318392 1_555
C3 O11 1.328993 1_555
O12 P2 1.555691 1_555
O13 P3 1.555339 1_555
O14 P0 1.555376 1_555
O15 P1 1.555152 1_555
O16 P0 1.569031 1_555
O17 P1 1.569256 1_555
O18 P2 1.569197 1_555
O19 P3 1.569222 1_555
O20 P0 1.547723 1_555
O21 P1 1.547676 1_555
O22 P0 1.547394 1_554
O23 P1 1.547704 1_555
O24 P2 1.547633 1_556
O25 P3 1.547515 1_555
O26 P2 1.547608 1_555
O27 P3 1.547534 1_555
