# generated using pymatgen
data_Li2AlCoO4
_symmetry_space_group_name_H-M   'P 1'
_cell_length_a   5.46340700
_cell_length_b   5.01307800
_cell_length_c   8.05875234
_cell_angle_alpha   51.96115144
_cell_angle_beta   90.00000000
_cell_angle_gamma   90.00000000
_symmetry_Int_Tables_number   1
_chemical_formula_structural   Li2AlCoO4
_chemical_formula_sum   'Li4 Al2 Co2 O8'
_cell_volume   173.83521006
_cell_formula_units_Z   2
loop_
 _symmetry_equiv_pos_site_id
 _symmetry_equiv_pos_as_xyz
  1  'x, y, z'
loop_
 _atom_site_type_symbol
 _atom_site_label
 _atom_site_symmetry_multiplicity
 _atom_site_fract_x
 _atom_site_fract_y
 _atom_site_fract_z
 _atom_site_occupancy
  Li  Li0  1  0.33550200  0.25737800  0.24627600  1
  Li  Li1  1  0.83082600  0.50652100  0.99615700  1
  Li  Li2  1  0.66449800  0.25737800  0.74627600  1
  Li  Li3  1  0.16917400  0.50652100  0.49615700  1
  Al  Al0  1  0.67372600  0.75108600  0.24641600  1
  Al  Al1  1  0.32627400  0.75108600  0.74641600  1
  Co  Co0  1  0.16687000  0.99895100  0.00280100  1
  Co  Co1  1  0.83313000  0.99895100  0.50280100  1
  O  O0  1  0.68170700  0.38068500  0.26113200  1
  O  O1  1  0.18084800  0.64709700  0.97708200  1
  O  O2  1  0.16269900  0.07935300  0.51534700  1
  O  O3  1  0.63797800  0.86753000  0.73188800  1
  O  O4  1  0.31829300  0.38068500  0.76113200  1
  O  O5  1  0.81915200  0.64709700  0.47708200  1
  O  O6  1  0.83730100  0.07935300  0.01534700  1
  O  O7  1  0.36202200  0.86753000  0.23188800  1
loop_
_geom_bond_atom_site_label_1
_geom_bond_atom_site_label_2
_geom_bond_distance
_geom_bond_site_symmetry_2
Li0 O2 2.001187 1_555
Li0 O1 2.003440 1_554
Li0 O0 2.016249 1_555
Li0 O7 2.033013 1_545
Li1 O0 1.990322 1_556
Li1 O1 2.010894 1_655
Li1 O3 2.042294 1_555
Li1 O6 2.050061 1_556
Li2 O6 2.001187 1_556
Li2 O5 2.003440 1_555
Li2 O4 2.016249 1_555
Li2 O3 2.033013 1_545
Li3 O4 1.990322 1_555
Li3 O5 2.010894 1_455
Li3 O7 2.042294 1_555
Li3 O2 2.050061 1_555
Al0 O5 1.778825 1_555
Al0 O7 1.780542 1_555
Al0 O0 1.786749 1_555
Al0 O6 1.788230 1_565
Al1 O1 1.778825 1_555
Al1 O3 1.780542 1_555
Al1 O4 1.786749 1_555
Al1 O2 1.788230 1_565
Co0 O6 1.861439 1_465
Co0 O7 1.865520 1_555
Co0 O4 1.883187 1_564
Co0 O1 1.900152 1_554
Co1 O2 1.861439 1_665
Co1 O3 1.865520 1_555
Co1 O0 1.883187 1_565
Co1 O5 1.900152 1_555
