# generated using pymatgen
data_Na2VSiCO7
_symmetry_space_group_name_H-M   'P 1'
_cell_length_a   6.61829800
_cell_length_b   10.28227761
_cell_length_c   10.77602201
_cell_angle_alpha   118.28733134
_cell_angle_beta   90.00000532
_cell_angle_gamma   90.00000000
_symmetry_Int_Tables_number   1
_chemical_formula_structural   Na2VSiCO7
_chemical_formula_sum   'Na8 V4 Si4 C4 O28'
_cell_volume   645.74937484
_cell_formula_units_Z   4
loop_
 _symmetry_equiv_pos_site_id
 _symmetry_equiv_pos_as_xyz
  1  'x, y, z'
loop_
 _atom_site_type_symbol
 _atom_site_label
 _atom_site_symmetry_multiplicity
 _atom_site_fract_x
 _atom_site_fract_y
 _atom_site_fract_z
 _atom_site_occupancy
  Na  Na0  1  0.49986000  0.00744400  0.22772600  1
  Na  Na1  1  0.49984400  0.50741800  0.72770700  1
  Na  Na2  1  0.00014100  0.00744700  0.22772700  1
  Na  Na3  1  0.00015600  0.50742000  0.72770800  1
  Na  Na4  1  0.50014900  0.99263900  0.77235000  1
  Na  Na5  1  0.50013400  0.49261400  0.27234700  1
  Na  Na6  1  0.99985100  0.99264000  0.77235000  1
  Na  Na7  1  0.99986600  0.49261600  0.27234700  1
  V  V0  1  0.75000000  0.71896200  0.07713500  1
  V  V1  1  0.24999900  0.78090800  0.42277200  1
  V  V2  1  0.75000100  0.21904700  0.57718300  1
  V  V3  1  0.25000000  0.28085400  0.92273700  1
  Si  Si0  1  0.25000000  0.14955400  0.58210500  1
  Si  Si1  1  0.25000000  0.64967800  0.08219400  1
  Si  Si2  1  0.75000000  0.85024100  0.41776700  1
  Si  Si3  1  0.75000000  0.35034200  0.91785300  1
  C  C0  1  0.75000000  0.32198400  0.40543800  1
  C  C1  1  0.75000000  0.82197800  0.90546300  1
  C  C2  1  0.25000000  0.67813100  0.59457300  1
  C  C3  1  0.25000000  0.17812500  0.09458600  1
  O  O0  1  0.25000000  0.13030300  0.18230600  1
  O  O1  1  0.25000000  0.63032900  0.68231000  1
  O  O2  1  0.75000000  0.86985900  0.81774000  1
  O  O3  1  0.75000000  0.36986900  0.31773400  1
  O  O4  1  0.75000000  0.40500600  0.54275200  1
  O  O5  1  0.75000000  0.90494900  0.04275700  1
  O  O6  1  0.25000000  0.59504900  0.45725000  1
  O  O7  1  0.25000000  0.09503000  0.95726000  1
  O  O8  1  0.75000000  0.17946200  0.36875100  1
  O  O9  1  0.75000000  0.67941200  0.86871000  1
  O  O10  1  0.25000000  0.82065600  0.63120000  1
  O  O11  1  0.25000000  0.32062500  0.13118600  1
  O  O12  1  0.75000000  0.85913200  0.26761800  1
  O  O13  1  0.75000000  0.35916300  0.76763600  1
  O  O14  1  0.25000000  0.14073000  0.73235500  1
  O  O15  1  0.25000000  0.64076500  0.23236800  1
  O  O16  1  0.25000000  0.97406100  0.45542500  1
  O  O17  1  0.25000000  0.47402400  0.95538800  1
  O  O18  1  0.75000000  0.02596300  0.54457600  1
  O  O19  1  0.75000000  0.52593400  0.04453500  1
  O  O20  1  0.04771200  0.23249400  0.57071200  1
  O  O21  1  0.04771000  0.73250900  0.07073700  1
  O  O22  1  0.45228800  0.23249300  0.57071200  1
  O  O23  1  0.45229000  0.73250900  0.07073600  1
  O  O24  1  0.54771700  0.76738800  0.42927700  1
  O  O25  1  0.54772500  0.26742500  0.92931500  1
  O  O26  1  0.95228300  0.76738900  0.42927700  1
  O  O27  1  0.95227500  0.26742500  0.92931500  1
loop_
_geom_bond_atom_site_label_1
_geom_bond_atom_site_label_2
_geom_bond_distance
_geom_bond_site_symmetry_2
Na0 O0 2.270679 1_555
Na0 O8 2.372969 1_555
Na0 O5 2.415237 1_545
Na0 O12 2.423300 1_545
Na0 O23 2.533775 1_545
Na1 O1 2.270835 1_555
Na1 O9 2.372866 1_555
Na1 O4 2.415178 1_555
Na1 O13 2.423144 1_555
Na1 O22 2.533689 1_555
Na2 O0 2.270659 1_555
Na2 O8 2.372957 1_455
Na2 O5 2.415249 1_445
Na2 O12 2.423322 1_445
Na2 O21 2.533799 1_545
Na3 O1 2.270827 1_555
Na3 O9 2.372854 1_455
Na3 O4 2.415185 1_455
Na3 O13 2.423154 1_455
Na3 O20 2.533699 1_555
Na4 O2 2.269946 1_555
Na4 O10 2.373239 1_555
Na4 O7 2.414836 1_565
Na4 O14 2.422249 1_565
Na4 O25 2.532518 1_565
Na5 O3 2.269766 1_555
Na5 O11 2.373231 1_555
Na5 O6 2.414742 1_555
Na5 O15 2.422539 1_555
Na5 O24 2.532373 1_555
Na6 O2 2.269952 1_555
Na6 O10 2.373244 1_655
Na6 O7 2.414835 1_665
Na6 O14 2.422241 1_665
Na6 O27 2.532510 1_565
Na7 O3 2.269779 1_555
Na7 O11 2.373240 1_655
Na7 O6 2.414741 1_655
Na7 O15 2.422524 1_655
Na7 O26 2.532365 1_555
C0 O3 1.255659 1_555
C0 O4 1.311883 1_555
C0 O8 1.324665 1_555
C1 O2 1.255820 1_555
C1 O5 1.311645 1_556
C1 O9 1.324941 1_555
C2 O1 1.255354 1_555
C2 O6 1.312034 1_555
C2 O10 1.324841 1_555
C3 O0 1.255336 1_555
C3 O7 1.312076 1_554
C3 O11 1.324659 1_555
O4 V2 2.113319 1_555
O5 V0 2.113258 1_555
O6 V1 2.112609 1_555
O7 V3 2.112547 1_555
O8 V2 2.084231 1_555
O9 V0 2.084270 1_556
O10 V1 2.083661 1_555
O11 V3 2.083809 1_554
O12 Si2 1.663281 1_555
O12 V0 1.867263 1_555
O13 Si3 1.663642 1_555
O13 V2 1.866886 1_555
O14 Si0 1.664013 1_555
O14 V3 1.866346 1_555
O15 Si1 1.663667 1_555
O15 V1 1.866569 1_555
O16 Si0 1.668815 1_565
O16 V1 1.845501 1_555
O17 Si1 1.670379 1_556
O17 V3 1.845680 1_555
O18 Si2 1.670873 1_545
O18 V2 1.844960 1_555
O19 Si3 1.669528 1_554
O19 V0 1.844417 1_555
O20 Si0 1.622956 1_555
O20 V2 1.978726 1_455
O21 Si1 1.622562 1_555
O21 V0 1.978755 1_455
O22 Si0 1.622950 1_555
O22 V2 1.978739 1_555
O23 Si1 1.622566 1_555
O23 V0 1.978756 1_555
O24 Si2 1.622837 1_555
O24 V1 1.978863 1_555
O25 Si3 1.622994 1_555
O25 V3 1.978882 1_555
O26 Si2 1.622831 1_555
O26 V1 1.978849 1_655
O27 Si3 1.622994 1_555
O27 V3 1.978882 1_655
