# generated using pymatgen
data_MnFeCo(PO4)3
_symmetry_space_group_name_H-M   'P 1'
_cell_length_a   6.00656200
_cell_length_b   9.85508200
_cell_length_c   14.65443456
_cell_angle_alpha   89.70174023
_cell_angle_beta   90.00000000
_cell_angle_gamma   90.00000000
_symmetry_Int_Tables_number   1
_chemical_formula_structural   MnFeCo(PO4)3
_chemical_formula_sum   'Mn4 Fe4 Co4 P12 O48'
_cell_volume   867.45986006
_cell_formula_units_Z   4
loop_
 _symmetry_equiv_pos_site_id
 _symmetry_equiv_pos_as_xyz
  1  'x, y, z'
loop_
 _atom_site_type_symbol
 _atom_site_label
 _atom_site_symmetry_multiplicity
 _atom_site_fract_x
 _atom_site_fract_y
 _atom_site_fract_z
 _atom_site_occupancy
  Mn  Mn0  1  0.00000000  0.21590500  0.81226600  1
  Mn  Mn1  1  0.00000000  0.21328800  0.48041400  1
  Mn  Mn2  1  0.50000000  0.28303300  0.64604600  1
  Mn  Mn3  1  0.50000000  0.28355200  0.31324400  1
  Fe  Fe0  1  0.00000000  0.22549500  0.15393800  1
  Fe  Fe1  1  0.50000000  0.27691500  0.98510200  1
  Fe  Fe2  1  0.00000000  0.72911700  0.34410700  1
  Fe  Fe3  1  0.00000000  0.72684900  0.00887900  1
  Co  Co0  1  0.00000000  0.72644400  0.67707300  1
  Co  Co1  1  0.50000000  0.77184500  0.17652000  1
  Co  Co2  1  0.50000000  0.77412000  0.51414000  1
  Co  Co3  1  0.50000000  0.77282100  0.84062500  1
  P  P0  1  0.50000000  0.09847700  0.47275000  1
  P  P1  1  0.50000000  0.09738300  0.80531500  1
  P  P2  1  0.50000000  0.09923900  0.14034400  1
  P  P3  1  0.00000000  0.40030300  0.97057900  1
  P  P4  1  0.00000000  0.40111100  0.30732900  1
  P  P5  1  0.00000000  0.40068800  0.63951000  1
  P  P6  1  0.50000000  0.60168400  0.02761500  1
  P  P7  1  0.50000000  0.60152900  0.36241800  1
  P  P8  1  0.50000000  0.59809800  0.69603900  1
  P  P9  1  0.00000000  0.90043000  0.52968000  1
  P  P10  1  0.00000000  0.90086100  0.86037900  1
  P  P11  1  0.00000000  0.90128500  0.19490600  1
  O  O0  1  0.00000000  0.05329300  0.88242700  1
  O  O1  1  0.00000000  0.05300700  0.55368700  1
  O  O2  1  0.00000000  0.05335100  0.21646600  1
  O  O3  1  0.50000000  0.11994600  0.24441700  1
  O  O4  1  0.50000000  0.11869100  0.57668200  1
  O  O5  1  0.50000000  0.11769200  0.90845200  1
  O  O6  1  0.29970000  0.17098700  0.42444900  1
  O  O7  1  0.70030000  0.17098700  0.42444900  1
  O  O8  1  0.29891200  0.16795300  0.75659400  1
  O  O9  1  0.70108800  0.16795300  0.75659400  1
  O  O10  1  0.30032500  0.17168600  0.09155900  1
  O  O11  1  0.69967500  0.17168600  0.09155900  1
  O  O12  1  0.80198600  0.32731300  0.25706500  1
  O  O13  1  0.19801400  0.32731300  0.25706500  1
  O  O14  1  0.79567000  0.32844600  0.92514400  1
  O  O15  1  0.20433000  0.32844600  0.92514400  1
  O  O16  1  0.79945700  0.32985600  0.59112000  1
  O  O17  1  0.20054300  0.32985600  0.59112000  1
  O  O18  1  0.00000000  0.37909400  0.07465900  1
  O  O19  1  0.00000000  0.37891000  0.41084000  1
  O  O20  1  0.00000000  0.38103500  0.74366500  1
  O  O21  1  0.50000000  0.45017400  0.04895500  1
  O  O22  1  0.50000000  0.44788700  0.38317400  1
  O  O23  1  0.50000000  0.44517900  0.71754400  1
  O  O24  1  0.00000000  0.55285300  0.94938400  1
  O  O25  1  0.00000000  0.55220400  0.28648100  1
  O  O26  1  0.00000000  0.55531200  0.62080300  1
  O  O27  1  0.50000000  0.62356700  0.25765100  1
  O  O28  1  0.50000000  0.62710500  0.92368200  1
  O  O29  1  0.50000000  0.62114500  0.59111000  1
  O  O30  1  0.29788100  0.67272800  0.40971100  1
  O  O31  1  0.70211900  0.67272800  0.40971100  1
  O  O32  1  0.29874300  0.67467000  0.07579600  1
  O  O33  1  0.70125700  0.67467000  0.07579600  1
  O  O34  1  0.29895400  0.66983400  0.74365000  1
  O  O35  1  0.70104600  0.66983400  0.74365000  1
  O  O36  1  0.79879100  0.82766800  0.57812500  1
  O  O37  1  0.20120900  0.82766800  0.57812500  1
  O  O38  1  0.79997700  0.82968800  0.90957000  1
  O  O39  1  0.20002300  0.82968800  0.90957000  1
  O  O40  1  0.80087300  0.82796600  0.24498200  1
  O  O41  1  0.19912700  0.82796600  0.24498200  1
  O  O42  1  0.00000000  0.87677600  0.75628400  1
  O  O43  1  0.00000000  0.87997200  0.09190400  1
  O  O44  1  0.00000000  0.88219200  0.42625500  1
  O  O45  1  0.50000000  0.94453200  0.45267100  1
  O  O46  1  0.50000000  0.94288300  0.78470500  1
  O  O47  1  0.50000000  0.94512500  0.12260600  1
loop_
_geom_bond_atom_site_label_1
_geom_bond_atom_site_label_2
_geom_bond_distance
_geom_bond_site_symmetry_2
Mn0 O0 1.899516 1_555
Mn0 O20 1.908388 1_555
Mn0 O9 2.028920 1_455
Mn0 O8 2.028920 1_555
Mn0 O14 2.343454 1_455
Mn0 O15 2.343454 1_555
Mn1 O1 1.905364 1_555
Mn1 O19 1.919982 1_555
Mn1 O7 2.022516 1_455
Mn1 O6 2.022516 1_555
Mn1 O17 2.328536 1_555
Mn1 O16 2.328536 1_455
Mn2 O23 1.915391 1_555
Mn2 O4 1.916640 1_555
Mn2 O16 2.022941 1_555
Mn2 O17 2.022941 1_555
Mn2 O8 2.313106 1_555
Mn2 O9 2.313106 1_555
Mn3 O3 1.906285 1_555
Mn3 O22 1.921030 1_555
Mn3 O12 2.037228 1_555
Mn3 O13 2.037228 1_555
Mn3 O6 2.305437 1_555
Mn3 O7 2.305437 1_555
Fe0 O18 1.903372 1_555
Fe0 O2 1.923937 1_555
Fe0 O10 2.091893 1_555
Fe0 O11 2.091893 1_455
Fe0 O13 2.172835 1_555
Fe0 O12 2.172835 1_455
Fe1 O5 1.934507 1_555
Fe1 O21 1.951337 1_556
Fe1 O14 2.044338 1_555
Fe1 O15 2.044338 1_555
Fe1 O10 2.220559 1_556
Fe1 O11 2.220559 1_556
Fe2 O44 1.934914 1_555
Fe2 O25 1.941194 1_555
Fe2 O31 2.104498 1_455
Fe2 O30 2.104498 1_555
Fe2 O41 2.115408 1_555
Fe2 O40 2.115408 1_455
Fe3 O24 1.927710 1_554
Fe3 O43 1.943357 1_555
Fe3 O32 2.107310 1_555
Fe3 O33 2.107310 1_455
Fe3 O38 2.138511 1_454
Fe3 O39 2.138511 1_554
Co0 O26 1.881170 1_555
Co0 O42 1.886872 1_555
Co0 O34 2.117064 1_555
Co0 O35 2.117064 1_455
Co0 O37 2.131506 1_555
Co0 O36 2.131506 1_455
Co1 O47 1.877865 1_555
Co1 O27 1.879052 1_555
Co1 O33 2.138206 1_555
Co1 O32 2.138206 1_555
Co1 O40 2.141084 1_555
Co1 O41 2.141084 1_555
Co2 O29 1.878130 1_555
Co2 O45 1.901616 1_555
Co2 O36 2.093759 1_555
Co2 O37 2.093759 1_555
Co2 O30 2.197779 1_555
Co2 O31 2.197779 1_555
Co3 O46 1.861756 1_555
Co3 O28 1.877627 1_555
Co3 O35 2.126730 1_555
Co3 O34 2.126730 1_555
Co3 O39 2.141816 1_555
Co3 O38 2.141816 1_555
O0 P10 1.538227 1_545
O1 P9 1.546049 1_545
O2 P11 1.533175 1_545
O3 P2 1.539776 1_555
O4 P0 1.537065 1_555
O5 P1 1.525641 1_555
O6 P0 1.566485 1_555
O7 P0 1.566485 1_555
O8 P1 1.564345 1_555
O9 P1 1.564345 1_555
O10 P2 1.566528 1_555
O11 P2 1.566528 1_555
O12 P4 1.578518 1_655
O13 P4 1.578518 1_555
O14 P3 1.567174 1_655
O15 P3 1.567174 1_555
O16 P5 1.564064 1_655
O17 P5 1.564064 1_555
O18 P3 1.538410 1_554
O19 P4 1.531465 1_555
O20 P5 1.537572 1_555
O21 P6 1.523947 1_555
O22 P7 1.542850 1_555
O23 P8 1.538021 1_555
O24 P3 1.533558 1_555
O25 P4 1.518494 1_555
O26 P5 1.546890 1_555
O27 P7 1.549467 1_555
O28 P6 1.542259 1_556
O29 P8 1.553189 1_555
O30 P7 1.565766 1_555
O31 P7 1.565766 1_555
O32 P6 1.575605 1_555
O33 P6 1.575605 1_555
O34 P8 1.565255 1_555
O35 P8 1.565255 1_555
O36 P9 1.572754 1_655
O37 P9 1.572754 1_555
O38 P10 1.565200 1_655
O39 P10 1.565200 1_555
O40 P11 1.576602 1_655
O41 P11 1.576602 1_555
O42 P10 1.545030 1_555
O43 P11 1.525062 1_555
O44 P9 1.527184 1_555
O45 P0 1.546914 1_565
O46 P1 1.553818 1_565
O47 P2 1.542223 1_565
