# generated using pymatgen
data_Li3V2(PO4)3
_symmetry_space_group_name_H-M   'P 1'
_cell_length_a   8.75954000
_cell_length_b   8.82300000
_cell_length_c   12.22920500
_cell_angle_alpha   90.00000000
_cell_angle_beta   90.00000000
_cell_angle_gamma   90.00000000
_symmetry_Int_Tables_number   1
_chemical_formula_structural   Li3V2(PO4)3
_chemical_formula_sum   'Li12 V8 P12 O48'
_cell_volume   945.13926206
_cell_formula_units_Z   4
loop_
 _symmetry_equiv_pos_site_id
 _symmetry_equiv_pos_as_xyz
  1  'x, y, z'
loop_
 _atom_site_type_symbol
 _atom_site_label
 _atom_site_symmetry_multiplicity
 _atom_site_fract_x
 _atom_site_fract_y
 _atom_site_fract_z
 _atom_site_occupancy
  Li  Li0  1  0.53064600  0.97996100  0.82007600  1
  Li  Li1  1  0.53064600  0.02003900  0.17992400  1
  Li  Li2  1  0.46935400  0.52003900  0.32007600  1
  Li  Li3  1  0.46935400  0.47996100  0.67992400  1
  Li  Li4  1  0.19708100  0.32457100  0.78736500  1
  Li  Li5  1  0.19708100  0.67542900  0.21263500  1
  Li  Li6  1  0.05279400  0.98413400  0.68326800  1
  Li  Li7  1  0.05279400  0.01586600  0.31673200  1
  Li  Li8  1  0.94720600  0.48413400  0.81673200  1
  Li  Li9  1  0.94720600  0.51586600  0.18326800  1
  Li  Li10  1  0.80291900  0.82457100  0.71263500  1
  Li  Li11  1  0.80291900  0.17542900  0.28736500  1
  V  V0  1  0.49656900  0.79169700  0.61412300  1
  V  V1  1  0.49656900  0.20830300  0.38587700  1
  V  V2  1  0.50343100  0.29169700  0.88587700  1
  V  V3  1  0.50343100  0.70830300  0.11412300  1
  V  V4  1  0.00822100  0.79291000  0.88868700  1
  V  V5  1  0.00822100  0.20709000  0.11131300  1
  V  V6  1  0.99177900  0.29291000  0.61131300  1
  V  V7  1  0.99177900  0.70709000  0.38868700  1
  P  P0  1  0.70511100  0.50000000  0.50000000  1
  P  P1  1  0.64484500  0.64773000  0.85368600  1
  P  P2  1  0.64484500  0.35227000  0.14631400  1
  P  P3  1  0.35515500  0.14773000  0.64631400  1
  P  P4  1  0.35515500  0.85227000  0.35368600  1
  P  P5  1  0.29488900  0.00000000  0.00000000  1
  P  P6  1  0.20471800  0.50000000  0.00000000  1
  P  P7  1  0.14365800  0.64563400  0.64745100  1
  P  P8  1  0.14365800  0.35436600  0.35254900  1
  P  P9  1  0.85634200  0.85436600  0.14745100  1
  P  P10  1  0.85634200  0.14563400  0.85254900  1
  P  P11  1  0.79528200  0.00000000  0.50000000  1
  O  O0  1  0.69979300  0.10606100  0.42565200  1
  O  O1  1  0.69979300  0.89393900  0.57434800  1
  O  O2  1  0.68058700  0.15359800  0.83769100  1
  O  O3  1  0.68058700  0.84640200  0.16230900  1
  O  O4  1  0.59806800  0.68550100  0.96941700  1
  O  O5  1  0.59806800  0.31449900  0.03058300  1
  O  O6  1  0.58965700  0.48917800  0.81872800  1
  O  O7  1  0.58965700  0.51082200  0.18127200  1
  O  O8  1  0.60013100  0.59186100  0.57760400  1
  O  O9  1  0.60013100  0.40813900  0.42239600  1
  O  O10  1  0.58345900  0.77322700  0.77297100  1
  O  O11  1  0.58345900  0.22677300  0.22702900  1
  O  O12  1  0.41654100  0.27322700  0.72702900  1
  O  O13  1  0.41654100  0.72677300  0.27297100  1
  O  O14  1  0.39986900  0.09186100  0.92239600  1
  O  O15  1  0.39986900  0.90813900  0.07760400  1
  O  O16  1  0.41034300  0.01082200  0.31872800  1
  O  O17  1  0.41034300  0.98917800  0.68127200  1
  O  O18  1  0.40193200  0.18550100  0.53058300  1
  O  O19  1  0.40193200  0.81449900  0.46941700  1
  O  O20  1  0.31941300  0.34640200  0.33769100  1
  O  O21  1  0.31941300  0.65359800  0.66230900  1
  O  O22  1  0.30020700  0.39393900  0.92565200  1
  O  O23  1  0.30020700  0.60606100  0.07434800  1
  O  O24  1  0.19700000  0.10325700  0.07295900  1
  O  O25  1  0.19700000  0.89674300  0.92704100  1
  O  O26  1  0.17876200  0.15816000  0.66245700  1
  O  O27  1  0.17876200  0.84184000  0.33754300  1
  O  O28  1  0.09492500  0.67493400  0.52981200  1
  O  O29  1  0.09492500  0.32506600  0.47018800  1
  O  O30  1  0.09325600  0.48378900  0.68646800  1
  O  O31  1  0.09325600  0.51621100  0.31353200  1
  O  O32  1  0.09822600  0.58746500  0.92080400  1
  O  O33  1  0.09822600  0.41253500  0.07919600  1
  O  O34  1  0.06318400  0.76742900  0.72102000  1
  O  O35  1  0.06318400  0.23257100  0.27898000  1
  O  O36  1  0.93681600  0.26742900  0.77898000  1
  O  O37  1  0.93681600  0.73257100  0.22102000  1
  O  O38  1  0.90177400  0.08746500  0.57919600  1
  O  O39  1  0.90177400  0.91253500  0.42080400  1
  O  O40  1  0.90674400  0.98378900  0.81353200  1
  O  O41  1  0.90674400  0.01621100  0.18646800  1
  O  O42  1  0.90507500  0.17493400  0.97018800  1
  O  O43  1  0.90507500  0.82506600  0.02981200  1
  O  O44  1  0.82123800  0.34184000  0.16245700  1
  O  O45  1  0.82123800  0.65816000  0.83754300  1
  O  O46  1  0.80300000  0.39674300  0.57295900  1
  O  O47  1  0.80300000  0.60325700  0.42704100  1
loop_
_geom_bond_atom_site_label_1
_geom_bond_atom_site_label_2
_geom_bond_distance
_geom_bond_site_symmetry_2
Li0 O14 1.962844 1_565
Li0 O10 1.967964 1_555
Li0 O17 1.999621 1_555
Li0 O2 2.029405 1_565
Li1 O15 1.962844 1_545
Li1 O11 1.967964 1_555
Li1 O16 1.999621 1_555
Li1 O3 2.029405 1_545
Li2 O9 1.962844 1_555
Li2 O13 1.967964 1_555
Li2 O7 1.999621 1_555
Li2 O20 2.029405 1_555
Li3 O8 1.962844 1_555
Li3 O12 1.967964 1_555
Li3 O6 1.999621 1_555
Li3 O21 2.029405 1_555
Li4 O22 2.012599 1_555
Li4 O30 2.079185 1_555
Li4 O12 2.108354 1_555
Li4 O26 2.124812 1_555
Li4 O36 2.337133 1_455
Li5 O23 2.012599 1_555
Li5 O31 2.079185 1_555
Li5 O13 2.108354 1_555
Li5 O27 2.124812 1_555
Li5 O37 2.337133 1_455
Li6 O26 1.907842 1_565
Li6 O34 1.969042 1_555
Li6 O40 2.043141 1_455
Li6 O38 2.049625 1_465
Li7 O27 1.907842 1_545
Li7 O35 1.969042 1_555
Li7 O41 2.043141 1_455
Li7 O39 2.049625 1_445
Li8 O45 1.907842 1_555
Li8 O36 1.969042 1_555
Li8 O30 2.043141 1_655
Li8 O32 2.049625 1_655
Li9 O44 1.907842 1_555
Li9 O37 1.969042 1_555
Li9 O31 2.043141 1_655
Li9 O33 2.049625 1_655
Li10 O1 2.012599 1_555
Li10 O40 2.079185 1_555
Li10 O10 2.108354 1_555
Li10 O45 2.124812 1_555
Li10 O34 2.337133 1_655
Li11 O0 2.012599 1_555
Li11 O41 2.079185 1_555
Li11 O11 2.108354 1_555
Li11 O44 2.124812 1_555
Li11 O35 2.337133 1_655
O0 P11 1.549834 1_555
O0 V1 2.054089 1_555
O1 P11 1.549834 1_565
O1 V0 2.054089 1_555
O2 P10 1.551810 1_555
O2 V2 2.059116 1_555
O3 P9 1.551810 1_555
O3 V3 2.059116 1_555
O4 P1 1.510635 1_555
O4 V3 1.964510 1_556
O5 P2 1.510635 1_555
O5 V2 1.964510 1_554
O6 P1 1.540582 1_555
O6 V2 2.068981 1_555
O7 P2 1.540582 1_555
O7 V3 2.068981 1_555
O8 P0 1.550220 1_555
O8 V0 2.032508 1_555
O9 P0 1.550220 1_555
O9 V1 2.032508 1_555
O10 P1 1.577811 1_555
O10 V0 2.092723 1_555
O11 P2 1.577811 1_555
O11 V1 2.092723 1_555
O12 P3 1.577811 1_555
O12 V2 2.092723 1_555
O13 P4 1.577811 1_555
O13 V3 2.092723 1_555
O14 P5 1.550220 1_556
O14 V2 2.032508 1_555
O15 P5 1.550220 1_565
O15 V3 2.032508 1_555
O16 P4 1.540582 1_545
O16 V1 2.068981 1_555
O17 P3 1.540582 1_565
O17 V0 2.068981 1_555
O18 P3 1.510635 1_555
O18 V1 1.964510 1_555
O19 P4 1.510635 1_555
O19 V0 1.964510 1_555
O20 P8 1.551810 1_555
O20 V1 2.059116 1_555
O21 P7 1.551810 1_555
O21 V0 2.059116 1_555
O22 P6 1.549834 1_556
O22 V2 2.054089 1_555
O23 P6 1.549834 1_555
O23 V3 2.054089 1_555
O24 P5 1.536654 1_555
O24 V5 1.947748 1_555
O25 P5 1.536654 1_566
O25 V4 1.947748 1_555
O26 P3 1.560398 1_555
O26 V6 2.118334 1_455
O27 P4 1.560398 1_555
O27 V7 2.118334 1_455
O28 P7 1.522733 1_555
O28 V7 1.968596 1_455
O29 P8 1.522733 1_555
O29 V6 1.968596 1_455
O30 P7 1.568966 1_555
O30 V6 2.114504 1_455
O31 P8 1.568966 1_555
O31 V7 2.114504 1_455
O32 P6 1.550381 1_556
O32 V4 2.015319 1_555
O33 P6 1.550381 1_555
O33 V5 2.015319 1_555
O34 P7 1.568792 1_555
O34 V4 2.118164 1_555
O35 P8 1.568792 1_555
O35 V5 2.118164 1_555
O36 P10 1.568792 1_555
O36 V6 2.118164 1_555
O37 P9 1.568792 1_555
O37 V7 2.118164 1_555
O38 P11 1.550381 1_555
O38 V6 2.015319 1_555
O39 P11 1.550381 1_565
O39 V7 2.015319 1_555
O40 P10 1.568966 1_565
O40 V4 2.114504 1_655
O41 P9 1.568966 1_545
O41 V5 2.114504 1_655
O42 P10 1.522733 1_555
O42 V5 1.968596 1_656
O43 P9 1.522733 1_555
O43 V4 1.968596 1_654
O44 P2 1.560398 1_555
O44 V5 2.118334 1_655
O45 P1 1.560398 1_555
O45 V4 2.118334 1_655
O46 P0 1.536654 1_555
O46 V6 1.947748 1_555
O47 P0 1.536654 1_555
O47 V7 1.947748 1_555
