# generated using pymatgen
data_LiV2(CO3)4
_symmetry_space_group_name_H-M   'P 1'
_cell_length_a   7.50353642
_cell_length_b   7.50353642
_cell_length_c   8.72982234
_cell_angle_alpha   72.97465234
_cell_angle_beta   72.97465234
_cell_angle_gamma   106.13033742
_symmetry_Int_Tables_number   1
_chemical_formula_structural   LiV2(CO3)4
_chemical_formula_sum   'Li2 V4 C8 O24'
_cell_volume   412.32330970
_cell_formula_units_Z   2
loop_
 _symmetry_equiv_pos_site_id
 _symmetry_equiv_pos_as_xyz
  1  'x, y, z'
loop_
 _atom_site_type_symbol
 _atom_site_label
 _atom_site_symmetry_multiplicity
 _atom_site_fract_x
 _atom_site_fract_y
 _atom_site_fract_z
 _atom_site_occupancy
  Li  Li0  1  0.25054300  0.99781200  0.99936800  1
  Li  Li1  1  0.99781200  0.25054300  0.49936800  1
  V  V0  1  0.75036500  0.99553900  0.99964200  1
  V  V1  1  0.50486400  0.24979300  0.50023400  1
  V  V2  1  0.99553900  0.75036500  0.49964200  1
  V  V3  1  0.24979300  0.50486400  0.00023400  1
  C  C0  1  0.45103200  0.56385300  0.24573000  1
  C  C1  1  0.04831900  0.43581800  0.75689900  1
  C  C2  1  0.93961000  0.54744000  0.25900000  1
  C  C3  1  0.43581800  0.04831900  0.25689900  1
  C  C4  1  0.05990400  0.95327400  0.73862200  1
  C  C5  1  0.56385300  0.45103200  0.74573000  1
  C  C6  1  0.95327400  0.05990400  0.23862200  1
  C  C7  1  0.54744000  0.93961000  0.75900000  1
  O  O0  1  0.49322000  0.03213500  0.10644700  1
  O  O1  1  0.60146300  0.71592600  0.10626700  1
  O  O2  1  0.47941800  0.51018300  0.38672500  1
  O  O3  1  0.03213500  0.49322000  0.60644700  1
  O  O4  1  0.89410500  0.27886700  0.88758600  1
  O  O5  1  0.01903300  0.71867100  0.26904200  1
  O  O6  1  0.52671600  0.20386400  0.27556900  1
  O  O7  1  0.28558600  0.47446000  0.23494300  1
  O  O8  1  0.79000700  0.98109100  0.22202200  1
  O  O9  1  0.19189500  0.11936900  0.60515300  1
  O  O10  1  0.71592600  0.60146300  0.60626700  1
  O  O11  1  0.00299100  0.95645100  0.89534200  1
  O  O12  1  0.99261100  0.53459200  0.11022200  1
  O  O13  1  0.81232200  0.38686000  0.40118600  1
  O  O14  1  0.27886700  0.89410500  0.38758600  1
  O  O15  1  0.71867100  0.01903300  0.76904200  1
  O  O16  1  0.20386400  0.52671600  0.77556900  1
  O  O17  1  0.98109100  0.79000700  0.72202200  1
  O  O18  1  0.47446000  0.28558600  0.73494300  1
  O  O19  1  0.11936900  0.19189500  0.10515300  1
  O  O20  1  0.95645100  0.00299100  0.39534200  1
  O  O21  1  0.53459200  0.99261100  0.61022200  1
  O  O22  1  0.38686000  0.81232200  0.90118600  1
  O  O23  1  0.51018300  0.47941800  0.88672500  1
loop_
_geom_bond_atom_site_label_1
_geom_bond_atom_site_label_2
_geom_bond_distance
_geom_bond_site_symmetry_2
Li0 O22 2.166636 1_555
Li0 O19 2.234766 1_566
Li0 O0 2.265640 1_566
Li0 O11 2.281208 1_555
Li0 O18 2.368182 1_565
Li0 O5 2.375495 1_556
Li1 O13 2.166636 1_555
Li1 O9 2.234766 1_655
Li1 O3 2.265640 1_655
Li1 O20 2.281208 1_555
Li1 O7 2.368182 1_655
Li1 O15 2.375495 1_555
C0 O2 1.278077 1_555
C0 O7 1.281677 1_555
C0 O1 1.313200 1_555
C1 O16 1.260215 1_555
C1 O4 1.307845 1_455
C1 O3 1.310161 1_555
C2 O12 1.283162 1_555
C2 O5 1.297977 1_655
C2 O13 1.302027 1_555
C3 O6 1.260215 1_555
C3 O14 1.307845 1_545
C3 O0 1.310161 1_555
C4 O17 1.274024 1_455
C4 O9 1.296066 1_565
C4 O11 1.318089 1_555
C5 O23 1.278077 1_555
C5 O18 1.281677 1_555
C5 O10 1.313200 1_555
C6 O8 1.274024 1_545
C6 O19 1.296066 1_655
C6 O20 1.318089 1_555
C7 O21 1.283162 1_555
C7 O15 1.297977 1_565
C7 O22 1.302027 1_555
O0 V0 2.014583 1_544
O1 V0 1.860529 1_554
O2 V1 2.005045 1_555
O3 V2 2.014583 1_455
O4 V0 1.878875 1_545
O5 V2 2.058160 1_455
O6 V1 2.056985 1_555
O7 V3 2.098812 1_555
O8 V0 2.025303 1_554
O9 V1 2.061567 1_555
O10 V2 1.860529 1_555
O11 V0 1.990709 1_455
O12 V3 1.993811 1_655
O13 V1 2.029896 1_555
O14 V2 1.878875 1_455
O15 V0 2.058160 1_545
O16 V3 2.056985 1_556
O17 V2 2.025303 1_555
O18 V1 2.098812 1_555
O19 V3 2.061567 1_555
O20 V2 1.990709 1_545
O21 V1 1.993811 1_565
O22 V3 2.029896 1_556
O23 V3 2.005045 1_556
