# generated using pymatgen
data_Li4Ni3Sn(PO4)4
_symmetry_space_group_name_H-M   'P 1'
_cell_length_a   4.79991092
_cell_length_b   12.24479421
_cell_length_c   12.08851434
_cell_angle_alpha   60.42930323
_cell_angle_beta   90.02583761
_cell_angle_gamma   90.77301979
_symmetry_Int_Tables_number   1
_chemical_formula_structural   Li4Ni3Sn(PO4)4
_chemical_formula_sum   'Li8 Ni6 Sn2 P8 O32'
_cell_volume   617.87434930
_cell_formula_units_Z   2
loop_
 _symmetry_equiv_pos_site_id
 _symmetry_equiv_pos_as_xyz
  1  'x, y, z'
loop_
 _atom_site_type_symbol
 _atom_site_label
 _atom_site_symmetry_multiplicity
 _atom_site_fract_x
 _atom_site_fract_y
 _atom_site_fract_z
 _atom_site_occupancy
  Li  Li0  1  0.01193800  0.98661400  0.50751600  1
  Li  Li1  1  0.01181600  0.98666600  0.00753600  1
  Li  Li2  1  0.01189100  0.98655300  0.75586300  1
  Li  Li3  1  0.01177700  0.98668200  0.25574600  1
  Li  Li4  1  0.50128900  0.51845000  0.98763900  1
  Li  Li5  1  0.50130200  0.51839300  0.48765200  1
  Li  Li6  1  0.50120000  0.51842500  0.74382100  1
  Li  Li7  1  0.50122200  0.51838500  0.24387500  1
  Ni  Ni0  1  0.52637800  0.78075300  0.23455900  1
  Ni  Ni1  1  0.01598200  0.73039400  0.00985300  1
  Ni  Ni2  1  0.01606200  0.73046300  0.50963400  1
  Ni  Ni3  1  0.48415300  0.21400500  0.26797800  1
  Ni  Ni4  1  0.48419300  0.21395100  0.76807200  1
  Ni  Ni5  1  0.52683500  0.78071700  0.73458100  1
  Sn  Sn0  1  0.99383800  0.28056300  0.98476500  1
  Sn  Sn1  1  0.99395300  0.28050800  0.48482400  1
  P  P0  1  0.08684500  0.61299100  0.81847400  1
  P  P1  1  0.08678800  0.61313000  0.31843900  1
  P  P2  1  0.43676200  0.07090700  0.08949700  1
  P  P3  1  0.43680900  0.07090100  0.58949400  1
  P  P4  1  0.58986700  0.90455200  0.92279000  1
  P  P5  1  0.58986600  0.90459300  0.42271800  1
  P  P6  1  0.87694200  0.41258300  0.16875200  1
  P  P7  1  0.87694200  0.41258700  0.66876100  1
  O  O0  1  0.21366000  0.47972500  0.88475700  1
  O  O1  1  0.21396600  0.47995600  0.38473000  1
  O  O2  1  0.19021500  0.38865400  0.18080200  1
  O  O3  1  0.19020100  0.38866400  0.68073200  1
  O  O4  1  0.26903300  0.89799000  0.92624500  1
  O  O5  1  0.26905400  0.89801400  0.42619500  1
  O  O6  1  0.29594900  0.93822200  0.65595000  1
  O  O7  1  0.29569500  0.93826500  0.15594800  1
  O  O8  1  0.71463200  0.04059200  0.35454200  1
  O  O9  1  0.71480900  0.04052300  0.85471800  1
  O  O10  1  0.75529200  0.06626600  0.09197700  1
  O  O11  1  0.75541700  0.06631300  0.59194300  1
  O  O12  1  0.76545000  0.61254700  0.81861400  1
  O  O13  1  0.76545900  0.61257500  0.31859900  1
  O  O14  1  0.79517100  0.55381900  0.09814300  1
  O  O15  1  0.79508500  0.55381600  0.59808600  1
  O  O16  1  0.22142600  0.67992200  0.68168100  1
  O  O17  1  0.22129800  0.68023900  0.18162000  1
  O  O18  1  0.22131600  0.67938200  0.88893900  1
  O  O19  1  0.22149100  0.67962400  0.38880900  1
  O  O20  1  0.31657800  0.13978300  0.95037300  1
  O  O21  1  0.31655300  0.13976400  0.45039700  1
  O  O22  1  0.31668300  0.13980500  0.15966300  1
  O  O23  1  0.31669700  0.13980200  0.65965300  1
  O  O24  1  0.72572000  0.83423000  0.85650100  1
  O  O25  1  0.72572600  0.83412400  0.35651700  1
  O  O26  1  0.72680100  0.83395300  0.05936100  1
  O  O27  1  0.72673300  0.83424200  0.55918300  1
  O  O28  1  0.71725000  0.34886500  0.10053900  1
  O  O29  1  0.71720600  0.34876800  0.60063700  1
  O  O30  1  0.71736500  0.34886900  0.30064500  1
  O  O31  1  0.71741200  0.34891800  0.80066700  1
loop_
_geom_bond_atom_site_label_1
_geom_bond_atom_site_label_2
_geom_bond_distance
_geom_bond_site_symmetry_2
Li0 O6 2.097466 1_555
Li0 O11 2.127590 1_465
Li0 O27 2.127655 1_455
Li0 O8 2.170177 1_465
Li0 O5 2.180896 1_555
Li0 O21 2.186367 1_565
Li1 O7 2.096847 1_555
Li1 O10 2.126866 1_465
Li1 O26 2.129836 1_455
Li1 O9 2.168064 1_464
Li1 O4 2.181598 1_554
Li1 O20 2.186494 1_564
Li2 O6 2.096844 1_555
Li2 O11 2.125089 1_465
Li2 O24 2.130358 1_455
Li2 O9 2.169003 1_465
Li2 O4 2.184242 1_555
Li2 O23 2.188106 1_565
Li3 O7 2.096016 1_555
Li3 O10 2.123817 1_465
Li3 O25 2.131902 1_455
Li3 O8 2.168273 1_465
Li3 O5 2.185227 1_555
Li3 O22 2.187350 1_565
Li4 O0 2.059248 1_555
Li4 O28 2.123394 1_556
Li4 O14 2.124768 1_556
Li4 O12 2.179327 1_555
Li4 O18 2.205016 1_555
Li4 O2 2.546386 1_556
Li5 O1 2.056827 1_555
Li5 O29 2.123748 1_555
Li5 O15 2.124171 1_555
Li5 O13 2.179606 1_555
Li5 O19 2.207031 1_555
Li5 O3 2.545715 1_555
Li6 O0 2.054182 1_555
Li6 O31 2.122969 1_555
Li6 O15 2.124508 1_555
Li6 O12 2.177728 1_555
Li6 O16 2.209690 1_555
Li6 O3 2.542750 1_555
Li7 O1 2.053194 1_555
Li7 O30 2.123040 1_555
Li7 O14 2.124572 1_555
Li7 O13 2.177733 1_555
Li7 O17 2.213210 1_555
Li7 O2 2.542373 1_555
Ni0 O7 2.024018 1_555
Ni0 O25 2.109261 1_555
Ni0 O26 2.111512 1_555
Ni0 O13 2.141863 1_555
Ni0 O17 2.190115 1_555
Ni0 O19 2.196940 1_555
Ni1 O17 2.101360 1_555
Ni1 O18 2.101681 1_554
Ni1 O4 2.143583 1_554
Ni1 O14 2.144483 1_455
Ni1 O26 2.165661 1_455
Ni1 O24 2.171027 1_454
Ni2 O19 2.099622 1_555
Ni2 O16 2.103434 1_555
Ni2 O5 2.143033 1_555
Ni2 O15 2.145534 1_455
Ni2 O27 2.168371 1_455
Ni2 O25 2.169284 1_455
Ni3 O22 2.083172 1_555
Ni3 O21 2.083183 1_555
Ni3 O8 2.167249 1_555
Ni3 O28 2.174596 1_555
Ni3 O30 2.174723 1_555
Ni3 O2 2.351640 1_555
Ni4 O20 2.082089 1_555
Ni4 O23 2.083818 1_555
Ni4 O9 2.167730 1_555
Ni4 O29 2.174211 1_555
Ni4 O31 2.175318 1_555
Ni4 O3 2.352343 1_555
Ni5 O6 2.024501 1_555
Ni5 O24 2.109002 1_555
Ni5 O27 2.111669 1_555
Ni5 O12 2.140565 1_555
Ni5 O16 2.193290 1_555
Ni5 O18 2.200027 1_555
O0 P0 1.552808 1_555
O0 Sn0 2.354549 1_455
O1 P1 1.552613 1_555
O1 Sn1 2.357668 1_455
O2 P6 1.528953 1_455
O3 P7 1.528875 1_455
O4 P4 1.540496 1_555
O5 P5 1.540397 1_555
O6 P3 1.557112 1_565
O7 P2 1.557175 1_565
O8 P5 1.558835 1_545
O9 P4 1.558871 1_545
O10 P2 1.530468 1_555
O10 Sn0 2.537696 1_554
O11 P3 1.530816 1_555
O11 Sn1 2.536705 1_555
O12 P0 1.542602 1_655
O13 P1 1.542272 1_655
O14 P6 1.560295 1_555
O15 P7 1.560333 1_555
O16 P0 1.572418 1_555
O17 P1 1.572524 1_555
O18 P0 1.572226 1_555
O19 P1 1.572743 1_555
O20 P2 1.576335 1_556
O20 Sn0 2.514793 1_455
O21 P3 1.576200 1_555
O21 Sn1 2.514244 1_455
O22 P2 1.575822 1_555
O22 Sn0 2.512874 1_454
O23 P3 1.575842 1_555
O23 Sn1 2.511973 1_455
O24 P4 1.582867 1_555
O25 P5 1.583496 1_555
O26 P4 1.584501 1_554
O27 P5 1.583265 1_555
O28 P6 1.579401 1_555
O28 Sn0 2.368036 1_554
O29 P7 1.579600 1_555
O29 Sn1 2.368493 1_555
O30 P6 1.579460 1_555
O30 Sn1 2.368153 1_555
O31 P7 1.579478 1_555
O31 Sn0 2.366972 1_555
