# generated using pymatgen
data_LiFe(PO3)3
_symmetry_space_group_name_H-M   'P 1'
_cell_length_a   5.32076900
_cell_length_b   10.69581000
_cell_length_c   12.08202900
_cell_angle_alpha   90.00000000
_cell_angle_beta   90.00000000
_cell_angle_gamma   90.00000000
_symmetry_Int_Tables_number   1
_chemical_formula_structural   LiFe(PO3)3
_chemical_formula_sum   'Li4 Fe4 P12 O36'
_cell_volume   687.58747633
_cell_formula_units_Z   4
loop_
 _symmetry_equiv_pos_site_id
 _symmetry_equiv_pos_as_xyz
  1  'x, y, z'
loop_
 _atom_site_type_symbol
 _atom_site_label
 _atom_site_symmetry_multiplicity
 _atom_site_fract_x
 _atom_site_fract_y
 _atom_site_fract_z
 _atom_site_occupancy
  Li  Li0  1  0.10364100  0.11174000  0.08198200  1
  Li  Li1  1  0.60364100  0.38826000  0.91801800  1
  Li  Li2  1  0.89635900  0.61174000  0.41801800  1
  Li  Li3  1  0.39635900  0.88826000  0.58198200  1
  Fe  Fe0  1  0.59317900  0.03138700  0.86836500  1
  Fe  Fe1  1  0.09317900  0.46861300  0.13163500  1
  Fe  Fe2  1  0.40682100  0.53138700  0.63163500  1
  Fe  Fe3  1  0.90682100  0.96861300  0.36836500  1
  P  P0  1  0.87936000  0.07382200  0.62495900  1
  P  P1  1  0.39182400  0.15140200  0.36095300  1
  P  P2  1  0.07799000  0.19364400  0.81964600  1
  P  P3  1  0.57799000  0.30635600  0.18035400  1
  P  P4  1  0.89182400  0.34859800  0.63904700  1
  P  P5  1  0.37936000  0.42617700  0.37504100  1
  P  P6  1  0.12064000  0.57382300  0.87504100  1
  P  P7  1  0.60817600  0.65140200  0.13904700  1
  P  P8  1  0.92201000  0.69364400  0.68035400  1
  P  P9  1  0.42201000  0.80635600  0.31964600  1
  P  P10  1  0.10817600  0.84859800  0.86095300  1
  P  P11  1  0.62064000  0.92617700  0.12495900  1
  O  O0  1  0.49599400  0.01019000  0.04102700  1
  O  O1  1  0.63211700  0.03701900  0.67549900  1
  O  O2  1  0.54379700  0.06095300  0.42808900  1
  O  O3  1  0.08419000  0.08831100  0.72395900  1
  O  O4  1  0.13190400  0.11674900  0.32290600  1
  O  O5  1  0.83780200  0.18685500  0.88634700  1
  O  O6  1  0.32412300  0.18819100  0.87945800  1
  O  O7  1  0.56617500  0.18113000  0.25358300  1
  O  O8  1  0.87817600  0.21527000  0.57611800  1
  O  O9  1  0.37817600  0.28473000  0.42388200  1
  O  O10  1  0.06617500  0.31887000  0.74641700  1
  O  O11  1  0.82412300  0.31180900  0.12054200  1
  O  O12  1  0.33780200  0.31314500  0.11365300  1
  O  O13  1  0.63190400  0.38325100  0.67709400  1
  O  O14  1  0.58419000  0.41168900  0.27604100  1
  O  O15  1  0.04379700  0.43904700  0.57191100  1
  O  O16  1  0.13211700  0.46298100  0.32450100  1
  O  O17  1  0.99599400  0.48981000  0.95897300  1
  O  O18  1  0.50400600  0.51019000  0.45897300  1
  O  O19  1  0.36788300  0.53701900  0.82450100  1
  O  O20  1  0.45620300  0.56095300  0.07191100  1
  O  O21  1  0.91581000  0.58831100  0.77604100  1
  O  O22  1  0.86809600  0.61674900  0.17709400  1
  O  O23  1  0.16219800  0.68685500  0.61365300  1
  O  O24  1  0.67587700  0.68819100  0.62054200  1
  O  O25  1  0.43382500  0.68113000  0.24641700  1
  O  O26  1  0.12182400  0.71527000  0.92388200  1
  O  O27  1  0.62182400  0.78473000  0.07611800  1
  O  O28  1  0.93382500  0.81887000  0.75358300  1
  O  O29  1  0.17587700  0.81180900  0.37945800  1
  O  O30  1  0.66219800  0.81314500  0.38634700  1
  O  O31  1  0.36809600  0.88325100  0.82290600  1
  O  O32  1  0.41581000  0.91168900  0.22395900  1
  O  O33  1  0.95620300  0.93904700  0.92808900  1
  O  O34  1  0.86788300  0.96298100  0.17549900  1
  O  O35  1  0.00400600  0.98981000  0.54102700  1
loop_
_geom_bond_atom_site_label_1
_geom_bond_atom_site_label_2
_geom_bond_distance
_geom_bond_site_symmetry_2
Li0 O34 2.319863 1_445
Li0 O0 2.404734 1_555
Li0 O12 2.517789 1_555
Li1 O19 2.319863 1_555
Li1 O17 2.404734 1_555
Li1 O5 2.517789 1_555
Li2 O16 2.319863 1_655
Li2 O18 2.404734 1_555
Li2 O30 2.517789 1_555
Li3 O1 2.319863 1_565
Li3 O35 2.404734 1_555
Li3 O23 2.517789 1_555
Fe0 O31 2.060673 1_545
Fe0 O5 2.122830 1_555
Fe0 O0 2.161166 1_556
Fe0 O6 2.209121 1_555
Fe0 O33 2.286284 1_545
Fe0 O1 2.340180 1_555
Fe1 O22 2.060673 1_455
Fe1 O12 2.122830 1_555
Fe1 O17 2.161166 1_454
Fe1 O11 2.209121 1_455
Fe1 O20 2.286284 1_555
Fe1 O16 2.340180 1_555
Fe2 O13 2.060673 1_555
Fe2 O23 2.122830 1_555
Fe2 O18 2.161166 1_555
Fe2 O24 2.209121 1_555
Fe2 O15 2.286284 1_555
Fe2 O19 2.340180 1_555
Fe3 O4 2.060673 1_665
Fe3 O30 2.122830 1_555
Fe3 O35 2.161166 1_655
Fe3 O29 2.209121 1_655
Fe3 O2 2.286284 1_565
Fe3 O34 2.340180 1_555
O0 P11 1.508524 1_545
O1 P0 1.502802 1_555
O2 P1 1.499238 1_555
O3 P2 1.614595 1_555
O3 P0 1.625577 1_455
O4 P1 1.503763 1_555
O5 P2 1.512602 1_655
O6 P2 1.496904 1_555
O7 P3 1.606461 1_555
O7 P1 1.626206 1_555
O8 P4 1.617704 1_555
O8 P0 1.623923 1_555
O9 P1 1.617704 1_555
O9 P5 1.623913 1_555
O10 P2 1.606461 1_555
O10 P4 1.626206 1_455
O11 P3 1.496904 1_555
O12 P3 1.512602 1_555
O13 P4 1.503763 1_555
O14 P3 1.614595 1_555
O14 P5 1.625576 1_555
O15 P4 1.499238 1_455
O16 P5 1.502805 1_555
O17 P6 1.508524 1_655
O18 P5 1.508524 1_555
O19 P6 1.502805 1_555
O20 P7 1.499238 1_555
O21 P8 1.614595 1_555
O21 P6 1.625576 1_655
O22 P7 1.503763 1_555
O23 P8 1.512602 1_455
O24 P8 1.496904 1_555
O25 P9 1.606461 1_555
O25 P7 1.626206 1_555
O26 P10 1.617704 1_555
O26 P6 1.623913 1_555
O27 P7 1.617704 1_555
O27 P11 1.623913 1_555
O28 P8 1.606461 1_555
O28 P10 1.626206 1_655
O29 P9 1.496904 1_555
O30 P9 1.512602 1_555
O31 P10 1.503763 1_555
O32 P9 1.614595 1_555
O32 P11 1.625576 1_555
O33 P10 1.499238 1_655
O34 P11 1.502805 1_555
O35 P0 1.508518 1_465
