# generated using pymatgen
data_Li3V2H4(OF5)2
_symmetry_space_group_name_H-M   'P 1'
_cell_length_a   9.53570359
_cell_length_b   6.43554996
_cell_length_c   7.84452620
_cell_angle_alpha   89.99999945
_cell_angle_beta   94.40765816
_cell_angle_gamma   90.00000144
_symmetry_Int_Tables_number   1
_chemical_formula_structural   Li3V2H4(OF5)2
_chemical_formula_sum   'Li6 V4 H8 O4 F20'
_cell_volume   479.97519409
_cell_formula_units_Z   2
loop_
 _symmetry_equiv_pos_site_id
 _symmetry_equiv_pos_as_xyz
  1  'x, y, z'
loop_
 _atom_site_type_symbol
 _atom_site_label
 _atom_site_symmetry_multiplicity
 _atom_site_fract_x
 _atom_site_fract_y
 _atom_site_fract_z
 _atom_site_occupancy
  Li  Li0  1  0.22310299  0.52289949  0.50605669  1
  Li  Li1  1  0.22931090  0.51653296  0.99767190  1
  Li  Li2  1  0.27086230  0.97256839  0.49733892  1
  Li  Li3  1  0.72931090  0.98346704  0.49767190  1
  Li  Li4  1  0.77086230  0.52743161  0.99733892  1
  Li  Li5  1  0.72310299  0.97710051  0.00605669  1
  V  V0  1  0.99716027  0.23145148  0.25115796  1
  V  V1  1  0.99785357  0.76976985  0.74827271  1
  V  V2  1  0.49716027  0.26854852  0.75115796  1
  V  V3  1  0.49785357  0.73023015  0.24827271  1
  H  H0  1  0.03254186  0.17687218  0.66947844  1
  H  H1  1  0.04439232  0.83615932  0.14489508  1
  H  H2  1  0.46901333  0.32531689  0.34931825  1
  H  H3  1  0.53254186  0.32312782  0.16947844  1
  H  H4  1  0.47324279  0.66113521  0.83655450  1
  H  H5  1  0.54439232  0.66384068  0.64489508  1
  H  H6  1  0.96901333  0.17468311  0.84931825  1
  H  H7  1  0.97324279  0.83886479  0.33655450  1
  O  O0  1  0.00376691  0.08482321  0.76033888  1
  O  O1  1  0.01440498  0.92168231  0.24502860  1
  O  O2  1  0.50376691  0.41517679  0.26033888  1
  O  O3  1  0.51440498  0.57831769  0.74502860  1
  F  F0  1  0.01080187  0.47646185  0.74431628  1
  F  F1  1  0.11464463  0.23062546  0.46119295  1
  F  F2  1  0.98224739  0.51530942  0.26220822  1
  F  F3  1  0.15648860  0.25883290  0.13481528  1
  F  F4  1  0.33439372  0.31307057  0.85637774  1
  F  F5  1  0.09816368  0.74514037  0.98195128  1
  F  F6  1  0.38144812  0.26613256  0.53698618  1
  F  F7  1  0.17775064  0.77212150  0.63092200  1
  F  F8  1  0.51080187  0.02353815  0.24431628  1
  F  F9  1  0.31893279  0.72430181  0.36661079  1
  F  F10  1  0.61464463  0.26937454  0.96119295  1
  F  F11  1  0.39593036  0.69043032  0.02257634  1
  F  F12  1  0.65648860  0.24116710  0.63481528  1
  F  F13  1  0.48224739  0.98469058  0.76220822  1
  F  F14  1  0.83439372  0.18692943  0.35637774  1
  F  F15  1  0.59816368  0.75485963  0.48195128  1
  F  F16  1  0.88144812  0.23386744  0.03698618  1
  F  F17  1  0.67775064  0.72787850  0.13092200  1
  F  F18  1  0.81893279  0.77569819  0.86661079  1
  F  F19  1  0.89593036  0.80956968  0.52257634  1
loop_
_geom_bond_atom_site_label_1
_geom_bond_atom_site_label_2
_geom_bond_distance
_geom_bond_site_symmetry_2
H0 O0 0.981984 1_555
H1 O1 1.017953 1_555
H2 O2 0.983369 1_555
H3 O2 0.981985 1_555
H4 O3 0.998467 1_555
H5 O3 1.017953 1_555
H6 O0 0.983369 1_655
H7 O1 0.998467 1_655
O0 V1 2.030331 1_445
O1 V0 2.001187 1_465
O2 V3 2.030331 1_555
O3 V2 2.001187 1_555
F0 V1 1.892042 1_455
F1 V0 1.919908 1_455
F1 Li0 2.162288 1_555
F1 Li2 2.234407 1_545
F2 V0 1.834874 1_555
F3 V0 1.839948 1_455
F3 Li1 2.122466 1_554
F4 V2 1.835561 1_555
F4 Li1 2.029241 1_555
F5 H1 1.529901 1_556
F5 Li1 1.928712 1_555
F5 V1 2.007687 1_455
F6 V2 1.937897 1_555
F6 Li2 2.174298 1_545
F6 Li0 2.238973 1_555
F7 Li2 1.921848 1_555
F7 Li0 1.945253 1_555
F7 V1 2.008268 1_455
F8 V3 1.892042 1_545
F9 Li0 1.966020 1_555
F9 Li2 1.971489 1_555
F9 V3 2.004382 1_555
F10 V2 1.919908 1_555
F10 Li5 2.162288 1_546
F10 Li4 2.234407 1_555
F11 Li1 1.940951 1_554
F11 V3 1.969855 1_555
F12 V2 1.839948 1_555
F12 Li3 2.122466 1_545
F13 V2 1.834874 1_565
F14 V0 1.835561 1_555
F14 Li3 2.029241 1_545
F15 H5 1.529901 1_555
F15 Li3 1.928711 1_555
F15 V3 2.007687 1_555
F16 V0 1.937897 1_555
F16 Li4 2.174298 1_554
F16 Li5 2.238973 1_545
F17 Li4 1.921848 1_554
F17 Li5 1.945253 1_555
F17 V3 2.008268 1_555
F18 Li5 1.966020 1_556
F18 Li4 1.971489 1_555
F18 V1 2.004382 1_555
F19 Li3 1.940951 1_555
F19 V1 1.969855 1_555
