# generated using pymatgen
data_Li9V3P8O29
_symmetry_space_group_name_H-M   'P 1'
_cell_length_a   9.84333800
_cell_length_b   9.86166737
_cell_length_c   13.71233410
_cell_angle_alpha   90.03875539
_cell_angle_beta   90.21991036
_cell_angle_gamma   119.87754896
_symmetry_Int_Tables_number   1
_chemical_formula_structural   Li9V3P8O29
_chemical_formula_sum   'Li18 V6 P16 O58'
_cell_volume   1154.15512798
_cell_formula_units_Z   2
loop_
 _symmetry_equiv_pos_site_id
 _symmetry_equiv_pos_as_xyz
  1  'x, y, z'
loop_
 _atom_site_type_symbol
 _atom_site_label
 _atom_site_symmetry_multiplicity
 _atom_site_fract_x
 _atom_site_fract_y
 _atom_site_fract_z
 _atom_site_occupancy
  Li  Li0  1  0.75902700  0.09636400  0.07214900  1
  Li  Li1  1  0.89780300  0.23824700  0.56229400  1
  Li  Li2  1  0.34057700  0.10032700  0.56164400  1
  Li  Li3  1  0.65814500  0.31721900  0.37720100  1
  Li  Li4  1  0.66758900  0.33444900  0.88201300  1
  Li  Li5  1  0.33165900  0.23068600  0.06653400  1
  Li  Li6  1  0.90092200  0.66699200  0.06482000  1
  Li  Li7  1  0.23742600  0.34025100  0.43228100  1
  Li  Li8  1  0.76130100  0.65951600  0.56355300  1
  Li  Li9  1  0.09898900  0.33314100  0.93823800  1
  Li  Li10  1  0.66804200  0.76585000  0.93943900  1
  Li  Li11  1  0.33243300  0.66637300  0.61830600  1
  Li  Li12  1  0.34730400  0.68464200  0.12261300  1
  Li  Li13  1  0.65576500  0.90247900  0.42539500  1
  Li  Li14  1  0.10533700  0.76416100  0.43308400  1
  Li  Li15  1  0.56559200  0.99873900  0.24865200  1
  Li  Li16  1  0.23534300  0.90243700  0.93986300  1
  Li  Li17  1  0.99914900  0.99674300  0.00547900  1
  V  V0  1  0.43631300  0.43611300  0.24832900  1
  V  V1  1  0.56483200  0.56437800  0.75075500  1
  V  V2  1  0.99907600  0.43481600  0.75048300  1
  V  V3  1  0.00158800  0.56465200  0.24995300  1
  V  V4  1  0.43625600  0.00070100  0.75079600  1
  V  V5  1  0.00127200  0.00279400  0.49592900  1
  P  P0  1  0.77525600  0.08970300  0.84588000  1
  P  P1  1  0.90994800  0.22129300  0.34452300  1
  P  P2  1  0.31464800  0.09214300  0.34477300  1
  P  P3  1  0.67149500  0.33437900  0.12493400  1
  P  P4  1  0.66657900  0.33354800  0.62335000  1
  P  P5  1  0.31593900  0.22610900  0.84546100  1
  P  P6  1  0.22153600  0.31136300  0.65514500  1
  P  P7  1  0.91057700  0.68461200  0.84516500  1
  P  P8  1  0.08783200  0.31461300  0.15562100  1
  P  P9  1  0.77878100  0.68819900  0.34349000  1
  P  P10  1  0.68440300  0.77500700  0.15379400  1
  P  P11  1  0.33265600  0.66183900  0.37566500  1
  P  P12  1  0.33338400  0.66639800  0.87583300  1
  P  P13  1  0.68893600  0.91050300  0.65470700  1
  P  P14  1  0.08946700  0.77775100  0.65535300  1
  P  P15  1  0.22711200  0.90736900  0.15549200  1
  O  O0  1  0.78888500  0.00304100  0.56648200  1
  O  O1  1  0.75001200  0.08074600  0.34877300  1
  O  O2  1  0.99387600  0.22712400  0.06577700  1
  O  O3  1  0.92368400  0.25051700  0.84546400  1
  O  O4  1  0.62991900  0.10987000  0.83463300  1
  O  O5  1  0.68217900  0.19511700  0.16004500  1
  O  O6  1  0.47422600  0.10796200  0.34595300  1
  O  O7  1  0.21884000  0.99991200  0.06754300  1
  O  O8  1  0.32759700  0.07702500  0.84574300  1
  O  O9  1  0.80988400  0.32274900  0.66327600  1
  O  O10  1  0.90304200  0.37501200  0.33610200  1
  O  O11  1  0.51320300  0.18983500  0.66229100  1
  O  O12  1  0.67702300  0.35571700  0.01525100  1
  O  O13  1  0.66841900  0.33603500  0.51336000  1
  O  O14  1  0.52082900  0.33270800  0.16471600  1
  O  O15  1  0.89071200  0.52014900  0.83343900  1
  O  O16  1  0.81930500  0.48931200  0.17036500  1
  O  O17  1  0.32239300  0.25192800  0.34234700  1
  O  O18  1  0.21211100  0.21204500  0.75002700  1
  O  O19  1  0.21532200  0.21181200  0.56651700  1
  O  O20  1  0.22633900  0.23078600  0.93404000  1
  O  O21  1  0.48027000  0.37059100  0.83385500  1
  O  O22  1  0.67647500  0.48675100  0.66357100  1
  O  O23  1  0.25050300  0.33099400  0.15312100  1
  O  O24  1  0.63073300  0.52753600  0.34007800  1
  O  O25  1  0.92573900  0.67072500  0.34466800  1
  O  O26  1  0.00163400  0.21095300  0.25004700  1
  O  O27  1  0.00907900  0.22250300  0.43404900  1
  O  O28  1  0.99674300  0.78424300  0.56611500  1
  O  O29  1  0.07432200  0.32626200  0.65470200  1
  O  O30  1  0.36919400  0.47304500  0.66104800  1
  O  O31  1  0.75014200  0.67382300  0.84502100  1
  O  O32  1  0.31994900  0.50747500  0.33650900  1
  O  O33  1  0.52087400  0.62711700  0.16701800  1
  O  O34  1  0.77281400  0.76192900  0.06584600  1
  O  O35  1  0.78965800  0.78952800  0.43292500  1
  O  O36  1  0.78954000  0.78710200  0.24963400  1
  O  O37  1  0.67261700  0.74783500  0.65452100  1
  O  O38  1  0.18921400  0.51378200  0.83494100  1
  O  O39  1  0.10464800  0.47896700  0.16767600  1
  O  O40  1  0.48653200  0.67516700  0.83586000  1
  O  O41  1  0.33229000  0.66429200  0.98555800  1
  O  O42  1  0.30943500  0.65357200  0.48545000  1
  O  O43  1  0.48092000  0.80251400  0.34084900  1
  O  O44  1  0.10349900  0.63013000  0.66180900  1
  O  O45  1  0.18187900  0.66548200  0.33114000  1
  O  O46  1  0.67268700  0.92014300  0.15153100  1
  O  O47  1  0.78815800  0.00051600  0.74992800  1
  O  O48  1  0.77172800  0.99508800  0.93381000  1
  O  O49  1  0.52653900  0.89614200  0.66033500  1
  O  O50  1  0.32539200  0.81145500  0.83605400  1
  O  O51  1  0.36805600  0.88667600  0.16118800  1
  O  O52  1  0.07249400  0.74692300  0.15843000  1
  O  O53  1  0.00571400  0.77456400  0.93372800  1
  O  O54  1  0.99949200  0.78771800  0.74989000  1
  O  O55  1  0.25157600  0.92471000  0.65495000  1
  O  O56  1  0.20722500  0.99887300  0.43272000  1
  O  O57  1  0.21414300  0.99887400  0.25028900  1
loop_
_geom_bond_atom_site_label_1
_geom_bond_atom_site_label_2
_geom_bond_distance
_geom_bond_site_symmetry_2
Li0 O46 1.861559 1_545
Li0 O5 1.926819 1_555
Li0 O2 2.011518 1_555
Li0 O48 2.176054 1_544
Li1 O29 1.963947 1_655
Li1 O0 2.013948 1_555
Li1 O9 2.021614 1_555
Li1 O27 2.121357 1_655
Li2 O55 1.975815 1_545
Li2 O11 2.014247 1_555
Li2 O19 2.020976 1_555
Li2 O56 2.126185 1_545
Li3 O13 1.873486 1_555
Li3 O6 1.997587 1_555
Li3 O10 2.257322 1_555
Li3 O24 2.278522 1_555
Li4 O12 1.835574 1_556
Li4 O21 2.146763 1_555
Li4 O15 2.150972 1_555
Li4 O4 2.154674 1_555
Li5 O23 1.954321 1_555
Li5 O7 1.973568 1_545
Li5 O20 2.088560 1_554
Li5 O14 2.098689 1_555
Li6 O34 1.908726 1_555
Li6 O52 1.943418 1_655
Li6 O53 2.085011 1_654
Li6 O16 2.102416 1_555
Li7 O17 1.926447 1_555
Li7 O32 1.944362 1_555
Li7 O27 1.949670 1_555
Li7 O19 2.184369 1_555
Li8 O37 1.959842 1_555
Li8 O28 2.011073 1_555
Li8 O22 2.018797 1_555
Li8 O35 2.140239 1_555
Li9 O3 1.959810 1_455
Li9 O20 1.963334 1_555
Li9 O2 2.039788 1_456
Li9 O38 2.098891 1_555
Li10 O48 1.964778 1_555
Li10 O31 1.972329 1_555
Li10 O34 2.023768 1_556
Li10 O40 2.096695 1_555
Li11 O42 1.831411 1_555
Li11 O44 2.184011 1_555
Li11 O49 2.189410 1_555
Li11 O30 2.190099 1_555
Li12 O41 1.887289 1_554
Li12 O51 1.970638 1_555
Li12 O33 2.137684 1_555
Li12 O39 2.321046 1_555
Li13 O1 1.854789 1_565
Li13 O43 1.889625 1_555
Li13 O35 2.109532 1_555
Li13 O0 2.264193 1_565
Li14 O25 1.950210 1_455
Li14 O56 2.012642 1_555
Li14 O45 2.050725 1_555
Li14 O28 2.175958 1_455
Li15 O51 2.068791 1_555
Li15 O46 2.075823 1_555
Li15 O5 2.084075 1_565
Li15 O1 2.085889 1_565
Li15 O43 2.107634 1_555
Li15 O6 2.172913 1_565
Li16 O53 1.965943 1_555
Li16 O8 1.977106 1_565
Li16 O7 2.042344 1_556
Li16 O50 2.101727 1_555
Li17 O7 2.306541 1_655
Li17 O34 2.426480 1_555
Li17 O53 2.431367 1_654
Li17 O48 2.433927 1_554
Li17 O2 2.441992 1_565
Li17 O20 2.482996 1_664
O0 P13 1.542855 1_545
O0 V5 2.308062 1_655
O1 P1 1.493241 1_555
O2 P8 1.520630 1_655
O3 P0 1.530136 1_555
O3 V2 2.053565 1_555
O4 P0 1.546535 1_555
O4 V4 2.012805 1_555
O5 P3 1.507768 1_555
O6 P2 1.499204 1_555
O7 P15 1.539056 1_555
O8 P5 1.530625 1_555
O8 V4 2.053531 1_555
O9 P4 1.563548 1_555
O9 V2 2.012476 1_555
O10 P1 1.555259 1_555
O10 V3 2.009564 1_655
O11 P4 1.564763 1_555
O11 V4 2.031760 1_555
O12 P3 1.516224 1_555
O13 P4 1.508467 1_555
O14 P3 1.574540 1_555
O14 V0 1.974195 1_555
O15 P7 1.542084 1_555
O15 V2 2.010524 1_555
O16 P3 1.617529 1_555
O16 V3 1.902144 1_655
O17 P2 1.539578 1_555
O17 V0 2.050294 1_555
O18 P6 1.603987 1_555
O18 P5 1.620033 1_555
O19 P6 1.543531 1_555
O19 V5 2.297764 1_555
O20 P5 1.517885 1_555
O21 P5 1.542094 1_555
O21 V1 2.017141 1_555
O22 P4 1.564650 1_555
O22 V1 2.017405 1_555
O23 P8 1.527715 1_555
O23 V0 2.053066 1_555
O24 P9 1.528139 1_555
O24 V0 2.078229 1_555
O25 P9 1.539695 1_555
O25 V3 2.030308 1_655
O26 P8 1.608574 1_555
O26 P1 1.613588 1_455
O27 P1 1.561570 1_455
O27 V5 2.292938 1_555
O28 P14 1.544099 1_655
O28 V5 2.341123 1_665
O29 P6 1.527582 1_555
O29 V2 2.053076 1_455
O30 P6 1.533426 1_555
O30 V1 2.070040 1_555
O31 P7 1.528993 1_555
O31 V1 2.044881 1_555
O32 P11 1.558833 1_555
O32 V0 2.020360 1_555
O33 P10 1.553917 1_555
O33 V0 1.982904 1_555
O34 P10 1.532326 1_555
O35 P9 1.550715 1_555
O35 V5 2.264419 1_665
O36 P9 1.587036 1_555
O36 P10 1.636675 1_555
O37 P13 1.530509 1_555
O37 V1 2.059550 1_555
O38 P12 1.567894 1_555
O38 V2 1.995140 1_455
O39 P8 1.553663 1_555
O39 V3 1.969144 1_555
O40 P12 1.567470 1_555
O40 V1 1.998430 1_555
O41 P12 1.504749 1_555
O42 P11 1.519667 1_555
O43 P11 1.507147 1_555
O44 P14 1.531877 1_555
O44 V2 2.070081 1_455
O45 P11 1.619551 1_555
O45 V3 1.898093 1_555
O46 P10 1.492420 1_555
O47 P13 1.603623 1_545
O47 P0 1.622296 1_555
O48 P0 1.514974 1_565
O49 P13 1.535160 1_555
O49 V4 2.076376 1_565
O50 P12 1.569364 1_555
O50 V4 2.006068 1_565
O51 P15 1.501255 1_555
O52 P15 1.556559 1_555
O52 V3 2.013205 1_555
O53 P7 1.516848 1_455
O54 P14 1.603081 1_655
O54 P7 1.621921 1_555
O55 P14 1.530586 1_555
O55 V4 2.053441 1_565
O56 P2 1.568680 1_565
O56 V5 2.225777 1_565
O57 P2 1.607878 1_565
O57 P15 1.623199 1_555
