# generated using pymatgen
data_Li4V3Cr2Co(PO4)6
_symmetry_space_group_name_H-M   'P 1'
_cell_length_a   8.47614035
_cell_length_b   8.91778967
_cell_length_c   9.00097516
_cell_angle_alpha   59.80267102
_cell_angle_beta   60.22239728
_cell_angle_gamma   58.56113408
_symmetry_Int_Tables_number   1
_chemical_formula_structural   Li4V3Cr2Co(PO4)6
_chemical_formula_sum   'Li4 V3 Cr2 Co1 P6 O24'
_cell_volume   475.72071681
_cell_formula_units_Z   1
loop_
 _symmetry_equiv_pos_site_id
 _symmetry_equiv_pos_as_xyz
  1  'x, y, z'
loop_
 _atom_site_type_symbol
 _atom_site_label
 _atom_site_symmetry_multiplicity
 _atom_site_fract_x
 _atom_site_fract_y
 _atom_site_fract_z
 _atom_site_occupancy
  Li  Li0  1  0.24750000  0.85959400  0.64332500  1
  Li  Li1  1  0.74647800  0.15197300  0.33809800  1
  Li  Li2  1  0.73219500  0.76821600  0.15216800  1
  Li  Li3  1  0.73254200  0.34737700  0.77278200  1
  V  V0  1  0.06856600  0.64368000  0.64604500  1
  V  V1  1  0.43615900  0.85380100  0.85526300  1
  V  V2  1  0.94415200  0.35172500  0.34952600  1
  Cr  Cr0  1  0.00271300  0.99587600  0.00598700  1
  Cr  Cr1  1  0.50020600  0.49672200  0.49695500  1
  Co  Co0  1  0.54308400  0.15168600  0.15452600  1
  P  P0  1  0.26393300  0.25347600  0.54889600  1
  P  P1  1  0.25110400  0.94309600  0.24522500  1
  P  P2  1  0.24239700  0.55976800  0.95000300  1
  P  P3  1  0.76046400  0.45158300  0.03599400  1
  P  P4  1  0.76413200  0.04010300  0.74858200  1
  P  P5  1  0.72655800  0.75067100  0.46492500  1
  O  O0  1  0.06244800  0.09766400  0.30349100  1
  O  O1  1  0.05582000  0.53780800  0.10061900  1
  O  O2  1  0.07701400  0.31228400  0.51605700  1
  O  O3  1  0.25273800  0.09047400  0.73492700  1
  O  O4  1  0.45352400  0.19965000  0.39561800  1
  O  O5  1  0.27117200  0.41249400  0.57502600  1
  O  O6  1  0.23560300  0.92124100  0.09098300  1
  O  O7  1  0.26964800  0.75425400  0.41077300  1
  O  O8  1  0.57479600  0.60526000  0.99195700  1
  O  O9  1  0.26193300  0.58802500  0.75507500  1
  O  O10  1  0.78257200  0.25667800  0.05237900  1
  O  O11  1  0.59774600  0.97852500  0.81434900  1
  O  O12  1  0.44036200  0.97338500  0.18404900  1
  O  O13  1  0.22450500  0.76021200  0.92030600  1
  O  O14  1  0.73552000  0.42915500  0.22880300  1
  O  O15  1  0.43313400  0.40040600  0.98021700  1
  O  O16  1  0.72678400  0.23877000  0.60124000  1
  O  O17  1  0.78214800  0.05925800  0.90413100  1
  O  O18  1  0.71621800  0.59617000  0.43386100  1
  O  O19  1  0.53265200  0.81034000  0.61183200  1
  O  O20  1  0.75173400  0.90590800  0.27456600  1
  O  O21  1  0.89852700  0.68378100  0.52426700  1
  O  O22  1  0.94062100  0.49504800  0.88898400  1
  O  O23  1  0.96059700  0.89686300  0.67518700  1
loop_
_geom_bond_atom_site_label_1
_geom_bond_atom_site_label_2
_geom_bond_distance
_geom_bond_site_symmetry_2
Li0 O9 2.062636 1_555
Li0 O19 2.110064 1_555
Li0 O13 2.124577 1_555
Li0 O23 2.160215 1_455
Li0 O7 2.589009 1_555
Li0 O3 2.600089 1_565
Li1 O4 2.111363 1_555
Li1 O14 2.119319 1_555
Li1 O10 2.163379 1_555
Li1 O0 2.339744 1_655
Li1 O20 2.505839 1_545
Li2 O20 2.122064 1_555
Li2 O12 2.156525 1_555
Li2 O18 2.182543 1_555
Li2 O1 2.403526 1_655
Li2 O17 2.505677 1_564
Li3 O17 2.118314 1_555
Li3 O16 2.225545 1_555
Li3 O15 2.253898 1_555
Li3 O10 2.412901 1_556
Cr0 O6 2.131249 1_555
Cr0 O13 2.148154 1_554
Cr0 O17 2.175781 1_464
Cr0 O10 2.177442 1_465
Cr0 O20 2.394708 1_455
Cr0 O3 2.411281 1_564
Cr1 O5 2.112319 1_555
Cr1 O18 2.148450 1_555
Cr1 O7 2.174147 1_555
Cr1 O16 2.207020 1_555
Cr1 O14 2.365268 1_555
Cr1 O9 2.380462 1_555
Co0 O15 2.011239 1_554
Co0 O12 2.036250 1_545
Co0 O4 2.104081 1_555
Co0 O20 2.138040 1_545
Co0 O10 2.259539 1_555
Co0 O17 2.335653 1_554
O0 P1 1.525441 1_545
O0 V2 2.114752 1_455
O1 P2 1.517799 1_554
O1 V2 2.112176 1_455
O2 P0 1.521520 1_555
O2 V2 2.090906 1_455
O3 P0 1.569511 1_555
O3 V1 1.998704 1_545
O4 P0 1.541308 1_555
O5 P0 1.584512 1_555
O5 V0 2.037214 1_555
O6 P1 1.569330 1_555
O6 V1 2.094700 1_554
O7 P1 1.585332 1_555
O7 V0 2.104615 1_555
O8 P3 1.528142 1_556
O8 V1 1.945014 1_555
O9 P2 1.574651 1_555
O9 V0 2.038346 1_555
O10 P3 1.583586 1_555
O11 P4 1.514135 1_565
O11 V1 1.981103 1_555
O12 P1 1.540961 1_555
O13 P2 1.602026 1_555
O13 V1 2.070015 1_555
O14 P3 1.557895 1_555
O14 V2 2.159819 1_555
O15 P2 1.535748 1_555
O16 P4 1.570417 1_555
O16 V2 2.244207 1_555
O17 P4 1.578899 1_555
O18 P5 1.588101 1_555
O18 V2 2.208019 1_555
O19 P5 1.539408 1_555
O19 V1 2.088953 1_555
O20 P5 1.567379 1_555
O21 P5 1.520395 1_555
O21 V0 2.010926 1_655
O22 P3 1.525614 1_556
O22 V0 1.985689 1_655
O23 P4 1.542208 1_565
O23 V0 2.050847 1_655
