# generated using pymatgen
data_Li3V4O11F
_symmetry_space_group_name_H-M   'P 1'
_cell_length_a   5.16222000
_cell_length_b   5.21776132
_cell_length_c   8.34440649
_cell_angle_alpha   93.00948520
_cell_angle_beta   96.09630831
_cell_angle_gamma   100.94972353
_symmetry_Int_Tables_number   1
_chemical_formula_structural   Li3V4O11F
_chemical_formula_sum   'Li3 V4 O11 F1'
_cell_volume   218.80989053
_cell_formula_units_Z   1
loop_
 _symmetry_equiv_pos_site_id
 _symmetry_equiv_pos_as_xyz
  1  'x, y, z'
loop_
 _atom_site_type_symbol
 _atom_site_label
 _atom_site_symmetry_multiplicity
 _atom_site_fract_x
 _atom_site_fract_y
 _atom_site_fract_z
 _atom_site_occupancy
  Li  Li0  1  0.13822300  0.62229400  0.86236100  1
  Li  Li1  1  0.58853500  0.31597400  0.78758000  1
  Li  Li2  1  0.64745700  0.08544300  0.37380800  1
  V  V0  1  0.73700400  0.90465800  0.97717900  1
  V  V1  1  0.82792800  0.69195600  0.55663500  1
  V  V2  1  0.26903800  0.40930500  0.45176800  1
  V  V3  1  0.30249800  0.18374100  0.03823000  1
  O  O0  1  0.97348800  0.98445200  0.51012300  1
  O  O1  1  0.38357300  0.98751500  0.86979800  1
  O  O2  1  0.98349100  0.76806300  0.06147400  1
  O  O3  1  0.49231000  0.70455900  0.43212200  1
  O  O4  1  0.74493200  0.72201200  0.75681200  1
  O  O5  1  0.10788900  0.52355000  0.62493400  1
  O  O6  1  0.45279800  0.48198300  0.98732800  1
  O  O7  1  0.23859700  0.25079400  0.25124600  1
  O  O8  1  0.49966800  0.26534300  0.55450200  1
  O  O9  1  0.94808200  0.20472800  0.93652600  1
  O  O10  1  0.58739800  0.02350500  0.14252500  1
  F  F0  1  0.87733600  0.46244700  0.36173200  1
loop_
_geom_bond_atom_site_label_1
_geom_bond_atom_site_label_2
_geom_bond_distance
_geom_bond_site_symmetry_2
Li0 O5 2.002836 1_555
Li0 O1 2.072059 1_555
Li0 O2 2.087346 1_456
Li0 O6 2.105367 1_555
Li0 O4 2.288664 1_455
Li0 O9 2.356183 1_455
Li1 O8 1.942517 1_555
Li1 O1 2.028821 1_545
Li1 O6 2.084820 1_555
Li1 O4 2.158144 1_555
Li1 O9 2.306874 1_555
Li2 O10 1.922111 1_555
Li2 O8 2.025917 1_555
Li2 O0 2.096993 1_545
Li2 O3 2.099398 1_545
O0 V1 1.653162 1_555
O0 V2 2.542687 1_665
O1 V3 1.826313 1_566
O1 V0 2.076448 1_555
O2 V0 1.681916 1_554
O2 V3 2.491750 1_665
O3 V2 1.766566 1_555
O3 V1 1.937424 1_555
O4 V1 1.774339 1_555
O4 V0 2.034204 1_555
O5 V2 1.867769 1_555
O5 V1 1.882992 1_455
O6 V3 1.698453 1_556
O6 V0 2.416675 1_555
O7 V2 1.804974 1_555
O7 V3 1.869167 1_555
O8 V2 1.705034 1_555
O9 V0 1.799981 1_545
O9 V3 1.958477 1_656
O10 V0 1.789699 1_544
O10 V3 1.972583 1_555
F0 V1 2.035624 1_555
F0 Li2 2.108869 1_555
F0 V2 2.154584 1_655
