# generated using pymatgen
data_Na5LiFe2P2(CO7)2
_symmetry_space_group_name_H-M   'P 1'
_cell_length_a   6.59029000
_cell_length_b   8.98746600
_cell_length_c   10.39780805
_cell_angle_alpha   88.85200271
_cell_angle_beta   90.00000000
_cell_angle_gamma   90.00000000
_symmetry_Int_Tables_number   1
_chemical_formula_structural   Na5LiFe2P2(CO7)2
_chemical_formula_sum   'Na10 Li2 Fe4 P4 C4 O28'
_cell_volume   615.73863077
_cell_formula_units_Z   2
loop_
 _symmetry_equiv_pos_site_id
 _symmetry_equiv_pos_as_xyz
  1  'x, y, z'
loop_
 _atom_site_type_symbol
 _atom_site_label
 _atom_site_symmetry_multiplicity
 _atom_site_fract_x
 _atom_site_fract_y
 _atom_site_fract_z
 _atom_site_occupancy
  Na  Na0  1  0.49680200  0.08151400  0.88019200  1
  Na  Na1  1  0.50319800  0.08151400  0.38019200  1
  Na  Na2  1  0.25133400  0.26062600  0.62485500  1
  Na  Na3  1  0.74909600  0.26063200  0.62471000  1
  Na  Na4  1  0.25090400  0.26063200  0.12471000  1
  Na  Na5  1  0.74866600  0.26062600  0.12485500  1
  Na  Na6  1  0.75209200  0.73992200  0.87535400  1
  Na  Na7  1  0.24790800  0.73992200  0.37535400  1
  Na  Na8  1  0.00048300  0.91588300  0.61979000  1
  Na  Na9  1  0.99951700  0.91588300  0.11979000  1
  Li  Li0  1  0.24618700  0.72890300  0.87735600  1
  Li  Li1  1  0.75381300  0.72890300  0.37735600  1
  Fe  Fe0  1  0.99952100  0.35637300  0.89271900  1
  Fe  Fe1  1  0.00047900  0.35637300  0.39271900  1
  Fe  Fe2  1  0.50220000  0.64697800  0.60672900  1
  Fe  Fe3  1  0.49780000  0.64697800  0.10672900  1
  P  P0  1  0.49564700  0.41716200  0.84906800  1
  P  P1  1  0.50435300  0.41716200  0.34906800  1
  P  P2  1  0.00410900  0.58890800  0.64957600  1
  P  P3  1  0.99589100  0.58890800  0.14957600  1
  C  C0  1  0.00670000  0.05469900  0.86607100  1
  C  C1  1  0.99330000  0.05469900  0.36607100  1
  C  C2  1  0.49813600  0.93982300  0.63556600  1
  C  C3  1  0.50186400  0.93982300  0.13556600  1
  O  O0  1  0.49989600  0.08355500  0.64313500  1
  O  O1  1  0.50010400  0.08355500  0.14313500  1
  O  O2  1  0.99945200  0.11972800  0.97724500  1
  O  O3  1  0.00054800  0.11972800  0.47724500  1
  O  O4  1  0.99871800  0.13741400  0.76152800  1
  O  O5  1  0.00128200  0.13741400  0.26152800  1
  O  O6  1  0.31073100  0.31814300  0.89014900  1
  O  O7  1  0.68652800  0.32667500  0.89378200  1
  O  O8  1  0.31347200  0.32667500  0.39378200  1
  O  O9  1  0.68926900  0.31814300  0.39014900  1
  O  O10  1  0.50014400  0.43432500  0.69970900  1
  O  O11  1  0.00037800  0.43344100  0.58881500  1
  O  O12  1  0.49985600  0.43432500  0.19970900  1
  O  O13  1  0.99962200  0.43344100  0.08881500  1
  O  O14  1  0.48384400  0.57286100  0.90959400  1
  O  O15  1  0.01195400  0.57287200  0.79978900  1
  O  O16  1  0.51615600  0.57286100  0.40959400  1
  O  O17  1  0.98804600  0.57287200  0.29978900  1
  O  O18  1  0.81463600  0.68265700  0.60814800  1
  O  O19  1  0.19034000  0.68189400  0.60330800  1
  O  O20  1  0.80966000  0.68189400  0.10330800  1
  O  O21  1  0.18536400  0.68265700  0.10814800  1
  O  O22  1  0.49446300  0.85613800  0.73954500  1
  O  O23  1  0.50553700  0.85613800  0.23954500  1
  O  O24  1  0.50071900  0.87775100  0.52332500  1
  O  O25  1  0.49928100  0.87775100  0.02332500  1
  O  O26  1  0.02096100  0.91112200  0.85994300  1
  O  O27  1  0.97903900  0.91112200  0.35994300  1
loop_
_geom_bond_atom_site_label_1
_geom_bond_atom_site_label_2
_geom_bond_distance
_geom_bond_site_symmetry_2
Na0 O25 2.336602 1_546
Na0 O6 2.458880 1_555
Na0 O0 2.464658 1_555
Na0 O22 2.522003 1_545
Na0 O7 2.539820 1_555
Na0 O1 2.734546 1_556
Na1 O24 2.336602 1_545
Na1 O9 2.458880 1_555
Na1 O1 2.464658 1_555
Na1 O23 2.522003 1_545
Na1 O8 2.539820 1_555
Na1 O0 2.734546 1_555
Na2 O0 2.289100 1_555
Na2 O11 2.294501 1_555
Na2 O10 2.404216 1_555
Na2 O4 2.440148 1_455
Na2 O8 2.497131 1_555
Na2 O3 2.601672 1_555
Na2 O6 2.843725 1_555
Na3 O0 2.292253 1_555
Na3 O11 2.295789 1_655
Na3 O10 2.405327 1_555
Na3 O4 2.427622 1_555
Na3 O9 2.514048 1_555
Na3 O3 2.603587 1_655
Na3 O7 2.901092 1_555
Na4 O1 2.292253 1_555
Na4 O13 2.295789 1_455
Na4 O12 2.405327 1_555
Na4 O5 2.427622 1_555
Na4 O6 2.514048 1_554
Na4 O2 2.603587 1_454
Na4 O8 2.901092 1_555
Na5 O1 2.289100 1_555
Na5 O13 2.294501 1_555
Na5 O12 2.404216 1_555
Na5 O5 2.440148 1_655
Na5 O7 2.497131 1_554
Na5 O2 2.601672 1_554
Na5 O9 2.843725 1_555
Na6 O14 2.341993 1_555
Na6 O26 2.350100 1_655
Na6 O15 2.419000 1_655
Na6 O22 2.430765 1_555
Na6 O20 2.446292 1_556
Na6 O25 2.598831 1_556
Na6 O18 2.865544 1_555
Na7 O16 2.341993 1_555
Na7 O27 2.350100 1_455
Na7 O17 2.419000 1_455
Na7 O23 2.430765 1_555
Na7 O19 2.446292 1_555
Na7 O24 2.598831 1_555
Na7 O21 2.865544 1_555
Na8 O3 2.333321 1_565
Na8 O18 2.432817 1_455
Na8 O19 2.455976 1_555
Na8 O26 2.500219 1_555
Na8 O4 2.500757 1_465
Na8 O27 2.706727 1_455
Na9 O2 2.333321 1_564
Na9 O21 2.432817 1_655
Na9 O20 2.455976 1_555
Na9 O27 2.500219 1_555
Na9 O5 2.500757 1_665
Na9 O26 2.706727 1_654
Li0 O14 2.124473 1_555
Li0 O26 2.214967 1_555
Li0 O15 2.246155 1_555
Li0 O22 2.443862 1_555
Li0 O21 2.460115 1_556
Li0 O25 2.637549 1_556
Li1 O16 2.124473 1_555
Li1 O27 2.214967 1_555
Li1 O17 2.246155 1_555
Li1 O23 2.443862 1_555
Li1 O18 2.460115 1_555
Li1 O24 2.637549 1_555
Fe0 O6 2.079805 1_655
Fe0 O7 2.079913 1_555
Fe0 O15 2.156641 1_655
Fe0 O13 2.166505 1_556
Fe0 O2 2.284947 1_555
Fe0 O4 2.416803 1_555
Fe1 O9 2.079805 1_455
Fe1 O8 2.079913 1_555
Fe1 O17 2.156641 1_455
Fe1 O11 2.166505 1_555
Fe1 O3 2.284947 1_555
Fe1 O5 2.416803 1_555
Fe2 O19 2.079263 1_555
Fe2 O18 2.083961 1_555
Fe2 O10 2.124513 1_555
Fe2 O16 2.169898 1_555
Fe2 O24 2.232002 1_555
Fe2 O22 2.355310 1_555
Fe3 O20 2.079263 1_555
Fe3 O21 2.083961 1_555
Fe3 O12 2.124513 1_555
Fe3 O14 2.169898 1_554
Fe3 O25 2.232002 1_555
Fe3 O23 2.355310 1_555
C0 O26 1.296651 1_545
C0 O4 1.305617 1_455
C0 O2 1.306594 1_455
C1 O27 1.296651 1_545
C1 O5 1.305617 1_655
C1 O3 1.306594 1_655
C2 O0 1.295806 1_565
C2 O24 1.303697 1_555
C2 O22 1.304828 1_555
C3 O1 1.295806 1_565
C3 O25 1.303697 1_555
C3 O23 1.304828 1_555
O6 P0 1.563429 1_555
O7 P0 1.563601 1_555
O8 P1 1.563601 1_555
O9 P1 1.563429 1_555
O10 P0 1.557852 1_555
O11 P2 1.545136 1_555
O12 P1 1.557852 1_555
O13 P3 1.545136 1_555
O14 P0 1.547758 1_555
O15 P2 1.566497 1_555
O16 P1 1.547758 1_555
O17 P3 1.566497 1_555
O18 P2 1.562093 1_655
O19 P2 1.555650 1_555
O20 P3 1.555650 1_555
O21 P3 1.562093 1_455
