# generated using pymatgen
data_K3(Fe11O17)2
_symmetry_space_group_name_H-M   'P 1'
_cell_length_a   5.80309426
_cell_length_b   5.80706195
_cell_length_c   23.51338410
_cell_angle_alpha   90.02521220
_cell_angle_beta   89.94117644
_cell_angle_gamma   120.02273219
_symmetry_Int_Tables_number   1
_chemical_formula_structural   K3(Fe11O17)2
_chemical_formula_sum   'K3 Fe22 O34'
_cell_volume   686.05999601
_cell_formula_units_Z   1
loop_
 _symmetry_equiv_pos_site_id
 _symmetry_equiv_pos_as_xyz
  1  'x, y, z'
loop_
 _atom_site_type_symbol
 _atom_site_label
 _atom_site_symmetry_multiplicity
 _atom_site_fract_x
 _atom_site_fract_y
 _atom_site_fract_z
 _atom_site_occupancy
  K  K0  1  0.36112900  0.68050400  0.75053900  1
  K  K1  1  0.64322800  0.40109700  0.24985100  1
  K  K2  1  0.92619300  0.08319300  0.25010900  1
  Fe  Fe0  1  0.16877600  0.83267700  0.89619600  1
  Fe  Fe1  1  0.16895300  0.83220100  0.60387100  1
  Fe  Fe2  1  0.33086700  0.67143600  0.17092800  1
  Fe  Fe3  1  0.33255400  0.66586600  0.02562000  1
  Fe  Fe4  1  0.33173400  0.67149600  0.32918500  1
  Fe  Fe5  1  0.16891200  0.33667400  0.89610700  1
  Fe  Fe6  1  0.16890300  0.33638100  0.60387900  1
  Fe  Fe7  1  0.33160500  0.66598400  0.47417800  1
  Fe  Fe8  1  0.99997800  0.99942400  0.00047500  1
  Fe  Fe9  1  0.99912600  0.00055900  0.49935000  1
  Fe  Fe10  1  0.66543300  0.83260300  0.60373700  1
  Fe  Fe11  1  0.66542300  0.83284900  0.89631400  1
  Fe  Fe12  1  0.33706500  0.16881600  0.10419400  1
  Fe  Fe13  1  0.33736200  0.16879900  0.39573000  1
  Fe  Fe14  1  0.66856900  0.33395300  0.67289400  1
  Fe  Fe15  1  0.83123700  0.66366000  0.10393500  1
  Fe  Fe16  1  0.66876800  0.33505200  0.82746700  1
  Fe  Fe17  1  0.66710700  0.33277300  0.97448700  1
  Fe  Fe18  1  0.83147700  0.66374100  0.39600500  1
  Fe  Fe19  1  0.66703000  0.33363000  0.52536500  1
  Fe  Fe20  1  0.83151800  0.16853200  0.39579700  1
  Fe  Fe21  1  0.83139700  0.16863600  0.10416100  1
  O  O0  1  0.15747200  0.84329600  0.44237500  1
  O  O1  1  0.15822200  0.84300600  0.05758100  1
  O  O2  1  0.02590800  0.51284600  0.64693700  1
  O  O3  1  0.02641800  0.51330100  0.85319700  1
  O  O4  1  0.34550700  0.64606400  0.25004300  1
  O  O5  1  0.15625800  0.31275700  0.44252800  1
  O  O6  1  0.99998700  0.99901300  0.14422600  1
  O  O7  1  0.00055400  0.99910600  0.35570700  1
  O  O8  1  0.00104200  0.00065600  0.85724500  1
  O  O9  1  0.00077700  0.00003200  0.64286400  1
  O  O10  1  0.33418700  0.66726000  0.55702700  1
  O  O11  1  0.33372900  0.66702900  0.94296200  1
  O  O12  1  0.15605400  0.31223000  0.05721700  1
  O  O13  1  0.49016000  0.97784200  0.85372700  1
  O  O14  1  0.48993600  0.97738700  0.64643600  1
  O  O15  1  0.31218500  0.15624000  0.55608700  1
  O  O16  1  0.31243900  0.15628700  0.94364300  1
  O  O17  1  0.49029300  0.51200900  0.64637100  1
  O  O18  1  0.48997100  0.51260100  0.85362300  1
  O  O19  1  0.51013500  0.49077300  0.35343700  1
  O  O20  1  0.50914400  0.49114000  0.14642400  1
  O  O21  1  0.68649700  0.84366200  0.44259500  1
  O  O22  1  0.68714000  0.84433400  0.05727700  1
  O  O23  1  0.51638500  0.03209300  0.35023400  1
  O  O24  1  0.66696600  0.33328600  0.44234500  1
  O  O25  1  0.65835300  0.32965400  0.75016600  1
  O  O26  1  0.66696400  0.33331900  0.05760500  1
  O  O27  1  0.51593100  0.03211900  0.14984300  1
  O  O28  1  0.84413300  0.68717600  0.94366800  1
  O  O29  1  0.84474000  0.68785100  0.55613000  1
  O  O30  1  0.96963800  0.48556700  0.14917000  1
  O  O31  1  0.97034600  0.48594500  0.35096100  1
  O  O32  1  0.84462800  0.15771500  0.55634500  1
  O  O33  1  0.84432900  0.15667000  0.94363100  1
loop_
_geom_bond_atom_site_label_1
_geom_bond_atom_site_label_2
_geom_bond_distance
_geom_bond_site_symmetry_2
K0 O18 2.849575 1_555
K0 O13 2.852231 1_555
K0 O14 2.869348 1_555
K0 O17 2.871676 1_555
K0 O3 2.940632 1_555
K0 O2 2.962904 1_555
K0 O25 3.262305 1_555
K0 O25 3.267863 1_565
K1 O19 2.682842 1_555
K1 O20 2.684255 1_555
K1 O4 2.732761 1_555
K1 O30 2.914609 1_555
K1 O31 2.927590 1_555
K1 O27 3.013580 1_555
K1 O23 3.021135 1_555
K2 O7 2.608428 1_645
K2 O6 2.612855 1_545
K2 O4 2.940388 1_655
K2 O4 3.039608 1_545
Fe0 O13 1.899938 1_555
Fe0 O3 1.900325 1_555
Fe0 O8 1.921086 1_565
Fe0 O16 1.975720 1_565
Fe0 O28 1.978055 1_455
Fe0 O11 1.993818 1_555
Fe1 O2 1.900826 1_555
Fe1 O14 1.900976 1_555
Fe1 O9 1.921492 1_565
Fe1 O29 1.981895 1_455
Fe1 O15 1.982152 1_565
Fe1 O10 1.991489 1_555
Fe2 O4 1.871521 1_555
Fe2 O27 1.880162 1_565
Fe2 O30 1.886415 1_455
Fe2 O20 1.892256 1_555
Fe3 O1 1.919770 1_555
Fe3 O12 1.926975 1_555
Fe3 O22 1.931507 1_555
Fe3 O11 1.943577 1_554
Fe4 O4 1.871470 1_555
Fe4 O23 1.879588 1_565
Fe4 O31 1.886352 1_455
Fe4 O19 1.894029 1_555
Fe5 O3 1.898724 1_555
Fe5 O18 1.898742 1_555
Fe5 O8 1.920822 1_555
Fe5 O33 1.978808 1_455
Fe5 O16 1.978981 1_555
Fe5 O11 1.993240 1_555
Fe6 O2 1.900530 1_555
Fe6 O17 1.901668 1_555
Fe6 O9 1.923527 1_555
Fe6 O15 1.978870 1_555
Fe6 O32 1.978986 1_455
Fe6 O10 1.995243 1_555
Fe7 O0 1.919365 1_555
Fe7 O5 1.925688 1_555
Fe7 O21 1.930967 1_555
Fe7 O10 1.948116 1_555
Fe8 O16 2.060726 1_664
Fe8 O28 2.061377 1_554
Fe8 O22 2.061720 1_555
Fe8 O12 2.062526 1_665
Fe8 O33 2.065204 1_564
Fe8 O1 2.075967 1_655
Fe9 O32 2.061049 1_555
Fe9 O5 2.061244 1_655
Fe9 O21 2.062089 1_545
Fe9 O29 2.062603 1_545
Fe9 O15 2.063468 1_655
Fe9 O0 2.075871 1_645
Fe10 O14 1.898974 1_555
Fe10 O17 1.899994 1_555
Fe10 O9 1.920491 1_665
Fe10 O29 1.978483 1_555
Fe10 O32 1.980491 1_565
Fe10 O10 1.994922 1_555
Fe11 O13 1.898913 1_555
Fe11 O18 1.899592 1_555
Fe11 O8 1.919547 1_665
Fe11 O33 1.974512 1_565
Fe11 O28 1.977875 1_555
Fe11 O11 1.994291 1_555
Fe12 O20 1.901747 1_555
Fe12 O27 1.920206 1_555
Fe12 O6 1.936887 1_445
Fe12 O1 1.973226 1_545
Fe12 O12 1.973749 1_555
Fe12 O26 1.986001 1_555
Fe13 O19 1.900980 1_555
Fe13 O23 1.917333 1_555
Fe13 O7 1.937128 1_545
Fe13 O5 1.972361 1_555
Fe13 O0 1.972435 1_545
Fe13 O24 1.986805 1_555
Fe14 O25 1.817607 1_555
Fe14 O2 1.895806 1_655
Fe14 O17 1.897548 1_555
Fe14 O14 1.897706 1_545
Fe15 O20 1.902277 1_555
Fe15 O30 1.918290 1_555
Fe15 O6 1.934127 1_555
Fe15 O22 1.970906 1_555
Fe15 O1 1.972919 1_655
Fe15 O26 1.986390 1_555
Fe16 O25 1.818410 1_555
Fe16 O18 1.893804 1_555
Fe16 O3 1.896651 1_655
Fe16 O13 1.899148 1_545
Fe17 O33 1.918365 1_555
Fe17 O28 1.923567 1_555
Fe17 O16 1.924582 1_555
Fe17 O26 1.954387 1_556
Fe18 O19 1.901772 1_555
Fe18 O31 1.914965 1_555
Fe18 O7 1.934119 1_655
Fe18 O21 1.968834 1_555
Fe18 O0 1.970827 1_655
Fe18 O24 1.986847 1_555
Fe19 O32 1.921488 1_555
Fe19 O29 1.922355 1_555
Fe19 O15 1.923070 1_555
Fe19 O24 1.952082 1_555
Fe20 O31 1.916240 1_555
Fe20 O23 1.916556 1_555
Fe20 O7 1.944703 1_645
Fe20 O5 1.970835 1_655
Fe20 O21 1.972128 1_545
Fe20 O24 1.984009 1_555
Fe21 O30 1.916605 1_555
Fe21 O27 1.917825 1_555
Fe21 O6 1.944721 1_545
Fe21 O22 1.971076 1_545
Fe21 O12 1.971723 1_655
Fe21 O26 1.984861 1_555
