# generated using pymatgen
data_Fe19Co5O32
_symmetry_space_group_name_H-M   'P 1'
_cell_length_a   8.52149176
_cell_length_b   10.44163748
_cell_length_c   8.52149176
_cell_angle_alpha   65.54513627
_cell_angle_beta   89.91678078
_cell_angle_gamma   113.63728196
_symmetry_Int_Tables_number   1
_chemical_formula_structural   Fe19Co5O32
_chemical_formula_sum   'Fe19 Co5 O32'
_cell_volume   619.42283830
_cell_formula_units_Z   1
loop_
 _symmetry_equiv_pos_site_id
 _symmetry_equiv_pos_as_xyz
  1  'x, y, z'
loop_
 _atom_site_type_symbol
 _atom_site_label
 _atom_site_symmetry_multiplicity
 _atom_site_fract_x
 _atom_site_fract_y
 _atom_site_fract_z
 _atom_site_occupancy
  Fe  Fe0  1  0.50246300  0.00404300  0.49959300  1
  Fe  Fe1  1  0.00363700  0.00404300  0.99841900  1
  Fe  Fe2  1  0.68750000  0.12500000  0.06250000  1
  Fe  Fe3  1  0.87253700  0.24595700  0.62540700  1
  Fe  Fe4  1  0.37136300  0.24595700  0.12658100  1
  Fe  Fe5  1  0.31279000  0.37488900  0.68335600  1
  Fe  Fe6  1  0.06163900  0.37670800  0.93759100  1
  Fe  Fe7  1  0.81429900  0.37670800  0.18493100  1
  Fe  Fe8  1  0.55824500  0.37488900  0.43790100  1
  Fe  Fe9  1  0.24268900  0.49093100  0.25175900  1
  Fe  Fe10  1  0.74682600  0.49873800  0.74808800  1
  Fe  Fe11  1  0.43718600  0.62500000  0.81281400  1
  Fe  Fe12  1  0.93781400  0.62500000  0.31218600  1
  Fe  Fe13  1  0.13231100  0.75906900  0.87324100  1
  Fe  Fe14  1  0.62817400  0.75126200  0.37691200  1
  Fe  Fe15  1  0.31336100  0.87329200  0.18740900  1
  Fe  Fe16  1  0.81675500  0.87511100  0.68709900  1
  Fe  Fe17  1  0.56070100  0.87329200  0.94006900  1
  Fe  Fe18  1  0.06221000  0.87511100  0.44164400  1
  Co  Co0  1  0.43767000  0.12592600  0.81174500  1
  Co  Co1  1  0.18750000  0.12500000  0.56250000  1
  Co  Co2  1  0.93733000  0.12407400  0.31325500  1
  Co  Co3  1  0.68750000  0.62500000  0.06250000  1
  Co  Co4  1  0.18750000  0.62500000  0.56250000  1
  O  O0  1  0.67475700  0.12248900  0.82187500  1
  O  O1  1  0.44436500  0.12248900  0.05226700  1
  O  O2  1  0.93687100  0.12022300  0.55227300  1
  O  O3  1  0.17249600  0.12022300  0.31664700  1
  O  O4  1  0.70024300  0.12751100  0.30312500  1
  O  O5  1  0.93063500  0.12751100  0.07273300  1
  O  O6  1  0.43812900  0.12977700  0.57272700  1
  O  O7  1  0.20250400  0.12977700  0.80835300  1
  O  O8  1  0.81552200  0.35872800  0.95679300  1
  O  O9  1  0.54074400  0.35346400  0.68728000  1
  O  O10  1  0.32241700  0.36815600  0.45426100  1
  O  O11  1  0.03844800  0.35305000  0.18539800  1
  O  O12  1  0.06720400  0.36822800  0.70073100  1
  O  O13  1  0.56895900  0.36822800  0.19897600  1
  O  O14  1  0.30931700  0.38143000  0.92962800  1
  O  O15  1  0.81105800  0.38143000  0.42788800  1
  O  O16  1  0.92394100  0.60815100  0.08269000  1
  O  O17  1  0.42360400  0.60725600  0.58469700  1
  O  O18  1  0.19084200  0.60815100  0.81579000  1
  O  O19  1  0.69195300  0.60725600  0.31634700  1
  O  O20  1  0.68304700  0.64274400  0.80865300  1
  O  O21  1  0.18415800  0.64184900  0.30921000  1
  O  O22  1  0.45105900  0.64184900  0.04231000  1
  O  O23  1  0.95139600  0.64274400  0.54030300  1
  O  O24  1  0.56394200  0.86857000  0.69711200  1
  O  O25  1  0.06568300  0.86857000  0.19537200  1
  O  O26  1  0.80604100  0.88177200  0.92602400  1
  O  O27  1  0.30779600  0.88177200  0.42426900  1
  O  O28  1  0.33655200  0.89695000  0.93960200  1
  O  O29  1  0.55947800  0.89127200  0.16820700  1
  O  O30  1  0.05258300  0.88184400  0.67073900  1
  O  O31  1  0.83425600  0.89653600  0.43772000  1
loop_
_geom_bond_atom_site_label_1
_geom_bond_atom_site_label_2
_geom_bond_distance
_geom_bond_site_symmetry_2
Fe0 O6 1.914720 1_555
Fe0 O24 1.932354 1_545
Fe0 O4 1.941112 1_555
Fe0 O27 1.943468 1_545
Fe1 O7 1.914705 1_555
Fe1 O25 1.932358 1_546
Fe1 O5 1.941132 1_456
Fe1 O26 1.943468 1_445
Fe2 O8 1.999908 1_554
Fe2 O29 1.999908 1_545
Fe2 O5 2.063930 1_555
Fe2 O1 2.063930 1_555
Fe2 O0 2.063938 1_554
Fe2 O4 2.063938 1_555
Fe3 O2 1.914720 1_555
Fe3 O15 1.932354 1_555
Fe3 O0 1.941112 1_555
Fe3 O12 1.943468 1_655
Fe4 O3 1.914705 1_555
Fe4 O14 1.932358 1_554
Fe4 O1 1.941132 1_555
Fe4 O13 1.943468 1_555
Fe5 O10 1.985113 1_555
Fe5 O17 1.989212 1_555
Fe5 O9 2.041316 1_555
Fe5 O12 2.068878 1_555
Fe5 O7 2.092692 1_555
Fe5 O14 2.128332 1_555
Fe6 O18 1.978883 1_555
Fe6 O11 2.021642 1_556
Fe6 O8 2.029396 1_455
Fe6 O12 2.057933 1_555
Fe6 O14 2.091644 1_555
Fe6 O5 2.128135 1_456
Fe7 O16 1.978883 1_555
Fe7 O11 2.021642 1_655
Fe7 O8 2.029405 1_554
Fe7 O13 2.057933 1_555
Fe7 O15 2.091653 1_555
Fe7 O4 2.128135 1_555
Fe8 O10 1.985113 1_555
Fe8 O19 1.989212 1_555
Fe8 O9 2.041316 1_555
Fe8 O13 2.068878 1_555
Fe8 O6 2.092692 1_555
Fe8 O15 2.128331 1_555
Fe9 O10 1.988225 1_555
Fe9 O11 2.022196 1_555
Fe9 O21 2.059126 1_555
Fe9 O22 2.059131 1_555
Fe10 O23 2.029718 1_555
Fe10 O20 2.029723 1_555
Fe10 O9 2.042245 1_555
Fe10 O8 2.044386 1_555
Fe11 O17 2.026848 1_555
Fe11 O20 2.026848 1_555
Fe11 O18 2.034284 1_555
Fe11 O22 2.034293 1_556
Fe11 O24 2.079650 1_555
Fe11 O14 2.079650 1_555
Fe12 O23 2.026848 1_555
Fe12 O19 2.026848 1_555
Fe12 O21 2.034284 1_655
Fe12 O16 2.034293 1_555
Fe12 O15 2.079650 1_555
Fe12 O25 2.079650 1_655
Fe13 O30 1.988225 1_555
Fe13 O28 2.022196 1_555
Fe13 O18 2.059126 1_555
Fe13 O16 2.059131 1_456
Fe14 O17 2.029718 1_555
Fe14 O19 2.029723 1_555
Fe14 O31 2.042245 1_555
Fe14 O29 2.044386 1_555
Fe15 O21 1.978883 1_555
Fe15 O28 2.021642 1_554
Fe15 O29 2.029396 1_555
Fe15 O27 2.057933 1_555
Fe15 O25 2.091644 1_555
Fe15 O1 2.128135 1_565
Fe16 O30 1.985113 1_655
Fe16 O20 1.989212 1_555
Fe16 O31 2.041316 1_555
Fe16 O26 2.068878 1_555
Fe16 O2 2.092692 1_565
Fe16 O24 2.128331 1_555
Fe17 O22 1.978883 1_556
Fe17 O28 2.021642 1_555
Fe17 O29 2.029405 1_556
Fe17 O26 2.057933 1_555
Fe17 O24 2.091653 1_555
Fe17 O0 2.128135 1_565
Fe18 O30 1.985113 1_555
Fe18 O23 1.989212 1_455
Fe18 O31 2.041316 1_455
Fe18 O27 2.068878 1_555
Fe18 O3 2.092692 1_565
Fe18 O25 2.128332 1_555
Co0 O9 1.943885 1_555
Co0 O28 1.958154 1_545
Co0 O7 2.020434 1_555
Co0 O6 2.020442 1_555
Co0 O1 2.036298 1_556
Co0 O0 2.036314 1_555
Co1 O10 2.082323 1_555
Co1 O30 2.082323 1_545
Co1 O6 2.118998 1_555
Co1 O2 2.118998 1_455
Co1 O3 2.119007 1_555
Co1 O7 2.119007 1_555
Co2 O31 1.943885 1_545
Co2 O11 1.958154 1_655
Co2 O3 2.020434 1_655
Co2 O2 2.020442 1_555
Co2 O5 2.036298 1_555
Co2 O4 2.036314 1_555
Co3 O22 2.092913 1_555
Co3 O16 2.092913 1_555
Co3 O19 2.095007 1_555
Co3 O20 2.095007 1_554
Co3 O13 2.191917 1_555
Co3 O26 2.191917 1_554
Co4 O21 2.092914 1_555
Co4 O18 2.092914 1_555
Co4 O23 2.095016 1_455
Co4 O17 2.095016 1_555
Co4 O27 2.191917 1_555
Co4 O12 2.191917 1_555
