# generated using pymatgen
data_Li4Ti3O8
_symmetry_space_group_name_H-M   'P 1'
_cell_length_a   5.90504791
_cell_length_b   5.90504791
_cell_length_c   6.00757999
_cell_angle_alpha   59.60171710
_cell_angle_beta   59.60171710
_cell_angle_gamma   60.60638802
_symmetry_Int_Tables_number   1
_chemical_formula_structural   Li4Ti3O8
_chemical_formula_sum   'Li4 Ti3 O8'
_cell_volume   147.88247453
_cell_formula_units_Z   1
loop_
 _symmetry_equiv_pos_site_id
 _symmetry_equiv_pos_as_xyz
  1  'x, y, z'
loop_
 _atom_site_type_symbol
 _atom_site_label
 _atom_site_symmetry_multiplicity
 _atom_site_fract_x
 _atom_site_fract_y
 _atom_site_fract_z
 _atom_site_occupancy
  Li  Li0  1  0.50000000  0.50000000  0.50000000  1
  Li  Li1  1  0.00000000  0.50000000  0.00000000  1
  Li  Li2  1  0.50000000  0.00000000  0.00000000  1
  Li  Li3  1  0.00000000  0.00000000  0.00000000  1
  Ti  Ti0  1  0.00000000  0.50000000  0.50000000  1
  Ti  Ti1  1  0.50000000  0.00000000  0.50000000  1
  Ti  Ti2  1  0.00000000  0.00000000  0.50000000  1
  O  O0  1  0.24270900  0.24270900  0.27394900  1
  O  O1  1  0.25010500  0.25010500  0.71940800  1
  O  O2  1  0.24533200  0.78357900  0.71475500  1
  O  O3  1  0.21642100  0.75466800  0.28524500  1
  O  O4  1  0.75466800  0.21642100  0.28524500  1
  O  O5  1  0.78357900  0.24533200  0.71475500  1
  O  O6  1  0.74989500  0.74989500  0.28059200  1
  O  O7  1  0.75729100  0.75729100  0.72605100  1
loop_
_geom_bond_atom_site_label_1
_geom_bond_atom_site_label_2
_geom_bond_distance
_geom_bond_site_symmetry_2
Li0 O6 2.071973 1_555
Li0 O1 2.071973 1_555
Li0 O5 2.116858 1_555
Li0 O2 2.116858 1_555
Li0 O3 2.116858 1_555
Li0 O4 2.116858 1_555
Li1 O0 2.188628 1_555
Li1 O7 2.188628 1_454
Li1 O2 2.191865 1_554
Li1 O4 2.191865 1_455
Li1 O6 2.249182 1_455
Li1 O1 2.249182 1_554
Li2 O0 2.188628 1_555
Li2 O7 2.188628 1_544
Li2 O5 2.191865 1_554
Li2 O3 2.191865 1_545
Li2 O6 2.249182 1_545
Li2 O1 2.249182 1_554
Li3 O1 2.075096 1_554
Li3 O6 2.075096 1_445
Li3 O4 2.134257 1_455
Li3 O3 2.134257 1_545
Li3 O2 2.134257 1_544
Li3 O5 2.134257 1_454
O0 Ti2 2.007308 1_555
O0 Ti1 2.046339 1_555
O0 Ti0 2.046339 1_555
O1 Ti0 1.989596 1_555
O1 Ti1 1.989596 1_555
O2 Ti2 1.949871 1_565
O2 Ti1 1.952858 1_565
O3 Ti2 1.949871 1_565
O3 Ti0 1.952858 1_555
O4 Ti2 1.949871 1_655
O4 Ti1 1.952858 1_555
O5 Ti2 1.949871 1_655
O5 Ti0 1.952858 1_655
O6 Ti0 1.989596 1_655
O6 Ti1 1.989596 1_565
O7 Ti2 2.007308 1_665
O7 Ti0 2.046339 1_655
O7 Ti1 2.046339 1_565
