# generated using pymatgen
data_FeSn3(PO4)6
_symmetry_space_group_name_H-M   'P 1'
_cell_length_a   9.04291275
_cell_length_b   9.04291275
_cell_length_c   9.04291266
_cell_angle_alpha   58.25472029
_cell_angle_beta   58.25472029
_cell_angle_gamma   58.25471963
_symmetry_Int_Tables_number   1
_chemical_formula_structural   FeSn3(PO4)6
_chemical_formula_sum   'Fe1 Sn3 P6 O24'
_cell_volume   501.98489178
_cell_formula_units_Z   1
loop_
 _symmetry_equiv_pos_site_id
 _symmetry_equiv_pos_as_xyz
  1  'x, y, z'
loop_
 _atom_site_type_symbol
 _atom_site_label
 _atom_site_symmetry_multiplicity
 _atom_site_fract_x
 _atom_site_fract_y
 _atom_site_fract_z
 _atom_site_occupancy
  Fe  Fe0  1  0.85569000  0.85569000  0.85569000  1
  Sn  Sn0  1  0.14443600  0.14443600  0.14443600  1
  Sn  Sn1  1  0.35593900  0.35593900  0.35593900  1
  Sn  Sn2  1  0.64305100  0.64305100  0.64305100  1
  P  P0  1  0.46542500  0.74714000  0.03867700  1
  P  P1  1  0.74714000  0.03867700  0.46542500  1
  P  P2  1  0.03867700  0.46542500  0.74714000  1
  P  P3  1  0.96291800  0.54339200  0.24470700  1
  P  P4  1  0.24470700  0.96291800  0.54339200  1
  P  P5  1  0.54339200  0.24470700  0.96291800  1
  O  O0  1  0.51747700  0.27010900  0.13115200  1
  O  O1  1  0.13115200  0.51747700  0.27010900  1
  O  O2  1  0.28978700  0.91985600  0.06116300  1
  O  O3  1  0.27010900  0.13115200  0.51747700  1
  O  O4  1  0.44418000  0.57678600  0.21619200  1
  O  O5  1  0.63379600  0.77815200  0.00525700  1
  O  O6  1  0.91985600  0.06116300  0.28978700  1
  O  O7  1  0.57678600  0.21619200  0.44418000  1
  O  O8  1  0.21619200  0.44418000  0.57678600  1
  O  O9  1  0.98718700  0.37478800  0.21974100  1
  O  O10  1  0.93788100  0.71646900  0.07229400  1
  O  O11  1  0.21974100  0.98718700  0.37478800  1
  O  O12  1  0.77815200  0.00525700  0.63379600  1
  O  O13  1  0.06116300  0.28978700  0.91985600  1
  O  O14  1  0.00525700  0.63379600  0.77815200  1
  O  O15  1  0.78086300  0.57436300  0.40999200  1
  O  O16  1  0.40999200  0.78086300  0.57436300  1
  O  O17  1  0.07229400  0.93788100  0.71646900  1
  O  O18  1  0.37478800  0.21974100  0.98718700  1
  O  O19  1  0.57436300  0.40999200  0.78086300  1
  O  O20  1  0.71871400  0.87284800  0.48957600  1
  O  O21  1  0.71646900  0.07229400  0.93788100  1
  O  O22  1  0.87284800  0.48957600  0.71871400  1
  O  O23  1  0.48957600  0.71871400  0.87284800  1
loop_
_geom_bond_atom_site_label_1
_geom_bond_atom_site_label_2
_geom_bond_distance
_geom_bond_site_symmetry_2
Fe0 O10 1.981518 1_556
Fe0 O21 1.981518 1_565
Fe0 O17 1.981518 1_655
Fe0 O12 1.993493 1_565
Fe0 O14 1.993493 1_655
Fe0 O5 1.993493 1_556
O0 P5 1.535592 1_554
O0 Sn1 2.052019 1_555
O1 P3 1.535592 1_455
O1 Sn1 2.052019 1_555
O2 P0 1.545104 1_555
O2 Sn0 2.043985 1_565
O3 P4 1.535592 1_545
O3 Sn1 2.052019 1_555
O4 P0 1.539998 1_555
O4 Sn1 2.045042 1_555
O5 P0 1.537566 1_555
O6 P1 1.545104 1_555
O6 Sn0 2.043985 1_655
O7 P1 1.539998 1_555
O7 Sn1 2.045042 1_555
O8 P2 1.539998 1_555
O8 Sn1 2.045042 1_555
O9 P3 1.543286 1_555
O9 Sn0 2.044906 1_655
O10 P3 1.537035 1_555
O11 P4 1.543286 1_555
O11 Sn0 2.044906 1_565
O12 P1 1.537566 1_555
O13 P2 1.545104 1_555
O13 Sn0 2.043985 1_556
O14 P2 1.537566 1_555
O15 P3 1.545557 1_555
O15 Sn2 2.044446 1_555
O16 P4 1.545557 1_555
O16 Sn2 2.044446 1_555
O17 P4 1.537035 1_555
O18 P5 1.543286 1_555
O18 Sn0 2.044906 1_556
O19 P5 1.545557 1_555
O19 Sn2 2.044446 1_555
O20 P1 1.537671 1_565
O20 Sn2 2.043191 1_555
O21 P5 1.537035 1_555
O22 P2 1.537671 1_655
O22 Sn2 2.043191 1_555
O23 P0 1.537671 1_556
O23 Sn2 2.043191 1_555
