# generated using pymatgen
data_Sr2FeCO3F5
_symmetry_space_group_name_H-M   'P 1'
_cell_length_a   8.94766300
_cell_length_b   5.61221300
_cell_length_c   13.93136354
_cell_angle_alpha   74.63683185
_cell_angle_beta   90.00000000
_cell_angle_gamma   90.00000000
_symmetry_Int_Tables_number   1
_chemical_formula_structural   Sr2FeCO3F5
_chemical_formula_sum   'Sr8 Fe4 C4 O12 F20'
_cell_volume   674.58115497
_cell_formula_units_Z   4
loop_
 _symmetry_equiv_pos_site_id
 _symmetry_equiv_pos_as_xyz
  1  'x, y, z'
loop_
 _atom_site_type_symbol
 _atom_site_label
 _atom_site_symmetry_multiplicity
 _atom_site_fract_x
 _atom_site_fract_y
 _atom_site_fract_z
 _atom_site_occupancy
  Sr  Sr0  1  0.89065300  0.69107000  0.09702900  1
  Sr  Sr1  1  0.35967000  0.69231700  0.08588600  1
  Sr  Sr2  1  0.85967000  0.30768300  0.41411400  1
  Sr  Sr3  1  0.39065300  0.30893000  0.40297100  1
  Sr  Sr4  1  0.60934700  0.69107000  0.59702900  1
  Sr  Sr5  1  0.14033000  0.69231700  0.58588600  1
  Sr  Sr6  1  0.64033000  0.30768300  0.91411400  1
  Sr  Sr7  1  0.10934700  0.30893000  0.90297100  1
  Fe  Fe0  1  0.87182700  0.18990000  0.67225000  1
  Fe  Fe1  1  0.37182700  0.81010000  0.82775000  1
  Fe  Fe2  1  0.62817300  0.18990000  0.17225000  1
  Fe  Fe3  1  0.12817300  0.81010000  0.32775000  1
  C  C0  1  0.37597900  0.18181200  0.63531600  1
  C  C1  1  0.87597900  0.81818800  0.86468400  1
  C  C2  1  0.12402100  0.18181200  0.13531600  1
  C  C3  1  0.62402100  0.81818800  0.36468400  1
  O  O0  1  0.38013100  0.41202200  0.58394000  1
  O  O1  1  0.37016900  0.13486300  0.73195500  1
  O  O2  1  0.87765600  0.99235600  0.90979600  1
  O  O3  1  0.11986900  0.41202200  0.08394000  1
  O  O4  1  0.37765600  0.00764400  0.59020400  1
  O  O5  1  0.87016900  0.86513700  0.76804500  1
  O  O6  1  0.12983100  0.13486300  0.23195500  1
  O  O7  1  0.62234400  0.99235600  0.40979600  1
  O  O8  1  0.88013100  0.58797800  0.91606000  1
  O  O9  1  0.12234400  0.00764400  0.09020400  1
  O  O10  1  0.62983100  0.86513700  0.26804500  1
  O  O11  1  0.61986900  0.58797800  0.41606000  1
  F  F0  1  0.96271000  0.66805400  0.27233500  1
  F  F1  1  0.28314200  0.66472500  0.26376000  1
  F  F2  1  0.12990800  0.47468000  0.43326600  1
  F  F3  1  0.62990800  0.52532000  0.06673400  1
  F  F4  1  0.51282300  0.91855900  0.91541900  1
  F  F5  1  0.71735300  0.10600200  0.58426200  1
  F  F6  1  0.78314200  0.33527500  0.23624000  1
  F  F7  1  0.46271000  0.33194600  0.22766500  1
  F  F8  1  0.21735300  0.89399800  0.91573800  1
  F  F9  1  0.01282300  0.08144100  0.58458100  1
  F  F10  1  0.98717700  0.91855900  0.41541900  1
  F  F11  1  0.78264700  0.10600200  0.08426200  1
  F  F12  1  0.53729000  0.66805400  0.77233500  1
  F  F13  1  0.21685800  0.66472500  0.76376000  1
  F  F14  1  0.28264700  0.89399800  0.41573800  1
  F  F15  1  0.48717700  0.08144100  0.08458100  1
  F  F16  1  0.37009200  0.47468000  0.93326600  1
  F  F17  1  0.87009200  0.52532000  0.56673400  1
  F  F18  1  0.71685800  0.33527500  0.73624000  1
  F  F19  1  0.03729000  0.33194600  0.72766500  1
loop_
_geom_bond_atom_site_label_1
_geom_bond_atom_site_label_2
_geom_bond_distance
_geom_bond_site_symmetry_2
Fe0 O5 1.953049 1_545
Fe1 O1 1.953049 1_565
Fe2 O10 1.953049 1_545
Fe3 O6 1.953049 1_565
C0 O4 1.294663 1_555
C0 O0 1.301117 1_555
C0 O1 1.302583 1_555
C1 O2 1.294663 1_555
C1 O8 1.301117 1_555
C1 O5 1.302583 1_555
C2 O9 1.294663 1_555
C2 O3 1.301117 1_555
C2 O6 1.302583 1_555
C3 O7 1.294663 1_555
C3 O11 1.301117 1_555
C3 O10 1.302583 1_555
O0 Sr4 2.616018 1_555
O0 Sr5 2.664911 1_555
O0 Sr3 2.733623 1_555
O2 Sr0 2.709133 1_556
O2 Sr7 2.715481 1_665
O2 Sr6 2.775087 1_565
O3 Sr0 2.616018 1_455
O3 Sr1 2.664911 1_555
O3 Sr7 2.733623 1_554
O4 Sr3 2.709133 1_555
O4 Sr4 2.715481 1_545
O4 Sr5 2.775087 1_545
O7 Sr4 2.709133 1_555
O7 Sr3 2.715481 1_565
O7 Sr2 2.775087 1_565
O8 Sr7 2.616018 1_655
O8 Sr6 2.664911 1_555
O8 Sr0 2.733623 1_556
O9 Sr7 2.709133 1_554
O9 Sr0 2.715481 1_445
O9 Sr1 2.775087 1_545
O11 Sr3 2.616018 1_555
O11 Sr2 2.664911 1_555
O11 Sr4 2.733623 1_555
F0 Fe3 1.936366 1_655
F0 Sr0 2.495959 1_555
F0 Sr2 2.593270 1_555
F1 Fe3 1.941249 1_555
F1 Sr1 2.535774 1_555
F1 Sr3 2.573302 1_555
F2 Fe3 2.058751 1_555
F2 Sr3 2.587399 1_555
F2 Sr2 2.632260 1_455
F2 Sr5 2.719816 1_555
F3 Fe2 2.058751 1_555
F3 Sr0 2.587399 1_555
F3 Sr1 2.632260 1_555
F3 Sr6 2.719816 1_554
F4 Fe1 1.961561 1_555
F4 Sr6 2.459697 1_565
F4 Sr1 2.744479 1_556
F5 Fe0 1.985075 1_555
F5 Sr4 2.483724 1_545
F5 Sr2 2.664550 1_555
F6 Fe2 1.941249 1_555
F6 Sr2 2.535774 1_555
F6 Sr0 2.573302 1_555
F7 Fe2 1.936366 1_555
F7 Sr3 2.495959 1_555
F7 Sr1 2.593270 1_555
F8 Fe1 1.985075 1_555
F8 Sr7 2.483724 1_565
F8 Sr1 2.664550 1_556
F9 Fe0 1.961561 1_455
F9 Sr5 2.459697 1_545
F9 Sr2 2.744479 1_455
F10 Fe3 1.961561 1_655
F10 Sr2 2.459697 1_565
F10 Sr5 2.744479 1_655
F11 Fe2 1.985075 1_555
F11 Sr0 2.483724 1_545
F11 Sr6 2.664550 1_554
F12 Fe1 1.936366 1_555
F12 Sr4 2.495959 1_555
F12 Sr6 2.593270 1_555
F13 Fe1 1.941249 1_555
F13 Sr5 2.535774 1_555
F13 Sr7 2.573302 1_555
F14 Fe3 1.985075 1_555
F14 Sr3 2.483724 1_565
F14 Sr5 2.664550 1_555
F15 Fe2 1.961561 1_555
F15 Sr1 2.459697 1_545
F15 Sr6 2.744479 1_554
F16 Fe1 2.058751 1_555
F16 Sr7 2.587399 1_555
F16 Sr6 2.632260 1_555
F16 Sr1 2.719816 1_556
F17 Fe0 2.058751 1_555
F17 Sr4 2.587399 1_555
F17 Sr5 2.632260 1_655
F17 Sr2 2.719816 1_555
F18 Fe0 1.941249 1_555
F18 Sr6 2.535774 1_555
F18 Sr4 2.573302 1_555
F19 Fe0 1.936366 1_455
F19 Sr7 2.495959 1_555
F19 Sr5 2.593270 1_555
