# generated using pymatgen
data_Li4V(BO3)2
_symmetry_space_group_name_H-M   'P 1'
_cell_length_a   3.38516800
_cell_length_b   9.27339300
_cell_length_c   15.76375601
_cell_angle_alpha   89.99633566
_cell_angle_beta   90.00003147
_cell_angle_gamma   90.00006474
_symmetry_Int_Tables_number   1
_chemical_formula_structural   Li4V(BO3)2
_chemical_formula_sum   'Li16 V4 B8 O24'
_cell_volume   494.85572120
_cell_formula_units_Z   4
loop_
 _symmetry_equiv_pos_site_id
 _symmetry_equiv_pos_as_xyz
  1  'x, y, z'
loop_
 _atom_site_type_symbol
 _atom_site_label
 _atom_site_symmetry_multiplicity
 _atom_site_fract_x
 _atom_site_fract_y
 _atom_site_fract_z
 _atom_site_occupancy
  Li  Li0  1  0.49999700  0.05327100  0.08752900  1
  Li  Li1  1  0.50000000  0.05325500  0.58755900  1
  Li  Li2  1  0.00000100  0.44673100  0.33755900  1
  Li  Li3  1  0.00000000  0.44676600  0.83754000  1
  Li  Li4  1  0.99999900  0.55327200  0.16248400  1
  Li  Li5  1  0.99999800  0.55325400  0.66243100  1
  Li  Li6  1  0.49999800  0.94676300  0.41246800  1
  Li  Li7  1  0.49999900  0.94673200  0.91242900  1
  Li  Li8  1  0.99999800  0.19916500  0.00488100  1
  Li  Li9  1  0.99999900  0.19921600  0.50493100  1
  Li  Li10  1  0.49999800  0.30081700  0.25493800  1
  Li  Li11  1  0.49999900  0.30080800  0.75488400  1
  Li  Li12  1  0.49999800  0.69916700  0.24511500  1
  Li  Li13  1  0.49999900  0.69921100  0.74506600  1
  Li  Li14  1  0.99999800  0.80080000  0.49511600  1
  Li  Li15  1  0.99999800  0.80082200  0.99505400  1
  V  V0  1  0.99993700  0.99995700  0.74987400  1
  V  V1  1  0.49997900  0.49994800  0.50000800  1
  V  V2  1  0.00007500  0.00000000  0.25012600  1
  V  V3  1  0.49999900  0.49999300  0.00004500  1
  B  B0  1  0.50000000  0.20357400  0.38601500  1
  B  B1  1  0.50000100  0.20347000  0.88588700  1
  B  B2  1  0.99999900  0.29647800  0.13597500  1
  B  B3  1  0.00000300  0.29650600  0.63594700  1
  B  B4  1  0.00000200  0.70345200  0.36410900  1
  B  B5  1  0.00000000  0.70355800  0.86398800  1
  B  B6  1  0.49999800  0.79649900  0.11404500  1
  B  B7  1  0.50000100  0.79646600  0.61403000  1
  O  O0  1  0.49999800  0.11702800  0.31197300  1
  O  O1  1  0.50001000  0.11696800  0.81189300  1
  O  O2  1  0.00000300  0.38299200  0.06195500  1
  O  O3  1  0.00000900  0.38299200  0.56193700  1
  O  O4  1  0.00001200  0.61697800  0.43808400  1
  O  O5  1  0.00000200  0.61703100  0.93802600  1
  O  O6  1  0.49999800  0.88298700  0.18805900  1
  O  O7  1  0.50001200  0.88300400  0.68806600  1
  O  O8  1  0.99999800  0.14646900  0.12896700  1
  O  O9  1  0.00000200  0.14645100  0.62896100  1
  O  O10  1  0.50000700  0.35355400  0.37900800  1
  O  O11  1  0.50000100  0.35350200  0.87890400  1
  O  O12  1  0.49999900  0.64648100  0.12104700  1
  O  O13  1  0.49999500  0.64647000  0.62102300  1
  O  O14  1  0.99999700  0.85351200  0.37109600  1
  O  O15  1  0.00000200  0.85356900  0.87098500  1
  O  O16  1  0.49999800  0.13759800  0.46362500  1
  O  O17  1  0.49999600  0.13752100  0.96353300  1
  O  O18  1  0.99999900  0.36243700  0.21359300  1
  O  O19  1  0.99999900  0.36247300  0.71358200  1
  O  O20  1  0.99999800  0.63752300  0.28645300  1
  O  O21  1  0.99999800  0.63759600  0.78637700  1
  O  O22  1  0.49999900  0.86244900  0.03640700  1
  O  O23  1  0.49999800  0.86246400  0.53641700  1
loop_
_geom_bond_atom_site_label_1
_geom_bond_atom_site_label_2
_geom_bond_distance
_geom_bond_site_symmetry_2
Li0 O22 1.944476 1_545
Li0 O8 2.009614 1_455
Li0 O8 2.009617 1_555
Li0 O17 2.104955 1_554
Li0 O6 2.237105 1_545
Li1 O23 1.944345 1_545
Li1 O9 2.009419 1_555
Li1 O9 2.009428 1_655
Li1 O16 2.104368 1_555
Li1 O7 2.236632 1_545
Li2 O20 1.944024 1_455
Li2 O10 2.009535 1_455
Li2 O10 2.009570 1_555
Li2 O18 2.104760 1_455
Li2 O4 2.236950 1_555
Li3 O21 1.944717 1_455
Li3 O11 2.009461 1_455
Li3 O11 2.009468 1_555
Li3 O19 2.104640 1_455
Li3 O5 2.236633 1_555
Li4 O18 1.944407 1_555
Li4 O12 2.009618 1_655
Li4 O12 2.009619 1_555
Li4 O20 2.104656 1_555
Li4 O2 2.237211 1_655
Li5 O19 1.944225 1_555
Li5 O13 2.009489 1_655
Li5 O13 2.009507 1_555
Li5 O21 2.104633 1_555
Li5 O3 2.236702 1_655
Li6 O16 1.944814 1_565
Li6 O14 2.009488 1_555
Li6 O14 2.009491 1_455
Li6 O23 2.104436 1_555
Li6 O0 2.236590 1_565
Li7 O17 1.944079 1_565
Li7 O15 2.009497 1_555
Li7 O15 2.009517 1_655
Li7 O22 2.104805 1_556
Li7 O1 2.236858 1_565
Li8 O17 1.901708 1_654
Li8 O17 1.901719 1_554
Li8 O2 1.927605 1_655
Li8 O8 2.016148 1_555
Li9 O16 1.901412 1_655
Li9 O16 1.901416 1_555
Li9 O3 1.926686 1_655
Li9 O9 2.015447 1_655
Li10 O18 1.901602 1_455
Li10 O18 1.901608 1_555
Li10 O0 1.926904 1_555
Li10 O10 2.016056 1_555
Li11 O19 1.901498 1_555
Li11 O19 1.901499 1_455
Li11 O1 1.927131 1_555
Li11 O11 2.015195 1_555
Li12 O20 1.901634 1_455
Li12 O20 1.901635 1_555
Li12 O6 1.927313 1_555
Li12 O12 2.015911 1_555
Li13 O21 1.901405 1_555
Li13 O21 1.901410 1_455
Li13 O7 1.926680 1_555
Li13 O13 2.015652 1_555
Li14 O23 1.901514 1_655
Li14 O23 1.901516 1_555
Li14 O4 1.927255 1_655
Li14 O14 2.015175 1_555
Li15 O22 1.901691 1_556
Li15 O22 1.901695 1_656
Li15 O5 1.926971 1_655
Li15 O15 2.016003 1_655
B0 O16 1.367845 1_555
B0 O10 1.395196 1_555
B0 O0 1.416529 1_555
B1 O17 1.368240 1_555
B1 O11 1.395647 1_555
B1 O1 1.415675 1_555
B2 O18 1.367957 1_555
B2 O8 1.395479 1_555
B2 O2 1.415991 1_655
B3 O19 1.368230 1_455
B3 O9 1.395877 1_555
B3 O3 1.415714 1_555
B4 O20 1.368368 1_455
B4 O14 1.395924 1_455
B4 O4 1.415196 1_555
B5 O21 1.367871 1_455
B5 O15 1.395484 1_555
B5 O5 1.416293 1_555
B6 O22 1.368132 1_555
B6 O12 1.395541 1_555
B6 O6 1.415861 1_555
B7 O23 1.367978 1_555
B7 O13 1.395326 1_555
B7 O7 1.416410 1_555
O0 V2 2.234359 1_555
O0 V2 2.234756 1_655
O1 V0 2.235479 1_545
O1 V0 2.235851 1_445
O2 V3 2.234798 1_555
O2 V3 2.234819 1_455
O3 V1 2.234659 1_555
O3 V1 2.234814 1_455
O4 V1 2.234951 1_555
O4 V1 2.235120 1_455
O5 V3 2.235719 1_556
O5 V3 2.235733 1_456
O6 V2 2.235809 1_565
O6 V2 2.236201 1_665
O7 V0 2.233758 1_555
O7 V0 2.234145 1_455
O8 V2 2.343576 1_655
O9 V0 2.340552 1_445
O10 V1 2.341272 1_555
O11 V3 2.343605 1_556
O12 V3 2.341803 1_555
O13 V1 2.342153 1_555
O14 V2 2.341251 1_665
O15 V0 2.342524 1_455
