# generated using pymatgen
data_Ce5O9
_symmetry_space_group_name_H-M   'P 1'
_cell_length_a   6.72786263
_cell_length_b   5.55825603
_cell_length_c   6.71826859
_cell_angle_alpha   114.43083535
_cell_angle_beta   99.77250927
_cell_angle_gamma   65.60750357
_symmetry_Int_Tables_number   1
_chemical_formula_structural   Ce5O9
_chemical_formula_sum   'Ce5 O9'
_cell_volume   208.31831240
_cell_formula_units_Z   1
loop_
 _symmetry_equiv_pos_site_id
 _symmetry_equiv_pos_as_xyz
  1  'x, y, z'
loop_
 _atom_site_type_symbol
 _atom_site_label
 _atom_site_symmetry_multiplicity
 _atom_site_fract_x
 _atom_site_fract_y
 _atom_site_fract_z
 _atom_site_occupancy
  Ce  Ce0  1  0.99865006  0.98790033  0.02229879  1
  Ce  Ce1  1  0.42210641  0.21359086  0.80117659  1
  Ce  Ce2  1  0.20137449  0.56423524  0.37778247  1
  Ce  Ce3  1  0.77792858  0.43445716  0.59866863  1
  Ce  Ce4  1  0.59994316  0.79938881  0.20008130  1
  O  O0  1  0.09999228  0.55080526  0.69990539  1
  O  O1  1  0.32142187  0.63370083  0.09952525  1
  O  O2  1  0.70003392  0.86646352  0.92238874  1
  O  O3  1  0.49994180  0.24401352  0.47748180  1
  O  O4  1  0.27111311  0.14497188  0.06109617  1
  O  O5  1  0.73786681  0.31729648  0.87259031  1
  O  O6  1  0.46224021  0.78239635  0.52737295  1
  O  O7  1  0.87843681  0.45566191  0.30046748  1
  O  O8  1  0.92894949  0.95511785  0.33916511  1
loop_
_geom_bond_atom_site_label_1
_geom_bond_atom_site_label_2
_geom_bond_distance
_geom_bond_site_symmetry_2
Ce0 O4 2.271960 1_665
Ce0 O2 2.286903 1_554
Ce0 O8 2.348443 1_555
Ce0 O7 2.379787 1_565
Ce0 O5 2.390171 1_564
Ce0 O1 2.406660 1_655
Ce0 O0 2.416382 1_654
Ce1 O6 2.277723 1_545
Ce1 O1 2.282953 1_556
Ce1 O5 2.347800 1_555
Ce1 O2 2.384336 1_545
Ce1 O4 2.387430 1_556
Ce1 O3 2.407471 1_555
Ce1 O0 2.423175 1_555
Ce2 O8 2.272151 1_455
Ce2 O3 2.286458 1_555
Ce2 O4 2.347745 1_555
Ce2 O1 2.379762 1_555
Ce2 O6 2.389907 1_555
Ce2 O7 2.407303 1_455
Ce2 O0 2.414738 1_555
Ce3 O5 2.277721 1_555
Ce3 O7 2.281616 1_555
Ce3 O6 2.347069 1_555
Ce3 O3 2.384663 1_555
Ce3 O8 2.386091 1_545
Ce3 O2 2.407924 1_555
Ce3 O0 2.422622 1_655
Ce4 O3 2.296927 1_565
Ce4 O2 2.298293 1_554
Ce4 O7 2.301242 1_555
Ce4 O1 2.301485 1_555
Ce4 O6 2.576372 1_555
Ce4 O5 2.577712 1_554
Ce4 O4 2.593886 1_565
Ce4 O8 2.594867 1_555
