# generated using pymatgen
data_Li2TiCoO4
_symmetry_space_group_name_H-M   'P 1'
_cell_length_a   5.24924995
_cell_length_b   5.24931644
_cell_length_c   5.75465200
_cell_angle_alpha   90.00002829
_cell_angle_beta   89.99996939
_cell_angle_gamma   113.52187978
_symmetry_Int_Tables_number   1
_chemical_formula_structural   Li2TiCoO4
_chemical_formula_sum   'Li4 Ti2 Co2 O8'
_cell_volume   145.39340548
_cell_formula_units_Z   2
loop_
 _symmetry_equiv_pos_site_id
 _symmetry_equiv_pos_as_xyz
  1  'x, y, z'
loop_
 _atom_site_type_symbol
 _atom_site_label
 _atom_site_symmetry_multiplicity
 _atom_site_fract_x
 _atom_site_fract_y
 _atom_site_fract_z
 _atom_site_occupancy
  Li  Li0  1  0.00000000  0.50000100  0.74999700  1
  Li  Li1  1  0.50000100  0.00000000  0.25000200  1
  Li  Li2  1  0.49999900  0.49999900  0.00000000  1
  Li  Li3  1  0.00000000  0.00000000  0.50000000  1
  Ti  Ti0  1  0.00000100  0.49999600  0.24999900  1
  Ti  Ti1  1  0.49999600  0.00000100  0.75000200  1
  Co  Co0  1  0.50000000  0.50000000  0.50000500  1
  Co  Co1  1  0.99999600  0.99999600  0.00000500  1
  O  O0  1  0.22301800  0.27700800  0.25000800  1
  O  O1  1  0.72300100  0.77698500  0.74998400  1
  O  O2  1  0.77698500  0.72300100  0.25001000  1
  O  O3  1  0.27700800  0.22301800  0.74998600  1
  O  O4  1  0.25098900  0.74900700  0.00000000  1
  O  O5  1  0.75098200  0.24902000  0.50000000  1
  O  O6  1  0.74900600  0.25098800  0.00000000  1
  O  O7  1  0.24901900  0.75098100  0.50000100  1
loop_
_geom_bond_atom_site_label_1
_geom_bond_atom_site_label_2
_geom_bond_distance
_geom_bond_site_symmetry_2
Li0 O7 2.034570 1_555
Li0 O5 2.034575 1_455
Li0 O4 2.034591 1_556
Li0 O6 2.034615 1_456
Li0 O1 2.432236 1_455
Li0 O3 2.432271 1_555
Li1 O5 2.034582 1_555
Li1 O6 2.034583 1_555
Li1 O7 2.034587 1_545
Li1 O4 2.034607 1_545
Li1 O2 2.432236 1_545
Li1 O0 2.432271 1_555
Li2 O0 2.048306 1_555
Li2 O3 2.048334 1_554
Li2 O2 2.048343 1_555
Li2 O1 2.048372 1_554
Li2 O4 2.186524 1_555
Li2 O6 2.186524 1_555
Li3 O1 2.048290 1_445
Li3 O2 2.048319 1_445
Li3 O3 2.048326 1_555
Li3 O0 2.048355 1_555
Li3 O7 2.186612 1_545
Li3 O5 2.186612 1_455
Co0 O3 2.048205 1_555
Co0 O1 2.048218 1_555
Co0 O0 2.048265 1_555
Co0 O2 2.048278 1_555
Co0 O5 2.203840 1_555
Co0 O7 2.203840 1_555
Co1 O2 2.048364 1_555
Co1 O0 2.048415 1_665
Co1 O1 2.048424 1_554
Co1 O3 2.048475 1_664
Co1 O4 2.203928 1_655
Co1 O6 2.203928 1_565
O0 Ti0 1.958164 1_555
O1 Ti1 1.958234 1_565
O2 Ti0 1.958234 1_655
O3 Ti1 1.958164 1_555
O4 Ti0 2.034583 1_555
O4 Ti1 2.034583 1_564
O5 Ti0 2.034583 1_655
O5 Ti1 2.034607 1_555
O6 Ti1 2.034575 1_554
O6 Ti0 2.034591 1_655
O7 Ti1 2.034586 1_565
O7 Ti0 2.034603 1_555
