# generated using pymatgen
data_LiFe2(BO3)2
_symmetry_space_group_name_H-M   'P 1'
_cell_length_a   5.25601200
_cell_length_b   9.13807376
_cell_length_c   10.11748477
_cell_angle_alpha   88.73791114
_cell_angle_beta   88.97604416
_cell_angle_gamma   89.39302696
_symmetry_Int_Tables_number   1
_chemical_formula_structural   LiFe2(BO3)2
_chemical_formula_sum   'Li4 Fe8 B8 O24'
_cell_volume   485.72026876
_cell_formula_units_Z   4
loop_
 _symmetry_equiv_pos_site_id
 _symmetry_equiv_pos_as_xyz
  1  'x, y, z'
loop_
 _atom_site_type_symbol
 _atom_site_label
 _atom_site_symmetry_multiplicity
 _atom_site_fract_x
 _atom_site_fract_y
 _atom_site_fract_z
 _atom_site_occupancy
  Li  Li0  1  0.18071100  0.16881900  0.15556400  1
  Li  Li1  1  0.33132400  0.32995600  0.87590800  1
  Li  Li2  1  0.65751000  0.67270200  0.65235400  1
  Li  Li3  1  0.83457900  0.83161100  0.38471000  1
  Fe  Fe0  1  0.16139700  0.83807100  0.63342900  1
  Fe  Fe1  1  0.17026000  0.50614600  0.13277100  1
  Fe  Fe2  1  0.31454800  0.99241800  0.87831200  1
  Fe  Fe3  1  0.34448100  0.65443800  0.37755200  1
  Fe  Fe4  1  0.67631900  0.33404600  0.62945900  1
  Fe  Fe5  1  0.67027200  0.99777400  0.12576500  1
  Fe  Fe6  1  0.83085700  0.16346600  0.38157100  1
  Fe  Fe7  1  0.82330900  0.50686200  0.88485000  1
  B  B0  1  0.17293000  0.50555100  0.63728000  1
  B  B1  1  0.16996000  0.83461800  0.13496700  1
  B  B2  1  0.32736900  0.99178500  0.37078500  1
  B  B3  1  0.32421900  0.66329700  0.87023600  1
  B  B4  1  0.65736700  0.99657300  0.62482200  1
  B  B5  1  0.66917200  0.32978900  0.12586500  1
  B  B6  1  0.84028900  0.50180000  0.38485700  1
  B  B7  1  0.83210500  0.16990200  0.88405800  1
  O  O0  1  0.08510100  0.49532000  0.32755400  1
  O  O1  1  0.09072300  0.17021000  0.89262800  1
  O  O2  1  0.17502500  0.78465100  0.83022000  1
  O  O3  1  0.21715200  0.86562800  0.42910100  1
  O  O4  1  0.18930400  0.11382200  0.34461600  1
  O  O5  1  0.20174900  0.54141400  0.93044000  1
  O  O6  1  0.32816400  0.38757800  0.65975700  1
  O  O7  1  0.31143400  0.95680900  0.09199400  1
  O  O8  1  0.27973500  0.63793400  0.59238500  1
  O  O9  1  0.29414600  0.70329300  0.16384200  1
  O  O10  1  0.40744700  0.33890300  0.11760900  1
  O  O11  1  0.40722700  0.98731300  0.66925700  1
  O  O12  1  0.58671900  0.98410000  0.33312100  1
  O  O13  1  0.57662200  0.66130600  0.84529500  1
  O  O14  1  0.70111500  0.29343700  0.83202700  1
  O  O15  1  0.72909500  0.37325000  0.43387400  1
  O  O16  1  0.71627000  0.63364000  0.39661300  1
  O  O17  1  0.68463200  0.05287900  0.93084200  1
  O  O18  1  0.82182500  0.44680200  0.08963900  1
  O  O19  1  0.80072000  0.86929500  0.61139100  1
  O  O20  1  0.76003900  0.13068900  0.58987100  1
  O  O21  1  0.78807100  0.19846000  0.16546200  1
  O  O22  1  0.91395200  0.84850800  0.15250400  1
  O  O23  1  0.91118300  0.50156600  0.66332800  1
loop_
_geom_bond_atom_site_label_1
_geom_bond_atom_site_label_2
_geom_bond_distance
_geom_bond_site_symmetry_2
Li0 O4 1.968099 1_555
Li0 O10 1.994977 1_555
Li0 O21 2.079496 1_455
Li0 O7 2.156390 1_545
Li1 O1 1.944056 1_555
Li1 O14 2.011988 1_555
Li1 O5 2.123143 1_555
Li1 O6 2.238408 1_555
Li1 O10 2.488222 1_556
Li2 O19 1.987558 1_555
Li2 O13 1.991111 1_555
Li2 O23 2.046739 1_555
Li2 O8 2.115786 1_555
Li3 O16 1.919762 1_555
Li3 O12 1.965992 1_555
Li3 O3 2.096035 1_655
Li3 O19 2.330029 1_555
Li3 O22 2.380681 1_555
Fe0 O19 1.930217 1_455
Fe0 O11 1.933040 1_555
Fe0 O8 1.975901 1_555
Fe0 O2 2.041854 1_555
Fe0 O3 2.092830 1_555
Fe1 O9 1.955886 1_555
Fe1 O10 1.968870 1_555
Fe1 O18 1.974459 1_455
Fe1 O0 2.013620 1_555
Fe1 O5 2.069240 1_554
Fe2 O1 2.002077 1_565
Fe2 O17 2.108089 1_565
Fe2 O2 2.112373 1_555
Fe2 O11 2.163377 1_555
Fe2 O7 2.178974 1_556
Fe3 O16 1.973806 1_555
Fe3 O0 2.080323 1_555
Fe3 O3 2.109216 1_555
Fe3 O8 2.196171 1_555
Fe3 O9 2.218077 1_555
Fe4 O6 1.910344 1_555
Fe4 O20 1.953577 1_555
Fe4 O23 2.015670 1_555
Fe4 O15 2.017996 1_555
Fe4 O14 2.080883 1_555
Fe5 O22 1.879686 1_555
Fe5 O7 1.964106 1_555
Fe5 O21 1.993284 1_565
Fe5 O17 2.024920 1_564
Fe5 O12 2.136921 1_555
Fe6 O4 1.964496 1_655
Fe6 O15 2.062504 1_555
Fe6 O20 2.148538 1_555
Fe6 O12 2.162365 1_545
Fe6 O21 2.217831 1_555
Fe7 O13 1.946285 1_555
Fe7 O5 2.078803 1_655
Fe7 O18 2.131589 1_556
Fe7 O14 2.141606 1_555
Fe7 O23 2.281699 1_555
B0 O6 1.362647 1_555
B0 O23 1.396830 1_455
B0 O8 1.402127 1_555
B1 O22 1.359052 1_455
B1 O9 1.387915 1_555
B1 O7 1.404771 1_555
B2 O4 1.347979 1_565
B2 O3 1.408792 1_555
B2 O12 1.410282 1_555
B3 O13 1.345990 1_555
B3 O2 1.407738 1_555
B3 O5 1.413209 1_555
B4 O20 1.380712 1_565
B4 O11 1.384691 1_555
B4 O19 1.386959 1_555
B5 O10 1.381175 1_555
B5 O18 1.382693 1_555
B5 O21 1.401123 1_555
B6 O16 1.370185 1_555
B6 O15 1.394975 1_555
B6 O0 1.403051 1_655
B7 O1 1.363644 1_655
B7 O17 1.396621 1_555
B7 O14 1.412725 1_555
