# generated using pymatgen
data_Li3TiCo3O8
_symmetry_space_group_name_H-M   'P 1'
_cell_length_a   5.86380220
_cell_length_b   5.86380220
_cell_length_c   5.86380147
_cell_angle_alpha   57.96213503
_cell_angle_beta   57.96213503
_cell_angle_gamma   57.96213724
_symmetry_Int_Tables_number   1
_chemical_formula_structural   Li3TiCo3O8
_chemical_formula_sum   'Li3 Ti1 Co3 O8'
_cell_volume   135.90237815
_cell_formula_units_Z   1
loop_
 _symmetry_equiv_pos_site_id
 _symmetry_equiv_pos_as_xyz
  1  'x, y, z'
loop_
 _atom_site_type_symbol
 _atom_site_label
 _atom_site_symmetry_multiplicity
 _atom_site_fract_x
 _atom_site_fract_y
 _atom_site_fract_z
 _atom_site_occupancy
  Li  Li0  1  0.00000000  0.00000000  0.50000000  1
  Li  Li1  1  0.00000000  0.50000000  0.00000000  1
  Li  Li2  1  0.50000000  0.00000000  0.00000000  1
  Ti  Ti0  1  0.00000000  0.00000000  0.00000000  1
  Co  Co0  1  0.00000000  0.50000000  0.50000000  1
  Co  Co1  1  0.50000000  0.50000000  0.00000000  1
  Co  Co2  1  0.50000000  0.00000000  0.50000000  1
  O  O0  1  0.23987000  0.73862800  0.23987000  1
  O  O1  1  0.23987000  0.23987000  0.73862800  1
  O  O2  1  0.73862800  0.23987000  0.23987000  1
  O  O3  1  0.73727300  0.73727300  0.73727300  1
  O  O4  1  0.26272700  0.26272700  0.26272700  1
  O  O5  1  0.26137200  0.76013000  0.76013000  1
  O  O6  1  0.76013000  0.76013000  0.26137200  1
  O  O7  1  0.76013000  0.26137200  0.76013000  1
loop_
_geom_bond_atom_site_label_1
_geom_bond_atom_site_label_2
_geom_bond_distance
_geom_bond_site_symmetry_2
Li0 O2 2.137979 1_455
Li0 O0 2.137979 1_545
Li0 O7 2.137979 1_455
Li0 O5 2.137979 1_545
Li0 O4 2.156942 1_555
Li0 O3 2.156942 1_445
Li1 O6 2.137979 1_455
Li1 O1 2.137979 1_554
Li1 O2 2.137979 1_455
Li1 O5 2.137979 1_554
Li1 O4 2.156942 1_555
Li1 O3 2.156942 1_454
Li2 O6 2.137979 1_545
Li2 O1 2.137979 1_554
Li2 O0 2.137979 1_545
Li2 O7 2.137979 1_554
Li2 O4 2.156942 1_555
Li2 O3 2.156942 1_544
Co0 O3 1.936623 1_455
Co0 O4 1.936623 1_555
Co0 O6 1.952022 1_455
Co0 O1 1.952022 1_555
Co0 O0 1.952022 1_555
Co0 O7 1.952022 1_455
Co1 O3 1.936623 1_554
Co1 O4 1.936623 1_555
Co1 O7 1.952022 1_554
Co1 O2 1.952022 1_555
Co1 O0 1.952022 1_555
Co1 O5 1.952022 1_554
Co2 O3 1.936623 1_545
Co2 O4 1.936623 1_555
Co2 O6 1.952022 1_545
Co2 O1 1.952022 1_555
Co2 O5 1.952022 1_545
Co2 O2 1.952022 1_555
O0 Ti0 1.957151 1_565
O1 Ti0 1.957152 1_556
O2 Ti0 1.957151 1_655
O5 Ti0 1.957151 1_566
O6 Ti0 1.957152 1_665
O7 Ti0 1.957151 1_656
