# generated using pymatgen
data_Sn2N2O
_symmetry_space_group_name_H-M   'P 1'
_cell_length_a   8.85181400
_cell_length_b   8.85369010
_cell_length_c   8.85845561
_cell_angle_alpha   109.55405564
_cell_angle_beta   109.51343367
_cell_angle_gamma   109.21073575
_symmetry_Int_Tables_number   1
_chemical_formula_structural   Sn2N2O
_chemical_formula_sum   'Sn16 N16 O8'
_cell_volume   535.31944810
_cell_formula_units_Z   8
loop_
 _symmetry_equiv_pos_site_id
 _symmetry_equiv_pos_as_xyz
  1  'x, y, z'
loop_
 _atom_site_type_symbol
 _atom_site_label
 _atom_site_symmetry_multiplicity
 _atom_site_fract_x
 _atom_site_fract_y
 _atom_site_fract_z
 _atom_site_occupancy
  Sn  Sn0  1  0.02168500  0.28355700  0.24345700  1
  Sn  Sn1  1  0.01028700  0.49821600  0.00441800  1
  Sn  Sn2  1  0.21684100  0.75201100  0.45376200  1
  Sn  Sn3  1  0.27523900  0.23660700  0.02137400  1
  Sn  Sn4  1  0.76217500  0.03197300  0.78652800  1
  Sn  Sn5  1  0.74663200  0.51993800  0.27700700  1
  Sn  Sn6  1  0.51017900  0.50217400  0.50694900  1
  Sn  Sn7  1  0.00378700  0.00917500  0.50265100  1
  Sn  Sn8  1  0.50175100  0.00269900  0.00885500  1
  Sn  Sn9  1  0.53319400  0.79186800  0.25328200  1
  Sn  Sn10  1  0.45841600  0.21734900  0.74818100  1
  Sn  Sn11  1  0.24996200  0.46288800  0.72609100  1
  Sn  Sn12  1  0.26004500  0.96888600  0.22221700  1
  Sn  Sn13  1  0.70512100  0.74694500  0.95682900  1
  Sn  Sn14  1  0.79043800  0.25264100  0.52616500  1
  Sn  Sn15  1  0.96284800  0.71320200  0.74901900  1
  N  N0  1  0.53601900  0.26766200  0.03266400  1
  N  N1  1  0.96041200  0.50179700  0.23342700  1
  N  N2  1  0.22964200  0.00347200  0.45768600  1
  N  N3  1  0.76444200  0.03715200  0.03790300  1
  N  N4  1  0.00596900  0.24020700  0.45598400  1
  N  N5  1  0.50228500  0.45762000  0.72799400  1
  N  N6  1  0.27328800  0.72676600  0.22957900  1
  N  N7  1  0.21717500  0.95556600  0.96010500  1
  N  N8  1  0.76902700  0.99722700  0.53698100  1
  N  N9  1  0.73741500  0.77059400  0.72914000  1
  N  N10  1  0.22219300  0.23024200  0.77046100  1
  N  N11  1  0.54096400  0.05197900  0.27798400  1
  N  N12  1  0.04312800  0.26509200  0.00171300  1
  N  N13  1  0.73272000  0.46112800  0.48854400  1
  N  N14  1  0.45670600  0.72638800  0.96577200  1
  N  N15  1  0.03405000  0.50196500  0.77427500  1
  O  O0  1  0.28455700  0.55645200  0.50355500  1
  O  O1  1  0.95015700  0.72860500  0.01411900  1
  O  O2  1  0.45507900  0.94869500  0.71843100  1
  O  O3  1  0.77121200  0.75590900  0.22850300  1
  O  O4  1  0.27718900  0.23958600  0.28102700  1
  O  O5  1  0.01105500  0.77943800  0.54822000  1
  O  O6  1  0.49526400  0.54190100  0.26674200  1
  O  O7  1  0.72145000  0.26442700  0.77240500  1
loop_
_geom_bond_atom_site_label_1
_geom_bond_atom_site_label_2
_geom_bond_distance
_geom_bond_site_symmetry_2
N0 Sn5 2.115942 1_555
N0 Sn8 2.190323 1_555
N0 Sn3 2.196333 1_555
N0 Sn10 2.216259 1_554
N1 Sn5 2.098175 1_555
N1 Sn2 2.169385 1_655
N1 Sn0 2.192710 1_655
N1 Sn1 2.208140 1_655
N2 Sn12 2.125754 1_545
N2 Sn7 2.177861 1_555
N2 Sn2 2.179510 1_545
N2 Sn10 2.245421 1_555
N3 Sn0 2.135841 1_655
N3 Sn8 2.155735 1_555
N3 Sn4 2.205065 1_554
N3 Sn13 2.240154 1_544
N4 Sn0 2.081969 1_555
N4 Sn11 2.205554 1_555
N4 Sn7 2.213742 1_555
N4 Sn14 2.218842 1_455
N5 Sn10 2.113179 1_555
N5 Sn6 2.141267 1_555
N5 Sn13 2.227235 1_555
N5 Sn11 2.243877 1_555
N6 Sn9 2.095914 1_555
N6 Sn1 2.142145 1_555
N6 Sn2 2.163964 1_555
N6 Sn12 2.206150 1_555
N7 Sn15 2.119423 1_455
N7 Sn12 2.178942 1_556
N7 Sn3 2.195026 1_566
N7 Sn8 2.273087 1_566
N8 Sn4 2.152139 1_565
N8 Sn7 2.172792 1_665
N8 Sn9 2.217703 1_555
N8 Sn14 2.243647 1_565
N9 Sn4 2.113322 1_565
N9 Sn6 2.155449 1_555
N9 Sn15 2.182571 1_555
N9 Sn13 2.195956 1_555
N10 Sn3 2.089393 1_556
N10 Sn7 2.129373 1_555
N10 Sn11 2.175056 1_555
N10 Sn10 2.200448 1_555
N11 Sn14 2.103929 1_555
N11 Sn8 2.155419 1_555
N11 Sn12 2.168142 1_545
N11 Sn9 2.214619 1_545
N12 Sn3 2.108714 1_555
N12 Sn0 2.169401 1_555
N12 Sn1 2.170626 1_555
N12 Sn4 2.213572 1_454
N13 Sn5 2.136081 1_555
N13 Sn6 2.164516 1_555
N13 Sn14 2.167493 1_555
N13 Sn15 2.208062 1_555
N14 Sn11 2.139764 1_555
N14 Sn13 2.176538 1_555
N14 Sn9 2.209637 1_556
N14 Sn8 2.218290 1_566
N15 Sn1 2.128117 1_556
N15 Sn14 2.192489 1_455
N15 Sn11 2.199068 1_555
N15 Sn15 2.215094 1_455
O0 Sn2 2.137577 1_555
O0 Sn6 2.195830 1_555
O0 Sn0 2.356461 1_555
O0 Sn11 2.448592 1_555
O1 Sn13 2.130751 1_554
O1 Sn1 2.253695 1_655
O1 Sn15 2.349050 1_554
O1 Sn12 2.367454 1_655
O2 Sn2 2.126931 1_555
O2 Sn10 2.292797 1_565
O2 Sn8 2.314012 1_566
O2 Sn4 2.363214 1_565
O3 Sn5 2.227325 1_555
O3 Sn13 2.245295 1_554
O3 Sn7 2.267357 1_665
O3 Sn9 2.300464 1_555
O4 Sn6 2.153232 1_555
O4 Sn12 2.215989 1_545
O4 Sn3 2.285636 1_555
O4 Sn0 2.353891 1_555
O5 Sn15 2.175011 1_455
O5 Sn7 2.218719 1_565
O5 Sn2 2.291421 1_555
O5 Sn5 2.353428 1_455
O6 Sn9 2.176989 1_555
O6 Sn6 2.238934 1_555
O6 Sn5 2.271209 1_555
O6 Sn3 2.366113 1_555
O7 Sn10 2.146760 1_555
O7 Sn4 2.238694 1_555
O7 Sn1 2.281353 1_656
O7 Sn14 2.433384 1_555
