# generated using pymatgen
data_Li4MnFe3(BO3)4
_symmetry_space_group_name_H-M   'P 1'
_cell_length_a   5.23693100
_cell_length_b   9.05210455
_cell_length_c   10.40760613
_cell_angle_alpha   88.83324219
_cell_angle_beta   89.11231974
_cell_angle_gamma   89.82431664
_symmetry_Int_Tables_number   1
_chemical_formula_structural   Li4MnFe3(BO3)4
_chemical_formula_sum   'Li8 Mn2 Fe6 B8 O24'
_cell_volume   493.21177840
_cell_formula_units_Z   2
loop_
 _symmetry_equiv_pos_site_id
 _symmetry_equiv_pos_as_xyz
  1  'x, y, z'
loop_
 _atom_site_type_symbol
 _atom_site_label
 _atom_site_symmetry_multiplicity
 _atom_site_fract_x
 _atom_site_fract_y
 _atom_site_fract_z
 _atom_site_occupancy
  Li  Li0  1  0.15128000  0.17459600  0.66939900  1
  Li  Li1  1  0.18455100  0.16294500  0.16578800  1
  Li  Li2  1  0.32076100  0.33117400  0.41591900  1
  Li  Li3  1  0.33583200  0.32423900  0.91652900  1
  Li  Li4  1  0.64984000  0.67317400  0.66580900  1
  Li  Li5  1  0.68708600  0.66146800  0.16899200  1
  Li  Li6  1  0.81882500  0.83042400  0.41673700  1
  Li  Li7  1  0.83505300  0.82636600  0.91704200  1
  Mn  Mn0  1  0.67448700  0.99912000  0.13461800  1
  Mn  Mn1  1  0.83210500  0.49752400  0.88436400  1
  Fe  Fe0  1  0.18517100  0.50003200  0.13299300  1
  Fe  Fe1  1  0.15590400  0.83980900  0.63191400  1
  Fe  Fe2  1  0.32046100  0.66644700  0.38252300  1
  Fe  Fe3  1  0.33821900  0.99182900  0.87926800  1
  Fe  Fe4  1  0.65490200  0.33997300  0.63157500  1
  Fe  Fe5  1  0.83777000  0.16613700  0.38521500  1
  B  B0  1  0.17163500  0.83006100  0.12467100  1
  B  B1  1  0.16033000  0.50216300  0.62536100  1
  B  B2  1  0.33594600  0.99699400  0.37746500  1
  B  B3  1  0.32924800  0.66772300  0.87548900  1
  B  B4  1  0.67508300  0.33254800  0.12907700  1
  B  B5  1  0.66340300  0.00172400  0.62519700  1
  B  B6  1  0.83304800  0.49699000  0.37626800  1
  B  B7  1  0.82622100  0.16505700  0.87400700  1
  O  O0  1  0.09617200  0.48389900  0.34748900  1
  O  O1  1  0.08899400  0.17237400  0.86189600  1
  O  O2  1  0.17407200  0.79071900  0.84491500  1
  O  O3  1  0.19603200  0.87272300  0.41710300  1
  O  O4  1  0.21389400  0.13251700  0.36324400  1
  O  O5  1  0.21897500  0.53532600  0.91871100  1
  O  O6  1  0.27652300  0.36420000  0.61261400  1
  O  O7  1  0.28574000  0.96650500  0.09488000  1
  O  O8  1  0.30302200  0.62921700  0.59721600  1
  O  O9  1  0.31981800  0.70981800  0.16579400  1
  O  O10  1  0.41129100  0.32092600  0.11535100  1
  O  O11  1  0.40737000  0.01172900  0.66313100  1
  O  O12  1  0.59629600  0.98521000  0.34874700  1
  O  O13  1  0.59090900  0.67970200  0.86040600  1
  O  O14  1  0.67481200  0.28880500  0.84365100  1
  O  O15  1  0.69297200  0.37249700  0.41665100  1
  O  O16  1  0.71387300  0.63264600  0.36242400  1
  O  O17  1  0.70757900  0.03394600  0.91579900  1
  O  O18  1  0.79496800  0.46680000  0.09816100  1
  O  O19  1  0.77826800  0.86399000  0.61300700  1
  O  O20  1  0.80625300  0.12926200  0.59633400  1
  O  O21  1  0.81876100  0.21073900  0.16839300  1
  O  O22  1  0.91032700  0.81535600  0.11123100  1
  O  O23  1  0.90531800  0.51198000  0.66423600  1
loop_
_geom_bond_atom_site_label_1
_geom_bond_atom_site_label_2
_geom_bond_distance
_geom_bond_site_symmetry_2
Li0 O6 1.918017 1_555
Li0 O11 1.991352 1_555
Li0 O20 2.017749 1_455
Li0 O1 2.024524 1_555
Li1 O10 1.921229 1_555
Li1 O21 1.962469 1_455
Li1 O7 2.005731 1_545
Li1 O4 2.075852 1_555
Li2 O0 1.943633 1_555
Li2 O4 1.975687 1_555
Li2 O15 1.986096 1_555
Li2 O6 2.084122 1_555
Li3 O14 1.947888 1_555
Li3 O1 1.987362 1_555
Li3 O5 2.005063 1_555
Li3 O10 2.112259 1_556
Li4 O19 1.922207 1_555
Li4 O23 1.976797 1_555
Li4 O8 2.005729 1_555
Li4 O13 2.045954 1_555
Li5 O22 1.903355 1_555
Li5 O9 1.971850 1_555
Li5 O18 2.000428 1_555
Li5 O16 2.031677 1_555
Li6 O12 1.948628 1_555
Li6 O16 1.970708 1_555
Li6 O3 2.013402 1_655
Li6 O19 2.078821 1_555
Li7 O2 1.945455 1_655
Li7 O13 1.952018 1_555
Li7 O17 1.992029 1_565
Li7 O22 2.065475 1_556
Mn0 O22 2.084780 1_555
Mn0 O21 2.099635 1_565
Mn0 O7 2.106563 1_555
Mn0 O12 2.260679 1_555
Mn0 O17 2.296683 1_564
Mn1 O13 2.087442 1_555
Mn1 O5 2.093149 1_655
Mn1 O14 2.116759 1_555
Mn1 O18 2.242327 1_556
Mn1 O23 2.318128 1_555
Fe0 O10 2.014489 1_555
Fe0 O9 2.064473 1_555
Fe0 O18 2.104478 1_455
Fe0 O5 2.250807 1_554
Fe0 O0 2.275308 1_555
Fe1 O19 2.001349 1_455
Fe1 O11 2.075596 1_565
Fe1 O8 2.090069 1_555
Fe1 O2 2.255440 1_555
Fe1 O3 2.256068 1_555
Fe2 O3 2.013290 1_555
Fe2 O0 2.071927 1_555
Fe2 O16 2.089852 1_555
Fe2 O8 2.253406 1_555
Fe2 O9 2.281704 1_555
Fe3 O17 2.016105 1_565
Fe3 O2 2.055850 1_555
Fe3 O1 2.095076 1_565
Fe3 O7 2.263618 1_556
Fe3 O11 2.276480 1_565
Fe4 O6 2.005304 1_555
Fe4 O23 2.075467 1_555
Fe4 O20 2.100253 1_555
Fe4 O14 2.249967 1_555
Fe4 O15 2.256019 1_555
Fe5 O4 2.002490 1_655
Fe5 O15 2.044497 1_555
Fe5 O12 2.116223 1_545
Fe5 O20 2.219408 1_555
Fe5 O21 2.287960 1_555
B0 O22 1.384829 1_455
B0 O9 1.398663 1_555
B0 O7 1.400673 1_555
B1 O23 1.392514 1_455
B1 O6 1.395382 1_555
B1 O8 1.397042 1_555
B2 O4 1.387856 1_565
B2 O12 1.395509 1_555
B2 O3 1.396169 1_555
B3 O13 1.381187 1_555
B3 O5 1.395143 1_555
B3 O2 1.410419 1_555
B4 O21 1.391205 1_555
B4 O10 1.395538 1_555
B4 O18 1.398950 1_555
B5 O19 1.389925 1_545
B5 O11 1.395062 1_555
B5 O20 1.402475 1_555
B6 O16 1.381692 1_555
B6 O15 1.400340 1_555
B6 O0 1.410741 1_655
B7 O1 1.381607 1_655
B7 O17 1.399613 1_555
B7 O14 1.404008 1_555
