# generated using pymatgen
data_NbOF3
_symmetry_space_group_name_H-M   'P 1'
_cell_length_a   6.69776200
_cell_length_b   7.81210899
_cell_length_c   8.75317425
_cell_angle_alpha   98.79964476
_cell_angle_beta   111.08720460
_cell_angle_gamma   108.58937636
_symmetry_Int_Tables_number   1
_chemical_formula_structural   NbOF3
_chemical_formula_sum   'Nb4 O4 F12'
_cell_volume   386.03406806
_cell_formula_units_Z   4
loop_
 _symmetry_equiv_pos_site_id
 _symmetry_equiv_pos_as_xyz
  1  'x, y, z'
loop_
 _atom_site_type_symbol
 _atom_site_label
 _atom_site_symmetry_multiplicity
 _atom_site_fract_x
 _atom_site_fract_y
 _atom_site_fract_z
 _atom_site_occupancy
  Nb  Nb0  1  0.51420400  0.53991100  0.20943500  1
  Nb  Nb1  1  0.33882400  0.10490800  0.36929900  1
  Nb  Nb2  1  0.66117600  0.89509200  0.63070100  1
  Nb  Nb3  1  0.48579600  0.46008900  0.79056500  1
  O  O0  1  0.58438200  0.73408800  0.39107000  1
  O  O1  1  0.43154700  0.31375300  0.30030000  1
  O  O2  1  0.56845300  0.68624700  0.69970000  1
  O  O3  1  0.41561800  0.26591200  0.60893000  1
  F  F0  1  0.56128100  0.67705000  0.04098400  1
  F  F1  1  0.28278700  0.91506800  0.17729100  1
  F  F2  1  0.18445100  0.45701300  0.08992100  1
  F  F3  1  0.81301700  0.52926800  0.27167800  1
  F  F4  1  0.98241800  0.95298900  0.69310200  1
  F  F5  1  0.67236500  0.11190700  0.49442000  1
  F  F6  1  0.32763500  0.88809300  0.50558000  1
  F  F7  1  0.01758200  0.04701100  0.30689800  1
  F  F8  1  0.18698300  0.47073200  0.72832200  1
  F  F9  1  0.81554900  0.54298700  0.91007900  1
  F  F10  1  0.71721300  0.08493200  0.82270900  1
  F  F11  1  0.43871900  0.32295000  0.95901600  1
loop_
_geom_bond_atom_site_label_1
_geom_bond_atom_site_label_2
_geom_bond_distance
_geom_bond_site_symmetry_2
Nb0 O0 1.821953 1_555
Nb0 O1 2.045418 1_555
Nb1 O1 1.826935 1_555
Nb1 O3 2.061607 1_555
Nb2 O2 1.826935 1_555
Nb2 O0 2.061607 1_555
Nb3 O3 1.821953 1_555
Nb3 O2 2.045418 1_555
F0 Nb0 2.005937 1_555
F0 Nb3 2.335076 1_554
F1 Nb1 1.895675 1_565
F2 Nb0 1.899987 1_555
F3 Nb0 1.909081 1_555
F4 Nb2 1.894889 1_555
F5 Nb1 2.082393 1_555
F5 Nb2 2.213390 1_545
F6 Nb2 2.082393 1_555
F6 Nb1 2.213390 1_565
F7 Nb1 1.894889 1_555
F8 Nb3 1.909081 1_555
F9 Nb3 1.899987 1_555
F10 Nb2 1.895675 1_545
F11 Nb3 2.005937 1_555
F11 Nb0 2.335076 1_556
