# generated using pymatgen
data_Li2MnFe(BO3)2
_symmetry_space_group_name_H-M   'P 1'
_cell_length_a   6.31255700
_cell_length_b   8.26073100
_cell_length_c   8.26888446
_cell_angle_alpha   60.03978293
_cell_angle_beta   90.00000000
_cell_angle_gamma   90.00000000
_symmetry_Int_Tables_number   1
_chemical_formula_structural   Li2MnFe(BO3)2
_chemical_formula_sum   'Li6 Mn3 Fe3 B6 O18'
_cell_volume   373.57285228
_cell_formula_units_Z   3
loop_
 _symmetry_equiv_pos_site_id
 _symmetry_equiv_pos_as_xyz
  1  'x, y, z'
loop_
 _atom_site_type_symbol
 _atom_site_label
 _atom_site_symmetry_multiplicity
 _atom_site_fract_x
 _atom_site_fract_y
 _atom_site_fract_z
 _atom_site_occupancy
  Li  Li0  1  0.25019800  0.98276900  0.30193300  1
  Li  Li1  1  0.74980200  0.98276900  0.30193300  1
  Li  Li2  1  0.25086800  0.30178900  0.71525000  1
  Li  Li3  1  0.74913200  0.30178900  0.71525000  1
  Li  Li4  1  0.75006500  0.71515900  0.98316900  1
  Li  Li5  1  0.24993500  0.71515900  0.98316900  1
  Mn  Mn0  1  0.50000000  0.36055500  0.01270400  1
  Mn  Mn1  1  0.00000000  0.01265100  0.62820900  1
  Mn  Mn2  1  0.00000000  0.62813300  0.35945200  1
  Fe  Fe0  1  0.00000000  0.35928400  0.00724000  1
  Fe  Fe1  1  0.50000000  0.00731000  0.63274600  1
  Fe  Fe2  1  0.50000000  0.63248200  0.36000200  1
  B  B0  1  0.00000000  0.00008300  0.00265900  1
  B  B1  1  0.50000000  0.99975700  0.99745200  1
  B  B2  1  0.25192500  0.66666200  0.66660600  1
  B  B3  1  0.74807500  0.66666200  0.66660600  1
  B  B4  1  0.25145800  0.33339500  0.33328300  1
  B  B5  1  0.74854200  0.33339500  0.33328300  1
  O  O0  1  0.50000000  0.91486700  0.19198200  1
  O  O1  1  0.00000000  0.92106100  0.19552300  1
  O  O2  1  0.25449700  0.58064000  0.55896000  1
  O  O3  1  0.74550300  0.58064000  0.55896000  1
  O  O4  1  0.00000000  0.19507300  0.88893400  1
  O  O5  1  0.50000000  0.19279500  0.88737800  1
  O  O6  1  0.25376800  0.86039000  0.58079500  1
  O  O7  1  0.74623200  0.86039000  0.58079500  1
  O  O8  1  0.24601500  0.55902400  0.86012600  1
  O  O9  1  0.75398500  0.55902400  0.86012600  1
  O  O10  1  0.24801100  0.25246100  0.22046700  1
  O  O11  1  0.75198900  0.25246100  0.22046700  1
  O  O12  1  0.00000000  0.88756700  0.92164900  1
  O  O13  1  0.50000000  0.88823500  0.91437900  1
  O  O14  1  0.25228400  0.52712800  0.25242500  1
  O  O15  1  0.74771600  0.52712800  0.25242500  1
  O  O16  1  0.74680400  0.22065900  0.52682700  1
  O  O17  1  0.25319600  0.22065900  0.52682700  1
loop_
_geom_bond_atom_site_label_1
_geom_bond_atom_site_label_2
_geom_bond_distance
_geom_bond_site_symmetry_2
Li0 O10 1.979483 1_565
Li0 O1 1.994120 1_555
Li0 O6 2.002818 1_555
Li0 O0 2.034002 1_555
Li1 O11 1.979483 1_565
Li1 O1 1.994120 1_655
Li1 O7 2.002818 1_555
Li1 O0 2.034002 1_555
Li2 O17 1.979855 1_555
Li2 O2 2.000875 1_555
Li2 O5 2.007428 1_555
Li2 O4 2.020652 1_555
Li3 O16 1.979855 1_555
Li3 O3 2.000875 1_555
Li3 O5 2.007428 1_555
Li3 O4 2.020652 1_655
Li4 O15 1.978844 1_556
Li4 O9 2.002503 1_555
Li4 O13 2.011774 1_555
Li4 O12 2.013149 1_655
Li5 O14 1.978844 1_556
Li5 O8 2.002503 1_555
Li5 O13 2.011774 1_555
Li5 O12 2.013149 1_555
Mn0 O5 2.104480 1_554
Mn0 O11 2.178731 1_555
Mn0 O10 2.178731 1_555
Mn0 O9 2.187301 1_554
Mn0 O8 2.187301 1_554
Mn1 O12 2.109746 1_545
Mn1 O17 2.184305 1_555
Mn1 O16 2.184305 1_455
Mn1 O6 2.189621 1_545
Mn1 O7 2.189621 1_445
Mn2 O1 2.101599 1_555
Mn2 O14 2.180175 1_555
Mn2 O15 2.180175 1_455
Mn2 O2 2.193158 1_555
Mn2 O3 2.193158 1_455
Fe0 O4 2.030395 1_554
Fe0 O8 2.146926 1_554
Fe0 O9 2.146926 1_454
Fe0 O10 2.187338 1_555
Fe0 O11 2.187338 1_455
Fe1 O13 2.025556 1_545
Fe1 O7 2.143426 1_545
Fe1 O6 2.143426 1_545
Fe1 O16 2.181451 1_555
Fe1 O17 2.181451 1_555
Fe2 O0 2.033411 1_555
Fe2 O3 2.141959 1_555
Fe2 O2 2.141959 1_555
Fe2 O15 2.183385 1_555
Fe2 O14 2.183385 1_555
B0 O1 1.389112 1_545
B0 O12 1.390857 1_544
B0 O4 1.402126 1_554
B1 O5 1.386229 1_565
B1 O0 1.397331 1_556
B1 O13 1.397367 1_555
B2 O2 1.388985 1_555
B2 O6 1.389430 1_555
B2 O8 1.389786 1_555
B3 O3 1.388985 1_555
B3 O7 1.389430 1_555
B3 O9 1.389786 1_555
B4 O14 1.392671 1_555
B4 O17 1.392853 1_555
B4 O10 1.393067 1_555
B5 O15 1.392671 1_555
B5 O16 1.392853 1_555
B5 O11 1.393067 1_555
