# generated using pymatgen
data_LiV2(SiO4)2
_symmetry_space_group_name_H-M   'P 1'
_cell_length_a   5.73328200
_cell_length_b   5.82755400
_cell_length_c   7.98669100
_cell_angle_alpha   90.00000000
_cell_angle_beta   90.00000000
_cell_angle_gamma   90.00000000
_symmetry_Int_Tables_number   1
_chemical_formula_structural   LiV2(SiO4)2
_chemical_formula_sum   'Li2 V4 Si4 O16'
_cell_volume   266.84341648
_cell_formula_units_Z   2
loop_
 _symmetry_equiv_pos_site_id
 _symmetry_equiv_pos_as_xyz
  1  'x, y, z'
loop_
 _atom_site_type_symbol
 _atom_site_label
 _atom_site_symmetry_multiplicity
 _atom_site_fract_x
 _atom_site_fract_y
 _atom_site_fract_z
 _atom_site_occupancy
  Li  Li0  1  0.00000000  0.82563300  0.75000000  1
  Li  Li1  1  0.00000000  0.17436700  0.25000000  1
  V  V0  1  0.77999900  0.50000000  0.00000000  1
  V  V1  1  0.22000100  0.50000000  0.50000000  1
  V  V2  1  0.50000000  0.78466700  0.75000000  1
  V  V3  1  0.50000000  0.21533300  0.25000000  1
  Si  Si0  1  0.74032900  0.73475700  0.37680800  1
  Si  Si1  1  0.25967100  0.73475700  0.12319200  1
  Si  Si2  1  0.74032900  0.26524300  0.62319200  1
  Si  Si3  1  0.25967100  0.26524300  0.87680800  1
  O  O0  1  0.73985100  0.50477200  0.24567500  1
  O  O1  1  0.26014900  0.50477200  0.25432500  1
  O  O2  1  0.50482800  0.72166900  0.50260000  1
  O  O3  1  0.49517200  0.72166900  0.99740000  1
  O  O4  1  0.98396000  0.72345900  0.48937500  1
  O  O5  1  0.01604000  0.72345900  0.01062500  1
  O  O6  1  0.73783300  0.97537200  0.27641300  1
  O  O7  1  0.26216700  0.97537200  0.22358700  1
  O  O8  1  0.73783300  0.02462800  0.72358700  1
  O  O9  1  0.26216700  0.02462800  0.77641300  1
  O  O10  1  0.98396000  0.27654100  0.51062500  1
  O  O11  1  0.01604000  0.27654100  0.98937500  1
  O  O12  1  0.49517200  0.27833100  0.00260000  1
  O  O13  1  0.50482800  0.27833100  0.49740000  1
  O  O14  1  0.73985100  0.49522800  0.75432500  1
  O  O15  1  0.26014900  0.49522800  0.74567500  1
loop_
_geom_bond_atom_site_label_1
_geom_bond_atom_site_label_2
_geom_bond_distance
_geom_bond_site_symmetry_2
Li0 O9 1.910115 1_565
Li0 O8 1.910115 1_465
Li0 O4 2.166970 1_455
Li0 O5 2.166970 1_556
Li0 O15 2.435807 1_555
Li0 O14 2.435807 1_455
Li1 O7 1.910115 1_545
Li1 O6 1.910115 1_445
Li1 O10 2.166970 1_455
Li1 O11 2.166970 1_554
Li1 O1 2.435807 1_555
Li1 O0 2.435807 1_455
O0 Si0 1.700927 1_555
O0 V0 1.975781 1_555
O0 V3 2.176514 1_555
O1 Si1 1.700927 1_555
O1 V1 1.975781 1_555
O1 V3 2.176514 1_555
O2 Si0 1.684692 1_555
O2 V2 2.009914 1_555
O2 V1 2.082262 1_555
O3 Si1 1.684692 1_556
O3 V2 2.009914 1_555
O3 V0 2.082262 1_556
O4 Si0 1.662429 1_555
O4 V1 1.879992 1_655
O5 Si1 1.662429 1_555
O5 V0 1.879992 1_455
O6 Si0 1.615327 1_555
O6 V3 1.964507 1_565
O7 Si1 1.615327 1_555
O7 V3 1.964507 1_565
O8 Si2 1.615327 1_555
O8 V2 1.964507 1_545
O9 Si3 1.615327 1_555
O9 V2 1.964507 1_545
O10 Si2 1.662429 1_555
O10 V1 1.879992 1_655
O11 Si3 1.662429 1_555
O11 V0 1.879992 1_456
O12 Si3 1.684692 1_554
O12 V3 2.009914 1_555
O12 V0 2.082262 1_555
O13 Si2 1.684692 1_555
O13 V3 2.009914 1_555
O13 V1 2.082262 1_555
O14 Si2 1.700927 1_555
O14 V0 1.975781 1_556
O14 V2 2.176514 1_555
O15 Si3 1.700927 1_555
O15 V1 1.975781 1_555
O15 V2 2.176514 1_555
