# generated using pymatgen
data_FeOF
_symmetry_space_group_name_H-M   'P 1'
_cell_length_a   14.22878627
_cell_length_b   9.48969511
_cell_length_c   3.09614500
_cell_angle_alpha   90.00000000
_cell_angle_beta   90.00000000
_cell_angle_gamma   90.33745134
_symmetry_Int_Tables_number   1
_chemical_formula_structural   FeOF
_chemical_formula_sum   'Fe12 O12 F12'
_cell_volume   418.05543553
_cell_formula_units_Z   12
loop_
 _symmetry_equiv_pos_site_id
 _symmetry_equiv_pos_as_xyz
  1  'x, y, z'
loop_
 _atom_site_type_symbol
 _atom_site_label
 _atom_site_symmetry_multiplicity
 _atom_site_fract_x
 _atom_site_fract_y
 _atom_site_fract_z
 _atom_site_occupancy
  Fe  Fe0  1  0.00843000  0.98932300  0.00000000  1
  Fe  Fe1  1  0.00604800  0.50342100  0.00000000  1
  Fe  Fe2  1  0.16637600  0.27884800  0.50000000  1
  Fe  Fe3  1  0.15267900  0.74722500  0.50000000  1
  Fe  Fe4  1  0.34290900  0.99583000  0.00000000  1
  Fe  Fe5  1  0.33505700  0.48735500  0.00000000  1
  Fe  Fe6  1  0.50428700  0.77479800  0.50000000  1
  Fe  Fe7  1  0.48203200  0.25275300  0.50000000  1
  Fe  Fe8  1  0.66918300  0.99864800  0.00000000  1
  Fe  Fe9  1  0.67874600  0.49660000  0.00000000  1
  Fe  Fe10  1  0.81869600  0.24321900  0.50000000  1
  Fe  Fe11  1  0.83592300  0.71674300  0.50000000  1
  O  O0  1  0.06087400  0.39730500  0.50000000  1
  O  O1  1  0.06555800  0.90518600  0.50000000  1
  O  O2  1  0.10522300  0.65347200  0.00000000  1
  O  O3  1  0.23347000  0.35081600  0.00000000  1
  O  O4  1  0.40138800  0.41392100  0.50000000  1
  O  O5  1  0.39633100  0.90046100  0.50000000  1
  O  O6  1  0.43332300  0.15433000  0.00000000  1
  O  O7  1  0.57134600  0.85386600  0.00000000  1
  O  O8  1  0.73055300  0.40042200  0.50000000  1
  O  O9  1  0.76643700  0.14226600  0.00000000  1
  O  O10  1  0.76347300  0.65765700  0.00000000  1
  O  O11  1  0.93606600  0.59262900  0.50000000  1
  F  F0  1  0.10013600  0.15239000  0.00000000  1
  F  F1  1  0.23149300  0.85203100  0.00000000  1
  F  F2  1  0.26324500  0.09388500  0.50000000  1
  F  F3  1  0.27304600  0.60751100  0.50000000  1
  F  F4  1  0.43824100  0.65891800  0.00000000  1
  F  F5  1  0.56495000  0.34661700  0.00000000  1
  F  F6  1  0.60361700  0.10026900  0.50000000  1
  F  F7  1  0.59726100  0.59462600  0.50000000  1
  F  F8  1  0.73535800  0.90422800  0.50000000  1
  F  F9  1  0.89469100  0.33351000  0.00000000  1
  F  F10  1  0.89735200  0.85209000  0.00000000  1
  F  F11  1  0.93620400  0.09683300  0.50000000  1
loop_
_geom_bond_atom_site_label_1
_geom_bond_atom_site_label_2
_geom_bond_distance
_geom_bond_site_symmetry_2
Fe0 O1 1.924166 1_554
Fe0 O1 1.924166 1_555
Fe1 O2 1.998811 1_555
Fe1 O0 2.007091 1_555
Fe1 O0 2.007091 1_554
Fe1 O11 2.028461 1_455
Fe1 O11 2.028461 1_454
Fe2 O0 1.880697 1_555
Fe2 O3 1.940789 1_555
Fe2 O3 1.940789 1_556
Fe3 O2 1.907078 1_556
Fe3 O2 1.907078 1_555
Fe3 O1 1.950786 1_555
Fe4 O5 1.949743 1_555
Fe4 O5 1.949743 1_554
Fe4 O6 1.973476 1_565
Fe5 O3 1.935501 1_555
Fe5 O4 1.944396 1_555
Fe5 O4 1.944396 1_554
Fe6 O5 1.950177 1_555
Fe6 O7 1.965077 1_556
Fe6 O7 1.965077 1_555
Fe7 O4 1.917426 1_555
Fe7 O6 1.934325 1_556
Fe7 O6 1.934325 1_555
Fe8 O9 1.936537 1_565
Fe8 O7 1.950159 1_555
Fe9 O10 1.941038 1_555
Fe9 O8 1.944445 1_554
Fe9 O8 1.944445 1_555
Fe10 O8 1.954602 1_555
Fe10 O9 1.964393 1_556
Fe10 O9 1.964393 1_555
Fe11 O11 1.854014 1_555
Fe11 O10 1.940829 1_556
Fe11 O10 1.940829 1_555
F0 Fe0 2.018293 1_545
F0 Fe2 2.170635 1_555
F0 Fe2 2.170635 1_554
F1 Fe4 2.085641 1_555
F1 Fe3 2.151784 1_554
F1 Fe3 2.151784 1_555
F2 Fe4 2.135340 1_545
F2 Fe4 2.135340 1_546
F2 Fe2 2.238116 1_555
F3 Fe5 2.118268 1_555
F3 Fe5 2.118268 1_556
F3 Fe3 2.172065 1_555
F4 Fe6 2.115835 1_554
F4 Fe6 2.115835 1_555
F4 Fe5 2.185876 1_555
F5 Fe7 2.137651 1_555
F5 Fe7 2.137651 1_554
F5 Fe9 2.149502 1_555
F6 Fe8 2.051207 1_546
F6 Fe8 2.051207 1_545
F6 Fe7 2.261924 1_555
F7 Fe9 2.149153 1_556
F7 Fe9 2.149153 1_555
F7 Fe6 2.167963 1_555
F8 Fe8 2.023834 1_555
F8 Fe8 2.023834 1_556
F8 Fe11 2.289755 1_555
F9 Fe10 2.070996 1_554
F9 Fe10 2.070996 1_555
F9 Fe1 2.253955 1_655
F10 Fe0 2.041993 1_655
F10 Fe11 2.190199 1_554
F10 Fe11 2.190199 1_555
F11 Fe0 2.122712 1_645
F11 Fe0 2.122712 1_646
F11 Fe10 2.180067 1_555
