# generated using pymatgen
data_Li2MnVP2(O4F)2
_symmetry_space_group_name_H-M   'P 1'
_cell_length_a   5.20046700
_cell_length_b   10.48708181
_cell_length_c   10.50452860
_cell_angle_alpha   78.37343980
_cell_angle_beta   82.71480194
_cell_angle_gamma   80.53220334
_symmetry_Int_Tables_number   1
_chemical_formula_structural   Li2MnVP2(O4F)2
_chemical_formula_sum   'Li6 Mn3 V3 P6 O24 F6'
_cell_volume   550.88786054
_cell_formula_units_Z   3
loop_
 _symmetry_equiv_pos_site_id
 _symmetry_equiv_pos_as_xyz
  1  'x, y, z'
loop_
 _atom_site_type_symbol
 _atom_site_label
 _atom_site_symmetry_multiplicity
 _atom_site_fract_x
 _atom_site_fract_y
 _atom_site_fract_z
 _atom_site_occupancy
  Li  Li0  1  0.99574700  0.91956700  0.72983800  1
  Li  Li1  1  0.66679800  0.41292100  0.60202700  1
  Li  Li2  1  0.33269200  0.74631100  0.93390200  1
  Li  Li3  1  0.66730800  0.25368900  0.06609800  1
  Li  Li4  1  0.33320200  0.58707900  0.39797300  1
  Li  Li5  1  0.00425300  0.08043300  0.27016200  1
  Mn  Mn0  1  0.50000000  0.00000000  0.50000000  1
  Mn  Mn1  1  0.66800400  0.33396700  0.33276500  1
  Mn  Mn2  1  0.33199600  0.66603300  0.66723500  1
  V  V0  1  0.00000000  0.00000000  0.00000000  1
  V  V1  1  0.83194900  0.66808700  0.16682200  1
  V  V2  1  0.16805100  0.33191300  0.83317800  1
  P  P0  1  0.81218000  0.62688500  0.86341900  1
  P  P1  1  0.85169100  0.70580200  0.47102800  1
  P  P2  1  0.48239400  0.96246700  0.19973400  1
  P  P3  1  0.51760600  0.03753300  0.80026600  1
  P  P4  1  0.14830900  0.29419800  0.52897200  1
  P  P5  1  0.18782000  0.37311500  0.13658100  1
  O  O0  1  0.74250300  0.97397700  0.88733900  1
  O  O1  1  0.97203000  0.67643900  0.33483200  1
  O  O2  1  0.88065400  0.47865900  0.86617100  1
  O  O3  1  0.78043300  0.85327600  0.46910300  1
  O  O4  1  0.92367400  0.36038700  0.44185200  1
  O  O5  1  0.94186200  0.30011000  0.18371700  1
  O  O6  1  0.58896500  0.69235300  0.77573100  1
  O  O7  1  0.60755600  0.63106900  0.51911700  1
  O  O8  1  0.69359200  0.65794700  0.99889400  1
  O  O9  1  0.55006900  0.81468400  0.19988400  1
  O  O10  1  0.63681900  0.00704700  0.66459700  1
  O  O11  1  0.27652300  0.96271400  0.85138000  1
  O  O12  1  0.72347700  0.03728600  0.14862000  1
  O  O13  1  0.36318100  0.99295300  0.33540300  1
  O  O14  1  0.44993100  0.18531600  0.80011600  1
  O  O15  1  0.30640800  0.34205300  0.00110600  1
  O  O16  1  0.39244400  0.36893100  0.48088300  1
  O  O17  1  0.41103500  0.30764700  0.22426900  1
  O  O18  1  0.05813800  0.69989000  0.81628300  1
  O  O19  1  0.07632600  0.63961300  0.55814800  1
  O  O20  1  0.21956700  0.14672400  0.53089700  1
  O  O21  1  0.11934600  0.52134100  0.13382900  1
  O  O22  1  0.02797000  0.32356100  0.66516800  1
  O  O23  1  0.25749700  0.02602300  0.11266100  1
  F  F0  1  0.93278900  0.19859600  0.93740700  1
  F  F1  1  0.74863600  0.13091100  0.39599700  1
  F  F2  1  0.59489000  0.54031800  0.26794900  1
  F  F3  1  0.40511000  0.45968200  0.73205100  1
  F  F4  1  0.25136400  0.86908900  0.60400300  1
  F  F5  1  0.06721100  0.80140400  0.06259300  1
loop_
_geom_bond_atom_site_label_1
_geom_bond_atom_site_label_2
_geom_bond_distance
_geom_bond_site_symmetry_2
Li0 O10 2.074399 1_565
Li0 O0 2.092367 1_555
Li0 O11 2.211316 1_655
Li0 O18 2.285351 1_655
Li1 O22 2.081430 1_655
Li1 O4 2.116732 1_555
Li1 O16 2.186675 1_555
Li1 O7 2.262799 1_555
Li2 O8 2.084508 1_555
Li2 O6 2.103870 1_555
Li2 O18 2.172715 1_555
Li2 O11 2.245060 1_555
Li3 O15 2.084508 1_555
Li3 O17 2.103870 1_555
Li3 O5 2.172715 1_555
Li3 O12 2.245060 1_555
Li4 O1 2.081430 1_455
Li4 O19 2.116732 1_555
Li4 O7 2.186675 1_555
Li4 O16 2.262799 1_555
Li5 O13 2.074399 1_545
Li5 O23 2.092367 1_555
Li5 O12 2.211316 1_455
Li5 O5 2.285351 1_455
Mn0 O10 1.970285 1_555
Mn0 O13 1.970285 1_545
Mn0 O20 1.985656 1_555
Mn0 O3 1.985656 1_545
Mn1 O4 1.947638 1_555
Mn1 O17 1.948172 1_555
Mn1 O5 2.024333 1_555
Mn1 O16 2.024971 1_555
Mn2 O19 1.947638 1_555
Mn2 O6 1.948172 1_555
Mn2 O18 2.024333 1_555
Mn2 O7 2.024971 1_555
O0 P3 1.554950 1_565
O0 V0 1.980041 1_666
O1 P1 1.555763 1_555
O1 V1 2.015560 1_555
O2 P0 1.531787 1_555
O2 V2 2.012256 1_655
O3 P1 1.526553 1_555
O4 P4 1.559602 1_655
O5 P5 1.573583 1_655
O6 P0 1.556095 1_555
O7 P1 1.576851 1_555
O8 P0 1.552365 1_555
O8 V1 2.015790 1_556
O9 P2 1.531501 1_555
O9 V1 1.994416 1_555
O10 P3 1.553046 1_555
O11 P3 1.568093 1_565
O11 V0 2.037118 1_566
O12 P2 1.568093 1_545
O12 V0 2.037118 1_655
O13 P2 1.553046 1_555
O14 P3 1.531501 1_555
O14 V2 1.994416 1_555
O15 P5 1.552365 1_555
O15 V2 2.015790 1_554
O16 P4 1.576851 1_555
O17 P5 1.556095 1_555
O18 P0 1.573583 1_455
O19 P1 1.559602 1_455
O20 P4 1.526553 1_555
O21 P5 1.531787 1_555
O21 V1 2.012256 1_455
O22 P4 1.555763 1_555
O22 V2 2.015560 1_555
O23 P2 1.554950 1_545
O23 V0 1.980041 1_555
F0 Li3 1.909567 1_556
F0 V0 2.039348 1_656
F0 V2 2.063095 1_655
F1 Li5 1.843768 1_655
F1 Mn1 2.087681 1_555
F1 Mn0 2.090801 1_555
F2 Li4 1.880704 1_555
F2 V1 2.020220 1_555
F2 Mn1 2.119484 1_555
F3 Li1 1.880704 1_555
F3 V2 2.020220 1_555
F3 Mn2 2.119484 1_555
F4 Li0 1.843768 1_455
F4 Mn2 2.087681 1_555
F4 Mn0 2.090801 1_565
F5 Li2 1.909567 1_554
F5 V0 2.039348 1_565
F5 V1 2.063095 1_455
