# generated using pymatgen
data_Sr20P12Br(O16F)3
_symmetry_space_group_name_H-M   'P 1'
_cell_length_a   9.90943796
_cell_length_b   9.90943796
_cell_length_c   29.41626800
_cell_angle_alpha   90.00000000
_cell_angle_beta   90.00000000
_cell_angle_gamma   119.99999974
_symmetry_Int_Tables_number   1
_chemical_formula_structural   Sr20P12Br(O16F)3
_chemical_formula_sum   'Sr40 P24 Br2 O96 F6'
_cell_volume   2501.59069328
_cell_formula_units_Z   2
loop_
 _symmetry_equiv_pos_site_id
 _symmetry_equiv_pos_as_xyz
  1  'x, y, z'
loop_
 _atom_site_type_symbol
 _atom_site_label
 _atom_site_symmetry_multiplicity
 _atom_site_fract_x
 _atom_site_fract_y
 _atom_site_fract_z
 _atom_site_occupancy
  Sr  Sr0  1  0.25980400  0.98814800  0.06261200  1
  Sr  Sr1  1  0.24297900  0.99176500  0.56164400  1
  Sr  Sr2  1  0.23864600  0.99302000  0.31342100  1
  Sr  Sr3  1  0.24322000  0.99174500  0.81169300  1
  Sr  Sr4  1  0.01185200  0.27165600  0.06261200  1
  Sr  Sr5  1  0.00698000  0.24562500  0.31342100  1
  Sr  Sr6  1  0.00823500  0.25121400  0.56164400  1
  Sr  Sr7  1  0.00825500  0.25147500  0.81169300  1
  Sr  Sr8  1  0.33333300  0.66666700  0.12643300  1
  Sr  Sr9  1  0.33333300  0.66666700  0.37517000  1
  Sr  Sr10  1  0.33333300  0.66666700  0.25085000  1
  Sr  Sr11  1  0.33333300  0.66666700  0.62474400  1
  Sr  Sr12  1  0.33333300  0.66666700  0.49931200  1
  Sr  Sr13  1  0.33333300  0.66666700  0.87472200  1
  Sr  Sr14  1  0.33333300  0.66666700  0.74913600  1
  Sr  Sr15  1  0.33333300  0.66666700  0.99942600  1
  Sr  Sr16  1  0.26649700  0.25461500  0.18723200  1
  Sr  Sr17  1  0.24977800  0.24163500  0.43647000  1
  Sr  Sr18  1  0.25146500  0.24321800  0.68668800  1
  Sr  Sr19  1  0.25105200  0.24289500  0.93705500  1
  Sr  Sr20  1  0.72834400  0.74019600  0.06261200  1
  Sr  Sr21  1  0.74852500  0.75678000  0.81169300  1
  Sr  Sr22  1  0.75437500  0.76135400  0.31342100  1
  Sr  Sr23  1  0.74878600  0.75702100  0.56164400  1
  Sr  Sr24  1  0.66666700  0.33333300  0.99769700  1
  Sr  Sr25  1  0.66666700  0.33333300  0.12446600  1
  Sr  Sr26  1  0.66666700  0.33333300  0.25196000  1
  Sr  Sr27  1  0.66666700  0.33333300  0.50002100  1
  Sr  Sr28  1  0.66666700  0.33333300  0.37532000  1
  Sr  Sr29  1  0.66666700  0.33333300  0.87372100  1
  Sr  Sr30  1  0.66666700  0.33333300  0.74964900  1
  Sr  Sr31  1  0.66666700  0.33333300  0.62415700  1
  Sr  Sr32  1  0.98811800  0.73350300  0.18723200  1
  Sr  Sr33  1  0.99185800  0.75022200  0.43647000  1
  Sr  Sr34  1  0.99175300  0.74853500  0.68668800  1
  Sr  Sr35  1  0.99184400  0.74894800  0.93705500  1
  Sr  Sr36  1  0.74538500  0.01188200  0.18723200  1
  Sr  Sr37  1  0.75836500  0.00814200  0.43647000  1
  Sr  Sr38  1  0.75678200  0.00824700  0.68668800  1
  Sr  Sr39  1  0.75710500  0.00815600  0.93705500  1
  P  P0  1  0.03537800  0.40620200  0.18764100  1
  P  P1  1  0.02965300  0.39857000  0.43779400  1
  P  P2  1  0.02934200  0.39777700  0.68760600  1
  P  P3  1  0.02962400  0.39754900  0.93744700  1
  P  P4  1  0.37082400  0.96462200  0.18764100  1
  P  P5  1  0.36891700  0.97034700  0.43779400  1
  P  P6  1  0.36843500  0.97065800  0.68760600  1
  P  P7  1  0.36792500  0.97037600  0.93744700  1
  P  P8  1  0.39827800  0.36544000  0.06174900  1
  P  P9  1  0.40441000  0.37330900  0.31295700  1
  P  P10  1  0.39771000  0.36841100  0.56256500  1
  P  P11  1  0.39771300  0.36841600  0.81263700  1
  P  P12  1  0.59379800  0.62917600  0.18764100  1
  P  P13  1  0.60143000  0.63108300  0.43779400  1
  P  P14  1  0.60222300  0.63156500  0.68760600  1
  P  P15  1  0.60245100  0.63207500  0.93744700  1
  P  P16  1  0.63456000  0.03283800  0.06174900  1
  P  P17  1  0.62669100  0.03110200  0.31295700  1
  P  P18  1  0.63158900  0.02930000  0.56256500  1
  P  P19  1  0.63158400  0.02929700  0.81263700  1
  P  P20  1  0.96716200  0.60172200  0.06174900  1
  P  P21  1  0.96889800  0.59559000  0.31295700  1
  P  P22  1  0.97070000  0.60229000  0.56256500  1
  P  P23  1  0.97070300  0.60228700  0.81263700  1
  Br  Br0  1  0.00000000  0.00000000  0.11118000  1
  Br  Br1  1  0.00000000  0.00000000  0.23692400  1
  O  O0  1  0.26499500  0.91307600  0.14464300  1
  O  O1  1  0.26814900  0.91027900  0.23081900  1
  O  O2  1  0.26221600  0.91891700  0.39499800  1
  O  O3  1  0.26153300  0.91964700  0.64488200  1
  O  O4  1  0.26211800  0.91823400  0.73053800  1
  O  O5  1  0.26226300  0.91760600  0.48058700  1
  O  O6  1  0.26111300  0.91890800  0.89472300  1
  O  O7  1  0.26142100  0.91754700  0.98032600  1
  O  O8  1  0.14714600  0.66790400  0.06279500  1
  O  O9  1  0.14942500  0.66879800  0.31287800  1
  O  O10  1  0.15084700  0.67082400  0.56281800  1
  O  O11  1  0.15085300  0.67074700  0.81285700  1
  O  O12  1  0.12324000  0.58829300  0.18653700  1
  O  O13  1  0.11710500  0.58063900  0.43761500  1
  O  O14  1  0.11731800  0.57991900  0.68749600  1
  O  O15  1  0.11665400  0.57962800  0.93764200  1
  O  O16  1  0.08692400  0.35191900  0.14464300  1
  O  O17  1  0.08108300  0.34329900  0.39499800  1
  O  O18  1  0.08972100  0.35787100  0.23081900  1
  O  O19  1  0.08035300  0.34188600  0.64488200  1
  O  O20  1  0.08239400  0.34465700  0.48058700  1
  O  O21  1  0.08109200  0.34220500  0.89472300  1
  O  O22  1  0.08176600  0.34388400  0.73053800  1
  O  O23  1  0.08245300  0.34387400  0.98032600  1
  O  O24  1  0.46353400  0.88289500  0.43761500  1
  O  O25  1  0.46505300  0.87676000  0.18653700  1
  O  O26  1  0.46297300  0.88334600  0.93764200  1
  O  O27  1  0.46260100  0.88268200  0.68749600  1
  O  O28  1  0.33209600  0.47924300  0.06279500  1
  O  O29  1  0.33120200  0.48062700  0.31287800  1
  O  O30  1  0.32917600  0.48002300  0.56281800  1
  O  O31  1  0.32925300  0.48010600  0.81285700  1
  O  O32  1  0.52075700  0.85285400  0.06279500  1
  O  O33  1  0.51937300  0.85057500  0.31287800  1
  O  O34  1  0.51989400  0.84914700  0.81285700  1
  O  O35  1  0.51997700  0.84915300  0.56281800  1
  O  O36  1  0.41170700  0.53494700  0.18653700  1
  O  O37  1  0.41936100  0.53646600  0.43761500  1
  O  O38  1  0.42008100  0.53739900  0.68749600  1
  O  O39  1  0.42037200  0.53702700  0.93764200  1
  O  O40  1  0.36587900  0.27079500  0.10645100  1
  O  O41  1  0.32534200  0.24976300  0.02135100  1
  O  O42  1  0.34751600  0.26432800  0.35517100  1
  O  O43  1  0.35742600  0.27036600  0.26931900  1
  O  O44  1  0.34192500  0.26163700  0.51981600  1
  O  O45  1  0.34382700  0.26203000  0.60548800  1
  O  O46  1  0.34192300  0.26167500  0.76986500  1
  O  O47  1  0.34383700  0.26204200  0.85554500  1
  O  O48  1  0.64808100  0.73500500  0.14464300  1
  O  O49  1  0.64212900  0.73185100  0.23081900  1
  O  O50  1  0.65670100  0.73778400  0.39499800  1
  O  O51  1  0.65534300  0.73773700  0.48058700  1
  O  O52  1  0.65811400  0.73846700  0.64488200  1
  O  O53  1  0.65611600  0.73788200  0.73053800  1
  O  O54  1  0.65779500  0.73888700  0.89472300  1
  O  O55  1  0.65612600  0.73857900  0.98032600  1
  O  O56  1  0.57938000  0.45896700  0.05635500  1
  O  O57  1  0.58621400  0.46964400  0.31420900  1
  O  O58  1  0.57989700  0.46262800  0.56248400  1
  O  O59  1  0.57988500  0.46259600  0.81247300  1
  O  O60  1  0.48280200  0.14500600  0.18727700  1
  O  O61  1  0.47980200  0.15059900  0.43800300  1
  O  O62  1  0.48003200  0.15082100  0.68780600  1
  O  O63  1  0.47876000  0.15059200  0.93739800  1
  O  O64  1  0.66220400  0.51719800  0.18727700  1
  O  O65  1  0.67079700  0.52019800  0.43800300  1
  O  O66  1  0.67079000  0.51996800  0.68780600  1
  O  O67  1  0.67183200  0.52124000  0.93739800  1
  O  O68  1  0.54103300  0.12041300  0.05635500  1
  O  O69  1  0.53035600  0.11656900  0.31420900  1
  O  O70  1  0.53740400  0.11728900  0.81247300  1
  O  O71  1  0.53737200  0.11726900  0.56248400  1
  O  O72  1  0.92442100  0.67465800  0.02135100  1
  O  O73  1  0.91294000  0.64257400  0.26931900  1
  O  O74  1  0.90491700  0.63412100  0.10645100  1
  O  O75  1  0.91975200  0.65807700  0.76986500  1
  O  O76  1  0.91681200  0.65248400  0.35517100  1
  O  O77  1  0.91971200  0.65807500  0.51981600  1
  O  O78  1  0.91820200  0.65617300  0.60548800  1
  O  O79  1  0.91820600  0.65616300  0.85554500  1
  O  O80  1  0.87958700  0.42062000  0.05635500  1
  O  O81  1  0.88343100  0.41378600  0.31420900  1
  O  O82  1  0.88273100  0.42010300  0.56248400  1
  O  O83  1  0.88271100  0.42011500  0.81247300  1
  O  O84  1  0.85499400  0.33779600  0.18727700  1
  O  O85  1  0.84940100  0.32920300  0.43800300  1
  O  O86  1  0.84940800  0.32816800  0.93739800  1
  O  O87  1  0.84917900  0.32921000  0.68780600  1
  O  O88  1  0.75023700  0.07557900  0.02135100  1
  O  O89  1  0.72920500  0.09508300  0.10645100  1
  O  O90  1  0.72963400  0.08706000  0.26931900  1
  O  O91  1  0.73836300  0.08028800  0.51981600  1
  O  O92  1  0.73567200  0.08318800  0.35517100  1
  O  O93  1  0.73797000  0.08179800  0.60548800  1
  O  O94  1  0.73832500  0.08024800  0.76986500  1
  O  O95  1  0.73795800  0.08179400  0.85554500  1
  F  F0  1  0.00000000  0.00000000  0.44244600  1
  F  F1  1  0.00000000  0.00000000  0.33778500  1
  F  F2  1  0.00000000  0.00000000  0.56347700  1
  F  F3  1  0.00000000  0.00000000  0.68826400  1
  F  F4  1  0.00000000  0.00000000  0.81336100  1
  F  F5  1  0.00000000  0.00000000  0.93964600  1
loop_
_geom_bond_atom_site_label_1
_geom_bond_atom_site_label_2
_geom_bond_distance
_geom_bond_site_symmetry_2
Br0 Sr0 2.997570 1_545
Br0 Sr4 2.997570 1_555
Br0 Sr20 2.997570 1_445
Br0 Sr36 3.417871 1_455
Br0 Sr32 3.417871 1_445
Br0 Sr16 3.417871 1_555
Br1 Sr36 2.968780 1_455
Br1 Sr32 2.968780 1_445
Br1 Sr16 2.968780 1_555
Br1 Sr5 3.290056 1_555
Br1 Sr22 3.290059 1_445
Br1 Sr2 3.290063 1_545
O0 P4 1.557191 1_555
O0 Sr0 2.533204 1_555
O0 Sr32 2.716907 1_455
O0 Sr8 2.891599 1_555
O1 P4 1.546136 1_555
O1 Sr2 2.627086 1_555
O1 Sr32 2.748074 1_455
O1 Sr10 2.855073 1_555
O2 P5 1.556816 1_555
O2 Sr2 2.554174 1_555
O2 Sr33 2.642301 1_455
O2 Sr9 2.974341 1_555
O3 P6 1.556191 1_555
O3 Sr1 2.582891 1_555
O3 Sr34 2.646009 1_455
O3 Sr11 2.987522 1_555
O4 P6 1.558021 1_555
O4 Sr3 2.530064 1_555
O4 Sr34 2.676618 1_455
O4 Sr14 2.961593 1_555
O5 P5 1.556402 1_555
O5 Sr1 2.530281 1_555
O5 Sr33 2.677855 1_455
O5 Sr12 2.955361 1_555
O6 P7 1.555667 1_555
O6 Sr3 2.577955 1_555
O6 Sr35 2.648221 1_455
O6 Sr13 2.982449 1_555
O7 P7 1.557687 1_555
O7 Sr0 2.521900 1_556
O7 Sr35 2.661685 1_455
O7 Sr15 2.962377 1_555
O8 P20 1.562811 1_455
O8 Sr15 2.627093 1_554
O8 Sr8 2.632713 1_555
O8 Sr0 2.788240 1_555
O9 P21 1.558444 1_455
O9 Sr10 2.586396 1_555
O9 Sr9 2.591881 1_555
O9 Sr2 2.874685 1_555
O10 P22 1.560673 1_455
O10 Sr11 2.581589 1_555
O10 Sr12 2.614592 1_555
O10 Sr1 2.836500 1_555
O11 P23 1.560796 1_455
O11 Sr13 2.580002 1_555
O11 Sr14 2.618798 1_555
O11 Sr3 2.836484 1_555
O12 P0 1.563329 1_555
O12 Sr32 2.406366 1_455
O12 Sr8 2.539006 1_555
O12 Sr10 2.626726 1_555
O13 P1 1.562896 1_555
O13 Sr33 2.539921 1_455
O13 Sr12 2.604825 1_555
O13 Sr9 2.620203 1_555
O14 P2 1.563415 1_555
O14 Sr34 2.533716 1_455
O14 Sr14 2.601678 1_555
O14 Sr11 2.624581 1_555
O15 P3 1.563086 1_555
O15 Sr35 2.533847 1_455
O15 Sr15 2.608724 1_555
O15 Sr13 2.632114 1_555
O16 P0 1.557191 1_555
O16 Sr4 2.533204 1_555
O16 Sr16 2.716907 1_555
O16 Sr8 2.891605 1_555
O17 P1 1.556816 1_555
O17 Sr5 2.554176 1_555
O17 Sr17 2.642308 1_555
O17 Sr9 2.974347 1_555
O18 P0 1.546131 1_555
O18 Sr5 2.627091 1_555
O18 Sr16 2.748080 1_555
O18 Sr10 2.855073 1_555
O19 P2 1.556191 1_555
O19 Sr6 2.582891 1_555
O19 Sr18 2.646008 1_555
O19 Sr11 2.987529 1_555
O20 P1 1.556402 1_555
O20 Sr6 2.530281 1_555
O20 Sr17 2.677862 1_555
O20 Sr12 2.955367 1_555
O21 P3 1.555667 1_555
O21 Sr7 2.577955 1_555
O21 Sr19 2.648227 1_555
O21 Sr13 2.982455 1_555
O22 P2 1.558021 1_555
O22 Sr7 2.530064 1_555
O22 Sr18 2.676618 1_555
O22 Sr14 2.961600 1_555
O23 P3 1.557687 1_555
O23 Sr4 2.521900 1_556
O23 Sr19 2.661691 1_555
O23 Sr15 2.962384 1_555
O24 P5 1.562896 1_555
O24 Sr37 2.539930 1_565
O24 Sr12 2.604825 1_555
O24 Sr9 2.620204 1_555
O25 P4 1.563329 1_555
O25 Sr36 2.406366 1_565
O25 Sr8 2.539007 1_555
O25 Sr10 2.626727 1_555
O26 P7 1.563077 1_555
O26 Sr39 2.533865 1_565
O26 Sr15 2.608724 1_555
O26 Sr13 2.632114 1_555
O27 P6 1.563415 1_555
O27 Sr38 2.533716 1_565
O27 Sr14 2.601679 1_555
O27 Sr11 2.624581 1_555
O28 P8 1.562820 1_555
O28 Sr15 2.627093 1_554
O28 Sr8 2.632713 1_555
O28 Sr4 2.788242 1_555
O29 P9 1.558435 1_555
O29 Sr10 2.586403 1_555
O29 Sr9 2.591888 1_555
O29 Sr5 2.874687 1_555
O30 P10 1.560663 1_555
O30 Sr11 2.581596 1_555
O30 Sr12 2.614599 1_555
O30 Sr6 2.836500 1_555
O31 P11 1.560796 1_555
O31 Sr13 2.580009 1_555
O31 Sr14 2.618805 1_555
O31 Sr7 2.836484 1_555
O32 P16 1.562812 1_565
O32 Sr15 2.627093 1_554
O32 Sr8 2.632713 1_555
O32 Sr20 2.788249 1_555
O33 P17 1.558443 1_565
O33 Sr10 2.586400 1_555
O33 Sr9 2.591884 1_555
O33 Sr22 2.874694 1_555
O34 P19 1.560796 1_565
O34 Sr13 2.580005 1_555
O34 Sr14 2.618802 1_555
O34 Sr21 2.836484 1_555
O35 P18 1.560671 1_565
O35 Sr11 2.581593 1_555
O35 Sr12 2.614596 1_555
O35 Sr23 2.836500 1_555
O36 P12 1.563329 1_555
O36 Sr16 2.406366 1_555
O36 Sr8 2.539012 1_555
O36 Sr10 2.626733 1_555
O37 P13 1.562896 1_555
O37 Sr17 2.539929 1_555
O37 Sr12 2.604831 1_555
O37 Sr9 2.620209 1_555
O38 P14 1.563415 1_555
O38 Sr18 2.533716 1_555
O38 Sr14 2.601685 1_555
O38 Sr11 2.624587 1_555
O39 P15 1.563085 1_555
O39 Sr19 2.533863 1_555
O39 Sr15 2.608724 1_555
O39 Sr13 2.632114 1_555
O40 P8 1.552649 1_555
O40 Sr16 2.546441 1_555
O40 Sr0 2.769240 1_545
O40 Sr25 2.775237 1_555
O41 P8 1.555658 1_555
O41 Sr19 2.577840 1_554
O41 Sr0 2.632894 1_545
O42 P9 1.554762 1_555
O42 Sr17 2.547578 1_555
O42 Sr2 2.645715 1_545
O42 Sr28 2.942512 1_555
O43 P9 1.558924 1_555
O43 Sr16 2.554675 1_555
O43 Sr2 2.717891 1_545
O43 Sr26 2.851065 1_555
O44 P10 1.556132 1_555
O44 Sr17 2.589028 1_555
O44 Sr1 2.646689 1_545
O44 Sr27 2.985487 1_555
O45 P10 1.558126 1_555
O45 Sr18 2.531253 1_555
O45 Sr1 2.675497 1_545
O45 Sr31 2.962269 1_555
O46 P11 1.556515 1_555
O46 Sr18 2.580627 1_555
O46 Sr3 2.647489 1_545
O46 Sr30 2.988059 1_555
O47 P11 1.557734 1_555
O47 Sr19 2.540864 1_555
O47 Sr3 2.676160 1_545
O47 Sr29 2.959555 1_555
O48 P12 1.557191 1_555
O48 Sr20 2.533204 1_555
O48 Sr36 2.716907 1_565
O48 Sr8 2.891608 1_555
O49 P12 1.546136 1_555
O49 Sr22 2.627093 1_555
O49 Sr36 2.748072 1_565
O49 Sr10 2.855073 1_555
O50 P13 1.556816 1_555
O50 Sr22 2.554177 1_555
O50 Sr37 2.642300 1_565
O50 Sr9 2.974350 1_555
O51 P13 1.556402 1_555
O51 Sr23 2.530281 1_555
O51 Sr37 2.677854 1_565
O51 Sr12 2.955370 1_555
O52 P14 1.556191 1_555
O52 Sr23 2.582891 1_555
O52 Sr38 2.646009 1_565
O52 Sr11 2.987532 1_555
O53 P14 1.558021 1_555
O53 Sr21 2.530064 1_555
O53 Sr38 2.676618 1_565
O53 Sr14 2.961603 1_555
O54 P15 1.555667 1_555
O54 Sr21 2.577955 1_555
O54 Sr39 2.648219 1_565
O54 Sr13 2.982458 1_555
O55 P15 1.557687 1_555
O55 Sr20 2.521900 1_556
O55 Sr39 2.661683 1_565
O55 Sr15 2.962387 1_555
O56 P8 1.562543 1_555
O56 Sr20 2.421880 1_555
O56 Sr24 2.520376 1_554
O56 Sr25 2.718316 1_555
O57 P9 1.561573 1_555
O57 Sr22 2.513251 1_555
O57 Sr28 2.601659 1_555
O57 Sr26 2.624901 1_555
O58 P10 1.563805 1_555
O58 Sr23 2.535678 1_555
O58 Sr31 2.602663 1_555
O58 Sr27 2.618915 1_555
O59 P11 1.563676 1_555
O59 Sr21 2.533753 1_555
O59 Sr29 2.593824 1_555
O59 Sr30 2.626237 1_555
O60 P4 1.563042 1_545
O60 Sr25 2.610759 1_555
O60 Sr26 2.650016 1_555
O60 Sr16 2.846459 1_555
O61 P5 1.560521 1_545
O61 Sr27 2.585145 1_555
O61 Sr28 2.598987 1_555
O61 Sr17 2.840394 1_555
O62 P6 1.560769 1_545
O62 Sr30 2.579926 1_555
O62 Sr31 2.617658 1_555
O62 Sr18 2.836073 1_555
O63 P7 1.560162 1_545
O63 Sr24 2.553587 1_555
O63 Sr29 2.623584 1_555
O63 Sr19 2.827056 1_555
O64 P12 1.563042 1_555
O64 Sr25 2.610763 1_555
O64 Sr26 2.650020 1_555
O64 Sr32 2.846459 1_555
O65 P13 1.560521 1_555
O65 Sr27 2.585149 1_555
O65 Sr28 2.598990 1_555
O65 Sr33 2.840401 1_555
O66 P14 1.560777 1_555
O66 Sr30 2.579926 1_555
O66 Sr31 2.617658 1_555
O66 Sr34 2.836066 1_555
O67 P15 1.560162 1_555
O67 Sr24 2.553590 1_555
O67 Sr29 2.623587 1_555
O67 Sr35 2.827063 1_555
O68 P16 1.562543 1_555
O68 Sr0 2.421880 1_545
O68 Sr24 2.520370 1_554
O68 Sr25 2.718311 1_555
O69 P17 1.561556 1_555
O69 Sr2 2.513251 1_545
O69 Sr28 2.601659 1_555
O69 Sr26 2.624901 1_555
O70 P19 1.563676 1_555
O70 Sr3 2.533753 1_545
O70 Sr29 2.593818 1_555
O70 Sr30 2.626232 1_555
O71 P18 1.563797 1_555
O71 Sr1 2.535678 1_545
O71 Sr31 2.602657 1_555
O71 Sr27 2.618909 1_555
O72 P20 1.555658 1_555
O72 Sr35 2.577841 1_554
O72 Sr20 2.632894 1_555
O73 P21 1.558919 1_555
O73 Sr32 2.554675 1_555
O73 Sr22 2.717883 1_555
O73 Sr26 2.851062 1_555
O74 P20 1.552644 1_555
O74 Sr32 2.546440 1_555
O74 Sr20 2.769248 1_555
O74 Sr25 2.775237 1_555
O75 P23 1.556515 1_555
O75 Sr34 2.580627 1_555
O75 Sr21 2.647489 1_555
O75 Sr30 2.988057 1_555
O76 P21 1.554757 1_555
O76 Sr33 2.547579 1_555
O76 Sr22 2.645707 1_555
O76 Sr28 2.942509 1_555
O77 P22 1.556127 1_555
O77 Sr33 2.589029 1_555
O77 Sr23 2.646689 1_555
O77 Sr27 2.985484 1_555
O78 P22 1.558126 1_555
O78 Sr34 2.531254 1_555
O78 Sr23 2.675488 1_555
O78 Sr31 2.962263 1_555
O79 P23 1.557729 1_555
O79 Sr35 2.540864 1_555
O79 Sr21 2.676168 1_555
O79 Sr29 2.959555 1_555
O80 P20 1.562543 1_555
O80 Sr4 2.421880 1_655
O80 Sr24 2.520369 1_554
O80 Sr25 2.718310 1_555
O81 P21 1.561574 1_555
O81 Sr5 2.513251 1_655
O81 Sr28 2.601659 1_555
O81 Sr26 2.624901 1_555
O82 P22 1.563805 1_555
O82 Sr6 2.535678 1_655
O82 Sr31 2.602656 1_555
O82 Sr27 2.618908 1_555
O83 P23 1.563676 1_555
O83 Sr7 2.533753 1_655
O83 Sr29 2.593817 1_555
O83 Sr30 2.626231 1_555
O84 P0 1.563042 1_655
O84 Sr25 2.610756 1_555
O84 Sr26 2.650013 1_555
O84 Sr36 2.846459 1_555
O85 P1 1.560521 1_655
O85 Sr27 2.585142 1_555
O85 Sr28 2.598983 1_555
O85 Sr37 2.840404 1_555
O86 P3 1.560162 1_655
O86 Sr24 2.553583 1_555
O86 Sr29 2.623580 1_555
O86 Sr39 2.827065 1_555
O87 P2 1.560768 1_655
O87 Sr30 2.579926 1_555
O87 Sr31 2.617658 1_555
O87 Sr38 2.836064 1_555
O88 P16 1.555658 1_555
O88 Sr39 2.577843 1_554
O88 Sr4 2.632894 1_655
O89 P16 1.552648 1_555
O89 Sr36 2.546437 1_555
O89 Sr4 2.769241 1_655
O89 Sr25 2.775237 1_555
O90 P17 1.558923 1_555
O90 Sr36 2.554675 1_555
O90 Sr5 2.717890 1_655
O90 Sr26 2.851055 1_555
O91 P18 1.556132 1_555
O91 Sr37 2.589031 1_555
O91 Sr6 2.646689 1_655
O91 Sr27 2.985478 1_555
O92 P17 1.554762 1_555
O92 Sr37 2.547581 1_555
O92 Sr5 2.645714 1_655
O92 Sr28 2.942502 1_555
O93 P18 1.558126 1_555
O93 Sr38 2.531256 1_555
O93 Sr6 2.675495 1_655
O93 Sr31 2.962250 1_555
O94 P19 1.556515 1_555
O94 Sr38 2.580627 1_555
O94 Sr7 2.647489 1_655
O94 Sr30 2.988050 1_555
O95 P19 1.557734 1_555
O95 Sr39 2.540864 1_555
O95 Sr7 2.676161 1_655
O95 Sr29 2.959555 1_555
F0 Sr37 2.442146 1_455
F0 Sr17 2.442151 1_555
F0 Sr33 2.442156 1_445
F1 Sr5 2.504889 1_555
F1 Sr22 2.504894 1_445
F1 Sr2 2.504898 1_545
F2 Sr1 2.450200 1_545
F2 Sr6 2.450200 1_555
F2 Sr23 2.450200 1_445
F3 Sr38 2.452475 1_455
F3 Sr34 2.452475 1_445
F3 Sr18 2.452475 1_555
F4 Sr3 2.452589 1_545
F4 Sr7 2.452589 1_555
F4 Sr21 2.452589 1_445
F5 Sr39 2.449550 1_455
F5 Sr19 2.449556 1_555
F5 Sr35 2.449560 1_445
