# generated using pymatgen
data_SiH14(O2F3)2
_symmetry_space_group_name_H-M   'P 1'
_cell_length_a   5.97253814
_cell_length_b   13.12012400
_cell_length_c   6.41122053
_cell_angle_alpha   90.00000000
_cell_angle_beta   109.36714890
_cell_angle_gamma   90.00000000
_symmetry_Int_Tables_number   1
_chemical_formula_structural   SiH14(O2F3)2
_chemical_formula_sum   'Si2 H28 O8 F12'
_cell_volume   473.95752304
_cell_formula_units_Z   2
loop_
 _symmetry_equiv_pos_site_id
 _symmetry_equiv_pos_as_xyz
  1  'x, y, z'
loop_
 _atom_site_type_symbol
 _atom_site_label
 _atom_site_symmetry_multiplicity
 _atom_site_fract_x
 _atom_site_fract_y
 _atom_site_fract_z
 _atom_site_occupancy
  Si  Si0  1  0.00000000  0.50000000  0.50000000  1
  Si  Si1  1  0.00000000  0.00000000  0.00000000  1
  H  H0  1  0.64128900  0.09605700  0.41557800  1
  H  H1  1  0.35871100  0.59605700  0.08442200  1
  H  H2  1  0.35871100  0.90394300  0.58442200  1
  H  H3  1  0.64128900  0.40394300  0.91557800  1
  H  H4  1  0.73407000  0.12302000  0.21275100  1
  H  H5  1  0.26593000  0.62302000  0.28724900  1
  H  H6  1  0.26593000  0.87698000  0.78724900  1
  H  H7  1  0.73407000  0.37698000  0.71275100  1
  H  H8  1  0.86098700  0.18552300  0.47535300  1
  H  H9  1  0.13901300  0.68552300  0.02464700  1
  H  H10  1  0.13901300  0.81447700  0.52464700  1
  H  H11  1  0.86098700  0.31447700  0.97535300  1
  H  H12  1  0.11157200  0.28614400  0.60156600  1
  H  H13  1  0.88842800  0.78614400  0.89843400  1
  H  H14  1  0.88842800  0.71385600  0.39843400  1
  H  H15  1  0.11157200  0.21385600  0.10156600  1
  H  H16  1  0.14133500  0.17612300  0.73005800  1
  H  H17  1  0.85866500  0.67612300  0.76994200  1
  H  H18  1  0.85866500  0.82387700  0.26994200  1
  H  H19  1  0.14133500  0.32387700  0.23005800  1
  H  H20  1  0.36015100  0.07684100  0.56820500  1
  H  H21  1  0.63984900  0.57684100  0.93179500  1
  H  H22  1  0.63984900  0.92315900  0.43179500  1
  H  H23  1  0.36015100  0.42315900  0.06820500  1
  H  H24  1  0.46446000  0.08248500  0.67342200  1
  H  H25  1  0.53554000  0.58248500  0.82657800  1
  H  H26  1  0.53554000  0.91751500  0.32657800  1
  H  H27  1  0.46446000  0.41751500  0.17342200  1
  O  O0  1  0.69764500  0.15219800  0.34537300  1
  O  O1  1  0.30235500  0.65219800  0.15462700  1
  O  O2  1  0.30235500  0.84780200  0.65462700  1
  O  O3  1  0.69764500  0.34780200  0.84537300  1
  O  O4  1  0.02980000  0.22560200  0.63696500  1
  O  O5  1  0.97020000  0.72560200  0.86303500  1
  O  O6  1  0.97020000  0.77439800  0.36303500  1
  O  O7  1  0.02980000  0.27439800  0.13696500  1
  F  F0  1  0.19009000  0.39601200  0.52719300  1
  F  F1  1  0.80991000  0.89601200  0.97280700  1
  F  F2  1  0.80991000  0.60398800  0.47280700  1
  F  F3  1  0.19009000  0.10398800  0.02719300  1
  F  F4  1  0.22586700  0.58137900  0.49191200  1
  F  F5  1  0.77413300  0.08137900  0.00808800  1
  F  F6  1  0.77413300  0.41862100  0.50808800  1
  F  F7  1  0.22586700  0.91862100  0.99191200  1
  F  F8  1  0.08813400  0.51257900  0.77793100  1
  F  F9  1  0.91186600  0.01257900  0.72206900  1
  F  F10  1  0.91186600  0.48742100  0.22206900  1
  F  F11  1  0.08813400  0.98742100  0.27793100  1
loop_
_geom_bond_atom_site_label_1
_geom_bond_atom_site_label_2
_geom_bond_distance
_geom_bond_site_symmetry_2
H0 O0 0.979238 1_555
H1 O1 0.979238 1_555
H2 O2 0.979238 1_555
H3 O3 0.979238 1_555
H4 O0 1.019568 1_555
H5 O1 1.019568 1_555
H6 O2 1.019568 1_555
H7 O3 1.019568 1_555
H8 O0 1.139361 1_555
H8 O4 1.293739 1_655
H9 O1 1.139361 1_555
H9 O5 1.293739 1_454
H10 O2 1.139361 1_555
H10 O6 1.293739 1_455
H11 O3 1.139361 1_555
H11 O7 1.293739 1_656
H12 O4 0.997238 1_555
H13 O5 0.997238 1_555
H14 O6 0.997238 1_555
H15 O7 0.997238 1_555
H16 O4 0.978621 1_555
H17 O5 0.978621 1_555
H18 O6 0.978621 1_555
H19 O7 0.978621 1_555
H20 H24 0.754928 1_555
H21 H25 0.754928 1_555
H22 H26 0.754928 1_555
H23 H27 0.754928 1_555
F0 H12 1.635069 1_555
F0 Si0 1.746276 1_555
F1 H13 1.635069 1_555
F1 Si1 1.746276 1_666
F2 H14 1.635069 1_555
F2 Si0 1.746276 1_655
F3 H15 1.635069 1_555
F3 Si1 1.746276 1_555
F4 H5 1.511847 1_555
F4 Si0 1.734610 1_555
F5 H4 1.511847 1_555
F5 Si1 1.734610 1_655
F6 H7 1.511847 1_555
F6 Si0 1.734610 1_655
F7 H6 1.511847 1_555
F7 Si1 1.734610 1_566
F8 Si0 1.690360 1_555
F9 Si1 1.690360 1_656
F10 Si0 1.690360 1_655
F11 Si1 1.690360 1_565
