# generated using pymatgen
data_Sb3P6WO24
_symmetry_space_group_name_H-M   'P 1'
_cell_length_a   9.17194696
_cell_length_b   9.17194696
_cell_length_c   9.17194735
_cell_angle_alpha   57.61686087
_cell_angle_beta   57.61686087
_cell_angle_gamma   57.61686487
_symmetry_Int_Tables_number   1
_chemical_formula_structural   Sb3P6WO24
_chemical_formula_sum   'Sb3 P6 W1 O24'
_cell_volume   515.70768758
_cell_formula_units_Z   1
loop_
 _symmetry_equiv_pos_site_id
 _symmetry_equiv_pos_as_xyz
  1  'x, y, z'
loop_
 _atom_site_type_symbol
 _atom_site_label
 _atom_site_symmetry_multiplicity
 _atom_site_fract_x
 _atom_site_fract_y
 _atom_site_fract_z
 _atom_site_occupancy
  Sb  Sb0  1  0.14039700  0.14039700  0.14039700  1
  Sb  Sb1  1  0.35812400  0.35812400  0.35812400  1
  Sb  Sb2  1  0.64473500  0.64473500  0.64473500  1
  P  P0  1  0.47809000  0.72665100  0.04222300  1
  P  P1  1  0.72665100  0.04222300  0.47809000  1
  P  P2  1  0.04222300  0.47809000  0.72665100  1
  P  P3  1  0.95366600  0.54555000  0.25482800  1
  P  P4  1  0.25482800  0.95366600  0.54555000  1
  P  P5  1  0.54555000  0.25482800  0.95366600  1
  W  W0  1  0.85515100  0.85515100  0.85515100  1
  O  O0  1  0.54080200  0.26074000  0.11990400  1
  O  O1  1  0.11990400  0.54080200  0.26074000  1
  O  O2  1  0.29837500  0.88420100  0.07133400  1
  O  O3  1  0.26074000  0.11990400  0.54080200  1
  O  O4  1  0.49060000  0.54798800  0.21186600  1
  O  O5  1  0.64222200  0.77830000  0.99150700  1
  O  O6  1  0.88420100  0.07133400  0.29837500  1
  O  O7  1  0.54798800  0.21186600  0.49060000  1
  O  O8  1  0.21186600  0.49060000  0.54798800  1
  O  O9  1  0.96786300  0.37352400  0.25579300  1
  O  O10  1  0.92791700  0.70976300  0.06653200  1
  O  O11  1  0.25579300  0.96786300  0.37352400  1
  O  O12  1  0.77830000  0.99150700  0.64222200  1
  O  O13  1  0.07133400  0.29837500  0.88420100  1
  O  O14  1  0.99150700  0.64222200  0.77830000  1
  O  O15  1  0.76619800  0.61377900  0.40344400  1
  O  O16  1  0.40344400  0.76619800  0.61377900  1
  O  O17  1  0.06653200  0.92791700  0.70976300  1
  O  O18  1  0.37352400  0.25579300  0.96786300  1
  O  O19  1  0.61377900  0.40344400  0.76619800  1
  O  O20  1  0.68391900  0.88218700  0.51183000  1
  O  O21  1  0.70976300  0.06653200  0.92791700  1
  O  O22  1  0.88218700  0.51183000  0.68391900  1
  O  O23  1  0.51183000  0.68391900  0.88218700  1
loop_
_geom_bond_atom_site_label_1
_geom_bond_atom_site_label_2
_geom_bond_distance
_geom_bond_site_symmetry_2
O0 P5 1.531187 1_554
O0 Sb1 2.223764 1_555
O1 P3 1.531187 1_455
O1 Sb1 2.223764 1_555
O2 P0 1.505623 1_555
O2 Sb0 2.233059 1_565
O3 P4 1.531187 1_545
O3 Sb1 2.223764 1_555
O4 P0 1.542122 1_555
O4 Sb1 2.080078 1_555
O5 P0 1.576328 1_556
O5 W0 1.946553 1_555
O6 P1 1.505623 1_555
O6 Sb0 2.233058 1_655
O7 P1 1.542122 1_555
O7 Sb1 2.080079 1_555
O8 P2 1.542121 1_555
O8 Sb1 2.080079 1_555
O9 P3 1.507558 1_555
O9 Sb0 2.280806 1_655
O10 P3 1.605161 1_555
O10 W0 1.909422 1_554
O11 P4 1.507558 1_555
O11 Sb0 2.280806 1_565
O12 P1 1.576328 1_565
O12 W0 1.946553 1_555
O13 P2 1.505623 1_555
O13 Sb0 2.233059 1_556
O14 P2 1.576328 1_655
O14 W0 1.946553 1_555
O15 P3 1.567397 1_555
O15 Sb2 1.978099 1_555
O16 P4 1.567397 1_555
O16 Sb2 1.978099 1_555
O17 P4 1.605161 1_555
O17 W0 1.909422 1_455
O18 P5 1.507558 1_555
O18 Sb0 2.280806 1_556
O19 P5 1.567397 1_555
O19 Sb2 1.978099 1_555
O20 P1 1.550385 1_565
O20 Sb2 1.970720 1_555
O21 P5 1.605161 1_555
O21 W0 1.909422 1_545
O22 P2 1.550385 1_655
O22 Sb2 1.970720 1_555
O23 P0 1.550385 1_556
O23 Sb2 1.970720 1_555
