# generated using pymatgen
data_Dy2Sb2O7
_symmetry_space_group_name_H-M   'P 1'
_cell_length_a   7.53421871
_cell_length_b   7.53421871
_cell_length_c   18.54538000
_cell_angle_alpha   90.00000000
_cell_angle_beta   90.00000000
_cell_angle_gamma   120.00000619
_symmetry_Int_Tables_number   1
_chemical_formula_structural   Dy2Sb2O7
_chemical_formula_sum   'Dy12 Sb12 O42'
_cell_volume   911.68075432
_cell_formula_units_Z   6
loop_
 _symmetry_equiv_pos_site_id
 _symmetry_equiv_pos_as_xyz
  1  'x, y, z'
loop_
 _atom_site_type_symbol
 _atom_site_label
 _atom_site_symmetry_multiplicity
 _atom_site_fract_x
 _atom_site_fract_y
 _atom_site_fract_z
 _atom_site_occupancy
  Dy  Dy0  1  0.00000000  0.82305500  0.66666700  1
  Dy  Dy1  1  0.00000000  0.83404500  0.16666700  1
  Dy  Dy2  1  0.18323800  0.68361100  0.01139400  1
  Dy  Dy3  1  0.17694500  0.17694500  0.00000000  1
  Dy  Dy4  1  0.50037200  0.81676200  0.67806100  1
  Dy  Dy5  1  0.16595500  0.16595500  0.50000000  1
  Dy  Dy6  1  0.31638900  0.49962800  0.34472700  1
  Dy  Dy7  1  0.49962800  0.31638900  0.65527300  1
  Dy  Dy8  1  0.68361100  0.18323800  0.98860600  1
  Dy  Dy9  1  0.81676200  0.50037200  0.32193900  1
  Dy  Dy10  1  0.83404500  0.00000000  0.83333300  1
  Dy  Dy11  1  0.82305500  0.00000000  0.33333300  1
  Sb  Sb0  1  0.00000000  0.32559200  0.16666700  1
  Sb  Sb1  1  0.00000000  0.29866900  0.66666700  1
  Sb  Sb2  1  0.16701500  0.66915100  0.50096800  1
  Sb  Sb3  1  0.50213600  0.83298500  0.16763500  1
  Sb  Sb4  1  0.33084900  0.49786400  0.83430200  1
  Sb  Sb5  1  0.29866900  0.00000000  0.33333300  1
  Sb  Sb6  1  0.67440800  0.67440800  0.50000000  1
  Sb  Sb7  1  0.32559200  0.00000000  0.83333300  1
  Sb  Sb8  1  0.70133100  0.70133100  0.00000000  1
  Sb  Sb9  1  0.49786400  0.33084900  0.16569800  1
  Sb  Sb10  1  0.66915100  0.16701500  0.49903200  1
  Sb  Sb11  1  0.83298500  0.50213600  0.83236500  1
  O  O0  1  0.01644700  0.85095200  0.28488900  1
  O  O1  1  0.99064300  0.80110000  0.80482100  1
  O  O2  1  0.10633600  0.65614200  0.39409200  1
  O  O3  1  0.05083700  0.43777700  0.80554800  1
  O  O4  1  0.32885200  0.99409500  0.95575300  1
  O  O5  1  0.23168800  0.69735300  0.60597800  1
  O  O6  1  0.00590500  0.33475700  0.28908600  1
  O  O7  1  0.20227200  0.68085200  0.14008900  1
  O  O8  1  0.38694000  0.94916300  0.47221400  1
  O  O9  1  0.46566500  0.76831200  0.27264400  1
  O  O10  1  0.47858000  0.79772800  0.80675600  1
  O  O11  1  0.34385800  0.45019400  0.72742600  1
  O  O12  1  0.14904800  0.16549500  0.61822200  1
  O  O13  1  0.31914800  0.52142000  0.47342300  1
  O  O14  1  0.19890000  0.18954300  0.13815400  1
  O  O15  1  0.16549500  0.14904800  0.38177800  1
  O  O16  1  0.30264700  0.53433500  0.93931100  1
  O  O17  1  0.18954300  0.19890000  0.86184600  1
  O  O18  1  0.54980600  0.89366400  0.06075900  1
  O  O19  1  0.56222300  0.61306000  0.13888100  1
  O  O20  1  0.81045700  0.00935700  0.47148800  1
  O  O21  1  0.66524300  0.67114800  0.62241900  1
  O  O22  1  0.45019400  0.34385800  0.27257400  1
  O  O23  1  0.61306000  0.56222300  0.86111900  1
  O  O24  1  0.33475700  0.00590500  0.71091400  1
  O  O25  1  0.83450500  0.98355300  0.95155600  1
  O  O26  1  0.53433500  0.30264700  0.06068900  1
  O  O27  1  0.67114800  0.66524300  0.37758100  1
  O  O28  1  0.52142000  0.31914800  0.52657700  1
  O  O29  1  0.43777700  0.05083700  0.19445200  1
  O  O30  1  0.69735300  0.23168800  0.39402200  1
  O  O31  1  0.68085200  0.20227200  0.85991100  1
  O  O32  1  0.89366400  0.54980600  0.93924100  1
  O  O33  1  0.98355300  0.83450500  0.04844400  1
  O  O34  1  0.79772800  0.47858000  0.19324400  1
  O  O35  1  0.00935700  0.81045700  0.52851200  1
  O  O36  1  0.76831200  0.46566500  0.72735600  1
  O  O37  1  0.65614200  0.10633600  0.60590800  1
  O  O38  1  0.94916300  0.38694000  0.52778600  1
  O  O39  1  0.80110000  0.99064300  0.19517900  1
  O  O40  1  0.99409500  0.32885200  0.04424700  1
  O  O41  1  0.85095200  0.01644700  0.71511100  1
loop_
_geom_bond_atom_site_label_1
_geom_bond_atom_site_label_2
_geom_bond_distance
_geom_bond_site_symmetry_2
Dy0 O24 2.336193 1_565
Dy0 O21 2.336200 1_455
Dy0 O41 2.414005 1_465
Dy0 O12 2.414012 1_565
Dy0 O1 2.566149 1_455
Dy0 O35 2.566168 1_555
Dy0 O36 2.619914 1_455
Dy0 O5 2.619914 1_555
Dy1 O0 2.196071 1_555
Dy1 O33 2.196090 1_455
Dy1 O34 2.378336 1_455
Dy1 O7 2.378340 1_555
Dy1 O39 2.384399 1_455
Dy1 O14 2.384402 1_565
Dy2 O16 2.207521 1_554
Dy2 O4 2.274671 1_554
Dy2 O32 2.316738 1_454
Dy2 O7 2.391716 1_555
Dy2 O40 2.395222 1_455
Dy2 O33 2.395496 1_455
Dy2 O18 2.568944 1_555
Dy3 O40 2.336193 1_455
Dy3 O4 2.336193 1_544
Dy3 O33 2.414005 1_445
Dy3 O25 2.414005 1_444
Dy3 O14 2.566149 1_555
Dy3 O17 2.566149 1_554
Dy3 O16 2.619914 1_554
Dy3 O26 2.619914 1_555
Dy4 O5 2.207516 1_555
Dy4 O21 2.274686 1_555
Dy4 O37 2.316739 1_565
Dy4 O10 2.391715 1_555
Dy4 O24 2.395216 1_565
Dy4 O41 2.395502 1_565
Dy4 O11 2.568944 1_555
Dy5 O15 2.196071 1_555
Dy5 O12 2.196071 1_555
Dy5 O28 2.378336 1_555
Dy5 O13 2.378336 1_555
Dy5 O35 2.384398 1_545
Dy5 O20 2.384398 1_455
Dy6 O9 2.207516 1_555
Dy6 O6 2.274671 1_555
Dy6 O22 2.316744 1_555
Dy6 O13 2.391734 1_555
Dy6 O27 2.395227 1_555
Dy6 O15 2.395508 1_555
Dy6 O2 2.568938 1_555
Dy7 O36 2.207516 1_555
Dy7 O24 2.274671 1_555
Dy7 O11 2.316744 1_555
Dy7 O28 2.391734 1_555
Dy7 O21 2.395227 1_555
Dy7 O12 2.395508 1_555
Dy7 O37 2.568938 1_555
Dy8 O26 2.207521 1_556
Dy8 O40 2.274671 1_556
Dy8 O18 2.316738 1_546
Dy8 O31 2.391716 1_555
Dy8 O4 2.395222 1_545
Dy8 O25 2.395496 1_545
Dy8 O32 2.568944 1_555
Dy9 O30 2.207516 1_555
Dy9 O27 2.274686 1_555
Dy9 O2 2.316739 1_655
Dy9 O34 2.391715 1_555
Dy9 O6 2.395216 1_655
Dy9 O0 2.395502 1_655
Dy9 O22 2.568944 1_555
Dy10 O41 2.196071 1_555
Dy10 O25 2.196090 1_545
Dy10 O10 2.378336 1_545
Dy10 O31 2.378340 1_555
Dy10 O1 2.384399 1_545
Dy10 O17 2.384402 1_655
Dy11 O6 2.336193 1_655
Dy11 O27 2.336200 1_545
Dy11 O0 2.414005 1_645
Dy11 O15 2.414012 1_655
Dy11 O39 2.566149 1_545
Dy11 O20 2.566168 1_555
Dy11 O9 2.619914 1_545
Dy11 O30 2.619914 1_555
O0 Sb5 2.049794 1_565
O1 Sb11 2.017401 1_555
O1 Sb7 2.260971 1_665
O2 Sb2 2.025425 1_555
O2 Sb5 2.515374 1_565
O3 Sb11 1.993076 1_455
O3 Sb4 1.996235 1_555
O4 Sb7 2.271135 1_565
O5 Sb2 1.992887 1_555
O6 Sb0 2.271116 1_555
O7 Sb3 2.022219 1_555
O7 Sb0 2.377096 1_555
O8 Sb10 1.993081 1_565
O8 Sb2 1.996234 1_555
O9 Sb3 1.992869 1_555
O10 Sb4 2.022219 1_555
O10 Sb7 2.377092 1_565
O11 Sb4 2.025425 1_555
O11 Sb1 2.515374 1_555
O12 Sb1 2.049802 1_555
O13 Sb2 2.022215 1_555
O13 Sb6 2.377092 1_555
O14 Sb9 2.017401 1_555
O14 Sb0 2.260975 1_555
O15 Sb5 2.049802 1_555
O16 Sb4 1.992869 1_555
O17 Sb4 2.017401 1_555
O17 Sb7 2.260975 1_555
O18 Sb3 2.025425 1_555
O18 Sb8 2.515374 1_555
O19 Sb9 1.993076 1_555
O19 Sb3 1.996235 1_555
O20 Sb10 2.017401 1_555
O20 Sb6 2.260971 1_545
O21 Sb6 2.271116 1_555
O22 Sb9 2.025425 1_555
O22 Sb5 2.515374 1_555
O23 Sb4 1.993076 1_555
O23 Sb11 1.996235 1_555
O24 Sb7 2.271116 1_555
O25 Sb8 2.049794 1_556
O26 Sb9 1.992869 1_555
O27 Sb6 2.271116 1_555
O28 Sb10 2.022215 1_555
O28 Sb6 2.377092 1_555
O29 Sb3 1.993076 1_545
O29 Sb9 1.996235 1_555
O30 Sb10 1.992887 1_555
O31 Sb11 2.022219 1_555
O31 Sb7 2.377096 1_555
O32 Sb11 2.025425 1_555
O32 Sb8 2.515374 1_556
O33 Sb8 2.049794 1_555
O34 Sb9 2.022219 1_555
O34 Sb0 2.377092 1_655
O35 Sb2 2.017401 1_555
O35 Sb6 2.260971 1_455
O36 Sb11 1.992869 1_555
O37 Sb10 2.025425 1_555
O37 Sb1 2.515374 1_655
O38 Sb2 1.993081 1_655
O38 Sb10 1.996234 1_555
O39 Sb3 2.017401 1_555
O39 Sb0 2.260971 1_665
O40 Sb0 2.271135 1_655
O41 Sb1 2.049794 1_655
