# generated using pymatgen
data_LiVP2O7
_symmetry_space_group_name_H-M   'P 1'
_cell_length_a   8.48319000
_cell_length_b   7.04215200
_cell_length_c   9.27149060
_cell_angle_alpha   67.61163265
_cell_angle_beta   90.00000000
_cell_angle_gamma   90.00000000
_symmetry_Int_Tables_number   1
_chemical_formula_structural   LiVP2O7
_chemical_formula_sum   'Li4 V4 P8 O28'
_cell_volume   512.12859220
_cell_formula_units_Z   4
loop_
 _symmetry_equiv_pos_site_id
 _symmetry_equiv_pos_as_xyz
  1  'x, y, z'
loop_
 _atom_site_type_symbol
 _atom_site_label
 _atom_site_symmetry_multiplicity
 _atom_site_fract_x
 _atom_site_fract_y
 _atom_site_fract_z
 _atom_site_occupancy
  Li  Li0  1  0.57149900  0.80220000  0.09695700  1
  Li  Li1  1  0.07149900  0.19780000  0.40304300  1
  Li  Li2  1  0.92850100  0.80220000  0.59695700  1
  Li  Li3  1  0.42850100  0.19780000  0.90304300  1
  V  V0  1  0.92891500  0.69484500  0.18888100  1
  V  V1  1  0.42891500  0.30515500  0.31111900  1
  V  V2  1  0.57108500  0.69484500  0.68888100  1
  V  V3  1  0.07108500  0.30515500  0.81111900  1
  P  P0  1  0.71543100  0.47474800  0.46702900  1
  P  P1  1  0.21543100  0.52525200  0.03297100  1
  P  P2  1  0.73688300  0.06659600  0.75972600  1
  P  P3  1  0.23688300  0.93340400  0.74027400  1
  P  P4  1  0.76311700  0.06659600  0.25972600  1
  P  P5  1  0.26311700  0.93340400  0.24027400  1
  P  P6  1  0.78456900  0.47474800  0.96702900  1
  P  P7  1  0.28456900  0.52525200  0.53297100  1
  O  O0  1  0.58455700  0.50676200  0.34846100  1
  O  O1  1  0.88053100  0.47997400  0.39153500  1
  O  O2  1  0.78377000  0.63239800  0.04678400  1
  O  O3  1  0.28377000  0.36760200  0.45321600  1
  O  O4  1  0.38053100  0.52002600  0.10846500  1
  O  O5  1  0.68963100  0.25237000  0.59581900  1
  O  O6  1  0.08455700  0.49323800  0.15153900  1
  O  O7  1  0.24800800  0.11719500  0.79075400  1
  O  O8  1  0.90035800  0.12105000  0.80618700  1
  O  O9  1  0.60973700  0.04427400  0.87744800  1
  O  O10  1  0.81036900  0.25237000  0.09581900  1
  O  O11  1  0.10973700  0.95572600  0.62255200  1
  O  O12  1  0.25199200  0.11719500  0.29075400  1
  O  O13  1  0.59964200  0.12105000  0.30618700  1
  O  O14  1  0.40035800  0.87895000  0.69381300  1
  O  O15  1  0.74800800  0.88280500  0.70924600  1
  O  O16  1  0.89026300  0.04427400  0.37744800  1
  O  O17  1  0.18963100  0.74763000  0.90418100  1
  O  O18  1  0.39026300  0.95572600  0.12255200  1
  O  O19  1  0.09964200  0.87895000  0.19381300  1
  O  O20  1  0.75199200  0.88280500  0.20924600  1
  O  O21  1  0.91544300  0.50676200  0.84846100  1
  O  O22  1  0.31036900  0.74763000  0.40418100  1
  O  O23  1  0.61946900  0.47997400  0.89153500  1
  O  O24  1  0.71623000  0.63239800  0.54678400  1
  O  O25  1  0.21623000  0.36760200  0.95321600  1
  O  O26  1  0.11946900  0.52002600  0.60846500  1
  O  O27  1  0.41544300  0.49323800  0.65153900  1
loop_
_geom_bond_atom_site_label_1
_geom_bond_atom_site_label_2
_geom_bond_distance
_geom_bond_site_symmetry_2
Li0 O18 1.945360 1_555
Li0 O20 2.049555 1_555
Li0 O9 2.123762 1_564
Li0 O2 2.304916 1_555
Li0 O0 2.466289 1_555
Li0 O4 2.534354 1_555
Li1 O16 1.945360 1_455
Li1 O12 2.049555 1_555
Li1 O11 2.123762 1_545
Li1 O3 2.304916 1_555
Li1 O6 2.466289 1_555
Li1 O1 2.534354 1_455
Li2 O11 1.945360 1_655
Li2 O15 2.049555 1_555
Li2 O16 2.123762 1_565
Li2 O24 2.304916 1_555
Li2 O21 2.466289 1_555
Li2 O26 2.534354 1_655
Li3 O9 1.945360 1_555
Li3 O7 2.049555 1_555
Li3 O18 2.123762 1_546
Li3 O25 2.304916 1_555
Li3 O27 2.466289 1_555
Li3 O23 2.534354 1_555
O0 P0 1.517599 1_555
O0 V1 2.062349 1_555
O1 P0 1.559891 1_555
O1 V0 1.955156 1_555
O2 P6 1.550716 1_554
O2 V0 1.971418 1_555
O3 P7 1.550716 1_555
O3 V1 1.971418 1_555
O4 P1 1.559891 1_555
O4 V1 1.955156 1_555
O5 P0 1.581669 1_555
O5 P2 1.633127 1_555
O6 P1 1.517599 1_555
O6 V0 2.062349 1_455
O7 P3 1.537716 1_545
O7 V3 2.056861 1_555
O8 P2 1.543252 1_555
O8 V3 1.955953 1_655
O9 P2 1.499560 1_555
O10 P6 1.581669 1_554
O10 P4 1.633127 1_555
O11 P3 1.499560 1_555
O12 P5 1.537716 1_545
O12 V1 2.056861 1_555
O13 P4 1.543252 1_555
O13 V1 1.955953 1_555
O14 P3 1.543252 1_555
O14 V2 1.955953 1_555
O15 P2 1.537716 1_565
O15 V2 2.056861 1_555
O16 P4 1.499560 1_555
O17 P1 1.581669 1_556
O17 P3 1.633127 1_555
O18 P5 1.499560 1_555
O19 P5 1.543252 1_555
O19 V0 1.955953 1_455
O20 P4 1.537716 1_565
O20 V0 2.056861 1_555
O21 P6 1.517599 1_555
O21 V3 2.062349 1_655
O22 P7 1.581669 1_555
O22 P5 1.633127 1_555
O23 P6 1.559891 1_555
O23 V2 1.955156 1_555
O24 P0 1.550716 1_555
O24 V2 1.971418 1_555
O25 P1 1.550716 1_556
O25 V3 1.971418 1_555
O26 P7 1.559891 1_555
O26 V3 1.955156 1_555
O27 P7 1.517599 1_555
O27 V2 2.062349 1_555
