# generated using pymatgen
data_Li4Ti3Sn5O16
_symmetry_space_group_name_H-M   'P 1'
_cell_length_a   6.23251903
_cell_length_b   6.23251903
_cell_length_c   10.69937785
_cell_angle_alpha   89.89956129
_cell_angle_beta   89.89956129
_cell_angle_gamma   59.68354690
_symmetry_Int_Tables_number   1
_chemical_formula_structural   Li4Ti3Sn5O16
_chemical_formula_sum   'Li4 Ti3 Sn5 O16'
_cell_volume   358.77466771
_cell_formula_units_Z   1
loop_
 _symmetry_equiv_pos_site_id
 _symmetry_equiv_pos_as_xyz
  1  'x, y, z'
loop_
 _atom_site_type_symbol
 _atom_site_label
 _atom_site_symmetry_multiplicity
 _atom_site_fract_x
 _atom_site_fract_y
 _atom_site_fract_z
 _atom_site_occupancy
  Li  Li0  1  0.66825200  0.66825200  0.13227300  1
  Li  Li1  1  0.99005200  0.99005200  0.00379700  1
  Li  Li2  1  0.99414700  0.99414700  0.49909100  1
  Li  Li3  1  0.33563100  0.33563100  0.60978600  1
  Ti  Ti0  1  0.82600700  0.82600700  0.77819100  1
  Ti  Ti1  1  0.65862300  0.17055600  0.28423000  1
  Ti  Ti2  1  0.17055600  0.65862300  0.28423000  1
  Sn  Sn0  1  0.66992100  0.66992100  0.48939300  1
  Sn  Sn1  1  0.33785900  0.33785900  0.99168800  1
  Sn  Sn2  1  0.33217200  0.83213200  0.77983400  1
  Sn  Sn3  1  0.83213200  0.33217200  0.77983400  1
  Sn  Sn4  1  0.16625900  0.16625900  0.28334800  1
  O  O0  1  0.29630100  0.84493000  0.39038000  1
  O  O1  1  0.50996400  0.50996400  0.67527100  1
  O  O2  1  0.67161000  0.67161000  0.88653500  1
  O  O3  1  0.99539600  0.99539600  0.67783000  1
  O  O4  1  0.99605600  0.99605600  0.18382400  1
  O  O5  1  0.84493000  0.29630100  0.39038000  1
  O  O6  1  0.52450300  0.98041800  0.68131700  1
  O  O7  1  0.98041800  0.52450300  0.68131700  1
  O  O8  1  0.14962100  0.14962100  0.89037700  1
  O  O9  1  0.85472000  0.85472000  0.38495300  1
  O  O10  1  0.02052700  0.50497100  0.18916600  1
  O  O11  1  0.50497100  0.02052700  0.18916600  1
  O  O12  1  0.34139200  0.34139200  0.38897500  1
  O  O13  1  0.14117400  0.70104200  0.88776700  1
  O  O14  1  0.48765200  0.48765200  0.19179100  1
  O  O15  1  0.70104200  0.14117400  0.88776700  1
loop_
_geom_bond_atom_site_label_1
_geom_bond_atom_site_label_2
_geom_bond_distance
_geom_bond_site_symmetry_2
Li0 O11 1.993364 1_565
Li0 O10 1.993364 1_655
Li0 O14 2.052675 1_555
Li0 O2 2.629421 1_554
Li1 O4 1.927402 1_555
Li1 O15 1.990939 1_564
Li1 O13 1.990939 1_654
Li1 O8 2.107324 1_664
Li2 O3 1.912471 1_555
Li2 O9 1.942005 1_555
Li2 O5 1.998047 1_565
Li2 O0 1.998047 1_655
Li3 O1 2.012260 1_555
Li3 O6 2.058864 1_545
Li3 O7 2.058864 1_455
Li3 O12 2.363235 1_555
O0 Ti2 2.044223 1_555
O0 Sn4 2.082219 1_565
O0 Sn0 2.274817 1_555
O1 Sn2 2.066046 1_555
O1 Sn3 2.066046 1_555
O1 Sn0 2.632958 1_555
O2 Ti0 2.030458 1_555
O2 Sn2 2.155815 1_555
O2 Sn3 2.155815 1_555
O3 Sn3 2.116625 1_565
O3 Sn2 2.116625 1_655
O3 Ti0 2.121174 1_555
O4 Ti2 2.108755 1_655
O4 Ti1 2.108755 1_565
O4 Sn4 2.128006 1_665
O5 Ti1 2.044223 1_555
O5 Sn4 2.082219 1_655
O5 Sn0 2.274817 1_555
O6 Ti0 1.925939 1_555
O6 Sn2 2.124306 1_555
O6 Sn0 2.649495 1_555
O7 Ti0 1.925939 1_555
O7 Sn3 2.124306 1_555
O7 Sn0 2.649495 1_555
O8 Sn2 2.083143 1_545
O8 Sn3 2.083143 1_455
O8 Sn1 2.307860 1_555
O9 Ti1 2.024429 1_565
O9 Ti2 2.024429 1_655
O9 Sn0 2.287357 1_555
O10 Ti2 1.933055 1_555
O10 Sn4 2.087315 1_555
O10 Sn1 2.715543 1_554
O11 Ti1 1.933055 1_555
O11 Sn4 2.087315 1_555
O11 Sn1 2.715543 1_554
O12 Ti2 2.042040 1_555
O12 Ti1 2.042040 1_555
O12 Sn4 2.207147 1_555
O13 Ti0 2.073622 1_455
O13 Sn2 2.095689 1_555
O13 Sn1 2.248850 1_555
O14 Ti1 1.972375 1_555
O14 Ti2 1.972375 1_555
O14 Sn1 2.687170 1_554
O15 Ti0 2.073622 1_545
O15 Sn3 2.095689 1_555
O15 Sn1 2.248850 1_555
