# generated using pymatgen
data_B10H13CSN
_symmetry_space_group_name_H-M   'P 1'
_cell_length_a   14.99746500
_cell_length_b   7.46971600
_cell_length_c   11.34185868
_cell_angle_alpha   65.69462172
_cell_angle_beta   90.00000000
_cell_angle_gamma   90.00000000
_symmetry_Int_Tables_number   1
_chemical_formula_structural   B10H13CSN
_chemical_formula_sum   'B40 H52 C4 S4 N4'
_cell_volume   1157.97279219
_cell_formula_units_Z   4
loop_
 _symmetry_equiv_pos_site_id
 _symmetry_equiv_pos_as_xyz
  1  'x, y, z'
loop_
 _atom_site_type_symbol
 _atom_site_label
 _atom_site_symmetry_multiplicity
 _atom_site_fract_x
 _atom_site_fract_y
 _atom_site_fract_z
 _atom_site_occupancy
  B  B0  1  0.63933100  0.64592300  0.01575600  1
  B  B1  1  0.86066900  0.64592300  0.51575600  1
  B  B2  1  0.36066900  0.35407700  0.98424400  1
  B  B3  1  0.13933100  0.35407700  0.48424400  1
  B  B4  1  0.63731400  0.42210500  0.15503000  1
  B  B5  1  0.86268600  0.42210500  0.65503000  1
  B  B6  1  0.36268600  0.57789500  0.84497000  1
  B  B7  1  0.13731400  0.57789500  0.34497000  1
  B  B8  1  0.74122200  0.52854200  0.08693300  1
  B  B9  1  0.75877800  0.52854200  0.58693300  1
  B  B10  1  0.25877800  0.47145800  0.91306700  1
  B  B11  1  0.24122200  0.47145800  0.41306700  1
  B  B12  1  0.73741300  0.78757800  0.99734800  1
  B  B13  1  0.76258700  0.78757800  0.49734800  1
  B  B14  1  0.26258700  0.21242200  0.00265200  1
  B  B15  1  0.23741300  0.21242200  0.50265200  1
  B  B16  1  0.56587200  0.62318000  0.14064700  1
  B  B17  1  0.93412800  0.62318000  0.64064700  1
  B  B18  1  0.43412800  0.37682000  0.85935300  1
  B  B19  1  0.06587200  0.37682000  0.35935300  1
  B  B20  1  0.61421200  0.46043700  0.29191700  1
  B  B21  1  0.88578800  0.46043700  0.79191700  1
  B  B22  1  0.38578800  0.53956300  0.70808300  1
  B  B23  1  0.11421200  0.53956300  0.20808300  1
  B  B24  1  0.72863400  0.43386800  0.25434500  1
  B  B25  1  0.77136600  0.43386800  0.75434500  1
  B  B26  1  0.27136600  0.56613200  0.74565500  1
  B  B27  1  0.22863400  0.56613200  0.24565500  1
  B  B28  1  0.79457600  0.68045700  0.14892600  1
  B  B29  1  0.70542400  0.68045700  0.64892600  1
  B  B30  1  0.20542400  0.31954300  0.85107400  1
  B  B31  1  0.29457600  0.31954300  0.35107400  1
  B  B32  1  0.73596900  0.90778200  0.09859700  1
  B  B33  1  0.76403100  0.90778200  0.59859700  1
  B  B34  1  0.26403100  0.09221800  0.90140300  1
  B  B35  1  0.23596900  0.09221800  0.40140300  1
  B  B36  1  0.63239200  0.86506600  0.03538300  1
  B  B37  1  0.86760800  0.86506600  0.53538300  1
  B  B38  1  0.36760800  0.13493400  0.96461700  1
  B  B39  1  0.13239200  0.13493400  0.46461700  1
  H  H0  1  0.60276900  0.65396600  0.92021100  1
  H  H1  1  0.89723100  0.65396600  0.42021100  1
  H  H2  1  0.39723100  0.34603400  0.07978900  1
  H  H3  1  0.10276900  0.34603400  0.57978900  1
  H  H4  1  0.61024300  0.27690400  0.14732600  1
  H  H5  1  0.88975700  0.27690400  0.64732600  1
  H  H6  1  0.38975700  0.72309600  0.85267400  1
  H  H7  1  0.11024300  0.72309600  0.35267400  1
  H  H8  1  0.79001600  0.43538800  0.05029700  1
  H  H9  1  0.70998400  0.43538800  0.55029700  1
  H  H10  1  0.20998400  0.56461200  0.94970300  1
  H  H11  1  0.29001600  0.56461200  0.44970300  1
  H  H12  1  0.77272500  0.85810200  0.89397200  1
  H  H13  1  0.72727500  0.85810200  0.39397200  1
  H  H14  1  0.22727500  0.14189800  0.10602800  1
  H  H15  1  0.27272500  0.14189800  0.60602800  1
  H  H16  1  0.48688400  0.62705900  0.12729200  1
  H  H17  1  0.01311600  0.62705900  0.62729200  1
  H  H18  1  0.51311600  0.37294100  0.87270800  1
  H  H19  1  0.98688400  0.37294100  0.37270800  1
  H  H20  1  0.77188300  0.29918000  0.32592800  1
  H  H21  1  0.72811700  0.29918000  0.82592800  1
  H  H22  1  0.22811700  0.70082000  0.67407200  1
  H  H23  1  0.27188300  0.70082000  0.17407200  1
  H  H24  1  0.87270500  0.67970900  0.16727800  1
  H  H25  1  0.62729500  0.67970900  0.66727800  1
  H  H26  1  0.12729500  0.32029100  0.83272200  1
  H  H27  1  0.37270500  0.32029100  0.33272200  1
  H  H28  1  0.76614600  0.06129600  0.08775600  1
  H  H29  1  0.73385400  0.06129600  0.58775600  1
  H  H30  1  0.23385400  0.93870400  0.91224400  1
  H  H31  1  0.26614600  0.93870400  0.41224400  1
  H  H32  1  0.58900200  0.99950000  0.96436600  1
  H  H33  1  0.91099800  0.99950000  0.46436600  1
  H  H34  1  0.41099800  0.00050000  0.03563400  1
  H  H35  1  0.08900200  0.00050000  0.53563400  1
  H  H36  1  0.58163300  0.65137400  0.24507400  1
  H  H37  1  0.91836700  0.65137400  0.74507400  1
  H  H38  1  0.41836700  0.34862600  0.75492600  1
  H  H39  1  0.08163300  0.34862600  0.25492600  1
  H  H40  1  0.69527200  0.52332500  0.32191600  1
  H  H41  1  0.80472800  0.52332500  0.82191600  1
  H  H42  1  0.30472800  0.47667500  0.67808400  1
  H  H43  1  0.19527200  0.47667500  0.17808400  1
  H  H44  1  0.76350600  0.77908500  0.21488700  1
  H  H45  1  0.73649400  0.77908500  0.71488700  1
  H  H46  1  0.23649400  0.22091500  0.78511300  1
  H  H47  1  0.26350600  0.22091500  0.28511300  1
  H  H48  1  0.65119200  0.90583400  0.13612300  1
  H  H49  1  0.84880800  0.90583400  0.63612300  1
  H  H50  1  0.34880800  0.09416600  0.86387700  1
  H  H51  1  0.15119200  0.09416600  0.36387700  1
  C  C0  1  0.54147400  0.24004500  0.51417300  1
  C  C1  1  0.95852600  0.24004500  0.01417300  1
  C  C2  1  0.45852600  0.75995500  0.48582700  1
  C  C3  1  0.04147400  0.75995500  0.98582700  1
  S  S0  1  0.50522100  0.09831200  0.65076900  1
  S  S1  1  0.99477900  0.09831200  0.15076900  1
  S  S2  1  0.49477900  0.90168800  0.34923100  1
  S  S3  1  0.00522100  0.90168800  0.84923100  1
  N  N0  1  0.56906500  0.34597000  0.40894300  1
  N  N1  1  0.93093500  0.34597000  0.90894300  1
  N  N2  1  0.43093500  0.65403000  0.59105700  1
  N  N3  1  0.06906500  0.65403000  0.09105700  1
loop_
_geom_bond_atom_site_label_1
_geom_bond_atom_site_label_2
_geom_bond_distance
_geom_bond_site_symmetry_2
B0 H0 1.193735 1_554
B1 H1 1.193735 1_555
B2 H2 1.193735 1_556
B3 H3 1.193735 1_555
B4 H4 1.194514 1_555
B5 H5 1.194514 1_555
B6 H6 1.194514 1_555
B7 H7 1.194514 1_555
B8 H8 1.195980 1_555
B9 H9 1.195980 1_555
B10 H10 1.195980 1_555
B11 H11 1.195980 1_555
B12 H12 1.193409 1_555
B13 H13 1.193409 1_555
B14 H14 1.193409 1_555
B15 H15 1.193409 1_555
B16 H16 1.193103 1_555
B16 H36 1.307041 1_555
B17 H17 1.193103 1_655
B17 H37 1.307041 1_555
B18 H18 1.193103 1_555
B18 H38 1.307041 1_555
B19 H19 1.193103 1_455
B19 H39 1.307041 1_555
B20 H36 1.389747 1_555
B20 H40 1.394963 1_555
B20 N0 1.420214 1_555
B21 H37 1.389747 1_555
B21 H41 1.394963 1_555
B21 N1 1.420214 1_555
B22 H38 1.389747 1_555
B22 H42 1.394963 1_555
B22 N2 1.420214 1_555
B23 H39 1.389747 1_555
B23 H43 1.394963 1_555
B23 N3 1.420214 1_555
B24 H20 1.191496 1_555
B24 H40 1.306051 1_555
B25 H21 1.191496 1_555
B25 H41 1.306051 1_555
B26 H22 1.191496 1_555
B26 H42 1.306051 1_555
B27 H23 1.191496 1_555
B27 H43 1.306051 1_555
B28 H24 1.189692 1_555
B28 H44 1.331648 1_555
B29 H25 1.189692 1_555
B29 H45 1.331648 1_555
B30 H26 1.189692 1_555
B30 H46 1.331648 1_555
B31 H27 1.189692 1_555
B31 H47 1.331648 1_555
B32 H28 1.191139 1_565
B32 H44 1.338118 1_555
B32 H48 1.338963 1_555
B33 H29 1.191139 1_565
B33 H45 1.338118 1_555
B33 H49 1.338963 1_555
B34 H30 1.191139 1_545
B34 H46 1.338118 1_555
B34 H50 1.338963 1_555
B35 H31 1.191139 1_545
B35 H47 1.338118 1_555
B35 H51 1.338963 1_555
B36 H32 1.189449 1_554
B36 H48 1.328212 1_555
B37 H33 1.189449 1_555
B37 H49 1.328212 1_555
B38 H34 1.189449 1_556
B38 H50 1.328212 1_555
B39 H35 1.189449 1_555
B39 H51 1.328212 1_555
C0 N0 1.201809 1_555
C0 S0 1.570490 1_555
C1 N1 1.201809 1_554
C1 S1 1.570490 1_555
C2 N2 1.201809 1_555
C2 S2 1.570490 1_555
C3 N3 1.201809 1_556
C3 S3 1.570490 1_555
