# generated using pymatgen
data_LiCuBO3
_symmetry_space_group_name_H-M   'P 1'
_cell_length_a   5.19075400
_cell_length_b   5.20814918
_cell_length_c   5.56080936
_cell_angle_alpha   91.04565576
_cell_angle_beta   114.55988957
_cell_angle_gamma   119.28661869
_symmetry_Int_Tables_number   1
_chemical_formula_structural   LiCuBO3
_chemical_formula_sum   'Li2 Cu2 B2 O6'
_cell_volume   114.50831011
_cell_formula_units_Z   2
loop_
 _symmetry_equiv_pos_site_id
 _symmetry_equiv_pos_as_xyz
  1  'x, y, z'
loop_
 _atom_site_type_symbol
 _atom_site_label
 _atom_site_symmetry_multiplicity
 _atom_site_fract_x
 _atom_site_fract_y
 _atom_site_fract_z
 _atom_site_occupancy
  Li  Li0  1  0.44973800  0.38483800  0.69231900  1
  Li  Li1  1  0.55026200  0.61516200  0.30768100  1
  Cu  Cu0  1  0.16361800  0.77351700  0.74821800  1
  Cu  Cu1  1  0.83638200  0.22648300  0.25178200  1
  B  B0  1  0.81738500  0.07979200  0.74704600  1
  B  B1  1  0.18261500  0.92020800  0.25295400  1
  O  O0  1  0.02348100  0.30573300  0.66366600  1
  O  O1  1  0.63916100  0.14367600  0.84515100  1
  O  O2  1  0.76534200  0.79478800  0.71553100  1
  O  O3  1  0.23465800  0.20521200  0.28446900  1
  O  O4  1  0.36083900  0.85632400  0.15484900  1
  O  O5  1  0.97651900  0.69426700  0.33633400  1
loop_
_geom_bond_atom_site_label_1
_geom_bond_atom_site_label_2
_geom_bond_distance
_geom_bond_site_symmetry_2
Li0 O2 1.910792 1_555
Li0 O1 1.954267 1_555
Li0 O0 1.975703 1_555
Li0 O3 2.015242 1_555
Li1 O3 1.910792 1_555
Li1 O4 1.954267 1_555
Li1 O5 1.975703 1_555
Li1 O2 2.015242 1_555
Cu0 O4 1.988763 1_556
Cu0 O5 2.020822 1_455
Cu0 O2 2.057106 1_455
Cu0 O1 2.073768 1_565
Cu0 O0 2.150754 1_555
Cu1 O1 1.988763 1_554
Cu1 O0 2.020822 1_655
Cu1 O3 2.057106 1_655
Cu1 O4 2.073768 1_545
Cu1 O5 2.150754 1_555
B0 O2 1.365946 1_545
B0 O0 1.394552 1_655
B0 O1 1.406492 1_555
B1 O3 1.365946 1_565
B1 O5 1.394552 1_455
B1 O4 1.406492 1_555
