# generated using pymatgen
data_Li2Fe3NiO8
_symmetry_space_group_name_H-M   'P 1'
_cell_length_a   8.06661286
_cell_length_b   8.17401373
_cell_length_c   8.05425912
_cell_angle_alpha   90.01572261
_cell_angle_beta   89.77878347
_cell_angle_gamma   89.92771066
_symmetry_Int_Tables_number   1
_chemical_formula_structural   Li2Fe3NiO8
_chemical_formula_sum   'Li8 Fe12 Ni4 O32'
_cell_volume   531.06609484
_cell_formula_units_Z   4
loop_
 _symmetry_equiv_pos_site_id
 _symmetry_equiv_pos_as_xyz
  1  'x, y, z'
loop_
 _atom_site_type_symbol
 _atom_site_label
 _atom_site_symmetry_multiplicity
 _atom_site_fract_x
 _atom_site_fract_y
 _atom_site_fract_z
 _atom_site_occupancy
  Li  Li0  1  0.00356200  0.00037400  0.99813300  1
  Li  Li1  1  0.24750000  0.24962600  0.25068300  1
  Li  Li2  1  0.24753900  0.75097100  0.74985300  1
  Li  Li3  1  0.50006200  0.99883200  0.49734400  1
  Li  Li4  1  0.50427300  0.49762300  0.99766100  1
  Li  Li5  1  0.74807000  0.25243300  0.75467200  1
  Li  Li6  1  0.74823800  0.74964000  0.25389300  1
  Li  Li7  1  0.00085300  0.50037700  0.49757100  1
  Fe  Fe0  1  0.12101100  0.12823800  0.62385100  1
  Fe  Fe1  1  0.12479600  0.37634700  0.87241800  1
  Fe  Fe2  1  0.12695500  0.62467800  0.12288600  1
  Fe  Fe3  1  0.37191500  0.37502000  0.62212200  1
  Fe  Fe4  1  0.37364200  0.62172500  0.37116800  1
  Fe  Fe5  1  0.37858100  0.87174600  0.12391400  1
  Fe  Fe6  1  0.62235400  0.37372900  0.37474900  1
  Fe  Fe7  1  0.62721900  0.12257900  0.12777100  1
  Fe  Fe8  1  0.62831400  0.87502600  0.87829900  1
  Fe  Fe9  1  0.87276600  0.12530400  0.37681700  1
  Fe  Fe10  1  0.87390400  0.87827500  0.62872400  1
  Fe  Fe11  1  0.87801900  0.62751300  0.87708500  1
  Ni  Ni0  1  0.12434100  0.87501800  0.37440100  1
  Ni  Ni1  1  0.37560600  0.12522500  0.87415500  1
  Ni  Ni2  1  0.62417100  0.62474600  0.62564400  1
  Ni  Ni3  1  0.87600000  0.37496400  0.12584300  1
  O  O0  1  0.10776400  0.11068700  0.38769000  1
  O  O1  1  0.10875400  0.89637200  0.61778000  1
  O  O2  1  0.11477200  0.60814300  0.88694900  1
  O  O3  1  0.13365500  0.14558300  0.85971100  1
  O  O4  1  0.11343900  0.39156800  0.11025000  1
  O  O5  1  0.13522300  0.36051400  0.63495000  1
  O  O6  1  0.13784400  0.63939400  0.35814300  1
  O  O7  1  0.14409500  0.85697100  0.13126800  1
  O  O8  1  0.35710300  0.14183000  0.63242200  1
  O  O9  1  0.36030500  0.36245300  0.85782900  1
  O  O10  1  0.36260300  0.63439200  0.13484800  1
  O  O11  1  0.38220000  0.60798200  0.60740900  1
  O  O12  1  0.36757000  0.85361900  0.35882800  1
  O  O13  1  0.38500500  0.38937600  0.38529700  1
  O  O14  1  0.39251900  0.10824100  0.11605700  1
  O  O15  1  0.39220900  0.88801100  0.88910100  1
  O  O16  1  0.60749600  0.38729200  0.61054500  1
  O  O17  1  0.60929000  0.60449200  0.38339800  1
  O  O18  1  0.61429300  0.88783700  0.11449000  1
  O  O19  1  0.63849500  0.35784400  0.13900400  1
  O  O20  1  0.61710200  0.10634600  0.89159400  1
  O  O21  1  0.63708800  0.14201800  0.36482000  1
  O  O22  1  0.63932100  0.86214800  0.64207000  1
  O  O23  1  0.64217100  0.64358100  0.86750900  1
  O  O24  1  0.86021500  0.35833300  0.36337400  1
  O  O25  1  0.86143200  0.13341900  0.14149600  1
  O  O26  1  0.86440700  0.86209500  0.86469300  1
  O  O27  1  0.88135000  0.89310000  0.39410100  1
  O  O28  1  0.86639600  0.64195100  0.64227200  1
  O  O29  1  0.88496800  0.11567800  0.61285300  1
  O  O30  1  0.88924800  0.39235800  0.88812600  1
  O  O31  1  0.89197800  0.61650000  0.11160600  1
loop_
_geom_bond_atom_site_label_1
_geom_bond_atom_site_label_2
_geom_bond_distance
_geom_bond_site_symmetry_2
Li0 O26 1.924722 1_445
Li0 O3 1.935948 1_555
Li0 O7 1.953373 1_546
Li0 O25 1.953560 1_456
Li1 O13 1.929389 1_555
Li1 O0 1.942258 1_555
Li1 O4 1.949862 1_555
Li1 O14 1.966190 1_555
Li2 O2 1.929768 1_555
Li2 O1 1.950382 1_555
Li2 O11 1.961817 1_555
Li2 O15 1.971604 1_555
Li3 O21 1.930222 1_565
Li3 O12 1.951281 1_555
Li3 O8 1.966206 1_565
Li3 O22 1.968908 1_555
Li4 O23 1.937700 1_555
Li4 O10 1.939856 1_556
Li4 O19 1.944429 1_556
Li4 O9 1.962279 1_555
Li5 O20 1.937300 1_555
Li5 O29 1.939128 1_555
Li5 O30 1.942294 1_555
Li5 O16 1.963737 1_555
Li6 O18 1.926429 1_555
Li6 O17 1.935697 1_555
Li6 O27 1.953236 1_555
Li6 O31 1.956534 1_555
Li7 O5 1.926916 1_555
Li7 O6 1.941075 1_555
Li7 O24 1.953322 1_455
Li7 O28 1.964736 1_455
Fe0 O1 1.898604 1_545
Fe0 O5 1.904325 1_555
Fe0 O3 1.908052 1_555
Fe0 O8 1.909354 1_555
Fe0 O29 1.909359 1_455
Fe0 O0 1.910877 1_555
Fe1 O3 1.890261 1_555
Fe1 O2 1.899883 1_555
Fe1 O9 1.906179 1_555
Fe1 O30 1.908121 1_455
Fe1 O5 1.918480 1_555
Fe1 O4 1.921388 1_556
Fe2 O31 1.899255 1_455
Fe2 O6 1.900978 1_555
Fe2 O7 1.905164 1_555
Fe2 O10 1.905447 1_555
Fe2 O2 1.907981 1_554
Fe2 O4 1.911404 1_555
Fe3 O9 1.903201 1_555
Fe3 O16 1.905038 1_555
Fe3 O11 1.909838 1_555
Fe3 O8 1.911793 1_555
Fe3 O13 1.913605 1_555
Fe3 O5 1.915522 1_555
Fe4 O12 1.898716 1_555
Fe4 O13 1.904774 1_555
Fe4 O11 1.907601 1_555
Fe4 O10 1.908641 1_555
Fe4 O17 1.908841 1_555
Fe4 O6 1.910673 1_555
Fe5 O7 1.896210 1_555
Fe5 O15 1.898720 1_554
Fe5 O12 1.899636 1_555
Fe5 O18 1.907327 1_555
Fe5 O14 1.937559 1_565
Fe5 O10 1.946568 1_555
Fe6 O17 1.890319 1_555
Fe6 O21 1.899228 1_555
Fe6 O16 1.905667 1_555
Fe6 O19 1.907087 1_555
Fe6 O13 1.920260 1_555
Fe6 O24 1.924524 1_555
Fe7 O25 1.895146 1_555
Fe7 O14 1.899712 1_555
Fe7 O20 1.908883 1_554
Fe7 O21 1.917779 1_555
Fe7 O18 1.924715 1_545
Fe7 O19 1.927440 1_555
Fe8 O20 1.895838 1_565
Fe8 O23 1.896941 1_555
Fe8 O22 1.907250 1_555
Fe8 O18 1.908106 1_556
Fe8 O15 1.909036 1_555
Fe8 O26 1.909991 1_555
Fe9 O25 1.899066 1_555
Fe9 O0 1.901606 1_655
Fe9 O27 1.904367 1_545
Fe9 O29 1.905662 1_555
Fe9 O21 1.908675 1_555
Fe9 O24 1.910466 1_555
Fe10 O27 1.894355 1_555
Fe10 O22 1.899674 1_555
Fe10 O1 1.902103 1_655
Fe10 O26 1.906439 1_555
Fe10 O28 1.935836 1_555
Fe10 O29 1.946913 1_565
Fe11 O31 1.894838 1_556
Fe11 O28 1.897627 1_555
Fe11 O23 1.908715 1_555
Fe11 O2 1.918101 1_655
Fe11 O26 1.923121 1_555
Fe11 O30 1.926273 1_555
Ni0 O6 1.933309 1_555
Ni0 O0 1.933735 1_565
Ni0 O7 1.969592 1_555
Ni0 O27 1.971275 1_455
Ni0 O1 1.971462 1_555
Ni0 O12 1.973101 1_555
Ni1 O15 1.947231 1_545
Ni1 O9 1.947386 1_555
Ni1 O8 1.958002 1_555
Ni1 O14 1.958590 1_556
Ni1 O20 1.959547 1_555
Ni1 O3 1.962498 1_555
Ni2 O22 1.949017 1_555
Ni2 O16 1.949573 1_555
Ni2 O23 1.960034 1_555
Ni2 O17 1.962228 1_555
Ni2 O11 1.962928 1_555
Ni2 O28 1.964251 1_555
Ni3 O24 1.921741 1_555
Ni3 O30 1.922516 1_554
Ni3 O19 1.923658 1_555
Ni3 O4 1.923924 1_655
Ni3 O31 1.982006 1_555
Ni3 O25 1.982054 1_555
