# generated using pymatgen
data_Li2TiV2O6
_symmetry_space_group_name_H-M   'P 1'
_cell_length_a   5.17342130
_cell_length_b   10.25841800
_cell_length_c   5.17341794
_cell_angle_alpha   89.99969427
_cell_angle_beta   119.37786902
_cell_angle_gamma   90.00017803
_symmetry_Int_Tables_number   1
_chemical_formula_structural   Li2TiV2O6
_chemical_formula_sum   'Li4 Ti2 V4 O12'
_cell_volume   239.25170118
_cell_formula_units_Z   2
loop_
 _symmetry_equiv_pos_site_id
 _symmetry_equiv_pos_as_xyz
  1  'x, y, z'
loop_
 _atom_site_type_symbol
 _atom_site_label
 _atom_site_symmetry_multiplicity
 _atom_site_fract_x
 _atom_site_fract_y
 _atom_site_fract_z
 _atom_site_occupancy
  Li  Li0  1  0.62836200  0.75001400  0.12838600  1
  Li  Li1  1  0.87160900  0.24998400  0.37163600  1
  Li  Li2  1  0.12836300  0.74997500  0.62838500  1
  Li  Li3  1  0.37161300  0.25002200  0.87163500  1
  Ti  Ti0  1  0.00002300  0.00001100  0.99997800  1
  Ti  Ti1  1  0.50004700  0.50000000  0.49997000  1
  V  V0  1  0.66440300  0.00000200  0.33560000  1
  V  V1  1  0.16429000  0.50000000  0.83569800  1
  V  V2  1  0.83563800  0.50000000  0.16436400  1
  V  V3  1  0.33558800  0.00000100  0.66440100  1
  O  O0  1  0.17635800  0.59772500  0.17631200  1
  O  O1  1  0.32368800  0.09771500  0.32364200  1
  O  O2  1  0.67634700  0.90228600  0.67630700  1
  O  O3  1  0.82369800  0.40227900  0.82365100  1
  O  O4  1  0.68182900  0.10775900  0.01714200  1
  O  O5  1  0.31809500  0.89220000  0.98280400  1
  O  O6  1  0.51720400  0.39220500  0.18190600  1
  O  O7  1  0.81810100  0.60779100  0.48280200  1
  O  O8  1  0.98285700  0.89223500  0.31816400  1
  O  O9  1  0.18184000  0.39224200  0.51715200  1
  O  O10  1  0.48285600  0.60775800  0.81816500  1
  O  O11  1  0.01718900  0.10779700  0.68190000  1
loop_
_geom_bond_atom_site_label_1
_geom_bond_atom_site_label_2
_geom_bond_distance
_geom_bond_site_symmetry_2
Li0 O5 2.021172 1_554
Li0 O10 2.021555 1_554
Li0 O7 2.165220 1_555
Li0 O8 2.165474 1_555
Li1 O11 2.021164 1_655
Li1 O9 2.021596 1_655
Li1 O6 2.165174 1_555
Li1 O4 2.165503 1_555
Li2 O7 2.021140 1_455
Li2 O8 2.021575 1_455
Li2 O5 2.165251 1_555
Li2 O10 2.165441 1_555
Li3 O6 2.021165 1_556
Li3 O4 2.021587 1_556
Li3 O11 2.165264 1_555
Li3 O9 2.165422 1_555
O0 Ti1 1.965159 1_555
O0 V1 2.001530 1_554
O0 V2 2.002247 1_455
O1 Ti0 1.965013 1_554
O1 V0 2.002148 1_555
O1 V3 2.002462 1_555
O2 Ti0 1.965163 1_665
O2 V0 2.002148 1_565
O2 V3 2.002463 1_565
O3 Ti1 1.965105 1_555
O3 V1 2.001448 1_655
O3 V2 2.002218 1_556
O4 Ti0 2.020611 1_654
O4 V0 2.022397 1_555
O4 V3 2.133914 1_554
O5 Ti0 2.020460 1_565
O5 V3 2.022559 1_565
O5 V0 2.134419 1_566
O6 Ti1 2.020297 1_555
O6 V2 2.022775 1_555
O6 V1 2.134431 1_554
O7 Ti1 2.020250 1_555
O7 V2 2.022766 1_555
O7 V1 2.134327 1_655
O8 Ti0 2.020729 1_664
O8 V0 2.022467 1_565
O8 V3 2.133924 1_665
O9 Ti1 2.020758 1_555
O9 V1 2.023078 1_555
O9 V2 2.133932 1_455
O10 Ti1 2.020734 1_555
O10 V1 2.023118 1_555
O10 V2 2.133912 1_556
O11 Ti0 2.020318 1_555
O11 V3 2.022537 1_555
O11 V0 2.134342 1_455
