# generated using pymatgen
data_Li2PrP2
_symmetry_space_group_name_H-M   'P 1'
_cell_length_a   4.20061226
_cell_length_b   4.20061226
_cell_length_c   6.85004100
_cell_angle_alpha   90.00000000
_cell_angle_beta   90.00000000
_cell_angle_gamma   120.00000405
_symmetry_Int_Tables_number   1
_chemical_formula_structural   Li2PrP2
_chemical_formula_sum   'Li2 Pr1 P2'
_cell_volume   104.67644756
_cell_formula_units_Z   1
loop_
 _symmetry_equiv_pos_site_id
 _symmetry_equiv_pos_as_xyz
  1  'x, y, z'
loop_
 _atom_site_type_symbol
 _atom_site_label
 _atom_site_symmetry_multiplicity
 _atom_site_fract_x
 _atom_site_fract_y
 _atom_site_fract_z
 _atom_site_occupancy
  Li  Li0  1  0.66666700  0.33333300  0.62435200  1
  Li  Li1  1  0.33333300  0.66666700  0.37564800  1
  Pr  Pr0  1  0.00000000  0.00000000  0.00000000  1
  P  P0  1  0.66666700  0.33333300  0.24542000  1
  P  P1  1  0.33333300  0.66666700  0.75458000  1
loop_
_geom_bond_atom_site_label_1
_geom_bond_atom_site_label_2
_geom_bond_distance
_geom_bond_site_symmetry_2
Li0 P1 2.584083 1_545
Li0 P1 2.584083 1_655
Li0 P1 2.584090 1_555
Li0 P0 2.595700 1_555
Li1 P0 2.584083 1_455
Li1 P0 2.584083 1_565
Li1 P0 2.584090 1_555
Li1 P1 2.595700 1_555
P0 Pr0 2.950919 1_655
P0 Pr0 2.950922 1_555
P0 Pr0 2.950922 1_665
P1 Pr0 2.950919 1_566
P1 Pr0 2.950922 1_666
P1 Pr0 2.950922 1_556
