# generated using pymatgen
data_V3CoSn2(PO4)6
_symmetry_space_group_name_H-M   'P 1'
_cell_length_a   8.94686156
_cell_length_b   8.94686156
_cell_length_c   8.94686191
_cell_angle_alpha   57.21802593
_cell_angle_beta   57.21802593
_cell_angle_gamma   57.21803471
_symmetry_Int_Tables_number   1
_chemical_formula_structural   V3CoSn2(PO4)6
_chemical_formula_sum   'V3 Co1 Sn2 P6 O24'
_cell_volume   473.95568684
_cell_formula_units_Z   1
loop_
 _symmetry_equiv_pos_site_id
 _symmetry_equiv_pos_as_xyz
  1  'x, y, z'
loop_
 _atom_site_type_symbol
 _atom_site_label
 _atom_site_symmetry_multiplicity
 _atom_site_fract_x
 _atom_site_fract_y
 _atom_site_fract_z
 _atom_site_occupancy
  V  V0  1  0.64732300  0.64732300  0.64732300  1
  V  V1  1  0.85455300  0.85455300  0.85455300  1
  V  V2  1  0.35133900  0.35133900  0.35133900  1
  Co  Co0  1  0.14860100  0.14860100  0.14860100  1
  Sn  Sn0  1  0.00857200  0.00857200  0.00857200  1
  Sn  Sn1  1  0.49992900  0.49992900  0.49992900  1
  P  P0  1  0.53357400  0.96381800  0.24868900  1
  P  P1  1  0.24868900  0.53357400  0.96381800  1
  P  P2  1  0.96381800  0.24868900  0.53357400  1
  P  P3  1  0.03647800  0.74946800  0.46464100  1
  P  P4  1  0.74946800  0.46464100  0.03647800  1
  P  P5  1  0.46464100  0.03647800  0.74946800  1
  O  O0  1  0.28414600  0.50683200  0.12963900  1
  O  O1  1  0.12963900  0.28414600  0.50683200  1
  O  O2  1  0.50683200  0.12963900  0.28414600  1
  O  O3  1  0.72059600  0.93638000  0.07653000  1
  O  O4  1  0.36904000  0.98512000  0.22013600  1
  O  O5  1  0.56597700  0.77917900  0.42369600  1
  O  O6  1  0.07653000  0.72059600  0.93638000  1
  O  O7  1  0.42369600  0.56597700  0.77917900  1
  O  O8  1  0.00696100  0.78460600  0.63020800  1
  O  O9  1  0.77917900  0.42369600  0.56597700  1
  O  O10  1  0.05794200  0.92470400  0.27898900  1
  O  O11  1  0.78460600  0.63020800  0.00696100  1
  O  O12  1  0.22013600  0.36904000  0.98512000  1
  O  O13  1  0.93638000  0.07653000  0.72059600  1
  O  O14  1  0.22099700  0.57372500  0.43934800  1
  O  O15  1  0.98512000  0.22013600  0.36904000  1
  O  O16  1  0.57372500  0.43934800  0.22099700  1
  O  O17  1  0.92470400  0.27898900  0.05794200  1
  O  O18  1  0.43934800  0.22099700  0.57372500  1
  O  O19  1  0.63020800  0.00696100  0.78460600  1
  O  O20  1  0.27898900  0.05794200  0.92470400  1
  O  O21  1  0.49702000  0.87310300  0.70815200  1
  O  O22  1  0.87310300  0.70815200  0.49702000  1
  O  O23  1  0.70815200  0.49702000  0.87310300  1
loop_
_geom_bond_atom_site_label_1
_geom_bond_atom_site_label_2
_geom_bond_distance
_geom_bond_site_symmetry_2
Co0 O12 1.915218 1_554
Co0 O15 1.915218 1_455
Co0 O4 1.915218 1_545
Co0 O10 2.058105 1_545
Co0 O20 2.058105 1_554
Co0 O17 2.058105 1_455
O0 P1 1.549824 1_554
O0 V2 1.904885 1_555
O1 P2 1.549824 1_455
O1 V2 1.904885 1_555
O2 P0 1.549824 1_545
O2 V2 1.904885 1_555
O3 P0 1.551214 1_555
O3 V1 1.990818 1_554
O3 Sn0 2.665622 1_665
O4 P0 1.522906 1_555
O5 P0 1.560952 1_555
O5 V0 2.003889 1_555
O5 Sn1 2.524570 1_555
O6 P1 1.551214 1_555
O6 V1 1.990818 1_455
O6 Sn0 2.665622 1_566
O7 P1 1.560952 1_555
O7 V0 2.003888 1_555
O7 Sn1 2.524571 1_555
O8 P3 1.534146 1_555
O8 V1 1.937037 1_455
O9 P2 1.560952 1_555
O9 V0 2.003889 1_555
O9 Sn1 2.524571 1_555
O10 P3 1.553857 1_555
O10 Sn0 2.333240 1_565
O11 P4 1.534146 1_555
O11 V1 1.937037 1_554
O12 P1 1.522906 1_555
O13 P2 1.551214 1_555
O13 V1 1.990818 1_545
O13 Sn0 2.665622 1_656
O14 P3 1.555222 1_555
O14 V2 2.031814 1_555
O14 Sn1 2.500102 1_555
O15 P2 1.522906 1_555
O16 P4 1.555222 1_555
O16 V2 2.031814 1_555
O16 Sn1 2.500102 1_555
O17 P4 1.553858 1_555
O17 Sn0 2.333240 1_655
O18 P5 1.555222 1_555
O18 V2 2.031814 1_555
O18 Sn1 2.500102 1_555
O19 P5 1.534146 1_555
O19 V1 1.937037 1_545
O20 P5 1.553857 1_555
O20 Sn0 2.333240 1_556
O21 P5 1.538737 1_565
O21 V0 1.908248 1_555
O22 P3 1.538737 1_655
O22 V0 1.908248 1_555
O23 P4 1.538737 1_556
O23 V0 1.908248 1_555
