# generated using pymatgen
data_V2OF5
_symmetry_space_group_name_H-M   'P 1'
_cell_length_a   4.70661100
_cell_length_b   5.06402215
_cell_length_c   17.36712546
_cell_angle_alpha   90.77285011
_cell_angle_beta   90.28529363
_cell_angle_gamma   90.10890004
_symmetry_Int_Tables_number   1
_chemical_formula_structural   V2OF5
_chemical_formula_sum   'V8 O4 F20'
_cell_volume   413.89111943
_cell_formula_units_Z   4
loop_
 _symmetry_equiv_pos_site_id
 _symmetry_equiv_pos_as_xyz
  1  'x, y, z'
loop_
 _atom_site_type_symbol
 _atom_site_label
 _atom_site_symmetry_multiplicity
 _atom_site_fract_x
 _atom_site_fract_y
 _atom_site_fract_z
 _atom_site_occupancy
  V  V0  1  0.00283700  0.25581100  0.95177500  1
  V  V1  1  0.02080400  0.75872600  0.71651000  1
  V  V2  1  0.02718900  0.76730200  0.05623600  1
  V  V3  1  0.47766500  0.76799200  0.55737400  1
  V  V4  1  0.49501400  0.23787700  0.78780200  1
  V  V5  1  0.50027700  0.25335900  0.45115800  1
  V  V6  1  0.49975700  0.75100900  0.21254900  1
  V  V7  1  0.97647400  0.28170200  0.28866300  1
  O  O0  1  0.24579800  0.86579700  0.62630000  1
  O  O1  1  0.23600800  0.93025100  0.77810900  1
  O  O2  1  0.25486900  0.86480400  0.12635900  1
  O  O3  1  0.75935200  0.54778100  0.28185700  1
  F  F0  1  0.22086700  0.92810900  0.96671100  1
  F  F1  1  0.24538600  0.95080500  0.28297800  1
  F  F2  1  0.25182700  0.43278500  0.71462000  1
  F  F3  1  0.24028300  0.39281600  0.37029100  1
  F  F4  1  0.22266100  0.42720100  0.03672900  1
  F  F5  1  0.25701800  0.39513000  0.87236100  1
  F  F6  1  0.28147600  0.42828000  0.53575500  1
  F  F7  1  0.25203200  0.42467300  0.21464900  1
  F  F8  1  0.28253000  0.92769900  0.46706500  1
  F  F9  1  0.70843400  0.57835200  0.47151800  1
  F  F10  1  0.71790800  0.06779600  0.53582700  1
  F  F11  1  0.75223800  0.56076900  0.78163000  1
  F  F12  1  0.74172100  0.11271800  0.87052600  1
  F  F13  1  0.75947800  0.06629700  0.21362900  1
  F  F14  1  0.74547700  0.61472900  0.12615800  1
  F  F15  1  0.75991200  0.62204400  0.62943600  1
  F  F16  1  0.75197000  0.06016600  0.71187000  1
  F  F17  1  0.75847400  0.10978900  0.37126900  1
  F  F18  1  0.79514600  0.58050500  0.96973500  1
  F  F19  1  0.78594000  0.06776800  0.03576900  1
loop_
_geom_bond_atom_site_label_1
_geom_bond_atom_site_label_2
_geom_bond_distance
_geom_bond_site_symmetry_2
O0 V3 1.693591 1_555
O0 V1 1.976652 1_555
O1 V1 1.698726 1_555
O1 V4 1.981131 1_565
O2 V2 1.686420 1_555
O2 V6 1.977318 1_555
O3 V7 1.697694 1_555
O3 V6 2.006085 1_555
F0 V0 1.972227 1_565
F0 V2 1.989199 1_556
F1 V6 1.984673 1_555
F1 V7 2.103418 1_465
F2 V1 1.978252 1_555
F2 V4 1.980726 1_555
F3 V7 1.956095 1_455
F3 V5 1.995369 1_555
F4 V2 1.980107 1_555
F4 V0 1.986808 1_554
F5 V0 1.967385 1_555
F5 V4 2.008419 1_555
F6 V3 1.981454 1_555
F6 V5 1.996786 1_555
F7 V7 1.973999 1_455
F7 V6 2.021504 1_555
F8 V5 1.963420 1_565
F8 V3 1.995043 1_555
F9 V5 1.941174 1_555
F9 V3 2.075263 1_555
F10 V3 1.933022 1_545
F10 V5 2.029878 1_555
F11 V1 1.980342 1_655
F11 V4 2.036989 1_555
F12 V4 1.955705 1_555
F12 V0 1.994570 1_655
F13 V7 1.968569 1_555
F13 V6 2.008827 1_545
F14 V2 1.966489 1_655
F14 V6 2.014263 1_555
F15 V3 1.972148 1_555
F15 V1 2.055172 1_655
F16 V1 1.986785 1_645
F16 V4 1.999884 1_555
F17 V7 1.978325 1_555
F17 V5 1.980736 1_555
F18 V0 1.936938 1_655
F18 V2 2.070216 1_656
F19 V2 1.935957 1_645
F19 V0 2.031117 1_654
