# generated using pymatgen
data_Li5Fe8(BO3)8
_symmetry_space_group_name_H-M   'P 1'
_cell_length_a   5.22970300
_cell_length_b   9.12321657
_cell_length_c   11.38655916
_cell_angle_alpha   112.72032956
_cell_angle_beta   102.64372230
_cell_angle_gamma   89.93667656
_symmetry_Int_Tables_number   1
_chemical_formula_structural   Li5Fe8(BO3)8
_chemical_formula_sum   'Li5 Fe8 B8 O24'
_cell_volume   486.85727506
_cell_formula_units_Z   1
loop_
 _symmetry_equiv_pos_site_id
 _symmetry_equiv_pos_as_xyz
  1  'x, y, z'
loop_
 _atom_site_type_symbol
 _atom_site_label
 _atom_site_symmetry_multiplicity
 _atom_site_fract_x
 _atom_site_fract_y
 _atom_site_fract_z
 _atom_site_occupancy
  Li  Li0  1  0.29470300  0.27422400  0.91709600  1
  Li  Li1  1  0.48016400  0.50559700  0.65894400  1
  Li  Li2  1  0.53277300  0.53591500  0.41086400  1
  Li  Li3  1  0.98557900  0.00546500  0.66487400  1
  Li  Li4  1  0.76776800  0.75562900  0.16519000  1
  Fe  Fe0  1  0.03504200  0.34228100  0.37635500  1
  Fe  Fe1  1  0.26247400  0.92739600  0.88169000  1
  Fe  Fe2  1  0.46259800  0.15581400  0.62234900  1
  Fe  Fe3  1  0.24529600  0.55952200  0.13592100  1
  Fe  Fe4  1  0.77665100  0.43810000  0.87921300  1
  Fe  Fe5  1  0.51237600  0.85949100  0.38155300  1
  Fe  Fe6  1  0.97215200  0.65288300  0.63238600  1
  Fe  Fe7  1  0.73936600  0.07344500  0.12729600  1
  B  B0  1  0.00904700  0.68109200  0.37759100  1
  B  B1  1  0.26227000  0.59356800  0.87136600  1
  B  B2  1  0.47014100  0.81336200  0.62177700  1
  B  B3  1  0.23891200  0.89873200  0.13324500  1
  B  B4  1  0.53350300  0.18947800  0.37368000  1
  B  B5  1  0.77298500  0.11410800  0.88314200  1
  B  B6  1  0.98031900  0.31782100  0.63371200  1
  B  B7  1  0.73083500  0.39500300  0.12296300  1
  O  O0  1  0.01979800  0.09675500  0.86003300  1
  O  O1  1  0.11883800  0.70221700  0.83730100  1
  O  O2  1  0.15029600  0.49207600  0.91753300  1
  O  O3  1  0.09396800  0.18395300  0.63529200  1
  O  O4  1  0.09097400  0.42253800  0.59260300  1
  O  O5  1  0.24031800  0.84605600  0.66428400  1
  O  O6  1  0.26395000  0.67556500  0.35296600  1
  O  O7  1  0.51854000  0.57761600  0.85950400  1
  O  O8  1  0.62192500  0.22822800  0.84858100  1
  O  O9  1  0.44810000  0.07917900  0.41871800  1
  O  O10  1  0.41751600  0.32716100  0.39159900  1
  O  O11  1  0.65424100  0.02422400  0.93300700  1
  O  O12  1  0.36998700  0.98856300  0.08791100  1
  O  O13  1  0.58465700  0.67430200  0.61136000  1
  O  O14  1  0.58765900  0.92271500  0.58292400  1
  O  O15  1  0.38573800  0.79376700  0.18029300  1
  O  O16  1  0.46623300  0.38405200  0.11177100  1
  O  O17  1  0.74425900  0.35192500  0.67741200  1
  O  O18  1  0.75041300  0.15731900  0.31874600  1
  O  O19  1  0.91635400  0.57217100  0.41726000  1
  O  O20  1  0.85272400  0.79484500  0.35540500  1
  O  O21  1  0.84097600  0.51018100  0.08652200  1
  O  O22  1  0.88833200  0.29185900  0.16222900  1
  O  O23  1  0.97628400  0.90714800  0.13150300  1
loop_
_geom_bond_atom_site_label_1
_geom_bond_atom_site_label_2
_geom_bond_distance
_geom_bond_site_symmetry_2
Li0 O0 1.973345 1_555
Li0 O8 2.010762 1_555
Li0 O16 2.034234 1_556
Li0 O2 2.123970 1_555
Li1 O13 1.933076 1_555
Li1 O17 2.003405 1_555
Li1 O4 2.043437 1_555
Li1 O7 2.080334 1_555
Li2 O10 1.913250 1_555
Li2 O19 2.014376 1_555
Li2 O6 2.067225 1_555
Li2 O13 2.093467 1_555
Li3 O3 1.896241 1_655
Li3 O5 1.970272 1_645
Li3 O0 2.015040 1_655
Li3 O14 2.092954 1_545
Li4 O23 1.960402 1_555
Li4 O20 1.999248 1_555
Li4 O15 2.060318 1_555
Li4 O21 2.135908 1_555
Fe0 O10 1.978877 1_555
Fe0 O18 2.053418 1_455
Fe0 O19 2.090482 1_455
Fe0 O4 2.230959 1_555
Fe0 O22 2.249524 1_455
Fe1 O1 2.018718 1_555
Fe1 O0 2.052266 1_565
Fe1 O11 2.097774 1_565
Fe1 O12 2.133505 1_556
Fe1 O5 2.268881 1_555
Fe2 O3 1.974385 1_555
Fe2 O17 2.121070 1_555
Fe2 O14 2.130674 1_545
Fe2 O9 2.131113 1_555
Fe2 O8 2.348082 1_555
Fe3 O16 1.941218 1_555
Fe3 O21 2.067816 1_455
Fe3 O15 2.090151 1_555
Fe3 O2 2.255424 1_554
Fe3 O6 2.260908 1_555
Fe4 O7 1.891240 1_555
Fe4 O2 1.927199 1_655
Fe4 O8 1.951027 1_555
Fe4 O17 2.088342 1_555
Fe4 O21 2.138105 1_556
Fe5 O20 1.923182 1_555
Fe5 O9 1.927367 1_565
Fe5 O6 2.001823 1_555
Fe5 O15 2.079628 1_555
Fe5 O14 2.080593 1_555
Fe6 O13 2.006243 1_555
Fe6 O4 2.095849 1_655
Fe6 O5 2.119587 1_655
Fe6 O1 2.154343 1_655
Fe6 O19 2.218529 1_555
Fe7 O23 1.966019 1_545
Fe7 O12 1.971859 1_545
Fe7 O22 1.997812 1_555
Fe7 O18 1.999372 1_555
Fe7 O11 2.023840 1_554
B0 O19 1.367523 1_455
B0 O20 1.385427 1_455
B0 O6 1.418025 1_555
B1 O1 1.365148 1_555
B1 O7 1.378127 1_555
B1 O2 1.410167 1_555
B2 O13 1.376751 1_555
B2 O5 1.382088 1_555
B2 O14 1.424803 1_555
B3 O23 1.371756 1_455
B3 O12 1.375116 1_555
B3 O15 1.417111 1_555
B4 O10 1.357167 1_555
B4 O18 1.390064 1_555
B4 O9 1.405336 1_555
B5 O0 1.369823 1_655
B5 O11 1.376816 1_555
B5 O8 1.428817 1_555
B6 O3 1.362297 1_655
B6 O4 1.389945 1_655
B6 O17 1.420188 1_555
B7 O16 1.361751 1_555
B7 O22 1.387761 1_555
B7 O21 1.432095 1_555
