# generated using pymatgen
data_TiMn3O8
_symmetry_space_group_name_H-M   'P 1'
_cell_length_a   8.27550900
_cell_length_b   8.27550900
_cell_length_c   8.27550900
_cell_angle_alpha   90.00000000
_cell_angle_beta   90.00000000
_cell_angle_gamma   90.00000000
_symmetry_Int_Tables_number   1
_chemical_formula_structural   TiMn3O8
_chemical_formula_sum   'Ti4 Mn12 O32'
_cell_volume   566.74036559
_cell_formula_units_Z   4
loop_
 _symmetry_equiv_pos_site_id
 _symmetry_equiv_pos_as_xyz
  1  'x, y, z'
loop_
 _atom_site_type_symbol
 _atom_site_label
 _atom_site_symmetry_multiplicity
 _atom_site_fract_x
 _atom_site_fract_y
 _atom_site_fract_z
 _atom_site_occupancy
  Ti  Ti0  1  0.12500000  0.87500000  0.37500000  1
  Ti  Ti1  1  0.37500000  0.12500000  0.87500000  1
  Ti  Ti2  1  0.62500000  0.62500000  0.62500000  1
  Ti  Ti3  1  0.87500000  0.37500000  0.12500000  1
  Mn  Mn0  1  0.12228200  0.12771800  0.62500000  1
  Mn  Mn1  1  0.12500000  0.37771800  0.87228200  1
  Mn  Mn2  1  0.12771800  0.62500000  0.12228200  1
  Mn  Mn3  1  0.37228200  0.37500000  0.62228200  1
  Mn  Mn4  1  0.37500000  0.62228200  0.37228200  1
  Mn  Mn5  1  0.37771800  0.87228200  0.12500000  1
  Mn  Mn6  1  0.62228200  0.37228200  0.37500000  1
  Mn  Mn7  1  0.62500000  0.12228200  0.12771800  1
  Mn  Mn8  1  0.62771800  0.87500000  0.87771800  1
  Mn  Mn9  1  0.87228200  0.12500000  0.37771800  1
  Mn  Mn10  1  0.87500000  0.87771800  0.62771800  1
  Mn  Mn11  1  0.87771800  0.62771800  0.87500000  1
  O  O0  1  0.10597100  0.11397600  0.39103100  1
  O  O1  1  0.10896900  0.89402900  0.61397600  1
  O  O2  1  0.11152000  0.61152000  0.88848000  1
  O  O3  1  0.13602400  0.14402900  0.85896900  1
  O  O4  1  0.11397600  0.39103100  0.10597100  1
  O  O5  1  0.13848000  0.36152000  0.63848000  1
  O  O6  1  0.14103100  0.63602400  0.35597100  1
  O  O7  1  0.14402900  0.85896900  0.13602400  1
  O  O8  1  0.35597100  0.14103100  0.63602400  1
  O  O9  1  0.35896900  0.36397600  0.85597100  1
  O  O10  1  0.36152000  0.63848000  0.13848000  1
  O  O11  1  0.38602400  0.60896900  0.60597100  1
  O  O12  1  0.36397600  0.85597100  0.35896900  1
  O  O13  1  0.38848000  0.38848000  0.38848000  1
  O  O14  1  0.39103100  0.10597100  0.11397600  1
  O  O15  1  0.39402900  0.88602400  0.89103100  1
  O  O16  1  0.60597100  0.38602400  0.60896900  1
  O  O17  1  0.60896900  0.60597100  0.38602400  1
  O  O18  1  0.61152000  0.88848000  0.11152000  1
  O  O19  1  0.63602400  0.35597100  0.14103100  1
  O  O20  1  0.61397600  0.10896900  0.89402900  1
  O  O21  1  0.63848000  0.13848000  0.36152000  1
  O  O22  1  0.64103100  0.86397600  0.64402900  1
  O  O23  1  0.64402900  0.64103100  0.86397600  1
  O  O24  1  0.85597100  0.35896900  0.36397600  1
  O  O25  1  0.85896900  0.13602400  0.14402900  1
  O  O26  1  0.86152000  0.86152000  0.86152000  1
  O  O27  1  0.88602400  0.89103100  0.39402900  1
  O  O28  1  0.86397600  0.64402900  0.64103100  1
  O  O29  1  0.88848000  0.11152000  0.61152000  1
  O  O30  1  0.89103100  0.39402900  0.88602400  1
  O  O31  1  0.89402900  0.61397600  0.10896900  1
loop_
_geom_bond_atom_site_label_1
_geom_bond_atom_site_label_2
_geom_bond_distance
_geom_bond_site_symmetry_2
Mn0 O1 1.939178 1_545
Mn0 O8 1.939178 1_555
Mn0 O29 1.942674 1_455
Mn0 O5 1.942674 1_555
Mn0 O3 1.944241 1_555
Mn0 O0 1.944241 1_555
Mn1 O4 1.939178 1_556
Mn1 O3 1.939178 1_555
Mn1 O5 1.942674 1_555
Mn1 O2 1.942674 1_555
Mn1 O9 1.944241 1_555
Mn1 O30 1.944241 1_455
Mn2 O31 1.939178 1_455
Mn2 O6 1.939178 1_555
Mn2 O2 1.942674 1_554
Mn2 O10 1.942674 1_555
Mn2 O7 1.944241 1_555
Mn2 O4 1.944241 1_555
Mn3 O16 1.939178 1_555
Mn3 O9 1.939178 1_555
Mn3 O13 1.942674 1_555
Mn3 O5 1.942674 1_555
Mn3 O8 1.944241 1_555
Mn3 O11 1.944241 1_555
Mn4 O11 1.939178 1_555
Mn4 O12 1.939178 1_555
Mn4 O13 1.942674 1_555
Mn4 O10 1.942674 1_555
Mn4 O6 1.944241 1_555
Mn4 O17 1.944241 1_555
Mn5 O14 1.939178 1_565
Mn5 O7 1.939178 1_555
Mn5 O10 1.942674 1_555
Mn5 O18 1.942674 1_555
Mn5 O12 1.944241 1_555
Mn5 O15 1.944241 1_554
Mn6 O17 1.939178 1_555
Mn6 O24 1.939178 1_555
Mn6 O13 1.942674 1_555
Mn6 O21 1.942674 1_555
Mn6 O19 1.944241 1_555
Mn6 O16 1.944241 1_555
Mn7 O20 1.939178 1_554
Mn7 O19 1.939178 1_555
Mn7 O18 1.942674 1_545
Mn7 O21 1.942674 1_555
Mn7 O25 1.944241 1_555
Mn7 O14 1.944241 1_555
Mn8 O22 1.939178 1_555
Mn8 O15 1.939178 1_555
Mn8 O18 1.942674 1_556
Mn8 O26 1.942674 1_555
Mn8 O23 1.944241 1_555
Mn8 O20 1.944241 1_565
Mn9 O0 1.939178 1_655
Mn9 O25 1.939178 1_555
Mn9 O21 1.942674 1_555
Mn9 O29 1.942674 1_555
Mn9 O24 1.944241 1_555
Mn9 O27 1.944241 1_545
Mn10 O28 1.939178 1_555
Mn10 O27 1.939178 1_555
Mn10 O26 1.942674 1_555
Mn10 O29 1.942674 1_565
Mn10 O22 1.944241 1_555
Mn10 O1 1.944241 1_655
Mn11 O23 1.939178 1_555
Mn11 O30 1.939178 1_555
Mn11 O2 1.942674 1_655
Mn11 O26 1.942674 1_555
Mn11 O28 1.944241 1_555
Mn11 O31 1.944241 1_556
O0 Ti0 1.988338 1_545
O1 Ti0 1.988338 1_555
O3 Ti1 1.988338 1_555
O4 Ti3 1.988338 1_455
O6 Ti0 1.988338 1_555
O7 Ti0 1.988338 1_555
O8 Ti1 1.988338 1_555
O9 Ti1 1.988338 1_555
O11 Ti2 1.988338 1_555
O12 Ti0 1.988338 1_555
O14 Ti1 1.988338 1_554
O15 Ti1 1.988338 1_565
O16 Ti2 1.988338 1_555
O17 Ti2 1.988338 1_555
O19 Ti3 1.988338 1_555
O20 Ti1 1.988338 1_555
O22 Ti2 1.988338 1_555
O23 Ti2 1.988338 1_555
O24 Ti3 1.988338 1_555
O25 Ti3 1.988338 1_555
O27 Ti0 1.988338 1_655
O28 Ti2 1.988338 1_555
O30 Ti3 1.988338 1_556
O31 Ti3 1.988338 1_555
