# generated using pymatgen
data_V3OF11
_symmetry_space_group_name_H-M   'P 1'
_cell_length_a   5.27071000
_cell_length_b   5.44345329
_cell_length_c   14.61490194
_cell_angle_alpha   79.54211173
_cell_angle_beta   89.95822849
_cell_angle_gamma   89.96054993
_symmetry_Int_Tables_number   1
_chemical_formula_structural   V3OF11
_chemical_formula_sum   'V6 O2 F22'
_cell_volume   412.34858159
_cell_formula_units_Z   2
loop_
 _symmetry_equiv_pos_site_id
 _symmetry_equiv_pos_as_xyz
  1  'x, y, z'
loop_
 _atom_site_type_symbol
 _atom_site_label
 _atom_site_symmetry_multiplicity
 _atom_site_fract_x
 _atom_site_fract_y
 _atom_site_fract_z
 _atom_site_occupancy
  V  V0  1  0.49823600  0.66770500  0.66556200  1
  V  V1  1  0.00000000  0.50000000  0.00000000  1
  V  V2  1  0.50176400  0.33229500  0.33443800  1
  V  V3  1  0.99312500  0.16562400  0.67242500  1
  V  V4  1  0.50000000  0.00000000  0.00000000  1
  V  V5  1  0.00687500  0.83437600  0.32757500  1
  O  O0  1  0.91812800  0.12330200  0.78171900  1
  O  O1  1  0.08187200  0.87669800  0.21828100  1
  F  F0  1  0.70458200  0.64018000  0.30889500  1
  F  F1  1  0.79906700  0.47084400  0.64087500  1
  F  F2  1  0.20093300  0.52915600  0.35912500  1
  F  F3  1  0.58588400  0.62351200  0.78419400  1
  F  F4  1  0.91356300  0.45646400  0.11859800  1
  F  F5  1  0.58430400  0.28962200  0.45236600  1
  F  F6  1  0.08643700  0.54353600  0.88140200  1
  F  F7  1  0.41411600  0.37648800  0.21580600  1
  F  F8  1  0.08798600  0.21038000  0.54942900  1
  F  F9  1  0.70037300  0.30879900  0.97502000  1
  F  F10  1  0.79861800  0.13769500  0.30855200  1
  F  F11  1  0.70597800  0.97442400  0.64084600  1
  F  F12  1  0.29541800  0.35982000  0.69110500  1
  F  F13  1  0.20046700  0.19146100  0.02495600  1
  F  F14  1  0.29402200  0.02557600  0.35915400  1
  F  F15  1  0.58604700  0.95656900  0.11857300  1
  F  F16  1  0.91201400  0.78962000  0.45057100  1
  F  F17  1  0.41395300  0.04343100  0.88142700  1
  F  F18  1  0.41569600  0.71037800  0.54763400  1
  F  F19  1  0.79953300  0.80853900  0.97504400  1
  F  F20  1  0.20138200  0.86230500  0.69144800  1
  F  F21  1  0.29962700  0.69120100  0.02498000  1
loop_
_geom_bond_atom_site_label_1
_geom_bond_atom_site_label_2
_geom_bond_distance
_geom_bond_site_symmetry_2
O0 V3 1.620610 1_555
O1 V5 1.620610 1_555
F0 V5 1.959160 1_655
F0 V2 1.966139 1_555
F1 V3 1.933762 1_555
F1 V0 1.982372 1_555
F2 V5 1.933762 1_555
F2 V2 1.982372 1_555
F3 V0 1.768313 1_555
F4 V1 1.765763 1_655
F5 V2 1.751945 1_555
F6 V1 1.765763 1_556
F7 V2 1.768313 1_555
F8 V3 1.838610 1_455
F9 V1 1.962549 1_656
F9 V4 1.962979 1_556
F10 V5 1.959491 1_645
F10 V2 1.963580 1_555
F11 V3 1.940206 1_565
F11 V0 1.974840 1_555
F12 V3 1.959160 1_455
F12 V0 1.966139 1_555
F13 V1 1.961111 1_555
F13 V4 1.961268 1_555
F14 V5 1.940206 1_545
F14 V2 1.974840 1_555
F15 V4 1.765476 1_565
F16 V5 1.838610 1_655
F17 V4 1.765476 1_556
F18 V0 1.751945 1_555
F19 V1 1.961111 1_656
F19 V4 1.961268 1_566
F20 V3 1.959491 1_465
F20 V0 1.963580 1_555
F21 V1 1.962549 1_555
F21 V4 1.962979 1_565
