# generated using pymatgen
data_Li2MnFe(BO3)2
_symmetry_space_group_name_H-M   'P 1'
_cell_length_a   5.26388692
_cell_length_b   8.97529099
_cell_length_c   6.03776508
_cell_angle_alpha   102.45011223
_cell_angle_beta   113.81519677
_cell_angle_gamma   90.92772174
_symmetry_Int_Tables_number   1
_chemical_formula_structural   Li2MnFe(BO3)2
_chemical_formula_sum   'Li4 Mn2 Fe2 B4 O12'
_cell_volume   253.12073751
_cell_formula_units_Z   2
loop_
 _symmetry_equiv_pos_site_id
 _symmetry_equiv_pos_as_xyz
  1  'x, y, z'
loop_
 _atom_site_type_symbol
 _atom_site_label
 _atom_site_symmetry_multiplicity
 _atom_site_fract_x
 _atom_site_fract_y
 _atom_site_fract_z
 _atom_site_occupancy
  Li  Li0  1  0.40630400  0.03409900  0.67552700  1
  Li  Li1  1  0.59368800  0.96589900  0.32446500  1
  Li  Li2  1  0.90257700  0.53271600  0.66936100  1
  Li  Li3  1  0.09745000  0.46726400  0.33065300  1
  Mn  Mn0  1  0.95816100  0.20848900  0.76935600  1
  Mn  Mn1  1  0.04186100  0.79153600  0.23070300  1
  Fe  Fe0  1  0.44994600  0.70855200  0.76287200  1
  Fe  Fe1  1  0.55027300  0.29151600  0.23718500  1
  B  B0  1  0.44502700  0.36851400  0.74028800  1
  B  B1  1  0.55493800  0.63148800  0.25969500  1
  B  B2  1  0.06014000  0.13450500  0.26207000  1
  B  B3  1  0.93982300  0.86549200  0.73789700  1
  O  O0  1  0.38103400  0.24652700  0.82832300  1
  O  O1  1  0.61899500  0.75346400  0.17168000  1
  O  O2  1  0.27650300  0.48543700  0.70659000  1
  O  O3  1  0.72344500  0.51455900  0.29344800  1
  O  O4  1  0.17499100  0.86293900  0.68488600  1
  O  O5  1  0.82495300  0.13700400  0.31506800  1
  O  O6  1  0.67141200  0.36545000  0.67599800  1
  O  O7  1  0.32855300  0.63457100  0.32398300  1
  O  O8  1  0.86836500  0.74375100  0.82139300  1
  O  O9  1  0.13157600  0.25623000  0.17856500  1
  O  O10  1  0.22549400  0.01653000  0.29941800  1
  O  O11  1  0.77449100  0.98346800  0.70057500  1
loop_
_geom_bond_atom_site_label_1
_geom_bond_atom_site_label_2
_geom_bond_distance
_geom_bond_site_symmetry_2
Li0 O11 1.951162 1_545
Li0 O0 1.962861 1_555
Li0 O4 1.969295 1_545
Li0 O10 2.045196 1_555
Li1 O10 1.951200 1_565
Li1 O1 1.962950 1_555
Li1 O5 1.968858 1_565
Li1 O11 2.045201 1_555
Li2 O6 1.934482 1_555
Li2 O2 1.953379 1_655
Li2 O8 1.964058 1_555
Li2 O3 2.043112 1_555
Li3 O7 1.934650 1_555
Li3 O3 1.953852 1_455
Li3 O9 1.964016 1_555
Li3 O2 2.043215 1_555
Mn0 O6 2.074812 1_555
Mn0 O11 2.106416 1_545
Mn0 O0 2.116876 1_655
Mn0 O9 2.197899 1_656
Mn0 O5 2.469850 1_555
Mn1 O7 2.074592 1_555
Mn1 O10 2.106202 1_565
Mn1 O1 2.116775 1_455
Mn1 O8 2.198417 1_454
Mn1 O4 2.469312 1_555
Fe0 O4 2.008101 1_555
Fe0 O2 2.087090 1_555
Fe0 O8 2.092024 1_555
Fe0 O1 2.198266 1_556
Fe0 O7 2.394025 1_555
Fe1 O5 2.007966 1_555
Fe1 O3 2.086015 1_555
Fe1 O9 2.093365 1_555
Fe1 O0 2.198470 1_554
Fe1 O6 2.393827 1_555
B0 O2 1.380600 1_555
B0 O6 1.393381 1_555
B0 O0 1.406527 1_555
B1 O3 1.380607 1_555
B1 O7 1.393369 1_555
B1 O1 1.406493 1_555
B2 O10 1.379829 1_555
B2 O5 1.397590 1_455
B2 O9 1.402321 1_555
B3 O11 1.379758 1_555
B3 O4 1.397529 1_655
B3 O8 1.402455 1_555
