# generated using pymatgen
data_KSmH4(N2O7)2
_symmetry_space_group_name_H-M   'P 1'
_cell_length_a   8.04395300
_cell_length_b   11.74867000
_cell_length_c   13.01281500
_cell_angle_alpha   90.00000000
_cell_angle_beta   90.00000000
_cell_angle_gamma   90.00000000
_symmetry_Int_Tables_number   1
_chemical_formula_structural   KSmH4(N2O7)2
_chemical_formula_sum   'K4 Sm4 H16 N16 O56'
_cell_volume   1229.78583198
_cell_formula_units_Z   4
loop_
 _symmetry_equiv_pos_site_id
 _symmetry_equiv_pos_as_xyz
  1  'x, y, z'
loop_
 _atom_site_type_symbol
 _atom_site_label
 _atom_site_symmetry_multiplicity
 _atom_site_fract_x
 _atom_site_fract_y
 _atom_site_fract_z
 _atom_site_occupancy
  K  K0  1  0.41204400  0.83319500  0.02245000  1
  K  K1  1  0.91204400  0.33319500  0.47755000  1
  K  K2  1  0.41204400  0.66680500  0.52245000  1
  K  K3  1  0.91204400  0.16680500  0.97755000  1
  Sm  Sm0  1  0.87500900  0.66738000  0.20581500  1
  Sm  Sm1  1  0.37500900  0.16738000  0.29418500  1
  Sm  Sm2  1  0.87500900  0.83262000  0.70581500  1
  Sm  Sm3  1  0.37500900  0.33262000  0.79418500  1
  H  H0  1  0.34946100  0.43252100  0.01689400  1
  H  H1  1  0.33630400  0.29980500  0.03269300  1
  H  H2  1  0.79145800  0.41802300  0.18661700  1
  H  H3  1  0.60937800  0.46404300  0.19315500  1
  H  H4  1  0.10937800  0.96404300  0.30684500  1
  H  H5  1  0.29145800  0.91802300  0.31338300  1
  H  H6  1  0.83630400  0.79980500  0.46730700  1
  H  H7  1  0.84946100  0.93252100  0.48310600  1
  H  H8  1  0.34946100  0.06747900  0.51689400  1
  H  H9  1  0.33630400  0.20019500  0.53269300  1
  H  H10  1  0.79145800  0.08197700  0.68661700  1
  H  H11  1  0.60937800  0.03595700  0.69315500  1
  H  H12  1  0.10937800  0.53595700  0.80684500  1
  H  H13  1  0.29145800  0.58197700  0.81338300  1
  H  H14  1  0.83630400  0.70019500  0.96730700  1
  H  H15  1  0.84946100  0.56747900  0.98310600  1
  N  N0  1  0.53276800  0.08807200  0.09919300  1
  N  N1  1  0.19624400  0.60895400  0.11191100  1
  N  N2  1  0.88437600  0.92115800  0.17591400  1
  N  N3  1  0.05383300  0.24520200  0.20496500  1
  N  N4  1  0.55383300  0.74520200  0.29503500  1
  N  N5  1  0.38437600  0.42115800  0.32408600  1
  N  N6  1  0.69624400  0.10895400  0.38808900  1
  N  N7  1  0.03276800  0.58807200  0.40080700  1
  N  N8  1  0.53276800  0.41192800  0.59919300  1
  N  N9  1  0.19624400  0.89104600  0.61191100  1
  N  N10  1  0.88437600  0.57884200  0.67591400  1
  N  N11  1  0.05383300  0.25479800  0.70496500  1
  N  N12  1  0.55383300  0.75479800  0.79503500  1
  N  N13  1  0.38437600  0.07884200  0.82408600  1
  N  N14  1  0.69624400  0.39104600  0.88808900  1
  N  N15  1  0.03276800  0.91192800  0.90080700  1
  O  O0  1  0.84337400  0.64090200  0.01961800  1
  O  O1  1  0.60428300  0.05224300  0.02135300  1
  O  O2  1  0.32649800  0.58681400  0.06400100  1
  O  O3  1  0.83625100  0.85543200  0.10430800  1
  O  O4  1  0.15475800  0.71254500  0.13083600  1
  O  O5  1  0.55116000  0.19030000  0.13203200  1
  O  O6  1  0.09772800  0.53125200  0.14362900  1
  O  O7  1  0.16920900  0.20443700  0.14715900  1
  O  O8  1  0.43539100  0.02393800  0.15209100  1
  O  O9  1  0.92485900  0.28565300  0.16769300  1
  O  O10  1  0.89045900  0.02602500  0.16725600  1
  O  O11  1  0.72483400  0.48812200  0.18073600  1
  O  O12  1  0.57905200  0.74040000  0.19811500  1
  O  O13  1  0.42893700  0.37209500  0.23884600  1
  O  O14  1  0.92893700  0.87209500  0.26115400  1
  O  O15  1  0.07905200  0.24040000  0.30188500  1
  O  O16  1  0.22483400  0.98812200  0.31926400  1
  O  O17  1  0.39045900  0.52602500  0.33274400  1
  O  O18  1  0.42485900  0.78565300  0.33230700  1
  O  O19  1  0.93539100  0.52393800  0.34790900  1
  O  O20  1  0.66920900  0.70443700  0.35284100  1
  O  O21  1  0.59772800  0.03125200  0.35637100  1
  O  O22  1  0.05116000  0.69030000  0.36796800  1
  O  O23  1  0.65475800  0.21254500  0.36916400  1
  O  O24  1  0.33625100  0.35543200  0.39569200  1
  O  O25  1  0.82649800  0.08681400  0.43599900  1
  O  O26  1  0.10428300  0.55224300  0.47864700  1
  O  O27  1  0.34337400  0.14090200  0.48038200  1
  O  O28  1  0.84337400  0.85909800  0.51961800  1
  O  O29  1  0.60428300  0.44775700  0.52135300  1
  O  O30  1  0.32649800  0.91318600  0.56400100  1
  O  O31  1  0.83625100  0.64456800  0.60430800  1
  O  O32  1  0.15475800  0.78745500  0.63083600  1
  O  O33  1  0.55116000  0.30970000  0.63203200  1
  O  O34  1  0.09772800  0.96874800  0.64362900  1
  O  O35  1  0.16920900  0.29556300  0.64715900  1
  O  O36  1  0.43539100  0.47606200  0.65209100  1
  O  O37  1  0.92485900  0.21434700  0.66769300  1
  O  O38  1  0.89045900  0.47397500  0.66725600  1
  O  O39  1  0.72483400  0.01187800  0.68073600  1
  O  O40  1  0.57905200  0.75960000  0.69811500  1
  O  O41  1  0.42893700  0.12790500  0.73884600  1
  O  O42  1  0.92893700  0.62790500  0.76115400  1
  O  O43  1  0.07905200  0.25960000  0.80188500  1
  O  O44  1  0.22483400  0.51187800  0.81926400  1
  O  O45  1  0.39045900  0.97397500  0.83274400  1
  O  O46  1  0.42485900  0.71434700  0.83230700  1
  O  O47  1  0.93539100  0.97606200  0.84790900  1
  O  O48  1  0.66920900  0.79556300  0.85284100  1
  O  O49  1  0.59772800  0.46874800  0.85637100  1
  O  O50  1  0.05116000  0.80970000  0.86796800  1
  O  O51  1  0.65475800  0.28745500  0.86916400  1
  O  O52  1  0.33625100  0.14456800  0.89569200  1
  O  O53  1  0.82649800  0.41318600  0.93599900  1
  O  O54  1  0.10428300  0.94775700  0.97864700  1
  O  O55  1  0.34337400  0.35909800  0.98038200  1
loop_
_geom_bond_atom_site_label_1
_geom_bond_atom_site_label_2
_geom_bond_distance
_geom_bond_site_symmetry_2
K0 O8 2.811262 1_565
K0 O46 2.842962 1_554
K0 O12 2.866816 1_555
K0 O54 2.874918 1_554
K0 O4 2.877798 1_555
K0 O45 2.976545 1_554
K0 O1 3.002408 1_565
K0 O2 3.024048 1_555
K0 O48 3.057111 1_554
K1 O19 2.811262 1_555
K1 O37 2.842962 1_555
K1 O15 2.866816 1_655
K1 O29 2.874918 1_555
K1 O23 2.877798 1_555
K1 O38 2.976545 1_555
K1 O26 3.002408 1_655
K1 O25 3.024048 1_555
K1 O35 3.057111 1_655
K2 O36 2.811262 1_555
K2 O18 2.842962 1_555
K2 O40 2.866816 1_555
K2 O26 2.874918 1_555
K2 O32 2.877798 1_555
K2 O17 2.976545 1_555
K2 O29 3.002408 1_555
K2 O30 3.024048 1_555
K2 O20 3.057111 1_555
K3 O47 2.811262 1_545
K3 O9 2.842962 1_556
K3 O43 2.866816 1_655
K3 O1 2.874918 1_556
K3 O51 2.877798 1_555
K3 O10 2.976545 1_556
K3 O54 3.002408 1_645
K3 O53 3.024048 1_555
K3 O7 3.057111 1_656
H0 O55 0.986031 1_554
H1 O55 0.975641 1_554
H2 O11 0.985563 1_555
H3 O11 0.984212 1_555
H4 O16 0.984212 1_555
H5 O16 0.985563 1_555
H6 O28 0.975641 1_555
H7 O28 0.986031 1_555
H8 O27 0.986031 1_555
H9 O27 0.975641 1_555
H10 O39 0.985563 1_555
H11 O39 0.984212 1_555
H12 O44 0.984212 1_555
H13 O44 0.985563 1_555
H14 O0 0.975641 1_556
H15 O0 0.986031 1_556
N0 O1 1.238597 1_555
N0 O5 1.283355 1_555
N0 O8 1.286517 1_555
N1 O2 1.246650 1_555
N1 O6 1.277389 1_555
N1 O4 1.285783 1_555
N2 O10 1.238156 1_565
N2 O3 1.270584 1_555
N2 O14 1.300424 1_555
N3 O9 1.239928 1_455
N3 O15 1.278658 1_555
N3 O7 1.287067 1_555
N4 O18 1.239928 1_555
N4 O12 1.278658 1_555
N4 O20 1.287067 1_555
N5 O17 1.238156 1_555
N5 O24 1.270584 1_555
N5 O13 1.300424 1_555
N6 O25 1.246650 1_555
N6 O21 1.277389 1_555
N6 O23 1.285783 1_555
N7 O26 1.238597 1_555
N7 O22 1.283355 1_555
N7 O19 1.286517 1_455
N8 O29 1.238597 1_555
N8 O33 1.283355 1_555
N8 O36 1.286517 1_555
N9 O30 1.246650 1_555
N9 O34 1.277389 1_555
N9 O32 1.285783 1_555
N10 O38 1.238156 1_555
N10 O31 1.270584 1_555
N10 O42 1.300424 1_555
N11 O37 1.239928 1_455
N11 O43 1.278658 1_555
N11 O35 1.287067 1_555
N12 O46 1.239928 1_555
N12 O40 1.278658 1_555
N12 O48 1.287067 1_555
N13 O45 1.238156 1_545
N13 O52 1.270584 1_555
N13 O41 1.300424 1_555
N14 O53 1.246650 1_555
N14 O49 1.277389 1_555
N14 O51 1.285783 1_555
N15 O54 1.238597 1_555
N15 O50 1.283355 1_555
N15 O47 1.286517 1_455
O0 Sm0 2.456054 1_555
O3 Sm0 2.592919 1_555
O4 Sm0 2.509448 1_455
O5 Sm1 2.555903 1_555
O6 Sm0 2.534222 1_455
O7 Sm1 2.567190 1_555
O8 Sm1 2.548519 1_555
O11 Sm0 2.449732 1_555
O12 Sm0 2.532503 1_555
O13 Sm1 2.547821 1_555
O14 Sm0 2.547821 1_555
O15 Sm1 2.532503 1_555
O16 Sm1 2.449732 1_565
O19 Sm0 2.548519 1_555
O20 Sm0 2.567190 1_555
O21 Sm1 2.534222 1_555
O22 Sm0 2.555903 1_455
O23 Sm1 2.509448 1_555
O24 Sm1 2.592919 1_555
O27 Sm1 2.456054 1_555
O28 Sm2 2.456054 1_555
O31 Sm2 2.592919 1_555
O32 Sm2 2.509448 1_455
O33 Sm3 2.555903 1_555
O34 Sm2 2.534222 1_455
O35 Sm3 2.567190 1_555
O36 Sm3 2.548519 1_555
O39 Sm2 2.449732 1_545
O40 Sm2 2.532503 1_555
O41 Sm3 2.547821 1_555
O42 Sm2 2.547821 1_555
O43 Sm3 2.532503 1_555
O44 Sm3 2.449732 1_555
O47 Sm2 2.548519 1_555
O48 Sm2 2.567190 1_555
O49 Sm3 2.534222 1_555
O50 Sm2 2.555903 1_455
O51 Sm3 2.509448 1_555
O52 Sm3 2.592919 1_555
O55 Sm3 2.456054 1_555
