# generated using pymatgen
data_K2Eu2O3
_symmetry_space_group_name_H-M   'P 1'
_cell_length_a   7.15194400
_cell_length_b   7.03851100
_cell_length_c   7.08311178
_cell_angle_alpha   62.49341592
_cell_angle_beta   90.00000000
_cell_angle_gamma   90.00000000
_symmetry_Int_Tables_number   1
_chemical_formula_structural   K2Eu2O3
_chemical_formula_sum   'K4 Eu4 O6'
_cell_volume   316.25102012
_cell_formula_units_Z   2
loop_
 _symmetry_equiv_pos_site_id
 _symmetry_equiv_pos_as_xyz
  1  'x, y, z'
loop_
 _atom_site_type_symbol
 _atom_site_label
 _atom_site_symmetry_multiplicity
 _atom_site_fract_x
 _atom_site_fract_y
 _atom_site_fract_z
 _atom_site_occupancy
  K  K0  1  0.35294000  0.82479000  0.92637100  1
  K  K1  1  0.14706000  0.82479000  0.42637100  1
  K  K2  1  0.85294000  0.17521000  0.57362900  1
  K  K3  1  0.64706000  0.17521000  0.07362900  1
  Eu  Eu0  1  0.62367300  0.67040800  0.56961000  1
  Eu  Eu1  1  0.12367300  0.32959200  0.93039000  1
  Eu  Eu2  1  0.87632700  0.67040800  0.06961000  1
  Eu  Eu3  1  0.37632700  0.32959200  0.43039000  1
  O  O0  1  0.50000000  0.00000000  0.50000000  1
  O  O1  1  0.00000000  0.00000000  0.00000000  1
  O  O2  1  0.89705200  0.59872900  0.77193200  1
  O  O3  1  0.39705200  0.40127100  0.72806800  1
  O  O4  1  0.60294800  0.59872900  0.27193200  1
  O  O5  1  0.10294800  0.40127100  0.22806800  1
loop_
_geom_bond_atom_site_label_1
_geom_bond_atom_site_label_2
_geom_bond_distance
_geom_bond_site_symmetry_2
K0 O4 2.849982 1_556
K0 O0 2.882264 1_565
K0 O1 2.959478 1_566
K0 O5 3.281033 1_556
K1 O2 2.849982 1_455
K1 O1 2.882264 1_565
K1 O0 2.959478 1_565
K1 O3 3.281033 1_555
K2 O5 2.849982 1_655
K2 O1 2.882264 1_656
K2 O0 2.959478 1_555
K2 O4 3.281033 1_555
K3 O3 2.849982 1_554
K3 O0 2.882264 1_555
K3 O1 2.959478 1_655
K3 O2 3.281033 1_554
Eu0 O0 2.313127 1_565
Eu0 O2 2.337340 1_555
Eu0 O3 2.347594 1_555
Eu0 O4 2.388476 1_555
Eu1 O1 2.313127 1_556
Eu1 O3 2.337340 1_555
Eu1 O2 2.347594 1_455
Eu1 O5 2.388476 1_556
Eu2 O1 2.313127 1_665
Eu2 O4 2.337340 1_555
Eu2 O5 2.347594 1_655
Eu2 O2 2.388476 1_554
Eu3 O0 2.313127 1_555
Eu3 O5 2.337340 1_555
Eu3 O4 2.347594 1_555
Eu3 O3 2.388476 1_555
