# generated using pymatgen
data_Mn3Fe2Sb3O16
_symmetry_space_group_name_H-M   'P 1'
_cell_length_a   6.09129334
_cell_length_b   6.09129334
_cell_length_c   9.13789516
_cell_angle_alpha   89.46674737
_cell_angle_beta   89.46674737
_cell_angle_gamma   59.32973199
_symmetry_Int_Tables_number   1
_chemical_formula_structural   Mn3Fe2Sb3O16
_chemical_formula_sum   'Mn3 Fe2 Sb3 O16'
_cell_volume   291.60694459
_cell_formula_units_Z   1
loop_
 _symmetry_equiv_pos_site_id
 _symmetry_equiv_pos_as_xyz
  1  'x, y, z'
loop_
 _atom_site_type_symbol
 _atom_site_label
 _atom_site_symmetry_multiplicity
 _atom_site_fract_x
 _atom_site_fract_y
 _atom_site_fract_z
 _atom_site_occupancy
  Mn  Mn0  1  0.83022500  0.83022500  0.21400300  1
  Mn  Mn1  1  0.66178300  0.16619100  0.71029000  1
  Mn  Mn2  1  0.16619100  0.66178300  0.71029000  1
  Fe  Fe0  1  0.67391900  0.67391900  0.49852800  1
  Fe  Fe1  1  0.34374800  0.34374800  0.99059800  1
  Sb  Sb0  1  0.82957200  0.33471900  0.21153100  1
  Sb  Sb1  1  0.33471900  0.82957200  0.21153100  1
  Sb  Sb2  1  0.16542700  0.16542700  0.71175300  1
  O  O0  1  0.83337400  0.33111300  0.60426500  1
  O  O1  1  0.51892800  0.51892800  0.34417900  1
  O  O2  1  0.65296500  0.65296500  0.08758500  1
  O  O3  1  0.00999100  0.00999100  0.32597200  1
  O  O4  1  0.99324700  0.99324700  0.81412900  1
  O  O5  1  0.33111300  0.83337400  0.60426500  1
  O  O6  1  0.95369200  0.52093800  0.33498900  1
  O  O7  1  0.52093800  0.95369200  0.33498900  1
  O  O8  1  0.16550700  0.16550700  0.09497500  1
  O  O9  1  0.83642900  0.83642900  0.60533100  1
  O  O10  1  0.48412600  0.04529100  0.83501200  1
  O  O11  1  0.04529100  0.48412600  0.83501200  1
  O  O12  1  0.33697600  0.33697600  0.60059500  1
  O  O13  1  0.67091800  0.16588000  0.10447200  1
  O  O14  1  0.47552700  0.47552700  0.82694100  1
  O  O15  1  0.16588000  0.67091800  0.10447200  1
loop_
_geom_bond_atom_site_label_1
_geom_bond_atom_site_label_2
_geom_bond_distance
_geom_bond_site_symmetry_2
Mn0 O6 1.966822 1_555
Mn0 O7 1.966822 1_555
Mn0 O13 2.019800 1_565
Mn0 O15 2.019800 1_655
Mn0 O3 2.170231 1_665
Mn0 O2 2.214042 1_555
Mn1 O10 1.945964 1_555
Mn1 O14 1.951354 1_555
Mn1 O12 1.979684 1_555
Mn1 O9 1.980713 1_545
Mn1 O4 1.983379 1_545
Mn1 O0 2.018556 1_555
Mn2 O11 1.945964 1_555
Mn2 O14 1.951354 1_555
Mn2 O12 1.979684 1_555
Mn2 O9 1.980713 1_455
Mn2 O4 1.983379 1_455
Mn2 O5 2.018556 1_555
Fe0 O9 1.986938 1_555
Fe0 O0 2.036675 1_555
Fe0 O5 2.036675 1_555
Fe0 O7 2.089071 1_555
Fe0 O6 2.089071 1_555
Fe0 O1 2.175044 1_555
Fe1 O15 2.010739 1_556
Fe1 O13 2.010739 1_556
Fe1 O14 2.034155 1_555
Fe1 O8 2.105068 1_556
Fe1 O11 2.120642 1_555
Fe1 O10 2.120642 1_555
O0 Sb2 2.002582 1_655
O1 Sb0 2.031093 1_555
O1 Sb1 2.031093 1_555
O2 Sb1 2.013023 1_555
O2 Sb0 2.013023 1_555
O3 Sb0 1.994764 1_455
O3 Sb1 1.994764 1_545
O4 Sb2 2.039800 1_665
O5 Sb2 2.002582 1_565
O6 Sb0 2.011370 1_555
O7 Sb1 2.011370 1_555
O8 Sb0 2.052356 1_455
O8 Sb1 2.052356 1_545
O10 Sb2 2.036858 1_555
O11 Sb2 2.036858 1_555
O12 Sb2 2.071251 1_555
O13 Sb0 1.999751 1_555
O15 Sb1 1.999751 1_555
