# generated using pymatgen
data_Ho2Ge2O7
_symmetry_space_group_name_H-M   'P 1'
_cell_length_a   6.99056461
_cell_length_b   6.99056461
_cell_length_c   6.99056461
_cell_angle_alpha   60.00000000
_cell_angle_beta   60.00000000
_cell_angle_gamma   60.00000000
_symmetry_Int_Tables_number   1
_chemical_formula_structural   Ho2Ge2O7
_chemical_formula_sum   'Ho4 Ge4 O14'
_cell_volume   241.55818857
_cell_formula_units_Z   2
loop_
 _symmetry_equiv_pos_site_id
 _symmetry_equiv_pos_as_xyz
  1  'x, y, z'
loop_
 _atom_site_type_symbol
 _atom_site_label
 _atom_site_symmetry_multiplicity
 _atom_site_fract_x
 _atom_site_fract_y
 _atom_site_fract_z
 _atom_site_occupancy
  Ho  Ho0  1  0.12500000  0.62500000  0.62500000  1
  Ho  Ho1  1  0.62500000  0.62500000  0.62500000  1
  Ho  Ho2  1  0.62500000  0.12500000  0.62500000  1
  Ho  Ho3  1  0.62500000  0.62500000  0.12500000  1
  Ge  Ge0  1  0.12500000  0.62500000  0.12500000  1
  Ge  Ge1  1  0.12500000  0.12500000  0.62500000  1
  Ge  Ge2  1  0.62500000  0.12500000  0.12500000  1
  Ge  Ge3  1  0.12500000  0.12500000  0.12500000  1
  O  O0  1  0.75000000  0.75000000  0.75000000  1
  O  O1  1  0.20226584  0.79773416  0.79773416  1
  O  O2  1  0.20226584  0.79773416  0.20226584  1
  O  O3  1  0.79773416  0.79773416  0.20226584  1
  O  O4  1  0.79773416  0.20226584  0.79773416  1
  O  O5  1  0.20226584  0.20226584  0.79773416  1
  O  O6  1  0.45226584  0.04773416  0.04773416  1
  O  O7  1  0.79773416  0.20226584  0.20226584  1
  O  O8  1  0.04773416  0.04773416  0.45226584  1
  O  O9  1  0.45226584  0.04773416  0.45226584  1
  O  O10  1  0.04773416  0.45226584  0.04773416  1
  O  O11  1  0.45226584  0.45226584  0.04773416  1
  O  O12  1  0.04773416  0.45226584  0.45226584  1
  O  O13  1  0.50000000  0.50000000  0.50000000  1
loop_
_geom_bond_atom_site_label_1
_geom_bond_atom_site_label_2
_geom_bond_distance
_geom_bond_site_symmetry_2
Ho0 O13 2.140415 1_555
Ho0 O0 2.140415 1_455
Ho0 O5 2.443442 1_555
Ho0 O2 2.443442 1_555
Ho0 O12 2.443442 1_555
Ho0 O1 2.443442 1_555
Ho0 O8 2.443442 1_565
Ho0 O10 2.443442 1_556
Ho1 O13 2.140415 1_555
Ho1 O0 2.140415 1_555
Ho1 O4 2.443442 1_555
Ho1 O11 2.443442 1_556
Ho1 O3 2.443442 1_555
Ho1 O9 2.443442 1_565
Ho1 O1 2.443442 1_555
Ho1 O12 2.443442 1_655
Ho2 O13 2.140415 1_555
Ho2 O0 2.140415 1_545
Ho2 O9 2.443442 1_555
Ho2 O4 2.443442 1_555
Ho2 O7 2.443442 1_555
Ho2 O5 2.443442 1_555
Ho2 O6 2.443442 1_556
Ho2 O8 2.443442 1_655
Ho3 O13 2.140415 1_555
Ho3 O0 2.140415 1_554
Ho3 O3 2.443442 1_555
Ho3 O11 2.443442 1_555
Ho3 O7 2.443442 1_555
Ho3 O2 2.443442 1_555
Ho3 O6 2.443442 1_565
Ho3 O10 2.443442 1_655
Ge0 O11 1.907285 1_555
Ge0 O3 1.907285 1_455
Ge0 O1 1.907285 1_554
Ge0 O10 1.907285 1_555
Ge0 O2 1.907285 1_555
Ge0 O12 1.907285 1_555
Ge1 O8 1.907285 1_555
Ge1 O5 1.907285 1_555
Ge1 O1 1.907285 1_545
Ge1 O12 1.907285 1_555
Ge1 O9 1.907285 1_555
Ge1 O4 1.907285 1_455
Ge2 O6 1.907285 1_555
Ge2 O7 1.907285 1_555
Ge2 O4 1.907285 1_554
Ge2 O9 1.907285 1_555
Ge2 O3 1.907285 1_545
Ge2 O11 1.907285 1_555
Ge3 O8 1.907285 1_555
Ge3 O10 1.907285 1_555
Ge3 O5 1.907285 1_554
Ge3 O6 1.907285 1_555
Ge3 O2 1.907285 1_545
Ge3 O7 1.907285 1_455
