# generated using pymatgen
data_Li3Ni2O2F3
_symmetry_space_group_name_H-M   'P 1'
_cell_length_a   2.94037486
_cell_length_b   10.59643018
_cell_length_c   5.88074830
_cell_angle_alpha   97.97515337
_cell_angle_beta   90.00000000
_cell_angle_gamma   82.02484663
_symmetry_Int_Tables_number   1
_chemical_formula_structural   Li3Ni2O2F3
_chemical_formula_sum   'Li6 Ni4 O4 F6'
_cell_volume   179.66753397
_cell_formula_units_Z   2
loop_
 _symmetry_equiv_pos_site_id
 _symmetry_equiv_pos_as_xyz
  1  'x, y, z'
loop_
 _atom_site_type_symbol
 _atom_site_label
 _atom_site_symmetry_multiplicity
 _atom_site_fract_x
 _atom_site_fract_y
 _atom_site_fract_z
 _atom_site_occupancy
  Li  Li0  1  0.20000000  0.60000000  0.40000000  1
  Li  Li1  1  0.20000000  0.60000000  0.90000000  1
  Li  Li2  1  0.79876600  0.40246800  0.60061700  1
  Li  Li3  1  0.79876600  0.40246800  0.10061700  1
  Li  Li4  1  0.60123400  0.79753200  0.69938300  1
  Li  Li5  1  0.60123400  0.79753200  0.19938300  1
  Ni  Ni0  1  0.99967900  0.00064200  0.50016100  1
  Ni  Ni1  1  0.40032100  0.19935800  0.79983900  1
  Ni  Ni2  1  0.99967900  0.00064200  0.00016100  1
  Ni  Ni3  1  0.40032100  0.19935800  0.29983900  1
  O  O0  1  0.50175600  0.99648800  0.74912200  1
  O  O1  1  0.50175600  0.99648800  0.24912200  1
  O  O2  1  0.89824400  0.20351200  0.55087800  1
  O  O3  1  0.89824400  0.20351200  0.05087800  1
  F  F0  1  0.70000000  0.60000000  0.65000000  1
  F  F1  1  0.70000000  0.60000000  0.15000000  1
  F  F2  1  0.29598600  0.40802900  0.35200700  1
  F  F3  1  0.29598600  0.40802900  0.85200700  1
  F  F4  1  0.10401400  0.79197100  0.44799300  1
  F  F5  1  0.10401400  0.79197100  0.94799300  1
loop_
_geom_bond_atom_site_label_1
_geom_bond_atom_site_label_2
_geom_bond_distance
_geom_bond_site_symmetry_2
Li2 O2 2.067242 1_555
Li3 O3 2.067242 1_555
Li4 O0 2.067242 1_555
Li5 O1 2.067242 1_555
Ni0 O0 2.079605 1_645
Ni0 O0 2.079605 1_545
Ni0 O1 2.079609 1_545
Ni0 O1 2.079609 1_645
Ni0 O2 2.107910 1_555
Ni1 O2 2.079605 1_455
Ni1 O2 2.079605 1_555
Ni1 O3 2.079609 1_456
Ni1 O3 2.079609 1_556
Ni1 O0 2.107910 1_545
Ni2 O1 2.079605 1_645
Ni2 O1 2.079605 1_545
Ni2 O0 2.079609 1_544
Ni2 O0 2.079609 1_644
Ni2 O3 2.107910 1_555
Ni3 O3 2.079605 1_455
Ni3 O3 2.079605 1_555
Ni3 O2 2.079609 1_555
Ni3 O2 2.079609 1_455
Ni3 O1 2.107910 1_545
F0 Li2 2.052446 1_555
F0 Li4 2.052446 1_555
F0 Li0 2.079159 1_555
F0 Li1 2.079159 1_555
F0 Li0 2.079159 1_655
F0 Li1 2.079159 1_655
F1 Li3 2.052446 1_555
F1 Li5 2.052446 1_555
F1 Li1 2.079159 1_554
F1 Li1 2.079159 1_654
F1 Li0 2.079159 1_555
F1 Li0 2.079159 1_655
F2 Li0 1.994665 1_555
F2 Li3 2.079959 1_555
F2 Li3 2.079961 1_455
F2 Li2 2.079961 1_555
F2 Li2 2.079964 1_455
F2 Ni3 2.168185 1_555
F3 Li1 1.994665 1_555
F3 Li2 2.079959 1_555
F3 Li2 2.079961 1_455
F3 Li3 2.079961 1_556
F3 Li3 2.079964 1_456
F3 Ni1 2.168185 1_555
F4 Li0 1.994665 1_555
F4 Li4 2.079959 1_455
F4 Li4 2.079961 1_555
F4 Li5 2.079961 1_455
F4 Li5 2.079964 1_555
F4 Ni0 2.168185 1_465
F5 Li1 1.994665 1_555
F5 Li5 2.079959 1_456
F5 Li5 2.079961 1_556
F5 Li4 2.079961 1_455
F5 Li4 2.079964 1_555
F5 Ni2 2.168185 1_466
