# generated using pymatgen
data_CoRe2(H2O3)4
_symmetry_space_group_name_H-M   'P 1'
_cell_length_a   6.70516300
_cell_length_b   7.00843535
_cell_length_c   7.46522053
_cell_angle_alpha   64.62132303
_cell_angle_beta   69.06287608
_cell_angle_gamma   71.24650092
_symmetry_Int_Tables_number   1
_chemical_formula_structural   CoRe2(H2O3)4
_chemical_formula_sum   'Co1 Re2 H8 O12'
_cell_volume   290.07782295
_cell_formula_units_Z   1
loop_
 _symmetry_equiv_pos_site_id
 _symmetry_equiv_pos_as_xyz
  1  'x, y, z'
loop_
 _atom_site_type_symbol
 _atom_site_label
 _atom_site_symmetry_multiplicity
 _atom_site_fract_x
 _atom_site_fract_y
 _atom_site_fract_z
 _atom_site_occupancy
  Co  Co0  1  0.50000000  0.00000000  0.00000000  1
  Re  Re0  1  0.08438500  0.32353600  0.29107900  1
  Re  Re1  1  0.91561500  0.67646400  0.70892100  1
  H  H0  1  0.38987500  0.69800700  0.35796400  1
  H  H1  1  0.68254800  0.01241800  0.27561900  1
  H  H2  1  0.37656500  0.40574000  0.75041900  1
  H  H3  1  0.74592300  0.19969000  0.05733800  1
  H  H4  1  0.25407700  0.80031000  0.94266200  1
  H  H5  1  0.62343500  0.59426000  0.24958100  1
  H  H6  1  0.31745200  0.98758200  0.72438100  1
  H  H7  1  0.61012500  0.30199300  0.64203600  1
  O  O0  1  0.20798200  0.11485900  0.19049400  1
  O  O1  1  0.13194900  0.56957700  0.09879400  1
  O  O2  1  0.19752800  0.27126800  0.48933400  1
  O  O3  1  0.19921000  0.66914700  0.61284100  1
  O  O4  1  0.67819700  0.07188800  0.13243900  1
  O  O5  1  0.48962300  0.70018700  0.22278600  1
  O  O6  1  0.51037700  0.29981300  0.77721400  1
  O  O7  1  0.32180300  0.92811200  0.86756100  1
  O  O8  1  0.80079000  0.33085300  0.38715900  1
  O  O9  1  0.80247200  0.72873200  0.51066600  1
  O  O10  1  0.86805100  0.43042300  0.90120600  1
  O  O11  1  0.79201800  0.88514100  0.80950600  1
loop_
_geom_bond_atom_site_label_1
_geom_bond_atom_site_label_2
_geom_bond_distance
_geom_bond_site_symmetry_2
Co0 O5 2.049812 1_545
Co0 O6 2.049812 1_554
Co0 O7 2.077816 1_544
Co0 O4 2.077816 1_555
Co0 O0 2.117064 1_555
Co0 O11 2.117064 1_544
H0 O5 0.988383 1_555
H1 O4 0.974494 1_555
H2 O6 0.984302 1_555
H3 O4 0.985865 1_555
H4 O7 0.985865 1_555
H5 O5 0.984302 1_555
H6 O7 0.974494 1_555
H7 O6 0.988383 1_555
O0 Re0 1.762620 1_555
O1 Re0 1.743650 1_555
O2 Re0 1.749058 1_555
O3 Re1 1.768347 1_455
O8 Re0 1.768347 1_655
O9 Re1 1.749058 1_555
O10 Re1 1.743650 1_555
O11 Re1 1.762620 1_555
