# generated using pymatgen
data_Li17V16O32
_symmetry_space_group_name_H-M   'P 1'
_cell_length_a   8.51234158
_cell_length_b   8.51234158
_cell_length_c   10.39933279
_cell_angle_alpha   66.03502700
_cell_angle_beta   66.03502700
_cell_angle_gamma   90.07963546
_symmetry_Int_Tables_number   1
_chemical_formula_structural   Li17V16O32
_chemical_formula_sum   'Li17 V16 O32'
_cell_volume   616.60097724
_cell_formula_units_Z   1
loop_
 _symmetry_equiv_pos_site_id
 _symmetry_equiv_pos_as_xyz
  1  'x, y, z'
loop_
 _atom_site_type_symbol
 _atom_site_label
 _atom_site_symmetry_multiplicity
 _atom_site_fract_x
 _atom_site_fract_y
 _atom_site_fract_z
 _atom_site_occupancy
  Li  Li0  1  0.76043300  0.25216400  0.99531500  1
  Li  Li1  1  0.25216400  0.76043300  0.99531500  1
  Li  Li2  1  0.50175900  0.99334900  0.99384300  1
  Li  Li3  1  0.99334900  0.50175900  0.99384300  1
  Li  Li4  1  0.63103300  0.86884700  0.25168400  1
  Li  Li5  1  0.10848600  0.42225600  0.21434900  1
  Li  Li6  1  0.42225600  0.10848600  0.21434900  1
  Li  Li7  1  0.86884700  0.63103300  0.25168400  1
  Li  Li8  1  0.18675000  0.18675000  0.37514500  1
  Li  Li9  1  0.50505800  0.50505800  0.49964400  1
  Li  Li10  1  0.94987800  0.94987800  0.53239100  1
  Li  Li11  1  0.26597800  0.26597800  0.53557800  1
  Li  Li12  1  0.74755800  0.74755800  0.49593000  1
  Li  Li13  1  0.12218100  0.37536200  0.75678800  1
  Li  Li14  1  0.87398300  0.61599400  0.75379800  1
  Li  Li15  1  0.37536200  0.12218100  0.75678800  1
  Li  Li16  1  0.61599400  0.87398300  0.75379800  1
  V  V0  1  0.49831500  0.49831500  0.99991600  1
  V  V1  1  0.74936600  0.74936600  0.00089000  1
  V  V2  1  0.99704300  0.99704300  0.00630400  1
  V  V3  1  0.25113500  0.25113500  0.00043300  1
  V  V4  1  0.62260300  0.37408200  0.25028600  1
  V  V5  1  0.12549100  0.87338800  0.24689700  1
  V  V6  1  0.87338800  0.12549100  0.24689700  1
  V  V7  1  0.37408200  0.62260300  0.25028600  1
  V  V8  1  0.75212100  0.24884900  0.49849700  1
  V  V9  1  0.99954000  0.49524500  0.50172300  1
  V  V10  1  0.24884900  0.75212100  0.49849700  1
  V  V11  1  0.49524500  0.99954000  0.50172300  1
  V  V12  1  0.12432200  0.87488700  0.75094400  1
  V  V13  1  0.37637700  0.62623100  0.74767500  1
  V  V14  1  0.62623100  0.37637700  0.74767500  1
  V  V15  1  0.87488700  0.12432200  0.75094400  1
  O  O0  1  0.00674500  0.24456500  0.00868200  1
  O  O1  1  0.50496700  0.73481400  0.00370600  1
  O  O2  1  0.24456500  0.00674500  0.00868200  1
  O  O3  1  0.73481400  0.50496700  0.00370600  1
  O  O4  1  0.38312000  0.38312000  0.24731300  1
  O  O5  1  0.88175800  0.88175800  0.25463500  1
  O  O6  1  0.61991700  0.61991700  0.24463400  1
  O  O7  1  0.12748600  0.12748600  0.23981700  1
  O  O8  1  0.86300100  0.36471000  0.25299200  1
  O  O9  1  0.12775700  0.62011800  0.26035900  1
  O  O10  1  0.36471000  0.86300100  0.25299200  1
  O  O11  1  0.62011800  0.12775700  0.26035900  1
  O  O12  1  0.00949900  0.74207100  0.49334400  1
  O  O13  1  0.51344700  0.24760900  0.49175500  1
  O  O14  1  0.74207100  0.00949900  0.49334400  1
  O  O15  1  0.24760900  0.51344700  0.49175500  1
  O  O16  1  0.25150400  0.98760600  0.50528000  1
  O  O17  1  0.75302700  0.48465400  0.50629900  1
  O  O18  1  0.98760600  0.25150400  0.50528000  1
  O  O19  1  0.48465400  0.75302700  0.50629900  1
  O  O20  1  0.63590000  0.13574200  0.74551400  1
  O  O21  1  0.87389500  0.37180100  0.74172500  1
  O  O22  1  0.13574200  0.63590000  0.74551400  1
  O  O23  1  0.37180100  0.87389500  0.74172500  1
  O  O24  1  0.87504400  0.87504400  0.75847000  1
  O  O25  1  0.37593200  0.37593200  0.75879100  1
  O  O26  1  0.61322900  0.61322900  0.75200700  1
  O  O27  1  0.11290200  0.11290200  0.75568900  1
  O  O28  1  0.50057300  0.26284200  0.99155800  1
  O  O29  1  0.99383000  0.75228100  0.99330600  1
  O  O30  1  0.75228100  0.99383000  0.99330600  1
  O  O31  1  0.26284200  0.50057300  0.99155800  1
loop_
_geom_bond_atom_site_label_1
_geom_bond_atom_site_label_2
_geom_bond_distance
_geom_bond_site_symmetry_2
Li0 O0 2.156261 1_656
Li0 O21 2.161256 1_555
Li0 O3 2.196459 1_556
Li0 O30 2.208857 1_545
Li0 O28 2.229504 1_555
Li0 O11 2.257453 1_556
Li1 O2 2.156261 1_566
Li1 O23 2.161256 1_555
Li1 O1 2.196459 1_556
Li1 O29 2.208857 1_455
Li1 O31 2.229504 1_555
Li1 O9 2.257453 1_556
Li2 O20 2.121308 1_565
Li2 O30 2.130261 1_555
Li2 O2 2.137870 1_566
Li2 O1 2.161848 1_556
Li2 O10 2.206406 1_556
Li2 O28 2.284547 1_565
Li3 O22 2.121308 1_655
Li3 O29 2.130261 1_555
Li3 O0 2.137870 1_656
Li3 O3 2.161848 1_556
Li3 O8 2.206406 1_556
Li3 O31 2.284547 1_655
Li4 O5 2.150202 1_555
Li4 O6 2.153061 1_555
Li4 O19 2.175161 1_555
Li4 O30 2.199711 1_554
Li4 O11 2.242623 1_565
Li4 O10 2.261898 1_555
Li5 O31 1.951565 1_554
Li5 O9 1.951989 1_555
Li5 O8 1.980696 1_455
Li5 O7 2.426597 1_555
Li5 O18 2.493895 1_455
Li5 O4 2.500823 1_555
Li6 O28 1.951565 1_554
Li6 O11 1.951989 1_555
Li6 O10 1.980696 1_545
Li6 O7 2.426597 1_555
Li6 O16 2.493895 1_545
Li6 O4 2.500823 1_555
Li7 O5 2.150202 1_555
Li7 O6 2.153061 1_555
Li7 O17 2.175161 1_555
Li7 O29 2.199711 1_554
Li7 O9 2.242623 1_655
Li7 O8 2.261898 1_555
Li8 O7 1.908485 1_555
Li8 O4 1.933239 1_555
Li8 O16 1.937493 1_545
Li8 O18 1.937493 1_455
Li9 O19 2.144842 1_555
Li9 O17 2.144842 1_555
Li9 O6 2.174704 1_555
Li9 O25 2.205228 1_555
Li9 O15 2.226254 1_555
Li9 O13 2.226254 1_555
Li10 O24 1.976033 1_555
Li10 O14 1.992522 1_565
Li10 O12 1.992522 1_655
Li10 O16 2.472046 1_655
Li10 O18 2.472046 1_565
Li10 O7 2.519674 1_665
Li11 O27 1.945425 1_555
Li11 O13 1.987104 1_555
Li11 O15 1.987104 1_555
Li11 O4 2.473017 1_555
Li11 O18 2.523229 1_455
Li11 O16 2.523229 1_545
Li12 O5 2.060504 1_555
Li12 O26 2.180765 1_555
Li12 O19 2.197829 1_555
Li12 O17 2.197829 1_555
Li12 O14 2.219731 1_565
Li12 O12 2.219731 1_655
Li13 O0 2.145642 1_556
Li13 O25 2.168577 1_555
Li13 O22 2.173183 1_555
Li13 O21 2.182875 1_455
Li13 O27 2.240263 1_555
Li13 O15 2.256600 1_555
Li14 O21 2.132755 1_555
Li14 O3 2.133378 1_556
Li14 O22 2.198201 1_655
Li14 O12 2.217137 1_655
Li14 O24 2.225385 1_555
Li14 O26 2.227429 1_555
Li15 O2 2.145642 1_556
Li15 O25 2.168577 1_555
Li15 O20 2.173183 1_555
Li15 O23 2.182875 1_545
Li15 O27 2.240263 1_555
Li15 O13 2.256600 1_555
Li16 O23 2.132755 1_555
Li16 O1 2.133378 1_556
Li16 O20 2.198201 1_565
Li16 O14 2.217137 1_565
Li16 O24 2.225385 1_555
Li16 O26 2.227429 1_555
O0 V6 2.031120 1_455
O0 V3 2.046722 1_555
O0 V2 2.119045 1_445
O1 V0 2.030647 1_554
O1 V1 2.071507 1_555
O1 V7 2.101330 1_555
O2 V5 2.031120 1_545
O2 V3 2.046722 1_555
O2 V2 2.119045 1_445
O3 V0 2.030647 1_554
O3 V1 2.071507 1_555
O3 V4 2.101330 1_555
O4 V7 2.052391 1_555
O4 V4 2.052391 1_555
O4 V0 2.107294 1_554
O5 V5 2.045858 1_655
O5 V6 2.045858 1_565
O5 V2 2.115437 1_555
O6 V7 2.069877 1_555
O6 V4 2.069877 1_555
O6 V1 2.076571 1_555
O7 V3 2.037833 1_555
O7 V6 2.133930 1_455
O7 V5 2.133930 1_545
O8 V4 2.059154 1_555
O8 V6 2.063785 1_555
O8 V8 2.091926 1_555
O9 V9 2.055536 1_455
O9 V7 2.056124 1_555
O9 V5 2.103590 1_555
O10 V7 2.059154 1_555
O10 V5 2.063785 1_555
O10 V10 2.091926 1_555
O11 V11 2.055536 1_545
O11 V4 2.056124 1_555
O11 V6 2.103590 1_555
O12 V10 2.062339 1_555
O12 V9 2.067376 1_455
O12 V5 2.099232 1_555
O13 V4 2.057604 1_555
O13 V8 2.061307 1_555
O13 V11 2.074134 1_545
O14 V8 2.062339 1_555
O14 V11 2.067376 1_545
O14 V6 2.099232 1_555
O15 V7 2.057604 1_555
O15 V10 2.061307 1_555
O15 V9 2.074134 1_455
O16 V10 2.034614 1_555
O16 V11 2.061680 1_555
O16 V12 2.092460 1_555
O17 V8 2.041683 1_555
O17 V14 2.057231 1_555
O17 V9 2.080518 1_555
O18 V8 2.034614 1_555
O18 V9 2.061680 1_555
O18 V15 2.092460 1_555
O19 V10 2.041683 1_555
O19 V13 2.057231 1_555
O19 V11 2.080518 1_555
O20 V14 2.058992 1_555
O20 V15 2.059268 1_555
O20 V8 2.104334 1_555
O21 V9 2.043341 1_555
O21 V15 2.069728 1_555
O21 V14 2.084724 1_555
O22 V13 2.058992 1_555
O22 V12 2.059268 1_555
O22 V10 2.104334 1_555
O23 V11 2.043341 1_555
O23 V12 2.069728 1_555
O23 V13 2.084724 1_555
O24 V1 2.063839 1_556
O24 V15 2.091396 1_565
O24 V12 2.091396 1_655
O25 V3 2.057049 1_556
O25 V13 2.086265 1_555
O25 V14 2.086265 1_555
O26 V13 2.037046 1_555
O26 V14 2.037046 1_555
O26 V0 2.111941 1_555
O27 V12 2.048094 1_545
O27 V15 2.048094 1_455
O27 V2 2.135172 1_446
O28 V0 2.041061 1_555
O28 V14 2.076707 1_555
O28 V3 2.087966 1_556
O29 V1 2.049921 1_556
O29 V12 2.064250 1_655
O29 V2 2.142804 1_556
O30 V1 2.049921 1_556
O30 V15 2.064250 1_565
O30 V2 2.142804 1_556
O31 V0 2.041061 1_555
O31 V13 2.076707 1_555
O31 V3 2.087966 1_556
