# generated using pymatgen
data_NaV3P2O13
_symmetry_space_group_name_H-M   'P 1'
_cell_length_a   8.46853600
_cell_length_b   10.22021100
_cell_length_c   12.08653800
_cell_angle_alpha   90.00000000
_cell_angle_beta   90.00000000
_cell_angle_gamma   90.00000000
_symmetry_Int_Tables_number   1
_chemical_formula_structural   NaV3P2O13
_chemical_formula_sum   'Na4 V12 P8 O52'
_cell_volume   1046.09258073
_cell_formula_units_Z   4
loop_
 _symmetry_equiv_pos_site_id
 _symmetry_equiv_pos_as_xyz
  1  'x, y, z'
loop_
 _atom_site_type_symbol
 _atom_site_label
 _atom_site_symmetry_multiplicity
 _atom_site_fract_x
 _atom_site_fract_y
 _atom_site_fract_z
 _atom_site_occupancy
  Na  Na0  1  0.35289000  0.28507400  0.95934300  1
  Na  Na1  1  0.85289000  0.28507400  0.54065700  1
  Na  Na2  1  0.64711000  0.78507400  0.04065700  1
  Na  Na3  1  0.14711000  0.78507400  0.45934300  1
  V  V0  1  0.00113600  0.02213500  0.63646800  1
  V  V1  1  0.50113600  0.02213500  0.86353200  1
  V  V2  1  0.81656900  0.24940100  0.24669200  1
  V  V3  1  0.31656900  0.24940100  0.25330800  1
  V  V4  1  0.49957900  0.47515200  0.63377400  1
  V  V5  1  0.99957900  0.47515200  0.86622600  1
  V  V6  1  0.49886400  0.52213500  0.13646800  1
  V  V7  1  0.99886400  0.52213500  0.36353200  1
  V  V8  1  0.18343100  0.74940100  0.75330800  1
  V  V9  1  0.68343100  0.74940100  0.74669200  1
  V  V10  1  0.00042100  0.97515200  0.13377400  1
  V  V11  1  0.50042100  0.97515200  0.36622600  1
  P  P0  1  0.11931500  0.01401500  0.88102800  1
  P  P1  1  0.61931500  0.01401500  0.61897200  1
  P  P2  1  0.12080800  0.48769100  0.62007800  1
  P  P3  1  0.62080800  0.48769100  0.87992200  1
  P  P4  1  0.88068500  0.51401500  0.11897200  1
  P  P5  1  0.38068500  0.51401500  0.38102800  1
  P  P6  1  0.37919200  0.98769100  0.12007800  1
  P  P7  1  0.87919200  0.98769100  0.37992200  1
  O  O0  1  0.99901400  0.05795100  0.79257400  1
  O  O1  1  0.49901400  0.05795100  0.70742600  1
  O  O2  1  0.05742300  0.05694400  0.99516500  1
  O  O3  1  0.55742300  0.05694400  0.50483500  1
  O  O4  1  0.28213100  0.08175200  0.86113000  1
  O  O5  1  0.78213100  0.08175200  0.63887000  1
  O  O6  1  0.36234800  0.10453600  0.33724700  1
  O  O7  1  0.86234800  0.10453600  0.16275300  1
  O  O8  1  0.86293300  0.13974500  0.37899500  1
  O  O9  1  0.36293300  0.13974500  0.12100500  1
  O  O10  1  0.59468600  0.14829000  0.90953400  1
  O  O11  1  0.09468600  0.14829000  0.59046600  1
  O  O12  1  0.12396100  0.24959800  0.25102300  1
  O  O13  1  0.62396100  0.24959800  0.24897700  1
  O  O14  1  0.60222700  0.35228400  0.58986900  1
  O  O15  1  0.10222700  0.35228400  0.91013100  1
  O  O16  1  0.36097200  0.36288700  0.37522400  1
  O  O17  1  0.86097200  0.36288700  0.12477600  1
  O  O18  1  0.36039100  0.39204300  0.15816800  1
  O  O19  1  0.86039100  0.39204300  0.34183200  1
  O  O20  1  0.78266000  0.42289100  0.85613400  1
  O  O21  1  0.28266000  0.42289100  0.64386600  1
  O  O22  1  0.55631100  0.44078600  0.99326800  1
  O  O23  1  0.05631100  0.44078600  0.50673200  1
  O  O24  1  0.49772300  0.44076000  0.79373800  1
  O  O25  1  0.99772300  0.44076000  0.70626200  1
  O  O26  1  0.00098600  0.55795100  0.20742600  1
  O  O27  1  0.50098600  0.55795100  0.29257400  1
  O  O28  1  0.44257700  0.55694400  0.49516500  1
  O  O29  1  0.94257700  0.55694400  0.00483500  1
  O  O30  1  0.21786900  0.58175200  0.36113000  1
  O  O31  1  0.71786900  0.58175200  0.13887000  1
  O  O32  1  0.13765200  0.60453600  0.83724700  1
  O  O33  1  0.63765200  0.60453600  0.66275300  1
  O  O34  1  0.13706700  0.63974500  0.62100500  1
  O  O35  1  0.63706700  0.63974500  0.87899500  1
  O  O36  1  0.40531400  0.64829000  0.09046600  1
  O  O37  1  0.90531400  0.64829000  0.40953400  1
  O  O38  1  0.87603900  0.74959800  0.74897700  1
  O  O39  1  0.37603900  0.74959800  0.75102300  1
  O  O40  1  0.89777300  0.85228400  0.08986900  1
  O  O41  1  0.39777300  0.85228400  0.41013100  1
  O  O42  1  0.13902800  0.86288700  0.87522400  1
  O  O43  1  0.63902800  0.86288700  0.62477600  1
  O  O44  1  0.63960900  0.89204300  0.84183200  1
  O  O45  1  0.13960900  0.89204300  0.65816800  1
  O  O46  1  0.21734000  0.92289100  0.14386600  1
  O  O47  1  0.71734000  0.92289100  0.35613400  1
  O  O48  1  0.44368900  0.94078600  0.00673200  1
  O  O49  1  0.94368900  0.94078600  0.49326800  1
  O  O50  1  0.50227700  0.94076000  0.20626200  1
  O  O51  1  0.00227700  0.94076000  0.29373800  1
loop_
_geom_bond_atom_site_label_1
_geom_bond_atom_site_label_2
_geom_bond_distance
_geom_bond_site_symmetry_2
Na0 O15 2.309044 1_555
Na0 O22 2.380826 1_555
Na0 O9 2.455847 1_556
Na0 O4 2.467028 1_555
Na0 O10 2.551397 1_555
Na0 O18 2.640860 1_556
Na0 O24 2.835924 1_555
Na1 O14 2.309044 1_555
Na1 O23 2.380826 1_655
Na1 O8 2.455847 1_555
Na1 O5 2.467028 1_555
Na1 O11 2.551397 1_655
Na1 O19 2.640860 1_555
Na1 O25 2.835924 1_555
Na2 O40 2.309044 1_555
Na2 O48 2.380826 1_555
Na2 O35 2.455847 1_554
Na2 O31 2.467028 1_555
Na2 O36 2.551397 1_555
Na2 O44 2.640860 1_554
Na2 O50 2.835924 1_555
Na3 O41 2.309044 1_555
Na3 O49 2.380826 1_455
Na3 O34 2.455847 1_555
Na3 O30 2.467028 1_555
Na3 O37 2.551397 1_455
Na3 O45 2.640860 1_555
Na3 O51 2.835924 1_555
O0 P0 1.543539 1_655
O0 V0 1.922045 1_655
O1 P1 1.543539 1_555
O1 V1 1.922045 1_555
O2 P0 1.539575 1_555
O2 V10 1.933505 1_546
O3 P1 1.539575 1_555
O3 V11 1.933505 1_545
O4 P0 1.561482 1_555
O4 V1 1.952388 1_555
O5 P1 1.561482 1_555
O5 V0 1.952388 1_655
O6 V11 1.799569 1_545
O6 V3 1.836192 1_555
O7 V10 1.799569 1_645
O7 V2 1.836192 1_555
O8 P7 1.560152 1_545
O8 V2 1.991788 1_555
O9 P6 1.560152 1_545
O9 V3 1.991788 1_555
O10 V1 1.612187 1_555
O11 V0 1.612187 1_555
O12 V3 1.631343 1_555
O13 V2 1.631343 1_555
O14 V4 1.616824 1_555
O15 V5 1.616824 1_455
O16 P5 1.555139 1_555
O16 V3 1.912584 1_555
O17 P4 1.555139 1_555
O17 V2 1.912584 1_555
O18 V6 1.792116 1_555
O18 V3 1.893487 1_555
O19 V7 1.792116 1_555
O19 V2 1.893487 1_555
O20 P3 1.549176 1_555
O20 V5 1.916945 1_555
O21 P2 1.549176 1_555
O21 V4 1.916945 1_555
O22 P3 1.550782 1_555
O22 V6 1.980795 1_556
O23 P2 1.550782 1_555
O23 V7 1.980795 1_455
O24 P3 1.549716 1_555
O24 V4 1.965165 1_555
O25 P2 1.549716 1_655
O25 V5 1.965165 1_555
O26 P4 1.543539 1_455
O26 V7 1.922045 1_455
O27 P5 1.543539 1_555
O27 V6 1.922045 1_555
O28 P5 1.539575 1_555
O28 V4 1.933505 1_555
O29 P4 1.539575 1_555
O29 V5 1.933505 1_554
O30 P5 1.561482 1_555
O30 V7 1.952388 1_455
O31 P4 1.561482 1_555
O31 V6 1.952388 1_555
O32 V5 1.799569 1_455
O32 V8 1.836192 1_555
O33 V4 1.799569 1_555
O33 V9 1.836192 1_555
O34 P2 1.560152 1_555
O34 V8 1.991788 1_555
O35 P3 1.560152 1_555
O35 V9 1.991788 1_555
O36 V6 1.612187 1_555
O37 V7 1.612187 1_555
O38 V9 1.631343 1_555
O39 V8 1.631343 1_555
O40 V10 1.616824 1_655
O41 V11 1.616824 1_555
O42 P0 1.555139 1_565
O42 V8 1.912584 1_555
O43 P1 1.555139 1_565
O43 V9 1.912584 1_555
O44 V1 1.792116 1_565
O44 V9 1.893487 1_555
O45 V0 1.792116 1_565
O45 V8 1.893487 1_555
O46 P6 1.549176 1_555
O46 V10 1.916945 1_555
O47 P7 1.549176 1_555
O47 V11 1.916945 1_555
O48 P6 1.550782 1_555
O48 V1 1.980795 1_564
O49 P7 1.550782 1_555
O49 V0 1.980795 1_665
O50 P6 1.549716 1_555
O50 V11 1.965165 1_555
O51 P7 1.549716 1_455
O51 V10 1.965165 1_555
