# generated using pymatgen
data_Li4Cr3Fe2Co3O16
_symmetry_space_group_name_H-M   'P 1'
_cell_length_a   5.80600800
_cell_length_b   5.80898133
_cell_length_c   9.50262944
_cell_angle_alpha   90.17505602
_cell_angle_beta   90.87718287
_cell_angle_gamma   119.04292980
_symmetry_Int_Tables_number   1
_chemical_formula_structural   Li4Cr3Fe2Co3O16
_chemical_formula_sum   'Li4 Cr3 Fe2 Co3 O16'
_cell_volume   280.14183881
_cell_formula_units_Z   1
loop_
 _symmetry_equiv_pos_site_id
 _symmetry_equiv_pos_as_xyz
  1  'x, y, z'
loop_
 _atom_site_type_symbol
 _atom_site_label
 _atom_site_symmetry_multiplicity
 _atom_site_fract_x
 _atom_site_fract_y
 _atom_site_fract_z
 _atom_site_occupancy
  Li  Li0  1  0.67232100  0.32850000  0.10797100  1
  Li  Li1  1  0.99342600  0.00511800  0.00367300  1
  Li  Li2  1  0.99343600  0.00539400  0.50238400  1
  Li  Li3  1  0.33834000  0.66829900  0.60569300  1
  Cr  Cr0  1  0.33874000  0.17037300  0.78627800  1
  Cr  Cr1  1  0.83098700  0.66539500  0.78800100  1
  Cr  Cr2  1  0.17032400  0.82740800  0.28553200  1
  Fe  Fe0  1  0.66307800  0.33368000  0.50943100  1
  Fe  Fe1  1  0.33150900  0.66271900  0.00993700  1
  Co  Co0  1  0.82981800  0.17158500  0.78354200  1
  Co  Co1  1  0.16829500  0.33615200  0.28451100  1
  Co  Co2  1  0.66295300  0.82880400  0.28682300  1
  O  O0  1  0.31992300  0.15548800  0.40120200  1
  O  O1  1  0.52671100  0.48913900  0.66468200  1
  O  O2  1  0.67942600  0.33095400  0.89336800  1
  O  O3  1  0.98987100  0.00514300  0.69002500  1
  O  O4  1  0.98932100  0.98269000  0.19106200  1
  O  O5  1  0.83232600  0.67731700  0.39794700  1
  O  O6  1  0.53319700  0.04046400  0.66296800  1
  O  O7  1  0.96388100  0.48033600  0.66608700  1
  O  O8  1  0.15362200  0.83071200  0.89759400  1
  O  O9  1  0.82671400  0.15489800  0.39024100  1
  O  O10  1  0.03946600  0.52496700  0.16300300  1
  O  O11  1  0.48806900  0.95953200  0.16542700  1
  O  O12  1  0.34492800  0.68046500  0.39288600  1
  O  O13  1  0.15434800  0.32430900  0.90105900  1
  O  O14  1  0.49178000  0.52512800  0.16721000  1
  O  O15  1  0.67288900  0.83473100  0.89361900  1
loop_
_geom_bond_atom_site_label_1
_geom_bond_atom_site_label_2
_geom_bond_distance
_geom_bond_site_symmetry_2
Li0 O10 1.928743 1_655
Li0 O11 1.958362 1_545
Li0 O14 1.974061 1_555
Li0 O2 2.040295 1_554
Li1 O4 1.785524 1_545
Li1 O13 1.902276 1_654
Li1 O15 1.918971 1_544
Li1 O8 1.960867 1_644
Li2 O3 1.783517 1_555
Li2 O9 1.901881 1_555
Li2 O5 1.929014 1_545
Li2 O0 1.932393 1_655
Li3 O1 1.919228 1_555
Li3 O6 1.961932 1_565
Li3 O7 1.996372 1_455
Li3 O12 2.023975 1_555
Cr0 O3 1.977606 1_455
Cr0 O2 1.989821 1_555
Cr0 O1 2.011113 1_555
Cr0 O6 2.019788 1_555
Cr0 O13 2.023542 1_555
Cr0 O8 2.038560 1_545
Cr1 O8 1.924394 1_655
Cr1 O1 1.927588 1_555
Cr1 O15 1.927783 1_555
Cr1 O3 1.970456 1_565
Cr1 O7 1.979446 1_555
Cr1 O2 1.982470 1_555
Cr2 O12 1.900219 1_555
Cr2 O4 1.902735 1_455
Cr2 O10 1.919365 1_555
Cr2 O0 1.986318 1_565
Cr2 O11 1.997529 1_555
Cr2 O5 2.039858 1_455
Fe0 O0 2.006759 1_555
Fe0 O5 2.052540 1_555
Fe0 O9 2.061018 1_555
Fe0 O1 2.083435 1_555
Fe0 O6 2.097692 1_555
Fe0 O7 2.111876 1_555
Fe1 O13 1.996156 1_554
Fe1 O8 2.027286 1_554
Fe1 O15 2.073553 1_554
Fe1 O10 2.096735 1_555
Fe1 O11 2.098539 1_555
Fe1 O14 2.103594 1_555
Co0 O3 1.865598 1_555
Co0 O2 1.874974 1_555
Co0 O6 1.876031 1_555
Co0 O7 1.936941 1_555
Co0 O13 1.972542 1_655
Co0 O15 2.015921 1_545
Co1 O10 1.968135 1_555
Co1 O4 1.993299 1_445
Co1 O0 1.995065 1_555
Co1 O14 2.011164 1_555
Co1 O12 2.018976 1_555
Co1 O9 2.022686 1_455
Co2 O4 1.905495 1_555
Co2 O14 1.908526 1_555
Co2 O11 1.912217 1_555
Co2 O9 1.915561 1_565
Co2 O5 1.915874 1_555
Co2 O12 1.919686 1_555
