# generated using pymatgen
data_Li5Fe3Sb2(PO4)6
_symmetry_space_group_name_H-M   'P 1'
_cell_length_a   8.82099355
_cell_length_b   9.04188722
_cell_length_c   8.99465190
_cell_angle_alpha   59.26533247
_cell_angle_beta   60.27035562
_cell_angle_gamma   60.02008637
_symmetry_Int_Tables_number   1
_chemical_formula_structural   Li5Fe3Sb2(PO4)6
_chemical_formula_sum   'Li5 Fe3 Sb2 P6 O24'
_cell_volume   505.48897411
_cell_formula_units_Z   1
loop_
 _symmetry_equiv_pos_site_id
 _symmetry_equiv_pos_as_xyz
  1  'x, y, z'
loop_
 _atom_site_type_symbol
 _atom_site_label
 _atom_site_symmetry_multiplicity
 _atom_site_fract_x
 _atom_site_fract_y
 _atom_site_fract_z
 _atom_site_occupancy
  Li  Li0  1  0.76818300  0.12209700  0.33751400  1
  Li  Li1  1  0.18378000  0.83746200  0.66501400  1
  Li  Li2  1  0.67570900  0.16264200  0.84112700  1
  Li  Li3  1  0.83431400  0.68124200  0.17220000  1
  Li  Li4  1  0.83332600  0.81423700  0.81964500  1
  Fe  Fe0  1  0.15014000  0.16354100  0.15040400  1
  Fe  Fe1  1  0.35244800  0.33352200  0.34678400  1
  Fe  Fe2  1  0.63852700  0.65289500  0.65796900  1
  Sb  Sb0  1  0.01751300  0.99127700  0.97910400  1
  Sb  Sb1  1  0.47084900  0.48919100  0.48599200  1
  P  P0  1  0.04660600  0.75322700  0.45449500  1
  P  P1  1  0.44657900  0.05197400  0.76407600  1
  P  P2  1  0.75519200  0.45522100  0.05487500  1
  P  P3  1  0.25383700  0.54914500  0.96484200  1
  P  P4  1  0.56173100  0.97021800  0.25231500  1
  P  P5  1  0.95542600  0.24631200  0.54299000  1
  O  O0  1  0.09513200  0.33128700  0.48238500  1
  O  O1  1  0.34017900  0.50128100  0.09773900  1
  O  O2  1  0.04750400  0.92914500  0.27432200  1
  O  O3  1  0.56006500  0.09095800  0.32596500  1
  O  O4  1  0.04120400  0.78903200  0.60587000  1
  O  O5  1  0.24116200  0.59891600  0.40684400  1
  O  O6  1  0.26675300  0.08124100  0.93086300  1
  O  O7  1  0.41974200  0.24454000  0.59545300  1
  O  O8  1  0.18969700  0.39923800  0.00276500  1
  O  O9  1  0.60000400  0.41032300  0.25682300  1
  O  O10  1  0.07300500  0.72959700  0.97858800  1
  O  O11  1  0.38364900  0.03688600  0.21131900  1
  O  O12  1  0.61661200  0.01947900  0.79572400  1
  O  O13  1  0.91422000  0.26468800  0.08360000  1
  O  O14  1  0.37653000  0.60759400  0.76113200  1
  O  O15  1  0.79851600  0.60791400  0.03497100  1
  O  O16  1  0.60403000  0.76607300  0.37813200  1
  O  O17  1  0.73540900  0.97604900  0.06724200  1
  O  O18  1  0.75098500  0.36381000  0.61408400  1
  O  O19  1  0.97472300  0.19540700  0.39194100  1
  O  O20  1  0.45567700  0.90901600  0.71522600  1
  O  O21  1  0.98666100  0.06236000  0.71788300  1
  O  O22  1  0.69540400  0.48939400  0.90591100  1
  O  O23  1  0.88897400  0.69857400  0.49887400  1
loop_
_geom_bond_atom_site_label_1
_geom_bond_atom_site_label_2
_geom_bond_distance
_geom_bond_site_symmetry_2
Li0 O3 2.048379 1_555
Li0 O13 2.066375 1_555
Li0 O2 2.183163 1_645
Li0 O9 2.188628 1_555
Li0 O19 2.534076 1_555
Li1 O4 1.873112 1_555
Li1 O21 2.004814 1_465
Li1 O14 2.011896 1_555
Li1 O10 2.295311 1_555
Li2 O12 1.881497 1_555
Li2 O17 1.981740 1_546
Li2 O18 1.996315 1_555
Li2 O21 2.258459 1_555
Li3 O15 1.869543 1_555
Li3 O10 2.040119 1_654
Li3 O16 2.075777 1_555
Li3 O17 2.162968 1_555
Li4 O12 1.897089 1_565
Li4 O15 1.901374 1_556
Li4 O4 1.909158 1_655
Fe0 O8 1.953949 1_555
Fe0 O11 1.993727 1_555
Fe0 O19 2.014282 1_455
Fe0 O6 2.057579 1_554
Fe0 O13 2.074771 1_455
Fe0 O2 2.248559 1_545
Fe1 O0 1.978595 1_555
Fe1 O1 1.983388 1_555
Fe1 O3 2.065130 1_555
Fe1 O7 2.236655 1_555
Fe1 O9 2.257016 1_555
Fe1 O5 2.336389 1_555
Fe2 O23 2.066683 1_555
Fe2 O22 2.099857 1_555
Fe2 O14 2.191005 1_555
Fe2 O20 2.211781 1_555
Fe2 O16 2.300210 1_555
Fe2 O18 2.459079 1_555
O0 P5 1.502687 1_455
O1 P3 1.497007 1_554
O2 P0 1.587939 1_555
O2 Sb0 2.541669 1_554
O3 P4 1.531156 1_545
O4 P0 1.527000 1_555
O5 P0 1.601364 1_555
O5 Sb1 2.072638 1_555
O6 P1 1.569345 1_555
O6 Sb0 2.482728 1_545
O7 P1 1.622650 1_555
O7 Sb1 2.096732 1_555
O8 P3 1.541463 1_554
O9 P2 1.635137 1_555
O9 Sb1 2.101614 1_555
O10 P3 1.622168 1_555
O10 Sb0 2.165515 1_555
O11 P4 1.538801 1_545
O12 P1 1.521347 1_555
O13 P2 1.578548 1_555
O13 Sb0 2.664514 1_644
O14 P3 1.556588 1_555
O15 P2 1.513621 1_555
O16 P4 1.556423 1_555
O17 P4 1.607033 1_555
O17 Sb0 2.261416 1_654
O18 P5 1.557456 1_555
O19 P5 1.555065 1_555
O20 P1 1.520599 1_565
O21 P5 1.616953 1_555
O21 Sb0 2.218913 1_645
O22 P2 1.511198 1_556
O23 P0 1.507162 1_655
