# generated using pymatgen
data_Li7Cr7P6(O8F)3
_symmetry_space_group_name_H-M   'P 1'
_cell_length_a   6.61473700
_cell_length_b   13.57341228
_cell_length_c   13.58250171
_cell_angle_alpha   119.89732873
_cell_angle_beta   91.25600114
_cell_angle_gamma   90.13958181
_symmetry_Int_Tables_number   1
_chemical_formula_structural   Li7Cr7P6(O8F)3
_chemical_formula_sum   'Li14 Cr14 P12 O48 F6'
_cell_volume   1056.82829445
_cell_formula_units_Z   2
loop_
 _symmetry_equiv_pos_site_id
 _symmetry_equiv_pos_as_xyz
  1  'x, y, z'
loop_
 _atom_site_type_symbol
 _atom_site_label
 _atom_site_symmetry_multiplicity
 _atom_site_fract_x
 _atom_site_fract_y
 _atom_site_fract_z
 _atom_site_occupancy
  Li  Li0  1  0.25795000  0.92180900  0.73930900  1
  Li  Li1  1  0.75120400  0.73951600  0.81758700  1
  Li  Li2  1  0.75789700  0.87392000  0.49449700  1
  Li  Li3  1  0.25728400  0.37848700  0.87380700  1
  Li  Li4  1  0.75848000  0.18130300  0.92056200  1
  Li  Li5  1  0.25708800  0.49404200  0.61946300  1
  Li  Li6  1  0.44229300  0.33339400  0.66755700  1
  Li  Li7  1  0.94199600  0.66636200  0.33395100  1
  Li  Li8  1  0.75530200  0.50617800  0.37966900  1
  Li  Li9  1  0.24466700  0.81809100  0.07876200  1
  Li  Li10  1  0.75579600  0.61947900  0.12515000  1
  Li  Li11  1  0.25491900  0.12581000  0.50650400  1
  Li  Li12  1  0.25120700  0.26070100  0.18080200  1
  Li  Li13  1  0.74422700  0.07942400  0.26084500  1
  Cr  Cr0  1  0.01126200  0.57946800  0.87501500  1
  Cr  Cr1  1  0.51350800  0.57899500  0.87468200  1
  Cr  Cr2  1  0.51250200  0.70359500  0.57802600  1
  Cr  Cr3  1  0.01510900  0.70507000  0.58017400  1
  Cr  Cr4  1  0.01098300  0.87465600  0.29459300  1
  Cr  Cr5  1  0.50817800  0.87482000  0.29682600  1
  Cr  Cr6  1  0.00348700  0.99997300  0.99972500  1
  Cr  Cr7  1  0.50349900  0.99983800  0.99934700  1
  Cr  Cr8  1  0.01198100  0.12619000  0.70255900  1
  Cr  Cr9  1  0.51440400  0.12482600  0.70620100  1
  Cr  Cr10  1  0.50934600  0.29303300  0.41841800  1
  Cr  Cr11  1  0.00754000  0.29799700  0.42416200  1
  Cr  Cr12  1  0.01103700  0.41807200  0.12527900  1
  Cr  Cr13  1  0.50972800  0.42514100  0.12701400  1
  P  P0  1  0.76517000  0.93454100  0.75318100  1
  P  P1  1  0.25875300  0.75350100  0.81856000  1
  P  P2  1  0.26651700  0.88482800  0.51294300  1
  P  P3  1  0.76724300  0.37183500  0.88484700  1
  P  P4  1  0.76372900  0.51243100  0.62815100  1
  P  P5  1  0.25977200  0.18092400  0.93376900  1
  P  P6  1  0.74534100  0.81832600  0.06525800  1
  P  P7  1  0.26094500  0.48709500  0.37125600  1
  P  P8  1  0.26102400  0.62844200  0.11647100  1
  P  P9  1  0.75974400  0.11643000  0.48775700  1
  P  P10  1  0.74464400  0.24708500  0.18123400  1
  P  P11  1  0.23773500  0.06542500  0.24723700  1
  O  O0  1  0.78045600  0.01182700  0.88644800  1
  O  O1  1  0.27584900  0.88660100  0.87462500  1
  O  O2  1  0.73502700  0.68526000  0.99637500  1
  O  O3  1  0.24524700  0.99939700  0.62766500  1
  O  O4  1  0.57485700  0.85760300  0.72341800  1
  O  O5  1  0.06935200  0.72571400  0.86571500  1
  O  O6  1  0.96001500  0.86372300  0.71603200  1
  O  O7  1  0.45473800  0.71372500  0.85095200  1
  O  O8  1  0.23921400  0.68945400  0.68574700  1
  O  O9  1  0.75034300  0.37327600  0.00101800  1
  O  O10  1  0.46022200  0.88826400  0.45268100  1
  O  O11  1  0.96240200  0.43552700  0.88649300  1
  O  O12  1  0.28501700  0.78898300  0.54249300  1
  O  O13  1  0.57277600  0.42444500  0.86545700  1
  O  O14  1  0.07128500  0.86492800  0.43954200  1
  O  O15  1  0.23488800  0.99633300  0.31125700  1
  O  O16  1  0.78359400  0.54099400  0.75304100  1
  O  O17  1  0.74028500  0.62799700  0.62966400  1
  O  O18  1  0.25866800  0.12348100  0.01069600  1
  O  O19  1  0.78035500  0.24620900  0.78996100  1
  O  O20  1  0.45550900  0.14375000  0.86420000  1
  O  O21  1  0.95835000  0.45326600  0.56515500  1
  O  O22  1  0.06918100  0.13662300  0.85565500  1
  O  O23  1  0.07161900  0.55983300  0.42515100  1
  O  O24  1  0.57027300  0.43825300  0.57288400  1
  O  O25  1  0.55797100  0.86314900  0.14052400  1
  O  O26  1  0.46014700  0.54853800  0.43361100  1
  O  O27  1  0.94443700  0.85216300  0.13650900  1
  O  O28  1  0.27988400  0.75319300  0.21310100  1
  O  O29  1  0.74817000  0.87582600  0.98874000  1
  O  O30  1  0.24066800  0.37229500  0.37221300  1
  O  O31  1  0.26991800  0.45604300  0.24489900  1
  O  O32  1  0.74559200  0.00320400  0.68927400  1
  O  O33  1  0.57153700  0.13463700  0.56096500  1
  O  O34  1  0.07047800  0.57280200  0.13459000  1
  O  O35  1  0.77435200  0.21266700  0.45840700  1
  O  O36  1  0.45826700  0.56555700  0.11286900  1
  O  O37  1  0.95924700  0.11397600  0.54808200  1
  O  O38  1  0.23665400  0.63080700  0.00273500  1
  O  O39  1  0.74185300  0.31080200  0.31367900  1
  O  O40  1  0.94323300  0.27785900  0.14307900  1
  O  O41  1  0.43792300  0.13533800  0.28048000  1
  O  O42  1  0.55714400  0.28334900  0.13822300  1
  O  O43  1  0.05173900  0.14321000  0.28167500  1
  O  O44  1  0.73533000  0.00207700  0.37226200  1
  O  O45  1  0.25122900  0.31296900  0.00162500  1
  O  O46  1  0.73022900  0.11382800  0.12497600  1
  O  O47  1  0.22549900  0.98846200  0.11421400  1
  F  F0  1  0.29826200  0.47905900  0.75106300  1
  F  F1  1  0.79890000  0.72710200  0.47923100  1
  F  F2  1  0.79701700  0.75121600  0.27131900  1
  F  F3  1  0.29438900  0.24782900  0.72651200  1
  F  F4  1  0.29183300  0.27195200  0.52129700  1
  F  F5  1  0.78486900  0.52346700  0.25027400  1
loop_
_geom_bond_atom_site_label_1
_geom_bond_atom_site_label_2
_geom_bond_distance
_geom_bond_site_symmetry_2
Li0 O6 2.078964 1_455
Li0 O1 2.118190 1_555
Li0 O3 2.236627 1_555
Li0 O4 2.245350 1_555
Li0 O12 2.376279 1_555
Li1 O7 2.089829 1_555
Li1 O29 2.131254 1_555
Li1 O17 2.225150 1_555
Li1 O5 2.225958 1_655
Li1 O16 2.394055 1_555
Li2 O10 2.073812 1_555
Li2 O14 2.201713 1_655
Li2 O32 2.338178 1_565
Li3 O11 2.079166 1_455
Li3 O13 2.198112 1_555
Li3 O45 2.312673 1_556
Li4 O20 2.097842 1_555
Li4 O0 2.114126 1_555
Li4 O22 2.218421 1_655
Li4 O9 2.269691 1_556
Li4 O19 2.347837 1_555
Li5 O21 2.068594 1_455
Li5 O24 2.202922 1_555
Li5 O8 2.342100 1_555
Li6 O13 2.465558 1_555
Li6 O24 2.502464 1_555
Li6 O33 2.505379 1_555
Li7 O23 2.470927 1_655
Li7 O14 2.476699 1_655
Li7 O34 2.519005 1_655
Li8 O26 2.080235 1_555
Li8 O23 2.185719 1_655
Li8 O39 2.338751 1_555
Li9 O27 2.117593 1_455
Li9 O47 2.118891 1_555
Li9 O25 2.186059 1_555
Li9 O38 2.216164 1_555
Li9 O28 2.396728 1_555
Li10 O36 2.072128 1_555
Li10 O34 2.196897 1_655
Li10 O2 2.328589 1_554
Li11 O37 2.075372 1_455
Li11 O33 2.188681 1_555
Li11 O15 2.340141 1_545
Li12 O18 2.127257 1_555
Li12 O40 2.131273 1_455
Li12 O42 2.179405 1_555
Li12 O30 2.267391 1_555
Li12 O31 2.344350 1_555
Li13 O46 2.117575 1_555
Li13 O41 2.140488 1_555
Li13 O43 2.165467 1_655
Li13 O44 2.232323 1_555
Li13 O35 2.376546 1_555
Cr0 O11 2.061252 1_455
Cr0 O16 2.075968 1_455
Cr0 O5 2.086249 1_555
Cr0 O38 2.096243 1_556
Cr0 O2 2.429615 1_455
Cr0 F0 2.482188 1_555
Cr1 O7 2.045700 1_555
Cr1 F0 2.074055 1_555
Cr1 O13 2.077058 1_555
Cr1 O2 2.113391 1_555
Cr1 O16 2.339202 1_555
Cr1 O38 2.408304 1_556
Cr2 O26 2.061122 1_555
Cr2 O4 2.069910 1_555
Cr2 O12 2.091602 1_555
Cr2 O17 2.119844 1_555
Cr2 O8 2.416540 1_555
Cr2 F1 2.454936 1_555
Cr3 O6 2.060872 1_455
Cr3 F1 2.083139 1_455
Cr3 O23 2.087973 1_555
Cr3 O8 2.123668 1_555
Cr3 O12 2.314747 1_555
Cr3 O17 2.365655 1_455
Cr4 O27 2.049814 1_455
Cr4 O14 2.068231 1_555
Cr4 F2 2.085956 1_455
Cr4 O15 2.138511 1_555
Cr4 O28 2.321309 1_555
Cr4 O44 2.389495 1_465
Cr5 O10 2.063933 1_555
Cr5 O25 2.082362 1_555
Cr5 O28 2.083288 1_555
Cr5 O44 2.108703 1_565
Cr5 O15 2.394675 1_555
Cr5 F2 2.459748 1_555
Cr6 O0 2.172108 1_465
Cr6 O47 2.177715 1_556
Cr6 O18 2.325500 1_566
Cr6 O29 2.332058 1_455
Cr6 O1 2.458062 1_555
Cr6 O46 2.465176 1_466
Cr7 O1 2.186540 1_555
Cr7 O46 2.190760 1_566
Cr7 O18 2.286779 1_566
Cr7 O29 2.292425 1_555
Cr7 O0 2.470757 1_565
Cr7 O47 2.490804 1_556
Cr8 O22 2.039343 1_555
Cr8 O37 2.042646 1_455
Cr8 O19 2.138832 1_455
Cr8 O3 2.171174 1_545
Cr8 O32 2.365517 1_455
Cr8 F3 2.396727 1_555
Cr9 O20 2.076240 1_555
Cr9 O33 2.084777 1_555
Cr9 F3 2.133511 1_555
Cr9 O32 2.183124 1_555
Cr9 O19 2.265644 1_555
Cr9 O3 2.301684 1_545
Cr10 O41 2.067223 1_555
Cr10 O24 2.070249 1_555
Cr10 F4 2.142272 1_555
Cr10 O39 2.209871 1_555
Cr10 O35 2.261856 1_555
Cr10 O30 2.311578 1_555
Cr11 O43 2.054130 1_555
Cr11 O21 2.054779 1_455
Cr11 O35 2.120580 1_455
Cr11 O30 2.154623 1_555
Cr11 O39 2.348750 1_455
Cr11 F4 2.400297 1_555
Cr12 O34 2.076175 1_555
Cr12 O40 2.083495 1_455
Cr12 F5 2.206260 1_455
Cr12 O31 2.208341 1_555
Cr12 O9 2.244145 1_455
Cr12 O45 2.262692 1_555
Cr13 O42 2.029432 1_555
Cr13 O36 2.037318 1_555
Cr13 O31 2.168189 1_555
Cr13 O9 2.209375 1_555
Cr13 O45 2.327472 1_555
Cr13 F5 2.350227 1_555
O0 P0 1.576596 1_545
O1 P1 1.574900 1_555
O2 P6 1.566595 1_556
O3 P2 1.568812 1_555
O4 P0 1.545701 1_555
O5 P1 1.547826 1_555
O6 P0 1.546204 1_555
O7 P1 1.543012 1_555
O8 P1 1.566046 1_555
O9 P3 1.574675 1_554
O10 P2 1.548426 1_555
O11 P3 1.545448 1_555
O12 P2 1.545210 1_555
O13 P3 1.552770 1_555
O14 P2 1.551788 1_555
O15 P11 1.565103 1_565
O16 P4 1.542542 1_555
O17 P4 1.566603 1_555
O18 P5 1.584982 1_554
O19 P3 1.546271 1_555
O20 P5 1.550923 1_555
O21 P4 1.550058 1_555
O22 P5 1.542179 1_555
O23 P7 1.550715 1_555
O24 P4 1.553359 1_555
O25 P6 1.546142 1_555
O26 P7 1.546180 1_555
O27 P6 1.542724 1_555
O28 P8 1.543274 1_555
O29 P6 1.580839 1_556
O30 P7 1.570185 1_555
O31 P7 1.552460 1_555
O32 P0 1.562359 1_545
O33 P9 1.552570 1_555
O34 P8 1.553645 1_555
O35 P9 1.547507 1_555
O36 P8 1.549138 1_555
O37 P9 1.547252 1_555
O38 P8 1.565895 1_555
O39 P10 1.560458 1_555
O40 P10 1.552935 1_555
O41 P11 1.548676 1_555
O42 P10 1.542628 1_555
O43 P11 1.544808 1_555
O44 P9 1.567316 1_555
O45 P5 1.555959 1_554
O46 P10 1.575661 1_555
O47 P11 1.572863 1_565
F0 Li5 1.910983 1_555
F0 Li6 1.980989 1_555
F1 Li2 1.918610 1_555
F1 Li7 1.983259 1_555
F2 Li10 1.910023 1_555
F2 Li7 1.978961 1_555
F3 Li3 1.922130 1_555
F3 Li6 1.975644 1_555
F4 Li11 1.906044 1_555
F4 Li6 1.972359 1_555
F5 Li8 1.899514 1_555
F5 Li7 1.968441 1_555
