# generated using pymatgen
data_LiMnPO4
_symmetry_space_group_name_H-M   'P 1'
_cell_length_a   4.37313100
_cell_length_b   9.39948800
_cell_length_c   4.37313100
_cell_angle_alpha   90.00000610
_cell_angle_beta   90.00000000
_cell_angle_gamma   90.00000610
_symmetry_Int_Tables_number   1
_chemical_formula_structural   LiMnPO4
_chemical_formula_sum   'Li2 Mn2 P2 O8'
_cell_volume   179.75839096
_cell_formula_units_Z   2
loop_
 _symmetry_equiv_pos_site_id
 _symmetry_equiv_pos_as_xyz
  1  'x, y, z'
loop_
 _atom_site_type_symbol
 _atom_site_label
 _atom_site_symmetry_multiplicity
 _atom_site_fract_x
 _atom_site_fract_y
 _atom_site_fract_z
 _atom_site_occupancy
  Li  Li0  1  0.50000000  0.00000000  0.50000000  1
  Li  Li1  1  0.00000000  0.50000000  0.00000000  1
  Mn  Mn0  1  0.00000000  0.75000000  0.50000000  1
  Mn  Mn1  1  0.50000000  0.25000000  0.00000000  1
  P  P0  1  0.00000000  0.00000000  0.00000000  1
  P  P1  1  0.50000000  0.50000000  0.50000000  1
  O  O0  1  0.21990600  0.09589800  0.19049200  1
  O  O1  1  0.71990600  0.59589800  0.69049200  1
  O  O2  1  0.30950900  0.40410200  0.71990600  1
  O  O3  1  0.80950900  0.90410200  0.21990600  1
  O  O4  1  0.78009300  0.09589800  0.80950900  1
  O  O5  1  0.28009300  0.59589800  0.30950900  1
  O  O6  1  0.69049200  0.40410200  0.28009300  1
  O  O7  1  0.19049200  0.90410200  0.78009300  1
loop_
_geom_bond_atom_site_label_1
_geom_bond_atom_site_label_2
_geom_bond_distance
_geom_bond_site_symmetry_2
Li0 O7 2.035893 1_545
Li0 O0 2.035896 1_555
Li0 O4 2.035896 1_555
Li0 O3 2.035899 1_545
Li1 O6 2.035893 1_455
Li1 O1 2.035896 1_454
Li1 O5 2.035896 1_555
Li1 O2 2.035899 1_554
Mn0 O5 2.071809 1_555
Mn0 O7 2.071811 1_555
Mn0 O3 2.071812 1_455
Mn0 O1 2.071813 1_455
Mn1 O4 2.071809 1_554
Mn1 O6 2.071811 1_555
Mn1 O2 2.071812 1_554
Mn1 O0 2.071813 1_555
O0 P0 1.559262 1_555
O1 P1 1.559262 1_555
O2 P1 1.559260 1_555
O3 P0 1.559260 1_665
O4 P0 1.559263 1_656
O5 P1 1.559263 1_555
O6 P1 1.559265 1_555
O7 P0 1.559265 1_566
