# generated using pymatgen
data_Li3Mn4(BO3)4
_symmetry_space_group_name_H-M   'P 1'
_cell_length_a   5.28492500
_cell_length_b   9.13789242
_cell_length_c   11.61330050
_cell_angle_alpha   113.04390967
_cell_angle_beta   101.37420696
_cell_angle_gamma   90.04958420
_symmetry_Int_Tables_number   1
_chemical_formula_structural   Li3Mn4(BO3)4
_chemical_formula_sum   'Li6 Mn8 B8 O24'
_cell_volume   504.05594383
_cell_formula_units_Z   2
loop_
 _symmetry_equiv_pos_site_id
 _symmetry_equiv_pos_as_xyz
  1  'x, y, z'
loop_
 _atom_site_type_symbol
 _atom_site_label
 _atom_site_symmetry_multiplicity
 _atom_site_fract_x
 _atom_site_fract_y
 _atom_site_fract_z
 _atom_site_occupancy
  Li  Li0  1  0.08503400  0.90894400  0.83401800  1
  Li  Li1  1  0.30174800  0.18460200  0.32948500  1
  Li  Li2  1  0.57551800  0.40733300  0.83963500  1
  Li  Li3  1  0.39076400  0.55473400  0.09183200  1
  Li  Li4  1  0.66624500  0.80639200  0.64791100  1
  Li  Li5  1  0.82453600  0.67008100  0.32796500  1
  Mn  Mn0  1  0.09067500  0.59773700  0.86720500  1
  Mn  Mn1  1  0.16117400  0.98088900  0.61467700  1
  Mn  Mn2  1  0.34615600  0.54054000  0.38037900  1
  Mn  Mn3  1  0.59688500  0.09482900  0.87263500  1
  Mn  Mn4  1  0.38470300  0.90995300  0.11209300  1
  Mn  Mn5  1  0.65166400  0.46131500  0.61427400  1
  Mn  Mn6  1  0.82720400  0.00321000  0.36237800  1
  Mn  Mn7  1  0.91119900  0.37431900  0.12386400  1
  B  B0  1  0.11904800  0.27133000  0.88526900  1
  B  B1  1  0.15203500  0.64723600  0.62863000  1
  B  B2  1  0.35109700  0.86002300  0.36350600  1
  B  B3  1  0.59583500  0.76192800  0.86719700  1
  B  B4  1  0.38665000  0.25327200  0.12859000  1
  B  B5  1  0.66160400  0.12884600  0.62229300  1
  B  B6  1  0.82975200  0.33981700  0.36057900  1
  B  B7  1  0.90014400  0.72820000  0.13162500  1
  O  O0  1  0.02889900  0.78386900  0.63846300  1
  O  O1  1  0.05008700  0.53636000  0.66417600  1
  O  O2  1  0.18945500  0.11698100  0.82738400  1
  O  O3  1  0.26167600  0.40417900  0.89895600  1
  O  O4  1  0.10753100  0.86278900  0.39576600  1
  O  O5  1  0.36140300  0.79906200  0.90877800  1
  O  O6  1  0.12544200  0.71701500  0.08539300  1
  O  O7  1  0.38407100  0.62532900  0.58345100  1
  O  O8  1  0.26437800  0.13442200  0.14343400  1
  O  O9  1  0.29220200  0.40672600  0.16405500  1
  O  O10  1  0.56736800  0.01597700  0.66110000  1
  O  O11  1  0.43418100  0.98329500  0.33283500  1
  O  O12  1  0.58474100  0.27790300  0.66401700  1
  O  O13  1  0.68224500  0.61191200  0.84260800  1
  O  O14  1  0.50226100  0.74025400  0.36673800  1
  O  O15  1  0.73274100  0.87576100  0.84753000  1
  O  O16  1  0.59866700  0.37040300  0.40335000  1
  O  O17  1  0.88898700  0.28829800  0.93405300  1
  O  O18  1  0.60306800  0.23057900  0.07476900  1
  O  O19  1  0.84918900  0.08336500  0.54650700  1
  O  O20  1  0.78921100  0.87725500  0.17635900  1
  O  O21  1  0.77867600  0.59893100  0.13819900  1
  O  O22  1  0.92942300  0.45064600  0.31565800  1
  O  O23  1  0.96006900  0.21283200  0.35972500  1
loop_
_geom_bond_atom_site_label_1
_geom_bond_atom_site_label_2
_geom_bond_distance
_geom_bond_site_symmetry_2
Li0 O15 1.932494 1_455
Li0 O2 2.013448 1_565
Li0 O5 2.019937 1_555
Li0 O0 2.062408 1_555
Li1 O23 1.905418 1_455
Li1 O11 1.980587 1_545
Li1 O8 1.993399 1_555
Li1 O16 2.098833 1_555
Li2 O3 1.921627 1_555
Li2 O12 1.926570 1_555
Li2 O13 1.937534 1_555
Li2 O17 2.313083 1_555
Li3 O9 1.965508 1_555
Li3 O21 2.012165 1_555
Li3 O6 2.054225 1_555
Li3 O3 2.087712 1_554
Li4 O10 1.941143 1_565
Li4 O0 1.947742 1_655
Li4 O7 2.026701 1_555
Li4 O15 2.104132 1_555
Li5 O14 1.895565 1_555
Li5 O21 2.001388 1_555
Li5 O22 2.038928 1_555
Li5 O4 2.098382 1_655
Mn0 O3 2.112566 1_555
Mn0 O13 2.131629 1_455
Mn0 O1 2.164484 1_555
Mn0 O5 2.166171 1_555
Mn0 O6 2.301344 1_556
Mn1 O0 2.066294 1_555
Mn1 O19 2.071330 1_465
Mn1 O10 2.099712 1_565
Mn1 O2 2.262741 1_565
Mn1 O4 2.296846 1_555
Mn2 O14 2.076415 1_555
Mn2 O16 2.111160 1_555
Mn2 O7 2.141276 1_555
Mn2 O22 2.225053 1_455
Mn2 O9 2.280297 1_555
Mn3 O15 2.058139 1_545
Mn3 O17 2.142690 1_555
Mn3 O2 2.142727 1_555
Mn3 O18 2.177228 1_556
Mn3 O10 2.245303 1_555
Mn4 O8 2.062341 1_565
Mn4 O6 2.117102 1_555
Mn4 O5 2.151521 1_554
Mn4 O20 2.182390 1_555
Mn4 O11 2.340845 1_555
Mn5 O12 2.026157 1_555
Mn5 O1 2.108287 1_655
Mn5 O7 2.144375 1_555
Mn5 O16 2.214644 1_555
Mn5 O13 2.434179 1_555
Mn6 O19 1.948897 1_555
Mn6 O20 1.978349 1_545
Mn6 O11 2.033357 1_545
Mn6 O4 2.039094 1_645
Mn6 O23 2.053185 1_555
Mn7 O18 1.935446 1_555
Mn7 O9 1.969792 1_655
Mn7 O17 2.007988 1_554
Mn7 O22 2.038613 1_555
Mn7 O21 2.124121 1_555
B0 O3 1.366470 1_555
B0 O2 1.391744 1_555
B0 O17 1.423577 1_455
B1 O1 1.378925 1_555
B1 O0 1.383648 1_555
B1 O7 1.411075 1_555
B2 O14 1.363551 1_555
B2 O11 1.401250 1_555
B2 O4 1.407414 1_555
B3 O15 1.381141 1_555
B3 O13 1.383954 1_555
B3 O5 1.411300 1_555
B4 O8 1.347614 1_555
B4 O18 1.386637 1_555
B4 O9 1.419592 1_555
B5 O12 1.347936 1_555
B5 O10 1.402297 1_555
B5 O19 1.410203 1_555
B6 O23 1.347578 1_555
B6 O16 1.395532 1_555
B6 O22 1.447878 1_555
B7 O21 1.379091 1_555
B7 O6 1.387748 1_655
B7 O20 1.427004 1_555
