# generated using pymatgen
data_Sr3(CoO3)2
_symmetry_space_group_name_H-M   'P 1'
_cell_length_a   11.86447515
_cell_length_b   11.86447515
_cell_length_c   11.86447515
_cell_angle_alpha   161.12218427
_cell_angle_beta   122.36350944
_cell_angle_gamma   61.21660724
_symmetry_Int_Tables_number   1
_chemical_formula_structural   Sr3(CoO3)2
_chemical_formula_sum   'Sr9 Co6 O18'
_cell_volume   454.51769272
_cell_formula_units_Z   3
loop_
 _symmetry_equiv_pos_site_id
 _symmetry_equiv_pos_as_xyz
  1  'x, y, z'
loop_
 _atom_site_type_symbol
 _atom_site_label
 _atom_site_symmetry_multiplicity
 _atom_site_fract_x
 _atom_site_fract_y
 _atom_site_fract_z
 _atom_site_occupancy
  Sr  Sr0  1  0.31624500  0.50000000  0.81624500  1
  Sr  Sr1  1  0.00000000  0.50000000  0.50000000  1
  Sr  Sr2  1  0.68375500  0.50000000  0.18375500  1
  Sr  Sr3  1  0.15158500  0.31989300  0.83169200  1
  Sr  Sr4  1  0.81055700  0.31055700  0.50000000  1
  Sr  Sr5  1  0.48820100  0.31989300  0.16830800  1
  Sr  Sr6  1  0.84841500  0.68010700  0.16830800  1
  Sr  Sr7  1  0.18944300  0.68944300  0.50000000  1
  Sr  Sr8  1  0.51179900  0.68010700  0.83169200  1
  Co  Co0  1  0.59790000  0.09790000  0.50000000  1
  Co  Co1  1  0.26345400  0.09695200  0.16650200  1
  Co  Co2  1  0.93045000  0.09695200  0.83349800  1
  Co  Co3  1  0.06955000  0.90304800  0.16650200  1
  Co  Co4  1  0.40210000  0.90210000  0.50000000  1
  Co  Co5  1  0.73654600  0.90304800  0.83349800  1
  O  O0  1  0.74259500  0.08620500  0.65639000  1
  O  O1  1  0.85442600  0.00000000  0.85442600  1
  O  O2  1  0.14557400  0.00000000  0.14557400  1
  O  O3  1  0.03165700  0.19288100  0.83877600  1
  O  O4  1  0.41709800  0.41709800  0.00000000  1
  O  O5  1  0.75356000  0.40308500  0.35047500  1
  O  O6  1  0.35410400  0.19288100  0.16122400  1
  O  O7  1  0.42981500  0.08620500  0.34361000  1
  O  O8  1  0.69420600  0.19420600  0.50000000  1
  O  O9  1  0.05261000  0.40308500  0.64952500  1
  O  O10  1  0.64589600  0.80711900  0.83877600  1
  O  O11  1  0.57018500  0.91379500  0.65639000  1
  O  O12  1  0.30579400  0.80579400  0.50000000  1
  O  O13  1  0.24644000  0.59691500  0.64952500  1
  O  O14  1  0.58290200  0.58290200  0.00000000  1
  O  O15  1  0.94739000  0.59691500  0.35047500  1
  O  O16  1  0.25740500  0.91379500  0.34361000  1
  O  O17  1  0.96834300  0.80711900  0.16122400  1
loop_
_geom_bond_atom_site_label_1
_geom_bond_atom_site_label_2
_geom_bond_distance
_geom_bond_site_symmetry_2
Co0 O7 1.804684 1_555
Co0 O0 1.804684 1_555
Co0 O8 1.966834 1_555
Co0 O14 1.969687 1_545
Co0 O14 1.969687 1_556
Co1 O13 1.955391 1_544
Co1 O13 1.955391 1_555
Co1 O6 1.960054 1_555
Co1 O2 1.994444 1_555
Co1 O7 2.037640 1_555
Co2 O15 1.955391 1_556
Co2 O15 1.955391 1_545
Co2 O3 1.960064 1_655
Co2 O1 1.994444 1_555
Co2 O0 2.037640 1_555
Co3 O9 1.955391 1_554
Co3 O9 1.955391 1_565
Co3 O17 1.960064 1_455
Co3 O2 1.994444 1_565
Co3 O16 2.037640 1_555
Co4 O16 1.804684 1_555
Co4 O11 1.804684 1_555
Co4 O12 1.966834 1_555
Co4 O4 1.969687 1_555
Co4 O4 1.969687 1_566
Co5 O5 1.955391 1_566
Co5 O5 1.955391 1_555
Co5 O10 1.960054 1_555
Co5 O1 1.994444 1_565
Co5 O11 2.037640 1_555
O0 Sr2 2.642599 1_545
O0 Sr2 2.642599 1_556
O0 Sr6 2.735351 1_545
O0 Sr6 2.735351 1_556
O1 Sr1 2.560934 1_656
O1 Sr1 2.560934 1_645
O1 Sr2 2.756223 1_556
O1 Sr2 2.756223 1_545
O2 Sr1 2.560934 1_555
O2 Sr1 2.560934 1_544
O2 Sr0 2.756223 1_544
O2 Sr0 2.756223 1_555
O3 Sr3 2.595200 1_555
O3 Sr7 2.681694 1_556
O3 Sr7 2.681694 1_545
O3 Sr6 2.766905 1_445
O3 Sr6 2.766905 1_456
O4 Sr2 2.698919 1_555
O4 Sr0 2.698919 1_554
O4 Sr5 2.765342 1_555
O4 Sr3 2.765342 1_554
O5 Sr4 2.548717 1_555
O5 Sr1 2.615835 1_655
O5 Sr5 2.688537 1_555
O5 Sr2 2.748460 1_555
O6 Sr5 2.595210 1_555
O6 Sr7 2.681689 1_555
O6 Sr7 2.681692 1_544
O6 Sr8 2.766906 1_555
O6 Sr8 2.766909 1_544
O7 Sr0 2.642599 1_544
O7 Sr0 2.642599 1_555
O7 Sr8 2.735351 1_544
O7 Sr8 2.735351 1_555
O8 Sr4 2.376208 1_555
O8 Sr6 2.752249 1_556
O8 Sr6 2.752249 1_545
O8 Sr8 2.752249 1_555
O8 Sr8 2.752249 1_544
O9 Sr4 2.548717 1_455
O9 Sr1 2.615835 1_555
O9 Sr3 2.688537 1_555
O9 Sr0 2.748460 1_555
O10 Sr8 2.595210 1_555
O10 Sr4 2.681689 1_555
O10 Sr4 2.681692 1_566
O10 Sr5 2.766906 1_555
O10 Sr5 2.766909 1_566
O11 Sr2 2.642599 1_566
O11 Sr2 2.642599 1_555
O11 Sr5 2.735351 1_566
O11 Sr5 2.735351 1_555
O12 Sr7 2.376208 1_555
O12 Sr5 2.752249 1_566
O12 Sr5 2.752249 1_555
O12 Sr3 2.752249 1_565
O12 Sr3 2.752249 1_554
O13 Sr7 2.548717 1_555
O13 Sr1 2.615835 1_555
O13 Sr8 2.688537 1_555
O13 Sr0 2.748460 1_555
O14 Sr2 2.698919 1_555
O14 Sr0 2.698919 1_554
O14 Sr6 2.765342 1_555
O14 Sr8 2.765342 1_554
O15 Sr7 2.548717 1_655
O15 Sr1 2.615835 1_655
O15 Sr6 2.688537 1_555
O15 Sr2 2.748460 1_555
O16 Sr0 2.642599 1_554
O16 Sr0 2.642599 1_565
O16 Sr3 2.735351 1_554
O16 Sr3 2.735351 1_565
O17 Sr6 2.595200 1_555
O17 Sr4 2.681694 1_554
O17 Sr4 2.681694 1_565
O17 Sr3 2.766905 1_654
O17 Sr3 2.766905 1_665
