# generated using pymatgen
data_Li2MnVP2(HO5)2
_symmetry_space_group_name_H-M   'P 1'
_cell_length_a   5.43381800
_cell_length_b   7.39541530
_cell_length_c   14.44549292
_cell_angle_alpha   93.81879807
_cell_angle_beta   94.31329040
_cell_angle_gamma   105.85566488
_symmetry_Int_Tables_number   1
_chemical_formula_structural   Li2MnVP2(HO5)2
_chemical_formula_sum   'Li6 Mn3 V3 P6 H6 O30'
_cell_volume   554.52638716
_cell_formula_units_Z   3
loop_
 _symmetry_equiv_pos_site_id
 _symmetry_equiv_pos_as_xyz
  1  'x, y, z'
loop_
 _atom_site_type_symbol
 _atom_site_label
 _atom_site_symmetry_multiplicity
 _atom_site_fract_x
 _atom_site_fract_y
 _atom_site_fract_z
 _atom_site_occupancy
  Li  Li0  1  0.85648100  0.41701200  0.24816000  1
  Li  Li1  1  0.81781100  0.24837200  0.41586400  1
  Li  Li2  1  0.51886200  0.09466200  0.91573200  1
  Li  Li3  1  0.48113800  0.90533800  0.08426800  1
  Li  Li4  1  0.18218900  0.75162800  0.58413600  1
  Li  Li5  1  0.14351900  0.58298800  0.75184000  1
  Mn  Mn0  1  0.00000000  0.50000000  0.00000000  1
  Mn  Mn1  1  0.66312600  0.66708500  0.66723400  1
  Mn  Mn2  1  0.33687400  0.33291500  0.33276600  1
  V  V0  1  0.00000000  0.00000000  0.00000000  1
  V  V1  1  0.66437300  0.16835800  0.66769800  1
  V  V2  1  0.33562700  0.83164200  0.33230200  1
  P  P0  1  0.80601200  0.67127100  0.43826600  1
  P  P1  1  0.86485000  0.99513900  0.22639600  1
  P  P2  1  0.47555900  0.34008600  0.10783100  1
  P  P3  1  0.52444100  0.65991400  0.89216900  1
  P  P4  1  0.13515000  0.00486100  0.77360400  1
  P  P5  1  0.19398800  0.32872900  0.56173400  1
  H  H0  1  0.94471100  0.22000700  0.88154800  1
  H  H1  1  0.71818300  0.44267500  0.78657300  1
  H  H2  1  0.38681600  0.10483400  0.45046700  1
  H  H3  1  0.61318400  0.89516600  0.54953300  1
  H  H4  1  0.28181700  0.55732500  0.21342700  1
  H  H5  1  0.05528900  0.77999300  0.11845200  1
  O  O0  1  0.86700000  0.04390000  0.12370800  1
  O  O1  1  0.94478800  0.17732600  0.29367800  1
  O  O2  1  0.95152700  0.13080800  0.75621300  1
  O  O3  1  0.90853800  0.21521800  0.56961400  1
  O  O4  1  0.90131900  0.22128700  0.94715500  1
  O  O5  1  0.76767700  0.43477200  0.09876700  1
  O  O6  1  0.72837000  0.48951500  0.37015300  1
  O  O7  1  0.80356900  0.62311800  0.54041900  1
  O  O8  1  0.76743300  0.44099000  0.72116700  1
  O  O9  1  0.37446300  0.15852600  0.03660200  1
  O  O10  1  0.47556100  0.27771600  0.20783200  1
  O  O11  1  0.44093500  0.10621500  0.38654000  1
  O  O12  1  0.68680500  0.52113100  0.90430700  1
  O  O13  1  0.62007400  0.79555900  0.41995100  1
  O  O14  1  0.42167900  0.11599600  0.76693300  1
  O  O15  1  0.57832100  0.88400400  0.23306700  1
  O  O16  1  0.37992600  0.20444100  0.58004900  1
  O  O17  1  0.31319500  0.47886900  0.09569300  1
  O  O18  1  0.55906500  0.89378500  0.61346000  1
  O  O19  1  0.52443900  0.72228400  0.79216800  1
  O  O20  1  0.62553700  0.84147400  0.96339800  1
  O  O21  1  0.23256700  0.55901000  0.27883300  1
  O  O22  1  0.19643100  0.37688200  0.45958100  1
  O  O23  1  0.27163000  0.51048500  0.62984700  1
  O  O24  1  0.23232300  0.56522800  0.90123300  1
  O  O25  1  0.09868100  0.77871300  0.05284500  1
  O  O26  1  0.09146200  0.78478200  0.43038600  1
  O  O27  1  0.04847300  0.86919200  0.24378700  1
  O  O28  1  0.05521200  0.82267400  0.70632200  1
  O  O29  1  0.13300000  0.95610000  0.87629200  1
loop_
_geom_bond_atom_site_label_1
_geom_bond_atom_site_label_2
_geom_bond_distance
_geom_bond_site_symmetry_2
Li0 O21 2.025956 1_655
Li0 O6 2.034760 1_555
Li0 O10 2.063594 1_555
Li0 O1 2.092174 1_555
Li0 O5 2.196144 1_555
Li1 O11 2.027866 1_555
Li1 O1 2.031064 1_555
Li1 O22 2.047178 1_655
Li1 O6 2.105886 1_555
Li1 O3 2.282513 1_555
Li2 O4 2.034689 1_555
Li2 O9 2.045987 1_556
Li2 O29 2.083108 1_545
Li2 O14 2.200899 1_555
Li2 O20 2.240731 1_545
Li3 O25 2.034689 1_555
Li3 O20 2.045987 1_554
Li3 O0 2.083108 1_565
Li3 O15 2.200899 1_555
Li3 O9 2.240731 1_565
Li4 O18 2.027866 1_555
Li4 O28 2.031064 1_555
Li4 O7 2.047178 1_455
Li4 O23 2.105886 1_555
Li4 O26 2.282513 1_555
Li5 O8 2.025956 1_455
Li5 O23 2.034760 1_555
Li5 O19 2.063594 1_555
Li5 O28 2.092174 1_555
Li5 O24 2.196144 1_555
Mn0 O24 1.972759 1_554
Mn0 O5 1.972759 1_455
Mn0 O25 2.060025 1_555
Mn0 O4 2.060025 1_454
Mn0 O17 2.156797 1_555
Mn0 O12 2.156797 1_454
Mn1 O19 2.065469 1_555
Mn1 O7 2.076180 1_555
Mn1 O8 2.085422 1_555
Mn1 O18 2.087904 1_555
Mn1 O23 2.134488 1_555
Mn1 O28 2.138898 1_655
Mn2 O10 2.065469 1_555
Mn2 O22 2.076180 1_555
Mn2 O21 2.085422 1_555
Mn2 O11 2.087904 1_555
Mn2 O6 2.134488 1_555
Mn2 O1 2.138898 1_455
H0 O4 0.993733 1_555
H1 O8 1.001374 1_555
H2 O11 0.989858 1_555
H3 O18 0.989858 1_555
H4 O21 1.001374 1_555
H5 O25 0.993733 1_555
O0 P1 1.549885 1_545
O0 V0 2.016517 1_655
O1 P1 1.546262 1_545
O2 P4 1.558050 1_655
O2 V1 2.032406 1_555
O3 P5 1.565665 1_655
O3 V1 1.996199 1_555
O4 V0 2.032920 1_656
O5 P2 1.569449 1_555
O6 P0 1.550609 1_555
O7 P0 1.541070 1_555
O8 V1 2.021357 1_555
O9 P2 1.578373 1_555
O9 V0 2.060671 1_555
O10 P2 1.545404 1_555
O11 V2 2.037225 1_545
O12 P3 1.535588 1_555
O13 P0 1.560548 1_555
O13 V2 2.009800 1_555
O14 P4 1.562932 1_555
O14 V1 2.005802 1_555
O15 P1 1.562932 1_555
O15 V2 2.005802 1_555
O16 P5 1.560548 1_555
O16 V1 2.009800 1_555
O17 P2 1.535588 1_555
O18 V1 2.037225 1_565
O19 P3 1.545404 1_555
O20 P3 1.578373 1_555
O20 V0 2.060671 1_666
O21 V2 2.021357 1_555
O22 P5 1.541070 1_555
O23 P5 1.550609 1_555
O24 P3 1.569449 1_555
O25 V0 2.032920 1_565
O26 P0 1.565665 1_455
O26 V2 1.996199 1_555
O27 P1 1.558050 1_455
O27 V2 2.032406 1_555
O28 P4 1.546262 1_565
O29 P4 1.549885 1_565
O29 V0 2.016517 1_566
