# generated using pymatgen
data_Gd2Mo5O18
_symmetry_space_group_name_H-M   'P 1'
_cell_length_a   9.50188800
_cell_length_b   9.59257300
_cell_length_c   19.53924400
_cell_angle_alpha   90.00000000
_cell_angle_beta   90.00000000
_cell_angle_gamma   90.00000000
_symmetry_Int_Tables_number   1
_chemical_formula_structural   Gd2Mo5O18
_chemical_formula_sum   'Gd8 Mo20 O72'
_cell_volume   1780.95430304
_cell_formula_units_Z   4
loop_
 _symmetry_equiv_pos_site_id
 _symmetry_equiv_pos_as_xyz
  1  'x, y, z'
loop_
 _atom_site_type_symbol
 _atom_site_label
 _atom_site_symmetry_multiplicity
 _atom_site_fract_x
 _atom_site_fract_y
 _atom_site_fract_z
 _atom_site_occupancy
  Gd  Gd0  1  0.02687500  0.23186500  0.61488900  1
  Gd  Gd1  1  0.97312500  0.76813500  0.38511100  1
  Gd  Gd2  1  0.52687500  0.76813500  0.61488900  1
  Gd  Gd3  1  0.47312500  0.73186500  0.11488900  1
  Gd  Gd4  1  0.52687500  0.26813500  0.88511100  1
  Gd  Gd5  1  0.97312500  0.26813500  0.11488900  1
  Gd  Gd6  1  0.02687500  0.73186500  0.88511100  1
  Gd  Gd7  1  0.47312500  0.23186500  0.38511100  1
  Mo  Mo0  1  0.82352800  0.13229400  0.30112500  1
  Mo  Mo1  1  0.25000000  0.96451800  0.50000000  1
  Mo  Mo2  1  0.67647200  0.63229400  0.80112500  1
  Mo  Mo3  1  0.32352800  0.86770600  0.30112500  1
  Mo  Mo4  1  0.17647200  0.86770600  0.69887500  1
  Mo  Mo5  1  0.25000000  0.46451800  0.00000000  1
  Mo  Mo6  1  0.32352800  0.36770600  0.19887500  1
  Mo  Mo7  1  0.43796800  0.35810700  0.58976600  1
  Mo  Mo8  1  0.75000000  0.03548200  0.50000000  1
  Mo  Mo9  1  0.06203200  0.85810700  0.08976600  1
  Mo  Mo10  1  0.06203200  0.35810700  0.41023400  1
  Mo  Mo11  1  0.75000000  0.53548200  0.00000000  1
  Mo  Mo12  1  0.93796800  0.64189300  0.58976600  1
  Mo  Mo13  1  0.93796800  0.14189300  0.91023400  1
  Mo  Mo14  1  0.56203200  0.14189300  0.08976600  1
  Mo  Mo15  1  0.82352800  0.63229400  0.19887500  1
  Mo  Mo16  1  0.67647200  0.13229400  0.69887500  1
  Mo  Mo17  1  0.56203200  0.64189300  0.41023400  1
  Mo  Mo18  1  0.17647200  0.36770600  0.80112500  1
  Mo  Mo19  1  0.43796800  0.85810700  0.91023400  1
  O  O0  1  0.35791900  0.32439600  0.79521100  1
  O  O1  1  0.43420000  0.74671400  0.35679000  1
  O  O2  1  0.11282400  0.07121400  0.53296900  1
  O  O3  1  0.14779800  0.54420200  0.82414300  1
  O  O4  1  0.51311700  0.65846700  0.49652000  1
  O  O5  1  0.06580000  0.24671400  0.85679000  1
  O  O6  1  0.68460600  0.64177200  0.06978200  1
  O  O7  1  0.18460600  0.35822800  0.06978200  1
  O  O8  1  0.76441200  0.70428000  0.59868000  1
  O  O9  1  0.38717600  0.57121400  0.03296900  1
  O  O10  1  0.85791900  0.17560400  0.70478900  1
  O  O11  1  0.55915300  0.96515300  0.11621100  1
  O  O12  1  0.61282400  0.92878600  0.53296900  1
  O  O13  1  0.01311700  0.34153300  0.49652000  1
  O  O14  1  0.89376500  0.65410600  0.28123400  1
  O  O15  1  0.23558800  0.79572000  0.09868000  1
  O  O16  1  0.14779800  0.04420200  0.67585700  1
  O  O17  1  0.05915300  0.53484700  0.38378900  1
  O  O18  1  0.48688300  0.84153300  0.99652000  1
  O  O19  1  0.05915300  0.03484700  0.11621100  1
  O  O20  1  0.26441200  0.79572000  0.90132000  1
  O  O21  1  0.73558800  0.20428000  0.09868000  1
  O  O22  1  0.76441200  0.20428000  0.90132000  1
  O  O23  1  0.60623500  0.65410600  0.71876600  1
  O  O24  1  0.81539400  0.64177200  0.93021800  1
  O  O25  1  0.14208100  0.82439600  0.29521100  1
  O  O26  1  0.64779800  0.95579800  0.67585700  1
  O  O27  1  0.43420000  0.24671400  0.14321000  1
  O  O28  1  0.35791900  0.82439600  0.70478900  1
  O  O29  1  0.55915300  0.46515300  0.38378900  1
  O  O30  1  0.01311700  0.84153300  0.00348000  1
  O  O31  1  0.60623500  0.15410600  0.78123400  1
  O  O32  1  0.61282400  0.42878600  0.96703100  1
  O  O33  1  0.98688300  0.15846700  0.99652000  1
  O  O34  1  0.44084700  0.53484700  0.61621100  1
  O  O35  1  0.51311700  0.15846700  0.00348000  1
  O  O36  1  0.48688300  0.34153300  0.50348000  1
  O  O37  1  0.94084700  0.96515300  0.88378900  1
  O  O38  1  0.31539400  0.35822800  0.93021800  1
  O  O39  1  0.39376500  0.84589400  0.21876600  1
  O  O40  1  0.98688300  0.65846700  0.50348000  1
  O  O41  1  0.64779800  0.45579800  0.82414300  1
  O  O42  1  0.64208100  0.17560400  0.29521100  1
  O  O43  1  0.26441200  0.29572000  0.59868000  1
  O  O44  1  0.68460600  0.14177200  0.43021800  1
  O  O45  1  0.14208100  0.32439600  0.20478900  1
  O  O46  1  0.23558800  0.29572000  0.40132000  1
  O  O47  1  0.10623500  0.34589400  0.71876600  1
  O  O48  1  0.85220200  0.45579800  0.17585700  1
  O  O49  1  0.31539400  0.85822800  0.56978200  1
  O  O50  1  0.85220200  0.95579800  0.32414300  1
  O  O51  1  0.35220200  0.54420200  0.17585700  1
  O  O52  1  0.35220200  0.04420200  0.32414300  1
  O  O53  1  0.64208100  0.67560400  0.20478900  1
  O  O54  1  0.94084700  0.46515300  0.61621100  1
  O  O55  1  0.38717600  0.07121400  0.46703100  1
  O  O56  1  0.93420000  0.25328600  0.35679000  1
  O  O57  1  0.56580000  0.75328600  0.85679000  1
  O  O58  1  0.18460600  0.85822800  0.43021800  1
  O  O59  1  0.44084700  0.03484700  0.88378900  1
  O  O60  1  0.81539400  0.14177200  0.56978200  1
  O  O61  1  0.88717600  0.42878600  0.03296900  1
  O  O62  1  0.73558800  0.70428000  0.40132000  1
  O  O63  1  0.56580000  0.25328600  0.64321000  1
  O  O64  1  0.06580000  0.74671400  0.64321000  1
  O  O65  1  0.39376500  0.34589400  0.28123400  1
  O  O66  1  0.85791900  0.67560400  0.79521100  1
  O  O67  1  0.11282400  0.57121400  0.96703100  1
  O  O68  1  0.88717600  0.92878600  0.46703100  1
  O  O69  1  0.93420000  0.75328600  0.14321000  1
  O  O70  1  0.89376500  0.15410600  0.21876600  1
  O  O71  1  0.10623500  0.84589400  0.78123400  1
loop_
_geom_bond_atom_site_label_1
_geom_bond_atom_site_label_2
_geom_bond_distance
_geom_bond_site_symmetry_2
Gd0 O60 2.358312 1_455
Gd0 O43 2.360038 1_555
Gd0 O2 2.367259 1_555
Gd0 O54 2.382593 1_455
Gd0 O47 2.425836 1_555
Gd0 O10 2.440111 1_455
Gd0 O16 2.445390 1_555
Gd0 O13 2.544214 1_555
Gd1 O58 2.358312 1_655
Gd1 O62 2.360038 1_555
Gd1 O68 2.367259 1_555
Gd1 O17 2.382593 1_655
Gd1 O14 2.425836 1_555
Gd1 O25 2.440111 1_655
Gd1 O50 2.445390 1_555
Gd1 O40 2.544214 1_555
Gd2 O49 2.358312 1_555
Gd2 O8 2.360038 1_555
Gd2 O12 2.367259 1_555
Gd2 O34 2.382593 1_555
Gd2 O23 2.425836 1_555
Gd2 O28 2.440111 1_555
Gd2 O26 2.445390 1_555
Gd2 O4 2.544214 1_555
Gd3 O6 2.358312 1_555
Gd3 O15 2.360038 1_555
Gd3 O9 2.367259 1_555
Gd3 O11 2.382593 1_555
Gd3 O39 2.425836 1_555
Gd3 O53 2.440111 1_555
Gd3 O51 2.445390 1_555
Gd3 O18 2.544214 1_554
Gd4 O38 2.358312 1_555
Gd4 O22 2.360038 1_555
Gd4 O32 2.367259 1_555
Gd4 O59 2.382593 1_555
Gd4 O31 2.425836 1_555
Gd4 O0 2.440111 1_555
Gd4 O41 2.445390 1_555
Gd4 O35 2.544214 1_556
Gd5 O7 2.358312 1_655
Gd5 O21 2.360038 1_555
Gd5 O61 2.367259 1_555
Gd5 O19 2.382593 1_655
Gd5 O70 2.425836 1_555
Gd5 O45 2.440111 1_655
Gd5 O48 2.445390 1_555
Gd5 O33 2.544214 1_554
Gd6 O24 2.358312 1_455
Gd6 O20 2.360038 1_555
Gd6 O67 2.367259 1_555
Gd6 O37 2.382593 1_455
Gd6 O71 2.425836 1_555
Gd6 O66 2.440111 1_455
Gd6 O3 2.445390 1_555
Gd6 O30 2.544214 1_556
Gd7 O44 2.358312 1_555
Gd7 O46 2.360038 1_555
Gd7 O55 2.367259 1_555
Gd7 O29 2.382593 1_555
Gd7 O65 2.425836 1_555
Gd7 O42 2.440111 1_555
Gd7 O52 2.445390 1_555
Gd7 O36 2.544214 1_555
Mo0 O70 1.754654 1_555
Mo0 O50 1.772832 1_545
Mo0 O42 1.777200 1_555
Mo0 O56 1.906799 1_555
Mo1 O55 1.778045 1_565
Mo1 O2 1.778045 1_565
Mo1 O49 1.812393 1_555
Mo1 O58 1.812393 1_555
Mo2 O23 1.754654 1_555
Mo2 O41 1.772832 1_555
Mo2 O66 1.777200 1_555
Mo2 O57 1.906799 1_555
Mo3 O39 1.754654 1_555
Mo3 O52 1.772832 1_565
Mo3 O25 1.777200 1_555
Mo3 O1 1.906799 1_555
Mo4 O71 1.754654 1_555
Mo4 O16 1.772832 1_565
Mo4 O28 1.777200 1_555
Mo4 O64 1.906799 1_555
Mo5 O9 1.778045 1_555
Mo5 O67 1.778045 1_554
Mo5 O7 1.812393 1_555
Mo5 O38 1.812393 1_554
Mo6 O65 1.754654 1_555
Mo6 O51 1.772832 1_555
Mo6 O45 1.777200 1_555
Mo6 O27 1.906799 1_555
Mo7 O36 1.756068 1_555
Mo7 O43 1.762964 1_555
Mo7 O34 1.772596 1_555
Mo7 O63 1.891261 1_555
Mo8 O68 1.778045 1_545
Mo8 O12 1.778045 1_545
Mo8 O60 1.812393 1_555
Mo8 O44 1.812393 1_555
Mo9 O30 1.756068 1_555
Mo9 O15 1.762964 1_555
Mo9 O19 1.772596 1_565
Mo9 O69 1.891261 1_455
Mo10 O13 1.756068 1_555
Mo10 O46 1.762964 1_555
Mo10 O17 1.772596 1_555
Mo10 O56 1.891261 1_455
Mo11 O61 1.778045 1_555
Mo11 O32 1.778045 1_554
Mo11 O24 1.812393 1_554
Mo11 O6 1.812393 1_555
Mo12 O40 1.756068 1_555
Mo12 O8 1.762964 1_555
Mo12 O54 1.772596 1_555
Mo12 O64 1.891261 1_655
Mo13 O33 1.756068 1_555
Mo13 O22 1.762964 1_555
Mo13 O37 1.772596 1_545
Mo13 O5 1.891261 1_655
Mo14 O35 1.756068 1_555
Mo14 O21 1.762964 1_555
Mo14 O11 1.772596 1_545
Mo14 O27 1.891261 1_555
Mo15 O14 1.754654 1_555
Mo15 O48 1.772832 1_555
Mo15 O53 1.777200 1_555
Mo15 O69 1.906799 1_555
Mo16 O31 1.754654 1_555
Mo16 O26 1.772832 1_545
Mo16 O10 1.777200 1_555
Mo16 O63 1.906799 1_555
Mo17 O4 1.756068 1_555
Mo17 O62 1.762964 1_555
Mo17 O29 1.772596 1_555
Mo17 O1 1.891261 1_555
Mo18 O47 1.754654 1_555
Mo18 O3 1.772832 1_555
Mo18 O0 1.777200 1_555
Mo18 O5 1.906799 1_555
Mo19 O18 1.756068 1_555
Mo19 O20 1.762964 1_555
Mo19 O59 1.772596 1_565
Mo19 O57 1.891261 1_555
