# generated using pymatgen
data_Ga2CuO4
_symmetry_space_group_name_H-M   'P 1'
_cell_length_a   5.95704653
_cell_length_b   5.95704653
_cell_length_c   5.95704653
_cell_angle_alpha   60.00000000
_cell_angle_beta   60.00000000
_cell_angle_gamma   60.00000000
_symmetry_Int_Tables_number   1
_chemical_formula_structural   Ga2CuO4
_chemical_formula_sum   'Ga4 Cu2 O8'
_cell_volume   149.47824151
_cell_formula_units_Z   2
loop_
 _symmetry_equiv_pos_site_id
 _symmetry_equiv_pos_as_xyz
  1  'x, y, z'
loop_
 _atom_site_type_symbol
 _atom_site_label
 _atom_site_symmetry_multiplicity
 _atom_site_fract_x
 _atom_site_fract_y
 _atom_site_fract_z
 _atom_site_occupancy
  Ga  Ga0  1  0.62500000  0.62500000  0.62500000  1
  Ga  Ga1  1  0.12500000  0.62500000  0.62500000  1
  Ga  Ga2  1  0.62500000  0.62500000  0.12500000  1
  Ga  Ga3  1  0.62500000  0.12500000  0.62500000  1
  Cu  Cu0  1  0.25000000  0.25000000  0.25000000  1
  Cu  Cu1  1  0.00000000  0.00000000  0.00000000  1
  O  O0  1  0.38633500  0.84099400  0.38633500  1
  O  O1  1  0.38633500  0.38633500  0.84099400  1
  O  O2  1  0.86366500  0.86366500  0.40900600  1
  O  O3  1  0.86366500  0.40900600  0.86366500  1
  O  O4  1  0.40900600  0.86366500  0.86366500  1
  O  O5  1  0.86366500  0.86366500  0.86366500  1
  O  O6  1  0.84099400  0.38633500  0.38633500  1
  O  O7  1  0.38633500  0.38633500  0.38633500  1
loop_
_geom_bond_atom_site_label_1
_geom_bond_atom_site_label_2
_geom_bond_distance
_geom_bond_site_symmetry_2
Ga0 O3 2.015172 1_555
Ga0 O2 2.015172 1_555
Ga0 O4 2.015172 1_555
Ga0 O0 2.015172 1_555
Ga0 O6 2.015172 1_555
Ga0 O1 2.015172 1_555
Ga1 O1 2.015168 1_555
Ga1 O0 2.015168 1_555
Ga1 O2 2.015168 1_455
Ga1 O3 2.015168 1_455
Ga1 O5 2.015172 1_455
Ga1 O7 2.015172 1_555
Ga2 O0 2.015168 1_555
Ga2 O6 2.015168 1_555
Ga2 O3 2.015168 1_554
Ga2 O4 2.015168 1_554
Ga2 O5 2.015172 1_554
Ga2 O7 2.015172 1_555
Ga3 O1 2.015168 1_555
Ga3 O6 2.015168 1_555
Ga3 O4 2.015168 1_545
Ga3 O2 2.015168 1_545
Ga3 O5 2.015172 1_545
Ga3 O7 2.015172 1_555
Cu0 O7 1.989363 1_555
Cu0 O0 1.989368 1_545
Cu0 O1 1.989368 1_554
Cu0 O6 1.989368 1_455
Cu1 O5 1.989363 1_444
Cu1 O4 1.989368 1_544
Cu1 O2 1.989368 1_445
Cu1 O3 1.989368 1_454
