# generated using pymatgen
data_Te(S2O7)2
_symmetry_space_group_name_H-M   'P 1'
_cell_length_a   6.83444585
_cell_length_b   6.83457817
_cell_length_c   12.02354469
_cell_angle_alpha   80.22742539
_cell_angle_beta   80.43135356
_cell_angle_gamma   77.47752078
_symmetry_Int_Tables_number   1
_chemical_formula_structural   Te(S2O7)2
_chemical_formula_sum   'Te2 S8 O28'
_cell_volume   535.39832560
_cell_formula_units_Z   2
loop_
 _symmetry_equiv_pos_site_id
 _symmetry_equiv_pos_as_xyz
  1  'x, y, z'
loop_
 _atom_site_type_symbol
 _atom_site_label
 _atom_site_symmetry_multiplicity
 _atom_site_fract_x
 _atom_site_fract_y
 _atom_site_fract_z
 _atom_site_occupancy
  Te  Te0  1  0.06471281  0.94575303  0.75067353  1
  Te  Te1  1  0.93976851  0.05484936  0.25018967  1
  S  S0  1  0.46811861  0.92192631  0.85608566  1
  S  S1  1  0.92828287  0.45587520  0.35284802  1
  S  S2  1  0.19831174  0.68841722  0.99885918  1
  S  S3  1  0.30992194  0.80500032  0.50605074  1
  S  S4  1  0.69899708  0.18701525  0.50248463  1
  S  S5  1  0.80156075  0.30632907  0.00393381  1
  S  S6  1  0.21839861  0.49129104  0.68367553  1
  S  S7  1  0.53177076  0.07469624  0.15050819  1
  O  O0  1  0.67734993  0.88105140  0.81613703  1
  O  O1  1  0.88329845  0.66648265  0.31490502  1
  O  O2  1  0.35806202  0.91852923  0.75123290  1
  O  O3  1  0.42742586  0.71913959  0.93344162  1
  O  O4  1  0.62154117  0.90067216  0.09869182  1
  O  O5  1  0.82477323  0.23781067  0.89686406  1
  O  O6  1  0.51138126  0.76879078  0.52827430  1
  O  O7  1  0.90824078  0.34914771  0.25035954  1
  O  O8  1  0.16576255  0.95098862  0.57867700  1
  O  O9  1  0.73234372  0.41552286  0.43778596  1
  O  O10  1  0.06181191  0.84192699  0.92486466  1
  O  O11  1  0.26238443  0.84774247  0.39311506  1
  O  O12  1  0.79713420  0.50964556  0.01209162  1
  O  O13  1  0.77264232  0.15862377  0.60871193  1
  O  O14  1  0.41164605  0.46014229  0.71731843  1
  O  O15  1  0.20274560  0.48545097  0.98910130  1
  O  O16  1  0.93978658  0.15408516  0.07941314  1
  O  O17  1  0.06714266  0.65679603  0.74694355  1
  O  O18  1  0.21913247  0.59428301  0.55410562  1
  O  O19  1  0.84124430  0.04934835  0.42472198  1
  O  O20  1  0.17709693  0.75156101  0.10761153  1
  O  O21  1  0.49214658  0.19795575  0.49858057  1
  O  O22  1  0.37387235  0.09224776  0.91037549  1
  O  O23  1  0.64451721  0.08079909  0.25373840  1
  O  O24  1  0.57413874  0.27496512  0.07040233  1
  O  O25  1  0.11457722  0.32998798  0.69077749  1
  O  O26  1  0.10567770  0.36115944  0.40044420  1
  O  O27  1  0.32244812  0.12172851  0.19011348  1
loop_
_geom_bond_atom_site_label_1
_geom_bond_atom_site_label_2
_geom_bond_distance
_geom_bond_site_symmetry_2
O0 S0 1.413353 1_555
O1 S1 1.416460 1_555
O2 S0 1.577481 1_555
O2 Te0 1.973955 1_555
O3 S0 1.583304 1_555
O3 S2 1.670850 1_555
O4 S7 1.409692 1_565
O5 S5 1.416439 1_556
O6 S3 1.407302 1_555
O7 S1 1.572873 1_555
O7 Te1 1.976231 1_555
O8 S3 1.520603 1_555
O8 Te0 2.065349 1_555
O9 S1 1.588136 1_555
O9 S4 1.667073 1_555
O10 S2 1.515656 1_555
O10 Te0 2.092413 1_555
O11 S3 1.416193 1_555
O12 S5 1.403043 1_555
O13 S4 1.417582 1_555
O14 S6 1.407037 1_555
O15 S2 1.405281 1_555
O16 S5 1.528707 1_555
O16 Te1 2.050216 1_555
O17 S6 1.565384 1_555
O17 Te0 1.979422 1_555
O18 S6 1.596619 1_555
O18 S3 1.666963 1_555
O19 S4 1.518024 1_555
O19 Te1 2.091156 1_555
O20 S2 1.420725 1_554
O21 S4 1.407621 1_555
O22 S0 1.410345 1_545
O23 S7 1.576560 1_555
O23 Te1 1.980874 1_555
O24 S7 1.586384 1_555
O24 S5 1.665491 1_555
O25 S6 1.418893 1_555
O26 S1 1.407487 1_455
O27 S7 1.415196 1_555
