# generated using pymatgen
data_Sr4HfO6
_symmetry_space_group_name_H-M   'P 1'
_cell_length_a   7.07349256
_cell_length_b   7.07349256
_cell_length_c   7.07349280
_cell_angle_alpha   90.19920326
_cell_angle_beta   90.19920326
_cell_angle_gamma   90.19920651
_symmetry_Int_Tables_number   1
_chemical_formula_structural   Sr4HfO6
_chemical_formula_sum   'Sr8 Hf2 O12'
_cell_volume   353.91080779
_cell_formula_units_Z   2
loop_
 _symmetry_equiv_pos_site_id
 _symmetry_equiv_pos_as_xyz
  1  'x, y, z'
loop_
 _atom_site_type_symbol
 _atom_site_label
 _atom_site_symmetry_multiplicity
 _atom_site_fract_x
 _atom_site_fract_y
 _atom_site_fract_z
 _atom_site_occupancy
  Sr  Sr0  1  0.75000000  0.10651700  0.39348300  1
  Sr  Sr1  1  0.60651700  0.25000000  0.89348300  1
  Sr  Sr2  1  0.89348300  0.60651700  0.25000000  1
  Sr  Sr3  1  0.75000000  0.75000000  0.75000000  1
  Sr  Sr4  1  0.25000000  0.25000000  0.25000000  1
  Sr  Sr5  1  0.10651700  0.39348300  0.75000000  1
  Sr  Sr6  1  0.39348300  0.75000000  0.10651700  1
  Sr  Sr7  1  0.25000000  0.89348300  0.60651700  1
  Hf  Hf0  1  0.50000000  0.50000000  0.50000000  1
  Hf  Hf1  1  0.00000000  0.00000000  0.00000000  1
  O  O0  1  0.92537200  0.05471700  0.71536500  1
  O  O1  1  0.94528300  0.28463500  0.07462800  1
  O  O2  1  0.78463500  0.44528300  0.57462800  1
  O  O3  1  0.42537200  0.21536500  0.55471700  1
  O  O4  1  0.28463500  0.07462800  0.94528300  1
  O  O5  1  0.55471700  0.42537200  0.21536500  1
  O  O6  1  0.44528300  0.57462800  0.78463500  1
  O  O7  1  0.57462800  0.78463500  0.44528300  1
  O  O8  1  0.71536500  0.92537200  0.05471700  1
  O  O9  1  0.21536500  0.55471700  0.42537200  1
  O  O10  1  0.05471700  0.71536500  0.92537200  1
  O  O11  1  0.07462800  0.94528300  0.28463500  1
loop_
_geom_bond_atom_site_label_1
_geom_bond_atom_site_label_2
_geom_bond_distance
_geom_bond_site_symmetry_2
Hf0 O7 2.116965 1_555
Hf0 O3 2.116965 1_555
Hf0 O9 2.116965 1_555
Hf0 O2 2.116965 1_555
Hf0 O5 2.116965 1_555
Hf0 O6 2.116965 1_555
Hf1 O8 2.116965 1_445
Hf1 O4 2.116965 1_554
Hf1 O1 2.116965 1_455
Hf1 O10 2.116965 1_544
Hf1 O0 2.116965 1_454
Hf1 O11 2.116965 1_545
O0 Sr3 2.496366 1_545
O0 Sr0 2.616554 1_555
O0 Sr7 2.681547 1_645
O0 Sr5 2.723282 1_655
O0 Sr1 2.934570 1_555
O1 Sr4 2.496366 1_655
O1 Sr2 2.616554 1_555
O1 Sr5 2.681547 1_654
O1 Sr1 2.723282 1_554
O1 Sr0 2.934570 1_555
O2 Sr3 2.496366 1_555
O2 Sr5 2.616554 1_655
O2 Sr2 2.681547 1_555
O2 Sr0 2.723282 1_555
O2 Sr1 2.934570 1_555
O3 Sr4 2.496366 1_555
O3 Sr7 2.616553 1_545
O3 Sr0 2.681547 1_555
O3 Sr1 2.723282 1_555
O3 Sr5 2.934570 1_555
O4 Sr4 2.496366 1_556
O4 Sr1 2.616553 1_555
O4 Sr6 2.681547 1_546
O4 Sr7 2.723282 1_545
O4 Sr5 2.934570 1_555
O5 Sr4 2.496366 1_555
O5 Sr1 2.616554 1_554
O5 Sr6 2.681547 1_555
O5 Sr2 2.723282 1_555
O5 Sr0 2.934570 1_555
O6 Sr3 2.496366 1_555
O6 Sr6 2.616554 1_556
O6 Sr1 2.681547 1_555
O6 Sr5 2.723282 1_555
O6 Sr7 2.934570 1_555
O7 Sr3 2.496366 1_555
O7 Sr0 2.616553 1_565
O7 Sr7 2.681547 1_555
O7 Sr6 2.723282 1_555
O7 Sr2 2.934570 1_555
O8 Sr3 2.496366 1_554
O8 Sr6 2.616553 1_555
O8 Sr1 2.681547 1_564
O8 Sr0 2.723282 1_565
O8 Sr2 2.934570 1_555
O9 Sr4 2.496366 1_555
O9 Sr2 2.616554 1_455
O9 Sr5 2.681547 1_555
O9 Sr7 2.723282 1_555
O9 Sr6 2.934570 1_555
O10 Sr3 2.496366 1_455
O10 Sr5 2.616554 1_555
O10 Sr2 2.681547 1_456
O10 Sr6 2.723282 1_556
O10 Sr7 2.934570 1_555
O11 Sr4 2.496366 1_565
O11 Sr7 2.616554 1_555
O11 Sr0 2.681547 1_465
O11 Sr2 2.723282 1_455
O11 Sr6 2.934570 1_555
