# generated using pymatgen
data_Tl3SnSe4
_symmetry_space_group_name_H-M   'P 1'
_cell_length_a   8.42498000
_cell_length_b   8.36892600
_cell_length_c   15.29312747
_cell_angle_alpha   80.76924279
_cell_angle_beta   90.00000000
_cell_angle_gamma   90.00000000
_symmetry_Int_Tables_number   1
_chemical_formula_structural   Tl3SnSe4
_chemical_formula_sum   'Tl12 Sn4 Se16'
_cell_volume   1064.32483951
_cell_formula_units_Z   4
loop_
 _symmetry_equiv_pos_site_id
 _symmetry_equiv_pos_as_xyz
  1  'x, y, z'
loop_
 _atom_site_type_symbol
 _atom_site_label
 _atom_site_symmetry_multiplicity
 _atom_site_fract_x
 _atom_site_fract_y
 _atom_site_fract_z
 _atom_site_occupancy
  Tl  Tl0  1  0.02547700  0.49231200  0.61666400  1
  Tl  Tl1  1  0.52547700  0.50768800  0.88333600  1
  Tl  Tl2  1  0.97452300  0.50768800  0.38333600  1
  Tl  Tl3  1  0.47452300  0.49231200  0.11666400  1
  Tl  Tl4  1  0.39190100  0.26637200  0.63668000  1
  Tl  Tl5  1  0.89190100  0.73362800  0.86332000  1
  Tl  Tl6  1  0.60809900  0.73362800  0.36332000  1
  Tl  Tl7  1  0.10809900  0.26637200  0.13668000  1
  Tl  Tl8  1  0.82651800  0.09796000  0.61368000  1
  Tl  Tl9  1  0.32651800  0.90204000  0.88632000  1
  Tl  Tl10  1  0.17348200  0.90204000  0.38632000  1
  Tl  Tl11  1  0.67348200  0.09796000  0.11368000  1
  Sn  Sn0  1  0.59791600  0.70211500  0.62408900  1
  Sn  Sn1  1  0.09791600  0.29788500  0.87591100  1
  Sn  Sn2  1  0.40208400  0.29788500  0.37591100  1
  Sn  Sn3  1  0.90208400  0.70211500  0.12408900  1
  Se  Se0  1  0.64187700  0.33522200  0.47432000  1
  Se  Se1  1  0.14187700  0.66477800  0.02568000  1
  Se  Se2  1  0.35812300  0.66477800  0.52568000  1
  Se  Se3  1  0.85812300  0.33522200  0.97432000  1
  Se  Se4  1  0.57009800  0.91808700  0.72752500  1
  Se  Se5  1  0.07009800  0.08191300  0.77247500  1
  Se  Se6  1  0.42990200  0.08191300  0.27247500  1
  Se  Se7  1  0.92990200  0.91808700  0.22752500  1
  Se  Se8  1  0.65915400  0.80483900  0.02473500  1
  Se  Se9  1  0.15915400  0.19516100  0.47526500  1
  Se  Se10  1  0.34084600  0.19516100  0.97526500  1
  Se  Se11  1  0.84084600  0.80483900  0.52473500  1
  Se  Se12  1  0.19449900  0.56330200  0.78198300  1
  Se  Se13  1  0.69449900  0.43669800  0.71801700  1
  Se  Se14  1  0.80550100  0.43669800  0.21801700  1
  Se  Se15  1  0.30550100  0.56330200  0.28198300  1
loop_
_geom_bond_atom_site_label_1
_geom_bond_atom_site_label_2
_geom_bond_distance
_geom_bond_site_symmetry_2
Se0 Sn2 2.568052 1_555
Se0 Tl8 3.089846 1_555
Se0 Tl4 3.236305 1_555
Se0 Tl2 3.351006 1_555
Se1 Sn3 2.568052 1_455
Se1 Tl9 3.089846 1_554
Se1 Tl5 3.236305 1_454
Se1 Tl3 3.351006 1_555
Se2 Sn0 2.568052 1_555
Se2 Tl10 3.089846 1_555
Se2 Tl6 3.236305 1_555
Se2 Tl0 3.351006 1_555
Se3 Sn1 2.568052 1_655
Se3 Tl11 3.089846 1_556
Se3 Tl7 3.236305 1_656
Se3 Tl1 3.351006 1_555
Se4 Sn0 2.596415 1_555
Se4 Tl8 3.020514 1_565
Se4 Tl9 3.165790 1_555
Se4 Tl4 3.373545 1_565
Se5 Sn1 2.596415 1_555
Se5 Tl9 3.020514 1_545
Se5 Tl8 3.165790 1_455
Se5 Tl5 3.373545 1_445
Se6 Sn2 2.596415 1_555
Se6 Tl10 3.020514 1_545
Se6 Tl11 3.165790 1_555
Se6 Tl6 3.373545 1_545
Se7 Sn3 2.596415 1_555
Se7 Tl11 3.020514 1_565
Se7 Tl10 3.165790 1_655
Se7 Tl7 3.373545 1_665
Se8 Sn3 2.611048 1_555
Se8 Tl11 2.992175 1_565
Se8 Tl3 3.171332 1_555
Se8 Tl5 3.281146 1_554
Se9 Sn2 2.611048 1_555
Se9 Tl10 2.992175 1_545
Se9 Tl2 3.171332 1_455
Se9 Tl4 3.281146 1_555
Se10 Sn1 2.611048 1_555
Se10 Tl9 2.992175 1_545
Se10 Tl1 3.171332 1_555
Se10 Tl7 3.281146 1_556
Se11 Sn0 2.611048 1_555
Se11 Tl8 2.992175 1_565
Se11 Tl0 3.171332 1_655
Se11 Tl6 3.281146 1_555
Se12 Sn1 2.576012 1_555
Se12 Tl0 3.042150 1_555
Se12 Tl1 3.187998 1_555
Se12 Tl5 3.263032 1_455
Se13 Sn0 2.576012 1_555
Se13 Tl1 3.042150 1_555
Se13 Tl0 3.187998 1_655
Se13 Tl4 3.263032 1_555
Se14 Sn3 2.576012 1_555
Se14 Tl2 3.042150 1_555
Se14 Tl3 3.187998 1_555
Se14 Tl7 3.263032 1_655
Se15 Sn2 2.576012 1_555
Se15 Tl3 3.042150 1_555
Se15 Tl2 3.187998 1_455
Se15 Tl6 3.263032 1_555
