# generated using pymatgen
data_Li6V3P8O29
_symmetry_space_group_name_H-M   'P 1'
_cell_length_a   9.81361500
_cell_length_b   9.82278637
_cell_length_c   13.98139659
_cell_angle_alpha   90.25908549
_cell_angle_beta   90.39672656
_cell_angle_gamma   119.86341980
_symmetry_Int_Tables_number   1
_chemical_formula_structural   Li6V3P8O29
_chemical_formula_sum   'Li12 V6 P16 O58'
_cell_volume   1168.72467525
_cell_formula_units_Z   2
loop_
 _symmetry_equiv_pos_site_id
 _symmetry_equiv_pos_as_xyz
  1  'x, y, z'
loop_
 _atom_site_type_symbol
 _atom_site_label
 _atom_site_symmetry_multiplicity
 _atom_site_fract_x
 _atom_site_fract_y
 _atom_site_fract_z
 _atom_site_occupancy
  Li  Li0  1  0.67583200  0.90501200  0.56227400  1
  Li  Li1  1  0.23176100  0.32398200  0.56461300  1
  Li  Li2  1  0.34215200  0.66418800  0.88549400  1
  Li  Li3  1  0.09238000  0.32826700  0.05993100  1
  Li  Li4  1  0.22741500  0.90762500  0.05934900  1
  Li  Li5  1  0.90836100  0.22710000  0.44082600  1
  Li  Li6  1  0.09216300  0.76896000  0.56167700  1
  Li  Li7  1  0.90251200  0.67168000  0.93831500  1
  Li  Li8  1  0.65934200  0.32932400  0.11180800  1
  Li  Li9  1  0.77059100  0.67831500  0.43694800  1
  Li  Li10  1  0.31844000  0.09016900  0.44215400  1
  Li  Li11  1  0.95832500  0.01184400  0.99071100  1
  V  V0  1  0.00195400  0.43146100  0.25224600  1
  V  V1  1  0.99954900  0.56799400  0.74812000  1
  V  V2  1  0.57145900  0.00247400  0.75338500  1
  V  V3  1  0.43587300  0.99898500  0.24668800  1
  V  V4  1  0.56603000  0.57022300  0.24512600  1
  V  V5  1  0.43820900  0.43158800  0.75481700  1
  P  P0  1  0.69225000  0.77929900  0.83966500  1
  P  P1  1  0.68227600  0.91403900  0.34222000  1
  P  P2  1  0.23756600  0.32037600  0.34480200  1
  P  P3  1  0.33038800  0.66451600  0.12596800  1
  P  P4  1  0.33488200  0.66539300  0.62920700  1
  P  P5  1  0.09316000  0.31811700  0.84461600  1
  P  P6  1  0.91284600  0.23094500  0.66082400  1
  P  P7  1  0.22703900  0.90912000  0.84380900  1
  P  P8  1  0.77841100  0.08671600  0.15781500  1
  P  P9  1  0.08863900  0.76949700  0.34120700  1
  P  P10  1  0.90723500  0.67914700  0.15794200  1
  P  P11  1  0.66714000  0.33420300  0.37021200  1
  P  P12  1  0.67284800  0.33811600  0.87290600  1
  P  P13  1  0.76460800  0.67887800  0.65444300  1
  P  P14  1  0.31641400  0.08424600  0.66027700  1
  P  P15  1  0.30803400  0.22262100  0.15825700  1
  O  O0  1  0.75487300  0.75534600  0.56326400  1
  O  O1  1  0.66839900  0.75037000  0.33847200  1
  O  O2  1  0.79380100  0.00379100  0.07417000  1
  O  O3  1  0.66202100  0.91995900  0.83758900  1
  O  O4  1  0.52882200  0.62848500  0.83463400  1
  O  O5  1  0.47912500  0.67104900  0.16876000  1
  O  O6  1  0.38501900  0.47850900  0.32272800  1
  O  O7  1  0.20368900  0.21764700  0.07858700  1
  O  O8  1  0.25876100  0.34192300  0.83898700  1
  O  O9  1  0.48777600  0.81443800  0.66786900  1
  O  O10  1  0.52168500  0.90026800  0.32255100  1
  O  O11  1  0.33362300  0.51661600  0.67368800  1
  O  O12  1  0.32553000  0.66581200  0.01843900  1
  O  O13  1  0.32886500  0.65784300  0.52243200  1
  O  O14  1  0.18351200  0.51371900  0.16381000  1
  O  O15  1  0.37348600  0.89069000  0.83093800  1
  O  O16  1  0.32750600  0.81620100  0.16528900  1
  O  O17  1  0.08764900  0.33576600  0.34279200  1
  O  O18  1  0.00018500  0.20995100  0.75165600  1
  O  O19  1  0.00231700  0.24565400  0.57075700  1
  O  O20  1  0.00973200  0.23238200  0.93316200  1
  O  O21  1  0.10501800  0.48057300  0.83042400  1
  O  O22  1  0.18669000  0.67223600  0.66835900  1
  O  O23  1  0.92031900  0.25984700  0.16304900  1
  O  O24  1  0.09893700  0.61958300  0.32013200  1
  O  O25  1  0.25200600  0.91628000  0.34145300  1
  O  O26  1  0.79790200  0.01127900  0.25614400  1
  O  O27  1  0.75575600  0.99999000  0.43461200  1
  O  O28  1  0.23995600  0.99441300  0.56936300  1
  O  O29  1  0.74792900  0.08416000  0.65915600  1
  O  O30  1  0.90131600  0.38070100  0.67937000  1
  O  O31  1  0.07927300  0.74093800  0.83736100  1
  O  O32  1  0.81569300  0.32681100  0.33338700  1
  O  O33  1  0.89092600  0.51574100  0.17119000  1
  O  O34  1  0.99589100  0.76339900  0.06953500  1
  O  O35  1  0.99865100  0.75255600  0.43113100  1
  O  O36  1  0.99687200  0.78785100  0.25015800  1
  O  O37  1  0.91649000  0.66641300  0.65743200  1
  O  O38  1  0.67272800  0.19302000  0.83055100  1
  O  O39  1  0.62688000  0.10043400  0.16609200  1
  O  O40  1  0.81761500  0.49186500  0.83589200  1
  O  O41  1  0.66944900  0.34403700  0.97995700  1
  O  O42  1  0.66140800  0.33032600  0.47687000  1
  O  O43  1  0.67138500  0.48401500  0.32833400  1
  O  O44  1  0.47444900  0.09078700  0.68030500  1
  O  O45  1  0.51644900  0.18336500  0.32528900  1
  O  O46  1  0.74068500  0.65822700  0.16042500  1
  O  O47  1  0.78499300  0.79606300  0.74159400  1
  O  O48  1  0.79842200  0.79313300  0.92123200  1
  O  O49  1  0.61975600  0.52034600  0.67274300  1
  O  O50  1  0.52367700  0.33899800  0.82842200  1
  O  O51  1  0.47285300  0.37123800  0.16801600  1
  O  O52  1  0.33264500  0.07898200  0.15587300  1
  O  O53  1  0.21940900  0.98680300  0.93371400  1
  O  O54  1  0.20761800  0.99579000  0.75107200  1
  O  O55  1  0.33447800  0.24831400  0.65994300  1
  O  O56  1  0.25019100  0.24829000  0.43708800  1
  O  O57  1  0.21721200  0.20322300  0.25900900  1
loop_
_geom_bond_atom_site_label_1
_geom_bond_atom_site_label_2
_geom_bond_distance
_geom_bond_site_symmetry_2
Li0 O0 1.974550 1_555
Li0 O27 1.994279 1_555
Li0 O29 2.038946 1_565
Li0 O9 2.188966 1_555
Li1 O56 1.972541 1_555
Li1 O19 1.986804 1_555
Li1 O55 2.020282 1_555
Li1 O11 2.230355 1_555
Li2 O12 1.867716 1_556
Li2 O4 2.154093 1_555
Li2 O15 2.227945 1_555
Li2 O21 2.245917 1_555
Li3 O7 1.903311 1_555
Li3 O20 1.972461 1_554
Li3 O23 2.072146 1_455
Li3 O14 2.136188 1_555
Li4 O53 1.941093 1_554
Li4 O52 1.987458 1_565
Li4 O34 1.997609 1_455
Li4 O16 2.198990 1_555
Li5 O27 1.973927 1_545
Li5 O19 1.997484 1_655
Li5 O17 2.071251 1_655
Li5 O32 2.219052 1_555
Li6 O28 1.953583 1_555
Li6 O35 2.006593 1_455
Li6 O37 2.023339 1_455
Li6 O22 2.204396 1_555
Li7 O48 1.933026 1_555
Li7 O34 2.038854 1_556
Li7 O31 2.081228 1_655
Li7 O40 2.087983 1_555
Li8 O41 1.849254 1_554
Li8 O51 2.214461 1_555
Li8 O33 2.241239 1_555
Li8 O39 2.244555 1_555
Li9 O0 1.955317 1_555
Li9 O35 1.981199 1_555
Li9 O1 2.024586 1_555
Li9 O43 2.235935 1_555
Li10 O56 1.975429 1_555
Li10 O28 1.988429 1_545
Li10 O25 2.044850 1_545
Li10 O45 2.360025 1_555
Li11 O2 1.968359 1_556
Li11 O20 2.127860 1_655
Li11 O48 2.150401 1_545
Li11 O7 2.546213 1_656
O0 P13 1.508939 1_555
O1 P1 1.545008 1_555
O1 V4 2.008591 1_555
O2 P8 1.473202 1_555
O3 P0 1.551225 1_555
O3 V2 1.882641 1_565
O4 P0 1.550214 1_555
O4 V5 2.007670 1_555
O5 P3 1.544966 1_555
O5 V4 1.919986 1_555
O6 P2 1.540797 1_555
O6 V4 1.893705 1_555
O7 P15 1.491852 1_555
O8 P5 1.524943 1_555
O8 V5 1.937860 1_555
O9 P4 1.575090 1_555
O9 V2 1.992827 1_565
O10 P1 1.535901 1_555
O10 V3 1.893309 1_555
O11 P4 1.585234 1_555
O11 V5 1.970729 1_555
O12 P3 1.504144 1_555
O13 P4 1.493668 1_555
O14 P3 1.563021 1_555
O14 V0 1.990512 1_555
O15 P7 1.546938 1_555
O15 V2 2.017780 1_565
O16 P3 1.599319 1_555
O16 V3 1.926929 1_555
O17 P2 1.552131 1_555
O17 V0 1.994178 1_555
O18 P6 1.597898 1_455
O18 P5 1.629817 1_555
O19 P6 1.506048 1_455
O20 P5 1.499666 1_555
O21 P5 1.554879 1_555
O21 V1 2.002605 1_455
O22 P4 1.589715 1_555
O22 V1 1.957259 1_455
O23 P8 1.573472 1_555
O23 V0 1.913370 1_655
O24 P9 1.552482 1_555
O24 V0 1.855138 1_555
O25 P9 1.532007 1_555
O25 V3 2.062606 1_555
O26 P1 1.611887 1_545
O26 P8 1.619384 1_555
O27 P1 1.507450 1_555
O28 P14 1.508189 1_565
O29 P6 1.540799 1_555
O29 V2 2.008976 1_555
O30 P6 1.551341 1_555
O30 V1 1.855499 1_555
O31 P7 1.565647 1_555
O31 V1 1.923150 1_455
O32 P11 1.584656 1_555
O32 V0 1.962888 1_655
O33 P10 1.543872 1_555
O33 V0 2.011606 1_655
O34 P10 1.508901 1_555
O35 P9 1.503064 1_655
O36 P9 1.616144 1_655
O36 P10 1.616388 1_555
O37 P13 1.555407 1_555
O37 V1 1.997051 1_555
O38 P12 1.540356 1_555
O38 V2 1.941484 1_555
O39 P8 1.563558 1_555
O39 V3 1.988880 1_545
O40 P12 1.564459 1_555
O40 V1 1.990462 1_555
O41 P12 1.498836 1_555
O42 P11 1.492621 1_555
O43 P11 1.567534 1_555
O43 V4 2.000906 1_555
O44 P14 1.543503 1_555
O44 V2 1.876125 1_555
O45 P11 1.604173 1_555
O45 V3 1.912300 1_545
O46 P10 1.543131 1_555
O46 V4 1.910315 1_555
O47 P13 1.613801 1_555
O47 P0 1.614204 1_555
O48 P0 1.498595 1_555
O49 P13 1.521610 1_555
O49 V5 1.934315 1_555
O50 P12 1.590594 1_555
O50 V5 1.829186 1_555
O51 P15 1.552289 1_555
O51 V4 2.001562 1_555
O52 P15 1.545715 1_555
O52 V3 2.009944 1_545
O53 P7 1.489109 1_555
O54 P7 1.615675 1_555
O54 P14 1.615943 1_565
O55 P14 1.531105 1_555
O55 V5 2.042399 1_555
O56 P2 1.508308 1_555
O57 P2 1.599459 1_555
O57 P15 1.632697 1_555
