# generated using pymatgen
data_K2Cu3(MoO4)4
_symmetry_space_group_name_H-M   'P 1'
_cell_length_a   14.94075300
_cell_length_b   5.21501300
_cell_length_c   20.34645061
_cell_angle_alpha   85.10638808
_cell_angle_beta   90.00000000
_cell_angle_gamma   90.00000000
_symmetry_Int_Tables_number   1
_chemical_formula_structural   K2Cu3(MoO4)4
_chemical_formula_sum   'K8 Cu12 Mo16 O64'
_cell_volume   1579.53976285
_cell_formula_units_Z   4
loop_
 _symmetry_equiv_pos_site_id
 _symmetry_equiv_pos_as_xyz
  1  'x, y, z'
loop_
 _atom_site_type_symbol
 _atom_site_label
 _atom_site_symmetry_multiplicity
 _atom_site_fract_x
 _atom_site_fract_y
 _atom_site_fract_z
 _atom_site_occupancy
  K  K0  1  0.87353100  0.74845800  0.71703300  1
  K  K1  1  0.52344400  0.69105800  0.40445100  1
  K  K2  1  0.37353100  0.25154200  0.78296700  1
  K  K3  1  0.47655600  0.30894200  0.59554900  1
  K  K4  1  0.62646900  0.74845800  0.21703300  1
  K  K5  1  0.12646900  0.25154200  0.28296700  1
  K  K6  1  0.02344400  0.30894200  0.09554900  1
  K  K7  1  0.97655600  0.69105800  0.90445100  1
  Cu  Cu0  1  0.17611100  0.31178200  0.56697800  1
  Cu  Cu1  1  0.32388900  0.31178200  0.06697800  1
  Cu  Cu2  1  0.56481200  0.20622400  0.89409000  1
  Cu  Cu3  1  0.67611100  0.68821800  0.93302200  1
  Cu  Cu4  1  0.43518800  0.79377600  0.10591000  1
  Cu  Cu5  1  0.82388900  0.68821800  0.43302200  1
  Cu  Cu6  1  0.93518800  0.20622400  0.39409000  1
  Cu  Cu7  1  0.29556600  0.75803100  0.32246900  1
  Cu  Cu8  1  0.79556600  0.24196900  0.17753100  1
  Cu  Cu9  1  0.70443400  0.24196900  0.67753100  1
  Cu  Cu10  1  0.06481200  0.79377600  0.60591000  1
  Cu  Cu11  1  0.20443400  0.75803100  0.82246900  1
  Mo  Mo0  1  0.32143700  0.19515500  0.43466500  1
  Mo  Mo1  1  0.58127600  0.30769700  0.07085100  1
  Mo  Mo2  1  0.91872400  0.30769700  0.57085100  1
  Mo  Mo3  1  0.60256700  0.71520300  0.77340500  1
  Mo  Mo4  1  0.77183400  0.21812800  0.83898500  1
  Mo  Mo5  1  0.08127600  0.69230300  0.42914900  1
  Mo  Mo6  1  0.39743300  0.28479700  0.22659500  1
  Mo  Mo7  1  0.67856300  0.80484500  0.56533500  1
  Mo  Mo8  1  0.27183400  0.78187200  0.66101500  1
  Mo  Mo9  1  0.72816600  0.21812800  0.33898500  1
  Mo  Mo10  1  0.10256700  0.28479700  0.72659500  1
  Mo  Mo11  1  0.41872400  0.69230300  0.92914900  1
  Mo  Mo12  1  0.82143700  0.80484500  0.06533500  1
  Mo  Mo13  1  0.17856300  0.19515500  0.93466500  1
  Mo  Mo14  1  0.89743300  0.71520300  0.27340500  1
  Mo  Mo15  1  0.22816600  0.78187200  0.16101500  1
  O  O0  1  0.84121500  0.13866500  0.62345000  1
  O  O1  1  0.36027800  0.99736000  0.66969500  1
  O  O2  1  0.63972200  0.00264000  0.33030500  1
  O  O3  1  0.92200700  0.68941800  0.03354100  1
  O  O4  1  0.31228400  0.55923800  0.60791900  1
  O  O5  1  0.18874100  0.07823200  0.76656600  1
  O  O6  1  0.13972200  0.99736000  0.16969500  1
  O  O7  1  0.24773700  0.61185900  0.24285100  1
  O  O8  1  0.12947000  0.60689800  0.51042900  1
  O  O9  1  0.27566400  0.42811900  0.37335500  1
  O  O10  1  0.86027800  0.00264000  0.83030500  1
  O  O11  1  0.45333600  0.39906300  0.89362500  1
  O  O12  1  0.98360300  0.89085600  0.43880600  1
  O  O13  1  0.35237900  0.89927000  0.39757600  1
  O  O14  1  0.87053000  0.39310200  0.48957100  1
  O  O15  1  0.01341400  0.08455300  0.70891900  1
  O  O16  1  0.82515300  0.01314700  0.37486300  1
  O  O17  1  0.64762100  0.10073000  0.60242400  1
  O  O18  1  0.74773700  0.38814100  0.25714900  1
  O  O19  1  0.85237900  0.10073000  0.10242400  1
  O  O20  1  0.74157200  0.85545900  0.99862900  1
  O  O21  1  0.75226300  0.38814100  0.75714900  1
  O  O22  1  0.67484700  0.01314700  0.87486300  1
  O  O23  1  0.68771600  0.44076200  0.39208100  1
  O  O24  1  0.37053000  0.60689800  0.01042900  1
  O  O25  1  0.54666400  0.60093700  0.10637500  1
  O  O26  1  0.98658600  0.91544700  0.29108100  1
  O  O27  1  0.13137400  0.48652800  0.64499900  1
  O  O28  1  0.62947000  0.39310200  0.98957100  1
  O  O29  1  0.63137400  0.51347200  0.85500100  1
  O  O30  1  0.48360300  0.10914400  0.06119400  1
  O  O31  1  0.72433600  0.57188100  0.62664500  1
  O  O32  1  0.34121500  0.86133500  0.87655000  1
  O  O33  1  0.65878500  0.13866500  0.12345000  1
  O  O34  1  0.25226300  0.61185900  0.74285100  1
  O  O35  1  0.86862600  0.51347200  0.35500100  1
  O  O36  1  0.14762100  0.89927000  0.89757600  1
  O  O37  1  0.51639700  0.89085600  0.93880600  1
  O  O38  1  0.04666400  0.39906300  0.39362500  1
  O  O39  1  0.48658600  0.08455300  0.20891900  1
  O  O40  1  0.77566400  0.57188100  0.12664500  1
  O  O41  1  0.68874100  0.92176800  0.73343400  1
  O  O42  1  0.05833400  0.49541000  0.78158500  1
  O  O43  1  0.95333600  0.60093700  0.60637500  1
  O  O44  1  0.31125900  0.07823200  0.26656600  1
  O  O45  1  0.81125900  0.92176800  0.23343400  1
  O  O46  1  0.18771600  0.55923800  0.10791900  1
  O  O47  1  0.57799300  0.68941800  0.53354100  1
  O  O48  1  0.15878500  0.86133500  0.37655000  1
  O  O49  1  0.44166600  0.49541000  0.28158500  1
  O  O50  1  0.17484700  0.98685300  0.62513700  1
  O  O51  1  0.22433600  0.42811900  0.87335500  1
  O  O52  1  0.55833400  0.50459000  0.71841500  1
  O  O53  1  0.25842800  0.14454100  0.00137100  1
  O  O54  1  0.24157200  0.14454100  0.50137100  1
  O  O55  1  0.81228400  0.44076200  0.89208100  1
  O  O56  1  0.32515300  0.98685300  0.12513700  1
  O  O57  1  0.42200700  0.31058200  0.46645900  1
  O  O58  1  0.75842800  0.85545900  0.49862900  1
  O  O59  1  0.07799300  0.31058200  0.96645900  1
  O  O60  1  0.94166600  0.50459000  0.21841500  1
  O  O61  1  0.51341400  0.91544700  0.79108100  1
  O  O62  1  0.36862600  0.48652800  0.14499900  1
  O  O63  1  0.01639700  0.10914400  0.56119400  1
loop_
_geom_bond_atom_site_label_1
_geom_bond_atom_site_label_2
_geom_bond_distance
_geom_bond_site_symmetry_2
K0 O21 2.686661 1_555
K0 O0 2.708974 1_565
K0 O43 2.716305 1_555
K0 O15 2.723583 1_665
K0 O10 2.762084 1_565
K0 O41 2.932963 1_555
K0 O31 3.080247 1_555
K0 O42 3.285490 1_655
K1 O57 2.720022 1_555
K1 O2 2.741556 1_565
K1 O47 2.749381 1_555
K1 O13 2.775787 1_555
K1 O23 2.801253 1_555
K1 O49 3.036196 1_555
K2 O34 2.686661 1_555
K2 O32 2.708974 1_545
K2 O11 2.716305 1_555
K2 O61 2.723583 1_545
K2 O1 2.762084 1_545
K2 O5 2.932963 1_555
K2 O51 3.080247 1_555
K2 O52 3.285490 1_555
K3 O47 2.720022 1_555
K3 O1 2.741556 1_545
K3 O57 2.749381 1_555
K3 O17 2.775787 1_555
K3 O4 2.801253 1_555
K3 O52 3.036196 1_555
K4 O18 2.686661 1_555
K4 O33 2.708974 1_565
K4 O25 2.716305 1_555
K4 O39 2.723583 1_565
K4 O2 2.762084 1_565
K4 O45 2.932963 1_555
K4 O40 3.080247 1_555
K4 O49 3.285490 1_555
K5 O7 2.686661 1_555
K5 O48 2.708974 1_545
K5 O38 2.716305 1_555
K5 O26 2.723583 1_445
K5 O6 2.762084 1_545
K5 O44 2.932963 1_555
K5 O9 3.080247 1_555
K5 O60 3.285490 1_455
K6 O3 2.720022 1_455
K6 O6 2.741556 1_545
K6 O59 2.749381 1_554
K6 O19 2.775787 1_455
K6 O46 2.801253 1_555
K6 O60 3.036196 1_455
K7 O59 2.720022 1_655
K7 O10 2.741556 1_565
K7 O3 2.749381 1_556
K7 O36 2.775787 1_655
K7 O55 2.801253 1_555
K7 O42 3.036196 1_655
Cu0 O54 1.922949 1_555
Cu0 O8 1.968738 1_555
Cu0 O50 1.982393 1_545
Cu0 O27 2.010983 1_555
Cu0 O4 2.584948 1_555
Cu0 O63 2.616483 1_555
Cu1 O53 1.922949 1_555
Cu1 O24 1.968738 1_555
Cu1 O56 1.982393 1_545
Cu1 O62 2.010983 1_555
Cu1 O46 2.584948 1_555
Cu1 O30 2.616483 1_555
Cu2 O11 1.945205 1_555
Cu2 O37 1.949508 1_545
Cu2 O22 1.984148 1_555
Cu2 O29 1.992861 1_555
Cu2 O28 2.445429 1_555
Cu3 O20 1.922949 1_555
Cu3 O28 1.968738 1_555
Cu3 O22 1.982393 1_565
Cu3 O29 2.010983 1_555
Cu3 O55 2.584948 1_555
Cu3 O37 2.616483 1_555
Cu4 O25 1.945205 1_555
Cu4 O30 1.949508 1_565
Cu4 O56 1.984148 1_555
Cu4 O62 1.992861 1_555
Cu4 O24 2.445429 1_555
Cu5 O58 1.922949 1_555
Cu5 O14 1.968738 1_555
Cu5 O16 1.982393 1_565
Cu5 O35 2.010983 1_555
Cu5 O23 2.584948 1_555
Cu5 O12 2.616483 1_555
Cu6 O38 1.945205 1_655
Cu6 O12 1.949508 1_545
Cu6 O16 1.984148 1_555
Cu6 O35 1.992861 1_555
Cu6 O14 2.445429 1_555
Cu7 O13 1.946882 1_555
Cu7 O44 1.952709 1_565
Cu7 O9 1.953601 1_555
Cu7 O7 1.981575 1_555
Cu7 O48 2.403851 1_555
Cu8 O19 1.946882 1_555
Cu8 O45 1.952709 1_545
Cu8 O40 1.953601 1_555
Cu8 O18 1.981575 1_555
Cu8 O33 2.403851 1_555
Cu9 O17 1.946882 1_555
Cu9 O41 1.952709 1_545
Cu9 O31 1.953601 1_555
Cu9 O21 1.981575 1_555
Cu9 O0 2.403851 1_555
Cu10 O43 1.945205 1_455
Cu10 O63 1.949508 1_565
Cu10 O50 1.984148 1_555
Cu10 O27 1.992861 1_555
Cu10 O8 2.445429 1_555
Cu11 O36 1.946882 1_555
Cu11 O5 1.952709 1_565
Cu11 O51 1.953601 1_555
Cu11 O34 1.981575 1_555
Cu11 O32 2.403851 1_555
Mo0 O57 1.762112 1_555
Mo0 O9 1.800346 1_555
Mo0 O54 1.809545 1_555
Mo0 O13 1.833803 1_545
Mo1 O33 1.761390 1_555
Mo1 O30 1.809715 1_555
Mo1 O25 1.821272 1_555
Mo1 O28 1.823761 1_554
Mo2 O0 1.761390 1_555
Mo2 O63 1.809715 1_655
Mo2 O43 1.821272 1_555
Mo2 O14 1.823761 1_555
Mo3 O61 1.748768 1_555
Mo3 O52 1.761993 1_555
Mo3 O41 1.824842 1_555
Mo3 O29 1.936557 1_555
Mo4 O10 1.753302 1_555
Mo4 O55 1.759071 1_555
Mo4 O21 1.841790 1_555
Mo4 O22 1.908464 1_555
Mo5 O48 1.761390 1_555
Mo5 O12 1.809715 1_455
Mo5 O38 1.821272 1_555
Mo5 O8 1.823761 1_555
Mo6 O39 1.748768 1_555
Mo6 O49 1.761993 1_555
Mo6 O44 1.824842 1_555
Mo6 O62 1.936557 1_555
Mo7 O47 1.762112 1_555
Mo7 O31 1.800346 1_555
Mo7 O58 1.809545 1_555
Mo7 O17 1.833803 1_565
Mo8 O1 1.753302 1_555
Mo8 O4 1.759071 1_555
Mo8 O34 1.841790 1_555
Mo8 O50 1.908464 1_555
Mo9 O2 1.753302 1_555
Mo9 O23 1.759071 1_555
Mo9 O18 1.841790 1_555
Mo9 O16 1.908464 1_555
Mo10 O15 1.748768 1_555
Mo10 O42 1.761993 1_555
Mo10 O5 1.824842 1_555
Mo10 O27 1.936557 1_555
Mo11 O32 1.761390 1_555
Mo11 O37 1.809715 1_555
Mo11 O11 1.821272 1_555
Mo11 O24 1.823761 1_556
Mo12 O3 1.762112 1_555
Mo12 O40 1.800346 1_555
Mo12 O20 1.809545 1_554
Mo12 O19 1.833803 1_565
Mo13 O59 1.762112 1_555
Mo13 O51 1.800346 1_555
Mo13 O53 1.809545 1_556
Mo13 O36 1.833803 1_545
Mo14 O26 1.748768 1_555
Mo14 O60 1.761993 1_555
Mo14 O45 1.824842 1_555
Mo14 O35 1.936557 1_555
Mo15 O6 1.753302 1_555
Mo15 O46 1.759071 1_555
Mo15 O7 1.841790 1_555
Mo15 O56 1.908464 1_555
