# generated using pymatgen
data_Li2VP3O10
_symmetry_space_group_name_H-M   'P 1'
_cell_length_a   7.99569000
_cell_length_b   9.95958600
_cell_length_c   12.14638320
_cell_angle_alpha   83.47295022
_cell_angle_beta   90.00000000
_cell_angle_gamma   90.00000000
_symmetry_Int_Tables_number   1
_chemical_formula_structural   Li2VP3O10
_chemical_formula_sum   'Li8 V4 P12 O40'
_cell_volume   960.99268876
_cell_formula_units_Z   4
loop_
 _symmetry_equiv_pos_site_id
 _symmetry_equiv_pos_as_xyz
  1  'x, y, z'
loop_
 _atom_site_type_symbol
 _atom_site_label
 _atom_site_symmetry_multiplicity
 _atom_site_fract_x
 _atom_site_fract_y
 _atom_site_fract_z
 _atom_site_occupancy
  Li  Li0  1  0.54858700  0.62170900  0.15025500  1
  Li  Li1  1  0.95141300  0.12170900  0.15025500  1
  Li  Li2  1  0.88935600  0.08844700  0.44393100  1
  Li  Li3  1  0.61064400  0.58844700  0.44393100  1
  Li  Li4  1  0.38935600  0.41155300  0.55606900  1
  Li  Li5  1  0.11064400  0.91155300  0.55606900  1
  Li  Li6  1  0.04858700  0.87829100  0.84974500  1
  Li  Li7  1  0.45141300  0.37829100  0.84974500  1
  V  V0  1  0.14546700  0.37048700  0.16945700  1
  V  V1  1  0.35453300  0.87048700  0.16945700  1
  V  V2  1  0.64546700  0.12951300  0.83054300  1
  V  V3  1  0.85453300  0.62951300  0.83054300  1
  P  P0  1  0.42621500  0.18907700  0.06125400  1
  P  P1  1  0.07378500  0.68907700  0.06125400  1
  P  P2  1  0.57649000  0.08312000  0.26944900  1
  P  P3  1  0.92351000  0.58312000  0.26944900  1
  P  P4  1  0.21541300  0.07192100  0.33182500  1
  P  P5  1  0.28458700  0.57192100  0.33182500  1
  P  P6  1  0.71541300  0.42807900  0.66817500  1
  P  P7  1  0.78458700  0.92807900  0.66817500  1
  P  P8  1  0.07649000  0.41688000  0.73055100  1
  P  P9  1  0.42351000  0.91688000  0.73055100  1
  P  P10  1  0.92621500  0.31092300  0.93874600  1
  P  P11  1  0.57378500  0.81092300  0.93874600  1
  O  O0  1  0.32614500  0.05954200  0.08209800  1
  O  O1  1  0.99918100  0.28657100  0.05585900  1
  O  O2  1  0.33876700  0.32095700  0.08113200  1
  O  O3  1  0.17385500  0.55954200  0.08209800  1
  O  O4  1  0.50081900  0.78657100  0.05585900  1
  O  O5  1  0.16123300  0.82095700  0.08113200  1
  O  O6  1  0.58108300  0.17800800  0.15071800  1
  O  O7  1  0.91891700  0.67800800  0.15071800  1
  O  O8  1  0.11965500  0.17391000  0.25041000  1
  O  O9  1  0.94057100  0.43703800  0.24512500  1
  O  O10  1  0.28064500  0.43042600  0.29233600  1
  O  O11  1  0.38034500  0.67391000  0.25041000  1
  O  O12  1  0.55942900  0.93703800  0.24512500  1
  O  O13  1  0.21935500  0.93042600  0.29233600  1
  O  O14  1  0.41089400  0.12619500  0.33338900  1
  O  O15  1  0.73044400  0.11983700  0.32854000  1
  O  O16  1  0.08910600  0.62619500  0.33338900  1
  O  O17  1  0.76955600  0.61983700  0.32854000  1
  O  O18  1  0.14344600  0.06690300  0.44754400  1
  O  O19  1  0.35655400  0.56690300  0.44754400  1
  O  O20  1  0.64344600  0.43309700  0.55245600  1
  O  O21  1  0.85655400  0.93309700  0.55245600  1
  O  O22  1  0.23044400  0.38016300  0.67146000  1
  O  O23  1  0.91089400  0.37380500  0.66661100  1
  O  O24  1  0.26955600  0.88016300  0.67146000  1
  O  O25  1  0.58910600  0.87380500  0.66661100  1
  O  O26  1  0.78064500  0.06957400  0.70766400  1
  O  O27  1  0.44057100  0.06296200  0.75487500  1
  O  O28  1  0.61965500  0.32609000  0.74959000  1
  O  O29  1  0.71935500  0.56957400  0.70766400  1
  O  O30  1  0.05942900  0.56296200  0.75487500  1
  O  O31  1  0.88034500  0.82609000  0.74959000  1
  O  O32  1  0.08108300  0.32199200  0.84928200  1
  O  O33  1  0.41891700  0.82199200  0.84928200  1
  O  O34  1  0.83876700  0.17904300  0.91886800  1
  O  O35  1  0.49918100  0.21342900  0.94414100  1
  O  O36  1  0.82614500  0.44045800  0.91790200  1
  O  O37  1  0.66123300  0.67904300  0.91886800  1
  O  O38  1  0.00081900  0.71342900  0.94414100  1
  O  O39  1  0.67385500  0.94045800  0.91790200  1
loop_
_geom_bond_atom_site_label_1
_geom_bond_atom_site_label_2
_geom_bond_distance
_geom_bond_site_symmetry_2
Li0 O11 1.924474 1_555
Li0 O4 1.930938 1_555
Li1 O8 1.924474 1_655
Li1 O1 1.930938 1_555
Li2 O15 1.891298 1_555
Li2 O21 1.933035 1_545
Li2 O18 2.042872 1_655
Li3 O17 1.891298 1_555
Li3 O20 1.933035 1_555
Li3 O19 2.042872 1_555
Li4 O22 1.891298 1_555
Li4 O19 1.933035 1_555
Li4 O20 2.042872 1_555
Li5 O24 1.891298 1_555
Li5 O18 1.933035 1_565
Li5 O21 2.042872 1_455
Li6 O31 1.924474 1_455
Li6 O38 1.930938 1_555
Li7 O28 1.924474 1_555
Li7 O35 1.930938 1_555
O0 P0 1.514742 1_555
O0 V1 2.066052 1_545
O1 P10 1.531099 1_554
O1 V0 2.057339 1_655
O2 P0 1.531172 1_555
O2 V0 1.975702 1_555
O3 P1 1.514742 1_555
O3 V0 2.066052 1_555
O4 P11 1.531099 1_554
O4 V1 2.057339 1_555
O5 P1 1.531172 1_555
O5 V1 1.975702 1_555
O6 P2 1.632303 1_555
O6 P0 1.642889 1_555
O7 P3 1.632303 1_555
O7 P1 1.642889 1_655
O8 P4 1.538688 1_555
O8 V0 2.098777 1_555
O9 P3 1.523287 1_555
O9 V0 2.026459 1_655
O10 P5 1.539695 1_555
O10 V0 1.988671 1_555
O11 P5 1.538688 1_555
O11 V1 2.098777 1_555
O12 P2 1.523287 1_565
O12 V1 2.026459 1_555
O13 P4 1.539695 1_565
O13 V1 1.988671 1_555
O14 P2 1.617432 1_555
O14 P4 1.654652 1_555
O15 P2 1.491252 1_555
O16 P3 1.617432 1_455
O16 P5 1.654652 1_555
O17 P3 1.491252 1_555
O18 P4 1.514352 1_555
O19 P5 1.514352 1_555
O20 P6 1.514352 1_555
O21 P7 1.514352 1_555
O22 P8 1.491252 1_555
O23 P8 1.617432 1_655
O23 P6 1.654652 1_555
O24 P9 1.491252 1_555
O25 P9 1.617432 1_555
O25 P7 1.654652 1_555
O26 P7 1.539695 1_545
O26 V2 1.988671 1_555
O27 P9 1.523287 1_545
O27 V2 2.026459 1_555
O28 P6 1.538688 1_555
O28 V2 2.098777 1_555
O29 P6 1.539695 1_555
O29 V3 1.988671 1_555
O30 P8 1.523287 1_555
O30 V3 2.026459 1_455
O31 P7 1.538688 1_555
O31 V3 2.098777 1_555
O32 P8 1.632303 1_555
O32 P10 1.642889 1_455
O33 P9 1.632303 1_555
O33 P11 1.642889 1_555
O34 P10 1.531172 1_555
O34 V2 1.975702 1_555
O35 P0 1.531099 1_556
O35 V2 2.057339 1_555
O36 P10 1.514742 1_555
O36 V3 2.066052 1_555
O37 P11 1.531172 1_555
O37 V3 1.975702 1_555
O38 P1 1.531099 1_556
O38 V3 2.057339 1_455
O39 P11 1.514742 1_555
O39 V2 2.066052 1_565
