# generated using pymatgen
data_VH8C10N3Cl4
_symmetry_space_group_name_H-M   'P 1'
_cell_length_a   16.26086300
_cell_length_b   8.19541500
_cell_length_c   12.85650432
_cell_angle_alpha   58.39579864
_cell_angle_beta   90.00000000
_cell_angle_gamma   90.00000000
_symmetry_Int_Tables_number   1
_chemical_formula_structural   VH8C10N3Cl4
_chemical_formula_sum   'V4 H32 C40 N12 Cl16'
_cell_volume   1459.21145138
_cell_formula_units_Z   4
loop_
 _symmetry_equiv_pos_site_id
 _symmetry_equiv_pos_as_xyz
  1  'x, y, z'
loop_
 _atom_site_type_symbol
 _atom_site_label
 _atom_site_symmetry_multiplicity
 _atom_site_fract_x
 _atom_site_fract_y
 _atom_site_fract_z
 _atom_site_occupancy
  V  V0  1  0.33272900  0.50110900  0.76044800  1
  V  V1  1  0.83272900  0.49889100  0.73955200  1
  V  V2  1  0.66727100  0.49889100  0.23955200  1
  V  V3  1  0.16727100  0.50110900  0.26044800  1
  H  H0  1  0.31631300  0.29611600  0.05488400  1
  H  H1  1  0.81631300  0.70388400  0.44511600  1
  H  H2  1  0.68368700  0.70388400  0.94511600  1
  H  H3  1  0.18368700  0.29611600  0.55488400  1
  H  H4  1  0.33519900  0.96931900  0.23973400  1
  H  H5  1  0.83519900  0.03068100  0.26026600  1
  H  H6  1  0.66480100  0.03068100  0.76026600  1
  H  H7  1  0.16480100  0.96931900  0.73973400  1
  H  H8  1  0.38885800  0.70467100  0.21150800  1
  H  H9  1  0.88885800  0.29532900  0.28849200  1
  H  H10  1  0.61114200  0.29532900  0.78849200  1
  H  H11  1  0.11114200  0.70467100  0.71150800  1
  H  H12  1  0.42152900  0.77972500  0.00314400  1
  H  H13  1  0.92152900  0.22027500  0.49685600  1
  H  H14  1  0.57847100  0.22027500  0.99685600  1
  H  H15  1  0.07847100  0.77972500  0.50314400  1
  H  H16  1  0.45880200  0.86900100  0.82789600  1
  H  H17  1  0.95880200  0.13099900  0.67210400  1
  H  H18  1  0.54119800  0.13099900  0.17210400  1
  H  H19  1  0.04119800  0.86900100  0.32789600  1
  H  H20  1  0.48592800  0.98664700  0.61117600  1
  H  H21  1  0.98592800  0.01335300  0.88882400  1
  H  H22  1  0.51407200  0.01335300  0.38882400  1
  H  H23  1  0.01407200  0.98664700  0.11117600  1
  H  H24  1  0.44074100  0.32275300  0.44943200  1
  H  H25  1  0.94074100  0.67724700  0.05056800  1
  H  H26  1  0.55925900  0.67724700  0.55056800  1
  H  H27  1  0.05925900  0.32275300  0.94943200  1
  H  H28  1  0.37631400  0.52575500  0.51938500  1
  H  H29  1  0.87631400  0.47424500  0.98061500  1
  H  H30  1  0.62368600  0.47424500  0.48061500  1
  H  H31  1  0.12368600  0.52575500  0.01938500  1
  C  C0  1  0.33992500  0.17845000  0.04696300  1
  C  C1  1  0.83992500  0.82155000  0.45303700  1
  C  C2  1  0.66007500  0.82155000  0.95303700  1
  C  C3  1  0.16007500  0.17845000  0.54696300  1
  C  C4  1  0.38611200  0.07856800  0.91743700  1
  C  C5  1  0.88611200  0.92143200  0.58256300  1
  C  C6  1  0.61388800  0.92143200  0.08256300  1
  C  C7  1  0.11388800  0.07856800  0.41743700  1
  C  C8  1  0.40272200  0.13464000  0.79036600  1
  C  C9  1  0.90272200  0.86536000  0.70963400  1
  C  C10  1  0.59727800  0.86536000  0.20963400  1
  C  C11  1  0.09727800  0.13464000  0.29036600  1
  C  C12  1  0.39467000  0.37876700  0.58474400  1
  C  C13  1  0.89467000  0.62123300  0.91525600  1
  C  C14  1  0.60533000  0.62123300  0.41525600  1
  C  C15  1  0.10533000  0.37876700  0.08474400  1
  C  C16  1  0.35098500  0.99589900  0.14953800  1
  C  C17  1  0.85098500  0.00410100  0.35046200  1
  C  C18  1  0.64901500  0.00410100  0.85046200  1
  C  C19  1  0.14901500  0.99589900  0.64953800  1
  C  C20  1  0.38081600  0.85061200  0.13410400  1
  C  C21  1  0.88081600  0.14938800  0.36589600  1
  C  C22  1  0.61918400  0.14938800  0.86589600  1
  C  C23  1  0.11918400  0.85061200  0.63410400  1
  C  C24  1  0.39907900  0.89237300  0.01669100  1
  C  C25  1  0.89907900  0.10762700  0.48330900  1
  C  C26  1  0.60092100  0.10762700  0.98330900  1
  C  C27  1  0.10092100  0.89237300  0.51669100  1
  C  C28  1  0.44057000  0.01384300  0.75820300  1
  C  C29  1  0.94057000  0.98615700  0.74179700  1
  C  C30  1  0.55943000  0.98615700  0.24179700  1
  C  C31  1  0.05943000  0.01384300  0.25820300  1
  C  C32  1  0.45548900  0.08015700  0.63591900  1
  C  C33  1  0.95548900  0.91984300  0.86408100  1
  C  C34  1  0.54451100  0.91984300  0.36408100  1
  C  C35  1  0.04451100  0.08015700  0.13591900  1
  C  C36  1  0.43136500  0.26527700  0.54676200  1
  C  C37  1  0.93136500  0.73472300  0.95323800  1
  C  C38  1  0.56863500  0.73472300  0.45323800  1
  C  C39  1  0.06863500  0.26527700  0.04676200  1
  N  N0  1  0.32299900  0.70031100  0.62309600  1
  N  N1  1  0.82299900  0.29968900  0.87690400  1
  N  N2  1  0.67700100  0.29968900  0.37690400  1
  N  N3  1  0.17700100  0.70031100  0.12309600  1
  N  N4  1  0.35664400  0.21889700  0.93332400  1
  N  N5  1  0.85664400  0.78110300  0.56667600  1
  N  N6  1  0.64335600  0.78110300  0.06667600  1
  N  N7  1  0.14335600  0.21889700  0.43332400  1
  N  N8  1  0.38132800  0.31627500  0.70307100  1
  N  N9  1  0.88132800  0.68372500  0.79692900  1
  N  N10  1  0.61867200  0.68372500  0.29692900  1
  N  N11  1  0.11867200  0.31627500  0.20307100  1
  Cl  Cl0  1  0.28679800  0.62382800  0.87192600  1
  Cl  Cl1  1  0.78679800  0.37617200  0.62807400  1
  Cl  Cl2  1  0.71320200  0.37617200  0.12807400  1
  Cl  Cl3  1  0.21320200  0.62382800  0.37192600  1
  Cl  Cl4  1  0.20892300  0.36003800  0.76293700  1
  Cl  Cl5  1  0.70892300  0.63996200  0.73706300  1
  Cl  Cl6  1  0.79107700  0.63996200  0.23706300  1
  Cl  Cl7  1  0.29107700  0.36003800  0.26293700  1
  Cl  Cl8  1  0.47124800  0.55183000  0.78035500  1
  Cl  Cl9  1  0.97124800  0.44817000  0.71964500  1
  Cl  Cl10  1  0.52875200  0.44817000  0.21964500  1
  Cl  Cl11  1  0.02875200  0.55183000  0.28035500  1
  Cl  Cl12  1  0.32119200  0.90147300  0.49447600  1
  Cl  Cl13  1  0.82119200  0.09852700  0.00552400  1
  Cl  Cl14  1  0.67880800  0.09852700  0.50552400  1
  Cl  Cl15  1  0.17880800  0.90147300  0.99447600  1
loop_
_geom_bond_atom_site_label_1
_geom_bond_atom_site_label_2
_geom_bond_distance
_geom_bond_site_symmetry_2
C0 H0 1.091161 1_555
C0 N4 1.345632 1_554
C0 C16 1.393507 1_545
C1 H1 1.091161 1_555
C1 N5 1.345632 1_555
C1 C17 1.393507 1_565
C2 H2 1.091161 1_555
C2 N6 1.345632 1_556
C3 H3 1.091161 1_555
C3 N7 1.345632 1_555
C4 N4 1.356521 1_555
C4 C8 1.471808 1_555
C5 N5 1.356521 1_555
C5 C9 1.471808 1_555
C6 N6 1.356521 1_555
C7 N7 1.356521 1_555
C8 N8 1.358478 1_555
C9 N9 1.358478 1_555
C10 N10 1.358478 1_555
C10 C30 1.399595 1_555
C10 C6 1.471808 1_555
C11 N11 1.358478 1_555
C11 C31 1.399595 1_555
C11 C7 1.471808 1_555
C12 H28 1.088754 1_555
C12 N8 1.344263 1_555
C13 H29 1.088754 1_555
C13 N9 1.344263 1_555
C14 H30 1.088754 1_555
C14 N10 1.344263 1_555
C15 H31 1.088754 1_555
C15 N11 1.344263 1_555
C16 H4 1.092372 1_555
C16 C20 1.392853 1_555
C17 H5 1.092372 1_555
C17 C21 1.392853 1_555
C18 H6 1.092372 1_555
C18 C22 1.392853 1_555
C18 C2 1.393507 1_545
C19 H7 1.092372 1_555
C19 C23 1.392853 1_555
C19 C3 1.393507 1_565
C20 H8 1.091080 1_555
C20 C24 1.393736 1_555
C21 H9 1.091080 1_555
C21 C25 1.393736 1_555
C22 H10 1.091080 1_555
C22 C26 1.393736 1_555
C23 H11 1.091080 1_555
C23 C27 1.393736 1_555
C24 H12 1.088309 1_555
C24 C4 1.400159 1_564
C25 H13 1.088309 1_555
C25 C5 1.400159 1_545
C26 H14 1.088309 1_555
C26 C6 1.400159 1_546
C27 H15 1.088309 1_555
C27 C7 1.400159 1_565
C28 H16 1.088593 1_545
C28 C8 1.399595 1_555
C29 H17 1.088593 1_565
C29 C9 1.399595 1_555
C30 H18 1.088593 1_565
C31 H19 1.088593 1_545
C32 H20 1.090408 1_545
C33 H21 1.090408 1_565
C34 H22 1.090408 1_565
C35 H23 1.090408 1_545
C36 H24 1.092319 1_555
C37 H25 1.092319 1_556
C38 H26 1.092319 1_555
C39 H27 1.092319 1_554
N0 V0 1.669433 1_555
N1 V1 1.669433 1_555
N2 V2 1.669433 1_555
N3 V3 1.669433 1_555
N4 V0 2.247803 1_555
N5 V1 2.247803 1_555
N6 V2 2.247803 1_555
N7 V3 2.247803 1_555
N8 V0 2.152769 1_555
N9 V1 2.152769 1_555
N10 V2 2.152769 1_555
N11 V3 2.152769 1_555
Cl0 V0 2.265877 1_555
Cl1 V1 2.265877 1_555
Cl2 V2 2.265877 1_555
Cl3 V3 2.265877 1_555
Cl4 V0 2.313405 1_555
Cl5 V1 2.313405 1_555
Cl6 V2 2.313405 1_555
Cl7 V3 2.313405 1_555
Cl8 V0 2.328793 1_555
Cl9 V1 2.328793 1_555
Cl10 V2 2.328793 1_555
Cl11 V3 2.328793 1_555
Cl12 N0 1.611183 1_555
Cl13 N1 1.611183 1_554
Cl14 N2 1.611183 1_555
Cl15 N3 1.611183 1_556
