# generated using pymatgen
data_Na5Mn2As(CO4)4
_symmetry_space_group_name_H-M   'P 1'
_cell_length_a   10.10890693
_cell_length_b   10.08031683
_cell_length_c   10.02362717
_cell_angle_alpha   60.37430282
_cell_angle_beta   60.09058484
_cell_angle_gamma   59.53511234
_symmetry_Int_Tables_number   1
_chemical_formula_structural   Na5Mn2As(CO4)4
_chemical_formula_sum   'Na10 Mn4 As2 C8 O32'
_cell_volume   722.17125404
_cell_formula_units_Z   2
loop_
 _symmetry_equiv_pos_site_id
 _symmetry_equiv_pos_as_xyz
  1  'x, y, z'
loop_
 _atom_site_type_symbol
 _atom_site_label
 _atom_site_symmetry_multiplicity
 _atom_site_fract_x
 _atom_site_fract_y
 _atom_site_fract_z
 _atom_site_occupancy
  Na  Na0  1  0.57877000  0.90887100  0.16648700  1
  Na  Na1  1  0.34112900  0.67123000  0.90412800  1
  Na  Na2  1  0.90572500  0.67203300  0.34067100  1
  Na  Na3  1  0.34067100  0.08157000  0.90572500  1
  Na  Na4  1  0.16648700  0.34587200  0.57877000  1
  Na  Na5  1  0.16843000  0.90932900  0.57796700  1
  Na  Na6  1  0.57796700  0.34427500  0.16843000  1
  Na  Na7  1  0.91244100  0.08755900  0.91244100  1
  Na  Na8  1  0.90412800  0.08351300  0.34112900  1
  Na  Na9  1  0.16244100  0.33755900  0.16244100  1
  Mn  Mn0  1  0.75012200  0.99630500  0.74887800  1
  Mn  Mn1  1  0.74530500  0.50112200  0.25369500  1
  Mn  Mn2  1  0.74887800  0.50469500  0.75012200  1
  Mn  Mn3  1  0.25369500  0.49987800  0.74530500  1
  As  As0  1  0.12506400  0.87493600  0.12506400  1
  As  As1  1  0.37506400  0.12493600  0.37506400  1
  C  C0  1  0.53499600  0.28036500  0.53712400  1
  C  C1  1  0.53712400  0.64751600  0.53499600  1
  C  C2  1  0.90114000  0.28417900  0.53156200  1
  C  C3  1  0.53156200  0.28311800  0.90114000  1
  C  C4  1  0.96963500  0.71500400  0.60248400  1
  C  C5  1  0.60248400  0.71287600  0.96963500  1
  C  C6  1  0.96582100  0.34886000  0.96688100  1
  C  C7  1  0.96688100  0.71843800  0.96582100  1
  O  O0  1  0.59465100  0.85348600  0.94936200  1
  O  O1  1  0.55938400  0.65538800  0.39244400  1
  O  O2  1  0.39244400  0.39278500  0.55938400  1
  O  O3  1  0.85394800  0.69621600  0.10563500  1
  O  O4  1  0.39651400  0.65534900  0.64750000  1
  O  O5  1  0.91517600  0.94625100  0.19309600  1
  O  O6  1  0.19309600  0.94547800  0.91517600  1
  O  O7  1  0.56014400  0.14761800  0.65783100  1
  O  O8  1  0.65783100  0.63440800  0.56014400  1
  O  O9  1  0.89806800  0.40113500  0.39262300  1
  O  O10  1  0.39262300  0.30817400  0.89806800  1
  O  O11  1  0.18727400  0.95669700  0.19042700  1
  O  O12  1  0.19042700  0.66560200  0.18727400  1
  O  O13  1  0.85721500  0.85755600  0.59461200  1
  O  O14  1  0.59461200  0.69061600  0.85721500  1
  O  O15  1  0.55378400  0.39605200  0.90579900  1
  O  O16  1  0.94936200  0.60250000  0.59465100  1
  O  O17  1  0.90437000  0.30846600  0.64581500  1
  O  O18  1  0.64581500  0.14134900  0.90437000  1
  O  O19  1  0.30374900  0.33482400  0.30452200  1
  O  O20  1  0.30452200  0.05690400  0.30374900  1
  O  O21  1  0.10238200  0.68985600  0.61559200  1
  O  O22  1  0.61559200  0.59216900  0.10238200  1
  O  O23  1  0.94182600  0.85737700  0.84886500  1
  O  O24  1  0.84886500  0.35193200  0.94182600  1
  O  O25  1  0.29330300  0.06272600  0.58439800  1
  O  O26  1  0.58439800  0.05957300  0.29330300  1
  O  O27  1  0.10563500  0.34420100  0.85394800  1
  O  O28  1  0.64750000  0.30063800  0.39651400  1
  O  O29  1  0.94153400  0.34563000  0.10865100  1
  O  O30  1  0.10865100  0.60418500  0.94153400  1
  O  O31  1  0.90579900  0.14436500  0.55378400  1
loop_
_geom_bond_atom_site_label_1
_geom_bond_atom_site_label_2
_geom_bond_distance
_geom_bond_site_symmetry_2
Na0 O0 2.415796 1_554
Na0 O20 2.415900 1_565
Na0 O26 2.448617 1_565
Na0 O1 2.457777 1_555
Na0 O3 2.501855 1_555
Na0 O18 2.569353 1_564
Na1 O4 2.415786 1_555
Na1 O6 2.415903 1_555
Na1 O12 2.448617 1_556
Na1 O14 2.457773 1_555
Na1 O15 2.501855 1_555
Na1 O30 2.569353 1_555
Na2 O8 2.429877 1_555
Na2 O5 2.433596 1_555
Na2 O12 2.479451 1_655
Na2 O16 2.491831 1_555
Na2 O3 2.533034 1_555
Na2 O9 2.549967 1_555
Na3 O7 2.429881 1_555
Na3 O6 2.433579 1_545
Na3 O11 2.479449 1_546
Na3 O0 2.491831 1_545
Na3 O27 2.533038 1_555
Na3 O10 2.549976 1_555
Na4 O16 2.415790 1_455
Na4 O19 2.415903 1_555
Na4 O25 2.448617 1_555
Na4 O2 2.457783 1_555
Na4 O27 2.501855 1_555
Na4 O17 2.569353 1_455
Na5 O21 2.429890 1_555
Na5 O20 2.433590 1_565
Na5 O25 2.479443 1_565
Na5 O4 2.491831 1_555
Na5 O31 2.533040 1_465
Na5 O23 2.549971 1_455
Na6 O22 2.429870 1_555
Na6 O19 2.433597 1_555
Na6 O26 2.479452 1_555
Na6 O28 2.491831 1_555
Na6 O15 2.533043 1_554
Na6 O24 2.549970 1_554
Na7 O5 2.453494 1_546
Na7 O6 2.453494 1_645
Na7 O17 2.501465 1_555
Na7 O18 2.501465 1_555
Na7 O24 2.540149 1_555
Na7 O23 2.540149 1_545
Na8 O28 2.415791 1_555
Na8 O5 2.415894 1_545
Na8 O11 2.448617 1_645
Na8 O13 2.457778 1_545
Na8 O31 2.501855 1_555
Na8 O29 2.569353 1_555
Na9 O19 2.453485 1_555
Na9 O20 2.453491 1_555
Na9 O29 2.501465 1_455
Na9 O30 2.501465 1_554
Na9 O9 2.540149 1_455
Na9 O10 2.540149 1_554
Mn0 O7 2.061280 1_565
Mn0 O13 2.110125 1_555
Mn0 O23 2.125678 1_555
Mn0 O18 2.174742 1_565
Mn0 O0 2.205774 1_555
Mn0 O31 2.226072 1_565
Mn1 O22 2.061288 1_555
Mn1 O1 2.110123 1_555
Mn1 O9 2.125678 1_555
Mn1 O29 2.174742 1_555
Mn1 O28 2.205768 1_555
Mn1 O3 2.226072 1_555
Mn2 O8 2.061280 1_555
Mn2 O14 2.110117 1_555
Mn2 O24 2.125678 1_555
Mn2 O17 2.174742 1_555
Mn2 O16 2.205769 1_555
Mn2 O15 2.226072 1_555
Mn3 O21 2.061285 1_555
Mn3 O2 2.110117 1_555
Mn3 O10 2.125678 1_555
Mn3 O30 2.174742 1_555
Mn3 O4 2.205777 1_555
Mn3 O27 2.226072 1_555
As0 O12 1.724624 1_555
As0 O11 1.724624 1_555
As0 O5 1.725887 1_455
As0 O6 1.725887 1_554
As1 O25 1.724624 1_555
As1 O26 1.724624 1_555
As1 O19 1.725887 1_555
As1 O20 1.725895 1_555
C0 O28 1.293849 1_555
C0 O7 1.296244 1_555
C0 O2 1.297693 1_555
C1 O4 1.293849 1_555
C1 O8 1.296244 1_555
C1 O1 1.297693 1_555
C2 O31 1.292648 1_555
C2 O17 1.301979 1_555
C2 O9 1.308876 1_555
C3 O15 1.292658 1_555
C3 O18 1.301972 1_555
C3 O10 1.308872 1_555
C4 O16 1.293849 1_555
C4 O21 1.296244 1_655
C4 O13 1.297693 1_555
C5 O0 1.293849 1_555
C5 O22 1.296244 1_556
C5 O14 1.297693 1_555
C6 O27 1.292648 1_655
C6 O29 1.301979 1_556
C6 O24 1.308876 1_555
C7 O3 1.292648 1_556
C7 O30 1.301979 1_655
C7 O23 1.308876 1_555
