# generated using pymatgen
data_Li7Si2(NiO4)3
_symmetry_space_group_name_H-M   'P 1'
_cell_length_a   4.87504571
_cell_length_b   4.89168394
_cell_length_c   9.74087096
_cell_angle_alpha   94.96569103
_cell_angle_beta   100.00323047
_cell_angle_gamma   60.11231625
_symmetry_Int_Tables_number   1
_chemical_formula_structural   Li7Si2(NiO4)3
_chemical_formula_sum   'Li7 Si2 Ni3 O12'
_cell_volume   198.33668675
_cell_formula_units_Z   1
loop_
 _symmetry_equiv_pos_site_id
 _symmetry_equiv_pos_as_xyz
  1  'x, y, z'
loop_
 _atom_site_type_symbol
 _atom_site_label
 _atom_site_symmetry_multiplicity
 _atom_site_fract_x
 _atom_site_fract_y
 _atom_site_fract_z
 _atom_site_occupancy
  Li  Li0  1  0.67445400  0.66660600  0.99670900  1
  Li  Li1  1  0.91667300  0.66665300  0.75000000  1
  Li  Li2  1  0.83727300  0.34117100  0.50394100  1
  Li  Li3  1  0.32155500  0.34117000  0.99606000  1
  Li  Li4  1  0.15894000  0.66660500  0.50329100  1
  Li  Li5  1  0.51183500  0.99218600  0.50395200  1
  Li  Li6  1  0.99598100  0.99218500  0.99604700  1
  Si  Si0  1  0.58347000  0.33305900  0.75000000  1
  Si  Si1  1  0.24987200  0.00025500  0.75000000  1
  Ni  Ni0  1  0.41661200  0.66678300  0.25000100  1
  Ni  Ni1  1  0.74952000  0.00096300  0.25000000  1
  Ni  Ni2  1  0.08372700  0.33254200  0.25000000  1
  O  O0  1  0.80038600  0.66642300  0.36850700  1
  O  O1  1  0.73425500  0.32267100  0.13646800  1
  O  O2  1  0.95288300  0.29385200  0.85405500  1
  O  O3  1  0.50866900  0.66665900  0.64566300  1
  O  O4  1  0.88045800  0.03945000  0.64593600  1
  O  O5  1  0.44307600  0.32266900  0.36353100  1
  O  O6  1  0.32467100  0.66666000  0.85433700  1
  O  O7  1  0.03319000  0.66642700  0.13149300  1
  O  O8  1  0.58009000  0.03945100  0.85406300  1
  O  O9  1  0.39005700  0.01085500  0.13653400  1
  O  O10  1  0.25326500  0.29385200  0.64594500  1
  O  O11  1  0.09908900  0.01085300  0.36346700  1
loop_
_geom_bond_atom_site_label_1
_geom_bond_atom_site_label_2
_geom_bond_distance
_geom_bond_site_symmetry_2
Li0 O7 1.995802 1_656
Li0 O6 2.002269 1_555
Li0 O1 2.130420 1_556
Li0 O9 2.131954 1_566
Li0 O2 2.201848 1_555
Li0 O8 2.202091 1_565
Li1 O3 2.070473 1_555
Li1 O6 2.070476 1_655
Li1 O10 2.078729 1_655
Li1 O2 2.078734 1_555
Li1 O8 2.078746 1_565
Li1 O4 2.078754 1_565
Li2 O4 2.019497 1_555
Li2 O11 2.069042 1_655
Li2 O0 2.073629 1_555
Li2 O10 2.166265 1_655
Li2 O5 2.193323 1_555
Li2 O3 2.202934 1_555
Li3 O8 2.019499 1_555
Li3 O9 2.069038 1_556
Li3 O7 2.073624 1_556
Li3 O2 2.166264 1_455
Li3 O1 2.193323 1_556
Li3 O6 2.202957 1_555
Li4 O0 1.995797 1_455
Li4 O3 2.002269 1_555
Li4 O5 2.130424 1_555
Li4 O11 2.131953 1_565
Li4 O10 2.201852 1_555
Li4 O4 2.202078 1_465
Li5 O10 2.019442 1_565
Li5 O5 2.068870 1_565
Li5 O0 2.075000 1_555
Li5 O4 2.165858 1_565
Li5 O11 2.193554 1_565
Li5 O3 2.203133 1_555
Li6 O2 2.019441 1_565
Li6 O1 2.068872 1_566
Li6 O7 2.075001 1_656
Li6 O8 2.165870 1_565
Li6 O9 2.193558 1_666
Li6 O6 2.203109 1_655
Ni0 O0 2.019810 1_555
Ni0 O7 2.019842 1_555
Ni0 O11 2.031341 1_565
Ni0 O9 2.031345 1_565
Ni0 O1 2.032077 1_555
Ni0 O5 2.032086 1_555
Ni1 O11 1.883263 1_655
Ni1 O9 1.883271 1_555
Ni1 O5 1.964941 1_555
Ni1 O1 1.964955 1_555
Ni1 O7 1.973608 1_645
Ni1 O0 1.973631 1_545
Ni2 O1 1.883109 1_455
Ni2 O5 1.883125 1_555
Ni2 O9 1.964255 1_555
Ni2 O11 1.964265 1_555
Ni2 O0 1.971609 1_455
Ni2 O7 1.971638 1_555
O2 Si0 1.833763 1_555
O2 Si1 1.836227 1_655
O3 Si1 1.842318 1_565
O3 Si0 1.842338 1_555
O4 Si1 1.833821 1_655
O4 Si0 1.836299 1_555
O6 Si1 1.842321 1_565
O6 Si0 1.842334 1_555
O8 Si1 1.833816 1_555
O8 Si0 1.836298 1_555
O10 Si0 1.833759 1_555
O10 Si1 1.836236 1_555
