# generated using pymatgen
data_LiV(OF)2
_symmetry_space_group_name_H-M   'P 1'
_cell_length_a   5.95931900
_cell_length_b   5.96626800
_cell_length_c   8.29065871
_cell_angle_alpha   89.56521139
_cell_angle_beta   90.00000000
_cell_angle_gamma   90.00000000
_symmetry_Int_Tables_number   1
_chemical_formula_structural   LiV(OF)2
_chemical_formula_sum   'Li4 V4 O8 F8'
_cell_volume   294.76500640
_cell_formula_units_Z   4
loop_
 _symmetry_equiv_pos_site_id
 _symmetry_equiv_pos_as_xyz
  1  'x, y, z'
loop_
 _atom_site_type_symbol
 _atom_site_label
 _atom_site_symmetry_multiplicity
 _atom_site_fract_x
 _atom_site_fract_y
 _atom_site_fract_z
 _atom_site_occupancy
  Li  Li0  1  0.75756600  0.75202300  0.36709400  1
  Li  Li1  1  0.75756600  0.24797700  0.63290600  1
  Li  Li2  1  0.25454600  0.25143100  0.86320300  1
  Li  Li3  1  0.25454600  0.74856900  0.13679700  1
  V  V0  1  0.97221000  0.73312300  0.76579700  1
  V  V1  1  0.97221000  0.26687700  0.23420300  1
  V  V2  1  0.76048900  0.00000000  0.00000000  1
  V  V3  1  0.27385800  0.00000000  0.50000000  1
  O  O0  1  0.97686300  0.22989900  0.01532700  1
  O  O1  1  0.97686300  0.77010100  0.98467300  1
  O  O2  1  0.78480700  0.53946800  0.73154500  1
  O  O3  1  0.78480700  0.46053200  0.26845500  1
  O  O4  1  0.77991000  0.98365700  0.77678300  1
  O  O5  1  0.77991000  0.01634300  0.22321700  1
  O  O6  1  0.21135100  0.01119100  0.29315400  1
  O  O7  1  0.21135100  0.98880900  0.70684600  1
  F  F0  1  0.52721900  0.79023900  0.02597300  1
  F  F1  1  0.52721900  0.20976100  0.97402700  1
  F  F2  1  0.48298200  0.77950000  0.48460300  1
  F  F3  1  0.48298200  0.22050000  0.51539700  1
  F  F4  1  0.22185800  0.54165900  0.76742200  1
  F  F5  1  0.22185800  0.45834100  0.23257800  1
  F  F6  1  0.00934300  0.77049500  0.51278300  1
  F  F7  1  0.00934300  0.22950500  0.48721700  1
loop_
_geom_bond_atom_site_label_1
_geom_bond_atom_site_label_2
_geom_bond_distance
_geom_bond_site_symmetry_2
Li0 O3 1.934224 1_555
Li0 O5 1.974583 1_565
Li1 O2 1.934224 1_555
Li1 O4 1.974583 1_545
Li2 O7 2.057323 1_545
Li2 O0 2.084001 1_456
Li3 O6 2.057323 1_565
Li3 O1 2.084001 1_454
O0 V1 1.829860 1_555
O0 V2 1.887550 1_555
O1 V0 1.829860 1_555
O1 V2 1.887550 1_566
O2 V0 1.633338 1_555
O3 V1 1.633338 1_555
O4 V2 1.857531 1_566
O4 V0 1.886243 1_555
O5 V2 1.857531 1_555
O5 V1 1.886243 1_555
O6 V3 1.755654 1_555
O6 V1 2.141410 1_455
O7 V3 1.755654 1_565
O7 V0 2.141410 1_455
F0 V2 1.881746 1_565
F0 Li3 1.882283 1_555
F1 V2 1.881746 1_556
F1 Li2 1.882283 1_555
F2 V3 1.817320 1_565
F2 Li0 1.912068 1_555
F3 V3 1.817320 1_555
F3 Li1 1.912068 1_555
F4 V0 1.875687 1_455
F4 Li2 1.909454 1_555
F5 V1 1.875687 1_455
F5 Li3 1.909454 1_555
F6 Li0 1.929856 1_455
F6 V3 2.090166 1_565
F6 V0 2.119371 1_455
F7 Li1 1.929856 1_455
F7 V3 2.090166 1_555
F7 V1 2.119371 1_455
