# generated using pymatgen
data_Li10Fe3Co2Ni3O16
_symmetry_space_group_name_H-M   'P 1'
_cell_length_a   5.89740700
_cell_length_b   5.90523095
_cell_length_c   9.66737510
_cell_angle_alpha   90.30553424
_cell_angle_beta   89.94610837
_cell_angle_gamma   119.74531695
_symmetry_Int_Tables_number   1
_chemical_formula_structural   Li10Fe3Co2Ni3O16
_chemical_formula_sum   'Li10 Fe3 Co2 Ni3 O16'
_cell_volume   292.30686846
_cell_formula_units_Z   1
loop_
 _symmetry_equiv_pos_site_id
 _symmetry_equiv_pos_as_xyz
  1  'x, y, z'
loop_
 _atom_site_type_symbol
 _atom_site_label
 _atom_site_symmetry_multiplicity
 _atom_site_fract_x
 _atom_site_fract_y
 _atom_site_fract_z
 _atom_site_occupancy
  Li  Li0  1  0.80883700  0.19527700  0.55109100  1
  Li  Li1  1  0.40290300  0.20758100  0.55323700  1
  Li  Li2  1  0.68491100  0.35621800  0.78271600  1
  Li  Li3  1  0.80897600  0.62448900  0.55081100  1
  Li  Li4  1  0.19045300  0.80882400  0.05828300  1
  Li  Li5  1  0.20606000  0.41450000  0.05133300  1
  Li  Li6  1  0.35690800  0.68113700  0.28291900  1
  Li  Li7  1  0.62085200  0.81373600  0.04944000  1
  Li  Li8  1  0.01623500  0.02285000  0.98833200  1
  Li  Li9  1  0.01722000  0.01272700  0.48059300  1
  Fe  Fe0  1  0.18337900  0.35632000  0.78295200  1
  Fe  Fe1  1  0.18442700  0.84822400  0.78522800  1
  Fe  Fe2  1  0.35904700  0.18458800  0.28291700  1
  Co  Co0  1  0.35002900  0.68080600  0.52909200  1
  Co  Co1  1  0.68522400  0.35027700  0.03105800  1
  Ni  Ni0  1  0.84567000  0.18069200  0.28604800  1
  Ni  Ni1  1  0.84527200  0.67134200  0.28746800  1
  Ni  Ni2  1  0.67521200  0.84763500  0.78723700  1
  O  O0  1  0.01986100  0.01032000  0.18039900  1
  O  O1  1  0.01850500  0.01762000  0.67470600  1
  O  O2  1  0.52508200  0.04044400  0.15198900  1
  O  O3  1  0.35361100  0.18918500  0.90602600  1
  O  O4  1  0.52252300  0.49612100  0.15457300  1
  O  O5  1  0.67698100  0.34284500  0.40348700  1
  O  O6  1  0.85415000  0.19663100  0.91132700  1
  O  O7  1  0.98067500  0.49352000  0.15666400  1
  O  O8  1  0.19577500  0.35487400  0.41045300  1
  O  O9  1  0.85417800  0.68159100  0.91495700  1
  O  O10  1  0.03659200  0.52717400  0.65485200  1
  O  O11  1  0.49587700  0.52422100  0.65630300  1
  O  O12  1  0.33978200  0.68083600  0.90466500  1
  O  O13  1  0.19675100  0.84882100  0.40958000  1
  O  O14  1  0.49381800  0.98425600  0.65562100  1
  O  O15  1  0.67410600  0.84120500  0.41661800  1
loop_
_geom_bond_atom_site_label_1
_geom_bond_atom_site_label_2
_geom_bond_distance
_geom_bond_site_symmetry_2
Li0 O14 1.933418 1_545
Li0 O10 2.005235 1_655
Li0 O5 2.021873 1_555
Li0 O15 2.239984 1_545
Li0 O1 2.315387 1_655
Li0 O8 2.411998 1_655
Li1 O14 1.929480 1_545
Li1 O11 1.937396 1_555
Li1 O5 2.018221 1_555
Li1 O8 2.285667 1_555
Li1 O1 2.293912 1_555
Li1 O13 2.304580 1_545
Li2 O3 2.075380 1_555
Li2 O6 2.092437 1_555
Li2 O9 2.096570 1_555
Li2 O10 2.186201 1_655
Li2 O11 2.198524 1_555
Li2 O14 2.263161 1_545
Li3 O11 1.928243 1_555
Li3 O10 1.979376 1_655
Li3 O5 2.023039 1_555
Li3 O15 2.232283 1_555
Li3 O1 2.340419 1_665
Li3 O13 2.419937 1_655
Li4 O7 1.906007 1_455
Li4 O2 1.974247 1_565
Li4 O12 2.048973 1_554
Li4 O9 2.220986 1_454
Li4 O0 2.234338 1_565
Li4 O3 2.454686 1_564
Li5 O7 1.905049 1_455
Li5 O4 1.953796 1_555
Li5 O12 1.974054 1_554
Li5 O6 2.265283 1_454
Li5 O3 2.372223 1_554
Li5 O0 2.426484 1_555
Li6 O13 2.070005 1_555
Li6 O15 2.073726 1_555
Li6 O8 2.083630 1_555
Li6 O4 2.174691 1_555
Li6 O2 2.241851 1_565
Li6 O7 2.278526 1_455
Li7 O4 1.956290 1_555
Li7 O2 1.956835 1_565
Li7 O12 2.006032 1_554
Li7 O9 2.289963 1_554
Li7 O6 2.393744 1_564
Li7 O0 2.401445 1_665
Li8 O0 1.859217 1_556
Li8 O6 1.871866 1_455
Li8 O9 1.884821 1_445
Li8 O3 1.903340 1_555
Li9 O15 1.861409 1_445
Li9 O1 1.876596 1_555
Li9 O13 1.880837 1_545
Li9 O8 1.884931 1_555
Fe0 O11 2.018427 1_555
Fe0 O1 2.022554 1_555
Fe0 O12 2.032651 1_555
Fe0 O10 2.045222 1_555
Fe0 O6 2.095326 1_455
Fe0 O3 2.096567 1_555
Fe1 O12 2.015558 1_555
Fe1 O1 2.020983 1_565
Fe1 O14 2.023959 1_555
Fe1 O10 2.068686 1_555
Fe1 O3 2.096887 1_565
Fe1 O9 2.107417 1_455
Fe2 O0 1.998187 1_555
Fe2 O5 2.000326 1_555
Fe2 O2 2.024509 1_555
Fe2 O4 2.028666 1_555
Fe2 O8 2.098523 1_555
Fe2 O13 2.118362 1_545
Co0 O14 1.974110 1_555
Co0 O11 1.977511 1_555
Co0 O15 1.985683 1_555
Co0 O13 2.010105 1_555
Co0 O10 2.015308 1_555
Co0 O8 2.022003 1_555
Co1 O7 1.938159 1_555
Co1 O4 1.973596 1_555
Co1 O2 1.977971 1_555
Co1 O6 2.009728 1_554
Co1 O9 2.041400 1_554
Co1 O3 2.082476 1_554
Ni0 O0 2.030587 1_655
Ni0 O5 2.031524 1_555
Ni0 O7 2.043115 1_555
Ni0 O2 2.092713 1_555
Ni0 O15 2.155899 1_545
Ni0 O8 2.156746 1_655
Ni1 O0 2.028158 1_665
Ni1 O5 2.028968 1_555
Ni1 O7 2.038466 1_555
Ni1 O4 2.092897 1_555
Ni1 O15 2.138457 1_555
Ni1 O13 2.150418 1_655
Ni2 O12 2.060661 1_555
Ni2 O1 2.069007 1_665
Ni2 O14 2.069814 1_555
Ni2 O11 2.083428 1_555
Ni2 O6 2.148949 1_565
Ni2 O9 2.154571 1_555
