# generated using pymatgen
data_MgCr3Se2(SO6)4
_symmetry_space_group_name_H-M   'P 1'
_cell_length_a   8.41488500
_cell_length_b   8.43039004
_cell_length_c   8.93950310
_cell_angle_alpha   62.31887341
_cell_angle_beta   62.38623856
_cell_angle_gamma   60.07218878
_symmetry_Int_Tables_number   1
_chemical_formula_structural   MgCr3Se2(SO6)4
_chemical_formula_sum   'Mg1 Cr3 Se2 S4 O24'
_cell_volume   463.98743561
_cell_formula_units_Z   1
loop_
 _symmetry_equiv_pos_site_id
 _symmetry_equiv_pos_as_xyz
  1  'x, y, z'
loop_
 _atom_site_type_symbol
 _atom_site_label
 _atom_site_symmetry_multiplicity
 _atom_site_fract_x
 _atom_site_fract_y
 _atom_site_fract_z
 _atom_site_occupancy
  Mg  Mg0  1  0.85043800  0.86150900  0.43274700  1
  Cr  Cr0  1  0.63984000  0.64654300  0.07127200  1
  Cr  Cr1  1  0.35586800  0.34853700  0.93555300  1
  Cr  Cr2  1  0.15707800  0.15398900  0.54555800  1
  Se  Se0  1  0.74585700  0.46278900  0.74507700  1
  Se  Se1  1  0.04407500  0.74735600  0.74711700  1
  S  S0  1  0.52934600  0.96237200  0.25137500  1
  S  S1  1  0.96137100  0.26005400  0.25101100  1
  S  S2  1  0.25603900  0.53227000  0.24748300  1
  S  S3  1  0.46269600  0.03988100  0.75012300  1
  O  O0  1  0.88032900  0.70576500  0.94451500  1
  O  O1  1  0.48216500  0.88604200  0.92005900  1
  O  O2  1  0.66294700  0.98860100  0.29022600  1
  O  O3  1  0.33775200  0.98390100  0.39490000  1
  O  O4  1  0.01357800  0.97821700  0.69922700  1
  O  O5  1  0.70168600  0.67047400  0.59076000  1
  O  O6  1  0.70113900  0.47411600  0.94320300  1
  O  O7  1  0.60294200  0.76736900  0.23955900  1
  O  O8  1  0.98124900  0.31787200  0.69868700  1
  O  O9  1  0.26354800  0.60832200  0.76818900  1
  O  O10  1  0.61791600  0.34675900  0.77097700  1
  O  O11  1  0.02437500  0.70720400  0.59461200  1
  O  O12  1  0.98700800  0.28906100  0.39254500  1
  O  O13  1  0.38753700  0.61076700  0.23245600  1
  O  O14  1  0.76655100  0.39567800  0.23842600  1
  O  O15  1  0.05775500  0.66352300  0.29051800  1
  O  O16  1  0.36680200  0.23021700  0.77978800  1
  O  O17  1  0.31112600  0.49918300  0.07852900  1
  O  O18  1  0.29038000  0.33897700  0.38981900  1
  O  O19  1  0.98037200  0.06318300  0.29552200  1
  O  O20  1  0.64719700  0.02565100  0.61134500  1
  O  O21  1  0.32907400  0.01904800  0.69769800  1
  O  O22  1  0.49823100  0.10350900  0.08114000  1
  O  O23  1  0.10573400  0.31125900  0.07998400  1
loop_
_geom_bond_atom_site_label_1
_geom_bond_atom_site_label_2
_geom_bond_distance
_geom_bond_site_symmetry_2
Mg0 O2 2.041762 1_555
Mg0 O11 2.059836 1_655
Mg0 O19 2.065114 1_565
Mg0 O5 2.101104 1_555
Mg0 O15 2.110916 1_655
Mg0 O20 2.132798 1_565
Cr0 O6 1.985053 1_554
Cr0 O0 1.996332 1_554
Cr0 O7 2.018008 1_555
Cr0 O13 2.018410 1_555
Cr0 O1 2.029316 1_554
Cr0 O14 2.033041 1_555
Cr1 O22 1.968324 1_556
Cr1 O23 1.989957 1_556
Cr1 O17 1.993297 1_556
Cr1 O9 1.993459 1_555
Cr1 O10 2.001821 1_555
Cr1 O16 2.005624 1_555
Cr2 O8 1.952365 1_455
Cr2 O4 1.974201 1_545
Cr2 O3 1.975415 1_545
Cr2 O18 1.977171 1_555
Cr2 O12 1.989289 1_455
Cr2 O21 1.995754 1_555
O0 Se1 1.669934 1_655
O1 S3 1.484866 1_565
O2 S0 1.454231 1_555
O3 S0 1.511700 1_555
O4 Se1 1.693032 1_555
O5 Se0 1.639702 1_555
O6 Se0 1.670667 1_555
O7 S0 1.477188 1_555
O8 Se0 1.697841 1_555
O9 Se1 1.666594 1_555
O10 Se0 1.666986 1_555
O11 Se1 1.641633 1_555
O12 S1 1.516681 1_555
O13 S2 1.480094 1_555
O14 S1 1.479415 1_555
O15 S2 1.454171 1_555
O16 S3 1.483654 1_555
O17 S2 1.478939 1_555
O18 S2 1.517394 1_555
O19 S1 1.455713 1_555
O20 S3 1.459732 1_555
O21 S3 1.508912 1_555
O22 S0 1.475256 1_545
O23 S1 1.479159 1_455
