# generated using pymatgen
data_Li2Fe3CuO8
_symmetry_space_group_name_H-M   'P 1'
_cell_length_a   5.93537789
_cell_length_b   5.93537789
_cell_length_c   9.45908700
_cell_angle_alpha   90.00000000
_cell_angle_beta   90.00000000
_cell_angle_gamma   119.99999875
_symmetry_Int_Tables_number   1
_chemical_formula_structural   Li2Fe3CuO8
_chemical_formula_sum   'Li4 Fe6 Cu2 O16'
_cell_volume   288.58689529
_cell_formula_units_Z   2
loop_
 _symmetry_equiv_pos_site_id
 _symmetry_equiv_pos_as_xyz
  1  'x, y, z'
loop_
 _atom_site_type_symbol
 _atom_site_label
 _atom_site_symmetry_multiplicity
 _atom_site_fract_x
 _atom_site_fract_y
 _atom_site_fract_z
 _atom_site_occupancy
  Li  Li0  1  0.33333300  0.66666700  0.89829700  1
  Li  Li1  1  0.00000000  0.00000000  0.99159100  1
  Li  Li2  1  0.00000000  0.00000000  0.49159100  1
  Li  Li3  1  0.66666700  0.33333300  0.39829700  1
  Fe  Fe0  1  0.17186000  0.82814000  0.21124400  1
  Fe  Fe1  1  0.17186000  0.34371900  0.21124400  1
  Fe  Fe2  1  0.65628100  0.82814000  0.21124400  1
  Fe  Fe3  1  0.34371900  0.17186000  0.71124400  1
  Fe  Fe4  1  0.82814000  0.65628100  0.71124400  1
  Fe  Fe5  1  0.82814000  0.17186000  0.71124400  1
  Cu  Cu0  1  0.33333300  0.66666700  0.48583500  1
  Cu  Cu1  1  0.66666700  0.33333300  0.98583500  1
  O  O0  1  0.16969900  0.83030100  0.60107300  1
  O  O1  1  0.04297900  0.52149000  0.34550500  1
  O  O2  1  0.33333300  0.66666700  0.10199900  1
  O  O3  1  0.00000000  0.00000000  0.30033900  1
  O  O4  1  0.00000000  0.00000000  0.80033900  1
  O  O5  1  0.16969900  0.33939800  0.60107300  1
  O  O6  1  0.47851000  0.95702100  0.34550500  1
  O  O7  1  0.47851000  0.52149000  0.34550500  1
  O  O8  1  0.33939800  0.16969900  0.10107300  1
  O  O9  1  0.66060200  0.83030100  0.60107300  1
  O  O10  1  0.52149000  0.47851000  0.84550500  1
  O  O11  1  0.52149000  0.04297900  0.84550500  1
  O  O12  1  0.66666700  0.33333300  0.60199900  1
  O  O13  1  0.83030100  0.66060200  0.10107300  1
  O  O14  1  0.95702100  0.47851000  0.84550500  1
  O  O15  1  0.83030100  0.16969900  0.10107300  1
loop_
_geom_bond_atom_site_label_1
_geom_bond_atom_site_label_2
_geom_bond_distance
_geom_bond_site_symmetry_2
Li0 O2 1.926835 1_556
Li0 O11 1.997733 1_565
Li0 O14 1.997733 1_455
Li0 O10 1.997743 1_555
Li1 O4 1.809069 1_555
Li1 O15 2.028790 1_456
Li1 O13 2.028790 1_446
Li1 O8 2.028790 1_556
Li2 O3 1.809069 1_555
Li2 O0 2.028790 1_545
Li2 O9 2.028790 1_445
Li2 O5 2.028790 1_555
Li3 O12 1.926835 1_555
Li3 O1 1.997733 1_655
Li3 O6 1.997733 1_545
Li3 O7 1.997743 1_555
Fe0 O2 1.955362 1_555
Fe0 O3 1.957491 1_565
Fe0 O1 2.029395 1_555
Fe0 O6 2.029395 1_555
Fe0 O8 2.041759 1_565
Fe0 O13 2.041759 1_455
Fe1 O2 1.955370 1_555
Fe1 O3 1.957486 1_555
Fe1 O7 2.029396 1_555
Fe1 O1 2.029403 1_555
Fe1 O8 2.041755 1_555
Fe1 O15 2.041759 1_455
Fe2 O2 1.955370 1_555
Fe2 O3 1.957486 1_665
Fe2 O7 2.029396 1_555
Fe2 O6 2.029403 1_555
Fe2 O13 2.041755 1_555
Fe2 O15 2.041759 1_565
Fe3 O12 1.955370 1_555
Fe3 O4 1.957486 1_555
Fe3 O10 2.029396 1_555
Fe3 O11 2.029403 1_555
Fe3 O5 2.041755 1_555
Fe3 O0 2.041759 1_545
Fe4 O12 1.955370 1_555
Fe4 O4 1.957486 1_665
Fe4 O10 2.029396 1_555
Fe4 O14 2.029403 1_555
Fe4 O9 2.041755 1_555
Fe4 O0 2.041759 1_655
Fe5 O12 1.955362 1_555
Fe5 O4 1.957491 1_655
Fe5 O11 2.029395 1_555
Fe5 O14 2.029395 1_555
Fe5 O5 2.041759 1_655
Fe5 O9 2.041759 1_545
Cu0 O7 1.997362 1_555
Cu0 O6 1.997362 1_555
Cu0 O1 1.997362 1_555
Cu0 O0 2.004510 1_555
Cu0 O5 2.004515 1_555
Cu0 O9 2.004515 1_555
Cu1 O10 1.997362 1_555
Cu1 O14 1.997362 1_555
Cu1 O11 1.997362 1_555
Cu1 O15 2.004510 1_556
Cu1 O13 2.004515 1_556
Cu1 O8 2.004515 1_556
