# generated using pymatgen
data_Ti3V2Sb(PO4)6
_symmetry_space_group_name_H-M   'P 1'
_cell_length_a   8.68819717
_cell_length_b   8.68819717
_cell_length_c   8.68819765
_cell_angle_alpha   60.80288750
_cell_angle_beta   60.80288750
_cell_angle_gamma   60.80288837
_symmetry_Int_Tables_number   1
_chemical_formula_structural   Ti3V2Sb(PO4)6
_chemical_formula_sum   'Ti3 V2 Sb1 P6 O24'
_cell_volume   472.13725929
_cell_formula_units_Z   1
loop_
 _symmetry_equiv_pos_site_id
 _symmetry_equiv_pos_as_xyz
  1  'x, y, z'
loop_
 _atom_site_type_symbol
 _atom_site_label
 _atom_site_symmetry_multiplicity
 _atom_site_fract_x
 _atom_site_fract_y
 _atom_site_fract_z
 _atom_site_occupancy
  Ti  Ti0  1  0.64658400  0.64658400  0.64658400  1
  Ti  Ti1  1  0.85529100  0.85529100  0.85529100  1
  Ti  Ti2  1  0.35485900  0.35485900  0.35485900  1
  V  V0  1  0.99821300  0.99821300  0.99821300  1
  V  V1  1  0.50161400  0.50161400  0.50161400  1
  Sb  Sb0  1  0.14730900  0.14730900  0.14730900  1
  P  P0  1  0.55681000  0.94788500  0.25175600  1
  P  P1  1  0.25175600  0.55681000  0.94788500  1
  P  P2  1  0.94788500  0.25175600  0.55681000  1
  P  P3  1  0.04399100  0.73981300  0.46269000  1
  P  P4  1  0.73981300  0.46269000  0.04399100  1
  P  P5  1  0.46269000  0.04399100  0.73981300  1
  O  O0  1  0.30933200  0.50030800  0.11593300  1
  O  O1  1  0.11593300  0.30933200  0.50030800  1
  O  O2  1  0.50030800  0.11593300  0.30933200  1
  O  O3  1  0.74811900  0.93666400  0.09134200  1
  O  O4  1  0.41129800  0.96593800  0.18886600  1
  O  O5  1  0.57688400  0.75631700  0.41340500  1
  O  O6  1  0.09134200  0.74811900  0.93666400  1
  O  O7  1  0.41340500  0.57688400  0.75631700  1
  O  O8  1  0.00119400  0.81255100  0.61497300  1
  O  O9  1  0.75631700  0.41340500  0.57688400  1
  O  O10  1  0.04775800  0.89055300  0.26831100  1
  O  O11  1  0.81255100  0.61497300  0.00119400  1
  O  O12  1  0.18886600  0.41129800  0.96593800  1
  O  O13  1  0.93666400  0.09134200  0.74811900  1
  O  O14  1  0.23843000  0.58210100  0.44876700  1
  O  O15  1  0.96593800  0.18886600  0.41129800  1
  O  O16  1  0.58210100  0.44876700  0.23843000  1
  O  O17  1  0.89055300  0.26831100  0.04775800  1
  O  O18  1  0.44876700  0.23843000  0.58210100  1
  O  O19  1  0.61497300  0.00119400  0.81255100  1
  O  O20  1  0.26831100  0.04775800  0.89055300  1
  O  O21  1  0.52116400  0.88968400  0.66330400  1
  O  O22  1  0.88968400  0.66330400  0.52116400  1
  O  O23  1  0.66330400  0.52116400  0.88968400  1
loop_
_geom_bond_atom_site_label_1
_geom_bond_atom_site_label_2
_geom_bond_distance
_geom_bond_site_symmetry_2
O0 P1 1.548104 1_554
O0 Ti2 1.953610 1_555
O1 P2 1.548104 1_455
O1 Ti2 1.953610 1_555
O2 P0 1.548104 1_545
O2 Ti2 1.953610 1_555
O3 P0 1.558525 1_555
O3 Ti1 2.117098 1_554
O3 V0 2.158287 1_554
O4 P0 1.522604 1_555
O4 Sb0 2.144931 1_565
O5 P0 1.564685 1_555
O5 Ti0 2.032044 1_555
O5 V1 2.276026 1_555
O6 P1 1.558525 1_555
O6 Ti1 2.117098 1_455
O6 V0 2.158287 1_455
O7 P1 1.564685 1_555
O7 Ti0 2.032044 1_555
O7 V1 2.276026 1_555
O8 P3 1.547470 1_555
O8 Ti1 1.954273 1_455
O9 P2 1.564685 1_555
O9 Ti0 2.032044 1_555
O9 V1 2.276026 1_555
O10 P3 1.548667 1_555
O10 V0 2.240141 1_454
O10 Sb0 2.353038 1_565
O11 P4 1.547470 1_555
O11 Ti1 1.954273 1_554
O12 P1 1.522604 1_555
O12 Sb0 2.144931 1_556
O13 P2 1.558525 1_555
O13 Ti1 2.117098 1_545
O13 V0 2.158287 1_545
O14 P3 1.565238 1_555
O14 Ti2 2.098756 1_555
O14 V1 2.253742 1_555
O15 P2 1.522604 1_555
O15 Sb0 2.144932 1_655
O16 P4 1.565238 1_555
O16 Ti2 2.098756 1_555
O16 V1 2.253743 1_555
O17 P4 1.548667 1_555
O17 V0 2.240141 1_544
O17 Sb0 2.353038 1_655
O18 P5 1.565238 1_555
O18 Ti2 2.098756 1_555
O18 V1 2.253742 1_555
O19 P5 1.547470 1_555
O19 Ti1 1.954273 1_545
O20 P5 1.548667 1_555
O20 V0 2.240141 1_445
O20 Sb0 2.353038 1_556
O21 P5 1.540382 1_565
O21 Ti0 1.889166 1_555
O22 P3 1.540382 1_655
O22 Ti0 1.889166 1_555
O23 P4 1.540382 1_556
O23 Ti0 1.889167 1_555
