# generated using pymatgen
data_Co23O32
_symmetry_space_group_name_H-M   'P 1'
_cell_length_a   8.27274000
_cell_length_b   8.28406616
_cell_length_c   10.04467683
_cell_angle_alpha   114.01698165
_cell_angle_beta   114.27061469
_cell_angle_gamma   90.05741291
_symmetry_Int_Tables_number   1
_chemical_formula_structural   Co23O32
_chemical_formula_sum   'Co23 O32'
_cell_volume   561.37850598
_cell_formula_units_Z   1
loop_
 _symmetry_equiv_pos_site_id
 _symmetry_equiv_pos_as_xyz
  1  'x, y, z'
loop_
 _atom_site_type_symbol
 _atom_site_label
 _atom_site_symmetry_multiplicity
 _atom_site_fract_x
 _atom_site_fract_y
 _atom_site_fract_z
 _atom_site_occupancy
  Co  Co0  1  0.37580900  0.62400900  0.75079900  1
  Co  Co1  1  0.24371700  0.24569700  0.49621200  1
  Co  Co2  1  0.31217400  0.31211500  0.87764800  1
  Co  Co3  1  0.86891000  0.12645000  0.24750200  1
  Co  Co4  1  0.00043800  0.00242000  0.49832800  1
  Co  Co5  1  0.87805400  0.12570700  0.74844100  1
  Co  Co6  1  0.56670800  0.06500600  0.37482000  1
  Co  Co7  1  0.25066300  0.75116100  0.99961400  1
  Co  Co8  1  0.75770800  0.75480000  0.50950000  1
  Co  Co9  1  0.38041500  0.62272600  0.25814500  1
  Co  Co10  1  0.11367700  0.86980700  0.23729500  1
  Co  Co11  1  0.93973700  0.43935600  0.62785600  1
  Co  Co12  1  0.49995500  0.50348500  0.49929500  1
  Co  Co13  1  0.00056200  0.49881100  0.99750200  1
  Co  Co14  1  0.05765300  0.56173200  0.37355200  1
  Co  Co15  1  0.62632800  0.37523800  0.75116800  1
  Co  Co16  1  0.75094500  0.24680300  0.00037300  1
  Co  Co17  1  0.62750200  0.37106800  0.24904100  1
  Co  Co18  1  0.43819400  0.94629800  0.63202700  1
  Co  Co19  1  0.50083900  0.00388400  0.00227400  1
  Co  Co20  1  0.12750200  0.87937500  0.74951000  1
  Co  Co21  1  0.68764300  0.68748000  0.12400500  1
  Co  Co22  1  0.18268600  0.18070800  0.11946100  1
  O  O0  1  0.25535800  0.48194900  0.50742100  1
  O  O1  1  0.10072400  0.11713500  0.24952500  1
  O  O2  1  0.99861400  0.22831000  0.48475000  1
  O  O3  1  0.88289700  0.90115600  0.26113400  1
  O  O4  1  0.63111900  0.13541800  0.23640800  1
  O  O5  1  0.48181900  0.76659500  0.99494300  1
  O  O6  1  0.77727300  0.00348200  0.51347900  1
  O  O7  1  0.25737800  0.97747900  0.98726100  1
  O  O8  1  0.14665900  0.64897500  0.76473800  1
  O  O9  1  0.63052800  0.61142000  0.26227200  1
  O  O10  1  0.36147500  0.86067500  0.23017200  1
  O  O11  1  0.02628100  0.73198800  0.00617900  1
  O  O12  1  0.23687500  0.51959800  0.00134400  1
  O  O13  1  0.51280200  0.74440300  0.50640300  1
  O  O14  1  0.39942000  0.37560500  0.25910600  1
  O  O15  1  0.12423500  0.62022600  0.23226500  1
  O  O16  1  0.86507000  0.36790800  0.76144600  1
  O  O17  1  0.59800200  0.59285700  0.74151600  1
  O  O18  1  0.97859300  0.25710200  0.98638300  1
  O  O19  1  0.49793400  0.25844400  0.52143000  1
  O  O20  1  0.75861800  0.47881300  0.98567700  1
  O  O21  1  0.65076900  0.14722900  0.76631400  1
  O  O22  1  0.39426000  0.37665800  0.74849400  1
  O  O23  1  0.85216100  0.35363800  0.23379900  1
  O  O24  1  0.73696800  0.03204300  0.01733800  1
  O  O25  1  0.22883800  0.00775000  0.48434200  1
  O  O26  1  0.52245800  0.24326900  0.01308100  1
  O  O27  1  0.36995500  0.87955000  0.76844900  1
  O  O28  1  0.10656100  0.10626700  0.73591100  1
  O  O29  1  0.00676800  0.77854100  0.51435900  1
  O  O30  1  0.89281000  0.89246900  0.73889400  1
  O  O31  1  0.73675000  0.49773900  0.48322800  1
loop_
_geom_bond_atom_site_label_1
_geom_bond_atom_site_label_2
_geom_bond_distance
_geom_bond_site_symmetry_2
Co0 O17 1.891120 1_555
Co0 O8 1.962515 1_555
Co0 O0 2.001837 1_555
Co0 O5 2.012521 1_555
Co0 O22 2.046325 1_555
Co0 O27 2.053504 1_555
Co1 O0 1.914062 1_555
Co1 O25 1.926398 1_555
Co1 O2 1.984807 1_455
Co1 O19 2.009492 1_555
Co1 O1 2.028085 1_555
Co1 O22 2.077144 1_555
Co2 O22 1.928261 1_555
Co2 O12 1.945797 1_556
Co2 O28 1.963481 1_555
Co2 O26 1.972365 1_556
Co3 O24 1.897355 1_555
Co3 O1 1.911444 1_655
Co3 O3 1.926353 1_545
Co3 O4 1.927320 1_555
Co3 O23 1.943176 1_555
Co3 O2 1.949767 1_555
Co4 O6 1.913521 1_455
Co4 O29 1.924755 1_545
Co4 O2 1.930457 1_455
Co4 O3 1.947455 1_445
Co4 O28 1.952146 1_555
Co4 O25 1.953196 1_555
Co5 O30 1.901738 1_545
Co5 O6 1.930260 1_555
Co5 O28 1.948080 1_655
Co5 O18 1.958365 1_555
Co5 O21 1.962538 1_555
Co5 O16 1.962879 1_555
Co6 O6 1.954248 1_555
Co6 O10 1.955295 1_545
Co6 O4 1.955929 1_555
Co6 O19 1.957021 1_555
Co7 O10 1.889309 1_556
Co7 O11 1.893098 1_556
Co7 O12 1.929106 1_556
Co7 O8 1.930549 1_555
Co7 O7 1.930882 1_555
Co7 O5 1.937413 1_555
Co8 O30 1.897448 1_555
Co8 O13 2.014670 1_555
Co8 O9 2.033025 1_555
Co8 O31 2.034383 1_555
Co8 O29 2.048182 1_655
Co8 O6 2.049095 1_565
Co9 O15 2.025364 1_555
Co9 O13 2.034796 1_555
Co9 O9 2.055427 1_555
Co9 O14 2.056985 1_555
Co9 O10 2.098654 1_555
Co9 O12 2.116525 1_555
Co10 O11 1.917425 1_555
Co10 O1 2.007702 1_565
Co10 O3 2.023849 1_455
Co10 O25 2.029121 1_565
Co10 O15 2.050337 1_555
Co10 O10 2.080792 1_555
Co11 O31 1.931924 1_555
Co11 O16 1.964606 1_555
Co11 O2 1.972740 1_555
Co11 O8 1.987911 1_655
Co12 O13 1.968979 1_555
Co12 O14 1.975566 1_555
Co12 O17 2.008930 1_555
Co12 O31 2.029682 1_555
Co12 O0 2.068792 1_555
Co12 O19 2.130900 1_555
Co13 O11 1.905528 1_556
Co13 O15 1.924312 1_556
Co13 O16 1.942702 1_455
Co13 O12 1.945479 1_556
Co13 O20 1.958466 1_455
Co13 O18 1.963514 1_455
Co14 O15 1.937569 1_555
Co14 O29 1.956172 1_555
Co14 O0 1.958982 1_555
Co14 O23 1.973492 1_455
Co15 O17 1.854383 1_555
Co15 O19 1.885464 1_555
Co15 O22 1.909070 1_555
Co15 O20 1.927744 1_555
Co15 O16 1.937237 1_555
Co15 O21 1.959884 1_555
Co16 O24 1.862828 1_555
Co16 O23 1.917629 1_555
Co16 O21 1.926882 1_554
Co16 O26 1.947138 1_555
Co16 O18 1.949550 1_554
Co16 O20 1.989537 1_554
Co17 O4 1.905110 1_555
Co17 O31 1.921569 1_555
Co17 O23 1.927419 1_555
Co17 O14 1.930222 1_555
Co17 O26 1.938021 1_555
Co17 O9 1.940231 1_555
Co18 O13 1.922215 1_555
Co18 O27 1.937604 1_555
Co18 O21 1.974612 1_565
Co18 O25 1.990916 1_565
Co19 O24 1.902781 1_555
Co19 O27 1.920296 1_544
Co19 O4 1.925551 1_555
Co19 O5 1.940684 1_544
Co19 O26 1.945373 1_555
Co19 O7 1.962070 1_544
Co20 O30 1.905878 1_455
Co20 O29 1.930611 1_555
Co20 O27 1.935281 1_555
Co20 O28 1.942091 1_565
Co20 O7 1.956283 1_555
Co20 O8 1.977317 1_555
Co21 O9 1.949457 1_555
Co21 O3 1.954525 1_555
Co21 O5 1.971958 1_554
Co21 O20 1.995256 1_554
Co22 O1 1.931713 1_555
Co22 O7 1.958657 1_544
Co22 O14 1.967791 1_555
Co22 O18 1.968096 1_454
