# generated using pymatgen
data_Li2Mn3(BO3)3
_symmetry_space_group_name_H-M   'P 1'
_cell_length_a   6.21507500
_cell_length_b   7.78523918
_cell_length_c   9.10708632
_cell_angle_alpha   109.60799797
_cell_angle_beta   107.49903244
_cell_angle_gamma   99.62212734
_symmetry_Int_Tables_number   1
_chemical_formula_structural   Li2Mn3(BO3)3
_chemical_formula_sum   'Li4 Mn6 B6 O18'
_cell_volume   377.85870669
_cell_formula_units_Z   2
loop_
 _symmetry_equiv_pos_site_id
 _symmetry_equiv_pos_as_xyz
  1  'x, y, z'
loop_
 _atom_site_type_symbol
 _atom_site_label
 _atom_site_symmetry_multiplicity
 _atom_site_fract_x
 _atom_site_fract_y
 _atom_site_fract_z
 _atom_site_occupancy
  Li  Li0  1  0.68671100  0.99424200  0.11474900  1
  Li  Li1  1  0.99952900  0.66033300  0.21993600  1
  Li  Li2  1  0.31328900  0.00575800  0.88525100  1
  Li  Li3  1  0.00047100  0.33966700  0.78006400  1
  Mn  Mn0  1  0.03604000  0.29305900  0.43769200  1
  Mn  Mn1  1  0.96396000  0.70694100  0.56230800  1
  Mn  Mn2  1  0.69437500  0.94497900  0.76259900  1
  Mn  Mn3  1  0.60522200  0.36766400  0.87450900  1
  Mn  Mn4  1  0.39477800  0.63233600  0.12549100  1
  Mn  Mn5  1  0.30562500  0.05502100  0.23740100  1
  B  B0  1  0.35911300  0.63865300  0.78967700  1
  B  B1  1  0.25978600  0.03057200  0.54933100  1
  B  B2  1  0.64088700  0.36134700  0.21032300  1
  B  B3  1  0.74021400  0.96942800  0.45066900  1
  B  B4  1  0.03337300  0.29706700  0.10490300  1
  B  B5  1  0.96662700  0.70293300  0.89509700  1
  O  O0  1  0.20754700  0.57936700  0.62071500  1
  O  O1  1  0.00194500  0.17756000  0.19066600  1
  O  O2  1  0.51523900  0.81945900  0.87979000  1
  O  O3  1  0.99805500  0.82244000  0.80933400  1
  O  O4  1  0.40022500  0.08296100  0.71704200  1
  O  O5  1  0.79245300  0.42063300  0.37928500  1
  O  O6  1  0.11211700  0.84803000  0.44948700  1
  O  O7  1  0.48476100  0.18054100  0.12021000  1
  O  O8  1  0.66565900  0.49051800  0.13808600  1
  O  O9  1  0.71607300  0.83580800  0.52294800  1
  O  O10  1  0.88788300  0.15197000  0.55051300  1
  O  O11  1  0.18303900  0.47613800  0.19558500  1
  O  O12  1  0.59977500  0.91703900  0.28295800  1
  O  O13  1  0.89957600  0.22550600  0.93227100  1
  O  O14  1  0.33434100  0.50948200  0.86191400  1
  O  O15  1  0.81696100  0.52386200  0.80441500  1
  O  O16  1  0.28392700  0.16419200  0.47705200  1
  O  O17  1  0.10042400  0.77449400  0.06772900  1
loop_
_geom_bond_atom_site_label_1
_geom_bond_atom_site_label_2
_geom_bond_distance
_geom_bond_site_symmetry_2
Li0 O2 1.937949 1_554
Li0 O1 1.985375 1_665
Li0 O12 2.001764 1_555
Li0 O7 2.068608 1_565
Li1 O6 1.929624 1_655
Li1 O11 1.972756 1_655
Li1 O8 2.024972 1_555
Li1 O17 2.065880 1_655
Li2 O7 1.937949 1_556
Li2 O3 1.985375 1_445
Li2 O4 2.001764 1_555
Li2 O2 2.068608 1_545
Li3 O10 1.929624 1_455
Li3 O15 1.972756 1_455
Li3 O14 2.024972 1_555
Li3 O13 2.065880 1_455
Mn0 O5 1.983495 1_455
Mn0 O16 1.983570 1_555
Mn0 O10 2.024452 1_455
Mn0 O1 2.050964 1_555
Mn0 O0 2.127552 1_555
Mn1 O0 1.983495 1_655
Mn1 O9 1.983570 1_555
Mn1 O6 2.024452 1_655
Mn1 O3 2.050964 1_555
Mn1 O5 2.127552 1_555
Mn2 O2 2.093892 1_555
Mn2 O13 2.098255 1_565
Mn2 O9 2.115249 1_555
Mn2 O3 2.246078 1_555
Mn2 O4 2.273275 1_565
Mn3 O15 2.027129 1_555
Mn3 O4 2.101525 1_555
Mn3 O8 2.148173 1_556
Mn3 O14 2.157950 1_555
Mn3 O13 2.310251 1_555
Mn4 O11 2.027129 1_555
Mn4 O12 2.101525 1_555
Mn4 O14 2.148173 1_554
Mn4 O8 2.157950 1_555
Mn4 O17 2.310251 1_555
Mn5 O7 2.093892 1_555
Mn5 O17 2.098255 1_545
Mn5 O16 2.115249 1_555
Mn5 O1 2.246078 1_555
Mn5 O12 2.273275 1_545
B0 O2 1.373176 1_555
B0 O14 1.385986 1_555
B0 O0 1.405142 1_555
B1 O6 1.372427 1_545
B1 O4 1.386430 1_555
B1 O16 1.415894 1_555
B2 O7 1.373176 1_555
B2 O8 1.385986 1_555
B2 O5 1.405142 1_555
B3 O10 1.372427 1_565
B3 O12 1.386430 1_555
B3 O9 1.415894 1_555
B4 O11 1.350036 1_555
B4 O13 1.394506 1_454
B4 O1 1.425672 1_555
B5 O15 1.350036 1_555
B5 O17 1.394506 1_656
B5 O3 1.425672 1_555
