# generated using pymatgen
data_Na3BSbAsO7
_symmetry_space_group_name_H-M   'P 1'
_cell_length_a   7.10855500
_cell_length_b   5.50184200
_cell_length_c   9.55391522
_cell_angle_alpha   86.82000089
_cell_angle_beta   90.00000000
_cell_angle_gamma   90.00000000
_symmetry_Int_Tables_number   1
_chemical_formula_structural   Na3BSbAsO7
_chemical_formula_sum   'Na6 B2 Sb2 As2 O14'
_cell_volume   373.07966554
_cell_formula_units_Z   2
loop_
 _symmetry_equiv_pos_site_id
 _symmetry_equiv_pos_as_xyz
  1  'x, y, z'
loop_
 _atom_site_type_symbol
 _atom_site_label
 _atom_site_symmetry_multiplicity
 _atom_site_fract_x
 _atom_site_fract_y
 _atom_site_fract_z
 _atom_site_occupancy
  Na  Na0  1  0.25000000  0.76554400  0.93272100  1
  Na  Na1  1  0.00756500  0.24831900  0.75891500  1
  Na  Na2  1  0.49243500  0.24831900  0.75891500  1
  Na  Na3  1  0.50756500  0.75168100  0.24108500  1
  Na  Na4  1  0.99243500  0.75168100  0.24108500  1
  Na  Na5  1  0.75000000  0.23445600  0.06727900  1
  B  B0  1  0.75000000  0.73192100  0.93725400  1
  B  B1  1  0.25000000  0.26807900  0.06274600  1
  Sb  Sb0  1  0.75000000  0.77503700  0.66466200  1
  Sb  Sb1  1  0.25000000  0.22496300  0.33533800  1
  As  As0  1  0.25000000  0.71661100  0.59825600  1
  As  As1  1  0.75000000  0.28338900  0.40174400  1
  O  O0  1  0.25000000  0.27173300  0.92352500  1
  O  O1  1  0.75000000  0.95464900  0.85030400  1
  O  O2  1  0.75000000  0.52575100  0.85502700  1
  O  O3  1  0.06316500  0.82302300  0.69630500  1
  O  O4  1  0.43683500  0.82302300  0.69630500  1
  O  O5  1  0.25000000  0.40872200  0.60489200  1
  O  O6  1  0.75000000  0.17544800  0.57635900  1
  O  O7  1  0.25000000  0.82455200  0.42364100  1
  O  O8  1  0.75000000  0.59127800  0.39510800  1
  O  O9  1  0.56316500  0.17697700  0.30369500  1
  O  O10  1  0.93683500  0.17697700  0.30369500  1
  O  O11  1  0.25000000  0.47424900  0.14497300  1
  O  O12  1  0.25000000  0.04535100  0.14969600  1
  O  O13  1  0.75000000  0.72826700  0.07647500  1
loop_
_geom_bond_atom_site_label_1
_geom_bond_atom_site_label_2
_geom_bond_distance
_geom_bond_site_symmetry_2
Na0 O11 2.513976 1_556
Na0 O4 2.624195 1_555
Na0 O3 2.624195 1_555
Na0 O12 2.649743 1_566
Na0 O0 2.723157 1_555
Na0 O0 2.781482 1_565
Na1 O0 2.341440 1_555
Na1 O5 2.402105 1_555
Na1 O3 2.478809 1_545
Na1 O1 2.562938 1_445
Na1 O6 2.575372 1_455
Na1 O2 2.584721 1_455
Na2 O0 2.341440 1_555
Na2 O5 2.402105 1_555
Na2 O4 2.478809 1_545
Na2 O1 2.562938 1_545
Na2 O6 2.575372 1_555
Na2 O2 2.584721 1_555
Na3 O13 2.341440 1_555
Na3 O8 2.402105 1_555
Na3 O9 2.478809 1_565
Na3 O12 2.562938 1_565
Na3 O7 2.575372 1_555
Na3 O11 2.584721 1_555
Na4 O13 2.341440 1_555
Na4 O8 2.402105 1_555
Na4 O10 2.478809 1_565
Na4 O12 2.562938 1_665
Na4 O7 2.575372 1_655
Na4 O11 2.584721 1_655
Na5 O2 2.513976 1_554
Na5 O10 2.624195 1_555
Na5 O9 2.624195 1_555
Na5 O1 2.649743 1_544
Na5 O13 2.723157 1_555
Na5 O13 2.781482 1_545
B0 O13 1.329142 1_556
B0 O2 1.415163 1_555
B0 O1 1.441799 1_555
B1 O0 1.329142 1_554
B1 O11 1.415163 1_555
B1 O12 1.441799 1_555
As0 O5 1.691624 1_555
As0 O7 1.739497 1_555
As0 O4 1.745003 1_555
As0 O3 1.745003 1_555
As1 O8 1.691624 1_555
As1 O6 1.739497 1_555
As1 O10 1.745003 1_555
As1 O9 1.745003 1_555
O1 Sb0 2.077660 1_555
O2 Sb0 2.216334 1_555
O3 Sb0 2.264000 1_455
O4 Sb0 2.264000 1_555
O6 Sb0 2.314893 1_545
O7 Sb1 2.314893 1_565
O9 Sb1 2.264000 1_555
O10 Sb1 2.264000 1_655
O11 Sb1 2.216334 1_555
O12 Sb1 2.077660 1_555
