# generated using pymatgen
data_Sr2LaI7
_symmetry_space_group_name_H-M   'P 1'
_cell_length_a   17.59756000
_cell_length_b   7.90115100
_cell_length_c   11.95629570
_cell_angle_alpha   89.73832161
_cell_angle_beta   90.00000000
_cell_angle_gamma   90.00000000
_symmetry_Int_Tables_number   1
_chemical_formula_structural   Sr2LaI7
_chemical_formula_sum   'Sr8 La4 I28'
_cell_volume   1662.39771844
_cell_formula_units_Z   4
loop_
 _symmetry_equiv_pos_site_id
 _symmetry_equiv_pos_as_xyz
  1  'x, y, z'
loop_
 _atom_site_type_symbol
 _atom_site_label
 _atom_site_symmetry_multiplicity
 _atom_site_fract_x
 _atom_site_fract_y
 _atom_site_fract_z
 _atom_site_occupancy
  Sr  Sr0  1  0.56020900  0.28383000  0.67689300  1
  Sr  Sr1  1  0.21772000  0.29381600  0.55261400  1
  Sr  Sr2  1  0.93979100  0.28383000  0.17689300  1
  Sr  Sr3  1  0.28228000  0.29381600  0.05261400  1
  Sr  Sr4  1  0.71772000  0.70618400  0.94738600  1
  Sr  Sr5  1  0.06020900  0.71617000  0.82310700  1
  Sr  Sr6  1  0.78228000  0.70618400  0.44738600  1
  Sr  Sr7  1  0.43979100  0.71617000  0.32310700  1
  La  La0  1  0.86948700  0.21559000  0.72390200  1
  La  La1  1  0.63051300  0.21559000  0.22390200  1
  La  La2  1  0.36948700  0.78441000  0.77609800  1
  La  La3  1  0.13051300  0.78441000  0.27609800  1
  I  I0  1  0.21360700  0.00023500  0.77653500  1
  I  I1  1  0.39733000  0.00245000  0.55586300  1
  I  I2  1  0.28639300  0.00023500  0.27653500  1
  I  I3  1  0.10267000  0.00245000  0.05586300  1
  I  I4  1  0.42635600  0.14778800  0.87709000  1
  I  I5  1  0.07364400  0.14778800  0.37709000  1
  I  I6  1  0.64205700  0.30735100  0.96331800  1
  I  I7  1  0.85794300  0.30735100  0.46331800  1
  I  I8  1  0.04298400  0.31974100  0.70904600  1
  I  I9  1  0.45701600  0.31974100  0.20904600  1
  I  I10  1  0.89505300  0.50167800  0.92776700  1
  I  I11  1  0.73878200  0.50640800  0.69575400  1
  I  I12  1  0.60494700  0.50167800  0.42776700  1
  I  I13  1  0.76121800  0.50640800  0.19575400  1
  I  I14  1  0.23878200  0.49359200  0.80424600  1
  I  I15  1  0.39505300  0.49832200  0.57223300  1
  I  I16  1  0.26121800  0.49359200  0.30424600  1
  I  I17  1  0.10494700  0.49832200  0.07223300  1
  I  I18  1  0.54298400  0.68025900  0.79095400  1
  I  I19  1  0.95701600  0.68025900  0.29095400  1
  I  I20  1  0.14205700  0.69264900  0.53668200  1
  I  I21  1  0.35794300  0.69264900  0.03668200  1
  I  I22  1  0.92635600  0.85221200  0.62291000  1
  I  I23  1  0.57364400  0.85221200  0.12291000  1
  I  I24  1  0.89733000  0.99755000  0.94413700  1
  I  I25  1  0.71360700  0.99976500  0.72346500  1
  I  I26  1  0.60267000  0.99755000  0.44413700  1
  I  I27  1  0.78639300  0.99976500  0.22346500  1
loop_
_geom_bond_atom_site_label_1
_geom_bond_atom_site_label_2
_geom_bond_distance
_geom_bond_site_symmetry_2
I0 La2 3.229966 1_545
I0 Sr1 3.535101 1_555
I0 Sr5 3.552897 1_545
I1 La2 3.178093 1_545
I1 Sr7 3.671067 1_545
I1 Sr0 3.909176 1_555
I1 Sr1 3.910306 1_555
I2 La3 3.229966 1_545
I2 Sr3 3.535101 1_555
I2 Sr7 3.552897 1_545
I3 La3 3.178093 1_545
I3 Sr5 3.671067 1_544
I3 Sr2 3.909176 1_455
I3 Sr3 3.910306 1_555
I4 La2 3.276347 1_545
I4 Sr3 3.490805 1_556
I4 Sr0 3.522725 1_555
I5 La3 3.276347 1_545
I5 Sr1 3.490805 1_555
I5 Sr2 3.522725 1_455
I6 La1 3.202088 1_556
I6 Sr4 3.425488 1_555
I6 Sr0 3.720571 1_555
I7 La0 3.202088 1_555
I7 Sr6 3.425488 1_555
I7 Sr2 3.720571 1_555
I8 La0 3.166854 1_455
I8 Sr5 3.435355 1_555
I8 Sr1 3.605390 1_555
I9 La1 3.166854 1_555
I9 Sr7 3.435355 1_555
I9 Sr3 3.605390 1_555
I10 La0 3.362070 1_555
I10 Sr4 3.522459 1_555
I10 Sr2 3.522482 1_556
I10 Sr5 3.586843 1_655
I11 La0 3.267488 1_555
I11 Sr4 3.424016 1_555
I11 Sr6 3.442810 1_555
I11 Sr0 3.608631 1_555
I12 La1 3.362070 1_555
I12 Sr6 3.522459 1_555
I12 Sr0 3.522482 1_555
I12 Sr7 3.586843 1_555
I13 La1 3.267488 1_555
I13 Sr6 3.424016 1_555
I13 Sr4 3.442810 1_554
I13 Sr2 3.608631 1_555
I14 La2 3.267488 1_555
I14 Sr1 3.424016 1_555
I14 Sr3 3.442810 1_556
I14 Sr5 3.608631 1_555
I15 La2 3.362070 1_555
I15 Sr1 3.522459 1_555
I15 Sr7 3.522482 1_555
I15 Sr0 3.586843 1_555
I16 La3 3.267488 1_555
I16 Sr3 3.424016 1_555
I16 Sr1 3.442810 1_555
I16 Sr7 3.608631 1_555
I17 La3 3.362070 1_555
I17 Sr3 3.522459 1_555
I17 Sr5 3.522482 1_554
I17 Sr2 3.586843 1_455
I18 La2 3.166854 1_555
I18 Sr0 3.435355 1_555
I18 Sr4 3.605390 1_555
I19 La3 3.166854 1_655
I19 Sr2 3.435355 1_555
I19 Sr6 3.605390 1_555
I20 La3 3.202088 1_555
I20 Sr1 3.425488 1_555
I20 Sr5 3.720571 1_555
I21 La2 3.202088 1_554
I21 Sr3 3.425488 1_555
I21 Sr7 3.720571 1_555
I22 La0 3.276347 1_565
I22 Sr6 3.490805 1_555
I22 Sr5 3.522725 1_655
I23 La1 3.276347 1_565
I23 Sr4 3.490805 1_554
I23 Sr7 3.522725 1_555
I24 La0 3.178093 1_565
I24 Sr2 3.671067 1_566
I24 Sr5 3.909176 1_655
I24 Sr4 3.910306 1_555
I25 La0 3.229966 1_565
I25 Sr4 3.535101 1_555
I25 Sr0 3.552897 1_565
I26 La1 3.178093 1_565
I26 Sr0 3.671067 1_565
I26 Sr7 3.909176 1_555
I26 Sr6 3.910306 1_555
I27 La1 3.229966 1_565
I27 Sr6 3.535101 1_555
I27 Sr2 3.552897 1_565
