# generated using pymatgen
data_Li6VFe3(PO4)6
_symmetry_space_group_name_H-M   'P 1'
_cell_length_a   8.59986359
_cell_length_b   8.64599649
_cell_length_c   8.62984110
_cell_angle_alpha   61.53642092
_cell_angle_beta   61.37435079
_cell_angle_gamma   61.41683564
_symmetry_Int_Tables_number   1
_chemical_formula_structural   Li6VFe3(PO4)6
_chemical_formula_sum   'Li6 V1 Fe3 P6 O24'
_cell_volume   468.42299096
_cell_formula_units_Z   1
loop_
 _symmetry_equiv_pos_site_id
 _symmetry_equiv_pos_as_xyz
  1  'x, y, z'
loop_
 _atom_site_type_symbol
 _atom_site_label
 _atom_site_symmetry_multiplicity
 _atom_site_fract_x
 _atom_site_fract_y
 _atom_site_fract_z
 _atom_site_occupancy
  Li  Li0  1  0.02603700  0.00714600  0.99745700  1
  Li  Li1  1  0.74988800  0.15255800  0.34852700  1
  Li  Li2  1  0.47528500  0.50299300  0.49444800  1
  Li  Li3  1  0.25723000  0.84230500  0.65300300  1
  Li  Li4  1  0.65252900  0.26245100  0.83905500  1
  Li  Li5  1  0.84094800  0.65326800  0.25750400  1
  V  V0  1  0.85681600  0.85366900  0.85347000  1
  Fe  Fe0  1  0.14594100  0.14605800  0.13718900  1
  Fe  Fe1  1  0.35327100  0.36227800  0.35503000  1
  Fe  Fe2  1  0.64722100  0.64850900  0.64927100  1
  P  P0  1  0.04902700  0.75117300  0.44970300  1
  P  P1  1  0.45068000  0.05049800  0.74821100  1
  P  P2  1  0.75018300  0.45223800  0.04697200  1
  P  P3  1  0.25117400  0.54071000  0.95825400  1
  P  P4  1  0.54251800  0.96126800  0.25172000  1
  P  P5  1  0.95514700  0.25014200  0.53695500  1
  O  O0  1  0.12750700  0.29148800  0.49522500  1
  O  O1  1  0.30352800  0.50806400  0.11916500  1
  O  O2  1  0.04651700  0.92268500  0.26962700  1
  O  O3  1  0.52997600  0.12026200  0.29614500  1
  O  O4  1  0.23826400  0.59279100  0.43010700  1
  O  O5  1  0.01592600  0.80625400  0.61299100  1
  O  O6  1  0.26129600  0.07028000  0.90756200  1
  O  O7  1  0.45083000  0.23204900  0.57702400  1
  O  O8  1  0.59231300  0.43082000  0.24038200  1
  O  O9  1  0.19677000  0.38101500  0.99128100  1
  O  O10  1  0.09250500  0.73474600  0.93276500  1
  O  O11  1  0.37179800  0.00406700  0.20779400  1
  O  O12  1  0.61287600  0.01497700  0.80455000  1
  O  O13  1  0.90677700  0.25859700  0.06939100  1
  O  O14  1  0.81046100  0.60949600  0.01189900  1
  O  O15  1  0.41360300  0.56305600  0.76481200  1
  O  O16  1  0.56266600  0.76939500  0.41373200  1
  O  O17  1  0.73313900  0.92873900  0.08910700  1
  O  O18  1  0.97013300  0.20120500  0.37966200  1
  O  O19  1  0.76647500  0.41590800  0.56362600  1
  O  O20  1  0.48259900  0.88719500  0.69322600  1
  O  O21  1  0.93175100  0.09219300  0.73046700  1
  O  O22  1  0.69195400  0.48469100  0.88690500  1
  O  O23  1  0.88643700  0.69176300  0.48677900  1
loop_
_geom_bond_atom_site_label_1
_geom_bond_atom_site_label_2
_geom_bond_distance
_geom_bond_site_symmetry_2
Li0 O6 2.035266 1_555
Li0 O13 2.169459 1_456
Li0 O2 2.172430 1_546
Li0 O10 2.417561 1_545
Li0 O21 2.472167 1_455
Li0 O17 2.577560 1_446
Li1 O13 2.104290 1_555
Li1 O8 2.108895 1_555
Li1 O18 2.279095 1_555
Li1 O3 2.302996 1_555
Li1 O2 2.386518 1_645
Li1 O7 2.390889 1_555
Li2 O4 2.055527 1_555
Li2 O7 2.185479 1_555
Li2 O8 2.190531 1_555
Li2 O15 2.387538 1_555
Li2 O16 2.445501 1_555
Li2 O19 2.528661 1_555
Li3 O15 2.117696 1_555
Li3 O10 2.131629 1_555
Li3 O20 2.349542 1_555
Li3 O5 2.435336 1_555
Li3 O16 2.453582 1_555
Li3 O21 2.597455 1_465
Li4 O19 2.092023 1_555
Li4 O21 2.141882 1_555
Li4 O22 2.343380 1_555
Li4 O15 2.439578 1_555
Li4 O12 2.487144 1_555
Li5 O16 2.110133 1_555
Li5 O17 2.126715 1_555
Li5 O23 2.381732 1_555
Li5 O19 2.463636 1_555
Li5 O14 2.469087 1_555
Li5 O10 2.607189 1_654
Fe0 O9 1.946126 1_554
Fe0 O11 1.946888 1_555
Fe0 O6 2.017998 1_554
Fe0 O18 2.030192 1_455
Fe0 O13 2.053013 1_455
Fe0 O2 2.075314 1_545
Fe1 O1 1.946210 1_555
Fe1 O0 1.946390 1_555
Fe1 O4 2.025039 1_555
Fe1 O3 2.043760 1_555
Fe1 O8 2.052824 1_555
Fe1 O7 2.054729 1_555
Fe2 O23 1.952070 1_555
Fe2 O22 1.955892 1_555
Fe2 O20 1.960347 1_555
Fe2 O19 2.087932 1_555
Fe2 O15 2.091688 1_555
Fe2 O16 2.101625 1_555
O0 P5 1.525599 1_455
O1 P3 1.521363 1_554
O2 P0 1.555424 1_555
O3 P4 1.539210 1_545
O4 P0 1.541711 1_555
O5 P0 1.555356 1_555
O5 V0 1.974976 1_455
O6 P1 1.544204 1_555
O7 P1 1.560801 1_555
O8 P2 1.561439 1_555
O9 P3 1.523737 1_555
O10 P3 1.571682 1_555
O10 V0 2.073141 1_455
O11 P4 1.521793 1_545
O12 P1 1.540755 1_555
O12 V0 2.003015 1_545
O13 P2 1.561249 1_555
O14 P2 1.529966 1_555
O14 V0 2.004196 1_554
O15 P3 1.578553 1_555
O16 P4 1.575779 1_555
O17 P4 1.570527 1_555
O17 V0 2.052520 1_554
O18 P5 1.538135 1_555
O19 P5 1.572004 1_555
O20 P1 1.561083 1_565
O21 P5 1.568877 1_555
O21 V0 2.079575 1_545
O22 P2 1.548070 1_556
O23 P0 1.556677 1_655
