# generated using pymatgen
data_YErO3
_symmetry_space_group_name_H-M   'P 1'
_cell_length_a   5.68258100
_cell_length_b   5.94374900
_cell_length_c   8.37517000
_cell_angle_alpha   90.00000000
_cell_angle_beta   90.00000000
_cell_angle_gamma   90.00000000
_symmetry_Int_Tables_number   1
_chemical_formula_structural   YErO3
_chemical_formula_sum   'Y4 Er4 O12'
_cell_volume   282.87836116
_cell_formula_units_Z   4
loop_
 _symmetry_equiv_pos_site_id
 _symmetry_equiv_pos_as_xyz
  1  'x, y, z'
loop_
 _atom_site_type_symbol
 _atom_site_label
 _atom_site_symmetry_multiplicity
 _atom_site_fract_x
 _atom_site_fract_y
 _atom_site_fract_z
 _atom_site_occupancy
  Y  Y0  1  0.01383400  0.94778100  0.75000000  1
  Y  Y1  1  0.48616600  0.44778100  0.75000000  1
  Y  Y2  1  0.51383400  0.55221900  0.25000000  1
  Y  Y3  1  0.98616600  0.05221900  0.25000000  1
  Er  Er0  1  0.00000000  0.50000000  0.00000000  1
  Er  Er1  1  0.00000000  0.50000000  0.50000000  1
  Er  Er2  1  0.50000000  0.00000000  0.00000000  1
  Er  Er3  1  0.50000000  0.00000000  0.50000000  1
  O  O0  1  0.14466400  0.42171300  0.25000000  1
  O  O1  1  0.17927100  0.18295600  0.57563000  1
  O  O2  1  0.17927100  0.18295600  0.92437000  1
  O  O3  1  0.32072900  0.68295600  0.92437000  1
  O  O4  1  0.32072900  0.68295600  0.57563000  1
  O  O5  1  0.35533600  0.92171300  0.25000000  1
  O  O6  1  0.64466400  0.07828700  0.75000000  1
  O  O7  1  0.67927100  0.31704400  0.42437000  1
  O  O8  1  0.67927100  0.31704400  0.07563000  1
  O  O9  1  0.82072900  0.81704400  0.07563000  1
  O  O10  1  0.82072900  0.81704400  0.42437000  1
  O  O11  1  0.85533600  0.57828700  0.75000000  1
loop_
_geom_bond_atom_site_label_1
_geom_bond_atom_site_label_2
_geom_bond_distance
_geom_bond_site_symmetry_2
Er0 O3 2.214837 1_554
Er0 O8 2.214837 1_455
Er0 O2 2.233850 1_554
Er0 O9 2.233850 1_455
Er0 O0 2.297015 1_555
Er0 O11 2.297015 1_454
Er1 O7 2.214837 1_455
Er1 O4 2.214837 1_555
Er1 O10 2.233850 1_455
Er1 O1 2.233850 1_555
Er1 O0 2.297015 1_555
Er1 O11 2.297015 1_455
Er2 O9 2.214837 1_545
Er2 O2 2.214837 1_554
Er2 O8 2.233850 1_555
Er2 O3 2.233850 1_544
Er2 O6 2.297015 1_554
Er2 O5 2.297015 1_545
Er3 O10 2.214837 1_545
Er3 O1 2.214837 1_555
Er3 O7 2.233850 1_555
Er3 O4 2.233850 1_545
Er3 O6 2.297015 1_555
Er3 O5 2.297015 1_545
O0 Y2 2.236656 1_555
O0 Y3 2.373694 1_455
O1 Y0 2.229443 1_545
O1 Y1 2.766176 1_555
O1 Y3 3.040663 1_455
O2 Y0 2.229443 1_545
O2 Y1 2.766176 1_555
O2 Y3 3.040663 1_456
O3 Y1 2.229443 1_555
O3 Y0 2.766176 1_555
O3 Y2 3.040663 1_556
O4 Y1 2.229443 1_555
O4 Y0 2.766176 1_555
O4 Y2 3.040663 1_555
O5 Y3 2.236656 1_465
O5 Y2 2.373694 1_555
O6 Y0 2.236656 1_645
O6 Y1 2.373694 1_555
O7 Y2 2.229443 1_555
O7 Y3 2.766176 1_555
O7 Y1 3.040663 1_555
O8 Y2 2.229443 1_555
O8 Y3 2.766176 1_555
O8 Y1 3.040663 1_554
O9 Y3 2.229443 1_565
O9 Y2 2.766176 1_555
O9 Y0 3.040663 1_654
O10 Y3 2.229443 1_565
O10 Y2 2.766176 1_555
O10 Y0 3.040663 1_655
O11 Y1 2.236656 1_555
O11 Y0 2.373694 1_655
