# generated using pymatgen
data_MgFe11O18
_symmetry_space_group_name_H-M   'P 1'
_cell_length_a   5.49697700
_cell_length_b   7.53401371
_cell_length_c   8.88717547
_cell_angle_alpha   113.23825910
_cell_angle_beta   105.53962174
_cell_angle_gamma   95.31664812
_symmetry_Int_Tables_number   1
_chemical_formula_structural   MgFe11O18
_chemical_formula_sum   'Mg1 Fe11 O18'
_cell_volume   317.54911393
_cell_formula_units_Z   1
loop_
 _symmetry_equiv_pos_site_id
 _symmetry_equiv_pos_as_xyz
  1  'x, y, z'
loop_
 _atom_site_type_symbol
 _atom_site_label
 _atom_site_symmetry_multiplicity
 _atom_site_fract_x
 _atom_site_fract_y
 _atom_site_fract_z
 _atom_site_occupancy
  Mg  Mg0  1  0.71444400  0.14310600  0.00031400  1
  Fe  Fe0  1  0.70520100  0.64771500  0.00156200  1
  Fe  Fe1  1  0.29486300  0.85563800  0.99974400  1
  Fe  Fe2  1  0.62664400  0.18554500  0.66860900  1
  Fe  Fe3  1  0.03734500  0.48037000  0.66738500  1
  Fe  Fe4  1  0.30052000  0.34897700  0.00106200  1
  Fe  Fe5  1  0.95812800  0.02001100  0.33103800  1
  Fe  Fe6  1  0.03849100  0.97819000  0.66715400  1
  Fe  Fe7  1  0.37755800  0.31508000  0.33275300  1
  Fe  Fe8  1  0.62566700  0.69035900  0.66738200  1
  Fe  Fe9  1  0.37273100  0.81328500  0.33307100  1
  Fe  Fe10  1  0.96199300  0.51693600  0.33111600  1
  O  O0  1  0.39535000  0.65137500  0.79733500  1
  O  O1  1  0.59458100  0.35377300  0.89737000  1
  O  O2  1  0.93385400  0.68648500  0.86931600  1
  O  O3  1  0.06541700  0.31615800  0.43411500  1
  O  O4  1  0.72968200  0.97938900  0.76038700  1
  O  O5  1  0.03468900  0.28681900  0.76952000  1
  O  O6  1  0.63157500  0.38136800  0.56720100  1
  O  O7  1  0.29146700  0.04733200  0.89843200  1
  O  O8  1  0.26691800  0.01910800  0.53465000  1
  O  O9  1  0.73124000  0.98352500  0.46295700  1
  O  O10  1  0.69894800  0.94581700  0.10346600  1
  O  O11  1  0.36923800  0.62173000  0.43689000  1
  O  O12  1  0.96559700  0.71407300  0.23337100  1
  O  O13  1  0.93376100  0.68180000  0.56351900  1
  O  O14  1  0.26599400  0.01766700  0.23155400  1
  O  O15  1  0.39475200  0.64485200  0.09997100  1
  O  O16  1  0.07889200  0.32124500  0.13463400  1
  O  O17  1  0.60446000  0.35227300  0.20412000  1
loop_
_geom_bond_atom_site_label_1
_geom_bond_atom_site_label_2
_geom_bond_distance
_geom_bond_site_symmetry_2
Mg0 O4 2.028409 1_544
Mg0 O10 2.037301 1_545
Mg0 O16 2.048365 1_655
Mg0 O17 2.154175 1_555
Mg0 O7 2.189081 1_554
Mg0 O1 2.192464 1_554
Fe0 O1 1.990490 1_554
Fe0 O12 2.004387 1_555
Fe0 O2 2.010175 1_554
Fe0 O10 2.071570 1_555
Fe0 O15 2.117866 1_555
Fe0 O0 2.141922 1_554
Fe1 O7 1.979627 1_565
Fe1 O14 1.996518 1_566
Fe1 O2 2.009706 1_455
Fe1 O10 2.091477 1_556
Fe1 O0 2.101116 1_555
Fe1 O15 2.152353 1_556
Fe2 O1 1.992675 1_555
Fe2 O8 2.000234 1_555
Fe2 O6 2.011082 1_555
Fe2 O4 2.076931 1_545
Fe2 O5 2.117219 1_655
Fe2 O9 2.125466 1_545
Fe3 O5 1.999535 1_555
Fe3 O0 2.001170 1_555
Fe3 O3 2.008751 1_555
Fe3 O6 2.104231 1_455
Fe3 O13 2.112641 1_455
Fe3 O2 2.113594 1_455
Fe4 O16 1.964804 1_555
Fe4 O15 2.001455 1_555
Fe4 O5 2.022518 1_554
Fe4 O1 2.068095 1_554
Fe4 O7 2.078010 1_554
Fe4 O17 2.095258 1_555
Fe5 O10 1.961900 1_545
Fe5 O9 1.994942 1_545
Fe5 O3 2.004730 1_655
Fe5 O14 2.107346 1_655
Fe5 O8 2.126446 1_655
Fe5 O12 2.127376 1_545
Fe6 O7 1.979700 1_565
Fe6 O13 2.005185 1_455
Fe6 O8 2.016289 1_565
Fe6 O4 2.078160 1_455
Fe6 O9 2.139000 1_455
Fe6 O5 2.141178 1_565
Fe7 O17 1.973090 1_555
Fe7 O6 2.007792 1_555
Fe7 O14 2.016267 1_555
Fe7 O16 2.080259 1_555
Fe7 O11 2.133341 1_555
Fe7 O3 2.140237 1_555
Fe8 O4 1.961533 1_555
Fe8 O11 1.983016 1_555
Fe8 O0 2.001294 1_555
Fe8 O2 2.124378 1_555
Fe8 O13 2.129622 1_555
Fe8 O6 2.146397 1_555
Fe9 O11 1.997382 1_555
Fe9 O15 2.001221 1_555
Fe9 O9 2.001405 1_555
Fe9 O12 2.111238 1_455
Fe9 O8 2.117923 1_565
Fe9 O14 2.123512 1_565
Fe10 O17 1.982476 1_555
Fe10 O12 1.995690 1_555
Fe10 O13 2.003955 1_555
Fe10 O16 2.093077 1_655
Fe10 O3 2.102961 1_655
Fe10 O11 2.116049 1_655
