# generated using pymatgen
data_Ta2Co4O9
_symmetry_space_group_name_H-M   'P 1'
_cell_length_a   5.19834900
_cell_length_b   8.94225206
_cell_length_c   14.56418926
_cell_angle_alpha   89.99536070
_cell_angle_beta   89.99029478
_cell_angle_gamma   89.99356065
_symmetry_Int_Tables_number   1
_chemical_formula_structural   Ta2Co4O9
_chemical_formula_sum   'Ta8 Co16 O36'
_cell_volume   677.01555000
_cell_formula_units_Z   4
loop_
 _symmetry_equiv_pos_site_id
 _symmetry_equiv_pos_as_xyz
  1  'x, y, z'
loop_
 _atom_site_type_symbol
 _atom_site_label
 _atom_site_symmetry_multiplicity
 _atom_site_fract_x
 _atom_site_fract_y
 _atom_site_fract_z
 _atom_site_occupancy
  Ta  Ta0  1  0.99986400  0.02353800  0.85536000  1
  Ta  Ta1  1  0.99849300  0.97655700  0.64484800  1
  Ta  Ta2  1  0.50054000  0.47452800  0.35433800  1
  Ta  Ta3  1  0.49893300  0.52542100  0.14551900  1
  Ta  Ta4  1  0.49894000  0.52360500  0.64467300  1
  Ta  Ta5  1  0.49971000  0.47644400  0.85525500  1
  Ta  Ta6  1  0.99923200  0.02514000  0.35458400  1
  Ta  Ta7  1  0.99932000  0.97430300  0.14592400  1
  Co  Co0  1  0.99993100  0.33622300  0.69179900  1
  Co  Co1  1  0.99996400  0.66417800  0.80780600  1
  Co  Co2  1  0.99624000  0.66270400  0.50129100  1
  Co  Co3  1  0.99638300  0.33760000  0.99825000  1
  Co  Co4  1  0.50285200  0.16310100  0.49841400  1
  Co  Co5  1  0.50291100  0.83719600  0.00174500  1
  Co  Co6  1  0.50106300  0.83484800  0.31196900  1
  Co  Co7  1  0.50404000  0.16502200  0.18676800  1
  Co  Co8  1  0.50002100  0.83576900  0.80788800  1
  Co  Co9  1  0.49981500  0.16360500  0.69144800  1
  Co  Co10  1  0.49658600  0.16245800  0.99854500  1
  Co  Co11  1  0.49603800  0.83819400  0.50186500  1
  Co  Co12  1  0.00332000  0.33724900  0.49824400  1
  Co  Co13  1  0.00301900  0.66301000  0.00167100  1
  Co  Co14  1  0.00353000  0.66327300  0.31335900  1
  Co  Co15  1  0.00283300  0.33465100  0.18715600  1
  O  O0  1  0.85380400  0.14583000  0.25071100  1
  O  O1  1  0.85488600  0.85390500  0.24957800  1
  O  O2  1  0.83645700  0.16827200  0.92678700  1
  O  O3  1  0.83645200  0.83152300  0.57330900  1
  O  O4  1  0.82888000  0.49303800  0.58689300  1
  O  O5  1  0.82870000  0.50653200  0.91345000  1
  O  O6  1  0.82652100  0.15947500  0.59599100  1
  O  O7  1  0.82703400  0.83985700  0.90381100  1
  O  O8  1  0.78499700  0.50047900  0.24965300  1
  O  O9  1  0.71665300  0.99994500  0.75012100  1
  O  O10  1  0.66993500  0.33828800  0.09754400  1
  O  O11  1  0.66953700  0.66153600  0.40251000  1
  O  O12  1  0.67313500  0.99339200  0.41397900  1
  O  O13  1  0.67345400  0.00632500  0.08629300  1
  O  O14  1  0.66476000  0.33177800  0.42699800  1
  O  O15  1  0.66446400  0.66825800  0.07308700  1
  O  O16  1  0.64404900  0.35347900  0.74990100  1
  O  O17  1  0.64479100  0.64593400  0.74990700  1
  O  O18  1  0.35384800  0.64617300  0.24914800  1
  O  O19  1  0.35359800  0.35448600  0.25088500  1
  O  O20  1  0.33637100  0.66859800  0.57315200  1
  O  O21  1  0.33652400  0.33175600  0.92681100  1
  O  O22  1  0.32906300  0.00734300  0.58717800  1
  O  O23  1  0.32883800  0.99350900  0.91348500  1
  O  O24  1  0.32611200  0.34066400  0.59593900  1
  O  O25  1  0.32701500  0.66007100  0.90377800  1
  O  O26  1  0.28648500  0.00053700  0.25021800  1
  O  O27  1  0.21654600  0.50008600  0.75007900  1
  O  O28  1  0.17018300  0.16152800  0.09773500  1
  O  O29  1  0.16951200  0.83853500  0.40255400  1
  O  O30  1  0.17292700  0.49335000  0.08620500  1
  O  O31  1  0.17250800  0.50671700  0.41345400  1
  O  O32  1  0.16456900  0.16818200  0.42688700  1
  O  O33  1  0.16471000  0.83168700  0.07324300  1
  O  O34  1  0.14418500  0.14628300  0.75002400  1
  O  O35  1  0.14492100  0.85402900  0.74998500  1
loop_
_geom_bond_atom_site_label_1
_geom_bond_atom_site_label_2
_geom_bond_distance
_geom_bond_site_symmetry_2
Co0 O27 2.033825 1_655
Co0 O16 2.040050 1_555
Co0 O34 2.041077 1_655
Co0 O24 2.196590 1_655
Co0 O4 2.256381 1_555
Co0 O6 2.293210 1_555
Co1 O27 2.031518 1_655
Co1 O17 2.036462 1_555
Co1 O35 2.039360 1_655
Co1 O25 2.201426 1_655
Co1 O5 2.268637 1_555
Co1 O7 2.287077 1_555
Co2 O3 2.017114 1_555
Co2 O20 2.055492 1_655
Co2 O31 2.102721 1_655
Co2 O4 2.147724 1_555
Co2 O11 2.225978 1_555
Co2 O29 2.313211 1_655
Co3 O2 2.016919 1_555
Co3 O21 2.052088 1_655
Co3 O30 2.103314 1_656
Co3 O5 2.137037 1_555
Co3 O10 2.229416 1_556
Co3 O28 2.322578 1_656
Co4 O14 2.016206 1_555
Co4 O32 2.044562 1_555
Co4 O22 2.104042 1_555
Co4 O12 2.144405 1_545
Co4 O6 2.202818 1_555
Co4 O24 2.319982 1_555
Co5 O15 2.016633 1_555
Co5 O33 2.043775 1_555
Co5 O23 2.103523 1_554
Co5 O13 2.142556 1_565
Co5 O7 2.207504 1_554
Co5 O25 2.319853 1_554
Co6 O1 2.058450 1_555
Co6 O26 2.061081 1_565
Co6 O18 2.066424 1_555
Co6 O29 2.170569 1_555
Co6 O11 2.215286 1_555
Co6 O12 2.240192 1_555
Co7 O0 2.050133 1_555
Co7 O26 2.072728 1_555
Co7 O19 2.086564 1_555
Co7 O28 2.166829 1_555
Co7 O10 2.198302 1_555
Co7 O13 2.220457 1_555
Co8 O9 2.032530 1_555
Co8 O35 2.036110 1_555
Co8 O17 2.039818 1_555
Co8 O7 2.200827 1_555
Co8 O23 2.268561 1_555
Co8 O25 2.286309 1_555
Co9 O9 2.035275 1_545
Co9 O34 2.041801 1_555
Co9 O16 2.042185 1_555
Co9 O6 2.194925 1_555
Co9 O22 2.246703 1_555
Co9 O24 2.292787 1_555
Co10 O21 2.018783 1_555
Co10 O2 2.053238 1_555
Co10 O13 2.104211 1_556
Co10 O23 2.139753 1_545
Co10 O28 2.228263 1_556
Co10 O10 2.316083 1_556
Co11 O20 2.016573 1_555
Co11 O3 2.053848 1_555
Co11 O12 2.100367 1_555
Co11 O22 2.141209 1_565
Co11 O29 2.230251 1_555
Co11 O11 2.324316 1_555
Co12 O32 2.016932 1_555
Co12 O14 2.043813 1_455
Co12 O4 2.104656 1_455
Co12 O31 2.143509 1_555
Co12 O24 2.200430 1_555
Co12 O6 2.323358 1_455
Co13 O33 2.017181 1_555
Co13 O15 2.044690 1_455
Co13 O5 2.104981 1_454
Co13 O30 2.144150 1_555
Co13 O25 2.206641 1_554
Co13 O7 2.317082 1_454
Co14 O18 2.052716 1_555
Co14 O8 2.066766 1_455
Co14 O1 2.089398 1_455
Co14 O11 2.167899 1_455
Co14 O31 2.203749 1_555
Co14 O29 2.211168 1_555
Co15 O19 2.053874 1_555
Co15 O0 2.075508 1_455
Co15 O8 2.075864 1_455
Co15 O10 2.167915 1_455
Co15 O28 2.202087 1_555
Co15 O30 2.226419 1_555
O0 Ta6 2.006204 1_555
O0 Ta7 2.292092 1_545
O1 Ta7 2.000349 1_555
O1 Ta6 2.290756 1_565
O2 Ta0 1.865069 1_555
O3 Ta1 1.864915 1_555
O4 Ta4 1.929774 1_555
O5 Ta5 1.927741 1_555
O6 Ta1 1.995173 1_545
O7 Ta0 2.000731 1_565
O8 Ta3 2.135858 1_555
O8 Ta2 2.136410 1_555
O9 Ta1 2.130784 1_555
O9 Ta0 2.135905 1_565
O10 Ta3 2.019475 1_555
O11 Ta2 2.015247 1_555
O12 Ta6 1.924072 1_565
O13 Ta7 1.925127 1_545
O14 Ta2 1.864920 1_555
O15 Ta3 1.866670 1_555
O16 Ta5 2.031290 1_555
O16 Ta4 2.287333 1_555
O17 Ta4 2.030102 1_555
O17 Ta5 2.284621 1_555
O18 Ta3 2.003092 1_555
O18 Ta2 2.298736 1_555
O19 Ta2 2.001692 1_555
O19 Ta3 2.293823 1_555
O20 Ta4 1.865506 1_555
O21 Ta5 1.865325 1_555
O22 Ta1 1.932302 1_445
O23 Ta0 1.927073 1_465
O24 Ta4 1.996961 1_555
O25 Ta5 2.000318 1_555
O26 Ta6 2.141916 1_455
O26 Ta7 2.142796 1_445
O27 Ta4 2.134280 1_555
O27 Ta5 2.135064 1_555
O28 Ta7 2.020990 1_445
O29 Ta6 2.013897 1_465
O30 Ta3 1.923832 1_555
O31 Ta2 1.931672 1_555
O32 Ta6 1.866682 1_455
O33 Ta7 1.867019 1_455
O34 Ta0 2.029950 1_455
O34 Ta1 2.285728 1_445
O35 Ta1 2.030892 1_455
O35 Ta0 2.285009 1_465
