# generated using pymatgen
data_LuNbO4
_symmetry_space_group_name_H-M   'P 1'
_cell_length_a   5.32870834
_cell_length_b   5.04969083
_cell_length_c   5.23451340
_cell_angle_alpha   85.21973803
_cell_angle_beta   90.00000000
_cell_angle_gamma   90.00000000
_symmetry_Int_Tables_number   1
_chemical_formula_structural   LuNbO4
_chemical_formula_sum   'Lu2 Nb2 O8'
_cell_volume   140.36207616
_cell_formula_units_Z   2
loop_
 _symmetry_equiv_pos_site_id
 _symmetry_equiv_pos_as_xyz
  1  'x, y, z'
loop_
 _atom_site_type_symbol
 _atom_site_label
 _atom_site_symmetry_multiplicity
 _atom_site_fract_x
 _atom_site_fract_y
 _atom_site_fract_z
 _atom_site_occupancy
  Lu  Lu0  1  0.24152216  0.50000000  0.75000000  1
  Lu  Lu1  1  0.75847784  0.50000000  0.25000000  1
  Nb  Nb0  1  0.71429957  -0.00000000  0.75000000  1
  Nb  Nb1  1  0.28570043  -0.00000000  0.25000000  1
  O  O0  1  0.44202968  0.75704642  0.02096256  1
  O  O1  1  0.93164384  0.74803099  0.91815451  1
  O  O2  1  0.93164384  0.25196901  0.58184549  1
  O  O3  1  0.44202968  0.24295358  0.47903744  1
  O  O4  1  0.55797032  0.75704642  0.52096256  1
  O  O5  1  0.06835616  0.74803099  0.41815451  1
  O  O6  1  0.06835616  0.25196901  0.08184549  1
  O  O7  1  0.55797032  0.24295358  0.97903744  1
loop_
_geom_bond_atom_site_label_1
_geom_bond_atom_site_label_2
_geom_bond_distance
_geom_bond_site_symmetry_2
Lu0 O5 2.252756 1_555
Lu0 O6 2.252756 1_556
Lu0 O3 2.268254 1_555
Lu0 O0 2.268254 1_556
Lu0 O2 2.292126 1_455
Lu0 O1 2.292126 1_455
Lu0 O4 2.388783 1_555
Lu0 O7 2.388783 1_555
Lu1 O1 2.252756 1_554
Lu1 O2 2.252756 1_555
Lu1 O7 2.268254 1_554
Lu1 O4 2.268254 1_555
Lu1 O6 2.292126 1_655
Lu1 O5 2.292126 1_655
Lu1 O0 2.388783 1_555
Lu1 O3 2.388783 1_555
Nb0 O1 1.883710 1_545
Nb0 O2 1.883710 1_555
Nb0 O7 1.970175 1_555
Nb0 O4 1.970175 1_545
Nb0 O3 2.309071 1_555
Nb0 O0 2.309071 1_546
Nb1 O6 1.883710 1_555
Nb1 O5 1.883710 1_545
Nb1 O0 1.970175 1_545
Nb1 O3 1.970175 1_555
Nb1 O4 2.309071 1_545
Nb1 O7 2.309071 1_554
