# generated using pymatgen
data_Li6Cr5CuO12
_symmetry_space_group_name_H-M   'P 1'
_cell_length_a   5.09468772
_cell_length_b   5.09468755
_cell_length_c   9.99949147
_cell_angle_alpha   85.71621533
_cell_angle_beta   94.28442668
_cell_angle_gamma   59.93795566
_symmetry_Int_Tables_number   1
_chemical_formula_structural   Li6Cr5CuO12
_chemical_formula_sum   'Li6 Cr5 Cu1 O12'
_cell_volume   222.10610832
_cell_formula_units_Z   1
loop_
 _symmetry_equiv_pos_site_id
 _symmetry_equiv_pos_as_xyz
  1  'x, y, z'
loop_
 _atom_site_type_symbol
 _atom_site_label
 _atom_site_symmetry_multiplicity
 _atom_site_fract_x
 _atom_site_fract_y
 _atom_site_fract_z
 _atom_site_occupancy
  Li  Li0  1  0.11434400  0.88563300  0.25128800  1
  Li  Li1  1  0.22070400  0.44823400  0.74218800  1
  Li  Li2  1  0.55173000  0.77932300  0.74215400  1
  Li  Li3  1  0.44822400  0.22070400  0.25780200  1
  Li  Li4  1  0.77930900  0.55173000  0.25782800  1
  Li  Li5  1  0.88564200  0.11434500  0.74870800  1
  Cr  Cr0  1  0.83341200  0.83342800  0.50000800  1
  Cr  Cr1  1  0.49999100  0.49998200  0.50001700  1
  Cr  Cr2  1  0.16655900  0.16656300  0.50000500  1
  Cr  Cr3  1  0.66671700  0.66670300  0.00000400  1
  Cr  Cr4  1  0.33330400  0.33333200  0.99999400  1
  Cu  Cu0  1  0.00008700  0.00007900  0.99998600  1
  O  O0  1  0.19852600  0.80145900  0.61047400  1
  O  O1  1  0.69842300  0.96445900  0.11184400  1
  O  O2  1  0.03555800  0.30158700  0.11185900  1
  O  O3  1  0.13499500  0.53147600  0.38931900  1
  O  O4  1  0.46850100  0.86499100  0.38931700  1
  O  O5  1  0.37745800  0.62252900  0.11383900  1
  O  O6  1  0.62253300  0.37744900  0.88615100  1
  O  O7  1  0.53146700  0.13499300  0.61070200  1
  O  O8  1  0.86499900  0.46851100  0.61070600  1
  O  O9  1  0.96446200  0.69841900  0.88814500  1
  O  O10  1  0.30160100  0.03554800  0.88812600  1
  O  O11  1  0.80145700  0.19852200  0.38953400  1
loop_
_geom_bond_atom_site_label_1
_geom_bond_atom_site_label_2
_geom_bond_distance
_geom_bond_site_symmetry_2
Li0 O5 2.057426 1_555
Li0 O4 2.141902 1_555
Li0 O3 2.141907 1_555
Li0 O11 2.259590 1_465
Li0 O1 2.284285 1_455
Li0 O2 2.284419 1_565
Li1 O9 2.086752 1_455
Li1 O0 2.099016 1_555
Li1 O8 2.111750 1_455
Li1 O7 2.207992 1_555
Li1 O6 2.266236 1_555
Li1 O10 2.302949 1_555
Li2 O10 2.086739 1_565
Li2 O0 2.098820 1_555
Li2 O7 2.111486 1_565
Li2 O8 2.207883 1_555
Li2 O6 2.266584 1_555
Li2 O9 2.303400 1_555
Li3 O1 2.086791 1_545
Li3 O11 2.099128 1_555
Li3 O4 2.111977 1_545
Li3 O3 2.208204 1_555
Li3 O5 2.266265 1_555
Li3 O2 2.302909 1_555
Li4 O2 2.086786 1_655
Li4 O11 2.098968 1_555
Li4 O3 2.111774 1_655
Li4 O4 2.208147 1_555
Li4 O5 2.266443 1_555
Li4 O1 2.303391 1_555
Li5 O6 2.057370 1_555
Li5 O8 2.141792 1_555
Li5 O7 2.141827 1_555
Li5 O0 2.259492 1_645
Li5 O9 2.284290 1_545
Li5 O10 2.284351 1_655
Cr0 O11 2.017265 1_565
Cr0 O0 2.017272 1_655
Cr0 O4 2.018341 1_555
Cr0 O8 2.018359 1_555
Cr0 O7 2.023035 1_565
Cr0 O3 2.023056 1_655
Cr1 O7 2.018844 1_555
Cr1 O3 2.018887 1_555
Cr1 O8 2.018945 1_555
Cr1 O4 2.018971 1_555
Cr1 O0 2.020253 1_555
Cr1 O11 2.020391 1_555
Cr2 O0 2.017258 1_545
Cr2 O11 2.017266 1_455
Cr2 O3 2.018334 1_555
Cr2 O7 2.018342 1_555
Cr2 O4 2.023004 1_545
Cr2 O8 2.023077 1_455
Cr3 O1 2.012448 1_555
Cr3 O9 2.012548 1_554
Cr3 O5 2.015627 1_555
Cr3 O6 2.015727 1_554
Cr3 O2 2.028654 1_655
Cr3 O10 2.028758 1_564
Cr4 O2 2.012650 1_556
Cr4 O10 2.012730 1_555
Cr4 O5 2.015371 1_556
Cr4 O6 2.015423 1_555
Cr4 O9 2.028571 1_455
Cr4 O1 2.028709 1_546
Cu0 O10 2.036686 1_555
Cu0 O2 2.036732 1_556
Cu0 O9 2.037525 1_445
Cu0 O1 2.037643 1_446
Cu0 O6 2.081541 1_455
Cu0 O5 2.081608 1_546
