# generated using pymatgen
data_Na9(WO3)16
_symmetry_space_group_name_H-M   'P 1'
_cell_length_a   6.75804917
_cell_length_b   6.75804917
_cell_length_c   22.07124329
_cell_angle_alpha   89.92779407
_cell_angle_beta   89.92779407
_cell_angle_gamma   70.52349402
_symmetry_Int_Tables_number   1
_chemical_formula_structural   Na9(WO3)16
_chemical_formula_sum   'Na9 W16 O48'
_cell_volume   950.33899123
_cell_formula_units_Z   1
loop_
 _symmetry_equiv_pos_site_id
 _symmetry_equiv_pos_as_xyz
  1  'x, y, z'
loop_
 _atom_site_type_symbol
 _atom_site_label
 _atom_site_symmetry_multiplicity
 _atom_site_fract_x
 _atom_site_fract_y
 _atom_site_fract_z
 _atom_site_occupancy
  Na  Na0  1  0.50000000  0.50000000  0.00000000  1
  Na  Na1  1  0.24956100  0.24956100  0.87421700  1
  Na  Na2  1  0.25000700  0.25000700  0.62481000  1
  Na  Na3  1  0.75039500  0.75039500  0.87409100  1
  Na  Na4  1  0.74998000  0.74998000  0.62479800  1
  Na  Na5  1  0.25002000  0.25002000  0.37520200  1
  Na  Na6  1  0.24960500  0.24960500  0.12590900  1
  Na  Na7  1  0.74999300  0.74999300  0.37519000  1
  Na  Na8  1  0.75043900  0.75043900  0.12578300  1
  W  W0  1  0.00000000  0.50000000  0.00000000  1
  W  W1  1  0.00009100  0.50021100  0.74936800  1
  W  W2  1  0.24907900  0.75134500  0.87363700  1
  W  W3  1  0.75134500  0.24907900  0.87363700  1
  W  W4  1  0.50000000  0.00000000  0.00000000  1
  W  W5  1  0.75001900  0.25002100  0.62479200  1
  W  W6  1  0.25002100  0.75001900  0.62479200  1
  W  W7  1  0.50021100  0.00009100  0.74936800  1
  W  W8  1  0.00000000  0.50000000  0.50000000  1
  W  W9  1  0.24998100  0.74997900  0.37520800  1
  W  W10  1  0.50000000  0.00000000  0.50000000  1
  W  W11  1  0.74997900  0.24998100  0.37520800  1
  W  W12  1  0.99990900  0.49978900  0.25063200  1
  W  W13  1  0.75092100  0.24865500  0.12636300  1
  W  W14  1  0.24865500  0.75092100  0.12636300  1
  W  W15  1  0.49978900  0.99990900  0.25063200  1
  O  O0  1  0.14539500  0.61526600  0.94006000  1
  O  O1  1  0.61526600  0.14539500  0.94006000  1
  O  O2  1  0.12867400  0.60480300  0.81657400  1
  O  O3  1  0.60480300  0.12867400  0.81657400  1
  O  O4  1  0.74780300  0.74780300  0.99347800  1
  O  O5  1  0.51250800  0.51250800  0.87594000  1
  O  O6  1  0.01208700  0.01208700  0.62483600  1
  O  O7  1  0.25040200  0.25040200  0.74400200  1
  O  O8  1  0.37192000  0.89305500  0.93374800  1
  O  O9  1  0.89305500  0.37192000  0.93374800  1
  O  O10  1  0.64026500  0.11705400  0.68915200  1
  O  O11  1  0.35962600  0.88351000  0.81058300  1
  O  O12  1  0.88351000  0.35962600  0.81058300  1
  O  O13  1  0.11705400  0.64026500  0.68915200  1
  O  O14  1  0.62882600  0.10489500  0.56653400  1
  O  O15  1  0.10489500  0.62882600  0.56653400  1
  O  O16  1  0.98751500  0.98751500  0.87493700  1
  O  O17  1  0.74972800  0.74972800  0.75605400  1
  O  O18  1  0.24967200  0.24967200  0.50603600  1
  O  O19  1  0.48797700  0.48797700  0.62513700  1
  O  O20  1  0.87100300  0.39507300  0.68337400  1
  O  O21  1  0.39507300  0.87100300  0.68337400  1
  O  O22  1  0.85998600  0.38329000  0.56073400  1
  O  O23  1  0.14001400  0.61671000  0.43926600  1
  O  O24  1  0.61671000  0.14001400  0.43926600  1
  O  O25  1  0.38329000  0.85998600  0.56073400  1
  O  O26  1  0.60492700  0.12899700  0.31662600  1
  O  O27  1  0.12899700  0.60492800  0.31662600  1
  O  O28  1  0.51202300  0.51202300  0.37486300  1
  O  O29  1  0.75032800  0.75032800  0.49396400  1
  O  O30  1  0.01248500  0.01248500  0.12506300  1
  O  O31  1  0.25027200  0.25027200  0.24394600  1
  O  O32  1  0.37117400  0.89510500  0.43346600  1
  O  O33  1  0.89510500  0.37117400  0.43346600  1
  O  O34  1  0.35973500  0.88294600  0.31084800  1
  O  O35  1  0.11649000  0.64037400  0.18941700  1
  O  O36  1  0.64037400  0.11649000  0.18941700  1
  O  O37  1  0.88294600  0.35973500  0.31084800  1
  O  O38  1  0.10694500  0.62808000  0.06625200  1
  O  O39  1  0.62808000  0.10694500  0.06625200  1
  O  O40  1  0.48749200  0.48749200  0.12406000  1
  O  O41  1  0.25219700  0.25219700  0.00652200  1
  O  O42  1  0.98791300  0.98791300  0.37516400  1
  O  O43  1  0.74959800  0.74959800  0.25599800  1
  O  O44  1  0.39519700  0.87132600  0.18342600  1
  O  O45  1  0.87132600  0.39519700  0.18342600  1
  O  O46  1  0.38473400  0.85460500  0.05994000  1
  O  O47  1  0.85460500  0.38473400  0.05994000  1
loop_
_geom_bond_atom_site_label_1
_geom_bond_atom_site_label_2
_geom_bond_distance
_geom_bond_site_symmetry_2
Na0 O1 2.619251 1_554
Na0 O0 2.619251 1_554
Na0 O46 2.619251 1_555
Na0 O47 2.619251 1_555
Na0 O41 2.738369 1_555
Na0 O4 2.738369 1_554
Na0 O5 2.741423 1_554
Na0 O40 2.741423 1_555
Na0 O38 2.898875 1_555
Na0 O39 2.898875 1_555
Na0 O8 2.898875 1_554
Na0 O9 2.898875 1_554
Na1 O2 2.595507 1_555
Na1 O3 2.595507 1_555
Na1 O8 2.623179 1_545
Na1 O9 2.623179 1_455
Na1 O12 2.724808 1_455
Na1 O11 2.724808 1_545
Na1 O1 2.749879 1_555
Na1 O0 2.749879 1_555
Na1 O7 2.874008 1_555
Na1 O16 2.892013 1_445
Na1 O5 2.902246 1_555
Na1 O41 2.920326 1_556
Na2 O18 2.621498 1_555
Na2 O6 2.625734 1_555
Na2 O19 2.626307 1_555
Na2 O7 2.630726 1_555
Na2 O15 2.736932 1_555
Na2 O14 2.736932 1_555
Na2 O21 2.740924 1_545
Na2 O20 2.740924 1_455
Na2 O22 2.860375 1_455
Na2 O25 2.860375 1_545
Na2 O13 2.864580 1_555
Na2 O10 2.864580 1_555
Na3 O17 2.605245 1_555
Na3 O16 2.617001 1_555
Na3 O5 2.625625 1_555
Na3 O4 2.635131 1_555
Na3 O2 2.726285 1_655
Na3 O3 2.726285 1_565
Na3 O8 2.748750 1_555
Na3 O9 2.748750 1_555
Na3 O11 2.858321 1_555
Na3 O12 2.858321 1_555
Na3 O1 2.908719 1_565
Na3 O0 2.908719 1_655
Na4 O15 2.600450 1_655
Na4 O14 2.600450 1_565
Na4 O21 2.603806 1_555
Na4 O20 2.603806 1_555
Na4 O25 2.733257 1_555
Na4 O22 2.733257 1_555
Na4 O10 2.738758 1_565
Na4 O13 2.738758 1_655
Na4 O29 2.887666 1_555
Na4 O19 2.891518 1_555
Na4 O6 2.892669 1_665
Na4 O17 2.896980 1_555
Na5 O32 2.600450 1_545
Na5 O33 2.600450 1_455
Na5 O26 2.603806 1_555
Na5 O27 2.603812 1_555
Na5 O23 2.733257 1_555
Na5 O24 2.733257 1_555
Na5 O34 2.738758 1_545
Na5 O37 2.738758 1_455
Na5 O18 2.887666 1_555
Na5 O28 2.891518 1_555
Na5 O42 2.892669 1_445
Na5 O31 2.896980 1_555
Na6 O31 2.605245 1_555
Na6 O30 2.617001 1_555
Na6 O40 2.625625 1_555
Na6 O41 2.635131 1_555
Na6 O45 2.726285 1_455
Na6 O44 2.726285 1_545
Na6 O38 2.748750 1_555
Na6 O39 2.748750 1_555
Na6 O35 2.858321 1_555
Na6 O36 2.858321 1_555
Na6 O46 2.908719 1_545
Na6 O47 2.908719 1_455
Na7 O29 2.621498 1_555
Na7 O42 2.625734 1_555
Na7 O28 2.626307 1_555
Na7 O43 2.630726 1_555
Na7 O32 2.736932 1_555
Na7 O33 2.736932 1_555
Na7 O27 2.740924 1_655
Na7 O26 2.740924 1_565
Na7 O23 2.860375 1_655
Na7 O24 2.860375 1_565
Na7 O37 2.864580 1_555
Na7 O34 2.864580 1_555
Na8 O44 2.595507 1_555
Na8 O45 2.595507 1_555
Na8 O38 2.623179 1_655
Na8 O39 2.623179 1_565
Na8 O36 2.724808 1_565
Na8 O35 2.724808 1_655
Na8 O47 2.749879 1_555
Na8 O46 2.749879 1_555
Na8 O43 2.874008 1_555
Na8 O30 2.892013 1_665
Na8 O40 2.902246 1_555
Na8 O4 2.920326 1_554
O0 W0 1.956273 1_556
O0 W2 1.977292 1_555
O1 W4 1.956273 1_556
O1 W3 1.977292 1_555
O2 W2 1.942214 1_555
O2 W1 1.967345 1_555
O3 W3 1.942214 1_555
O3 W7 1.967345 1_555
O4 W4 1.956210 1_566
O4 W0 1.956210 1_656
O5 W3 1.964950 1_555
O5 W2 1.964950 1_555
O6 W5 1.955302 1_455
O6 W6 1.955302 1_545
O7 W1 1.954814 1_555
O7 W7 1.954814 1_555
O8 W4 1.957754 1_566
O8 W2 1.975518 1_555
O9 W0 1.957754 1_656
O9 W3 1.975518 1_555
O10 W7 1.944241 1_555
O10 W5 1.952959 1_555
O11 W2 1.931809 1_555
O11 W7 1.960116 1_565
O12 W3 1.931809 1_555
O12 W1 1.960116 1_655
O13 W1 1.944241 1_555
O13 W6 1.952959 1_555
O14 W5 1.956414 1_555
O14 W10 1.958147 1_555
O15 W6 1.956414 1_555
O15 W8 1.958147 1_555
O16 W3 1.947170 1_565
O16 W2 1.947170 1_655
O17 W1 1.955865 1_655
O17 W7 1.955865 1_565
O18 W8 1.955300 1_555
O18 W10 1.955300 1_555
O19 W6 1.955282 1_555
O19 W5 1.955282 1_555
O20 W1 1.951064 1_655
O20 W5 1.959983 1_555
O21 W7 1.951064 1_565
O21 W6 1.959983 1_555
O22 W5 1.950091 1_555
O22 W8 1.950927 1_655
O23 W9 1.950091 1_555
O23 W8 1.950927 1_555
O24 W11 1.950091 1_555
O24 W10 1.950927 1_555
O25 W6 1.950091 1_555
O25 W10 1.950927 1_565
O26 W15 1.951064 1_545
O26 W11 1.959983 1_555
O27 W12 1.951068 1_455
O27 W9 1.959979 1_555
O28 W11 1.955282 1_555
O28 W9 1.955282 1_555
O29 W10 1.955300 1_565
O29 W8 1.955300 1_655
O30 W14 1.947170 1_545
O30 W13 1.947170 1_455
O31 W15 1.955865 1_545
O31 W12 1.955865 1_455
O32 W9 1.956414 1_555
O32 W10 1.958147 1_565
O33 W11 1.956414 1_555
O33 W8 1.958147 1_655
O34 W15 1.944241 1_555
O34 W9 1.952959 1_555
O35 W14 1.931809 1_555
O35 W12 1.960116 1_455
O36 W13 1.931809 1_555
O36 W15 1.960116 1_545
O37 W12 1.944241 1_555
O37 W11 1.952959 1_555
O38 W0 1.957754 1_555
O38 W14 1.975518 1_555
O39 W4 1.957754 1_555
O39 W13 1.975518 1_555
O40 W13 1.964950 1_555
O40 W14 1.964950 1_555
O41 W0 1.956210 1_555
O41 W4 1.956210 1_555
O42 W11 1.955302 1_565
O42 W9 1.955302 1_655
O43 W15 1.954814 1_555
O43 W12 1.954814 1_555
O44 W14 1.942214 1_555
O44 W15 1.967345 1_555
O45 W13 1.942214 1_555
O45 W12 1.967345 1_555
O46 W4 1.956273 1_565
O46 W14 1.977292 1_555
O47 W0 1.956273 1_655
O47 W13 1.977292 1_555
