# generated using pymatgen
data_NaBH8O7
_symmetry_space_group_name_H-M   'P 1'
_cell_length_a   6.87920400
_cell_length_b   7.06421386
_cell_length_c   7.41734753
_cell_angle_alpha   69.12590827
_cell_angle_beta   77.85535078
_cell_angle_gamma   64.01818671
_symmetry_Int_Tables_number   1
_chemical_formula_structural   NaBH8O7
_chemical_formula_sum   'Na2 B2 H16 O14'
_cell_volume   302.12456579
_cell_formula_units_Z   2
loop_
 _symmetry_equiv_pos_site_id
 _symmetry_equiv_pos_as_xyz
  1  'x, y, z'
loop_
 _atom_site_type_symbol
 _atom_site_label
 _atom_site_symmetry_multiplicity
 _atom_site_fract_x
 _atom_site_fract_y
 _atom_site_fract_z
 _atom_site_occupancy
  Na  Na0  1  0.00000000  0.00000000  0.00000000  1
  Na  Na1  1  0.50000000  0.00000000  0.00000000  1
  B  B0  1  0.81420500  0.51032200  0.63274400  1
  B  B1  1  0.18579500  0.48967800  0.36725600  1
  H  H0  1  0.82663500  0.89785100  0.68442400  1
  H  H1  1  0.17336500  0.10214900  0.31557600  1
  H  H2  1  0.82935500  0.13061100  0.65254800  1
  H  H3  1  0.17064500  0.86938900  0.34745200  1
  H  H4  1  0.40922100  0.82662300  0.74793300  1
  H  H5  1  0.59077900  0.17337700  0.25206700  1
  H  H6  1  0.25261200  0.07870400  0.67624900  1
  H  H7  1  0.74738800  0.92129600  0.32375100  1
  H  H8  1  0.18731200  0.42595800  0.82607400  1
  H  H9  1  0.81268800  0.57404200  0.17392600  1
  H  H10  1  0.40150200  0.46225900  0.81038200  1
  H  H11  1  0.59849800  0.53774100  0.18961800  1
  H  H12  1  0.82319700  0.46422100  0.91901000  1
  H  H13  1  0.17680300  0.53577900  0.08099000  1
  H  H14  1  0.52006200  0.67360800  0.50973400  1
  H  H15  1  0.47993800  0.32639200  0.49026600  1
  O  O0  1  0.79142200  0.00997700  0.74926900  1
  O  O1  1  0.20857800  0.99002300  0.25073100  1
  O  O2  1  0.31545200  0.95567500  0.79327800  1
  O  O3  1  0.68454800  0.04432500  0.20672200  1
  O  O4  1  0.30328700  0.39780500  0.90241500  1
  O  O5  1  0.69671300  0.60219500  0.09758500  1
  O  O6  1  0.89772800  0.38508500  0.82060900  1
  O  O7  1  0.10227200  0.61491500  0.17939100  1
  O  O8  1  0.57498200  0.59986800  0.63839300  1
  O  O9  1  0.42501800  0.40013200  0.36160700  1
  O  O10  1  0.87062300  0.71059000  0.53697900  1
  O  O11  1  0.12937700  0.28941000  0.46302100  1
  O  O12  1  0.88929700  0.36920100  0.50093700  1
  O  O13  1  0.11070300  0.63079900  0.49906300  1
loop_
_geom_bond_atom_site_label_1
_geom_bond_atom_site_label_2
_geom_bond_distance
_geom_bond_site_symmetry_2
Na0 O2 2.346284 1_544
Na0 O3 2.346284 1_455
Na0 O6 2.408975 1_454
Na0 O7 2.408975 1_545
Na0 O1 2.542291 1_545
Na0 O0 2.542291 1_454
Na1 O3 2.360168 1_555
Na1 O2 2.360168 1_544
Na1 O4 2.425475 1_554
Na1 O5 2.425475 1_545
Na1 O0 2.438102 1_554
Na1 O1 2.438102 1_545
B0 O6 1.437891 1_555
B0 O8 1.479152 1_555
B0 O12 1.499114 1_555
B0 O10 1.518426 1_555
B1 O7 1.437891 1_555
B1 O9 1.479152 1_555
B1 O13 1.499114 1_555
B1 O11 1.518426 1_555
H0 O0 0.985784 1_565
H1 O1 0.985784 1_545
H2 O0 0.994678 1_555
H3 O1 0.994678 1_555
H4 O2 0.986055 1_555
H5 O3 0.986055 1_555
H6 O2 0.993378 1_545
H7 O3 0.993378 1_565
H8 O4 0.983620 1_555
H9 O5 0.983620 1_555
H10 O4 0.991856 1_555
H11 O5 0.991856 1_555
H12 O6 0.995135 1_555
H13 O7 0.995135 1_555
H14 O8 0.974579 1_555
H15 O9 0.974579 1_555
