# generated using pymatgen
data_V4O5F7
_symmetry_space_group_name_H-M   'P 1'
_cell_length_a   5.18995800
_cell_length_b   7.44387961
_cell_length_c   5.41679174
_cell_angle_alpha   92.99508782
_cell_angle_beta   90.00000000
_cell_angle_gamma   90.00000000
_symmetry_Int_Tables_number   1
_chemical_formula_structural   V4O5F7
_chemical_formula_sum   'V4 O5 F7'
_cell_volume   208.98334604
_cell_formula_units_Z   1
loop_
 _symmetry_equiv_pos_site_id
 _symmetry_equiv_pos_as_xyz
  1  'x, y, z'
loop_
 _atom_site_type_symbol
 _atom_site_label
 _atom_site_symmetry_multiplicity
 _atom_site_fract_x
 _atom_site_fract_y
 _atom_site_fract_z
 _atom_site_occupancy
  V  V0  1  0.53078800  0.50595800  0.47552600  1
  V  V1  1  0.53078800  0.99404200  0.52447400  1
  V  V2  1  0.02863000  0.50881900  0.96523300  1
  V  V3  1  0.02863000  0.99118100  0.03476700  1
  O  O0  1  0.78228800  0.54379200  0.29611300  1
  O  O1  1  0.78228800  0.95620800  0.70388700  1
  O  O2  1  0.19424300  0.03824100  0.29369600  1
  O  O3  1  0.19424300  0.46175900  0.70630400  1
  O  O4  1  0.07761600  0.75000000  0.00000000  1
  F  F0  1  0.91280300  0.25000000  0.00000000  1
  F  F1  1  0.69446300  0.95245400  0.19740700  1
  F  F2  1  0.69446300  0.54754600  0.80259300  1
  F  F3  1  0.58969300  0.25000000  0.50000000  1
  F  F4  1  0.38977800  0.75000000  0.50000000  1
  F  F5  1  0.28464300  0.44646100  0.20484100  1
  F  F6  1  0.28464300  0.05353900  0.79515900  1
loop_
_geom_bond_atom_site_label_1
_geom_bond_atom_site_label_2
_geom_bond_distance
_geom_bond_site_symmetry_2
O0 V0 1.660162 1_555
O0 V2 2.205891 1_654
O1 V1 1.660162 1_555
O1 V3 2.205891 1_656
O2 V3 1.666536 1_545
O2 V1 2.182824 1_545
O3 V2 1.666536 1_555
O3 V0 2.182824 1_555
O4 V2 1.813271 1_554
O4 V3 1.813271 1_555
F0 V2 2.036321 1_654
F0 V3 2.036321 1_645
F1 V3 1.973227 1_655
F1 V1 1.974556 1_555
F2 V2 1.973227 1_655
F2 V0 1.974556 1_555
F3 V1 1.941051 1_545
F3 V0 1.941051 1_555
F4 V1 1.956552 1_555
F4 V0 1.956552 1_555
F5 V2 1.930913 1_554
F5 V0 1.977403 1_555
F6 V3 1.930913 1_546
F6 V1 1.977403 1_545
