# generated using pymatgen
data_Y5Tm11O24
_symmetry_space_group_name_H-M   'P 1'
_cell_length_a   9.05360226
_cell_length_b   9.05360226
_cell_length_c   10.45078139
_cell_angle_alpha   54.71312378
_cell_angle_beta   54.71312378
_cell_angle_gamma   70.50645223
_symmetry_Int_Tables_number   1
_chemical_formula_structural   Y5Tm11O24
_chemical_formula_sum   'Y5 Tm11 O24'
_cell_volume   570.76742686
_cell_formula_units_Z   1
loop_
 _symmetry_equiv_pos_site_id
 _symmetry_equiv_pos_as_xyz
  1  'x, y, z'
loop_
 _atom_site_type_symbol
 _atom_site_label
 _atom_site_symmetry_multiplicity
 _atom_site_fract_x
 _atom_site_fract_y
 _atom_site_fract_z
 _atom_site_occupancy
  Y  Y0  1  0.50105244  -0.00000287  0.74957132  1
  Y  Y1  1  0.03139096  0.96860904  0.00000000  1
  Y  Y2  1  0.49842868  0.00008398  0.25013176  1
  Y  Y3  1  0.99991602  0.50157132  0.74986824  1
  Y  Y4  1  0.00000287  0.49894756  0.25042868  1
  Tm  Tm0  1  0.28303397  0.78202224  0.71701626  1
  Tm  Tm1  1  0.21797776  0.71696603  0.28298374  1
  Tm  Tm2  1  0.25053043  0.25028626  0.46704525  1
  Tm  Tm3  1  0.25027233  0.25110495  0.96782073  1
  Tm  Tm4  1  0.46787130  0.53212870  0.50000000  1
  Tm  Tm5  1  0.53213004  0.46786996  0.00000000  1
  Tm  Tm6  1  0.74889505  0.74972767  0.03217927  1
  Tm  Tm7  1  0.74971374  0.74946957  0.53295475  1
  Tm  Tm8  1  0.71739544  0.21874053  0.78138313  1
  Tm  Tm9  1  0.78125947  0.28260456  0.21861687  1
  Tm  Tm10  1  0.96805075  0.03194925  0.50000000  1
  O  O0  1  0.24205901  0.45617854  0.52058472  1
  O  O1  1  0.26160007  0.04346357  0.71556820  1
  O  O2  1  0.73046895  0.03058065  0.47640745  1
  O  O3  1  0.03033706  0.72804342  0.97606418  1
  O  O4  1  0.53112684  0.22976983  0.26203110  1
  O  O5  1  0.23107453  0.53134492  0.76138478  1
  O  O6  1  0.95653643  0.73839993  0.28443180  1
  O  O7  1  0.54382146  0.75794099  0.47941528  1
  O  O8  1  0.27351617  0.51247376  0.20650169  1
  O  O9  1  0.22638436  0.98740884  0.49252546  1
  O  O10  1  0.98741026  0.23040481  0.99242985  1
  O  O11  1  0.51255070  0.27345420  0.70645648  1
  O  O12  1  0.76959519  0.01258974  0.00757015  1
  O  O13  1  0.01259116  0.77361564  0.50747454  1
  O  O14  1  0.72654580  0.48744930  0.29354352  1
  O  O15  1  0.48752624  0.72648383  0.79349831  1
  O  O16  1  0.45619588  0.24354749  0.01972565  1
  O  O17  1  0.04319647  0.25720753  0.21968186  1
  O  O18  1  0.77023017  0.46887316  0.73796890  1
  O  O19  1  0.46865508  0.76892547  0.23861522  1
  O  O20  1  0.96941935  0.26953105  0.52359255  1
  O  O21  1  0.27195658  0.96966294  0.02393582  1
  O  O22  1  0.75645251  0.54380412  0.98027435  1
  O  O23  1  0.74279247  0.95680353  0.78031814  1
loop_
_geom_bond_atom_site_label_1
_geom_bond_atom_site_label_2
_geom_bond_distance
_geom_bond_site_symmetry_2
O0 Tm2 2.203117 1_555
O0 Tm4 2.226640 1_555
O0 Y3 2.276837 1_455
O0 Tm1 2.301394 1_555
O1 Tm2 2.195150 1_555
O1 Y1 2.257578 1_546
O1 Y0 2.267173 1_555
O1 Tm0 2.301296 1_545
O2 Tm9 2.200630 1_555
O2 Tm7 2.223127 1_545
O2 Y0 2.271677 1_555
O2 Tm10 2.306874 1_555
O3 Tm0 2.205437 1_555
O3 Tm6 2.224369 1_456
O3 Y4 2.279984 1_556
O3 Y1 2.335030 1_556
O4 Tm9 2.201868 1_555
O4 Tm2 2.221510 1_555
O4 Y2 2.275855 1_555
O4 Tm5 2.304379 1_555
O5 Tm0 2.198132 1_555
O5 Tm3 2.221892 1_555
O5 Y3 2.274210 1_455
O5 Tm4 2.297812 1_555
O6 Tm7 2.195150 1_555
O6 Y1 2.257578 1_655
O6 Y4 2.267173 1_655
O6 Tm1 2.301296 1_655
O7 Tm7 2.203117 1_555
O7 Tm4 2.226640 1_555
O7 Y2 2.276837 1_565
O7 Tm0 2.301394 1_555
O8 Tm5 2.200121 1_555
O8 Tm1 2.223378 1_555
O8 Y4 2.276349 1_555
O8 Tm2 2.302089 1_555
O9 Tm10 2.198816 1_465
O9 Tm0 2.222253 1_555
O9 Y2 2.267355 1_565
O9 Tm2 2.308855 1_565
O10 Tm9 2.213434 1_556
O10 Y1 2.229912 1_646
O10 Y3 2.264901 1_555
O10 Tm3 2.302127 1_655
O11 Tm4 2.200408 1_555
O11 Tm8 2.216878 1_555
O11 Y0 2.274267 1_555
O11 Tm3 2.308446 1_555
O12 Tm8 2.213434 1_554
O12 Y1 2.229912 1_645
O12 Y2 2.264901 1_555
O12 Tm6 2.302127 1_545
O13 Tm10 2.198816 1_465
O13 Tm1 2.222253 1_555
O13 Y3 2.267355 1_455
O13 Tm7 2.308855 1_455
O14 Tm4 2.200408 1_555
O14 Tm9 2.216878 1_555
O14 Y4 2.274267 1_655
O14 Tm6 2.308446 1_555
O15 Tm5 2.200121 1_556
O15 Tm0 2.223378 1_555
O15 Y0 2.276349 1_565
O15 Tm7 2.302089 1_555
O16 Tm3 2.194339 1_554
O16 Tm5 2.219048 1_555
O16 Y2 2.274209 1_555
O16 Tm8 2.309452 1_554
O17 Tm3 2.200835 1_554
O17 Tm10 2.219224 1_455
O17 Y4 2.267674 1_555
O17 Tm9 2.310951 1_455
O18 Tm8 2.201868 1_555
O18 Tm7 2.221510 1_555
O18 Y3 2.275855 1_555
O18 Tm5 2.304379 1_556
O19 Tm1 2.198132 1_555
O19 Tm6 2.221892 1_555
O19 Y2 2.274210 1_565
O19 Tm4 2.297812 1_555
O20 Tm8 2.200630 1_555
O20 Tm2 2.223127 1_655
O20 Y4 2.271677 1_655
O20 Tm10 2.306874 1_555
O21 Tm1 2.205437 1_555
O21 Tm3 2.224369 1_564
O21 Y0 2.279984 1_564
O21 Y1 2.335030 1_555
O22 Tm6 2.194339 1_556
O22 Tm5 2.219048 1_556
O22 Y3 2.274209 1_555
O22 Tm9 2.309452 1_556
O23 Tm6 2.200835 1_556
O23 Tm10 2.219224 1_565
O23 Y0 2.267674 1_565
O23 Tm8 2.310951 1_565
