# generated using pymatgen
data_Li3BePCO7
_symmetry_space_group_name_H-M   'P 1'
_cell_length_a   6.84458500
_cell_length_b   4.78967200
_cell_length_c   8.15487565
_cell_angle_alpha   89.86798221
_cell_angle_beta   90.00000000
_cell_angle_gamma   90.00000000
_symmetry_Int_Tables_number   1
_chemical_formula_structural   Li3BePCO7
_chemical_formula_sum   'Li6 Be2 P2 C2 O14'
_cell_volume   267.34316480
_cell_formula_units_Z   2
loop_
 _symmetry_equiv_pos_site_id
 _symmetry_equiv_pos_as_xyz
  1  'x, y, z'
loop_
 _atom_site_type_symbol
 _atom_site_label
 _atom_site_symmetry_multiplicity
 _atom_site_fract_x
 _atom_site_fract_y
 _atom_site_fract_z
 _atom_site_occupancy
  Li  Li0  1  0.51921100  0.94775500  0.02039900  1
  Li  Li1  1  0.22631100  0.57694900  0.81862300  1
  Li  Li2  1  0.39297700  0.54331300  0.46066000  1
  Li  Li3  1  0.89297700  0.45668700  0.53934000  1
  Li  Li4  1  0.72631100  0.42305100  0.18137700  1
  Li  Li5  1  0.01921100  0.05224500  0.97960100  1
  Be  Be0  1  0.68870900  0.98373200  0.69908100  1
  Be  Be1  1  0.18870900  0.01626800  0.30091900  1
  P  P0  1  0.25835400  0.04044100  0.65379100  1
  P  P1  1  0.75835400  0.95955900  0.34620900  1
  C  C0  1  0.73340800  0.49463400  0.85077200  1
  C  C1  1  0.23340800  0.50536600  0.14922800  1
  O  O0  1  0.68940600  0.61766700  0.98584100  1
  O  O1  1  0.75834300  0.22145000  0.84947500  1
  O  O2  1  0.10213200  0.91726400  0.76716900  1
  O  O3  1  0.45679600  0.95543400  0.73695300  1
  O  O4  1  0.75731300  0.63976700  0.71848200  1
  O  O5  1  0.23714800  0.35736500  0.63163000  1
  O  O6  1  0.25449500  0.90389600  0.47852600  1
  O  O7  1  0.75449500  0.09610400  0.52147400  1
  O  O8  1  0.73714800  0.64263500  0.36837000  1
  O  O9  1  0.25731300  0.36023300  0.28151800  1
  O  O10  1  0.95679600  0.04456600  0.26304700  1
  O  O11  1  0.60213200  0.08273600  0.23283100  1
  O  O12  1  0.25834300  0.77855000  0.15052500  1
  O  O13  1  0.18940600  0.38233300  0.01415900  1
loop_
_geom_bond_atom_site_label_1
_geom_bond_atom_site_label_2
_geom_bond_distance
_geom_bond_site_symmetry_2
Li0 O11 1.935543 1_565
Li0 O0 1.984465 1_554
Li0 O12 2.228685 1_555
Li0 O3 2.350818 1_554
Li0 O1 2.516327 1_564
Li1 O5 1.855903 1_555
Li1 O13 1.862395 1_556
Li1 O2 1.884735 1_555
Li1 O3 2.492600 1_555
Li2 O9 1.941970 1_555
Li2 O5 1.966979 1_555
Li2 O6 1.975752 1_555
Li2 O8 2.518024 1_555
Li3 O4 1.941970 1_555
Li3 O8 1.966979 1_555
Li3 O7 1.975752 1_555
Li3 O5 2.518024 1_655
Li4 O8 1.855903 1_555
Li4 O0 1.862395 1_554
Li4 O11 1.884735 1_555
Li4 O10 2.492600 1_555
Li5 O2 1.935543 1_545
Li5 O13 1.984465 1_556
Li5 O1 2.228685 1_455
Li5 O10 2.350818 1_456
Li5 O12 2.516327 1_546
Be0 O7 1.608291 1_565
Be0 O3 1.622725 1_555
Be0 O4 1.720032 1_555
Be0 O1 1.741882 1_565
Be1 O6 1.608291 1_545
Be1 O10 1.622725 1_455
Be1 O9 1.720032 1_555
Be1 O12 1.741882 1_545
C0 O0 1.286155 1_555
C0 O4 1.292425 1_555
C0 O1 1.319612 1_555
C1 O13 1.286155 1_555
C1 O9 1.292425 1_555
C1 O12 1.319612 1_555
O2 P0 1.530935 1_565
O3 P0 1.571393 1_565
O5 P0 1.535146 1_555
O6 P0 1.573380 1_565
O7 P1 1.573380 1_545
O8 P1 1.535146 1_555
O10 P1 1.571393 1_545
O11 P1 1.530935 1_545
