# generated using pymatgen
data_AsPb2Cl2O3
_symmetry_space_group_name_H-M   'P 1'
_cell_length_a   5.70294400
_cell_length_b   6.91064700
_cell_length_c   9.11570227
_cell_angle_alpha   89.63371618
_cell_angle_beta   90.00000000
_cell_angle_gamma   90.00000000
_symmetry_Int_Tables_number   1
_chemical_formula_structural   AsPb2Cl2O3
_chemical_formula_sum   'As2 Pb4 Cl4 O6'
_cell_volume   359.25190047
_cell_formula_units_Z   2
loop_
 _symmetry_equiv_pos_site_id
 _symmetry_equiv_pos_as_xyz
  1  'x, y, z'
loop_
 _atom_site_type_symbol
 _atom_site_label
 _atom_site_symmetry_multiplicity
 _atom_site_fract_x
 _atom_site_fract_y
 _atom_site_fract_z
 _atom_site_occupancy
  As  As0  1  0.25000000  0.73339400  0.28629400  1
  As  As1  1  0.75000000  0.26660600  0.71370600  1
  Pb  Pb0  1  0.25000000  0.29334000  0.44951000  1
  Pb  Pb1  1  0.75000000  0.70666000  0.55049000  1
  Pb  Pb2  1  0.25000000  0.57758800  0.85816200  1
  Pb  Pb3  1  0.75000000  0.42241200  0.14183800  1
  Cl  Cl0  1  0.25000000  0.27076600  0.10025500  1
  Cl  Cl1  1  0.75000000  0.72923400  0.89974500  1
  Cl  Cl2  1  0.25000000  0.89136800  0.63920500  1
  Cl  Cl3  1  0.75000000  0.10863200  0.36079500  1
  O  O0  1  0.25000000  0.72832400  0.09915700  1
  O  O1  1  0.75000000  0.27167600  0.90084300  1
  O  O2  1  0.48655700  0.58642500  0.35128500  1
  O  O3  1  0.98655700  0.41357500  0.64871500  1
  O  O4  1  0.51344300  0.41357500  0.64871500  1
  O  O5  1  0.01344300  0.58642500  0.35128500  1
loop_
_geom_bond_atom_site_label_1
_geom_bond_atom_site_label_2
_geom_bond_distance
_geom_bond_site_symmetry_2
As0 O0 1.706469 1_555
As0 O2 1.787409 1_555
As0 O5 1.787409 1_555
As1 O1 1.706469 1_555
As1 O3 1.787409 1_555
As1 O4 1.787409 1_555
Cl0 Pb2 3.050604 1_554
Cl0 Pb3 3.062336 1_455
Cl0 Pb3 3.062336 1_555
Cl0 Pb0 3.188520 1_555
Cl1 Pb3 3.050604 1_556
Cl1 Pb2 3.062336 1_555
Cl1 Pb2 3.062336 1_655
Cl1 Pb1 3.188520 1_555
Cl2 Pb2 2.937775 1_555
Cl3 Pb3 2.937775 1_555
O0 Pb2 2.437306 1_554
O1 Pb3 2.437306 1_556
O2 Pb1 2.502872 1_555
O2 Pb0 2.588591 1_555
O2 Pb3 2.686040 1_555
O3 Pb0 2.502872 1_655
O3 Pb1 2.588591 1_555
O3 Pb2 2.686040 1_655
O4 Pb0 2.502872 1_555
O4 Pb1 2.588591 1_555
O4 Pb2 2.686040 1_555
O5 Pb1 2.502872 1_455
O5 Pb0 2.588591 1_555
O5 Pb3 2.686040 1_455
