# generated using pymatgen
data_Li3CuF4
_symmetry_space_group_name_H-M   'P 1'
_cell_length_a   2.88016607
_cell_length_b   2.88016607
_cell_length_c   20.45220000
_cell_angle_alpha   90.00000000
_cell_angle_beta   90.00000000
_cell_angle_gamma   120.00000153
_symmetry_Int_Tables_number   1
_chemical_formula_structural   Li3CuF4
_chemical_formula_sum   'Li6 Cu2 F8'
_cell_volume   146.92838828
_cell_formula_units_Z   2
loop_
 _symmetry_equiv_pos_site_id
 _symmetry_equiv_pos_as_xyz
  1  'x, y, z'
loop_
 _atom_site_type_symbol
 _atom_site_label
 _atom_site_symmetry_multiplicity
 _atom_site_fract_x
 _atom_site_fract_y
 _atom_site_fract_z
 _atom_site_occupancy
  Li  Li0  1  0.00000000  0.00000000  0.00000000  1
  Li  Li1  1  0.00000000  0.00000000  0.50000000  1
  Li  Li2  1  0.66666700  0.33333300  0.38412600  1
  Li  Li3  1  0.66666700  0.33333300  0.11587400  1
  Li  Li4  1  0.33333300  0.66666700  0.88412600  1
  Li  Li5  1  0.33333300  0.66666700  0.61587400  1
  Cu  Cu0  1  0.66666700  0.33333300  0.75000000  1
  Cu  Cu1  1  0.33333300  0.66666700  0.25000000  1
  F  F0  1  0.00000000  0.00000000  0.67169200  1
  F  F1  1  0.66666700  0.33333300  0.94192200  1
  F  F2  1  0.66666700  0.33333300  0.55807800  1
  F  F3  1  0.00000000  0.00000000  0.17169200  1
  F  F4  1  0.00000000  0.00000000  0.82830800  1
  F  F5  1  0.33333300  0.66666700  0.44192200  1
  F  F6  1  0.00000000  0.00000000  0.32830800  1
  F  F7  1  0.33333300  0.66666700  0.05807800  1
loop_
_geom_bond_atom_site_label_1
_geom_bond_atom_site_label_2
_geom_bond_distance
_geom_bond_site_symmetry_2
Cu0 F0 2.308710 1_655
Cu0 F4 2.308710 1_655
Cu0 F0 2.308712 1_665
Cu0 F4 2.308712 1_665
Cu0 F0 2.308712 1_555
Cu0 F4 2.308712 1_555
Cu1 F6 2.308710 1_565
Cu1 F3 2.308710 1_565
Cu1 F6 2.308712 1_665
Cu1 F6 2.308712 1_555
Cu1 F3 2.308712 1_555
Cu1 F3 2.308712 1_665
F0 Li5 2.017019 1_545
F0 Li5 2.017021 1_555
F0 Li5 2.017021 1_445
F1 Li4 2.040188 1_545
F1 Li4 2.040188 1_655
F1 Li4 2.040192 1_555
F1 Li0 2.043535 1_656
F1 Li0 2.043537 1_666
F1 Li0 2.043537 1_556
F2 Li5 2.040188 1_545
F2 Li5 2.040188 1_655
F2 Li5 2.040192 1_555
F2 Li1 2.043535 1_655
F2 Li1 2.043537 1_555
F2 Li1 2.043537 1_665
F3 Li3 2.017019 1_455
F3 Li3 2.017021 1_555
F3 Li3 2.017021 1_445
F4 Li4 2.017019 1_545
F4 Li4 2.017021 1_555
F4 Li4 2.017021 1_445
F5 Li2 2.040188 1_455
F5 Li2 2.040188 1_565
F5 Li2 2.040192 1_555
F5 Li1 2.043535 1_565
F5 Li1 2.043537 1_665
F5 Li1 2.043537 1_555
F6 Li2 2.017019 1_455
F6 Li2 2.017021 1_445
F6 Li2 2.017021 1_555
F7 Li3 2.040188 1_455
F7 Li3 2.040188 1_565
F7 Li3 2.040192 1_555
F7 Li0 2.043535 1_565
F7 Li0 2.043537 1_555
F7 Li0 2.043537 1_665
