# generated using pymatgen
data_Na2LiVPO6
_symmetry_space_group_name_H-M   'P 1'
_cell_length_a   12.59234400
_cell_length_b   5.97118600
_cell_length_c   8.11571643
_cell_angle_alpha   66.60972039
_cell_angle_beta   90.00000000
_cell_angle_gamma   90.00000000
_symmetry_Int_Tables_number   1
_chemical_formula_structural   Na2LiVPO6
_chemical_formula_sum   'Na8 Li4 V4 P4 O24'
_cell_volume   560.08314237
_cell_formula_units_Z   4
loop_
 _symmetry_equiv_pos_site_id
 _symmetry_equiv_pos_as_xyz
  1  'x, y, z'
loop_
 _atom_site_type_symbol
 _atom_site_label
 _atom_site_symmetry_multiplicity
 _atom_site_fract_x
 _atom_site_fract_y
 _atom_site_fract_z
 _atom_site_occupancy
  Na  Na0  1  0.90759400  0.70537700  0.43182700  1
  Na  Na1  1  0.40759400  0.29462300  0.06817300  1
  Na  Na2  1  0.66375100  0.64366400  0.54700300  1
  Na  Na3  1  0.16375100  0.35633600  0.95299700  1
  Na  Na4  1  0.83624900  0.64366400  0.04700300  1
  Na  Na5  1  0.33624900  0.35633600  0.45299700  1
  Na  Na6  1  0.59240600  0.70537700  0.93182700  1
  Na  Na7  1  0.09240600  0.29462300  0.56817300  1
  Li  Li0  1  0.47612900  0.79984700  0.24912300  1
  Li  Li1  1  0.97612900  0.20015300  0.25087700  1
  Li  Li2  1  0.02387100  0.79984700  0.74912300  1
  Li  Li3  1  0.52387100  0.20015300  0.75087700  1
  V  V0  1  0.21557900  0.91356400  0.39598000  1
  V  V1  1  0.71557900  0.08643600  0.10402000  1
  V  V2  1  0.28442100  0.91356400  0.89598000  1
  V  V3  1  0.78442100  0.08643600  0.60402000  1
  P  P0  1  0.90373500  0.27581500  0.81795300  1
  P  P1  1  0.59626500  0.27581500  0.31795300  1
  P  P2  1  0.40373500  0.72418500  0.68204700  1
  P  P3  1  0.09626500  0.72418500  0.18204700  1
  O  O0  1  0.76318500  0.80763500  0.24838100  1
  O  O1  1  0.62269000  0.08250900  0.94690900  1
  O  O2  1  0.06448000  0.97838600  0.17568300  1
  O  O3  1  0.81642300  0.37206400  0.66542100  1
  O  O4  1  0.56448000  0.02161400  0.32431700  1
  O  O5  1  0.85269800  0.26189700  0.99739500  1
  O  O6  1  0.99631900  0.46001600  0.76642500  1
  O  O7  1  0.26318500  0.19236500  0.25161900  1
  O  O8  1  0.87731000  0.08250900  0.44690900  1
  O  O9  1  0.49631900  0.53998400  0.73357500  1
  O  O10  1  0.35269800  0.73810300  0.50260500  1
  O  O11  1  0.68357700  0.37206400  0.16542100  1
  O  O12  1  0.31642300  0.62793600  0.83457900  1
  O  O13  1  0.64730200  0.26189700  0.49739500  1
  O  O14  1  0.50368100  0.46001600  0.26642500  1
  O  O15  1  0.12269000  0.91749100  0.55309100  1
  O  O16  1  0.73681500  0.80763500  0.74838100  1
  O  O17  1  0.00368100  0.53998400  0.23357500  1
  O  O18  1  0.14730200  0.73810300  0.00260500  1
  O  O19  1  0.43552000  0.97838600  0.67568300  1
  O  O20  1  0.18357700  0.62793600  0.33457900  1
  O  O21  1  0.93552000  0.02161400  0.82431700  1
  O  O22  1  0.37731000  0.91749100  0.05309100  1
  O  O23  1  0.23681500  0.19236500  0.75161900  1
loop_
_geom_bond_atom_site_label_1
_geom_bond_atom_site_label_2
_geom_bond_distance
_geom_bond_site_symmetry_2
Na0 O0 2.274713 1_555
Na0 O8 2.334615 1_565
Na0 O3 2.424338 1_555
Na0 O17 2.507932 1_655
Na0 O6 2.758600 1_555
Na0 O2 2.862004 1_655
Na1 O7 2.274713 1_555
Na1 O22 2.334615 1_545
Na1 O12 2.424338 1_554
Na1 O14 2.507932 1_555
Na1 O9 2.758600 1_554
Na1 O4 2.862004 1_555
Na2 O16 2.397219 1_555
Na2 O3 2.451991 1_555
Na2 O13 2.475940 1_555
Na2 O9 2.525247 1_555
Na2 O0 2.552623 1_555
Na2 O4 2.585272 1_565
Na3 O23 2.397219 1_555
Na3 O12 2.451991 1_555
Na3 O18 2.475940 1_556
Na3 O6 2.525247 1_455
Na3 O7 2.552623 1_556
Na3 O2 2.585272 1_546
Na4 O0 2.397219 1_555
Na4 O11 2.451991 1_555
Na4 O5 2.475940 1_554
Na4 O17 2.525247 1_655
Na4 O16 2.552623 1_554
Na4 O21 2.585272 1_564
Na5 O7 2.397219 1_555
Na5 O20 2.451991 1_555
Na5 O10 2.475940 1_555
Na5 O14 2.525247 1_555
Na5 O23 2.552623 1_555
Na5 O19 2.585272 1_545
Na6 O16 2.274713 1_555
Na6 O1 2.334615 1_565
Na6 O11 2.424338 1_556
Na6 O9 2.507932 1_555
Na6 O14 2.758600 1_556
Na6 O19 2.862004 1_555
Na7 O23 2.274713 1_555
Na7 O15 2.334615 1_545
Na7 O20 2.424338 1_555
Na7 O6 2.507932 1_455
Na7 O17 2.758600 1_555
Na7 O21 2.862004 1_455
Li0 O22 1.919804 1_555
Li0 O4 2.001332 1_565
Li0 O14 2.007855 1_555
Li0 O10 2.486273 1_555
Li1 O8 1.919804 1_555
Li1 O2 2.001332 1_645
Li1 O17 2.007855 1_655
Li1 O5 2.486273 1_554
Li2 O15 1.919804 1_555
Li2 O21 2.001332 1_465
Li2 O6 2.007855 1_455
Li2 O18 2.486273 1_556
Li3 O1 1.919804 1_555
Li3 O19 2.001332 1_545
Li3 O9 2.007855 1_555
Li3 O13 2.486273 1_555
O0 V1 1.718967 1_565
O1 V1 1.737315 1_556
O2 P3 1.550672 1_555
O3 P0 1.583242 1_555
O3 V3 1.998592 1_555
O4 P1 1.550672 1_555
O5 P0 1.563539 1_555
O5 V1 2.026815 1_556
O6 P0 1.542290 1_555
O7 V0 1.718967 1_545
O8 V3 1.737315 1_555
O9 P2 1.542290 1_555
O10 P2 1.563539 1_555
O10 V0 2.026815 1_555
O11 P1 1.583242 1_555
O11 V1 1.998592 1_555
O12 P2 1.583242 1_555
O12 V2 1.998592 1_555
O13 P1 1.563539 1_555
O13 V3 2.026815 1_555
O14 P1 1.542290 1_555
O15 V0 1.737315 1_555
O16 V3 1.718967 1_565
O17 P3 1.542290 1_555
O18 P3 1.563539 1_555
O18 V2 2.026815 1_554
O19 P2 1.550672 1_555
O20 P3 1.583242 1_555
O20 V0 1.998592 1_555
O21 P0 1.550672 1_555
O22 V2 1.737315 1_554
O23 V2 1.718967 1_545
