# generated using pymatgen
data_Na3Li3Mn2P2(CO7)2
_symmetry_space_group_name_H-M   'P 1'
_cell_length_a   6.72374400
_cell_length_b   8.76739940
_cell_length_c   10.16680985
_cell_angle_alpha   90.74250306
_cell_angle_beta   90.25843126
_cell_angle_gamma   90.63791678
_symmetry_Int_Tables_number   1
_chemical_formula_structural   Na3Li3Mn2P2(CO7)2
_chemical_formula_sum   'Na6 Li6 Mn4 P4 C4 O28'
_cell_volume   599.23692843
_cell_formula_units_Z   2
loop_
 _symmetry_equiv_pos_site_id
 _symmetry_equiv_pos_as_xyz
  1  'x, y, z'
loop_
 _atom_site_type_symbol
 _atom_site_label
 _atom_site_symmetry_multiplicity
 _atom_site_fract_x
 _atom_site_fract_y
 _atom_site_fract_z
 _atom_site_occupancy
  Na  Na0  1  0.24853100  0.91690300  0.87892700  1
  Na  Na1  1  0.24620400  0.91675200  0.37890800  1
  Na  Na2  1  0.99949000  0.74625900  0.62495700  1
  Na  Na3  1  0.50055300  0.74560200  0.12423100  1
  Na  Na4  1  0.50142400  0.25453100  0.87635500  1
  Na  Na5  1  0.50162200  0.25482900  0.37612100  1
  Li  Li0  1  0.48334100  0.73224900  0.61824100  1
  Li  Li1  1  0.01679200  0.73190900  0.11912900  1
  Li  Li2  1  0.98372500  0.26713200  0.88304000  1
  Li  Li3  1  0.98357100  0.26770100  0.38391700  1
  Li  Li4  1  0.75308100  0.08564700  0.62419800  1
  Li  Li5  1  0.76569000  0.08512700  0.12417500  1
  Mn  Mn0  1  0.75100100  0.64024300  0.88881700  1
  Mn  Mn1  1  0.74750500  0.64009000  0.38881100  1
  Mn  Mn2  1  0.24479700  0.35721000  0.61149100  1
  Mn  Mn3  1  0.24646600  0.35747400  0.11129700  1
  P  P0  1  0.24886900  0.58776000  0.85129200  1
  P  P1  1  0.24064900  0.58793900  0.35150500  1
  P  P2  1  0.74884300  0.40597800  0.64874600  1
  P  P3  1  0.75795000  0.40655300  0.14867200  1
  C  C0  1  0.75687200  0.95312800  0.86600700  1
  C  C1  1  0.75868400  0.95326200  0.36631900  1
  C  C2  1  0.25555100  0.05429100  0.63282800  1
  C  C3  1  0.24011800  0.05403000  0.13265100  1
  O  O0  1  0.27534100  0.90733300  0.64205000  1
  O  O1  1  0.22674900  0.90631100  0.14169300  1
  O  O2  1  0.75036200  0.90598500  0.98736800  1
  O  O3  1  0.75214000  0.90585700  0.48758000  1
  O  O4  1  0.74710100  0.85415200  0.76903200  1
  O  O5  1  0.74975400  0.85449300  0.26924100  1
  O  O6  1  0.06714000  0.68476800  0.89499300  1
  O  O7  1  0.43654500  0.67501400  0.90253000  1
  O  O8  1  0.06170300  0.68376400  0.39968500  1
  O  O9  1  0.43114900  0.67664900  0.39854400  1
  O  O10  1  0.25915800  0.57958600  0.69738900  1
  O  O11  1  0.73421100  0.57105700  0.59449500  1
  O  O12  1  0.23588300  0.57983600  0.19753900  1
  O  O13  1  0.76789000  0.57215600  0.09464200  1
  O  O14  1  0.23379500  0.42282500  0.90356000  1
  O  O15  1  0.76868700  0.41963100  0.80183500  1
  O  O16  1  0.23450700  0.42278300  0.40385200  1
  O  O17  1  0.77047300  0.41927500  0.30215200  1
  O  O18  1  0.56314000  0.30690400  0.61172400  1
  O  O19  1  0.92813700  0.31541800  0.59309200  1
  O  O20  1  0.56448100  0.31910200  0.10841200  1
  O  O21  1  0.92968300  0.30539000  0.09582100  1
  O  O22  1  0.24214500  0.13966100  0.73768300  1
  O  O23  1  0.24472400  0.13991700  0.23775300  1
  O  O24  1  0.24800300  0.11805800  0.51814800  1
  O  O25  1  0.24994800  0.11794600  0.01830300  1
  O  O26  1  0.77272800  0.09662400  0.83988300  1
  O  O27  1  0.77309800  0.09690400  0.34036800  1
loop_
_geom_bond_atom_site_label_1
_geom_bond_atom_site_label_2
_geom_bond_distance
_geom_bond_site_symmetry_2
Na0 O25 2.247136 1_566
Na0 O6 2.368846 1_555
Na0 O0 2.416274 1_555
Na0 O22 2.439709 1_565
Na0 O7 2.494666 1_555
Na0 O1 2.678918 1_556
Na1 O24 2.248052 1_565
Na1 O8 2.390250 1_555
Na1 O1 2.415171 1_555
Na1 O23 2.441489 1_565
Na1 O9 2.466678 1_555
Na1 O0 2.684002 1_555
Na2 O0 2.323149 1_655
Na2 O11 2.357661 1_555
Na2 O8 2.387861 1_655
Na2 O10 2.408125 1_655
Na2 O4 2.437715 1_555
Na2 O3 2.599257 1_555
Na2 O6 2.840308 1_655
Na3 O1 2.336720 1_555
Na3 O7 2.365982 1_554
Na3 O13 2.384921 1_555
Na3 O5 2.407923 1_555
Na3 O12 2.411846 1_555
Na3 O2 2.598813 1_554
Na3 O9 2.900049 1_555
Na4 O26 2.330410 1_555
Na4 O14 2.354724 1_555
Na4 O15 2.425134 1_555
Na4 O22 2.437842 1_555
Na4 O20 2.453052 1_556
Na4 O25 2.529313 1_556
Na4 O18 2.767566 1_555
Na5 O27 2.330298 1_555
Na5 O16 2.350779 1_555
Na5 O23 2.424915 1_555
Na5 O17 2.427815 1_555
Na5 O18 2.464886 1_555
Na5 O24 2.540163 1_555
Na5 O20 2.819379 1_555
Li0 O0 2.100489 1_555
Li0 O10 2.169105 1_555
Li0 O11 2.224561 1_555
Li0 O9 2.304500 1_555
Li0 O4 2.555093 1_555
Li1 O1 2.079288 1_555
Li1 O12 2.154969 1_555
Li1 O13 2.181628 1_455
Li1 O6 2.337473 1_554
Li1 O5 2.594844 1_455
Li2 O26 2.090483 1_555
Li2 O15 2.149565 1_555
Li2 O14 2.161547 1_655
Li2 O21 2.217076 1_556
Li2 O22 2.544725 1_655
Li2 O25 2.623481 1_656
Li3 O27 2.090705 1_555
Li3 O17 2.137824 1_555
Li3 O16 2.162222 1_655
Li3 O19 2.196387 1_555
Li3 O23 2.563372 1_655
Li3 O24 2.611771 1_655
Li4 O3 2.087324 1_545
Li4 O26 2.197008 1_555
Li4 O18 2.338845 1_555
Li4 O19 2.347483 1_555
Li4 O4 2.522966 1_545
Li5 O2 2.085785 1_544
Li5 O27 2.199394 1_555
Li5 O21 2.235640 1_555
Li5 O20 2.476362 1_555
Li5 O5 2.519784 1_545
Mn0 O15 2.121090 1_555
Mn0 O7 2.144443 1_555
Mn0 O6 2.157394 1_655
Mn0 O13 2.186295 1_556
Mn0 O4 2.249672 1_555
Mn0 O2 2.524274 1_555
Mn1 O17 2.124091 1_555
Mn1 O8 2.144912 1_655
Mn1 O9 2.157157 1_555
Mn1 O11 2.186435 1_555
Mn1 O5 2.251725 1_555
Mn1 O3 2.525090 1_555
Mn2 O10 2.126989 1_555
Mn2 O19 2.163272 1_455
Mn2 O18 2.190226 1_555
Mn2 O16 2.196078 1_555
Mn2 O24 2.290635 1_555
Mn2 O22 2.312389 1_555
Mn3 O12 2.129294 1_555
Mn3 O20 2.168522 1_555
Mn3 O21 2.177957 1_455
Mn3 O14 2.197045 1_554
Mn3 O25 2.292253 1_555
Mn3 O23 2.313968 1_555
C0 O26 1.292524 1_565
C0 O4 1.305891 1_555
C0 O2 1.307076 1_555
C1 O27 1.292723 1_565
C1 O5 1.305275 1_555
C1 O3 1.306876 1_555
C2 O22 1.298641 1_555
C2 O24 1.300584 1_555
C2 O0 1.301310 1_545
C3 O25 1.298721 1_555
C3 O23 1.299272 1_555
C3 O1 1.301696 1_545
O6 P0 1.559503 1_555
O7 P0 1.552797 1_555
O8 P1 1.552607 1_555
O9 P1 1.561058 1_555
O10 P0 1.567290 1_555
O11 P2 1.559482 1_555
O12 P1 1.566202 1_555
O13 P3 1.559836 1_555
O14 P0 1.549471 1_555
O15 P2 1.564461 1_555
O16 P1 1.549340 1_555
O17 P3 1.564762 1_555
O18 P2 1.555109 1_555
O19 P2 1.555529 1_555
O20 P3 1.553198 1_555
O21 P3 1.557155 1_555
