# generated using pymatgen
data_Y7HoO12
_symmetry_space_group_name_H-M   'P 1'
_cell_length_a   9.17693626
_cell_length_b   9.17693736
_cell_length_c   9.17693594
_cell_angle_alpha   109.48031362
_cell_angle_beta   109.46958996
_cell_angle_gamma   109.46377614
_symmetry_Int_Tables_number   1
_chemical_formula_structural   Y7HoO12
_chemical_formula_sum   'Y14 Ho2 O24'
_cell_volume   594.93728835
_cell_formula_units_Z   2
loop_
 _symmetry_equiv_pos_site_id
 _symmetry_equiv_pos_as_xyz
  1  'x, y, z'
loop_
 _atom_site_type_symbol
 _atom_site_label
 _atom_site_symmetry_multiplicity
 _atom_site_fract_x
 _atom_site_fract_y
 _atom_site_fract_z
 _atom_site_occupancy
  Y  Y0  1  0.21745002  0.24999980  0.46745002  1
  Y  Y1  1  0.99925612  0.49969602  0.49946925  1
  Y  Y2  1  0.75000007  0.96741032  0.21741050  1
  Y  Y3  1  0.25000002  0.53258929  0.28258892  1
  Y  Y4  1  0.53293685  0.78293684  0.74999976  1
  Y  Y5  1  0.03212890  0.28212886  0.74999977  1
  Y  Y6  1  0.99977325  0.00030409  0.99955978  1
  Y  Y7  1  0.50074382  0.00021330  0.50044029  1
  Y  Y8  1  0.50022680  0.49978658  0.00053030  1
  Y  Y9  1  0.28254967  0.74999986  0.03254971  1
  Y  Y10  1  0.46787125  0.21787090  0.25000010  1
  Y  Y11  1  0.96706315  0.71706314  0.25000024  1
  Y  Y12  1  0.75000030  0.46793073  0.71793074  1
  Y  Y13  1  0.24999994  0.03206919  0.78206932  1
  Ho  Ho0  1  0.71730738  0.25000022  0.96730748  1
  Ho  Ho1  1  0.78269271  0.74999980  0.53269244  1
  O  O0  1  0.48947228  0.72811667  0.95760810  1
  O  O1  1  0.27050816  0.53186389  0.54239088  1
  O  O2  1  0.04175552  0.77030796  0.53145245  1
  O  O3  1  0.23925390  0.27075604  0.22808719  1
  O  O4  1  0.26074629  0.48883417  0.03150187  1
  O  O5  1  0.45824412  0.98969675  0.72855204  1
  O  O6  1  0.22949186  0.77188337  0.26135622  1
  O  O7  1  0.01052765  0.96813602  0.23864415  1
  O  O8  1  0.03132875  0.54231200  0.77058962  1
  O  O9  1  0.77177864  0.04370922  0.01093599  1
  O  O10  1  0.27172225  0.26073855  0.72940962  1
  O  O11  1  0.53277305  0.76084260  0.48906406  1
  O  O12  1  0.46867120  0.23926149  0.51098366  1
  O  O13  1  0.22827764  0.95768746  0.98901621  1
  O  O14  1  0.72822138  0.73915735  0.27193034  1
  O  O15  1  0.96722702  0.45629092  0.22806897  1
  O  O16  1  0.98776144  0.02987144  0.75895508  1
  O  O17  1  0.77091629  0.22880604  0.74104505  1
  O  O18  1  0.54266881  0.01116607  0.27191279  1
  O  O19  1  0.73885512  0.51030320  0.96854720  1
  O  O20  1  0.76114477  0.72969213  0.77144804  1
  O  O21  1  0.95733128  0.22924397  0.46849765  1
  O  O22  1  0.72908374  0.47012851  0.45788964  1
  O  O23  1  0.51223859  0.27119421  0.04211056  1
loop_
_geom_bond_atom_site_label_1
_geom_bond_atom_site_label_2
_geom_bond_distance
_geom_bond_site_symmetry_2
Ho0 O15 2.235361 1_556
Ho0 O9 2.235365 1_556
Ho0 O17 2.250921 1_555
Ho0 O23 2.250925 1_556
Ho0 O19 2.326178 1_555
Ho0 O5 2.326179 1_545
Ho1 O14 2.235364 1_555
Ho1 O11 2.235366 1_555
Ho1 O22 2.250921 1_555
Ho1 O16 2.250923 1_565
Ho1 O2 2.326174 1_655
Ho1 O20 2.326180 1_555
O0 Y4 2.248140 1_555
O0 Y9 2.269751 1_556
O0 Y8 2.284263 1_556
O0 Y2 2.330691 1_556
O1 Y4 2.248141 1_555
O1 Y0 2.269752 1_555
O1 Y1 2.284261 1_455
O1 Y3 2.330689 1_555
O2 Y13 2.244549 1_565
O2 Y11 2.265981 1_455
O2 Y1 2.279815 1_455
O3 Y3 2.245242 1_555
O3 Y10 2.267161 1_555
O3 Y6 2.282321 1_454
O3 Y0 2.334118 1_555
O4 Y3 2.245242 1_555
O4 Y5 2.267160 1_554
O4 Y8 2.282323 1_555
O4 Y9 2.334109 1_555
O5 Y13 2.244549 1_565
O5 Y4 2.265984 1_555
O5 Y7 2.279809 1_565
O6 Y11 2.248140 1_455
O6 Y9 2.269754 1_555
O6 Y7 2.284259 1_565
O6 Y3 2.330689 1_555
O7 Y11 2.248142 1_455
O7 Y0 2.269748 1_565
O7 Y6 2.284262 1_464
O7 Y2 2.330690 1_455
O8 Y9 2.246790 1_556
O8 Y12 2.266872 1_455
O8 Y1 2.283885 1_455
O8 Y5 2.334201 1_555
O9 Y2 2.272565 1_545
O9 Y6 2.284848 1_554
O9 Y4 2.334259 1_544
O10 Y0 2.246788 1_555
O10 Y13 2.266875 1_555
O10 Y8 2.283887 1_556
O10 Y5 2.334204 1_555
O11 Y3 2.272564 1_555
O11 Y7 2.284848 1_565
O11 Y4 2.334255 1_555
O12 Y0 2.246789 1_555
O12 Y12 2.266874 1_555
O12 Y7 2.283890 1_555
O12 Y10 2.334203 1_555
O13 Y9 2.246789 1_556
O13 Y13 2.266872 1_565
O13 Y6 2.283889 1_465
O13 Y10 2.334204 1_566
O14 Y2 2.272562 1_555
O14 Y8 2.284848 1_555
O14 Y11 2.334257 1_555
O15 Y3 2.272563 1_655
O15 Y1 2.284852 1_555
O15 Y11 2.334257 1_555
O16 Y5 2.247796 1_655
O16 Y6 2.284376 1_555
O16 Y13 2.336959 1_655
O17 Y5 2.247797 1_655
O17 Y7 2.284377 1_555
O17 Y12 2.336962 1_555
O18 Y2 2.245243 1_545
O18 Y10 2.267162 1_555
O18 Y7 2.282323 1_555
O18 Y9 2.334117 1_545
O19 Y12 2.244549 1_555
O19 Y11 2.265987 1_556
O19 Y8 2.279809 1_556
O20 Y12 2.244550 1_555
O20 Y4 2.265984 1_555
O20 Y6 2.279811 1_565
O21 Y2 2.245243 1_545
O21 Y5 2.267159 1_655
O21 Y1 2.282321 1_555
O21 Y0 2.334116 1_655
O22 Y10 2.247794 1_555
O22 Y1 2.284378 1_555
O22 Y12 2.336962 1_555
O23 Y10 2.247794 1_555
O23 Y8 2.284377 1_555
O23 Y13 2.336963 1_554
