# generated using pymatgen
data_Tb3NbO7
_symmetry_space_group_name_H-M   'P 1'
_cell_length_a   6.47535329
_cell_length_b   6.47535329
_cell_length_c   7.57752000
_cell_angle_alpha   90.00000000
_cell_angle_beta   90.00000000
_cell_angle_gamma   110.40135720
_symmetry_Int_Tables_number   1
_chemical_formula_structural   Tb3NbO7
_chemical_formula_sum   'Tb6 Nb2 O14'
_cell_volume   297.79710610
_cell_formula_units_Z   2
loop_
 _symmetry_equiv_pos_site_id
 _symmetry_equiv_pos_as_xyz
  1  'x, y, z'
loop_
 _atom_site_type_symbol
 _atom_site_label
 _atom_site_symmetry_multiplicity
 _atom_site_fract_x
 _atom_site_fract_y
 _atom_site_fract_z
 _atom_site_occupancy
  Tb  Tb0  1  0.51483600  0.05609700  0.25000000  1
  Tb  Tb1  1  0.94390300  0.48516400  0.75000000  1
  Tb  Tb2  1  0.00000000  0.00000000  0.00000000  1
  Tb  Tb3  1  0.00000000  0.00000000  0.50000000  1
  Tb  Tb4  1  0.05609700  0.51483600  0.25000000  1
  Tb  Tb5  1  0.48516400  0.94390300  0.75000000  1
  Nb  Nb0  1  0.50000000  0.50000000  0.00000000  1
  Nb  Nb1  1  0.50000000  0.50000000  0.50000000  1
  O  O0  1  0.88681000  0.15185800  0.25000000  1
  O  O1  1  0.84814200  0.11319000  0.75000000  1
  O  O2  1  0.43436100  0.17590900  0.53361100  1
  O  O3  1  0.82409100  0.56563900  0.03361100  1
  O  O4  1  0.82409100  0.56563900  0.46638900  1
  O  O5  1  0.43436100  0.17590900  0.96638900  1
  O  O6  1  0.42319200  0.42319200  0.25000000  1
  O  O7  1  0.57680800  0.57680800  0.75000000  1
  O  O8  1  0.17590900  0.43436100  0.53361100  1
  O  O9  1  0.56563900  0.82409100  0.03361100  1
  O  O10  1  0.56563900  0.82409100  0.46638900  1
  O  O11  1  0.17590900  0.43436100  0.96638900  1
  O  O12  1  0.15185800  0.88681000  0.25000000  1
  O  O13  1  0.11319000  0.84814200  0.75000000  1
loop_
_geom_bond_atom_site_label_1
_geom_bond_atom_site_label_2
_geom_bond_distance
_geom_bond_site_symmetry_2
Nb0 O6 1.977611 1_555
Nb0 O7 1.977611 1_554
Nb0 O3 2.006933 1_555
Nb0 O11 2.006933 1_554
Nb0 O9 2.006933 1_555
Nb0 O5 2.006933 1_554
Nb1 O6 1.977611 1_555
Nb1 O7 1.977611 1_555
Nb1 O8 2.006933 1_555
Nb1 O4 2.006933 1_555
Nb1 O2 2.006933 1_555
Nb1 O10 2.006933 1_555
O0 Tb4 2.220307 1_655
O0 Tb0 2.268228 1_555
O0 Tb2 2.365442 1_655
O0 Tb3 2.365442 1_655
O1 Tb5 2.220307 1_545
O1 Tb1 2.268228 1_555
O1 Tb2 2.365442 1_656
O1 Tb3 2.365442 1_655
O2 Tb5 2.323432 1_545
O2 Tb0 2.402875 1_555
O2 Tb3 2.653233 1_555
O3 Tb4 2.323432 1_655
O3 Tb1 2.402875 1_554
O3 Tb2 2.653233 1_665
O4 Tb4 2.323432 1_655
O4 Tb1 2.402875 1_555
O4 Tb3 2.653233 1_665
O5 Tb5 2.323432 1_545
O5 Tb0 2.402875 1_556
O5 Tb2 2.653233 1_556
O6 Tb4 2.643120 1_555
O6 Tb0 2.643120 1_555
O7 Tb5 2.643120 1_555
O7 Tb1 2.643120 1_555
O8 Tb1 2.323432 1_455
O8 Tb4 2.402875 1_555
O8 Tb3 2.653233 1_555
O9 Tb0 2.323432 1_565
O9 Tb5 2.402875 1_554
O9 Tb2 2.653233 1_665
O10 Tb0 2.323432 1_565
O10 Tb5 2.402875 1_555
O10 Tb3 2.653233 1_665
O11 Tb1 2.323432 1_455
O11 Tb4 2.402875 1_556
O11 Tb2 2.653233 1_556
O12 Tb0 2.220307 1_565
O12 Tb4 2.268228 1_555
O12 Tb3 2.365442 1_565
O12 Tb2 2.365442 1_565
O13 Tb1 2.220307 1_455
O13 Tb5 2.268228 1_555
O13 Tb3 2.365442 1_565
O13 Tb2 2.365442 1_566
