# generated using pymatgen
data_Fe2O3
_symmetry_space_group_name_H-M   'P 1'
_cell_length_a   8.09470828
_cell_length_b   8.09740431
_cell_length_c   8.09084063
_cell_angle_alpha   71.21244636
_cell_angle_beta   109.58068467
_cell_angle_gamma   70.11662549
_symmetry_Int_Tables_number   1
_chemical_formula_structural   Fe2O3
_chemical_formula_sum   'Fe16 O24'
_cell_volume   409.02754945
_cell_formula_units_Z   8
loop_
 _symmetry_equiv_pos_site_id
 _symmetry_equiv_pos_as_xyz
  1  'x, y, z'
loop_
 _atom_site_type_symbol
 _atom_site_label
 _atom_site_symmetry_multiplicity
 _atom_site_fract_x
 _atom_site_fract_y
 _atom_site_fract_z
 _atom_site_occupancy
  Fe  Fe0  1  0.78221751  0.97167969  0.24950866  1
  Fe  Fe1  1  0.46749738  0.75193281  0.21810672  1
  Fe  Fe2  1  0.21639041  0.03264030  0.75222294  1
  Fe  Fe3  1  0.24803561  0.77927155  0.47133303  1
  Fe  Fe4  1  0.28657787  0.46632881  0.24968746  1
  Fe  Fe5  1  0.75188635  0.21930420  0.53335939  1
  Fe  Fe6  1  0.24687011  0.28398320  0.96724889  1
  Fe  Fe7  1  0.74919534  0.72074011  0.03021320  1
  Fe  Fe8  1  0.71782847  0.53294575  0.74843959  1
  Fe  Fe9  1  0.03821038  0.24850104  0.28447761  1
  Fe  Fe10  1  0.96595760  0.74885477  0.71705037  1
  Fe  Fe11  1  0.53172406  0.25216403  0.78089957  1
  Fe  Fe12  1  0.99834121  0.50044933  0.49413981  1
  Fe  Fe13  1  0.00132947  0.99686001  0.00209902  1
  Fe  Fe14  1  0.50348590  0.49871829  0.00189662  1
  Fe  Fe15  1  0.50034775  0.99783535  0.50123513  1
  O  O0  1  0.98414918  0.04910940  0.22929448  1
  O  O1  1  0.22066828  0.73069454  0.23243822  1
  O  O2  1  0.73597832  0.77721146  0.77524166  1
  O  O3  1  0.72217341  0.00891247  0.45203829  1
  O  O4  1  0.22992168  0.03863393  0.01157818  1
  O  O5  1  0.95059883  0.27580952  0.48665133  1
  O  O6  1  0.55044733  0.46237361  0.27037804  1
  O  O7  1  0.46069536  0.77151573  0.95181225  1
  O  O8  1  0.76142659  0.96445237  0.98648652  1
  O  O9  1  0.04176129  0.50919310  0.26729285  1
  O  O10  1  0.22257466  0.54769142  0.96596846  1
  O  O11  1  0.48545314  0.24379998  0.53229602  1
  O  O12  1  0.27646029  0.98869990  0.54831884  1
  O  O13  1  0.51444762  0.75785755  0.46464807  1
  O  O14  1  0.77371465  0.27433821  0.75911290  1
  O  O15  1  0.44908250  0.53922870  0.72350348  1
  O  O16  1  0.53829122  0.23010432  0.04713685  1
  O  O17  1  0.96586658  0.48454985  0.74057801  1
  O  O18  1  0.77702212  0.45663825  0.03497324  1
  O  O19  1  0.27756403  0.25577902  0.73060520  1
  O  O20  1  0.04995493  0.72263734  0.51504824  1
  O  O21  1  0.72883488  0.73513747  0.27602539  1
  O  O22  1  0.01195674  0.95204552  0.76990072  1
  O  O23  1  0.26506096  0.22137112  0.22675573  1
loop_
_geom_bond_atom_site_label_1
_geom_bond_atom_site_label_2
_geom_bond_distance
_geom_bond_site_symmetry_2
Fe0 O3 1.940264 1_565
Fe0 O16 1.942697 1_565
Fe0 O0 1.975335 1_565
Fe0 O21 2.064429 1_555
Fe0 O8 2.099356 1_554
Fe0 O20 2.120143 1_655
Fe1 O13 1.921351 1_555
Fe1 O21 1.952441 1_555
Fe1 O4 2.047097 1_565
Fe1 O6 2.056036 1_555
Fe1 O7 2.089194 1_554
Fe1 O1 2.100293 1_555
Fe2 O7 1.950706 1_545
Fe2 O12 1.970487 1_545
Fe2 O19 2.000894 1_555
Fe2 O22 2.004481 1_545
Fe2 O4 2.081538 1_556
Fe2 O5 2.101796 1_455
Fe3 O15 1.912493 1_555
Fe3 O20 1.918885 1_555
Fe3 O12 2.041196 1_555
Fe3 O1 2.049813 1_555
Fe3 O0 2.106488 1_465
Fe3 O13 2.124492 1_555
Fe4 O9 1.954775 1_555
Fe4 O1 1.966573 1_555
Fe4 O10 1.992097 1_554
Fe4 O11 1.993107 1_555
Fe4 O6 2.074046 1_555
Fe4 O23 2.109384 1_555
Fe5 O5 1.932920 1_555
Fe5 O6 1.963160 1_555
Fe5 O14 1.981810 1_555
Fe5 O3 2.070688 1_555
Fe5 O22 2.076221 1_645
Fe5 O11 2.094337 1_555
Fe6 O23 1.934811 1_556
Fe6 O4 1.963114 1_556
Fe6 O17 1.986853 1_455
Fe6 O16 2.066198 1_556
Fe6 O10 2.072979 1_555
Fe6 O19 2.083667 1_555
Fe7 O2 1.920265 1_554
Fe7 O8 1.932898 1_554
Fe7 O7 2.052104 1_554
Fe7 O18 2.058894 1_555
Fe7 O9 2.074011 1_655
Fe7 O21 2.086185 1_555
Fe8 O17 1.937863 1_555
Fe8 O14 1.951951 1_555
Fe8 O13 2.008131 1_555
Fe8 O18 2.029106 1_556
Fe8 O15 2.097539 1_555
Fe8 O2 2.105553 1_555
Fe9 O0 1.952331 1_455
Fe9 O18 1.977289 1_455
Fe9 O23 2.001205 1_555
Fe9 O5 2.032587 1_455
Fe9 O12 2.071266 1_545
Fe9 O9 2.081125 1_555
Fe10 O22 1.947236 1_655
Fe10 O10 1.950789 1_655
Fe10 O20 2.012133 1_655
Fe10 O2 2.026413 1_555
Fe10 O3 2.086862 1_565
Fe10 O17 2.086953 1_555
Fe11 O19 1.946629 1_555
Fe11 O11 1.946970 1_555
Fe11 O15 2.026111 1_555
Fe11 O8 2.033714 1_545
Fe11 O16 2.084168 1_556
Fe11 O14 2.085826 1_555
Fe12 O9 1.965396 1_655
Fe12 O21 1.980986 1_555
Fe12 O5 1.998811 1_555
Fe12 O20 2.024863 1_655
Fe12 O17 2.066463 1_555
Fe12 O19 2.075628 1_655
Fe13 O1 1.965370 1_555
Fe13 O4 1.972708 1_565
Fe13 O8 2.014829 1_454
Fe13 O22 2.048104 1_554
Fe13 O0 2.051729 1_465
Fe13 O14 2.054032 1_464
Fe14 O6 1.976966 1_555
Fe14 O16 1.986338 1_555
Fe14 O7 1.993126 1_554
Fe14 O18 2.030094 1_555
Fe14 O15 2.033707 1_554
Fe14 O10 2.069225 1_554
Fe15 O3 1.989054 1_565
Fe15 O12 1.992693 1_555
Fe15 O2 2.010294 1_555
Fe15 O23 2.016535 1_565
Fe15 O13 2.029524 1_555
Fe15 O11 2.055196 1_565
