# generated using pymatgen
data_Li2MnNi3O8
_symmetry_space_group_name_H-M   'P 1'
_cell_length_a   5.76571156
_cell_length_b   5.76571156
_cell_length_c   5.76571137
_cell_angle_alpha   60.38882597
_cell_angle_beta   60.38882597
_cell_angle_gamma   60.38882617
_symmetry_Int_Tables_number   1
_chemical_formula_structural   Li2MnNi3O8
_chemical_formula_sum   'Li2 Mn1 Ni3 O8'
_cell_volume   136.72443015
_cell_formula_units_Z   1
loop_
 _symmetry_equiv_pos_site_id
 _symmetry_equiv_pos_as_xyz
  1  'x, y, z'
loop_
 _atom_site_type_symbol
 _atom_site_label
 _atom_site_symmetry_multiplicity
 _atom_site_fract_x
 _atom_site_fract_y
 _atom_site_fract_z
 _atom_site_occupancy
  Li  Li0  1  0.12567900  0.12567900  0.12567900  1
  Li  Li1  1  0.87432100  0.87432100  0.87432100  1
  Mn  Mn0  1  0.50000000  0.50000000  0.50000000  1
  Ni  Ni0  1  0.50000000  0.00000000  0.50000000  1
  Ni  Ni1  1  0.00000000  0.50000000  0.50000000  1
  Ni  Ni2  1  0.50000000  0.50000000  0.00000000  1
  O  O0  1  0.26423500  0.26423500  0.26423500  1
  O  O1  1  0.26544800  0.26544800  0.71254400  1
  O  O2  1  0.71254400  0.26544800  0.26544800  1
  O  O3  1  0.26544800  0.71254400  0.26544800  1
  O  O4  1  0.73455200  0.28745600  0.73455200  1
  O  O5  1  0.28745600  0.73455200  0.73455200  1
  O  O6  1  0.73455200  0.73455200  0.28745600  1
  O  O7  1  0.73576500  0.73576500  0.73576500  1
loop_
_geom_bond_atom_site_label_1
_geom_bond_atom_site_label_2
_geom_bond_distance
_geom_bond_site_symmetry_2
Li0 O0 1.951063 1_555
Li0 O1 1.954651 1_554
Li0 O2 1.954651 1_455
Li0 O3 1.954651 1_545
Li1 O7 1.951063 1_555
Li1 O6 1.954651 1_556
Li1 O5 1.954651 1_655
Li1 O4 1.954651 1_565
Mn0 O4 1.921288 1_555
Mn0 O5 1.921288 1_555
Mn0 O3 1.921288 1_555
Mn0 O2 1.921288 1_555
Mn0 O6 1.921288 1_555
Mn0 O1 1.921288 1_555
Ni0 O0 1.936400 1_555
Ni0 O7 1.936400 1_545
Ni0 O1 1.960457 1_555
Ni0 O6 1.960457 1_545
Ni0 O2 1.960457 1_555
Ni0 O5 1.960457 1_545
Ni1 O0 1.936400 1_555
Ni1 O7 1.936400 1_455
Ni1 O1 1.960457 1_555
Ni1 O6 1.960457 1_455
Ni1 O3 1.960457 1_555
Ni1 O4 1.960457 1_455
Ni2 O7 1.936400 1_554
Ni2 O0 1.936400 1_555
Ni2 O2 1.960457 1_555
Ni2 O3 1.960457 1_555
Ni2 O5 1.960457 1_554
Ni2 O4 1.960457 1_554
