# generated using pymatgen
data_LiCoSiO4
_symmetry_space_group_name_H-M   'P 1'
_cell_length_a   5.69256000
_cell_length_b   5.69256000
_cell_length_c   8.02678700
_cell_angle_alpha   90.00000000
_cell_angle_beta   90.00000000
_cell_angle_gamma   90.00000000
_symmetry_Int_Tables_number   1
_chemical_formula_structural   LiCoSiO4
_chemical_formula_sum   'Li4 Co4 Si4 O16'
_cell_volume   260.10995398
_cell_formula_units_Z   4
loop_
 _symmetry_equiv_pos_site_id
 _symmetry_equiv_pos_as_xyz
  1  'x, y, z'
loop_
 _atom_site_type_symbol
 _atom_site_label
 _atom_site_symmetry_multiplicity
 _atom_site_fract_x
 _atom_site_fract_y
 _atom_site_fract_z
 _atom_site_occupancy
  Li  Li0  1  0.00000000  0.22639500  0.00000000  1
  Li  Li1  1  0.00000000  0.77360500  0.50000000  1
  Li  Li2  1  0.22639500  0.00000000  0.25000000  1
  Li  Li3  1  0.77360500  0.00000000  0.75000000  1
  Co  Co0  1  0.22866600  0.50000000  0.25000000  1
  Co  Co1  1  0.50000000  0.22866600  0.00000000  1
  Co  Co2  1  0.50000000  0.77133400  0.50000000  1
  Co  Co3  1  0.77133400  0.50000000  0.75000000  1
  Si  Si0  1  0.25674800  0.25674800  0.62500000  1
  Si  Si1  1  0.25674800  0.74325200  0.87500000  1
  Si  Si2  1  0.74325200  0.25674800  0.37500000  1
  Si  Si3  1  0.74325200  0.74325200  0.12500000  1
  O  O0  1  0.98526300  0.26010800  0.26153000  1
  O  O1  1  0.98526300  0.73989200  0.23847000  1
  O  O2  1  0.26010800  0.98526300  0.98847000  1
  O  O3  1  0.26010800  0.01473700  0.51153000  1
  O  O4  1  0.25998900  0.50475500  0.99963300  1
  O  O5  1  0.25998900  0.49524500  0.50036700  1
  O  O6  1  0.50475500  0.25998900  0.25036700  1
  O  O7  1  0.50475500  0.74001100  0.24963300  1
  O  O8  1  0.49524500  0.25998900  0.74963300  1
  O  O9  1  0.49524500  0.74001100  0.75036700  1
  O  O10  1  0.74001100  0.49524500  0.49963300  1
  O  O11  1  0.74001100  0.50475500  0.00036700  1
  O  O12  1  0.73989200  0.01473700  0.48847000  1
  O  O13  1  0.73989200  0.98526300  0.01153000  1
  O  O14  1  0.01473700  0.26010800  0.73847000  1
  O  O15  1  0.01473700  0.73989200  0.76153000  1
loop_
_geom_bond_atom_site_label_1
_geom_bond_atom_site_label_2
_geom_bond_distance
_geom_bond_site_symmetry_2
Li0 O2 2.021181 1_544
Li0 O13 2.021181 1_445
Li0 O14 2.109668 1_554
Li0 O0 2.109668 1_455
Li0 O4 2.168251 1_554
Li0 O11 2.168251 1_455
Li1 O12 2.021181 1_465
Li1 O3 2.021181 1_565
Li1 O1 2.109668 1_455
Li1 O15 2.109668 1_555
Li1 O5 2.168251 1_555
Li1 O10 2.168251 1_455
Li2 O1 2.021181 1_445
Li2 O0 2.021181 1_455
Li2 O2 2.109668 1_544
Li2 O3 2.109668 1_555
Li2 O6 2.168251 1_555
Li2 O7 2.168251 1_545
Li3 O14 2.021181 1_655
Li3 O15 2.021181 1_645
Li3 O12 2.109668 1_555
Li3 O13 2.109668 1_546
Li3 O8 2.168251 1_555
Li3 O9 2.168251 1_545
Co0 O0 1.947634 1_455
Co0 O1 1.947634 1_455
Co0 O5 2.017719 1_555
Co0 O4 2.017719 1_554
Co0 O7 2.082502 1_555
Co0 O6 2.082502 1_555
Co1 O2 1.947634 1_544
Co1 O13 1.947634 1_545
Co1 O6 2.017719 1_555
Co1 O8 2.017719 1_554
Co1 O11 2.082502 1_555
Co1 O4 2.082502 1_554
Co2 O12 1.947634 1_565
Co2 O3 1.947634 1_565
Co2 O7 2.017719 1_555
Co2 O9 2.017719 1_555
Co2 O10 2.082502 1_555
Co2 O5 2.082502 1_555
Co3 O14 1.947634 1_655
Co3 O15 1.947634 1_655
Co3 O11 2.017719 1_556
Co3 O10 2.017719 1_555
Co3 O9 2.082502 1_555
Co3 O8 2.082502 1_555
O0 Si2 1.651628 1_555
O1 Si3 1.651628 1_555
O2 Si1 1.651628 1_555
O3 Si0 1.651628 1_555
O4 Si1 1.686530 1_555
O5 Si0 1.686530 1_555
O6 Si2 1.686530 1_555
O7 Si3 1.686530 1_555
O8 Si0 1.686530 1_555
O9 Si1 1.686530 1_555
O10 Si2 1.686530 1_555
O11 Si3 1.686530 1_555
O12 Si2 1.651628 1_555
O13 Si3 1.651628 1_555
O14 Si0 1.651628 1_555
O15 Si1 1.651628 1_555
