# generated using pymatgen
data_LiMg2Mn3O8
_symmetry_space_group_name_H-M   'P 1'
_cell_length_a   5.95617999
_cell_length_b   5.95617999
_cell_length_c   5.95618007
_cell_angle_alpha   59.97429965
_cell_angle_beta   59.97429965
_cell_angle_gamma   59.97429855
_symmetry_Int_Tables_number   1
_chemical_formula_structural   LiMg2Mn3O8
_chemical_formula_sum   'Li1 Mg2 Mn3 O8'
_cell_volume   149.32594445
_cell_formula_units_Z   1
loop_
 _symmetry_equiv_pos_site_id
 _symmetry_equiv_pos_as_xyz
  1  'x, y, z'
loop_
 _atom_site_type_symbol
 _atom_site_label
 _atom_site_symmetry_multiplicity
 _atom_site_fract_x
 _atom_site_fract_y
 _atom_site_fract_z
 _atom_site_occupancy
  Li  Li0  1  0.11724700  0.11724700  0.11724700  1
  Mg  Mg0  1  0.88261700  0.88261700  0.88261700  1
  Mg  Mg1  1  0.50011000  0.50011000  0.50011000  1
  Mn  Mn0  1  0.00427900  0.49883300  0.49883300  1
  Mn  Mn1  1  0.49883300  0.00427900  0.49883300  1
  Mn  Mn2  1  0.49883300  0.49883300  0.00427900  1
  O  O0  1  0.74228100  0.74228100  0.74228100  1
  O  O1  1  0.74498700  0.74498700  0.29043800  1
  O  O2  1  0.74498700  0.29043800  0.74498700  1
  O  O3  1  0.29043800  0.74498700  0.74498700  1
  O  O4  1  0.25450100  0.70773800  0.25450100  1
  O  O5  1  0.70773800  0.25450100  0.25450100  1
  O  O6  1  0.25450100  0.25450100  0.70773800  1
  O  O7  1  0.25864600  0.25864600  0.25864600  1
loop_
_geom_bond_atom_site_label_1
_geom_bond_atom_site_label_2
_geom_bond_distance
_geom_bond_site_symmetry_2
Li0 O5 1.990892 1_455
Li0 O4 1.990892 1_545
Li0 O6 1.990892 1_554
Li0 O7 2.063356 1_555
Mg0 O3 1.982744 1_655
Mg0 O2 1.982744 1_565
Mg0 O1 1.982744 1_556
Mg0 O0 2.047844 1_555
Mg1 O2 2.073022 1_555
Mg1 O3 2.073022 1_555
Mg1 O1 2.073022 1_555
Mg1 O4 2.080897 1_555
Mg1 O5 2.080897 1_555
Mg1 O6 2.080897 1_555
Mn0 O6 1.939166 1_555
Mn0 O4 1.939166 1_555
Mn0 O1 1.976494 1_455
Mn0 O2 1.976494 1_455
Mn0 O7 2.024493 1_555
Mn0 O0 2.053154 1_455
Mn1 O6 1.939166 1_555
Mn1 O5 1.939166 1_555
Mn1 O1 1.976494 1_545
Mn1 O3 1.976494 1_545
Mn1 O7 2.024493 1_555
Mn1 O0 2.053154 1_545
Mn2 O5 1.939166 1_555
Mn2 O4 1.939166 1_555
Mn2 O2 1.976494 1_554
Mn2 O3 1.976494 1_554
Mn2 O7 2.024493 1_555
Mn2 O0 2.053154 1_554
