# generated using pymatgen
data_Li4Co3(NiO4)3
_symmetry_space_group_name_H-M   'P 1'
_cell_length_a   6.55807494
_cell_length_b   5.85347221
_cell_length_c   5.66809916
_cell_angle_alpha   88.47717482
_cell_angle_beta   102.73300545
_cell_angle_gamma   76.38800109
_symmetry_Int_Tables_number   1
_chemical_formula_structural   Li4Co3(NiO4)3
_chemical_formula_sum   'Li4 Co3 Ni3 O12'
_cell_volume   205.56462305
_cell_formula_units_Z   1
loop_
 _symmetry_equiv_pos_site_id
 _symmetry_equiv_pos_as_xyz
  1  'x, y, z'
loop_
 _atom_site_type_symbol
 _atom_site_label
 _atom_site_symmetry_multiplicity
 _atom_site_fract_x
 _atom_site_fract_y
 _atom_site_fract_z
 _atom_site_occupancy
  Li  Li0  1  0.00871800  0.48890800  0.48193000  1
  Li  Li1  1  0.32461500  0.17775800  0.85140300  1
  Li  Li2  1  0.66666700  0.83333300  0.16666700  1
  Li  Li3  1  0.66666700  0.83333300  0.66666700  1
  Co  Co0  1  0.00160200  0.00134000  0.49905700  1
  Co  Co1  1  0.66666700  0.33333300  0.16666700  1
  Co  Co2  1  0.33173100  0.66532700  0.83427600  1
  Ni  Ni0  1  0.00104200  0.00188600  0.00053200  1
  Ni  Ni1  1  0.33229100  0.66478100  0.33280100  1
  Ni  Ni2  1  0.66666700  0.33333300  0.66666700  1
  O  O0  1  0.36229400  0.43630800  0.08346500  1
  O  O1  1  0.69686400  0.09025900  0.41988600  1
  O  O2  1  0.00516900  0.78517800  0.25992200  1
  O  O3  1  0.33802400  0.44915900  0.59613100  1
  O  O4  1  0.66821600  0.11365300  0.91742700  1
  O  O5  1  0.97104000  0.23035800  0.24986800  1
  O  O6  1  0.01891000  0.77191100  0.74431300  1
  O  O7  1  0.32816400  0.88148900  0.07341200  1
  O  O8  1  0.66511700  0.55301400  0.41590600  1
  O  O9  1  0.99531000  0.21750800  0.73720300  1
  O  O10  1  0.31442300  0.89475500  0.58902000  1
  O  O11  1  0.63646900  0.57640700  0.91344700  1
loop_
_geom_bond_atom_site_label_1
_geom_bond_atom_site_label_2
_geom_bond_distance
_geom_bond_site_symmetry_2
Li0 O5 2.054307 1_455
Li0 O3 2.067927 1_555
Li0 O2 2.107985 1_555
Li0 O8 2.140398 1_455
Li0 O9 2.150512 1_455
Li0 O6 2.258245 1_555
Li1 O0 2.054308 1_556
Li1 O9 2.067920 1_455
Li1 O7 2.107984 1_546
Li1 O4 2.140398 1_555
Li1 O3 2.150515 1_555
Li1 O10 2.258245 1_545
Li2 O2 2.113574 1_655
Li2 O7 2.113580 1_555
Li2 O1 2.119098 1_565
Li2 O11 2.119103 1_554
Li2 O8 2.139904 1_555
Li2 O4 2.139909 1_564
Li3 O11 2.099529 1_555
Li3 O1 2.099530 1_565
Li3 O6 2.193565 1_655
Li3 O10 2.193571 1_555
Li3 O8 2.199568 1_555
Li3 O4 2.199568 1_565
Co0 O5 1.865558 1_455
Co0 O6 1.873061 1_545
Co0 O9 1.874989 1_455
Co0 O2 1.878815 1_545
Co0 O1 1.889155 1_455
Co0 O10 1.943562 1_545
Co1 O5 1.890436 1_555
Co1 O0 1.890436 1_555
Co1 O8 1.935489 1_555
Co1 O4 1.935489 1_554
Co1 O1 1.938348 1_555
Co1 O11 1.938351 1_554
Co2 O0 1.865560 1_556
Co2 O10 1.873057 1_555
Co2 O3 1.874985 1_555
Co2 O7 1.878820 1_556
Co2 O11 1.889155 1_555
Co2 O6 1.943561 1_555
Ni0 O2 1.907515 1_545
Ni0 O9 1.917027 1_454
Ni0 O5 1.980837 1_455
Ni0 O6 2.009885 1_544
Ni0 O7 2.037603 1_545
Ni0 O4 2.066960 1_454
Ni1 O7 1.907511 1_555
Ni1 O3 1.917029 1_555
Ni1 O0 1.980842 1_555
Ni1 O10 2.009881 1_555
Ni1 O2 2.037603 1_555
Ni1 O8 2.066960 1_555
Ni2 O4 1.887896 1_555
Ni2 O8 1.887901 1_555
Ni2 O11 2.028666 1_555
Ni2 O1 2.028670 1_555
Ni2 O9 2.045148 1_555
Ni2 O3 2.045149 1_555
