# generated using pymatgen
data_Li3Cu5O8
_symmetry_space_group_name_H-M   'P 1'
_cell_length_a   5.88255631
_cell_length_b   5.88255631
_cell_length_c   5.88255648
_cell_angle_alpha   59.97269563
_cell_angle_beta   59.97269563
_cell_angle_gamma   59.97269139
_symmetry_Int_Tables_number   1
_chemical_formula_structural   Li3Cu5O8
_chemical_formula_sum   'Li3 Cu5 O8'
_cell_volume   143.85146745
_cell_formula_units_Z   1
loop_
 _symmetry_equiv_pos_site_id
 _symmetry_equiv_pos_as_xyz
  1  'x, y, z'
loop_
 _atom_site_type_symbol
 _atom_site_label
 _atom_site_symmetry_multiplicity
 _atom_site_fract_x
 _atom_site_fract_y
 _atom_site_fract_z
 _atom_site_occupancy
  Li  Li0  1  0.00000000  0.00000000  0.50000000  1
  Li  Li1  1  0.00000000  0.50000000  0.00000000  1
  Li  Li2  1  0.50000000  0.00000000  0.00000000  1
  Cu  Cu0  1  0.50000000  0.50000000  0.50000000  1
  Cu  Cu1  1  0.00000000  0.00000000  0.00000000  1
  Cu  Cu2  1  0.00000000  0.50000000  0.50000000  1
  Cu  Cu3  1  0.50000000  0.50000000  0.00000000  1
  Cu  Cu4  1  0.50000000  0.00000000  0.50000000  1
  O  O0  1  0.74316300  0.74316300  0.74316300  1
  O  O1  1  0.73820400  0.25002400  0.25002400  1
  O  O2  1  0.25002400  0.25002400  0.73820400  1
  O  O3  1  0.25002400  0.73820400  0.25002400  1
  O  O4  1  0.74997600  0.26179600  0.74997600  1
  O  O5  1  0.74997600  0.74997600  0.26179600  1
  O  O6  1  0.26179600  0.74997600  0.74997600  1
  O  O7  1  0.25683700  0.25683700  0.25683700  1
loop_
_geom_bond_atom_site_label_1
_geom_bond_atom_site_label_2
_geom_bond_distance
_geom_bond_site_symmetry_2
Li0 O4 2.128908 1_455
Li0 O6 2.128908 1_545
Li0 O1 2.128908 1_455
Li0 O3 2.128908 1_545
Li0 O7 2.137796 1_555
Li0 O0 2.137796 1_445
Li1 O5 2.128908 1_455
Li1 O2 2.128908 1_554
Li1 O6 2.128908 1_554
Li1 O1 2.128908 1_455
Li1 O0 2.137796 1_454
Li1 O7 2.137796 1_555
Li2 O5 2.128908 1_545
Li2 O2 2.128908 1_554
Li2 O4 2.128908 1_554
Li2 O3 2.128908 1_545
Li2 O7 2.137796 1_555
Li2 O0 2.137796 1_544
Cu0 O6 2.080362 1_555
Cu0 O4 2.080362 1_555
Cu0 O1 2.080362 1_555
Cu0 O3 2.080362 1_555
Cu0 O5 2.080362 1_555
Cu0 O2 2.080362 1_555
Cu1 O1 2.080680 1_455
Cu1 O3 2.080680 1_545
Cu1 O6 2.080680 1_544
Cu1 O4 2.080680 1_454
Cu1 O2 2.080681 1_554
Cu1 O5 2.080681 1_445
Cu2 O7 2.024054 1_555
Cu2 O0 2.024054 1_455
Cu2 O2 2.030982 1_555
Cu2 O5 2.030982 1_455
Cu2 O3 2.030982 1_555
Cu2 O4 2.030982 1_455
Cu3 O0 2.024054 1_554
Cu3 O7 2.024054 1_555
Cu3 O3 2.030982 1_555
Cu3 O1 2.030982 1_555
Cu3 O6 2.030982 1_554
Cu3 O4 2.030982 1_554
Cu4 O7 2.024054 1_555
Cu4 O0 2.024054 1_545
Cu4 O2 2.030982 1_555
Cu4 O5 2.030982 1_545
Cu4 O1 2.030982 1_555
Cu4 O6 2.030982 1_545
