# generated using pymatgen
data_Li4Mn3Fe(BO3)4
_symmetry_space_group_name_H-M   'P 1'
_cell_length_a   5.17870300
_cell_length_b   6.05437643
_cell_length_c   9.15977660
_cell_angle_alpha   103.61036035
_cell_angle_beta   89.44365193
_cell_angle_gamma   113.08401691
_symmetry_Int_Tables_number   1
_chemical_formula_structural   Li4Mn3Fe(BO3)4
_chemical_formula_sum   'Li4 Mn3 Fe1 B4 O12'
_cell_volume   255.68261636
_cell_formula_units_Z   1
loop_
 _symmetry_equiv_pos_site_id
 _symmetry_equiv_pos_as_xyz
  1  'x, y, z'
loop_
 _atom_site_type_symbol
 _atom_site_label
 _atom_site_symmetry_multiplicity
 _atom_site_fract_x
 _atom_site_fract_y
 _atom_site_fract_z
 _atom_site_occupancy
  Li  Li0  1  0.25260100  0.67254000  0.18436300  1
  Li  Li1  1  0.74951100  0.66919300  0.68328800  1
  Li  Li2  1  0.24947200  0.32970900  0.31632000  1
  Li  Li3  1  0.74674700  0.32728700  0.81404200  1
  Mn  Mn0  1  0.78856700  0.76807000  0.37529000  1
  Mn  Mn1  1  0.28795200  0.76632400  0.87239000  1
  Mn  Mn2  1  0.71333200  0.23423400  0.12665200  1
  Fe  Fe0  1  0.20733800  0.23417100  0.62867300  1
  B  B0  1  0.77136400  0.73700800  0.03653300  1
  B  B1  1  0.27193200  0.73960400  0.53690900  1
  B  B2  1  0.72827100  0.26289900  0.46540600  1
  B  B3  1  0.22996300  0.26050800  0.96183300  1
  O  O0  1  0.55766900  0.82547200  0.06494900  1
  O  O1  1  0.05982500  0.82972100  0.56668000  1
  O  O2  1  0.36004700  0.70370400  0.39329400  1
  O  O3  1  0.88199600  0.67614700  0.15182400  1
  O  O4  1  0.38191100  0.67517200  0.65060200  1
  O  O5  1  0.14037800  0.29825700  0.10453600  1
  O  O6  1  0.86060000  0.70152300  0.89331900  1
  O  O7  1  0.61999700  0.32346200  0.34897000  1
  O  O8  1  0.11832500  0.31877000  0.84488900  1
  O  O9  1  0.63125900  0.29414000  0.60625200  1
  O  O10  1  0.94680200  0.17873800  0.43879100  1
  O  O11  1  0.44414200  0.17334800  0.93419400  1
loop_
_geom_bond_atom_site_label_1
_geom_bond_atom_site_label_2
_geom_bond_distance
_geom_bond_site_symmetry_2
Li0 O2 1.943222 1_555
Li0 O3 1.954452 1_455
Li0 O0 1.961039 1_555
Li0 O5 2.050152 1_555
Li1 O4 1.945558 1_555
Li1 O6 1.956117 1_555
Li1 O1 1.974444 1_655
Li1 O9 2.047668 1_555
Li2 O7 1.961171 1_555
Li2 O10 1.968690 1_455
Li2 O5 1.970204 1_555
Li2 O2 2.047396 1_555
Li3 O9 1.941335 1_555
Li3 O11 1.959498 1_555
Li3 O8 1.969929 1_655
Li3 O6 2.048180 1_555
Mn0 O3 2.095093 1_555
Mn0 O2 2.109218 1_555
Mn0 O1 2.124783 1_655
Mn0 O10 2.218705 1_565
Mn0 O7 2.433535 1_555
Mn1 O4 2.081384 1_555
Mn1 O6 2.105921 1_455
Mn1 O0 2.132738 1_556
Mn1 O11 2.199248 1_565
Mn1 O8 2.448245 1_555
Mn2 O7 2.083321 1_555
Mn2 O5 2.106717 1_655
Mn2 O11 2.127419 1_554
Mn2 O0 2.209086 1_545
Mn2 O3 2.419808 1_555
Fe0 O8 2.021679 1_555
Fe0 O10 2.091395 1_455
Fe0 O9 2.096404 1_555
Fe0 O1 2.188441 1_545
Fe0 O4 2.417600 1_555
B0 O6 1.383474 1_554
B0 O3 1.392722 1_555
B0 O0 1.404599 1_555
B1 O2 1.384743 1_555
B1 O4 1.392126 1_555
B1 O1 1.404539 1_555
B2 O9 1.378284 1_555
B2 O7 1.393995 1_555
B2 O10 1.410034 1_555
B3 O5 1.380877 1_556
B3 O8 1.398525 1_555
B3 O11 1.401237 1_555
