# generated using pymatgen
data_Li6Mn(OF)3
_symmetry_space_group_name_H-M   'P 1'
_cell_length_a   5.17000343
_cell_length_b   10.29784412
_cell_length_c   10.63931765
_cell_angle_alpha   106.18144796
_cell_angle_beta   102.84122110
_cell_angle_gamma   80.15886240
_symmetry_Int_Tables_number   1
_chemical_formula_structural   Li6Mn(OF)3
_chemical_formula_sum   'Li24 Mn4 O12 F12'
_cell_volume   526.78610247
_cell_formula_units_Z   4
loop_
 _symmetry_equiv_pos_site_id
 _symmetry_equiv_pos_as_xyz
  1  'x, y, z'
loop_
 _atom_site_type_symbol
 _atom_site_label
 _atom_site_symmetry_multiplicity
 _atom_site_fract_x
 _atom_site_fract_y
 _atom_site_fract_z
 _atom_site_occupancy
  Li  Li0  1  0.62884600  0.78413700  0.65691600  1
  Li  Li1  1  0.62924500  0.28427800  0.65687000  1
  Li  Li2  1  0.54309500  0.51036600  0.13244300  1
  Li  Li3  1  0.54291900  0.01035000  0.13225700  1
  Li  Li4  1  0.69140400  0.78497500  0.95548200  1
  Li  Li5  1  0.69163200  0.28497900  0.95551000  1
  Li  Li6  1  0.69690200  0.53438900  0.46645800  1
  Li  Li7  1  0.69706200  0.03421900  0.46638900  1
  Li  Li8  1  0.92512200  0.50572100  0.71152600  1
  Li  Li9  1  0.92481300  0.00575900  0.71140700  1
  Li  Li10  1  0.91129400  0.23885400  0.21954700  1
  Li  Li11  1  0.91124900  0.73884100  0.21951600  1
  Li  Li12  1  0.09839200  0.76285900  0.79070000  1
  Li  Li13  1  0.09873500  0.26282900  0.79068200  1
  Li  Li14  1  0.08445000  0.49471300  0.29795600  1
  Li  Li15  1  0.08424300  0.99475600  0.29783000  1
  Li  Li16  1  0.23662600  0.49112700  0.54088800  1
  Li  Li17  1  0.23708200  0.99101000  0.54086700  1
  Li  Li18  1  0.28573000  0.22319900  0.04257600  1
  Li  Li19  1  0.28561300  0.72324200  0.04259200  1
  Li  Li20  1  0.44128000  0.47391700  0.86114200  1
  Li  Li21  1  0.44093200  0.97387100  0.86113300  1
  Li  Li22  1  0.37315200  0.20461200  0.33375900  1
  Li  Li23  1  0.37305900  0.70470400  0.33392100  1
  Mn  Mn0  1  0.03154400  0.74302500  0.49971700  1
  Mn  Mn1  1  0.01809800  0.99137100  0.99804700  1
  Mn  Mn2  1  0.03190300  0.24287100  0.49981800  1
  Mn  Mn3  1  0.01832300  0.49135700  0.99807600  1
  O  O0  1  0.79935300  0.89175500  0.84143700  1
  O  O1  1  0.80009700  0.39200300  0.84137600  1
  O  O2  1  0.94036500  0.64436400  0.61107600  1
  O  O3  1  0.94037600  0.14432900  0.61105000  1
  O  O4  1  0.32539000  0.61465900  0.45830400  1
  O  O5  1  0.32542100  0.11462100  0.45824700  1
  O  O6  1  0.33646200  0.87241900  0.97245500  1
  O  O7  1  0.33660800  0.37240600  0.97245000  1
  O  O8  1  0.07848000  0.35176500  0.38946700  1
  O  O9  1  0.07814500  0.85179800  0.38945400  1
  O  O10  1  0.19771400  0.11018000  0.15244500  1
  O  O11  1  0.19785100  0.61021100  0.15252300  1
  F  F0  1  0.74070600  0.62493900  0.30974900  1
  F  F1  1  0.74014500  0.12516000  0.30897300  1
  F  F2  1  0.87919200  0.38124700  0.12435500  1
  F  F3  1  0.87919400  0.88123200  0.12435500  1
  F  F4  1  0.70696700  0.38756700  0.55045400  1
  F  F5  1  0.70570200  0.88762200  0.55046400  1
  F  F6  1  0.65900300  0.12535700  0.02479900  1
  F  F7  1  0.65930500  0.62537200  0.02493900  1
  F  F8  1  0.10800000  0.61806900  0.87628700  1
  F  F9  1  0.10768800  0.11814600  0.87632800  1
  F  F10  1  0.26274900  0.38424000  0.68242500  1
  F  F11  1  0.26234100  0.88420900  0.68256400  1
loop_
_geom_bond_atom_site_label_1
_geom_bond_atom_site_label_2
_geom_bond_distance
_geom_bond_site_symmetry_2
Li0 O2 2.017166 1_555
Li0 O0 2.052171 1_555
Li1 O3 2.016580 1_555
Li1 O1 2.052993 1_555
Li2 O11 1.925734 1_555
Li2 O7 2.101991 1_554
Li3 O10 1.925701 1_555
Li3 O6 2.100729 1_544
Li4 O6 1.924240 1_555
Li4 O0 2.060890 1_555
Li5 O7 1.924509 1_555
Li5 O1 2.064830 1_555
Li6 O4 1.950165 1_555
Li6 O2 1.972187 1_555
Li7 O5 1.951139 1_555
Li7 O3 1.972621 1_555
Li8 O2 2.028079 1_555
Li8 O1 2.292409 1_555
Li9 O3 2.027168 1_555
Li9 O0 2.297229 1_545
Li10 O10 1.931359 1_655
Li10 O8 1.960792 1_655
Li11 O11 1.931439 1_655
Li11 O9 1.960608 1_655
Li12 O0 1.927067 1_455
Li12 O2 2.038556 1_455
Li12 O6 2.174385 1_555
Li13 O1 1.926757 1_455
Li13 O3 2.039142 1_455
Li13 O7 2.174069 1_555
Li14 O8 1.985833 1_555
Li14 O4 2.096339 1_555
Li14 O11 2.412436 1_555
Li15 O9 1.986932 1_555
Li15 O5 2.096965 1_565
Li15 O10 2.411637 1_565
Li16 O4 1.898062 1_555
Li16 O8 1.962255 1_555
Li16 O2 2.102186 1_455
Li17 O5 1.898007 1_565
Li17 O9 1.962798 1_555
Li17 O3 2.104178 1_465
Li18 O7 1.962408 1_554
Li18 O10 2.025773 1_555
Li19 O6 1.962147 1_554
Li19 O11 2.025796 1_555
Li20 O1 1.933066 1_555
Li20 O7 1.989028 1_555
Li21 O0 1.931561 1_555
Li21 O6 1.988183 1_555
Li22 O5 1.892475 1_555
Li22 O10 1.991935 1_555
Li22 O8 2.019934 1_555
Li23 O4 1.891784 1_555
Li23 O11 1.992391 1_555
Li23 O9 2.020002 1_555
Mn0 O4 1.880397 1_555
Mn0 O9 1.907677 1_555
Mn0 O2 1.934182 1_455
Mn1 O6 1.899440 1_555
Mn1 O10 1.909919 1_566
Mn1 O0 1.927146 1_455
Mn2 O5 1.878913 1_555
Mn2 O8 1.909359 1_555
Mn2 O3 1.933025 1_455
Mn3 O7 1.899170 1_555
Mn3 O11 1.910258 1_556
Mn3 O1 1.925351 1_455
F0 Li23 1.979770 1_555
F0 Li14 2.040366 1_655
F0 Li2 2.075874 1_555
F0 Li11 2.105286 1_555
F0 Li6 2.192519 1_555
F0 Mn0 2.393519 1_655
F1 Li22 1.977476 1_555
F1 Li15 2.042196 1_645
F1 Li3 2.072063 1_555
F1 Li10 2.099560 1_555
F1 Li7 2.200659 1_555
F1 Mn2 2.399831 1_655
F2 Li5 1.926614 1_554
F2 Li10 1.968054 1_555
F2 Li2 2.001901 1_555
F2 Li14 2.062177 1_655
F2 Mn3 2.272804 1_654
F3 Li4 1.927234 1_554
F3 Li11 1.967843 1_555
F3 Li3 2.002500 1_565
F3 Li15 2.061138 1_655
F3 Mn1 2.272640 1_654
F4 Li1 1.895841 1_555
F4 Li6 1.947525 1_555
F4 Li8 2.033979 1_555
F4 Mn2 2.105192 1_655
F4 Li16 2.474811 1_555
F5 Li0 1.895722 1_555
F5 Li7 1.947549 1_565
F5 Li9 2.035468 1_565
F5 Mn0 2.108402 1_655
F5 Li17 2.466301 1_555
F6 Li5 2.024675 1_554
F6 Li18 2.041208 1_555
F6 Li3 2.091060 1_555
F6 Mn1 2.138178 1_644
F6 Li21 2.225152 1_544
F6 Li10 2.308798 1_555
F7 Li4 2.024754 1_554
F7 Li19 2.042988 1_555
F7 Li2 2.091757 1_555
F7 Mn3 2.138175 1_654
F7 Li20 2.225524 1_554
F7 Li11 2.306738 1_555
F8 Li19 1.922645 1_556
F8 Li12 1.940645 1_555
F8 Li8 1.952466 1_455
F8 Li20 2.077078 1_555
F8 Mn3 2.238926 1_555
F9 Li18 1.922588 1_556
F9 Li13 1.940798 1_555
F9 Li9 1.953695 1_455
F9 Li21 2.077675 1_545
F9 Mn1 2.238650 1_545
F10 Li20 1.962844 1_555
F10 Li8 1.996404 1_455
F10 Li1 2.032251 1_555
F10 Li16 2.068819 1_555
F10 Li13 2.282093 1_555
F10 Mn2 2.303281 1_555
F11 Li21 1.961750 1_555
F11 Li9 1.995825 1_465
F11 Li0 2.032841 1_555
F11 Li17 2.070487 1_555
F11 Li12 2.280474 1_555
F11 Mn0 2.303658 1_555
