# generated using pymatgen
data_Li4Ti3V3(FeO8)2
_symmetry_space_group_name_H-M   'P 1'
_cell_length_a   5.90503987
_cell_length_b   5.90503987
_cell_length_c   9.71239772
_cell_angle_alpha   89.64163420
_cell_angle_beta   89.64163420
_cell_angle_gamma   59.77005129
_symmetry_Int_Tables_number   1
_chemical_formula_structural   Li4Ti3V3(FeO8)2
_chemical_formula_sum   'Li4 Ti3 V3 Fe2 O16'
_cell_volume   292.60414639
_cell_formula_units_Z   1
loop_
 _symmetry_equiv_pos_site_id
 _symmetry_equiv_pos_as_xyz
  1  'x, y, z'
loop_
 _atom_site_type_symbol
 _atom_site_label
 _atom_site_symmetry_multiplicity
 _atom_site_fract_x
 _atom_site_fract_y
 _atom_site_fract_z
 _atom_site_occupancy
  Li  Li0  1  0.66701300  0.66701300  0.89151000  1
  Li  Li1  1  0.99683200  0.99683200  0.99417100  1
  Li  Li2  1  0.99869900  0.99869900  0.49811400  1
  Li  Li3  1  0.33193800  0.33193800  0.39215300  1
  Ti  Ti0  1  0.34043000  0.83058800  0.21851300  1
  Ti  Ti1  1  0.83058800  0.34043000  0.21851300  1
  Ti  Ti2  1  0.16680200  0.16680200  0.72071000  1
  V  V0  1  0.82898700  0.82898700  0.21067500  1
  V  V1  1  0.65192000  0.17777400  0.71064000  1
  V  V2  1  0.17777400  0.65192000  0.71064000  1
  Fe  Fe0  1  0.66880400  0.66880400  0.49507700  1
  Fe  Fe1  1  0.33237300  0.33237300  0.99454400  1
  O  O0  1  0.32750700  0.82933500  0.60363400  1
  O  O1  1  0.51635400  0.51635400  0.33360600  1
  O  O2  1  0.66080000  0.66080000  0.10187700  1
  O  O3  1  0.99803000  0.99803000  0.31355700  1
  O  O4  1  0.99625100  0.99625100  0.80902500  1
  O  O5  1  0.82933500  0.32750700  0.60363400  1
  O  O6  1  0.51933800  0.95977600  0.33347800  1
  O  O7  1  0.95977600  0.51933800  0.33347800  1
  O  O8  1  0.15987200  0.15987200  0.10272700  1
  O  O9  1  0.83969200  0.83969200  0.60772500  1
  O  O10  1  0.03962900  0.47872000  0.83352700  1
  O  O11  1  0.47872000  0.03962900  0.83352700  1
  O  O12  1  0.32798300  0.32798300  0.59886000  1
  O  O13  1  0.15505700  0.67407900  0.10501300  1
  O  O14  1  0.48250100  0.48250100  0.83380400  1
  O  O15  1  0.67407900  0.15505700  0.10501300  1
loop_
_geom_bond_atom_site_label_1
_geom_bond_atom_site_label_2
_geom_bond_distance
_geom_bond_site_symmetry_2
Li0 O14 1.974589 1_555
Li0 O11 1.980822 1_565
Li0 O10 1.980822 1_655
Li0 O2 2.043699 1_556
Li1 O4 1.798264 1_555
Li1 O15 1.964203 1_566
Li1 O13 1.964203 1_656
Li1 O8 1.980952 1_666
Li2 O3 1.792553 1_555
Li2 O9 1.938890 1_555
Li2 O5 1.969060 1_565
Li2 O0 1.969060 1_655
Li3 O1 1.968182 1_555
Li3 O6 1.984414 1_545
Li3 O7 1.984414 1_455
Li3 O12 2.007737 1_555
Fe0 O5 2.033266 1_555
Fe0 O0 2.033266 1_555
Fe0 O9 2.070401 1_555
Fe0 O6 2.156653 1_555
Fe0 O7 2.156653 1_555
Fe0 O1 2.220727 1_555
Fe1 O8 2.048713 1_556
Fe1 O15 2.050505 1_556
Fe1 O13 2.050505 1_556
Fe1 O10 2.166429 1_555
Fe1 O11 2.166429 1_555
Fe1 O14 2.183070 1_555
O0 V2 1.966485 1_555
O0 Ti2 2.067666 1_565
O1 Ti0 1.954331 1_555
O1 Ti1 1.954331 1_555
O2 Ti0 1.986175 1_555
O2 Ti1 1.986175 1_555
O2 V0 2.027003 1_555
O3 Ti1 1.973023 1_565
O3 Ti0 1.973023 1_655
O3 V0 2.004889 1_555
O4 Ti2 1.940098 1_665
O4 V2 2.003295 1_655
O4 V1 2.003295 1_565
O5 V1 1.966485 1_555
O5 Ti2 2.067666 1_655
O6 Ti0 1.944676 1_555
O6 V0 1.981079 1_555
O7 Ti1 1.944676 1_555
O7 V0 1.981079 1_555
O8 Ti0 2.020480 1_545
O8 Ti1 2.020480 1_455
O9 V1 1.999059 1_565
O9 V2 1.999059 1_655
O10 Ti2 1.944034 1_555
O10 V2 1.987118 1_555
O11 Ti2 1.944034 1_555
O11 V1 1.987118 1_555
O12 V1 1.982395 1_555
O12 V2 1.982395 1_555
O12 Ti2 2.023940 1_555
O13 V0 1.952124 1_455
O13 Ti0 2.077032 1_555
O14 V1 1.966974 1_555
O14 V2 1.966974 1_555
O15 V0 1.952124 1_545
O15 Ti1 2.077032 1_555
