# generated using pymatgen
data_Li9V3P8O29
_symmetry_space_group_name_H-M   'P 1'
_cell_length_a   9.91484100
_cell_length_b   9.91623455
_cell_length_c   13.75402797
_cell_angle_alpha   90.19707205
_cell_angle_beta   90.02389055
_cell_angle_gamma   119.91021584
_symmetry_Int_Tables_number   1
_chemical_formula_structural   Li9V3P8O29
_chemical_formula_sum   'Li18 V6 P16 O58'
_cell_volume   1172.14517231
_cell_formula_units_Z   2
loop_
 _symmetry_equiv_pos_site_id
 _symmetry_equiv_pos_as_xyz
  1  'x, y, z'
loop_
 _atom_site_type_symbol
 _atom_site_label
 _atom_site_symmetry_multiplicity
 _atom_site_fract_x
 _atom_site_fract_y
 _atom_site_fract_z
 _atom_site_occupancy
  Li  Li0  1  0.76030600  0.09818100  0.07356300  1
  Li  Li1  1  0.90580900  0.24282300  0.56316400  1
  Li  Li2  1  0.33622200  0.10022100  0.56218700  1
  Li  Li3  1  0.65685300  0.31659100  0.37676700  1
  Li  Li4  1  0.66654800  0.33493500  0.88050300  1
  Li  Li5  1  0.33309100  0.22872600  0.06645100  1
  Li  Li6  1  0.89861800  0.66619400  0.06526200  1
  Li  Li7  1  0.23657400  0.32969000  0.43315000  1
  Li  Li8  1  0.77009500  0.65961100  0.56784400  1
  Li  Li9  1  0.09833700  0.33182700  0.93791800  1
  Li  Li10  1  0.66834200  0.76529800  0.93794900  1
  Li  Li11  1  0.32523400  0.66058700  0.62545700  1
  Li  Li12  1  0.34422300  0.68361400  0.12090100  1
  Li  Li13  1  0.10419400  0.77387400  0.43336900  1
  Li  Li14  1  0.55995500  0.01149600  0.23396400  1
  Li  Li15  1  0.23375500  0.90251800  0.93999800  1
  Li  Li16  1  0.00385500  0.99828200  0.00737100  1
  Li  Li17  1  0.04689500  0.01703400  0.49820700  1
  V  V0  1  0.43449700  0.43142400  0.24626400  1
  V  V1  1  0.56478300  0.56363500  0.75039600  1
  V  V2  1  0.99987500  0.43521600  0.75091000  1
  V  V3  1  0.99826300  0.56519100  0.24853100  1
  V  V4  1  0.65545800  0.89516700  0.43073600  1
  V  V5  1  0.43238600  0.00007500  0.75174700  1
  P  P0  1  0.77417700  0.09029800  0.84380600  1
  P  P1  1  0.91621200  0.22911000  0.34624000  1
  P  P2  1  0.32005300  0.09164100  0.34472300  1
  P  P3  1  0.67158300  0.33805400  0.12230500  1
  P  P4  1  0.66655000  0.33183700  0.62304500  1
  P  P5  1  0.31549600  0.22665200  0.84557500  1
  P  P6  1  0.22590700  0.31470800  0.65585300  1
  P  P7  1  0.91058800  0.68451000  0.84443300  1
  P  P8  1  0.08814800  0.31486700  0.15511000  1
  P  P9  1  0.77256500  0.68057200  0.33988300  1
  P  P10  1  0.68185500  0.77399200  0.15268100  1
  P  P11  1  0.32965100  0.65875700  0.38093100  1
  P  P12  1  0.33367000  0.66684700  0.87599900  1
  P  P13  1  0.67675800  0.90645200  0.65634700  1
  P  P14  1  0.08969600  0.77470100  0.65477500  1
  P  P15  1  0.22609100  0.90725000  0.15511400  1
  O  O0  1  0.75334800  0.99847700  0.56093200  1
  O  O1  1  0.75622700  0.07812100  0.34964600  1
  O  O2  1  0.99349600  0.22355500  0.06670200  1
  O  O3  1  0.92241800  0.24951400  0.84467200  1
  O  O4  1  0.62983300  0.10940700  0.83324400  1
  O  O5  1  0.68488000  0.20078400  0.15832200  1
  O  O6  1  0.47960100  0.10800800  0.34330700  1
  O  O7  1  0.22162200  0.00089200  0.06741200  1
  O  O8  1  0.32591700  0.07741700  0.84581800  1
  O  O9  1  0.81082600  0.32413900  0.66260500  1
  O  O10  1  0.89154000  0.36912600  0.33586000  1
  O  O11  1  0.51422100  0.18793300  0.66153000  1
  O  O12  1  0.67050200  0.35083300  0.01257200  1
  O  O13  1  0.66897200  0.33435200  0.51336000  1
  O  O14  1  0.51502100  0.32652900  0.16175500  1
  O  O15  1  0.89045100  0.52050200  0.83309100  1
  O  O16  1  0.81135300  0.49490500  0.16448400  1
  O  O17  1  0.32616800  0.25060000  0.34147900  1
  O  O18  1  0.21390700  0.21379700  0.75008700  1
  O  O19  1  0.22723200  0.22272400  0.56682500  1
  O  O20  1  0.22571300  0.23054300  0.93402100  1
  O  O21  1  0.47917700  0.36955800  0.83418500  1
  O  O22  1  0.67439900  0.48427500  0.66313800  1
  O  O23  1  0.24744900  0.32570400  0.15325800  1
  O  O24  1  0.62919500  0.51920700  0.33536100  1
  O  O25  1  0.92296600  0.67503800  0.34811600  1
  O  O26  1  0.00064300  0.21318600  0.25094700  1
  O  O27  1  0.01042800  0.23363700  0.43552400  1
  O  O28  1  0.99746200  0.77413900  0.56548500  1
  O  O29  1  0.07805200  0.32765400  0.65549700  1
  O  O30  1  0.37026800  0.47787500  0.66509200  1
  O  O31  1  0.75060200  0.67319300  0.84364700  1
  O  O32  1  0.32199800  0.50954100  0.33969500  1
  O  O33  1  0.51961700  0.62747700  0.16742800  1
  O  O34  1  0.77047200  0.76272300  0.06523100  1
  O  O35  1  0.76396000  0.77358300  0.43100700  1
  O  O36  1  0.78616000  0.78510000  0.24938400  1
  O  O37  1  0.67318000  0.75077800  0.65246000  1
  O  O38  1  0.18919000  0.51485000  0.83581400  1
  O  O39  1  0.10732100  0.47847400  0.16691100  1
  O  O40  1  0.48556000  0.67519700  0.83528600  1
  O  O41  1  0.33399400  0.66452800  0.98543900  1
  O  O42  1  0.34590300  0.66848700  0.49106700  1
  O  O43  1  0.48440300  0.80584400  0.34315400  1
  O  O44  1  0.10827700  0.63007000  0.66379300  1
  O  O45  1  0.18818500  0.67144200  0.34475100  1
  O  O46  1  0.67132600  0.91966300  0.15327000  1
  O  O47  1  0.78797000  0.00635400  0.74350200  1
  O  O48  1  0.77057300  0.99285700  0.92942800  1
  O  O49  1  0.51376500  0.88467200  0.66777700  1
  O  O50  1  0.32478000  0.81130900  0.83779000  1
  O  O51  1  0.36459000  0.88325000  0.16050500  1
  O  O52  1  0.07101400  0.75121800  0.15806000  1
  O  O53  1  0.00396200  0.77422000  0.93309800  1
  O  O54  1  0.99951100  0.78568800  0.74919100  1
  O  O55  1  0.24959000  0.92331700  0.65471100  1
  O  O56  1  0.21896500  0.00179400  0.43319400  1
  O  O57  1  0.21867200  0.99978300  0.25064400  1
loop_
_geom_bond_atom_site_label_1
_geom_bond_atom_site_label_2
_geom_bond_distance
_geom_bond_site_symmetry_2
Li0 O46 1.889587 1_545
Li0 O5 1.924799 1_555
Li0 O2 2.008596 1_555
Li0 O48 2.263444 1_544
Li1 O29 1.948080 1_655
Li1 O9 2.039244 1_555
Li1 O27 2.064195 1_655
Li1 O0 2.122165 1_545
Li2 O55 1.986986 1_545
Li2 O19 1.989002 1_555
Li2 O11 2.048676 1_555
Li2 O56 2.075248 1_555
Li3 O13 1.884520 1_555
Li3 O6 1.986481 1_555
Li3 O10 2.190102 1_555
Li3 O24 2.234631 1_555
Li4 O12 1.821483 1_556
Li4 O21 2.147458 1_555
Li4 O15 2.162194 1_555
Li4 O4 2.175859 1_555
Li5 O7 1.958557 1_555
Li5 O23 1.969417 1_555
Li5 O14 2.038914 1_555
Li5 O20 2.114043 1_554
Li6 O34 1.934788 1_555
Li6 O52 1.953231 1_655
Li6 O16 2.011808 1_555
Li6 O53 2.107589 1_654
Li7 O17 1.919071 1_555
Li7 O27 1.950942 1_555
Li7 O32 2.015068 1_555
Li7 O19 2.104657 1_555
Li8 O28 1.954436 1_555
Li8 O37 1.988737 1_555
Li8 O22 2.003152 1_555
Li8 O35 2.215003 1_555
Li9 O20 1.967539 1_555
Li9 O3 1.981021 1_455
Li9 O2 2.066968 1_456
Li9 O38 2.113206 1_555
Li10 O48 1.963148 1_555
Li10 O31 1.979214 1_555
Li10 O34 2.028638 1_556
Li10 O40 2.109685 1_555
Li11 O42 1.857426 1_555
Li11 O44 2.085584 1_555
Li11 O30 2.143035 1_555
Li11 O49 2.149046 1_555
Li12 O41 1.869679 1_554
Li12 O51 1.962211 1_555
Li12 O33 2.170361 1_555
Li12 O39 2.302300 1_555
Li13 O25 1.948899 1_455
Li13 O56 1.959122 1_565
Li13 O45 2.011645 1_555
Li13 O28 2.103843 1_455
Li14 O5 1.958492 1_555
Li14 O51 1.980654 1_545
Li14 O46 2.068156 1_545
Li14 O6 2.136323 1_555
Li14 O1 2.337309 1_555
Li14 O43 2.339617 1_545
Li15 O53 1.981607 1_555
Li15 O8 1.989173 1_565
Li15 O7 2.035342 1_566
Li15 O50 2.101211 1_555
Li16 O7 2.299366 1_565
Li16 O2 2.425478 1_465
Li16 O53 2.442731 1_554
Li16 O34 2.463303 1_455
Li16 O20 2.475138 1_564
Li16 O48 2.524945 1_454
Li17 O56 1.997618 1_555
Li17 O19 2.143887 1_555
Li17 O28 2.395049 1_445
Li17 O27 2.504876 1_555
O0 P13 1.565123 1_555
O0 V4 2.047560 1_555
O1 P1 1.546632 1_555
O1 V4 1.934087 1_545
O2 P8 1.524202 1_655
O3 P0 1.529288 1_555
O3 V2 2.061714 1_555
O4 P0 1.541318 1_555
O4 V5 2.034066 1_555
O5 P3 1.516313 1_555
O6 P2 1.507684 1_555
O7 P15 1.538819 1_545
O8 P5 1.534002 1_555
O8 V5 2.044093 1_555
O9 P4 1.567378 1_555
O9 V2 2.032640 1_555
O10 P1 1.532322 1_555
O10 V3 2.075530 1_555
O11 P4 1.566539 1_555
O11 V5 2.043917 1_555
O12 P3 1.515496 1_555
O13 P4 1.508906 1_555
O14 P3 1.594138 1_555
O14 V0 1.972571 1_555
O15 P7 1.543887 1_555
O15 V2 2.019753 1_555
O16 P3 1.587360 1_555
O16 V3 1.990206 1_555
O17 P2 1.547736 1_555
O17 V0 2.044623 1_555
O18 P6 1.607997 1_555
O18 P5 1.620294 1_555
O19 P6 1.528341 1_555
O20 P5 1.519406 1_555
O21 P5 1.540982 1_555
O21 V1 2.034529 1_555
O22 P4 1.572267 1_555
O22 V1 2.021976 1_555
O23 P8 1.528929 1_555
O23 V0 2.055389 1_555
O24 P9 1.521767 1_555
O24 V0 2.073829 1_555
O25 P9 1.523492 1_555
O25 V3 2.102737 1_555
O26 P1 1.604637 1_455
O26 P8 1.626212 1_555
O27 P1 1.529539 1_455
O28 P14 1.529206 1_655
O29 P6 1.534021 1_555
O29 V2 2.067931 1_455
O30 P6 1.539998 1_555
O30 V1 2.043238 1_555
O31 P7 1.533396 1_555
O31 V1 2.052295 1_555
O32 P11 1.548886 1_555
O32 V0 2.086042 1_555
O33 P10 1.552762 1_555
O33 V0 2.011599 1_555
O34 P10 1.526120 1_555
O35 P9 1.580943 1_555
O35 V4 1.975967 1_555
O36 P9 1.584794 1_555
O36 P10 1.653761 1_555
O37 P13 1.527070 1_555
O37 V1 2.107772 1_555
O38 P12 1.571513 1_555
O38 V2 2.006022 1_455
O39 P8 1.544391 1_555
O39 V3 2.022506 1_455
O40 P12 1.570037 1_555
O40 V1 2.015577 1_555
O41 P12 1.505522 1_555
O42 P11 1.520928 1_555
O43 P11 1.589208 1_555
O43 V4 1.898632 1_555
O44 P14 1.539787 1_555
O44 V2 2.066460 1_455
O45 P11 1.551313 1_555
O45 V3 2.101690 1_455
O46 P10 1.499291 1_555
O47 P13 1.592338 1_545
O47 P0 1.649437 1_555
O48 P0 1.514990 1_565
O49 P13 1.528183 1_555
O49 V5 2.051088 1_565
O50 P12 1.570708 1_555
O50 V5 2.016743 1_565
O51 P15 1.507899 1_555
O52 P15 1.545210 1_555
O52 V3 2.039878 1_455
O53 P7 1.518517 1_455
O54 P14 1.610876 1_655
O54 P7 1.621041 1_555
O55 P14 1.534640 1_555
O55 V5 2.064124 1_565
O56 P2 1.548206 1_555
O57 P2 1.610010 1_565
O57 P15 1.622607 1_555
