# generated using pymatgen
data_V2Fe3Sb(PO4)6
_symmetry_space_group_name_H-M   'P 1'
_cell_length_a   8.63390838
_cell_length_b   8.65474370
_cell_length_c   8.65474342
_cell_angle_alpha   59.99999809
_cell_angle_beta   59.92014024
_cell_angle_gamma   59.92014266
_symmetry_Int_Tables_number   1
_chemical_formula_structural   V2Fe3Sb(PO4)6
_chemical_formula_sum   'V2 Fe3 Sb1 P6 O24'
_cell_volume   456.74685342
_cell_formula_units_Z   1
loop_
 _symmetry_equiv_pos_site_id
 _symmetry_equiv_pos_as_xyz
  1  'x, y, z'
loop_
 _atom_site_type_symbol
 _atom_site_label
 _atom_site_symmetry_multiplicity
 _atom_site_fract_x
 _atom_site_fract_y
 _atom_site_fract_z
 _atom_site_occupancy
  V  V0  1  0.01216800  0.99594400  0.99594400  1
  V  V1  1  0.49601100  0.50133000  0.50133000  1
  Fe  Fe0  1  0.06675500  0.64441500  0.64441500  1
  Fe  Fe1  1  0.43541300  0.85486200  0.85486200  1
  Fe  Fe2  1  0.93127800  0.35624000  0.35624000  1
  Sb  Sb0  1  0.56921800  0.14359400  0.14359400  1
  P  P0  1  0.24473900  0.25388600  0.54579200  1
  P  P1  1  0.24473900  0.95558400  0.25388600  1
  P  P2  1  0.24473900  0.54579200  0.95558400  1
  P  P3  1  0.74812700  0.46032500  0.04474400  1
  P  P4  1  0.74812700  0.04474400  0.74680500  1
  P  P5  1  0.74812700  0.74680500  0.46032500  1
  O  O0  1  0.07222200  0.11301800  0.31770200  1
  O  O1  1  0.07222200  0.49705800  0.11301800  1
  O  O2  1  0.07222200  0.31770200  0.49705800  1
  O  O3  1  0.23165500  0.08741100  0.73589300  1
  O  O4  1  0.43502500  0.18923500  0.38606600  1
  O  O5  1  0.26896200  0.41252100  0.55769500  1
  O  O6  1  0.23165500  0.94504100  0.08741100  1
  O  O7  1  0.26896200  0.76082200  0.41252100  1
  O  O8  1  0.56706100  0.61044400  0.00669400  1
  O  O9  1  0.26896200  0.55769500  0.76082200  1
  O  O10  1  0.76768600  0.25646100  0.06080100  1
  O  O11  1  0.56706100  0.00669400  0.81580100  1
  O  O12  1  0.43502500  0.98967400  0.18923500  1
  O  O13  1  0.23165500  0.73589300  0.94504100  1
  O  O14  1  0.73050500  0.43525800  0.24235200  1
  O  O15  1  0.43502500  0.38606600  0.98967400  1
  O  O16  1  0.73050500  0.24235200  0.59188400  1
  O  O17  1  0.76768600  0.06080100  0.91505200  1
  O  O18  1  0.73050500  0.59188400  0.43525800  1
  O  O19  1  0.56706100  0.81580100  0.61044400  1
  O  O20  1  0.76768600  0.91505200  0.25646100  1
  O  O21  1  0.93040100  0.69202100  0.49022900  1
  O  O22  1  0.93040100  0.49022900  0.88734900  1
  O  O23  1  0.93040100  0.88734900  0.69202100  1
loop_
_geom_bond_atom_site_label_1
_geom_bond_atom_site_label_2
_geom_bond_distance
_geom_bond_site_symmetry_2
Fe0 O22 1.968552 1_455
Fe0 O21 1.968552 1_455
Fe0 O23 1.968552 1_455
Fe0 O7 2.078402 1_555
Fe0 O9 2.078402 1_555
Fe0 O5 2.078402 1_555
Fe1 O19 1.949557 1_555
Fe1 O8 1.949561 1_556
Fe1 O11 1.949565 1_565
Fe1 O13 2.097615 1_555
Fe1 O3 2.097617 1_565
Fe1 O6 2.097621 1_556
Fe2 O0 1.936666 1_655
Fe2 O1 1.936673 1_655
Fe2 O2 1.936681 1_655
Fe2 O14 2.072301 1_555
Fe2 O16 2.072304 1_555
Fe2 O18 2.072307 1_555
O0 P1 1.507873 1_545
O1 P2 1.507876 1_554
O2 P0 1.507878 1_555
O3 P0 1.549815 1_555
O3 V0 2.174865 1_545
O4 P0 1.580704 1_555
O4 Sb0 1.958361 1_555
O5 P0 1.546025 1_555
O5 V1 2.201915 1_555
O6 P1 1.549820 1_555
O6 V0 2.174865 1_554
O7 P1 1.546030 1_555
O7 V1 2.201911 1_555
O8 P3 1.514131 1_555
O9 P2 1.546034 1_555
O9 V1 2.201909 1_555
O10 P3 1.624980 1_555
O10 Sb0 2.037414 1_555
O10 V0 2.271896 1_644
O11 P4 1.514133 1_555
O12 P1 1.580699 1_555
O12 Sb0 1.958361 1_565
O13 P2 1.549812 1_555
O13 V0 2.174865 1_555
O14 P3 1.548023 1_555
O14 V1 2.241011 1_555
O15 P2 1.580701 1_555
O15 Sb0 1.958361 1_556
O16 P4 1.548029 1_555
O16 V1 2.241006 1_555
O17 P4 1.624971 1_555
O17 Sb0 2.037414 1_556
O17 V0 2.271896 1_645
O18 P5 1.548040 1_555
O18 V1 2.240999 1_555
O19 P5 1.514128 1_555
O20 P5 1.624976 1_555
O20 Sb0 2.037414 1_565
O20 V0 2.271896 1_654
O21 P5 1.518564 1_555
O22 P3 1.518567 1_556
O23 P4 1.518569 1_565
