# generated using pymatgen
data_LiVPO5
_symmetry_space_group_name_H-M   'P 1'
_cell_length_a   6.41902900
_cell_length_b   7.59013800
_cell_length_c   8.29762400
_cell_angle_alpha   90.00000000
_cell_angle_beta   90.00000000
_cell_angle_gamma   90.00000000
_symmetry_Int_Tables_number   1
_chemical_formula_structural   LiVPO5
_chemical_formula_sum   'Li4 V4 P4 O20'
_cell_volume   404.27116042
_cell_formula_units_Z   4
loop_
 _symmetry_equiv_pos_site_id
 _symmetry_equiv_pos_as_xyz
  1  'x, y, z'
loop_
 _atom_site_type_symbol
 _atom_site_label
 _atom_site_symmetry_multiplicity
 _atom_site_fract_x
 _atom_site_fract_y
 _atom_site_fract_z
 _atom_site_occupancy
  Li  Li0  1  0.39829800  0.62566600  0.75238600  1
  Li  Li1  1  0.10170200  0.37433400  0.25238600  1
  Li  Li2  1  0.60170200  0.12566600  0.74761400  1
  Li  Li3  1  0.89829800  0.87433400  0.24761400  1
  V  V0  1  0.87941100  0.57947900  0.59655000  1
  V  V1  1  0.62058900  0.42052100  0.09655000  1
  V  V2  1  0.12058900  0.07947900  0.90345000  1
  V  V3  1  0.37941100  0.92052100  0.40345000  1
  P  P0  1  0.89684300  0.69279900  0.90079100  1
  P  P1  1  0.60315700  0.30720100  0.40079100  1
  P  P2  1  0.10315700  0.19279900  0.59920900  1
  P  P3  1  0.39684300  0.80720100  0.09920900  1
  O  O0  1  0.89373300  0.72569100  0.45121900  1
  O  O1  1  0.70947700  0.67523500  0.77968200  1
  O  O2  1  0.42821900  0.61797000  0.03800300  1
  O  O3  1  0.86495600  0.57398100  0.04984900  1
  O  O4  1  0.07657200  0.62822300  0.78670900  1
  O  O5  1  0.42342800  0.37177700  0.28670900  1
  O  O6  1  0.63504400  0.42601900  0.54984900  1
  O  O7  1  0.07178100  0.38203000  0.53800300  1
  O  O8  1  0.79052300  0.32476500  0.27968200  1
  O  O9  1  0.60626700  0.27430900  0.95121900  1
  O  O10  1  0.10626700  0.22569100  0.04878100  1
  O  O11  1  0.29052300  0.17523500  0.72031800  1
  O  O12  1  0.57178100  0.11797000  0.46199700  1
  O  O13  1  0.13504400  0.07398100  0.45015100  1
  O  O14  1  0.92342800  0.12822300  0.71329100  1
  O  O15  1  0.57657200  0.87177700  0.21329100  1
  O  O16  1  0.36495600  0.92601900  0.95015100  1
  O  O17  1  0.92821900  0.88203000  0.96199700  1
  O  O18  1  0.20947700  0.82476500  0.22031800  1
  O  O19  1  0.39373300  0.77430900  0.54878100  1
loop_
_geom_bond_atom_site_label_1
_geom_bond_atom_site_label_2
_geom_bond_distance
_geom_bond_site_symmetry_2
Li0 O19 2.031733 1_555
Li0 O1 2.045171 1_555
Li0 O4 2.084804 1_555
Li0 O2 2.378430 1_556
Li1 O10 2.031733 1_555
Li1 O8 2.045171 1_455
Li1 O5 2.084804 1_555
Li1 O7 2.378430 1_555
Li2 O9 2.031733 1_555
Li2 O11 2.045171 1_555
Li2 O14 2.084804 1_555
Li2 O12 2.378430 1_555
Li3 O0 2.031733 1_555
Li3 O18 2.045171 1_655
Li3 O15 2.084804 1_555
Li3 O17 2.378430 1_554
O0 V0 1.641414 1_555
O1 P0 1.572939 1_555
O1 V0 2.006782 1_555
O2 P3 1.536690 1_555
O2 V1 2.001700 1_555
O3 P0 1.544332 1_554
O3 V1 1.991829 1_555
O4 P0 1.570764 1_455
O4 V0 2.056270 1_455
O5 P1 1.570764 1_555
O5 V1 2.056270 1_555
O6 P1 1.544332 1_555
O6 V0 1.991829 1_555
O7 P2 1.536690 1_555
O7 V0 2.001700 1_455
O8 P1 1.572939 1_555
O8 V1 2.006782 1_555
O9 V1 1.641414 1_556
O10 V2 1.641414 1_554
O11 P2 1.572939 1_555
O11 V2 2.006782 1_555
O12 P1 1.536690 1_555
O12 V3 2.001700 1_545
O13 P2 1.544332 1_555
O13 V3 1.991829 1_545
O14 P2 1.570764 1_655
O14 V2 2.056270 1_655
O15 P3 1.570764 1_555
O15 V3 2.056270 1_555
O16 P3 1.544332 1_556
O16 V2 1.991829 1_565
O17 P0 1.536690 1_555
O17 V2 2.001700 1_665
O18 P3 1.572939 1_555
O18 V3 2.006782 1_555
O19 V3 1.641414 1_555
