# generated using pymatgen
data_LiP3W2O13
_symmetry_space_group_name_H-M   'P 1'
_cell_length_a   8.76521800
_cell_length_b   6.88793700
_cell_length_c   8.94580279
_cell_angle_alpha   85.59914112
_cell_angle_beta   90.00000000
_cell_angle_gamma   90.00000000
_symmetry_Int_Tables_number   1
_chemical_formula_structural   LiP3W2O13
_chemical_formula_sum   'Li2 P6 W4 O26'
_cell_volume   538.50388837
_cell_formula_units_Z   2
loop_
 _symmetry_equiv_pos_site_id
 _symmetry_equiv_pos_as_xyz
  1  'x, y, z'
loop_
 _atom_site_type_symbol
 _atom_site_label
 _atom_site_symmetry_multiplicity
 _atom_site_fract_x
 _atom_site_fract_y
 _atom_site_fract_z
 _atom_site_occupancy
  Li  Li0  1  0.14284000  0.50000000  0.75000000  1
  Li  Li1  1  0.85716000  0.50000000  0.25000000  1
  P  P0  1  0.04124400  0.00000000  0.75000000  1
  P  P1  1  0.95875600  0.00000000  0.25000000  1
  P  P2  1  0.56820700  0.16245000  0.83822500  1
  P  P3  1  0.43179300  0.16245000  0.33822500  1
  P  P4  1  0.56820700  0.83755000  0.66177500  1
  P  P5  1  0.43179300  0.83755000  0.16177500  1
  W  W0  1  0.76189600  0.23358100  0.51829700  1
  W  W1  1  0.23810400  0.23358100  0.01829700  1
  W  W2  1  0.76189600  0.76641900  0.98170300  1
  W  W3  1  0.23810400  0.76641900  0.48170300  1
  O  O0  1  0.47858000  0.00000000  0.75000000  1
  O  O1  1  0.67193800  0.05244000  0.95334000  1
  O  O2  1  0.14283900  0.15045900  0.82240900  1
  O  O3  1  0.52142000  0.00000000  0.25000000  1
  O  O4  1  0.32806200  0.05244000  0.45334000  1
  O  O5  1  0.94487300  0.11865300  0.63190700  1
  O  O6  1  0.44692600  0.28511500  0.90794700  1
  O  O7  1  0.85716100  0.15045900  0.32240900  1
  O  O8  1  0.66144700  0.28359100  0.71956200  1
  O  O9  1  0.05512700  0.11865300  0.13190700  1
  O  O10  1  0.55307400  0.28511500  0.40794700  1
  O  O11  1  0.33855300  0.28359100  0.21956200  1
  O  O12  1  0.81927700  0.47674100  0.46749200  1
  O  O13  1  0.81927700  0.52325900  0.03250800  1
  O  O14  1  0.18072300  0.47674100  0.96749200  1
  O  O15  1  0.18072300  0.52325900  0.53250800  1
  O  O16  1  0.66144700  0.71640900  0.78043800  1
  O  O17  1  0.44692600  0.71488500  0.59205300  1
  O  O18  1  0.94487300  0.88134700  0.86809300  1
  O  O19  1  0.33855300  0.71640900  0.28043800  1
  O  O20  1  0.14283900  0.84954100  0.67759100  1
  O  O21  1  0.55307400  0.71488500  0.09205300  1
  O  O22  1  0.05512700  0.88134700  0.36809300  1
  O  O23  1  0.67193800  0.94756000  0.54666000  1
  O  O24  1  0.85716100  0.84954100  0.17759100  1
  O  O25  1  0.32806200  0.94756000  0.04666000  1
loop_
_geom_bond_atom_site_label_1
_geom_bond_atom_site_label_2
_geom_bond_distance
_geom_bond_site_symmetry_2
Li0 O14 1.968148 1_555
Li0 O15 1.968148 1_555
Li0 O20 2.444763 1_555
Li0 O2 2.444763 1_555
Li1 O12 1.968148 1_555
Li1 O13 1.968148 1_555
Li1 O24 2.444763 1_555
Li1 O7 2.444763 1_555
O0 P4 1.621000 1_545
O0 P2 1.621000 1_555
O1 P2 1.530225 1_555
O1 W2 2.119121 1_545
O2 P0 1.545844 1_555
O2 W1 2.061517 1_556
O3 P5 1.621000 1_545
O3 P3 1.621000 1_555
O4 P3 1.530225 1_555
O4 W3 2.119121 1_545
O5 P0 1.537866 1_655
O5 W0 2.026918 1_555
O6 P2 1.521137 1_555
O6 W1 2.096898 1_556
O7 P1 1.545844 1_555
O7 W0 2.061517 1_555
O8 P2 1.534632 1_555
O8 W0 2.056881 1_555
O9 P1 1.537866 1_455
O9 W1 2.026918 1_555
O10 P3 1.521137 1_555
O10 W0 2.096898 1_555
O11 P3 1.534632 1_555
O11 W1 2.056881 1_555
O12 W0 1.774232 1_555
O13 W2 1.774232 1_554
O14 W1 1.774232 1_556
O15 W3 1.774232 1_555
O16 P4 1.534632 1_555
O16 W2 2.056881 1_555
O17 P4 1.521137 1_555
O17 W3 2.096898 1_555
O18 P0 1.537866 1_665
O18 W2 2.026918 1_555
O19 P5 1.534632 1_555
O19 W3 2.056881 1_555
O20 P0 1.545844 1_565
O20 W3 2.061517 1_555
O21 P5 1.521137 1_555
O21 W2 2.096898 1_554
O22 P1 1.537866 1_465
O22 W3 2.026918 1_555
O23 P4 1.530225 1_555
O23 W0 2.119121 1_565
O24 P1 1.545844 1_565
O24 W2 2.061517 1_554
O25 P5 1.530225 1_555
O25 W1 2.119121 1_565
