# generated using pymatgen
data_Ni3Sn(PO4)4
_symmetry_space_group_name_H-M   'P 1'
_cell_length_a   5.87729200
_cell_length_b   4.84522900
_cell_length_c   9.97036728
_cell_angle_alpha   89.80077049
_cell_angle_beta   90.00000000
_cell_angle_gamma   90.00000000
_symmetry_Int_Tables_number   1
_chemical_formula_structural   Ni3Sn(PO4)4
_chemical_formula_sum   'Ni3 Sn1 P4 O16'
_cell_volume   283.92269401
_cell_formula_units_Z   1
loop_
 _symmetry_equiv_pos_site_id
 _symmetry_equiv_pos_as_xyz
  1  'x, y, z'
loop_
 _atom_site_type_symbol
 _atom_site_label
 _atom_site_symmetry_multiplicity
 _atom_site_fract_x
 _atom_site_fract_y
 _atom_site_fract_z
 _atom_site_occupancy
  Ni  Ni0  1  0.50000000  0.95629600  0.27303600  1
  Ni  Ni1  1  0.50000000  0.54553100  0.77581500  1
  Ni  Ni2  1  0.00000000  0.45456200  0.22828700  1
  Sn  Sn0  1  0.00000000  0.03775800  0.72352300  1
  P  P0  1  0.00000000  0.90586000  0.39875000  1
  P  P1  1  0.00000000  0.59508700  0.91265500  1
  P  P2  1  0.50000000  0.40897700  0.09800400  1
  P  P3  1  0.50000000  0.08762600  0.58958900  1
  O  O0  1  0.00000000  0.82133400  0.54972100  1
  O  O1  1  0.20474500  0.76137600  0.32652800  1
  O  O2  1  0.79525500  0.76137600  0.32652800  1
  O  O3  1  0.50000000  0.77827000  0.61282800  1
  O  O4  1  0.50000000  0.72432900  0.11043600  1
  O  O5  1  0.20267000  0.74220000  0.83348800  1
  O  O6  1  0.79733000  0.74220000  0.83348800  1
  O  O7  1  0.00000000  0.66660400  0.06007500  1
  O  O8  1  0.50000000  0.33829600  0.94826500  1
  O  O9  1  0.70448400  0.26347800  0.17201100  1
  O  O10  1  0.29551600  0.26347800  0.17201100  1
  O  O11  1  0.00000000  0.28076400  0.89055700  1
  O  O12  1  0.00000000  0.22075100  0.39021100  1
  O  O13  1  0.70439600  0.23869500  0.66617600  1
  O  O14  1  0.29560400  0.23869500  0.66617600  1
  O  O15  1  0.50000000  0.16646000  0.44183900  1
loop_
_geom_bond_atom_site_label_1
_geom_bond_atom_site_label_2
_geom_bond_distance
_geom_bond_site_symmetry_2
Ni0 O15 1.970132 1_565
Ni0 O4 1.975887 1_555
Ni0 O1 2.045522 1_555
Ni0 O2 2.045522 1_555
Ni0 O10 2.159567 1_565
Ni0 O9 2.159567 1_565
Ni1 O3 1.974756 1_555
Ni1 O8 1.988093 1_555
Ni1 O5 2.072735 1_555
Ni1 O6 2.072735 1_555
Ni1 O13 2.204454 1_555
Ni1 O14 2.204454 1_555
Ni2 O7 1.963755 1_555
Ni2 O12 1.969033 1_555
Ni2 O9 2.047491 1_455
Ni2 O10 2.047491 1_555
Ni2 O1 2.151167 1_555
Ni2 O2 2.151167 1_455
O0 P0 1.558582 1_555
O0 Sn0 2.028568 1_565
O1 P0 1.568485 1_555
O2 P0 1.568485 1_655
O3 P3 1.515907 1_565
O4 P2 1.533402 1_555
O5 P1 1.595631 1_555
O5 Sn0 2.158877 1_565
O6 P1 1.595631 1_655
O6 Sn0 2.158877 1_665
O7 P1 1.511298 1_554
O8 P2 1.532888 1_556
O9 P2 1.575496 1_555
O10 P2 1.575496 1_555
O11 P1 1.539579 1_555
O11 Sn0 2.042909 1_555
O12 P0 1.527797 1_545
O13 P3 1.601828 1_555
O13 Sn0 2.071065 1_655
O14 P3 1.601828 1_555
O14 Sn0 2.071065 1_555
O15 P3 1.520551 1_555
