# generated using pymatgen
data_K2S3
_symmetry_space_group_name_H-M   'P 1'
_cell_length_a   6.22221904
_cell_length_b   6.22222088
_cell_length_c   7.41468415
_cell_angle_alpha   90.00000000
_cell_angle_beta   90.00000000
_cell_angle_gamma   108.39016885
_symmetry_Int_Tables_number   1
_chemical_formula_structural   K2S3
_chemical_formula_sum   'K4 S6'
_cell_volume   272.40659947
_cell_formula_units_Z   2
loop_
 _symmetry_equiv_pos_site_id
 _symmetry_equiv_pos_as_xyz
  1  'x, y, z'
loop_
 _atom_site_type_symbol
 _atom_site_label
 _atom_site_symmetry_multiplicity
 _atom_site_fract_x
 _atom_site_fract_y
 _atom_site_fract_z
 _atom_site_occupancy
  K  K0  1  0.41909838  0.58090162  0.65698545  1
  K  K1  1  0.58090162  0.41909838  0.15698545  1
  K  K2  1  0.89420491  0.10579509  0.38741179  1
  K  K3  1  0.10579509  0.89420491  0.88741179  1
  S  S0  1  0.38687688  0.07227146  0.50130253  1
  S  S1  1  0.61312312  0.92772854  0.00130253  1
  S  S2  1  0.92772854  0.61312312  0.50130253  1
  S  S3  1  0.07227146  0.38687688  0.00130253  1
  S  S4  1  0.79920290  0.20079710  0.84369771  1
  S  S5  1  0.20079710  0.79920290  0.34369771  1
loop_
_geom_bond_atom_site_label_1
_geom_bond_atom_site_label_2
_geom_bond_distance
_geom_bond_site_symmetry_2
K0 S5 3.201597 1_555
K0 S2 3.314868 1_555
K0 S0 3.314869 1_555
K0 S3 3.314896 1_556
K0 S1 3.314896 1_556
K0 S2 3.332751 1_455
K0 S0 3.332752 1_565
K1 S4 3.201597 1_554
K1 S3 3.314868 1_555
K1 S1 3.314869 1_555
K1 S2 3.314896 1_555
K1 S0 3.314896 1_555
K1 S3 3.332751 1_655
K1 S1 3.332752 1_545
K2 S5 3.111245 1_645
K2 S0 3.210288 1_555
K2 S2 3.210289 1_555
K2 S0 3.249226 1_655
K2 S2 3.249227 1_545
K2 S1 3.355565 1_545
K2 S3 3.355565 1_655
K2 S4 3.516459 1_555
K3 S4 3.111245 1_465
K3 S1 3.210288 1_556
K3 S3 3.210289 1_556
K3 S1 3.249226 1_456
K3 S3 3.249227 1_566
K3 S0 3.355565 1_565
K3 S2 3.355565 1_455
K3 S5 3.516459 1_556
S0 S5 2.086097 1_545
S1 S4 2.086097 1_564
S2 S5 2.086097 1_655
S3 S4 2.086097 1_454
