# generated using pymatgen
data_Li2Mn4OF8
_symmetry_space_group_name_H-M   'P 1'
_cell_length_a   7.06504600
_cell_length_b   8.08225701
_cell_length_c   8.74483774
_cell_angle_alpha   69.18200864
_cell_angle_beta   66.55098706
_cell_angle_gamma   79.52017493
_symmetry_Int_Tables_number   1
_chemical_formula_structural   Li2Mn4OF8
_chemical_formula_sum   'Li4 Mn8 O2 F16'
_cell_volume   427.72023405
_cell_formula_units_Z   2
loop_
 _symmetry_equiv_pos_site_id
 _symmetry_equiv_pos_as_xyz
  1  'x, y, z'
loop_
 _atom_site_type_symbol
 _atom_site_label
 _atom_site_symmetry_multiplicity
 _atom_site_fract_x
 _atom_site_fract_y
 _atom_site_fract_z
 _atom_site_occupancy
  Li  Li0  1  0.23868400  0.23474500  0.63178400  1
  Li  Li1  1  0.39264200  0.73343500  0.08981400  1
  Li  Li2  1  0.60735800  0.26656500  0.91018600  1
  Li  Li3  1  0.76131600  0.76525500  0.36821600  1
  Mn  Mn0  1  0.67245000  0.40564200  0.24865300  1
  Mn  Mn1  1  0.20918000  0.90052600  0.45360000  1
  Mn  Mn2  1  0.93836100  0.87463700  0.91888100  1
  Mn  Mn3  1  0.86391600  0.59688600  0.76560500  1
  Mn  Mn4  1  0.13608400  0.40311400  0.23439500  1
  Mn  Mn5  1  0.06163900  0.12536300  0.08111900  1
  Mn  Mn6  1  0.79082000  0.09947400  0.54640000  1
  Mn  Mn7  1  0.32755000  0.59435800  0.75134700  1
  O  O0  1  0.07967600  0.77293500  0.71714800  1
  O  O1  1  0.92032400  0.22706500  0.28285200  1
  F  F0  1  0.83373900  0.94011000  0.14826400  1
  F  F1  1  0.47674100  0.76152100  0.48047300  1
  F  F2  1  0.77131500  0.34411600  0.00313800  1
  F  F3  1  0.36731600  0.50026800  0.26909900  1
  F  F4  1  0.14977900  0.43928300  0.70192200  1
  F  F5  1  0.26031500  0.91343600  0.19987100  1
  F  F6  1  0.15190300  0.16157400  0.48111500  1
  F  F7  1  0.31284400  0.30222400  0.01051200  1
  F  F8  1  0.68715600  0.69777600  0.98948800  1
  F  F9  1  0.84809700  0.83842600  0.51888500  1
  F  F10  1  0.73968500  0.08656400  0.80012900  1
  F  F11  1  0.85022100  0.56071700  0.29807800  1
  F  F12  1  0.63268400  0.49973200  0.73090100  1
  F  F13  1  0.22868500  0.65588400  0.99686200  1
  F  F14  1  0.52325900  0.23847900  0.51952700  1
  F  F15  1  0.16626100  0.05989000  0.85173600  1
loop_
_geom_bond_atom_site_label_1
_geom_bond_atom_site_label_2
_geom_bond_distance
_geom_bond_site_symmetry_2
Mn0 O1 2.104744 1_555
Mn1 O0 2.046416 1_555
Mn2 O0 2.028546 1_655
Mn3 O0 2.091448 1_655
Mn4 O1 2.091448 1_455
Mn5 O1 2.028546 1_455
Mn6 O1 2.046416 1_555
Mn7 O0 2.104744 1_555
F0 Li3 1.872509 1_555
F0 Mn2 2.069363 1_554
F0 Mn5 2.163036 1_665
F1 Li3 1.853933 1_555
F1 Mn1 2.069802 1_555
F1 Mn7 2.191689 1_555
F2 Li2 1.941913 1_554
F2 Mn0 2.187173 1_555
F2 Mn3 2.303191 1_554
F2 Mn5 2.595214 1_655
F3 Li1 1.959784 1_555
F3 Mn4 2.099560 1_555
F3 Mn0 2.110675 1_555
F4 Li0 1.881469 1_555
F4 Mn3 2.164447 1_455
F4 Mn7 2.173678 1_555
F5 Li1 1.923837 1_555
F5 Mn1 2.067789 1_555
F5 Mn5 2.236887 1_565
F6 Li0 1.946875 1_555
F6 Mn1 2.155438 1_545
F6 Mn4 2.365833 1_555
F6 Mn6 2.487727 1_455
F7 Li2 1.921205 1_554
F7 Mn4 2.208160 1_555
F7 Mn5 2.235564 1_555
F7 Mn7 2.611559 1_554
F8 Li1 1.921205 1_556
F8 Mn3 2.208160 1_555
F8 Mn2 2.235564 1_555
F8 Mn0 2.611559 1_556
F9 Li3 1.946875 1_555
F9 Mn6 2.155438 1_565
F9 Mn3 2.365833 1_555
F9 Mn1 2.487727 1_655
F10 Li2 1.923837 1_555
F10 Mn6 2.067789 1_555
F10 Mn2 2.236887 1_545
F11 Li3 1.881469 1_555
F11 Mn4 2.164447 1_655
F11 Mn0 2.173678 1_555
F12 Li2 1.959784 1_555
F12 Mn3 2.099560 1_555
F12 Mn7 2.110675 1_555
F13 Li1 1.941913 1_556
F13 Mn7 2.187173 1_555
F13 Mn4 2.303191 1_556
F13 Mn2 2.595214 1_455
F14 Li0 1.853933 1_555
F14 Mn6 2.069802 1_555
F14 Mn0 2.191689 1_555
F15 Li0 1.872509 1_555
F15 Mn5 2.069363 1_556
F15 Mn2 2.163036 1_445
