# generated using pymatgen
data_Li5La3(SbO6)2
_symmetry_space_group_name_H-M   'P 1'
_cell_length_a   11.23141000
_cell_length_b   11.24545602
_cell_length_c   11.24991178
_cell_angle_alpha   109.04060501
_cell_angle_beta   109.51986921
_cell_angle_gamma   109.68537319
_symmetry_Int_Tables_number   1
_chemical_formula_structural   Li5La3(SbO6)2
_chemical_formula_sum   'Li20 La12 Sb8 O48'
_cell_volume   1096.03306739
_cell_formula_units_Z   4
loop_
 _symmetry_equiv_pos_site_id
 _symmetry_equiv_pos_as_xyz
  1  'x, y, z'
loop_
 _atom_site_type_symbol
 _atom_site_label
 _atom_site_symmetry_multiplicity
 _atom_site_fract_x
 _atom_site_fract_y
 _atom_site_fract_z
 _atom_site_occupancy
  Li  Li0  1  0.89205000  0.68992600  0.44068700  1
  Li  Li1  1  0.27515200  0.10580200  0.01168700  1
  Li  Li2  1  0.07712000  0.60779600  0.32009800  1
  Li  Li3  1  0.75040600  0.81307900  0.70908000  1
  Li  Li4  1  0.75606700  0.47493200  0.08386700  1
  Li  Li5  1  0.39031000  0.95908200  0.20853600  1
  Li  Li6  1  0.30735000  0.70936300  0.25287300  1
  Li  Li7  1  0.19079200  0.44102100  0.39469900  1
  Li  Li8  1  0.46353100  0.20838000  0.89623100  1
  Li  Li9  1  0.81364900  0.56913600  0.60861600  1
  Li  Li10  1  0.54390300  0.79046500  0.09978800  1
  Li  Li11  1  0.24778500  0.54180300  0.92665400  1
  Li  Li12  1  0.25393300  0.18188700  0.28782500  1
  Li  Li13  1  0.60297600  0.02095900  0.77744500  1
  Li  Li14  1  0.71095500  0.89036100  0.96582100  1
  Li  Li15  1  0.58832500  0.26065900  0.48452600  1
  Li  Li16  1  0.92546000  0.39538300  0.68360200  1
  Li  Li17  1  0.21065300  0.24347400  0.81307800  1
  Li  Li18  1  0.11202400  0.32028100  0.57654600  1
  Li  Li19  1  0.95219800  0.05649200  0.24965700  1
  La  La0  1  0.24917000  0.87945700  0.62782200  1
  La  La1  1  0.10919200  0.86659700  0.24976600  1
  La  La2  1  0.61748300  0.36856800  0.25117500  1
  La  La3  1  0.74892400  0.61599900  0.87462500  1
  La  La4  1  0.12520900  0.75652900  0.87712300  1
  La  La5  1  0.87108300  0.24950600  0.11860900  1
  La  La6  1  0.62791800  0.75218700  0.37848400  1
  La  La7  1  0.37944500  0.24827000  0.62269400  1
  La  La8  1  0.25085600  0.38177300  0.12843000  1
  La  La9  1  0.38297500  0.63261300  0.74323900  1
  La  La10  1  0.87897800  0.12889900  0.74874200  1
  La  La11  1  0.75100500  0.11946900  0.37192100  1
  Sb  Sb0  1  0.99943300  0.99854800  0.50182200  1
  Sb  Sb1  1  0.99872400  0.99827600  0.99622600  1
  Sb  Sb2  1  0.49670300  0.99781600  0.50134000  1
  Sb  Sb3  1  0.50025600  0.50263100  0.99927500  1
  Sb  Sb4  1  0.99950200  0.49816100  0.99645700  1
  Sb  Sb5  1  0.50267900  0.00126300  0.00367900  1
  Sb  Sb6  1  0.50016200  0.50366200  0.49927000  1
  Sb  Sb7  1  0.99731200  0.49708100  0.49872600  1
  O  O0  1  0.67631800  0.59393800  0.47706400  1
  O  O1  1  0.00856500  0.68285900  0.61347900  1
  O  O2  1  0.41733100  0.32747400  0.30315000  1
  O  O3  1  0.48563000  0.88819900  0.81367700  1
  O  O4  1  0.02824600  0.82718300  0.42004500  1
  O  O5  1  0.90047100  0.88646400  0.07564600  1
  O  O6  1  0.66661700  0.56545700  0.19174100  1
  O  O7  1  0.82021200  0.01154100  0.89628000  1
  O  O8  1  0.62275300  0.93263400  0.60407600  1
  O  O9  1  0.88230100  0.48111300  0.30489600  1
  O  O10  1  0.39360900  0.32024900  0.01110500  1
  O  O11  1  0.10095900  0.12527100  0.93037800  1
  O  O12  1  0.28930300  0.82812800  0.41062500  1
  O  O13  1  0.18587900  0.61339800  0.51139800  1
  O  O14  1  0.17866500  0.98504700  0.09602100  1
  O  O15  1  0.91834500  0.60878200  0.09061300  1
  O  O16  1  0.58751500  0.67154500  0.69945400  1
  O  O17  1  0.91497100  0.79725600  0.82891900  1
  O  O18  1  0.57713700  0.40185600  0.88962200  1
  O  O19  1  0.50461600  0.89173200  0.32177700  1
  O  O20  1  0.31207100  0.98442800  0.88689300  1
  O  O21  1  0.20521500  0.08951800  0.67042000  1
  O  O22  1  0.17302400  0.69743600  0.08091600  1
  O  O23  1  0.87751500  0.90534100  0.57644200  1
  O  O24  1  0.61740700  0.20159700  0.03112900  1
  O  O25  1  0.09822300  0.48182600  0.17663800  1
  O  O26  1  0.40673600  0.57818900  0.37804800  1
  O  O27  1  0.80484100  0.92749100  0.33010600  1
  O  O28  1  0.83649400  0.29919100  0.92265100  1
  O  O29  1  0.38445500  0.80541700  0.98041400  1
  O  O30  1  0.91629100  0.53177400  0.82755100  1
  O  O31  1  0.59448000  0.42289400  0.61268900  1
  O  O32  1  0.42440000  0.60363800  0.11177300  1
  O  O33  1  0.46854900  0.08158400  0.67291200  1
  O  O34  1  0.08573400  0.38985500  0.90688100  1
  O  O35  1  0.38834500  0.08555900  0.40717400  1
  O  O36  1  0.11514100  0.51212700  0.69010900  1
  O  O37  1  0.58554000  0.67210900  0.96481200  1
  O  O38  1  0.69014000  0.16836300  0.56363400  1
  O  O39  1  0.80380300  0.38247100  0.48447300  1
  O  O40  1  0.32171100  0.42201800  0.80536400  1
  O  O41  1  0.52623900  0.11142900  0.20027300  1
  O  O42  1  0.98519500  0.17727300  0.59862100  1
  O  O43  1  0.98348300  0.30645200  0.38561100  1
  O  O44  1  0.32545800  0.40949600  0.52203600  1
  O  O45  1  0.69993500  0.02222000  0.11572300  1
  O  O46  1  0.11266700  0.08710900  0.41420900  1
  O  O47  1  0.07381500  0.18948800  0.17579900  1
loop_
_geom_bond_atom_site_label_1
_geom_bond_atom_site_label_2
_geom_bond_distance
_geom_bond_site_symmetry_2
Li0 O4 1.912288 1_655
Li0 O1 1.992097 1_655
Li0 O9 2.287823 1_555
Li0 O23 2.499284 1_555
Li0 O0 2.528294 1_555
Li0 O6 2.555253 1_555
Li1 O20 1.877746 1_544
Li1 O11 1.983834 1_554
Li1 O14 2.110637 1_545
Li1 O10 2.332441 1_555
Li2 O25 1.912517 1_555
Li2 O13 2.056835 1_555
Li2 O9 2.082641 1_455
Li2 O12 2.368369 1_555
Li2 O15 2.607810 1_455
Li3 O16 1.919744 1_555
Li3 O17 1.994575 1_555
Li3 O7 2.163749 1_565
Li3 O8 2.541971 1_555
Li3 O0 2.558989 1_555
Li3 O23 2.603252 1_555
Li4 O15 1.891582 1_555
Li4 O6 2.053315 1_555
Li4 O18 2.066444 1_554
Li4 O9 2.379671 1_555
Li5 O41 1.926427 1_565
Li5 O19 2.009086 1_555
Li5 O35 2.235491 1_565
Li5 O14 2.456821 1_555
Li5 O29 2.548271 1_554
Li5 O22 2.595945 1_555
Li6 O22 1.944324 1_555
Li6 O12 1.962300 1_555
Li6 O19 2.114094 1_555
Li6 O25 2.443890 1_555
Li6 O26 2.611367 1_555
Li6 O32 2.622537 1_555
Li7 O44 1.926167 1_555
Li7 O13 1.986008 1_555
Li7 O43 2.255652 1_455
Li7 O26 2.503695 1_555
Li7 O47 2.565298 1_555
Li7 O25 2.580891 1_555
Li8 O24 1.925451 1_556
Li8 O10 2.037762 1_556
Li8 O18 2.160096 1_555
Li8 O20 2.463543 1_545
Li8 O33 2.481829 1_555
Li8 O21 2.627523 1_555
Li9 O0 1.918540 1_555
Li9 O39 2.048572 1_555
Li9 O1 2.102179 1_655
Li9 O17 2.453242 1_555
Li9 O31 2.482591 1_555
Li9 O30 2.583783 1_555
Li10 O29 1.944700 1_554
Li10 O37 1.967511 1_554
Li10 O32 2.153983 1_555
Li10 O45 2.510717 1_565
Li10 O19 2.635839 1_555
Li10 O27 2.637217 1_555
Li11 O34 1.915217 1_555
Li11 O32 2.029934 1_556
Li11 O40 2.162659 1_555
Li11 O36 2.418389 1_555
Li11 O29 2.579560 1_555
Li11 O22 2.600374 1_556
Li12 O2 1.912652 1_555
Li12 O47 2.042323 1_555
Li12 O14 2.162020 1_545
Li12 O35 2.439544 1_555
Li12 O44 2.634211 1_555
Li12 O46 2.651768 1_555
Li13 O3 1.887455 1_545
Li13 O8 2.003510 1_545
Li13 O33 2.038947 1_555
Li13 O7 2.416222 1_555
Li14 O45 1.920807 1_566
Li14 O7 2.045829 1_565
Li14 O5 2.097573 1_556
Li14 O37 2.376986 1_555
Li14 O3 2.524174 1_555
Li14 O16 2.659113 1_555
Li15 O31 1.882603 1_555
Li15 O38 1.974626 1_555
Li15 O35 2.067739 1_555
Li15 O39 2.345521 1_555
Li16 O30 1.892830 1_555
Li16 O36 2.053353 1_655
Li16 O39 2.124870 1_555
Li16 O38 2.479256 1_555
Li16 O34 2.590240 1_655
Li17 O21 1.904504 1_555
Li17 O40 2.023229 1_555
Li17 O10 2.102732 1_556
Li17 O11 2.480687 1_555
Li17 O42 2.502497 1_455
Li17 O34 2.683976 1_555
Li18 O42 1.905441 1_455
Li18 O43 2.069010 1_455
Li18 O36 2.099673 1_555
Li18 O40 2.386126 1_555
Li18 O44 2.625361 1_555
Li18 O46 2.666069 1_555
Li19 O46 1.931371 1_655
Li19 O5 1.968506 1_545
Li19 O47 2.232921 1_655
Li19 O27 2.429567 1_545
Li19 O45 2.545355 1_555
Li19 O43 2.556228 1_555
La0 O33 2.476727 1_565
La0 O20 2.490862 1_555
La0 O4 2.492185 1_555
La0 O21 2.501729 1_565
La0 O12 2.549087 1_555
La0 O13 2.561374 1_555
La0 O3 2.722811 1_555
La0 O1 2.768981 1_555
La1 O15 2.463220 1_455
La1 O4 2.477689 1_555
La1 O12 2.491609 1_555
La1 O46 2.542919 1_565
La1 O5 2.636683 1_455
La1 O14 2.660752 1_555
La1 O22 2.685541 1_555
La1 O35 2.696757 1_565
La2 O2 2.442073 1_555
La2 O6 2.458293 1_555
La2 O41 2.504139 1_555
La2 O9 2.564572 1_555
La2 O24 2.572628 1_555
La2 O0 2.620100 1_555
La2 O39 2.670865 1_555
La2 O10 2.737811 1_555
La3 O30 2.499706 1_555
La3 O31 2.505815 1_555
La3 O37 2.530107 1_555
La3 O17 2.580853 1_555
La3 O15 2.583493 1_556
La3 O5 2.591165 1_556
La3 O16 2.595914 1_555
La3 O18 2.627278 1_555
La4 O17 2.472721 1_455
La4 O1 2.503702 1_555
La4 O29 2.524717 1_555
La4 O22 2.529420 1_556
La4 O30 2.532842 1_455
La4 O14 2.621457 1_556
La4 O20 2.650133 1_555
La4 O36 2.802088 1_555
La5 O28 2.387584 1_554
La5 O24 2.474369 1_555
La5 O47 2.528585 1_655
La5 O43 2.586990 1_555
La5 O45 2.612084 1_555
La5 O25 2.654005 1_655
La5 O9 2.689325 1_555
La5 O7 2.718681 1_554
La6 O23 2.420145 1_555
La6 O0 2.495779 1_555
La6 O19 2.512814 1_555
La6 O32 2.567504 1_555
La6 O26 2.590496 1_555
La6 O27 2.629582 1_555
La6 O6 2.712673 1_555
La6 O8 2.716512 1_555
La7 O21 2.505708 1_555
La7 O33 2.532041 1_555
La7 O18 2.550917 1_555
La7 O44 2.560967 1_555
La7 O35 2.574324 1_555
La7 O46 2.575878 1_555
La7 O31 2.613906 1_555
La7 O40 2.754162 1_555
La8 O26 2.427324 1_555
La8 O25 2.453866 1_555
La8 O11 2.479345 1_554
La8 O10 2.521334 1_555
La8 O2 2.613167 1_555
La8 O34 2.613837 1_554
La8 O32 2.707769 1_555
La8 O47 2.734362 1_555
La9 O3 2.426728 1_555
La9 O16 2.435382 1_555
La9 O37 2.528599 1_555
La9 O44 2.581696 1_555
La9 O36 2.601190 1_555
La9 O40 2.621822 1_555
La9 O13 2.683530 1_555
La9 O29 2.731542 1_555
La10 O8 2.459450 1_545
La10 O42 2.465748 1_555
La10 O34 2.531983 1_655
La10 O7 2.550833 1_555
La10 O28 2.552949 1_555
La10 O23 2.617077 1_545
La10 O11 2.666718 1_655
La10 O38 2.705073 1_555
La11 O27 2.377930 1_545
La11 O38 2.426100 1_555
La11 O45 2.499619 1_555
La11 O39 2.564250 1_555
La11 O41 2.566028 1_555
La11 O43 2.661545 1_555
La11 O42 2.669987 1_555
La11 O19 2.788267 1_545
O0 Sb6 2.037157 1_555
O1 Sb7 2.000118 1_455
O2 Sb6 2.047744 1_555
O3 Sb5 2.002845 1_566
O4 Sb0 2.031515 1_455
O5 Sb1 2.013487 1_554
O6 Sb3 2.021749 1_554
O7 Sb1 2.027491 1_545
O8 Sb2 2.008930 1_555
O9 Sb7 2.040009 1_555
O10 Sb3 2.070860 1_554
O11 Sb1 2.015112 1_445
O12 Sb2 2.062759 1_555
O13 Sb7 2.006711 1_455
O14 Sb1 2.040155 1_454
O15 Sb4 2.012393 1_554
O16 Sb6 2.024849 1_555
O17 Sb1 2.036098 1_555
O18 Sb3 2.002637 1_555
O19 Sb2 2.032426 1_555
O20 Sb5 2.007503 1_566
O21 Sb0 2.048747 1_445
O22 Sb4 2.038068 1_454
O23 Sb0 2.013377 1_555
O24 Sb5 2.038502 1_555
O25 Sb4 2.061594 1_454
O26 Sb6 2.011255 1_555
O27 Sb0 2.035126 1_555
O28 Sb4 2.014908 1_555
O29 Sb5 2.025724 1_566
O30 Sb4 2.036389 1_555
O31 Sb6 2.018985 1_555
O32 Sb3 2.013041 1_554
O33 Sb2 2.033498 1_545
O34 Sb4 2.020647 1_455
O35 Sb2 2.050958 1_545
O36 Sb7 2.030498 1_455
O37 Sb3 2.049515 1_555
O38 Sb2 2.046424 1_545
O39 Sb7 2.038509 1_555
O40 Sb3 2.040471 1_555
O41 Sb5 2.023998 1_555
O42 Sb0 2.038569 1_545
O43 Sb7 2.025498 1_555
O44 Sb6 2.037158 1_555
O45 Sb5 2.034916 1_555
O46 Sb0 2.050753 1_445
O47 Sb1 2.054607 1_444
