# generated using pymatgen
data_CdH3NO5
_symmetry_space_group_name_H-M   'P 1'
_cell_length_a   7.14149300
_cell_length_b   9.03622800
_cell_length_c   13.72254900
_cell_angle_alpha   90.00000000
_cell_angle_beta   90.00000000
_cell_angle_gamma   90.00000000
_symmetry_Int_Tables_number   1
_chemical_formula_structural   CdH3NO5
_chemical_formula_sum   'Cd8 H24 N8 O40'
_cell_volume   885.54571407
_cell_formula_units_Z   8
loop_
 _symmetry_equiv_pos_site_id
 _symmetry_equiv_pos_as_xyz
  1  'x, y, z'
loop_
 _atom_site_type_symbol
 _atom_site_label
 _atom_site_symmetry_multiplicity
 _atom_site_fract_x
 _atom_site_fract_y
 _atom_site_fract_z
 _atom_site_occupancy
  Cd  Cd0  1  0.64532200  0.49579800  0.74147100  1
  Cd  Cd1  1  0.35467800  0.00420200  0.24147100  1
  Cd  Cd2  1  0.85467800  0.99579800  0.25852900  1
  Cd  Cd3  1  0.14532200  0.50420200  0.75852900  1
  Cd  Cd4  1  0.35467800  0.50420200  0.25852900  1
  Cd  Cd5  1  0.64532200  0.99579800  0.75852900  1
  Cd  Cd6  1  0.14532200  0.00420200  0.74147100  1
  Cd  Cd7  1  0.85467800  0.49579800  0.24147100  1
  H  H0  1  0.38276400  0.60221400  0.59235600  1
  H  H1  1  0.61723600  0.89778600  0.09235600  1
  H  H2  1  0.11723600  0.10221400  0.40764400  1
  H  H3  1  0.88276400  0.39778600  0.90764400  1
  H  H4  1  0.61723600  0.39778600  0.40764400  1
  H  H5  1  0.38276400  0.10221400  0.90764400  1
  H  H6  1  0.88276400  0.89778600  0.59235600  1
  H  H7  1  0.11723600  0.60221400  0.09235600  1
  H  H8  1  0.39313700  0.72837100  0.67672100  1
  H  H9  1  0.60686300  0.77162900  0.17672100  1
  H  H10  1  0.10686300  0.22837100  0.32327900  1
  H  H11  1  0.89313700  0.27162900  0.82327900  1
  H  H12  1  0.60686300  0.27162900  0.32327900  1
  H  H13  1  0.39313700  0.22837100  0.82327900  1
  H  H14  1  0.89313700  0.77162900  0.67672100  1
  H  H15  1  0.10686300  0.72837100  0.17672100  1
  H  H16  1  0.40692200  0.40718000  0.89335400  1
  H  H17  1  0.59307800  0.09282000  0.39335400  1
  H  H18  1  0.09307800  0.90718000  0.10664600  1
  H  H19  1  0.90692200  0.59282000  0.60664600  1
  H  H20  1  0.59307800  0.59282000  0.10664600  1
  H  H21  1  0.40692200  0.90718000  0.60664600  1
  H  H22  1  0.90692200  0.09282000  0.89335400  1
  H  H23  1  0.09307800  0.40718000  0.39335400  1
  N  N0  1  0.63351600  0.74771200  0.91801900  1
  N  N1  1  0.36648400  0.75228800  0.41801900  1
  N  N2  1  0.86648400  0.24771200  0.08198100  1
  N  N3  1  0.13351600  0.25228800  0.58198100  1
  N  N4  1  0.36648400  0.25228800  0.08198100  1
  N  N5  1  0.63351600  0.24771200  0.58198100  1
  N  N6  1  0.13351600  0.75228800  0.91801900  1
  N  N7  1  0.86648400  0.74771200  0.41801900  1
  O  O0  1  0.61937200  0.87444500  0.95664600  1
  O  O1  1  0.38062800  0.62555500  0.45664600  1
  O  O2  1  0.88062800  0.37444500  0.04335400  1
  O  O3  1  0.11937200  0.12555500  0.54335400  1
  O  O4  1  0.38062800  0.12555500  0.04335400  1
  O  O5  1  0.61937200  0.37444500  0.54335400  1
  O  O6  1  0.11937200  0.62555500  0.95664600  1
  O  O7  1  0.88062800  0.87444500  0.45664600  1
  O  O8  1  0.62689000  0.62958100  0.96544800  1
  O  O9  1  0.37311000  0.87041900  0.46544800  1
  O  O10  1  0.87311000  0.12958100  0.03455200  1
  O  O11  1  0.12689000  0.37041900  0.53455200  1
  O  O12  1  0.37311000  0.37041900  0.03455200  1
  O  O13  1  0.62689000  0.12958100  0.53455200  1
  O  O14  1  0.12689000  0.87041900  0.96544800  1
  O  O15  1  0.87311000  0.62958100  0.46544800  1
  O  O16  1  0.65644400  0.74201500  0.82416400  1
  O  O17  1  0.34355600  0.75798500  0.32416400  1
  O  O18  1  0.84355600  0.24201500  0.17583600  1
  O  O19  1  0.15644400  0.25798500  0.67583600  1
  O  O20  1  0.34355600  0.25798500  0.17583600  1
  O  O21  1  0.65644400  0.24201500  0.67583600  1
  O  O22  1  0.15644400  0.75798500  0.82416400  1
  O  O23  1  0.84355600  0.74201500  0.32416400  1
  O  O24  1  0.38908200  0.61227900  0.66446900  1
  O  O25  1  0.61091800  0.88772100  0.16446900  1
  O  O26  1  0.11091800  0.11227900  0.33553100  1
  O  O27  1  0.88908200  0.38772100  0.83553100  1
  O  O28  1  0.61091800  0.38772100  0.33553100  1
  O  O29  1  0.38908200  0.11227900  0.83553100  1
  O  O30  1  0.88908200  0.88772100  0.66446900  1
  O  O31  1  0.11091800  0.61227900  0.16446900  1
  O  O32  1  0.39996400  0.39119400  0.82216900  1
  O  O33  1  0.60003600  0.10880600  0.32216900  1
  O  O34  1  0.10003600  0.89119400  0.17783100  1
  O  O35  1  0.89996400  0.60880600  0.67783100  1
  O  O36  1  0.60003600  0.60880600  0.17783100  1
  O  O37  1  0.39996400  0.89119400  0.67783100  1
  O  O38  1  0.89996400  0.10880600  0.82216900  1
  O  O39  1  0.10003600  0.39119400  0.32216900  1
loop_
_geom_bond_atom_site_label_1
_geom_bond_atom_site_label_2
_geom_bond_distance
_geom_bond_site_symmetry_2
Cd0 O35 2.261077 1_555
Cd0 O32 2.278164 1_555
Cd0 O24 2.360734 1_555
Cd0 O27 2.377015 1_555
Cd0 O21 2.465053 1_555
Cd0 O16 2.498809 1_555
Cd1 O34 2.261077 1_545
Cd1 O33 2.278164 1_555
Cd1 O25 2.360734 1_545
Cd1 O26 2.377015 1_555
Cd1 O20 2.465053 1_555
Cd1 O17 2.498809 1_545
Cd2 O33 2.261077 1_565
Cd2 O34 2.278164 1_655
Cd2 O26 2.360734 1_665
Cd2 O25 2.377015 1_555
Cd2 O23 2.465053 1_555
Cd2 O18 2.498809 1_565
Cd3 O32 2.261077 1_555
Cd3 O35 2.278164 1_455
Cd3 O27 2.360734 1_455
Cd3 O24 2.377015 1_555
Cd3 O22 2.465053 1_555
Cd3 O19 2.498809 1_555
Cd4 O39 2.261077 1_555
Cd4 O36 2.278164 1_555
Cd4 O28 2.360734 1_555
Cd4 O31 2.377015 1_555
Cd4 O17 2.465053 1_555
Cd4 O20 2.498809 1_555
Cd5 O38 2.261077 1_565
Cd5 O37 2.278164 1_555
Cd5 O29 2.360734 1_565
Cd5 O30 2.377015 1_555
Cd5 O16 2.465053 1_555
Cd5 O21 2.498809 1_565
Cd6 O37 2.261077 1_545
Cd6 O38 2.278164 1_455
Cd6 O30 2.360734 1_445
Cd6 O29 2.377015 1_555
Cd6 O19 2.465053 1_555
Cd6 O22 2.498809 1_545
Cd7 O36 2.261077 1_555
Cd7 O39 2.278164 1_655
Cd7 O31 2.360734 1_655
Cd7 O28 2.377015 1_555
Cd7 O18 2.465053 1_555
Cd7 O23 2.498809 1_555
H0 O24 0.994769 1_555
H1 O25 0.994769 1_555
H2 O26 0.994769 1_555
H3 O27 0.994769 1_555
H4 O28 0.994769 1_555
H5 O29 0.994769 1_555
H6 O30 0.994769 1_555
H7 O31 0.994769 1_555
H8 O24 1.062816 1_555
H8 O37 1.472192 1_555
H9 O25 1.062816 1_555
H9 O36 1.472192 1_555
H10 O26 1.062816 1_555
H10 O39 1.472192 1_555
H11 O27 1.062816 1_555
H11 O38 1.472192 1_555
H12 O28 1.062816 1_555
H12 O33 1.472192 1_555
H13 O29 1.062816 1_555
H13 O32 1.472192 1_555
H14 O30 1.062816 1_555
H14 O35 1.472192 1_555
H15 O31 1.062816 1_555
H15 O34 1.472192 1_555
H16 O32 0.988712 1_555
H17 O33 0.988712 1_555
H18 O34 0.988712 1_555
H19 O35 0.988712 1_555
H20 O36 0.988712 1_555
H21 O37 0.988712 1_555
H22 O38 0.988712 1_555
H23 O39 0.988712 1_555
N0 O8 1.251123 1_555
N0 O0 1.265948 1_555
N0 O16 1.299317 1_555
N1 O9 1.251123 1_555
N1 O1 1.265948 1_555
N1 O17 1.299317 1_555
N2 O10 1.251123 1_555
N2 O2 1.265948 1_555
N2 O18 1.299317 1_555
N3 O11 1.251123 1_555
N3 O3 1.265948 1_555
N3 O19 1.299317 1_555
N4 O12 1.251123 1_555
N4 O4 1.265948 1_555
N4 O20 1.299317 1_555
N5 O13 1.251123 1_555
N5 O5 1.265948 1_555
N5 O21 1.299317 1_555
N6 O14 1.251123 1_555
N6 O6 1.265948 1_555
N6 O22 1.299317 1_555
N7 O15 1.251123 1_555
N7 O7 1.265948 1_555
N7 O23 1.299317 1_555
