# generated using pymatgen
data_Na2CrCSO7
_symmetry_space_group_name_H-M   'P 1'
_cell_length_a   5.21142021
_cell_length_b   8.94088612
_cell_length_c   7.23747406
_cell_angle_alpha   90.00968827
_cell_angle_beta   89.98861043
_cell_angle_gamma   87.78297203
_symmetry_Int_Tables_number   1
_chemical_formula_structural   Na2CrCSO7
_chemical_formula_sum   'Na4 Cr2 C2 S2 O14'
_cell_volume   336.97559932
_cell_formula_units_Z   2
loop_
 _symmetry_equiv_pos_site_id
 _symmetry_equiv_pos_as_xyz
  1  'x, y, z'
loop_
 _atom_site_type_symbol
 _atom_site_label
 _atom_site_symmetry_multiplicity
 _atom_site_fract_x
 _atom_site_fract_y
 _atom_site_fract_z
 _atom_site_occupancy
  Na  Na0  1  0.23285500  0.21114800  0.99893300  1
  Na  Na1  1  0.23288400  0.21120800  0.50101200  1
  Na  Na2  1  0.76704800  0.78890300  0.49895100  1
  Na  Na3  1  0.76712100  0.78891300  0.00105400  1
  Cr  Cr0  1  0.22496800  0.63909200  0.25010900  1
  Cr  Cr1  1  0.77533700  0.36087000  0.74987800  1
  C  C0  1  0.72183800  0.08407900  0.74999000  1
  C  C1  1  0.27807300  0.91582800  0.24999600  1
  S  S0  1  0.73102800  0.40992300  0.24999600  1
  S  S1  1  0.26899500  0.59008100  0.74997700  1
  O  O0  1  0.30342300  0.05548100  0.25000900  1
  O  O1  1  0.69644000  0.94441100  0.75000500  1
  O  O2  1  0.94682300  0.14703400  0.74995900  1
  O  O3  1  0.05322900  0.85279900  0.25000600  1
  O  O4  1  0.52451400  0.18214400  0.74997100  1
  O  O5  1  0.47548700  0.81782300  0.24998700  1
  O  O6  1  0.15641200  0.43710600  0.74990300  1
  O  O7  1  0.84350400  0.56295000  0.25014000  1
  O  O8  1  0.44119700  0.43322300  0.25013600  1
  O  O9  1  0.55885500  0.56682000  0.74993600  1
  O  O10  1  0.81191500  0.32698300  0.08200400  1
  O  O11  1  0.81185500  0.32697900  0.41803900  1
  O  O12  1  0.18811400  0.67312700  0.58200200  1
  O  O13  1  0.18808400  0.67307300  0.91800400  1
loop_
_geom_bond_atom_site_label_1
_geom_bond_atom_site_label_2
_geom_bond_distance
_geom_bond_site_symmetry_2
Na0 O0 2.309964 1_556
Na0 O4 2.364839 1_555
Na0 O2 2.421655 1_455
Na0 O10 2.463709 1_456
Na0 O6 2.725414 1_555
Na0 O8 2.931386 1_556
Na1 O0 2.309362 1_555
Na1 O4 2.365298 1_555
Na1 O2 2.421447 1_455
Na1 O11 2.464019 1_455
Na1 O6 2.723815 1_555
Na1 O8 2.929636 1_555
Na2 O1 2.308534 1_555
Na2 O5 2.364987 1_555
Na2 O3 2.421180 1_655
Na2 O12 2.464343 1_655
Na2 O7 2.723784 1_555
Na2 O9 2.930298 1_555
Na3 O1 2.308989 1_554
Na3 O5 2.364524 1_555
Na3 O3 2.421254 1_655
Na3 O13 2.463794 1_654
Na3 O7 2.725678 1_555
Na3 O9 2.930959 1_554
Cr0 O3 2.078368 1_555
Cr0 O5 2.102273 1_555
Cr0 O8 2.120692 1_555
Cr0 O7 2.126073 1_455
Cr0 O12 2.427851 1_555
Cr0 O13 2.429499 1_554
Cr1 O2 2.078888 1_555
Cr1 O4 2.103268 1_555
Cr1 O9 2.121962 1_555
Cr1 O6 2.124453 1_655
Cr1 O11 2.427178 1_555
Cr1 O10 2.429429 1_556
C0 O1 1.260832 1_545
C0 O2 1.320085 1_555
C0 O4 1.325322 1_555
C1 O0 1.260663 1_565
C1 O3 1.319725 1_555
C1 O5 1.325335 1_555
O6 S1 1.508978 1_555
O7 S0 1.509171 1_555
O8 S0 1.516725 1_555
O9 S1 1.516841 1_555
O10 S0 1.476878 1_555
O11 S0 1.477460 1_555
O12 S1 1.477578 1_555
O13 S1 1.477348 1_555
