# generated using pymatgen
data_K4Cu3As4(HO8)2
_symmetry_space_group_name_H-M   'P 1'
_cell_length_a   10.26459800
_cell_length_b   9.55571900
_cell_length_c   9.84575269
_cell_angle_alpha   61.67382565
_cell_angle_beta   90.00000000
_cell_angle_gamma   90.00000000
_symmetry_Int_Tables_number   1
_chemical_formula_structural   K4Cu3As4(HO8)2
_chemical_formula_sum   'K8 Cu6 As8 H4 O32'
_cell_volume   850.09124508
_cell_formula_units_Z   2
loop_
 _symmetry_equiv_pos_site_id
 _symmetry_equiv_pos_as_xyz
  1  'x, y, z'
loop_
 _atom_site_type_symbol
 _atom_site_label
 _atom_site_symmetry_multiplicity
 _atom_site_fract_x
 _atom_site_fract_y
 _atom_site_fract_z
 _atom_site_occupancy
  K  K0  1  0.49396300  0.76412000  0.17525400  1
  K  K1  1  0.99396300  0.23588000  0.32474600  1
  K  K2  1  0.50603700  0.23588000  0.82474600  1
  K  K3  1  0.00603700  0.76412000  0.67525400  1
  K  K4  1  0.37651600  0.90722700  0.66255100  1
  K  K5  1  0.87651600  0.09277300  0.83744900  1
  K  K6  1  0.62348400  0.09277300  0.33744900  1
  K  K7  1  0.12348400  0.90722700  0.16255100  1
  Cu  Cu0  1  0.50000000  0.50000000  0.00000000  1
  Cu  Cu1  1  0.00000000  0.50000000  0.50000000  1
  Cu  Cu2  1  0.15435500  0.38470200  0.87915300  1
  Cu  Cu3  1  0.65435500  0.61529800  0.62084700  1
  Cu  Cu4  1  0.84564500  0.61529800  0.12084700  1
  Cu  Cu5  1  0.34564500  0.38470200  0.37915300  1
  As  As0  1  0.66931200  0.81090600  0.81137500  1
  As  As1  1  0.16931200  0.18909400  0.68862500  1
  As  As2  1  0.33068800  0.18909400  0.18862500  1
  As  As3  1  0.83068800  0.81090600  0.31137500  1
  As  As4  1  0.70442800  0.39692000  0.45349600  1
  As  As5  1  0.20442800  0.60308000  0.04650400  1
  As  As6  1  0.29557200  0.60308000  0.54650400  1
  As  As7  1  0.79557200  0.39692000  0.95349600  1
  H  H0  1  0.69319100  0.11535300  0.62477200  1
  H  H1  1  0.19319100  0.88464700  0.87522800  1
  H  H2  1  0.30680900  0.88464700  0.37522800  1
  H  H3  1  0.80680900  0.11535300  0.12477200  1
  O  O0  1  0.82308500  0.74996100  0.88926700  1
  O  O1  1  0.32308500  0.25003900  0.61073300  1
  O  O2  1  0.17691500  0.25003900  0.11073300  1
  O  O3  1  0.67691500  0.74996100  0.38926700  1
  O  O4  1  0.54054300  0.71428600  0.93482000  1
  O  O5  1  0.04054300  0.28571400  0.56518000  1
  O  O6  1  0.45945700  0.28571400  0.06518000  1
  O  O7  1  0.95945700  0.71428600  0.43482000  1
  O  O8  1  0.65445200  0.81309700  0.63430400  1
  O  O9  1  0.15445200  0.18690300  0.86569600  1
  O  O10  1  0.34554800  0.18690300  0.36569600  1
  O  O11  1  0.84554800  0.81309700  0.13430400  1
  O  O12  1  0.63893900  0.00514400  0.76932200  1
  O  O13  1  0.13893900  0.99485600  0.73067800  1
  O  O14  1  0.36106100  0.99485600  0.23067800  1
  O  O15  1  0.86106100  0.00514400  0.26932200  1
  O  O16  1  0.57556300  0.44356400  0.33452000  1
  O  O17  1  0.07556300  0.55643600  0.16548000  1
  O  O18  1  0.42443700  0.55643600  0.66548000  1
  O  O19  1  0.92443700  0.44356400  0.83452000  1
  O  O20  1  0.68982400  0.41352600  0.61998600  1
  O  O21  1  0.18982400  0.58647400  0.88001400  1
  O  O22  1  0.31017600  0.58647400  0.38001400  1
  O  O23  1  0.81017600  0.41352600  0.11998600  1
  O  O24  1  0.85044500  0.49260700  0.35895400  1
  O  O25  1  0.35044500  0.50739300  0.14104600  1
  O  O26  1  0.14955500  0.50739300  0.64104600  1
  O  O27  1  0.64955500  0.49260700  0.85895400  1
  O  O28  1  0.74406600  0.19329800  0.52137900  1
  O  O29  1  0.24406600  0.80670200  0.97862100  1
  O  O30  1  0.25593400  0.80670200  0.47862100  1
  O  O31  1  0.75593400  0.19329800  0.02137900  1
loop_
_geom_bond_atom_site_label_1
_geom_bond_atom_site_label_2
_geom_bond_distance
_geom_bond_site_symmetry_2
K0 O4 2.670025 1_554
K0 O22 2.693914 1_555
K0 O3 2.777468 1_555
K0 O16 2.825790 1_555
K0 O14 2.856907 1_555
K0 O25 3.014293 1_555
K0 O29 3.121825 1_554
K1 O5 2.670025 1_655
K1 O23 2.693914 1_555
K1 O2 2.777468 1_655
K1 O17 2.825790 1_655
K1 O15 2.856907 1_555
K1 O24 3.014293 1_555
K1 O28 3.121825 1_555
K2 O6 2.670025 1_556
K2 O20 2.693914 1_555
K2 O1 2.777468 1_555
K2 O18 2.825790 1_555
K2 O12 2.856907 1_555
K2 O27 3.014293 1_555
K2 O31 3.121825 1_556
K3 O7 2.670025 1_455
K3 O21 2.693914 1_555
K3 O0 2.777468 1_455
K3 O19 2.825790 1_455
K3 O13 2.856907 1_555
K3 O26 3.014293 1_555
K3 O30 3.121825 1_555
K4 O30 2.717530 1_555
K4 O13 2.762432 1_555
K4 O10 2.893662 1_565
K4 O4 2.954631 1_555
K4 O8 3.043493 1_555
K4 O1 3.115452 1_565
K4 O12 3.189020 1_565
K5 O31 2.717530 1_556
K5 O12 2.762432 1_555
K5 O11 2.893662 1_546
K5 O5 2.954631 1_655
K5 O9 3.043493 1_655
K5 O0 3.115452 1_545
K5 O13 3.189020 1_645
K6 O28 2.717530 1_555
K6 O15 2.762432 1_555
K6 O8 2.893662 1_545
K6 O6 2.954631 1_555
K6 O10 3.043493 1_555
K6 O3 3.115452 1_545
K6 O14 3.189020 1_545
K7 O29 2.717530 1_554
K7 O14 2.762432 1_555
K7 O9 2.893662 1_564
K7 O7 2.954631 1_455
K7 O11 3.043493 1_455
K7 O2 3.115452 1_565
K7 O15 3.189020 1_465
Cu0 O4 1.879066 1_554
Cu0 O6 1.879066 1_555
Cu0 O25 2.093607 1_555
Cu0 O27 2.093607 1_554
Cu1 O7 1.879066 1_455
Cu1 O5 1.879066 1_555
Cu1 O26 2.093607 1_555
Cu1 O24 2.093607 1_455
Cu2 O9 1.956459 1_555
Cu2 O21 1.966116 1_555
Cu2 O2 2.030745 1_556
Cu2 O26 2.065094 1_555
Cu2 O19 2.417560 1_455
Cu3 O8 1.956459 1_555
Cu3 O20 1.966116 1_555
Cu3 O3 2.030745 1_555
Cu3 O27 2.065094 1_555
Cu3 O18 2.417560 1_555
Cu4 O11 1.956459 1_555
Cu4 O23 1.966116 1_555
Cu4 O0 2.030745 1_554
Cu4 O24 2.065094 1_555
Cu4 O17 2.417560 1_655
Cu5 O10 1.956459 1_555
Cu5 O22 1.966116 1_555
Cu5 O1 2.030745 1_555
Cu5 O25 2.065094 1_555
Cu5 O16 2.417560 1_555
As0 O12 1.727538 1_565
As0 O0 1.730568 1_555
As0 O4 1.735455 1_555
As0 O8 1.740259 1_555
As1 O13 1.727538 1_545
As1 O1 1.730568 1_555
As1 O5 1.735455 1_555
As1 O9 1.740259 1_555
As2 O14 1.727538 1_545
As2 O2 1.730568 1_555
As2 O6 1.735455 1_555
As2 O10 1.740259 1_555
As3 O15 1.727538 1_565
As3 O3 1.730568 1_555
As3 O7 1.735455 1_555
As3 O11 1.740259 1_555
As4 O16 1.680786 1_555
As4 O20 1.726712 1_555
As4 O24 1.772352 1_555
As4 O28 1.778790 1_555
As5 O17 1.680786 1_555
As5 O21 1.726712 1_554
As5 O25 1.772352 1_555
As5 O29 1.778790 1_554
As6 O18 1.680786 1_555
As6 O22 1.726712 1_555
As6 O26 1.772352 1_555
As6 O30 1.778790 1_555
As7 O19 1.680786 1_555
As7 O23 1.726712 1_556
As7 O27 1.772352 1_555
As7 O31 1.778790 1_556
H0 O28 1.069682 1_555
H0 O12 1.422093 1_555
H0 K5 2.746543 1_555
H1 O29 1.069682 1_555
H1 O13 1.422093 1_555
H1 K4 2.746543 1_555
H2 O30 1.069682 1_555
H2 O14 1.422093 1_555
H2 K7 2.746543 1_555
H3 O31 1.069682 1_555
H3 O15 1.422093 1_555
H3 K6 2.746543 1_555
