# generated using pymatgen
data_Na5CuO4
_symmetry_space_group_name_H-M   'P 1'
_cell_length_a   10.41431100
_cell_length_b   10.47530100
_cell_length_c   10.53772800
_cell_angle_alpha   90.00000000
_cell_angle_beta   90.00000000
_cell_angle_gamma   90.00000000
_symmetry_Int_Tables_number   1
_chemical_formula_structural   Na5CuO4
_chemical_formula_sum   'Na40 Cu8 O32'
_cell_volume   1149.59280785
_cell_formula_units_Z   8
loop_
 _symmetry_equiv_pos_site_id
 _symmetry_equiv_pos_as_xyz
  1  'x, y, z'
loop_
 _atom_site_type_symbol
 _atom_site_label
 _atom_site_symmetry_multiplicity
 _atom_site_fract_x
 _atom_site_fract_y
 _atom_site_fract_z
 _atom_site_occupancy
  Na  Na0  1  0.10735700  0.83732000  0.11285300  1
  Na  Na1  1  0.10735700  0.66268000  0.61285300  1
  Na  Na2  1  0.11321100  0.14527700  0.39518400  1
  Na  Na3  1  0.11321100  0.35472300  0.89518400  1
  Na  Na4  1  0.12125000  0.39564700  0.16413900  1
  Na  Na5  1  0.12125000  0.10435300  0.66413900  1
  Na  Na6  1  0.11939600  0.59125200  0.35102200  1
  Na  Na7  1  0.11939600  0.90874800  0.85102200  1
  Na  Na8  1  0.15789800  0.86537800  0.38536600  1
  Na  Na9  1  0.15789800  0.63462200  0.88536600  1
  Na  Na10  1  0.34210200  0.13462200  0.88536600  1
  Na  Na11  1  0.34210200  0.36537800  0.38536600  1
  Na  Na12  1  0.38060400  0.09125200  0.35102200  1
  Na  Na13  1  0.38060400  0.40874800  0.85102200  1
  Na  Na14  1  0.37875000  0.60435300  0.66413900  1
  Na  Na15  1  0.37875000  0.89564700  0.16413900  1
  Na  Na16  1  0.38678900  0.64527700  0.39518400  1
  Na  Na17  1  0.38678900  0.85472300  0.89518400  1
  Na  Na18  1  0.39264300  0.16268000  0.61285300  1
  Na  Na19  1  0.39264300  0.33732000  0.11285300  1
  Na  Na20  1  0.60735700  0.66268000  0.88714700  1
  Na  Na21  1  0.60735700  0.83732000  0.38714700  1
  Na  Na22  1  0.61321100  0.14527700  0.10481600  1
  Na  Na23  1  0.61321100  0.35472300  0.60481600  1
  Na  Na24  1  0.62125000  0.39564700  0.33586100  1
  Na  Na25  1  0.62125000  0.10435300  0.83586100  1
  Na  Na26  1  0.61939600  0.59125200  0.14897800  1
  Na  Na27  1  0.61939600  0.90874800  0.64897800  1
  Na  Na28  1  0.65789800  0.63462200  0.61463400  1
  Na  Na29  1  0.65789800  0.86537800  0.11463400  1
  Na  Na30  1  0.84210200  0.13462200  0.61463400  1
  Na  Na31  1  0.84210200  0.36537800  0.11463400  1
  Na  Na32  1  0.88060400  0.09125200  0.14897800  1
  Na  Na33  1  0.88060400  0.40874800  0.64897800  1
  Na  Na34  1  0.87875000  0.60435300  0.83586100  1
  Na  Na35  1  0.87875000  0.89564700  0.33586100  1
  Na  Na36  1  0.88678900  0.64527700  0.10481600  1
  Na  Na37  1  0.88678900  0.85472300  0.60481600  1
  Na  Na38  1  0.89264300  0.16268000  0.88714700  1
  Na  Na39  1  0.89264300  0.33732000  0.38714700  1
  Cu  Cu0  1  0.14913000  0.11574400  0.12236500  1
  Cu  Cu1  1  0.14913000  0.38425600  0.62236500  1
  Cu  Cu2  1  0.35087000  0.88425600  0.62236500  1
  Cu  Cu3  1  0.35087000  0.61574400  0.12236500  1
  Cu  Cu4  1  0.64913000  0.11574400  0.37763500  1
  Cu  Cu5  1  0.64913000  0.38425600  0.87763500  1
  Cu  Cu6  1  0.85087000  0.61574400  0.37763500  1
  Cu  Cu7  1  0.85087000  0.88425600  0.87763500  1
  O  O0  1  0.02154100  0.23403700  0.05378900  1
  O  O1  1  0.02154100  0.26596300  0.55378900  1
  O  O2  1  0.05345200  0.00176000  0.24251400  1
  O  O3  1  0.05345200  0.49824000  0.74251400  1
  O  O4  1  0.23926000  0.99661600  0.02040900  1
  O  O5  1  0.23926000  0.50338400  0.52040900  1
  O  O6  1  0.24261000  0.22624800  0.23687200  1
  O  O7  1  0.24261000  0.27375200  0.73687200  1
  O  O8  1  0.25739000  0.72624800  0.23687200  1
  O  O9  1  0.25739000  0.77375200  0.73687200  1
  O  O10  1  0.26074000  0.00338400  0.52040900  1
  O  O11  1  0.26074000  0.49661600  0.02040900  1
  O  O12  1  0.44654800  0.50176000  0.24251400  1
  O  O13  1  0.44654800  0.99824000  0.74251400  1
  O  O14  1  0.47845900  0.76596300  0.55378900  1
  O  O15  1  0.47845900  0.73403700  0.05378900  1
  O  O16  1  0.52154100  0.26596300  0.94621100  1
  O  O17  1  0.52154100  0.23403700  0.44621100  1
  O  O18  1  0.55345200  0.00176000  0.25748600  1
  O  O19  1  0.55345200  0.49824000  0.75748600  1
  O  O20  1  0.73926000  0.50338400  0.97959100  1
  O  O21  1  0.73926000  0.99661600  0.47959100  1
  O  O22  1  0.74261000  0.22624800  0.26312800  1
  O  O23  1  0.74261000  0.27375200  0.76312800  1
  O  O24  1  0.75739000  0.72624800  0.26312800  1
  O  O25  1  0.75739000  0.77375200  0.76312800  1
  O  O26  1  0.76074000  0.00338400  0.97959100  1
  O  O27  1  0.76074000  0.49661600  0.47959100  1
  O  O28  1  0.94654800  0.99824000  0.75748600  1
  O  O29  1  0.94654800  0.50176000  0.25748600  1
  O  O30  1  0.97845900  0.76596300  0.94621100  1
  O  O31  1  0.97845900  0.73403700  0.44621100  1
loop_
_geom_bond_atom_site_label_1
_geom_bond_atom_site_label_2
_geom_bond_distance
_geom_bond_site_symmetry_2
Na0 O2 2.269190 1_565
Na0 O30 2.333316 1_454
Na0 O8 2.345862 1_555
Na0 O4 2.370745 1_555
Na1 O3 2.269190 1_555
Na1 O31 2.333316 1_455
Na1 O9 2.345862 1_555
Na1 O5 2.370745 1_555
Na2 O2 2.288166 1_555
Na2 O1 2.302832 1_555
Na2 O6 2.306192 1_555
Na2 O10 2.512205 1_555
Na3 O3 2.288166 1_555
Na3 O0 2.302832 1_556
Na3 O7 2.306192 1_555
Na3 O11 2.512205 1_556
Na4 O0 2.301396 1_555
Na4 O6 2.309480 1_555
Na4 O29 2.348062 1_455
Na4 O11 2.350102 1_555
Na5 O1 2.301396 1_555
Na5 O7 2.309480 1_555
Na5 O28 2.348062 1_445
Na5 O10 2.350102 1_555
Na6 O29 2.256253 1_455
Na6 O31 2.323285 1_455
Na6 O8 2.347757 1_555
Na6 O5 2.364642 1_555
Na7 O28 2.256253 1_455
Na7 O30 2.323285 1_455
Na7 O9 2.347757 1_555
Na7 O4 2.364642 1_556
Na8 O10 2.293922 1_565
Na8 O2 2.343121 1_565
Na8 O8 2.376184 1_555
Na8 O31 2.407527 1_455
Na9 O11 2.293922 1_556
Na9 O3 2.343121 1_555
Na9 O9 2.376184 1_555
Na9 O30 2.407527 1_455
Na10 O4 2.293922 1_546
Na10 O13 2.343121 1_545
Na10 O7 2.376184 1_555
Na10 O16 2.407527 1_555
Na11 O5 2.293922 1_555
Na11 O12 2.343121 1_555
Na11 O6 2.376184 1_555
Na11 O17 2.407527 1_555
Na12 O18 2.256253 1_555
Na12 O17 2.323285 1_555
Na12 O6 2.347757 1_555
Na12 O10 2.364642 1_555
Na13 O19 2.256253 1_555
Na13 O16 2.323285 1_555
Na13 O7 2.347757 1_555
Na13 O11 2.364642 1_556
Na14 O14 2.301396 1_555
Na14 O9 2.309480 1_555
Na14 O19 2.348062 1_555
Na14 O5 2.350102 1_555
Na15 O15 2.301396 1_555
Na15 O8 2.309480 1_555
Na15 O18 2.348062 1_565
Na15 O4 2.350102 1_555
Na16 O12 2.288166 1_555
Na16 O14 2.302832 1_555
Na16 O8 2.306192 1_555
Na16 O5 2.512205 1_555
Na17 O13 2.288166 1_555
Na17 O15 2.302832 1_556
Na17 O9 2.306192 1_555
Na17 O4 2.512205 1_556
Na18 O13 2.269190 1_545
Na18 O17 2.333316 1_555
Na18 O7 2.345862 1_555
Na18 O10 2.370745 1_555
Na19 O12 2.269190 1_555
Na19 O16 2.333316 1_554
Na19 O6 2.345862 1_555
Na19 O11 2.370745 1_555
Na20 O19 2.269190 1_555
Na20 O15 2.333316 1_556
Na20 O25 2.345862 1_555
Na20 O20 2.370745 1_555
Na21 O18 2.269190 1_565
Na21 O14 2.333316 1_555
Na21 O24 2.345862 1_555
Na21 O21 2.370745 1_555
Na22 O18 2.288166 1_555
Na22 O16 2.302832 1_554
Na22 O22 2.306192 1_555
Na22 O26 2.512205 1_554
Na23 O19 2.288166 1_555
Na23 O17 2.302832 1_555
Na23 O23 2.306192 1_555
Na23 O27 2.512205 1_555
Na24 O17 2.301396 1_555
Na24 O22 2.309480 1_555
Na24 O12 2.348062 1_555
Na24 O27 2.350102 1_555
Na25 O16 2.301396 1_555
Na25 O23 2.309480 1_555
Na25 O13 2.348062 1_545
Na25 O26 2.350102 1_555
Na26 O12 2.256253 1_555
Na26 O15 2.323285 1_555
Na26 O24 2.347757 1_555
Na26 O20 2.364642 1_554
Na27 O13 2.256253 1_555
Na27 O14 2.323285 1_555
Na27 O25 2.347757 1_555
Na27 O21 2.364642 1_555
Na28 O27 2.293922 1_555
Na28 O19 2.343121 1_555
Na28 O25 2.376184 1_555
Na28 O14 2.407527 1_555
Na29 O26 2.293922 1_564
Na29 O18 2.343121 1_565
Na29 O24 2.376184 1_555
Na29 O15 2.407527 1_555
Na30 O21 2.293922 1_545
Na30 O28 2.343121 1_545
Na30 O23 2.376184 1_555
Na30 O1 2.407527 1_655
Na31 O20 2.293922 1_554
Na31 O29 2.343121 1_555
Na31 O22 2.376184 1_555
Na31 O0 2.407527 1_655
Na32 O2 2.256253 1_655
Na32 O0 2.323285 1_655
Na32 O22 2.347757 1_555
Na32 O26 2.364642 1_554
Na33 O3 2.256253 1_655
Na33 O1 2.323285 1_655
Na33 O23 2.347757 1_555
Na33 O27 2.364642 1_555
Na34 O30 2.301396 1_555
Na34 O25 2.309480 1_555
Na34 O3 2.348062 1_655
Na34 O20 2.350102 1_555
Na35 O31 2.301396 1_555
Na35 O24 2.309480 1_555
Na35 O2 2.348062 1_665
Na35 O21 2.350102 1_555
Na36 O29 2.288166 1_555
Na36 O30 2.302832 1_554
Na36 O24 2.306192 1_555
Na36 O20 2.512205 1_554
Na37 O28 2.288166 1_555
Na37 O31 2.302832 1_555
Na37 O25 2.306192 1_555
Na37 O21 2.512205 1_555
Na38 O28 2.269190 1_545
Na38 O0 2.333316 1_656
Na38 O23 2.345862 1_555
Na38 O26 2.370745 1_555
Na39 O29 2.269190 1_555
Na39 O1 2.333316 1_655
Na39 O22 2.345862 1_555
Na39 O27 2.370745 1_555
Cu0 O4 1.895418 1_545
Cu0 O6 1.934864 1_555
Cu0 O0 1.955323 1_555
Cu0 O2 2.005376 1_555
Cu1 O5 1.895418 1_555
Cu1 O7 1.934864 1_555
Cu1 O1 1.955323 1_555
Cu1 O3 2.005376 1_555
Cu2 O10 1.895418 1_565
Cu2 O9 1.934864 1_555
Cu2 O14 1.955323 1_555
Cu2 O13 2.005376 1_555
Cu3 O11 1.895418 1_555
Cu3 O8 1.934864 1_555
Cu3 O15 1.955323 1_555
Cu3 O12 2.005376 1_555
Cu4 O21 1.895418 1_545
Cu4 O22 1.934864 1_555
Cu4 O17 1.955323 1_555
Cu4 O18 2.005376 1_555
Cu5 O20 1.895418 1_555
Cu5 O23 1.934864 1_555
Cu5 O16 1.955323 1_555
Cu5 O19 2.005376 1_555
Cu6 O27 1.895418 1_555
Cu6 O24 1.934864 1_555
Cu6 O31 1.955323 1_555
Cu6 O29 2.005376 1_555
Cu7 O26 1.895418 1_565
Cu7 O25 1.934864 1_555
Cu7 O30 1.955323 1_555
Cu7 O28 2.005376 1_555
