# generated using pymatgen
data_Li4Mn3Ni2Sn3O16
_symmetry_space_group_name_H-M   'P 1'
_cell_length_a   6.04393689
_cell_length_b   6.04393689
_cell_length_c   9.69790682
_cell_angle_alpha   89.60850632
_cell_angle_beta   89.60850632
_cell_angle_gamma   59.98983229
_symmetry_Int_Tables_number   1
_chemical_formula_structural   Li4Mn3Ni2Sn3O16
_chemical_formula_sum   'Li4 Mn3 Ni2 Sn3 O16'
_cell_volume   306.75415773
_cell_formula_units_Z   1
loop_
 _symmetry_equiv_pos_site_id
 _symmetry_equiv_pos_as_xyz
  1  'x, y, z'
loop_
 _atom_site_type_symbol
 _atom_site_label
 _atom_site_symmetry_multiplicity
 _atom_site_fract_x
 _atom_site_fract_y
 _atom_site_fract_z
 _atom_site_occupancy
  Li  Li0  1  0.67331400  0.67331400  0.88203600  1
  Li  Li1  1  0.98431900  0.98431900  0.99555900  1
  Li  Li2  1  0.98821400  0.98821400  0.50257600  1
  Li  Li3  1  0.33843600  0.33843600  0.39182200  1
  Mn  Mn0  1  0.83155500  0.83155500  0.21674800  1
  Mn  Mn1  1  0.66245400  0.17003400  0.71511300  1
  Mn  Mn2  1  0.17003400  0.66245400  0.71511300  1
  Ni  Ni0  1  0.66745400  0.66745400  0.49222000  1
  Ni  Ni1  1  0.33559400  0.33559400  0.98589300  1
  Sn  Sn0  1  0.83263100  0.33867000  0.21439300  1
  Sn  Sn1  1  0.33867000  0.83263100  0.21439300  1
  Sn  Sn2  1  0.16962800  0.16962800  0.71397600  1
  O  O0  1  0.83238600  0.31392600  0.60250100  1
  O  O1  1  0.51841600  0.51841600  0.34239200  1
  O  O2  1  0.67912300  0.67912300  0.09937000  1
  O  O3  1  0.98979000  0.98979000  0.31874800  1
  O  O4  1  0.98953100  0.98953100  0.81186100  1
  O  O5  1  0.31392600  0.83238600  0.60250100  1
  O  O6  1  0.96760500  0.52959000  0.33629200  1
  O  O7  1  0.52959000  0.96760500  0.33629200  1
  O  O8  1  0.15628500  0.15628500  0.09190100  1
  O  O9  1  0.83965200  0.83965200  0.61287700  1
  O  O10  1  0.49483800  0.03897600  0.83416500  1
  O  O11  1  0.03897600  0.49483800  0.83416500  1
  O  O12  1  0.34575900  0.34575900  0.60639900  1
  O  O13  1  0.67960400  0.14865600  0.10536700  1
  O  O14  1  0.48280800  0.48280800  0.82779400  1
  O  O15  1  0.14865600  0.67960400  0.10536700  1
loop_
_geom_bond_atom_site_label_1
_geom_bond_atom_site_label_2
_geom_bond_distance
_geom_bond_site_symmetry_2
Li0 O11 1.967615 1_655
Li0 O10 1.967615 1_565
Li0 O14 2.066611 1_555
Li0 O2 2.109042 1_556
Li1 O4 1.781891 1_555
Li1 O15 1.915775 1_656
Li1 O13 1.915775 1_566
Li1 O8 2.034840 1_666
Li2 O3 1.782693 1_555
Li2 O9 1.880665 1_555
Li2 O5 1.964791 1_655
Li2 O0 1.964791 1_565
Li3 O1 1.940554 1_555
Li3 O6 2.016409 1_455
Li3 O7 2.016409 1_545
Li3 O12 2.082964 1_555
Mn0 O3 1.936108 1_555
Mn0 O6 1.958050 1_555
Mn0 O7 1.958050 1_555
Mn0 O2 1.967491 1_555
Mn0 O13 1.976843 1_565
Mn0 O15 1.976843 1_655
Mn1 O10 1.939314 1_555
Mn1 O4 1.957659 1_545
Mn1 O0 1.966987 1_555
Mn1 O12 1.970283 1_555
Mn1 O14 1.976224 1_555
Mn1 O9 1.997651 1_545
Mn2 O11 1.939314 1_555
Mn2 O4 1.957659 1_455
Mn2 O5 1.966987 1_555
Mn2 O12 1.970283 1_555
Mn2 O14 1.976224 1_555
Mn2 O9 1.997651 1_455
Ni0 O0 2.134417 1_555
Ni0 O5 2.134417 1_555
Ni0 O1 2.140438 1_555
Ni0 O9 2.156920 1_555
Ni0 O6 2.177060 1_555
Ni0 O7 2.177060 1_555
Ni1 O8 2.133128 1_556
Ni1 O10 2.143856 1_555
Ni1 O11 2.143856 1_555
Ni1 O13 2.146426 1_556
Ni1 O15 2.146426 1_556
Ni1 O14 2.165347 1_555
O0 Sn2 2.079163 1_655
O1 Sn0 2.061578 1_555
O1 Sn1 2.061578 1_555
O2 Sn0 2.100530 1_555
O2 Sn1 2.100530 1_555
O3 Sn1 2.086417 1_655
O3 Sn0 2.086417 1_565
O4 Sn2 2.104214 1_665
O5 Sn2 2.079163 1_565
O6 Sn0 2.089963 1_555
O7 Sn1 2.089963 1_555
O8 Sn1 2.069284 1_545
O8 Sn0 2.069284 1_455
O10 Sn2 2.076455 1_555
O11 Sn2 2.076455 1_555
O12 Sn2 2.111409 1_555
O13 Sn0 2.093967 1_555
O15 Sn1 2.093967 1_555
