# generated using pymatgen
data_Sr3Ta2O8
_symmetry_space_group_name_H-M   'P 1'
_cell_length_a   6.98823617
_cell_length_b   6.98823617
_cell_length_c   9.43596400
_cell_angle_alpha   72.93312425
_cell_angle_beta   72.93312425
_cell_angle_gamma   82.43549537
_symmetry_Int_Tables_number   1
_chemical_formula_structural   Sr3Ta2O8
_chemical_formula_sum   'Sr6 Ta4 O16'
_cell_volume   420.59521224
_cell_formula_units_Z   2
loop_
 _symmetry_equiv_pos_site_id
 _symmetry_equiv_pos_as_xyz
  1  'x, y, z'
loop_
 _atom_site_type_symbol
 _atom_site_label
 _atom_site_symmetry_multiplicity
 _atom_site_fract_x
 _atom_site_fract_y
 _atom_site_fract_z
 _atom_site_occupancy
  Sr  Sr0  1  0.61456100  0.73707600  0.49680300  1
  Sr  Sr1  1  0.72351400  0.27648600  0.75000000  1
  Sr  Sr2  1  0.26292400  0.38543900  0.00319700  1
  Sr  Sr3  1  0.73707600  0.61456100  0.99680300  1
  Sr  Sr4  1  0.27648600  0.72351400  0.25000000  1
  Sr  Sr5  1  0.38543900  0.26292400  0.50319700  1
  Ta  Ta0  1  0.20905600  0.92936800  0.88034800  1
  Ta  Ta1  1  0.92936800  0.20905600  0.38034800  1
  Ta  Ta2  1  0.07063200  0.79094400  0.61965200  1
  Ta  Ta3  1  0.79094400  0.07063200  0.11965200  1
  O  O0  1  0.06503200  0.70271300  0.85131200  1
  O  O1  1  0.70271300  0.06503200  0.35131200  1
  O  O2  1  0.83878100  0.63377300  0.67952600  1
  O  O3  1  0.39058300  0.72270800  0.96463300  1
  O  O4  1  0.94541000  0.10116600  0.89236700  1
  O  O5  1  0.63377300  0.83878100  0.17952600  1
  O  O6  1  0.72270800  0.39058300  0.46463300  1
  O  O7  1  0.89883400  0.05459000  0.60763300  1
  O  O8  1  0.10116600  0.94541000  0.39236700  1
  O  O9  1  0.27729200  0.60941700  0.53536700  1
  O  O10  1  0.36622700  0.16121900  0.82047400  1
  O  O11  1  0.05459000  0.89883400  0.10763300  1
  O  O12  1  0.60941700  0.27729200  0.03536700  1
  O  O13  1  0.16121900  0.36622700  0.32047400  1
  O  O14  1  0.29728700  0.93496800  0.64868800  1
  O  O15  1  0.93496800  0.29728700  0.14868800  1
loop_
_geom_bond_atom_site_label_1
_geom_bond_atom_site_label_2
_geom_bond_distance
_geom_bond_site_symmetry_2
O0 Ta2 2.079670 1_555
O0 Ta0 2.105508 1_555
O0 Sr3 2.354821 1_455
O0 Sr2 2.715378 1_556
O1 Ta3 2.079670 1_555
O1 Ta1 2.105508 1_555
O1 Sr0 2.354821 1_545
O1 Sr5 2.715378 1_555
O2 Ta2 1.928132 1_655
O2 Sr0 2.550773 1_555
O2 Sr1 2.562347 1_555
O2 Sr3 2.833075 1_555
O3 Ta0 1.939869 1_555
O3 Sr3 2.518203 1_555
O3 Sr2 2.518521 1_556
O3 Sr4 2.575648 1_556
O4 Ta0 2.055148 1_645
O4 Ta3 2.059958 1_556
O4 Sr1 2.338099 1_555
O5 Ta3 1.928132 1_565
O5 Sr3 2.550773 1_554
O5 Sr4 2.562347 1_555
O5 Sr0 2.833075 1_555
O6 Ta1 1.939869 1_555
O6 Sr0 2.518203 1_555
O6 Sr5 2.518521 1_555
O6 Sr1 2.575648 1_555
O7 Ta2 2.055148 1_645
O7 Ta1 2.059958 1_555
O7 Sr1 2.338099 1_555
O8 Ta1 2.055148 1_465
O8 Ta2 2.059958 1_555
O8 Sr4 2.338099 1_555
O9 Ta2 1.939869 1_555
O9 Sr5 2.518203 1_555
O9 Sr0 2.518521 1_555
O9 Sr4 2.575648 1_555
O10 Ta0 1.928132 1_545
O10 Sr2 2.550773 1_556
O10 Sr1 2.562347 1_555
O10 Sr5 2.833075 1_555
O11 Ta3 2.055148 1_465
O11 Ta0 2.059958 1_554
O11 Sr4 2.338099 1_555
O12 Ta3 1.939869 1_555
O12 Sr2 2.518203 1_555
O12 Sr3 2.518521 1_554
O12 Sr1 2.575648 1_554
O13 Ta1 1.928132 1_455
O13 Sr5 2.550773 1_555
O13 Sr4 2.562347 1_555
O13 Sr2 2.833075 1_555
O14 Ta0 2.079670 1_555
O14 Ta2 2.105508 1_555
O14 Sr5 2.354821 1_565
O14 Sr0 2.715378 1_555
O15 Ta1 2.079670 1_555
O15 Ta3 2.105508 1_555
O15 Sr2 2.354821 1_655
O15 Sr3 2.715378 1_554
