# generated using pymatgen
data_ZnH18Ru2Br7N6
_symmetry_space_group_name_H-M   'P 1'
_cell_length_a   10.49522900
_cell_length_b   9.25010900
_cell_length_c   10.40312346
_cell_angle_alpha   83.90054976
_cell_angle_beta   90.00000000
_cell_angle_gamma   90.00000000
_symmetry_Int_Tables_number   1
_chemical_formula_structural   ZnH18Ru2Br7N6
_chemical_formula_sum   'Zn2 H36 Ru4 Br14 N12'
_cell_volume   1004.23876045
_cell_formula_units_Z   2
loop_
 _symmetry_equiv_pos_site_id
 _symmetry_equiv_pos_as_xyz
  1  'x, y, z'
loop_
 _atom_site_type_symbol
 _atom_site_label
 _atom_site_symmetry_multiplicity
 _atom_site_fract_x
 _atom_site_fract_y
 _atom_site_fract_z
 _atom_site_occupancy
  Zn  Zn0  1  0.25000000  0.26255400  0.50681300  1
  Zn  Zn1  1  0.75000000  0.73744600  0.49318700  1
  H  H0  1  0.86987500  0.58059700  0.14404600  1
  H  H1  1  0.36987500  0.41940300  0.85595400  1
  H  H2  1  0.13012500  0.41940300  0.85595400  1
  H  H3  1  0.63012500  0.58059700  0.14404600  1
  H  H4  1  0.98007800  0.45284300  0.14158000  1
  H  H5  1  0.48007800  0.54715700  0.85842000  1
  H  H6  1  0.01992200  0.54715700  0.85842000  1
  H  H7  1  0.51992200  0.45284300  0.14158000  1
  H  H8  1  0.89400000  0.46427100  0.27344000  1
  H  H9  1  0.39400000  0.53572900  0.72656000  1
  H  H10  1  0.10600000  0.53572900  0.72656000  1
  H  H11  1  0.60600000  0.46427100  0.27344000  1
  H  H12  1  0.82997500  0.19628100  0.34062100  1
  H  H13  1  0.32997500  0.80371900  0.65937900  1
  H  H14  1  0.17002500  0.80371900  0.65937900  1
  H  H15  1  0.67002500  0.19628100  0.34062100  1
  H  H16  1  0.75000000  0.08419600  0.25873800  1
  H  H17  1  0.25000000  0.91580400  0.74126200  1
  H  H18  1  0.75000000  0.93183000  0.77820700  1
  H  H19  1  0.25000000  0.06817000  0.22179300  1
  H  H20  1  0.82890200  0.92036600  0.91583000  1
  H  H21  1  0.32890200  0.07963400  0.08417000  1
  H  H22  1  0.17109800  0.07963400  0.08417000  1
  H  H23  1  0.67109800  0.92036600  0.91583000  1
  H  H24  1  0.91054100  0.09656000  0.69519400  1
  H  H25  1  0.41054100  0.90344000  0.30480600  1
  H  H26  1  0.08945900  0.90344000  0.30480600  1
  H  H27  1  0.58945900  0.09656000  0.69519400  1
  H  H28  1  0.97245100  0.24691300  0.73605100  1
  H  H29  1  0.47245100  0.75308700  0.26394900  1
  H  H30  1  0.02754900  0.75308700  0.26394900  1
  H  H31  1  0.52754900  0.24691300  0.73605100  1
  H  H32  1  0.85362000  0.25636500  0.63347800  1
  H  H33  1  0.35362000  0.74363500  0.36652200  1
  H  H34  1  0.14638000  0.74363500  0.36652200  1
  H  H35  1  0.64638000  0.25636500  0.63347800  1
  Ru  Ru0  1  0.75000000  0.33265200  0.10886400  1
  Ru  Ru1  1  0.25000000  0.66734800  0.89113600  1
  Ru  Ru2  1  0.75000000  0.19428700  0.86729500  1
  Ru  Ru3  1  0.25000000  0.80571300  0.13270500  1
  Br  Br0  1  0.75000000  0.47324200  0.88211000  1
  Br  Br1  1  0.25000000  0.52675800  0.11789000  1
  Br  Br2  1  0.57021900  0.17701100  0.03520500  1
  Br  Br3  1  0.07021900  0.82298900  0.96479500  1
  Br  Br4  1  0.42978100  0.82298900  0.96479500  1
  Br  Br5  1  0.92978100  0.17701100  0.03520500  1
  Br  Br6  1  0.25000000  0.52892500  0.50713000  1
  Br  Br7  1  0.75000000  0.47107500  0.49287000  1
  Br  Br8  1  0.25000000  0.18651700  0.74296700  1
  Br  Br9  1  0.75000000  0.81348300  0.25703300  1
  Br  Br10  1  0.06746800  0.17426300  0.39586300  1
  Br  Br11  1  0.56746800  0.82573700  0.60413700  1
  Br  Br12  1  0.93253200  0.82573700  0.60413700  1
  Br  Br13  1  0.43253200  0.17426300  0.39586300  1
  N  N0  1  0.89043300  0.47344700  0.17414600  1
  N  N1  1  0.39043300  0.52655300  0.82585400  1
  N  N2  1  0.10956700  0.52655300  0.82585400  1
  N  N3  1  0.60956700  0.47344700  0.17414600  1
  N  N4  1  0.75000000  0.18915000  0.28449600  1
  N  N5  1  0.25000000  0.81085000  0.71550400  1
  N  N6  1  0.75000000  0.96587100  0.86932000  1
  N  N7  1  0.25000000  0.03412900  0.13068000  1
  N  N8  1  0.88698300  0.19934600  0.71692500  1
  N  N9  1  0.38698300  0.80065400  0.28307500  1
  N  N10  1  0.11301700  0.80065400  0.28307500  1
  N  N11  1  0.61301700  0.19934600  0.71692500  1
loop_
_geom_bond_atom_site_label_1
_geom_bond_atom_site_label_2
_geom_bond_distance
_geom_bond_site_symmetry_2
H0 N0 1.030062 1_555
H1 N1 1.030062 1_555
H2 N2 1.030062 1_555
H3 N3 1.030062 1_555
H4 N0 1.024701 1_555
H5 N1 1.024701 1_555
H6 N2 1.024701 1_555
H7 N3 1.024701 1_555
H8 N0 1.028103 1_555
H9 N1 1.028103 1_555
H10 N2 1.028103 1_555
H11 N3 1.028103 1_555
H12 N4 1.028574 1_555
H13 N5 1.028574 1_555
H14 N5 1.028574 1_555
H15 N4 1.028574 1_555
H16 N4 1.034220 1_555
H17 N5 1.034220 1_555
H18 N6 1.030056 1_555
H19 N7 1.030056 1_555
H20 N6 1.026523 1_555
H21 N7 1.026523 1_555
H22 N7 1.026523 1_555
H23 N6 1.026523 1_555
H24 N8 1.030486 1_555
H25 N9 1.030486 1_555
H26 N10 1.030486 1_555
H27 N11 1.030486 1_555
H28 N8 1.027820 1_555
H29 N9 1.027820 1_555
H30 N10 1.027820 1_555
H31 N11 1.027820 1_555
H32 N8 1.028156 1_555
H33 N9 1.028156 1_555
H34 N10 1.028156 1_555
H35 N11 1.028156 1_555
Br0 Ru0 2.569815 1_556
Br0 Ru2 2.601259 1_555
Br1 Ru1 2.569815 1_554
Br1 Ru3 2.601259 1_555
Br2 Ru0 2.540578 1_555
Br2 Ru2 2.564695 1_554
Br3 Ru1 2.540578 1_555
Br3 Ru3 2.564695 1_556
Br4 Ru1 2.540578 1_555
Br4 Ru3 2.564695 1_556
Br5 Ru0 2.540578 1_555
Br5 Ru2 2.564695 1_554
Br6 Zn0 2.464313 1_555
Br7 Zn1 2.464313 1_555
Br8 Zn0 2.482552 1_555
Br9 Zn1 2.482552 1_555
Br10 Zn0 2.422711 1_555
Br11 Zn1 2.422711 1_555
Br12 Zn1 2.422711 1_555
Br13 Zn0 2.422711 1_555
N0 Ru0 2.125480 1_555
N1 Ru1 2.125480 1_555
N2 Ru1 2.125480 1_555
N3 Ru0 2.125480 1_555
N4 Ru0 2.141257 1_555
N5 Ru1 2.141257 1_555
N6 Ru2 2.110738 1_565
N7 Ru3 2.110738 1_545
N8 Ru2 2.121465 1_555
N9 Ru3 2.121465 1_555
N10 Ru3 2.121465 1_555
N11 Ru2 2.121465 1_555
