# generated using pymatgen
data_Na2B5H5O11
_symmetry_space_group_name_H-M   'P 1'
_cell_length_a   6.57108700
_cell_length_b   11.27269900
_cell_length_c   12.11974300
_cell_angle_alpha   90.00000000
_cell_angle_beta   90.00000000
_cell_angle_gamma   90.00000000
_symmetry_Int_Tables_number   1
_chemical_formula_structural   Na2B5H5O11
_chemical_formula_sum   'Na8 B20 H20 O44'
_cell_volume   897.75645956
_cell_formula_units_Z   4
loop_
 _symmetry_equiv_pos_site_id
 _symmetry_equiv_pos_as_xyz
  1  'x, y, z'
loop_
 _atom_site_type_symbol
 _atom_site_label
 _atom_site_symmetry_multiplicity
 _atom_site_fract_x
 _atom_site_fract_y
 _atom_site_fract_z
 _atom_site_occupancy
  Na  Na0  1  0.85869200  0.50305800  0.97357300  1
  Na  Na1  1  0.14130800  0.00305800  0.02642700  1
  Na  Na2  1  0.35869200  0.00305800  0.52642700  1
  Na  Na3  1  0.64130800  0.50305800  0.47357300  1
  Na  Na4  1  0.03251300  0.17789800  0.74852500  1
  Na  Na5  1  0.96748700  0.67789800  0.25147500  1
  Na  Na6  1  0.53251300  0.67789800  0.75147500  1
  Na  Na7  1  0.46748700  0.17789800  0.24852500  1
  B  B0  1  0.01784600  0.50765400  0.71800200  1
  B  B1  1  0.98215400  0.00765400  0.28199800  1
  B  B2  1  0.51784600  0.00765400  0.78199800  1
  B  B3  1  0.48215400  0.50765400  0.21800200  1
  B  B4  1  0.35077200  0.42150400  0.65748000  1
  B  B5  1  0.64922800  0.92150400  0.34252000  1
  B  B6  1  0.85077200  0.92150400  0.84252000  1
  B  B7  1  0.14922800  0.42150400  0.15748000  1
  B  B8  1  0.12026600  0.51880800  0.52010800  1
  B  B9  1  0.87973400  0.01880800  0.47989200  1
  B  B10  1  0.62026600  0.01880800  0.97989200  1
  B  B11  1  0.37973400  0.51880800  0.02010800  1
  B  B12  1  0.46394000  0.21374400  0.70328100  1
  B  B13  1  0.53606000  0.71374400  0.29671900  1
  B  B14  1  0.96394000  0.71374400  0.79671900  1
  B  B15  1  0.03606000  0.21374400  0.20328100  1
  B  B16  1  0.70875300  0.37300200  0.71522000  1
  B  B17  1  0.29124700  0.87300200  0.28478000  1
  B  B18  1  0.20875300  0.87300200  0.78478000  1
  B  B19  1  0.79124700  0.37300200  0.21522000  1
  H  H0  1  0.16093900  0.52057000  0.35345400  1
  H  H1  1  0.83906100  0.02057000  0.64654600  1
  H  H2  1  0.66093900  0.02057000  0.14654600  1
  H  H3  1  0.33906100  0.52057000  0.85345400  1
  H  H4  1  0.70146900  0.66330400  0.07857900  1
  H  H5  1  0.29853100  0.16330400  0.92142100  1
  H  H6  1  0.20146900  0.16330400  0.42142100  1
  H  H7  1  0.79853100  0.66330400  0.57857900  1
  H  H8  1  0.83122400  0.76866100  0.02639500  1
  H  H9  1  0.16877600  0.26866100  0.97360500  1
  H  H10  1  0.33122400  0.26866100  0.47360500  1
  H  H11  1  0.66877600  0.76866100  0.52639500  1
  H  H12  1  0.70514200  0.26639200  0.90617500  1
  H  H13  1  0.29485800  0.76639200  0.09382500  1
  H  H14  1  0.20514200  0.76639200  0.59382500  1
  H  H15  1  0.79485800  0.26639200  0.40617500  1
  H  H16  1  0.66374400  0.25447200  0.03112600  1
  H  H17  1  0.33625600  0.75447200  0.96887400  1
  H  H18  1  0.16374400  0.75447200  0.46887400  1
  H  H19  1  0.83625600  0.25447200  0.53112600  1
  O  O0  1  0.98421100  0.55056400  0.60161900  1
  O  O1  1  0.01578900  0.05056400  0.39838100  1
  O  O2  1  0.48421100  0.05056400  0.89838100  1
  O  O3  1  0.51578900  0.55056400  0.10161900  1
  O  O4  1  0.92328400  0.59492100  0.79417900  1
  O  O5  1  0.07671600  0.09492100  0.20582100  1
  O  O6  1  0.42328400  0.09492100  0.70582100  1
  O  O7  1  0.57671600  0.59492100  0.29417900  1
  O  O8  1  0.31878800  0.29036000  0.66617100  1
  O  O9  1  0.68121200  0.79036000  0.33382900  1
  O  O10  1  0.81878800  0.79036000  0.83382900  1
  O  O11  1  0.18121200  0.29036000  0.16617100  1
  O  O12  1  0.29493700  0.45562800  0.54192700  1
  O  O13  1  0.70506300  0.95562800  0.45807300  1
  O  O14  1  0.79493700  0.95562800  0.95807300  1
  O  O15  1  0.20506300  0.45562800  0.04192700  1
  O  O16  1  0.23381500  0.48901900  0.73776600  1
  O  O17  1  0.76618500  0.98901900  0.26223400  1
  O  O18  1  0.73381500  0.98901900  0.76223400  1
  O  O19  1  0.26618500  0.48901900  0.23776600  1
  O  O20  1  0.90790800  0.39469300  0.73630500  1
  O  O21  1  0.09209200  0.89469300  0.26369500  1
  O  O22  1  0.40790800  0.89469300  0.76369500  1
  O  O23  1  0.59209200  0.39469300  0.23630500  1
  O  O24  1  0.57043900  0.45091000  0.67289900  1
  O  O25  1  0.42956100  0.95091000  0.32710100  1
  O  O26  1  0.07043900  0.95091000  0.82710100  1
  O  O27  1  0.92956100  0.45091000  0.17289900  1
  O  O28  1  0.07501100  0.55760000  0.41438200  1
  O  O29  1  0.92498900  0.05760000  0.58561800  1
  O  O30  1  0.57501100  0.05760000  0.08561800  1
  O  O31  1  0.42498900  0.55760000  0.91438200  1
  O  O32  1  0.65380100  0.25473900  0.73924200  1
  O  O33  1  0.34619900  0.75473900  0.26075800  1
  O  O34  1  0.15380100  0.75473900  0.76075800  1
  O  O35  1  0.84619900  0.25473900  0.23924200  1
  O  O36  1  0.84124100  0.69524600  0.06919400  1
  O  O37  1  0.15875900  0.19524600  0.93080600  1
  O  O38  1  0.34124100  0.19524600  0.43080600  1
  O  O39  1  0.65875900  0.69524600  0.56919400  1
  O  O40  1  0.71249900  0.31015200  0.97588200  1
  O  O41  1  0.28750100  0.81015200  0.02411800  1
  O  O42  1  0.21249900  0.81015200  0.52411800  1
  O  O43  1  0.78750100  0.31015200  0.47588200  1
loop_
_geom_bond_atom_site_label_1
_geom_bond_atom_site_label_2
_geom_bond_distance
_geom_bond_site_symmetry_2
Na0 O40 2.377475 1_555
Na0 O4 2.445340 1_555
Na0 O36 2.459640 1_556
Na0 O15 2.480423 1_656
Na0 O27 2.529510 1_556
Na0 O3 2.787874 1_556
Na0 O31 3.002430 1_555
Na1 O41 2.377475 1_545
Na1 O5 2.445340 1_555
Na1 O37 2.459640 1_554
Na1 O14 2.480423 1_444
Na1 O26 2.529510 1_544
Na1 O2 2.787874 1_554
Na1 O30 3.002430 1_555
Na2 O42 2.377475 1_545
Na2 O6 2.445340 1_555
Na2 O38 2.459640 1_555
Na2 O13 2.480423 1_545
Na2 O25 2.529510 1_545
Na2 O1 2.787874 1_555
Na2 O29 3.002430 1_455
Na3 O43 2.377475 1_555
Na3 O7 2.445340 1_555
Na3 O39 2.459640 1_555
Na3 O12 2.480423 1_555
Na3 O24 2.529510 1_555
Na3 O0 2.787874 1_555
Na3 O28 3.002430 1_655
Na4 O37 2.367909 1_555
Na4 O8 2.478325 1_555
Na4 O29 2.497277 1_455
Na4 O20 2.581633 1_455
Na4 O32 2.637394 1_455
Na4 O26 2.741590 1_545
Na4 O6 2.781428 1_555
Na4 O18 2.900597 1_445
Na5 O36 2.367909 1_555
Na5 O9 2.478325 1_555
Na5 O28 2.497277 1_655
Na5 O21 2.581633 1_655
Na5 O33 2.637394 1_655
Na5 O27 2.741590 1_555
Na5 O7 2.781428 1_555
Na5 O19 2.900597 1_655
Na6 O39 2.367909 1_555
Na6 O10 2.478325 1_555
Na6 O31 2.497277 1_555
Na6 O22 2.581633 1_555
Na6 O34 2.637394 1_555
Na6 O24 2.741590 1_555
Na6 O4 2.781428 1_555
Na6 O16 2.900597 1_555
Na7 O38 2.367909 1_555
Na7 O11 2.478325 1_555
Na7 O30 2.497277 1_555
Na7 O23 2.581633 1_555
Na7 O35 2.637394 1_555
Na7 O25 2.741590 1_545
Na7 O5 2.781428 1_555
Na7 O17 2.900597 1_545
B0 O16 1.454474 1_555
B0 O20 1.480733 1_455
B0 O4 1.485336 1_455
B0 O0 1.507457 1_455
B1 O17 1.454474 1_545
B1 O21 1.480733 1_645
B1 O5 1.485336 1_655
B1 O1 1.507457 1_655
B2 O18 1.454474 1_545
B2 O22 1.480733 1_545
B2 O6 1.485336 1_555
B2 O2 1.507457 1_555
B3 O19 1.454474 1_555
B3 O23 1.480733 1_555
B3 O7 1.485336 1_555
B3 O3 1.507457 1_555
B4 O16 1.454888 1_555
B4 O24 1.492768 1_555
B4 O8 1.496922 1_555
B4 O12 1.497968 1_555
B5 O17 1.454888 1_555
B5 O25 1.492768 1_555
B5 O9 1.496922 1_555
B5 O13 1.497968 1_555
B6 O18 1.454888 1_555
B6 O26 1.492768 1_655
B6 O10 1.496922 1_555
B6 O14 1.497968 1_555
B7 O19 1.454888 1_555
B7 O27 1.492768 1_455
B7 O11 1.496922 1_555
B7 O15 1.497968 1_555
B8 O12 1.376432 1_555
B8 O0 1.379625 1_455
B8 O28 1.386207 1_555
B9 O13 1.376432 1_545
B9 O1 1.379625 1_655
B9 O29 1.386207 1_555
B10 O14 1.376432 1_545
B10 O2 1.379625 1_555
B10 O30 1.386207 1_556
B11 O15 1.376432 1_555
B11 O3 1.379625 1_555
B11 O31 1.386207 1_554
B12 O8 1.363069 1_555
B12 O6 1.366185 1_555
B12 O32 1.400001 1_555
B13 O9 1.363069 1_555
B13 O7 1.366185 1_555
B13 O33 1.400001 1_555
B14 O10 1.363069 1_555
B14 O4 1.366185 1_555
B14 O34 1.400001 1_655
B15 O11 1.363069 1_555
B15 O5 1.366185 1_555
B15 O35 1.400001 1_455
B16 O20 1.355616 1_555
B16 O24 1.363976 1_555
B16 O32 1.411532 1_555
B17 O21 1.355616 1_555
B17 O25 1.363976 1_555
B17 O33 1.411532 1_555
B18 O22 1.355616 1_555
B18 O26 1.363976 1_555
B18 O34 1.411532 1_555
B19 O23 1.355616 1_555
B19 O27 1.363976 1_555
B19 O35 1.411532 1_555
H0 O28 1.018993 1_555
H0 O19 1.603337 1_555
H0 Na5 2.507760 1_455
H1 O29 1.018993 1_555
H1 O18 1.603337 1_545
H1 Na4 2.507760 1_655
H2 O30 1.018993 1_555
H2 O17 1.603337 1_545
H2 Na7 2.507760 1_555
H3 O31 1.018993 1_555
H3 O16 1.603337 1_555
H3 Na6 2.507760 1_555
H4 O36 0.993050 1_555
H4 Na0 2.439278 1_554
H5 O37 0.993050 1_555
H5 Na1 2.439278 1_556
H6 O38 0.993050 1_555
H6 Na2 2.439278 1_555
H7 O39 0.993050 1_555
H7 Na3 2.439278 1_555
H8 O36 0.978924 1_555
H9 O37 0.978924 1_555
H10 O38 0.978924 1_555
H11 O39 0.978924 1_555
H12 O40 0.979497 1_555
H13 O41 0.979497 1_555
H14 O42 0.979497 1_555
H15 O43 0.979497 1_555
H16 O40 0.972054 1_554
H17 O41 0.972054 1_556
H18 O42 0.972054 1_555
H19 O43 0.972054 1_555
