# generated using pymatgen
data_Li2CuAsO4
_symmetry_space_group_name_H-M   'P 1'
_cell_length_a   5.09891100
_cell_length_b   5.57833000
_cell_length_c   6.87860400
_cell_angle_alpha   88.35089327
_cell_angle_beta   90.00000000
_cell_angle_gamma   90.00000000
_symmetry_Int_Tables_number   1
_chemical_formula_structural   Li2CuAsO4
_chemical_formula_sum   'Li4 Cu2 As2 O8'
_cell_volume   195.56990614
_cell_formula_units_Z   2
loop_
 _symmetry_equiv_pos_site_id
 _symmetry_equiv_pos_as_xyz
  1  'x, y, z'
loop_
 _atom_site_type_symbol
 _atom_site_label
 _atom_site_symmetry_multiplicity
 _atom_site_fract_x
 _atom_site_fract_y
 _atom_site_fract_z
 _atom_site_occupancy
  Li  Li0  1  0.96707000  0.08821500  0.18263800  1
  Li  Li1  1  0.48582100  0.19341800  0.48612500  1
  Li  Li2  1  0.98582100  0.80658200  0.51387500  1
  Li  Li3  1  0.46707000  0.91178500  0.81736200  1
  Cu  Cu0  1  0.54937100  0.33404500  0.99942700  1
  Cu  Cu1  1  0.04937100  0.66595500  0.00057300  1
  As  As0  1  0.99324700  0.27694800  0.73330800  1
  As  As1  1  0.49324700  0.72305200  0.26669200  1
  O  O0  1  0.14828000  0.13019900  0.92537700  1
  O  O1  1  0.10048200  0.15428000  0.52136300  1
  O  O2  1  0.65295400  0.23682400  0.74536800  1
  O  O3  1  0.05673900  0.58468800  0.73497500  1
  O  O4  1  0.55673900  0.41531200  0.26502500  1
  O  O5  1  0.15295400  0.76317600  0.25463200  1
  O  O6  1  0.60048200  0.84572000  0.47863700  1
  O  O7  1  0.64828000  0.86980100  0.07462300  1
loop_
_geom_bond_atom_site_label_1
_geom_bond_atom_site_label_2
_geom_bond_distance
_geom_bond_site_symmetry_2
Li0 O0 2.004045 1_654
Li0 O5 2.092725 1_645
Li0 O7 2.175039 1_545
Li0 O1 2.465092 1_655
Li1 O4 1.966612 1_555
Li1 O1 1.990941 1_555
Li1 O2 1.997405 1_555
Li1 O6 2.027847 1_545
Li2 O3 1.966612 1_655
Li2 O6 1.990941 1_555
Li2 O5 1.997405 1_655
Li2 O1 2.027847 1_665
Li3 O7 2.004045 1_556
Li3 O2 2.092725 1_565
Li3 O0 2.175039 1_565
Li3 O6 2.465092 1_555
Cu0 O4 1.895340 1_556
Cu0 O2 1.918758 1_555
Cu0 O0 2.401744 1_555
Cu1 O3 1.895340 1_554
Cu1 O5 1.918758 1_555
Cu1 O7 2.401744 1_455
As0 O1 1.717575 1_655
As0 O0 1.725761 1_655
As0 O3 1.747297 1_655
As0 O2 1.751161 1_555
As1 O6 1.717575 1_555
As1 O7 1.725761 1_555
As1 O4 1.747297 1_555
As1 O5 1.751161 1_555
