# generated using pymatgen
data_CdFeO3
_symmetry_space_group_name_H-M   'P 1'
_cell_length_a   5.36303661
_cell_length_b   5.45016057
_cell_length_c   7.66973807
_cell_angle_alpha   90.00236178
_cell_angle_beta   90.01492688
_cell_angle_gamma   90.05260593
_symmetry_Int_Tables_number   1
_chemical_formula_structural   CdFeO3
_chemical_formula_sum   'Cd4 Fe4 O12'
_cell_volume   224.18182162
_cell_formula_units_Z   4
loop_
 _symmetry_equiv_pos_site_id
 _symmetry_equiv_pos_as_xyz
  1  'x, y, z'
loop_
 _atom_site_type_symbol
 _atom_site_label
 _atom_site_symmetry_multiplicity
 _atom_site_fract_x
 _atom_site_fract_y
 _atom_site_fract_z
 _atom_site_occupancy
  Cd  Cd0  1  0.00929800  0.95770100  0.74997100  1
  Cd  Cd1  1  0.49056800  0.45763300  0.75001600  1
  Cd  Cd2  1  0.50942900  0.54236100  0.25000200  1
  Cd  Cd3  1  0.99070100  0.04230200  0.25001300  1
  Fe  Fe0  1  0.00002100  0.50000300  0.99999300  1
  Fe  Fe1  1  0.00000000  0.50000500  0.49999700  1
  Fe  Fe2  1  0.50000800  0.00000600  0.00001000  1
  Fe  Fe3  1  0.49999800  0.99999400  0.50001000  1
  O  O0  1  0.09201700  0.46847800  0.24996000  1
  O  O1  1  0.20023000  0.20702400  0.54820400  1
  O  O2  1  0.20058100  0.20666200  0.95177200  1
  O  O3  1  0.29733900  0.70450000  0.54818100  1
  O  O4  1  0.29765700  0.70480600  0.95182800  1
  O  O5  1  0.40918700  0.96882300  0.25000300  1
  O  O6  1  0.59081700  0.03118200  0.74999900  1
  O  O7  1  0.70232400  0.29519700  0.04823500  1
  O  O8  1  0.70266800  0.29550400  0.45183600  1
  O  O9  1  0.79939800  0.79331900  0.04816100  1
  O  O10  1  0.79977500  0.79298600  0.45177300  1
  O  O11  1  0.90798300  0.53151500  0.75003400  1
loop_
_geom_bond_atom_site_label_1
_geom_bond_atom_site_label_2
_geom_bond_distance
_geom_bond_site_symmetry_2
Cd0 O6 2.280143 1_465
Cd0 O2 2.299023 1_565
Cd0 O1 2.299609 1_565
Cd0 O11 2.385002 1_455
Cd0 O3 2.586692 1_555
Cd0 O4 2.586716 1_555
Cd0 O10 2.701117 1_455
Cd0 O9 2.701863 1_456
Cd1 O11 2.274175 1_555
Cd1 O3 2.298358 1_555
Cd1 O4 2.298736 1_555
Cd1 O6 2.386080 1_555
Cd1 O1 2.584686 1_555
Cd1 O2 2.584891 1_555
Cd1 O7 2.702906 1_556
Cd1 O8 2.703320 1_555
Cd2 O0 2.274160 1_555
Cd2 O8 2.298345 1_555
Cd2 O7 2.298436 1_555
Cd2 O5 2.386130 1_555
Cd2 O10 2.584569 1_555
Cd2 O9 2.585186 1_555
Cd2 O4 2.702666 1_554
Cd2 O3 2.703309 1_555
Cd3 O5 2.280167 1_645
Cd3 O9 2.299405 1_545
Cd3 O10 2.299536 1_545
Cd3 O0 2.384950 1_655
Cd3 O7 2.586411 1_555
Cd3 O8 2.586821 1_555
Cd3 O1 2.701097 1_655
Cd3 O2 2.702109 1_654
Fe0 O9 1.962918 1_456
Fe0 O2 1.962921 1_555
Fe0 O4 1.981771 1_555
Fe0 O7 1.982154 1_456
Fe0 O11 1.987003 1_455
Fe0 O0 1.987012 1_556
Fe1 O1 1.960249 1_555
Fe1 O10 1.960259 1_455
Fe1 O8 1.979355 1_455
Fe1 O3 1.979400 1_555
Fe1 O11 1.987785 1_455
Fe1 O0 1.987793 1_555
Fe2 O7 1.974586 1_555
Fe2 O4 1.974667 1_544
Fe2 O5 1.985658 1_545
Fe2 O6 1.985772 1_554
Fe2 O9 1.996613 1_545
Fe2 O2 1.996800 1_554
Fe3 O3 1.976993 1_555
Fe3 O8 1.977101 1_565
Fe3 O6 1.985370 1_565
Fe3 O5 1.985484 1_555
Fe3 O1 1.999499 1_565
Fe3 O10 1.999531 1_555
