# generated using pymatgen
data_Na6BeO4
_symmetry_space_group_name_H-M   'P 1'
_cell_length_a   7.31463189
_cell_length_b   7.31463189
_cell_length_c   5.76813800
_cell_angle_alpha   90.00000000
_cell_angle_beta   90.00000000
_cell_angle_gamma   119.99999897
_symmetry_Int_Tables_number   1
_chemical_formula_structural   Na6BeO4
_chemical_formula_sum   'Na12 Be2 O8'
_cell_volume   267.27062426
_cell_formula_units_Z   2
loop_
 _symmetry_equiv_pos_site_id
 _symmetry_equiv_pos_as_xyz
  1  'x, y, z'
loop_
 _atom_site_type_symbol
 _atom_site_label
 _atom_site_symmetry_multiplicity
 _atom_site_fract_x
 _atom_site_fract_y
 _atom_site_fract_z
 _atom_site_occupancy
  Na  Na0  1  0.14454700  0.85545300  0.38960600  1
  Na  Na1  1  0.06675600  0.53337800  0.71354000  1
  Na  Na2  1  0.14454700  0.28909300  0.38960600  1
  Na  Na3  1  0.46662200  0.93324400  0.71354000  1
  Na  Na4  1  0.46662200  0.53337800  0.71354000  1
  Na  Na5  1  0.28909300  0.14454700  0.88960600  1
  Na  Na6  1  0.71090700  0.85545300  0.38960600  1
  Na  Na7  1  0.53337800  0.46662200  0.21354000  1
  Na  Na8  1  0.53337800  0.06675600  0.21354000  1
  Na  Na9  1  0.85545300  0.71090700  0.88960600  1
  Na  Na10  1  0.93324400  0.46662200  0.21354000  1
  Na  Na11  1  0.85545300  0.14454700  0.88960600  1
  Be  Be0  1  0.33333300  0.66666700  0.10753400  1
  Be  Be1  1  0.66666700  0.33333300  0.60753400  1
  O  O0  1  0.20230400  0.79769600  0.00711200  1
  O  O1  1  0.33333300  0.66666700  0.40244600  1
  O  O2  1  0.20230400  0.40460800  0.00711200  1
  O  O3  1  0.59539200  0.79769600  0.00711200  1
  O  O4  1  0.40460800  0.20230400  0.50711200  1
  O  O5  1  0.66666700  0.33333300  0.90244600  1
  O  O6  1  0.79769600  0.59539200  0.50711200  1
  O  O7  1  0.79769600  0.20230400  0.50711200  1
loop_
_geom_bond_atom_site_label_1
_geom_bond_atom_site_label_2
_geom_bond_distance
_geom_bond_site_symmetry_2
Na0 O0 2.324459 1_555
Na0 O4 2.385077 1_565
Na0 O6 2.385077 1_455
Na0 O1 2.392936 1_555
Na1 O2 2.381510 1_556
Na1 O0 2.381510 1_556
Na1 O1 2.464064 1_555
Na1 O6 2.527765 1_455
Na1 O7 2.527765 1_455
Na2 O2 2.324461 1_555
Na2 O4 2.385072 1_555
Na2 O7 2.385079 1_455
Na2 O1 2.392948 1_555
Na3 O3 2.381510 1_556
Na3 O0 2.381510 1_556
Na3 O1 2.464064 1_555
Na3 O4 2.527765 1_565
Na3 O7 2.527765 1_565
Na4 O3 2.381510 1_556
Na4 O2 2.381510 1_556
Na4 O1 2.464068 1_555
Na4 O6 2.527765 1_555
Na4 O4 2.527765 1_555
Na5 O4 2.324461 1_555
Na5 O2 2.385072 1_556
Na5 O0 2.385079 1_546
Na5 O5 2.392948 1_555
Na6 O3 2.324461 1_555
Na6 O6 2.385072 1_555
Na6 O7 2.385079 1_565
Na6 O1 2.392948 1_555
Na7 O6 2.381510 1_555
Na7 O4 2.381510 1_555
Na7 O5 2.464068 1_554
Na7 O2 2.527765 1_555
Na7 O3 2.527765 1_555
Na8 O4 2.381510 1_555
Na8 O7 2.381510 1_555
Na8 O5 2.464064 1_554
Na8 O3 2.527765 1_545
Na8 O0 2.527765 1_545
Na9 O6 2.324461 1_555
Na9 O3 2.385072 1_556
Na9 O0 2.385079 1_656
Na9 O5 2.392948 1_555
Na10 O6 2.381510 1_555
Na10 O7 2.381510 1_555
Na10 O5 2.464064 1_554
Na10 O2 2.527765 1_655
Na10 O0 2.527765 1_655
Na11 O7 2.324459 1_555
Na11 O3 2.385077 1_546
Na11 O2 2.385077 1_656
Na11 O5 2.392936 1_555
Be0 O1 1.701093 1_555
Be0 O0 1.758205 1_555
Be0 O2 1.758211 1_555
Be0 O3 1.758211 1_555
Be1 O5 1.701093 1_555
Be1 O7 1.758205 1_555
Be1 O4 1.758211 1_555
Be1 O6 1.758211 1_555
