# generated using pymatgen
data_Na2FeBPO7
_symmetry_space_group_name_H-M   'P 1'
_cell_length_a   9.07969012
_cell_length_b   6.64449800
_cell_length_c   5.28717933
_cell_angle_alpha   90.00000000
_cell_angle_beta   88.65551721
_cell_angle_gamma   90.00000000
_symmetry_Int_Tables_number   1
_chemical_formula_structural   Na2FeBPO7
_chemical_formula_sum   'Na4 Fe2 B2 P2 O14'
_cell_volume   318.88762287
_cell_formula_units_Z   2
loop_
 _symmetry_equiv_pos_site_id
 _symmetry_equiv_pos_as_xyz
  1  'x, y, z'
loop_
 _atom_site_type_symbol
 _atom_site_label
 _atom_site_symmetry_multiplicity
 _atom_site_fract_x
 _atom_site_fract_y
 _atom_site_fract_z
 _atom_site_occupancy
  Na  Na0  1  0.23372400  0.49652700  0.23828900  1
  Na  Na1  1  0.23372400  0.00347300  0.23828900  1
  Na  Na2  1  0.76627600  0.50347300  0.76171100  1
  Na  Na3  1  0.76627600  0.99652700  0.76171100  1
  Fe  Fe0  1  0.34993300  0.75000000  0.77927700  1
  Fe  Fe1  1  0.65006700  0.25000000  0.22072300  1
  B  B0  1  0.08131300  0.75000000  0.72693600  1
  B  B1  1  0.91868700  0.25000000  0.27306400  1
  P  P0  1  0.42766600  0.25000000  0.72252400  1
  P  P1  1  0.57233400  0.75000000  0.27747600  1
  O  O0  1  0.06477500  0.25000000  0.29967900  1
  O  O1  1  0.14688300  0.75000000  0.95907300  1
  O  O2  1  0.18615800  0.75000000  0.53198600  1
  O  O3  1  0.33656800  0.06028100  0.78988200  1
  O  O4  1  0.33656800  0.43971900  0.78988200  1
  O  O5  1  0.42512700  0.75000000  0.13190600  1
  O  O6  1  0.46579400  0.25000000  0.43067500  1
  O  O7  1  0.53420600  0.75000000  0.56932500  1
  O  O8  1  0.57487300  0.25000000  0.86809400  1
  O  O9  1  0.66343200  0.56028100  0.21011800  1
  O  O10  1  0.66343200  0.93971900  0.21011800  1
  O  O11  1  0.81384200  0.25000000  0.46801400  1
  O  O12  1  0.85311700  0.25000000  0.04092700  1
  O  O13  1  0.93522500  0.75000000  0.70032100  1
loop_
_geom_bond_atom_site_label_1
_geom_bond_atom_site_label_2
_geom_bond_distance
_geom_bond_site_symmetry_2
Na0 O0 2.262379 1_555
Na0 O2 2.324406 1_555
Na0 O1 2.385840 1_554
Na0 O5 2.475329 1_555
Na0 O4 2.555638 1_554
Na0 O6 2.873744 1_555
Na1 O0 2.262379 1_555
Na1 O2 2.324406 1_545
Na1 O1 2.385840 1_544
Na1 O5 2.475329 1_545
Na1 O3 2.555638 1_554
Na1 O6 2.873744 1_555
Na2 O13 2.262379 1_555
Na2 O11 2.324406 1_555
Na2 O12 2.385840 1_556
Na2 O8 2.475329 1_555
Na2 O9 2.555638 1_556
Na2 O7 2.873744 1_555
Na3 O13 2.262379 1_555
Na3 O11 2.324406 1_565
Na3 O12 2.385840 1_566
Na3 O8 2.475329 1_565
Na3 O10 2.555638 1_556
Na3 O7 2.873744 1_555
Fe0 O7 1.986068 1_555
Fe0 O5 2.000475 1_556
Fe0 O2 2.002990 1_555
Fe0 O1 2.054361 1_555
Fe0 O3 2.065913 1_565
Fe0 O4 2.065913 1_555
Fe1 O6 1.986068 1_555
Fe1 O8 2.000475 1_554
Fe1 O11 2.002990 1_555
Fe1 O12 2.054361 1_555
Fe1 O10 2.065913 1_545
Fe1 O9 2.065913 1_555
B0 O13 1.337156 1_455
B0 O1 1.376636 1_555
B0 O2 1.386578 1_555
B1 O0 1.337156 1_655
B1 O12 1.376636 1_555
B1 O11 1.386578 1_555
O3 P0 1.544750 1_555
O4 P0 1.544750 1_555
O5 P1 1.557924 1_555
O6 P0 1.573470 1_555
O7 P1 1.573470 1_555
O8 P0 1.557924 1_555
O9 P1 1.544750 1_555
O10 P1 1.544750 1_555
