# generated using pymatgen
data_Li3Cr(CoO3)2
_symmetry_space_group_name_H-M   'P 1'
_cell_length_a   2.98655804
_cell_length_b   9.84194847
_cell_length_c   7.69836416
_cell_angle_alpha   92.03007161
_cell_angle_beta   101.21821570
_cell_angle_gamma   98.74896022
_symmetry_Int_Tables_number   1
_chemical_formula_structural   Li3Cr(CoO3)2
_chemical_formula_sum   'Li6 Cr2 Co4 O12'
_cell_volume   218.88224570
_cell_formula_units_Z   2
loop_
 _symmetry_equiv_pos_site_id
 _symmetry_equiv_pos_as_xyz
  1  'x, y, z'
loop_
 _atom_site_type_symbol
 _atom_site_label
 _atom_site_symmetry_multiplicity
 _atom_site_fract_x
 _atom_site_fract_y
 _atom_site_fract_z
 _atom_site_occupancy
  Li  Li0  1  0.91739500  0.25107700  0.58389000  1
  Li  Li1  1  0.41590500  0.74906900  0.08315300  1
  Li  Li2  1  0.74151600  0.75240200  0.74329500  1
  Li  Li3  1  0.24471900  0.25554700  0.24667400  1
  Li  Li4  1  0.08937700  0.75004300  0.42368700  1
  Li  Li5  1  0.58715600  0.24921400  0.91966900  1
  Cr  Cr0  1  0.16470200  0.50001700  0.83455200  1
  Cr  Cr1  1  0.66370100  0.00087700  0.33214500  1
  Co  Co0  1  0.00091700  0.00498900  0.00095300  1
  Co  Co1  1  0.49889000  0.50632400  0.49625300  1
  Co  Co2  1  0.33133200  0.99705500  0.67057300  1
  Co  Co3  1  0.83015200  0.49772700  0.16769400  1
  O  O0  1  0.61816100  0.11741300  0.12386800  1
  O  O1  1  0.12001300  0.61862100  0.62694900  1
  O  O2  1  0.71170000  0.88568300  0.54257300  1
  O  O3  1  0.21414500  0.38700500  0.04471400  1
  O  O4  1  0.28218400  0.11145700  0.45876900  1
  O  O5  1  0.78407800  0.60880300  0.96480800  1
  O  O6  1  0.04562600  0.88829800  0.20822900  1
  O  O7  1  0.54574900  0.38970100  0.70650000  1
  O  O8  1  0.95269400  0.11506000  0.79479300  1
  O  O9  1  0.44999800  0.61297000  0.29372600  1
  O  O10  1  0.37865600  0.88715400  0.87384100  1
  O  O11  1  0.87646600  0.38868700  0.36882200  1
loop_
_geom_bond_atom_site_label_1
_geom_bond_atom_site_label_2
_geom_bond_distance
_geom_bond_site_symmetry_2
Li0 O8 2.137658 1_555
Li0 O7 2.171335 1_655
Li0 O11 2.172772 1_555
Li0 O7 2.182061 1_555
Li0 O4 2.184706 1_655
Li0 O4 2.194813 1_555
Li1 O9 2.136244 1_555
Li1 O10 2.141775 1_554
Li1 O5 2.169631 1_554
Li1 O5 2.178539 1_454
Li1 O6 2.181693 1_655
Li1 O6 2.193071 1_555
Li2 O2 2.059598 1_555
Li2 O1 2.123030 1_555
Li2 O1 2.139351 1_655
Li2 O10 2.170216 1_555
Li2 O10 2.187124 1_655
Li2 O5 2.250027 1_555
Li3 O3 2.054936 1_555
Li3 O11 2.136437 1_455
Li3 O11 2.152062 1_555
Li3 O0 2.165717 1_455
Li3 O0 2.183216 1_555
Li3 O4 2.197913 1_555
Li4 O1 2.062431 1_555
Li4 O2 2.137978 1_555
Li4 O2 2.159915 1_455
Li4 O9 2.178660 1_555
Li4 O6 2.179320 1_555
Li4 O9 2.201057 1_455
Li5 O0 2.070459 1_556
Li5 O8 2.148533 1_555
Li5 O8 2.167524 1_455
Li5 O3 2.169285 1_656
Li5 O7 2.180349 1_555
Li5 O3 2.188875 1_556
Cr0 O3 1.990235 1_556
Cr0 O1 2.007789 1_555
Cr0 O7 2.042612 1_455
Cr0 O5 2.042873 1_555
Cr0 O5 2.044938 1_455
Cr0 O7 2.045047 1_555
Cr1 O0 1.999433 1_555
Cr1 O2 2.004831 1_545
Cr1 O4 2.039432 1_655
Cr1 O6 2.040307 1_545
Cr1 O4 2.041373 1_555
Cr1 O6 2.042475 1_645
Co0 O8 1.947695 1_454
Co0 O6 1.994142 1_545
Co0 O0 2.035810 1_555
Co0 O0 2.039082 1_455
Co0 O10 2.076682 1_444
Co0 O10 2.079032 1_544
Co1 O9 1.904691 1_555
Co1 O7 2.012239 1_555
Co1 O1 2.060644 1_655
Co1 O1 2.063701 1_555
Co1 O11 2.076925 1_455
Co1 O11 2.078836 1_555
Co2 O10 1.928467 1_555
Co2 O4 2.008776 1_565
Co2 O2 2.047913 1_455
Co2 O2 2.049577 1_555
Co2 O8 2.069362 1_565
Co2 O8 2.069713 1_465
Co3 O11 1.909915 1_555
Co3 O5 1.933039 1_554
Co3 O3 2.026765 1_555
Co3 O3 2.031882 1_655
Co3 O9 2.058935 1_655
Co3 O9 2.063788 1_555
