# generated using pymatgen
data_Ce2S2O
_symmetry_space_group_name_H-M   'P 1'
_cell_length_a   7.21499000
_cell_length_b   7.00455300
_cell_length_c   8.49993360
_cell_angle_alpha   82.45312564
_cell_angle_beta   90.00000000
_cell_angle_gamma   90.00000000
_symmetry_Int_Tables_number   1
_chemical_formula_structural   Ce2S2O
_chemical_formula_sum   'Ce8 S8 O4'
_cell_volume   425.84674703
_cell_formula_units_Z   4
loop_
 _symmetry_equiv_pos_site_id
 _symmetry_equiv_pos_as_xyz
  1  'x, y, z'
loop_
 _atom_site_type_symbol
 _atom_site_label
 _atom_site_symmetry_multiplicity
 _atom_site_fract_x
 _atom_site_fract_y
 _atom_site_fract_z
 _atom_site_occupancy
  Ce  Ce0  1  0.55644300  0.24747800  0.13927300  1
  Ce  Ce1  1  0.94355700  0.74747800  0.13927300  1
  Ce  Ce2  1  0.12680600  0.30532000  0.41483600  1
  Ce  Ce3  1  0.37319400  0.80532000  0.41483600  1
  Ce  Ce4  1  0.62680600  0.19468000  0.58516400  1
  Ce  Ce5  1  0.87319400  0.69468000  0.58516400  1
  Ce  Ce6  1  0.05644300  0.25252200  0.86072700  1
  Ce  Ce7  1  0.44355700  0.75252200  0.86072700  1
  S  S0  1  0.23029800  0.47361500  0.08090400  1
  S  S1  1  0.26970200  0.97361500  0.08090400  1
  S  S2  1  0.84233700  0.04873900  0.33146400  1
  S  S3  1  0.65766300  0.54873900  0.33146400  1
  S  S4  1  0.34233700  0.45126100  0.66853600  1
  S  S5  1  0.15766300  0.95126100  0.66853600  1
  S  S6  1  0.73029800  0.02638500  0.91909600  1
  S  S7  1  0.76970200  0.52638500  0.91909600  1
  O  O0  1  0.41110700  0.14938800  0.38460600  1
  O  O1  1  0.08889300  0.64938800  0.38460600  1
  O  O2  1  0.91110700  0.35061200  0.61539400  1
  O  O3  1  0.58889300  0.85061200  0.61539400  1
loop_
_geom_bond_atom_site_label_1
_geom_bond_atom_site_label_2
_geom_bond_distance
_geom_bond_site_symmetry_2
Ce0 O0 2.354531 1_555
Ce0 S0 2.843585 1_555
Ce0 S6 2.869764 1_554
Ce0 S2 2.874724 1_555
Ce0 S1 2.907927 1_545
Ce0 S3 2.925827 1_555
Ce0 S7 2.954013 1_554
Ce1 O1 2.354531 1_655
Ce1 S1 2.843585 1_655
Ce1 S7 2.869764 1_554
Ce1 S3 2.874724 1_555
Ce1 S0 2.907927 1_655
Ce1 S2 2.925827 1_565
Ce1 S6 2.954013 1_564
Ce2 O0 2.353776 1_555
Ce2 O2 2.360249 1_455
Ce2 O1 2.405512 1_555
Ce2 S2 2.877379 1_455
Ce2 S4 2.948294 1_555
Ce2 S0 3.020729 1_555
Ce2 S5 3.073355 1_545
Ce3 O1 2.353776 1_555
Ce3 O3 2.360249 1_555
Ce3 O0 2.405512 1_565
Ce3 S3 2.877379 1_555
Ce3 S5 2.948294 1_555
Ce3 S1 3.020729 1_555
Ce3 S4 3.073355 1_555
Ce4 O2 2.353776 1_555
Ce4 O0 2.360249 1_555
Ce4 O3 2.405512 1_545
Ce4 S4 2.877379 1_555
Ce4 S2 2.948294 1_555
Ce4 S6 3.020729 1_555
Ce4 S3 3.073355 1_555
Ce5 O3 2.353776 1_555
Ce5 O1 2.360249 1_655
Ce5 O2 2.405512 1_555
Ce5 S5 2.877379 1_655
Ce5 S3 2.948294 1_555
Ce5 S7 3.020729 1_555
Ce5 S2 3.073355 1_565
Ce6 O2 2.354531 1_455
Ce6 S6 2.843585 1_455
Ce6 S0 2.869764 1_556
Ce6 S4 2.874724 1_555
Ce6 S7 2.907927 1_455
Ce6 S5 2.925827 1_545
Ce6 S1 2.954013 1_546
Ce7 O3 2.354531 1_555
Ce7 S7 2.843585 1_555
Ce7 S1 2.869764 1_556
Ce7 S5 2.874724 1_555
Ce7 S6 2.907927 1_565
Ce7 S4 2.925827 1_555
Ce7 S0 2.954013 1_556
