# generated using pymatgen
data_Li6V3P8O29
_symmetry_space_group_name_H-M   'P 1'
_cell_length_a   9.75485729
_cell_length_b   9.81012675
_cell_length_c   13.97359197
_cell_angle_alpha   90.16284684
_cell_angle_beta   90.45481328
_cell_angle_gamma   60.18363522
_symmetry_Int_Tables_number   1
_chemical_formula_structural   Li6V3P8O29
_chemical_formula_sum   'Li12 V6 P16 O58'
_cell_volume   1160.16792587
_cell_formula_units_Z   2
loop_
 _symmetry_equiv_pos_site_id
 _symmetry_equiv_pos_as_xyz
  1  'x, y, z'
loop_
 _atom_site_type_symbol
 _atom_site_label
 _atom_site_symmetry_multiplicity
 _atom_site_fract_x
 _atom_site_fract_y
 _atom_site_fract_z
 _atom_site_occupancy
  Li  Li0  1  0.76116546  0.90500671  0.55609803  1
  Li  Li1  1  0.90110050  0.33733380  0.55889224  1
  Li  Li2  1  0.67704749  0.66212157  0.88941391  1
  Li  Li3  1  0.76434569  0.32905942  0.06687775  1
  Li  Li4  1  0.32816715  0.90719340  0.06362367  1
  Li  Li5  1  0.32930456  0.76403781  0.55778118  1
  Li  Li6  1  0.66687401  0.09919322  0.94327642  1
  Li  Li7  1  0.23333045  0.66698295  0.94552714  1
  Li  Li8  1  0.09753507  0.66327211  0.43402030  1
  Li  Li9  1  0.23363457  0.10309548  0.43858867  1
  Li  Li10  1  0.99656568  0.00222574  0.01134017  1
  Li  Li11  1  0.94281393  0.04245270  0.48584653  1
  V  V0  1  0.56523950  0.43267410  0.25416023  1
  V  V1  1  0.43805756  0.56125764  0.74697206  1
  V  V2  1  0.56654470  0.00007144  0.74820394  1
  V  V3  1  0.43535217  0.00120555  0.25151758  1
  V  V4  1  0.99765571  0.56247084  0.24240303  1
  V  V5  1  0.00529597  0.43409601  0.75413147  1
  P  P0  1  0.91422707  0.78045724  0.83957906  1
  P  P1  1  0.77997605  0.91130056  0.34019599  1
  P  P2  1  0.91539168  0.31295364  0.34363591  1
  P  P3  1  0.66240421  0.66521397  0.12983961  1
  P  P4  1  0.66888720  0.66569799  0.63006137  1
  P  P5  1  0.77599102  0.31466582  0.84527555  1
  P  P6  1  0.69502382  0.22226562  0.65855333  1
  P  P7  1  0.31694502  0.90531918  0.84557646  1
  P  P8  1  0.68835461  0.08860766  0.15690444  1
  P  P9  1  0.31345319  0.77443944  0.34293262  1
  P  P10  1  0.22522360  0.68768153  0.15859816  1
  P  P11  1  0.32937039  0.33526445  0.36752751  1
  P  P12  1  0.33880972  0.33429526  0.87093654  1
  P  P13  1  0.08230610  0.68776759  0.65239077  1
  P  P14  1  0.22400281  0.08405751  0.66057734  1
  P  P15  1  0.08446698  0.21790600  0.15923005  1
  O  O0  1  0.99692747  0.77175766  0.56174038  1
  O  O1  1  0.91960719  0.74317211  0.33644607  1
  O  O2  1  0.77769164  0.01428298  0.06648865  1
  O  O3  1  0.74171550  0.92261922  0.84091036  1
  O  O4  1  0.89996991  0.62930036  0.83294257  1
  O  O5  1  0.80937398  0.66948513  0.17326539  1
  O  O6  1  0.92131024  0.46433005  0.33321714  1
  O  O7  1  0.99273667  0.19896490  0.07838850  1
  O  O8  1  0.91932205  0.33775757  0.84153681  1
  O  O9  1  0.67841656  0.81206965  0.66887802  1
  O  O10  1  0.62012529  0.91405872  0.32819023  1
  O  O11  1  0.81328226  0.51406507  0.67421796  1
  O  O12  1  0.66091355  0.66618431  0.02174941  1
  O  O13  1  0.66807916  0.66328661  0.52353133  1
  O  O14  1  0.67533169  0.50982901  0.16711406  1
  O  O15  1  0.48103645  0.89166726  0.82970260  1
  O  O16  1  0.51063452  0.81017915  0.16898923  1
  O  O17  1  0.74475123  0.34438789  0.33793412  1
  O  O18  1  0.78876521  0.20051392  0.75869387  1
  O  O19  1  0.80309327  0.20783818  0.57864224  1
  O  O20  1  0.76686981  0.23598086  0.93582649  1
  O  O21  1  0.62656099  0.47935202  0.82920456  1
  O  O22  1  0.51310864  0.67599165  0.67144474  1
  O  O23  1  0.66105075  0.25803390  0.16316024  1
  O  O24  1  0.47002548  0.62268960  0.33170275  1
  O  O25  1  0.33690739  0.91976993  0.34375476  1
  O  O26  1  0.79872169  0.99985307  0.24885504  1
  O  O27  1  0.78658503  0.99116463  0.43103321  1
  O  O28  1  0.23068710  0.99623736  0.57023256  1
  O  O29  1  0.66278172  0.08236308  0.65715101  1
  O  O30  1  0.54045515  0.38083956  0.66388065  1
  O  O31  1  0.33829911  0.73835854  0.84032179  1
  O  O32  1  0.48031606  0.32486483  0.32412212  1
  O  O33  1  0.38502572  0.53629368  0.17134404  1
  O  O34  1  0.22091024  0.77997535  0.06994508  1
  O  O35  1  0.22180348  0.77695060  0.43101396  1
  O  O36  1  0.20359474  0.79833930  0.25036034  1
  O  O37  1  0.24962938  0.66680326  0.65640816  1
  O  O38  1  0.48848294  0.18636930  0.83241462  1
  O  O39  1  0.53382394  0.08554542  0.16839968  1
  O  O40  1  0.33511231  0.48388117  0.82412619  1
  O  O41  1  0.33600046  0.34782652  0.97657871  1
  O  O42  1  0.32122899  0.33721220  0.47455565  1
  O  O43  1  0.18417730  0.48741298  0.32365897  1
  O  O44  1  0.38185067  0.08540127  0.67655695  1
  O  O45  1  0.31862754  0.18874882  0.32837876  1
  O  O46  1  0.08894766  0.65469352  0.15769750  1
  O  O47  1  0.98552559  0.80184026  0.74069477  1
  O  O48  1  0.00939056  0.78944581  0.92082785  1
  O  O49  1  0.08482079  0.53191182  0.66813721  1
  O  O50  1  0.18979755  0.33589104  0.82439732  1
  O  O51  1  0.08376323  0.37399221  0.16434641  1
  O  O52  1  0.25724980  0.07844106  0.16067570  1
  O  O53  1  0.23453292  0.98525952  0.93564463  1
  O  O54  1  0.20620461  0.99779500  0.75328802  1
  O  O55  1  0.08347948  0.25178257  0.65957656  1
  O  O56  1  0.99519317  0.22200266  0.43514646  1
  O  O57  1  0.01071355  0.19531296  0.25780960  1
loop_
_geom_bond_atom_site_label_1
_geom_bond_atom_site_label_2
_geom_bond_distance
_geom_bond_site_symmetry_2
Li0 O0 2.003063 1_555
Li0 O27 2.013381 1_555
Li0 O29 2.071050 1_565
Li0 O9 2.174082 1_555
Li1 O19 1.953968 1_555
Li1 O56 2.023356 1_555
Li1 O55 2.081123 1_655
Li1 O11 2.205857 1_555
Li2 O12 1.855767 1_556
Li2 O4 2.187387 1_555
Li2 O21 2.242363 1_555
Li2 O15 2.264212 1_555
Li3 O7 1.945818 1_555
Li3 O23 2.008972 1_555
Li3 O20 2.038807 1_554
Li3 O14 2.081964 1_555
Li4 O53 1.976141 1_554
Li4 O34 1.990146 1_555
Li4 O52 1.996559 1_565
Li4 O16 2.126853 1_555
Li5 O28 1.991434 1_555
Li5 O35 2.023178 1_555
Li5 O37 2.043297 1_555
Li5 O22 2.214952 1_555
Li6 O2 1.977346 1_556
Li6 O20 2.016711 1_555
Li6 O3 2.079557 1_545
Li6 O38 2.155045 1_555
Li7 O48 1.927442 1_555
Li7 O34 2.030968 1_556
Li7 O31 2.107770 1_555
Li7 O40 2.307811 1_555
Li8 O35 2.015030 1_555
Li8 O1 2.025226 1_455
Li8 O0 2.063816 1_455
Li8 O43 2.150446 1_555
Li9 O56 2.018296 1_455
Li9 O25 2.052146 1_545
Li9 O45 2.117913 1_555
Li9 O28 2.127303 1_545
Li10 O7 2.126691 1_555
Li10 O2 2.222813 1_555
Li10 O34 2.334608 1_645
Li10 O48 2.387544 1_644
Li10 O53 2.487746 1_644
Li10 O20 2.501830 1_554
Li11 O27 1.975896 1_545
Li11 O19 1.997112 1_555
Li11 O56 2.184807 1_555
O0 P13 1.511248 1_655
O1 P1 1.531328 1_555
O1 V4 2.027198 1_555
O2 P8 1.505894 1_555
O3 P0 1.563237 1_555
O3 V2 1.963336 1_565
O4 P0 1.559147 1_555
O4 V5 1.996238 1_655
O5 P3 1.571995 1_555
O5 V4 1.862510 1_555
O6 P2 1.521986 1_555
O6 V4 1.956249 1_555
O7 P15 1.503140 1_655
O8 P5 1.524840 1_555
O8 V5 1.974671 1_655
O9 P4 1.578682 1_555
O9 V2 1.956327 1_565
O10 P1 1.553794 1_555
O10 V3 1.889369 1_565
O11 P4 1.576483 1_555
O11 V5 1.970103 1_655
O12 P3 1.510374 1_555
O13 P4 1.488749 1_555
O14 P3 1.556643 1_555
O14 V0 2.009987 1_555
O15 P7 1.556157 1_555
O15 V2 2.006919 1_565
O16 P3 1.558289 1_555
O16 V3 2.003413 1_565
O17 P2 1.536171 1_555
O17 V0 1.910991 1_555
O18 P5 1.609117 1_555
O18 P6 1.620854 1_555
O19 P6 1.499227 1_555
O20 P5 1.510112 1_555
O21 P5 1.562153 1_555
O21 V1 1.962064 1_555
O22 P4 1.585810 1_555
O22 V1 1.937829 1_555
O23 P8 1.549338 1_555
O23 V0 1.959547 1_555
O24 P9 1.521499 1_555
O24 V0 1.947893 1_555
O25 P9 1.552215 1_555
O25 V3 2.002521 1_565
O26 P1 1.607848 1_555
O26 P8 1.618743 1_565
O27 P1 1.507464 1_555
O28 P14 1.509801 1_565
O29 P6 1.553052 1_555
O29 V2 1.982504 1_555
O30 P6 1.538687 1_555
O30 V1 1.930576 1_555
O31 P7 1.546540 1_555
O31 V1 1.998245 1_555
O32 P11 1.552689 1_555
O32 V0 1.910653 1_555
O33 P10 1.536949 1_555
O33 V0 1.913180 1_555
O34 P10 1.524414 1_555
O35 P9 1.519931 1_555
O36 P9 1.614491 1_555
O36 P10 1.623497 1_555
O37 P13 1.540897 1_555
O37 V1 2.032256 1_555
O38 P12 1.558337 1_555
O38 V2 1.980587 1_555
O39 P8 1.532298 1_555
O39 V3 1.941592 1_555
O40 P12 1.592180 1_555
O40 V1 1.877995 1_555
O41 P12 1.481030 1_555
O42 P11 1.497868 1_555
O43 P11 1.580750 1_555
O43 V4 1.944634 1_455
O44 P14 1.560665 1_555
O44 V2 1.850783 1_555
O45 P11 1.587637 1_555
O45 V3 1.939048 1_555
O46 P10 1.516438 1_555
O46 V4 1.958726 1_455
O47 P0 1.612144 1_555
O47 P13 1.620553 1_655
O48 P0 1.490845 1_455
O49 P13 1.533388 1_555
O49 V5 1.930849 1_555
O50 P12 1.580669 1_555
O50 V5 1.839694 1_555
O51 P15 1.529295 1_555
O51 V4 1.942331 1_455
O52 P15 1.555483 1_555
O52 V3 1.966025 1_555
O53 P7 1.492920 1_555
O54 P14 1.606397 1_565
O54 P7 1.631872 1_555
O55 P14 1.530838 1_555
O55 V5 2.042625 1_555
O56 P2 1.528793 1_555
O57 P2 1.605463 1_455
O57 P15 1.624905 1_555
