# generated using pymatgen
data_Li4Cr3GaO8
_symmetry_space_group_name_H-M   'P 1'
_cell_length_a   5.14017700
_cell_length_b   5.92843973
_cell_length_c   10.68745812
_cell_angle_alpha   73.90019483
_cell_angle_beta   76.11778891
_cell_angle_gamma   73.24077705
_symmetry_Int_Tables_number   1
_chemical_formula_structural   Li4Cr3GaO8
_chemical_formula_sum   'Li8 Cr6 Ga2 O16'
_cell_volume   295.05331108
_cell_formula_units_Z   2
loop_
 _symmetry_equiv_pos_site_id
 _symmetry_equiv_pos_as_xyz
  1  'x, y, z'
loop_
 _atom_site_type_symbol
 _atom_site_label
 _atom_site_symmetry_multiplicity
 _atom_site_fract_x
 _atom_site_fract_y
 _atom_site_fract_z
 _atom_site_occupancy
  Li  Li0  1  0.50042700  0.31231800  0.62492900  1
  Li  Li1  1  0.49969400  0.93773700  0.87495300  1
  Li  Li2  1  0.49957300  0.68768200  0.37507100  1
  Li  Li3  1  0.50030600  0.06226300  0.12504700  1
  Li  Li4  1  0.50004200  0.81264800  0.62489800  1
  Li  Li5  1  0.50002800  0.43726600  0.87518200  1
  Li  Li6  1  0.49995800  0.18735200  0.37510200  1
  Li  Li7  1  0.49997200  0.56273400  0.12481800  1
  Cr  Cr0  1  0.00001600  0.12500000  0.74997400  1
  Cr  Cr1  1  0.00000000  0.50000000  0.50000000  1
  Cr  Cr2  1  0.99998400  0.87500000  0.25002600  1
  Cr  Cr3  1  0.99992500  0.25022500  0.00002600  1
  Cr  Cr4  1  0.00000000  0.00000000  0.50000000  1
  Cr  Cr5  1  0.00007500  0.74977500  0.99997400  1
  Ga  Ga0  1  0.00004400  0.62499400  0.75001300  1
  Ga  Ga1  1  0.99995600  0.37500600  0.24998700  1
  O  O0  1  0.77437800  0.71357300  0.18547900  1
  O  O1  1  0.22563300  0.53600900  0.31441000  1
  O  O2  1  0.77436700  0.46399100  0.68559000  1
  O  O3  1  0.22562200  0.28642700  0.81452100  1
  O  O4  1  0.22411700  0.91167100  0.06475500  1
  O  O5  1  0.77588300  0.08832900  0.93524500  1
  O  O6  1  0.77569000  0.83842100  0.43543800  1
  O  O7  1  0.22574600  0.66124600  0.56473900  1
  O  O8  1  0.77433500  0.21376000  0.18556200  1
  O  O9  1  0.22566400  0.03668100  0.31445500  1
  O  O10  1  0.77433600  0.96331900  0.68554500  1
  O  O11  1  0.22566500  0.78624000  0.81443800  1
  O  O12  1  0.77415600  0.58879100  0.93544900  1
  O  O13  1  0.77425400  0.33875400  0.43526100  1
  O  O14  1  0.22584400  0.41120900  0.06455100  1
  O  O15  1  0.22431000  0.16157900  0.56456200  1
loop_
_geom_bond_atom_site_label_1
_geom_bond_atom_site_label_2
_geom_bond_distance
_geom_bond_site_symmetry_2
Li0 O13 2.167166 1_555
Li0 O10 2.167288 1_545
Li0 O7 2.167911 1_555
Li0 O2 2.168673 1_555
Li0 O3 2.168796 1_555
Li0 O15 2.172522 1_555
Li1 O3 2.166035 1_565
Li1 O10 2.166931 1_555
Li1 O11 2.167455 1_555
Li1 O12 2.168099 1_555
Li1 O5 2.171785 1_565
Li1 O4 2.172275 1_556
Li2 O7 2.167166 1_555
Li2 O9 2.167288 1_565
Li2 O13 2.167911 1_555
Li2 O1 2.168673 1_555
Li2 O0 2.168796 1_555
Li2 O6 2.172522 1_555
Li3 O0 2.166035 1_545
Li3 O9 2.166931 1_555
Li3 O8 2.167455 1_555
Li3 O14 2.168099 1_555
Li3 O4 2.171785 1_545
Li3 O5 2.172275 1_554
Li4 O10 2.166056 1_555
Li4 O7 2.166060 1_555
Li4 O2 2.167012 1_555
Li4 O11 2.167391 1_555
Li4 O6 2.169671 1_555
Li4 O15 2.170640 1_565
Li5 O14 2.165560 1_556
Li5 O12 2.166489 1_555
Li5 O3 2.167306 1_555
Li5 O2 2.167727 1_555
Li5 O11 2.168489 1_555
Li5 O5 2.170398 1_555
Li6 O9 2.166056 1_555
Li6 O13 2.166060 1_555
Li6 O1 2.167012 1_555
Li6 O8 2.167391 1_555
Li6 O15 2.169671 1_555
Li6 O6 2.170640 1_545
Li7 O12 2.165560 1_554
Li7 O14 2.166489 1_555
Li7 O0 2.167306 1_555
Li7 O1 2.167727 1_555
Li7 O8 2.168489 1_555
Li7 O4 2.170398 1_555
Cr0 O5 2.026402 1_455
Cr0 O15 2.027927 1_555
Cr0 O11 2.031256 1_545
Cr0 O3 2.031404 1_555
Cr0 O10 2.032038 1_445
Cr0 O2 2.032084 1_455
Cr1 O6 2.027479 1_455
Cr1 O15 2.027479 1_555
Cr1 O1 2.031989 1_555
Cr1 O2 2.031989 1_455
Cr1 O7 2.032435 1_555
Cr1 O13 2.032435 1_455
Cr2 O4 2.026402 1_655
Cr2 O6 2.027927 1_555
Cr2 O8 2.031256 1_565
Cr2 O0 2.031404 1_555
Cr2 O9 2.032038 1_665
Cr2 O1 2.032084 1_655
Cr3 O4 2.028196 1_645
Cr3 O5 2.028629 1_554
Cr3 O14 2.030614 1_655
Cr3 O12 2.030888 1_554
Cr3 O3 2.031373 1_654
Cr3 O8 2.031439 1_555
Cr4 O6 2.026914 1_445
Cr4 O15 2.026914 1_555
Cr4 O9 2.031658 1_555
Cr4 O10 2.031658 1_445
Cr4 O7 2.032009 1_545
Cr4 O13 2.032009 1_455
Cr5 O5 2.028196 1_465
Cr5 O4 2.028629 1_556
Cr5 O12 2.030614 1_455
Cr5 O14 2.030888 1_556
Cr5 O0 2.031373 1_456
Cr5 O11 2.031439 1_555
Ga0 O2 2.029053 1_455
Ga0 O7 2.029384 1_555
Ga0 O10 2.029494 1_455
Ga0 O11 2.029890 1_555
Ga0 O3 2.030382 1_555
Ga0 O12 2.031137 1_455
Ga1 O1 2.029053 1_655
Ga1 O13 2.029384 1_555
Ga1 O9 2.029494 1_655
Ga1 O8 2.029890 1_555
Ga1 O0 2.030382 1_555
Ga1 O14 2.031137 1_655
