# generated using pymatgen
data_LiNiPO4
_symmetry_space_group_name_H-M   'P 1'
_cell_length_a   6.14461000
_cell_length_b   7.41324400
_cell_length_c   13.44958200
_cell_angle_alpha   90.00000000
_cell_angle_beta   90.00000000
_cell_angle_gamma   90.00000000
_symmetry_Int_Tables_number   1
_chemical_formula_structural   LiNiPO4
_chemical_formula_sum   'Li8 Ni8 P8 O32'
_cell_volume   612.64854322
_cell_formula_units_Z   8
loop_
 _symmetry_equiv_pos_site_id
 _symmetry_equiv_pos_as_xyz
  1  'x, y, z'
loop_
 _atom_site_type_symbol
 _atom_site_label
 _atom_site_symmetry_multiplicity
 _atom_site_fract_x
 _atom_site_fract_y
 _atom_site_fract_z
 _atom_site_occupancy
  Li  Li0  1  0.44126000  0.17346000  0.02122700  1
  Li  Li1  1  0.94126000  0.17346000  0.47877300  1
  Li  Li2  1  0.44126000  0.32654000  0.52122700  1
  Li  Li3  1  0.94126000  0.32654000  0.97877300  1
  Li  Li4  1  0.05874000  0.67346000  0.02122700  1
  Li  Li5  1  0.55874000  0.67346000  0.47877300  1
  Li  Li6  1  0.05874000  0.82654000  0.52122700  1
  Li  Li7  1  0.55874000  0.82654000  0.97877300  1
  Ni  Ni0  1  0.21213300  0.18650000  0.71467100  1
  Ni  Ni1  1  0.71213300  0.18650000  0.78532900  1
  Ni  Ni2  1  0.71213300  0.31350000  0.28532900  1
  Ni  Ni3  1  0.21213300  0.31350000  0.21467100  1
  Ni  Ni4  1  0.28786700  0.68650000  0.71467100  1
  Ni  Ni5  1  0.78786700  0.68650000  0.78532900  1
  Ni  Ni6  1  0.28786700  0.81350000  0.21467100  1
  Ni  Ni7  1  0.78786700  0.81350000  0.28532900  1
  P  P0  1  0.89004100  0.03963100  0.12782900  1
  P  P1  1  0.39004100  0.03963100  0.37217100  1
  P  P2  1  0.89004100  0.46036900  0.62782900  1
  P  P3  1  0.39004100  0.46036900  0.87217100  1
  P  P4  1  0.60995900  0.53963100  0.12782900  1
  P  P5  1  0.10995900  0.53963100  0.37217100  1
  P  P6  1  0.60995900  0.96036900  0.62782900  1
  P  P7  1  0.10995900  0.96036900  0.87217100  1
  O  O0  1  0.78880000  0.97063300  0.55053200  1
  O  O1  1  0.28880000  0.97063300  0.94946800  1
  O  O2  1  0.29722900  0.06878000  0.26360600  1
  O  O3  1  0.79722900  0.06878000  0.23639400  1
  O  O4  1  0.49261800  0.14742300  0.64018000  1
  O  O5  1  0.99261800  0.14742300  0.85982000  1
  O  O6  1  0.04704000  0.19790300  0.10549600  1
  O  O7  1  0.54704000  0.19790300  0.39450400  1
  O  O8  1  0.04704000  0.30209700  0.60549600  1
  O  O9  1  0.54704000  0.30209700  0.89450400  1
  O  O10  1  0.49261800  0.35257700  0.14018000  1
  O  O11  1  0.99261800  0.35257700  0.35982000  1
  O  O12  1  0.79722900  0.43122000  0.73639400  1
  O  O13  1  0.29722900  0.43122000  0.76360600  1
  O  O14  1  0.78880000  0.52936700  0.05053200  1
  O  O15  1  0.28880000  0.52936700  0.44946800  1
  O  O16  1  0.21120000  0.47063300  0.94946800  1
  O  O17  1  0.71120000  0.47063300  0.55053200  1
  O  O18  1  0.70277100  0.56878000  0.23639400  1
  O  O19  1  0.20277100  0.56878000  0.26360600  1
  O  O20  1  0.00738200  0.64742300  0.64018000  1
  O  O21  1  0.50738200  0.64742300  0.85982000  1
  O  O22  1  0.45296000  0.69790300  0.10549600  1
  O  O23  1  0.95296000  0.69790300  0.39450400  1
  O  O24  1  0.45296000  0.80209700  0.60549600  1
  O  O25  1  0.95296000  0.80209700  0.89450400  1
  O  O26  1  0.00738200  0.85257700  0.14018000  1
  O  O27  1  0.50738200  0.85257700  0.35982000  1
  O  O28  1  0.70277100  0.93122000  0.73639400  1
  O  O29  1  0.20277100  0.93122000  0.76360600  1
  O  O30  1  0.71120000  0.02936700  0.05053200  1
  O  O31  1  0.21120000  0.02936700  0.44946800  1
loop_
_geom_bond_atom_site_label_1
_geom_bond_atom_site_label_2
_geom_bond_distance
_geom_bond_site_symmetry_2
Li0 O30 2.011864 1_555
Li0 O1 2.017402 1_544
Li0 O9 2.058334 1_554
Li0 O10 2.102931 1_555
Li1 O31 2.011864 1_655
Li1 O0 2.017402 1_545
Li1 O8 2.058334 1_655
Li1 O11 2.102931 1_555
Li2 O17 2.011864 1_555
Li2 O15 2.017402 1_555
Li2 O7 2.058334 1_555
Li2 O4 2.102931 1_555
Li3 O16 2.011864 1_655
Li3 O14 2.017402 1_556
Li3 O6 2.058334 1_656
Li3 O5 2.102931 1_555
Li4 O14 2.011864 1_455
Li4 O16 2.017402 1_554
Li4 O25 2.058334 1_454
Li4 O26 2.102931 1_555
Li5 O15 2.011864 1_555
Li5 O17 2.017402 1_555
Li5 O24 2.058334 1_555
Li5 O27 2.102931 1_555
Li6 O0 2.011864 1_455
Li6 O31 2.017402 1_565
Li6 O23 2.058334 1_455
Li6 O20 2.102931 1_555
Li7 O1 2.011864 1_555
Li7 O30 2.017402 1_566
Li7 O22 2.058334 1_556
Li7 O21 2.102931 1_555
Ni0 O8 1.979775 1_555
Ni0 O13 1.999446 1_555
Ni0 O29 2.004459 1_545
Ni0 O4 2.014453 1_555
Ni0 O5 2.390467 1_455
Ni1 O9 1.979775 1_555
Ni1 O12 1.999446 1_555
Ni1 O28 2.004459 1_545
Ni1 O5 2.014453 1_555
Ni1 O4 2.390467 1_555
Ni2 O7 1.979775 1_555
Ni2 O3 1.999446 1_555
Ni2 O18 2.004459 1_555
Ni2 O11 2.014453 1_555
Ni2 O10 2.390467 1_555
Ni3 O6 1.979775 1_555
Ni3 O2 1.999446 1_555
Ni3 O19 2.004459 1_555
Ni3 O10 2.014453 1_555
Ni3 O11 2.390467 1_455
Ni4 O24 1.979775 1_555
Ni4 O29 1.999446 1_555
Ni4 O13 2.004459 1_555
Ni4 O20 2.014453 1_555
Ni4 O21 2.390467 1_555
Ni5 O25 1.979775 1_555
Ni5 O28 1.999446 1_555
Ni5 O12 2.004459 1_555
Ni5 O21 2.014453 1_555
Ni5 O20 2.390467 1_655
Ni6 O22 1.979775 1_555
Ni6 O19 1.999446 1_555
Ni6 O2 2.004459 1_565
Ni6 O26 2.014453 1_555
Ni6 O27 2.390467 1_555
Ni7 O23 1.979775 1_555
Ni7 O18 1.999446 1_555
Ni7 O3 2.004459 1_565
Ni7 O27 2.014453 1_555
Ni7 O26 2.390467 1_655
O0 P6 1.514656 1_555
O1 P7 1.514656 1_555
O2 P1 1.582396 1_555
O3 P0 1.582396 1_555
O4 P6 1.571728 1_545
O5 P7 1.571728 1_645
O6 P0 1.548392 1_455
O7 P1 1.548392 1_555
O8 P2 1.548392 1_455
O9 P3 1.548392 1_555
O10 P4 1.571728 1_555
O11 P5 1.571728 1_655
O12 P2 1.582396 1_555
O13 P3 1.582396 1_555
O14 P4 1.514656 1_555
O15 P5 1.514656 1_555
O16 P3 1.514656 1_555
O17 P2 1.514656 1_555
O18 P4 1.582396 1_555
O19 P5 1.582396 1_555
O20 P2 1.571728 1_455
O21 P3 1.571728 1_555
O22 P4 1.548392 1_555
O23 P5 1.548392 1_655
O24 P6 1.548392 1_555
O25 P7 1.548392 1_655
O26 P0 1.571728 1_465
O27 P1 1.571728 1_565
O28 P6 1.582396 1_555
O29 P7 1.582396 1_555
O30 P0 1.514656 1_555
O31 P1 1.514656 1_555
