# generated using pymatgen
data_CsAsO3
_symmetry_space_group_name_H-M   'P 1'
_cell_length_a   5.33191898
_cell_length_b   6.05643105
_cell_length_c   11.77973995
_cell_angle_alpha   90.00000000
_cell_angle_beta   90.00000000
_cell_angle_gamma   90.00000000
_symmetry_Int_Tables_number   1
_chemical_formula_structural   CsAsO3
_chemical_formula_sum   'Cs4 As4 O12'
_cell_volume   380.39607043
_cell_formula_units_Z   4
loop_
 _symmetry_equiv_pos_site_id
 _symmetry_equiv_pos_as_xyz
  1  'x, y, z'
loop_
 _atom_site_type_symbol
 _atom_site_label
 _atom_site_symmetry_multiplicity
 _atom_site_fract_x
 _atom_site_fract_y
 _atom_site_fract_z
 _atom_site_occupancy
  Cs  Cs0  1  0.75000000  0.04434466  0.60883801  1
  Cs  Cs1  1  0.25000000  0.04434466  0.89116199  1
  Cs  Cs2  1  0.25000000  0.95565534  0.39116199  1
  Cs  Cs3  1  0.75000000  0.95565534  0.10883801  1
  As  As0  1  0.25000000  0.47691080  0.16231205  1
  As  As1  1  0.75000000  0.47691080  0.33768795  1
  As  As2  1  0.25000000  0.52308920  0.66231205  1
  As  As3  1  0.75000000  0.52308920  0.83768795  1
  O  O0  1  0.25000000  0.20502829  0.15265324  1
  O  O1  1  0.75000000  0.20502829  0.34734676  1
  O  O2  1  0.25000000  0.35170779  0.55382647  1
  O  O3  1  0.75000000  0.35170779  0.94617353  1
  O  O4  1  0.50000000  0.42669847  0.75000000  1
  O  O5  1  0.00000000  0.42669847  0.75000000  1
  O  O6  1  0.50000000  0.57330153  0.25000000  1
  O  O7  1  -0.00000000  0.57330153  0.25000000  1
  O  O8  1  0.25000000  0.64829221  0.05382647  1
  O  O9  1  0.75000000  0.64829221  0.44617353  1
  O  O10  1  0.25000000  0.79497171  0.65265324  1
  O  O11  1  0.75000000  0.79497171  0.84734676  1
loop_
_geom_bond_atom_site_label_1
_geom_bond_atom_site_label_2
_geom_bond_distance
_geom_bond_site_symmetry_2
Cs0 O9 3.070049 1_545
Cs0 O10 3.107212 1_645
Cs0 O10 3.107212 1_545
Cs0 O5 3.147122 1_655
Cs0 O4 3.147122 1_555
Cs0 O11 3.189785 1_545
Cs0 O1 3.230371 1_555
Cs0 O2 3.315500 1_655
Cs0 O2 3.315500 1_555
Cs1 O8 3.070049 1_546
Cs1 O11 3.107212 1_445
Cs1 O11 3.107212 1_545
Cs1 O5 3.147122 1_555
Cs1 O4 3.147122 1_555
Cs1 O10 3.189785 1_545
Cs1 O0 3.230371 1_556
Cs1 O3 3.315500 1_555
Cs1 O3 3.315500 1_455
Cs2 O2 3.070049 1_565
Cs2 O1 3.107212 1_465
Cs2 O1 3.107212 1_565
Cs2 O7 3.147122 1_555
Cs2 O6 3.147122 1_555
Cs2 O0 3.189785 1_565
Cs2 O10 3.230371 1_555
Cs2 O9 3.315500 1_455
Cs2 O9 3.315500 1_555
Cs3 O3 3.070049 1_564
Cs3 O0 3.107212 1_565
Cs3 O0 3.107212 1_665
Cs3 O7 3.147122 1_655
Cs3 O6 3.147122 1_555
Cs3 O1 3.189785 1_565
Cs3 O11 3.230371 1_554
Cs3 O8 3.315500 1_555
Cs3 O8 3.315500 1_655
As0 O8 1.646351 1_555
As0 O0 1.650564 1_555
As0 O7 1.784546 1_555
As0 O6 1.784546 1_555
As1 O9 1.646351 1_555
As1 O1 1.650564 1_555
As1 O6 1.784546 1_555
As1 O7 1.784546 1_655
As2 O2 1.646351 1_555
As2 O10 1.650564 1_555
As2 O4 1.784546 1_555
As2 O5 1.784546 1_555
As3 O3 1.646351 1_555
As3 O11 1.650564 1_555
As3 O4 1.784546 1_555
As3 O5 1.784546 1_655
