# generated using pymatgen
data_Li9Fe4(BO3)8
_symmetry_space_group_name_H-M   'P 1'
_cell_length_a   8.26558800
_cell_length_b   8.30033521
_cell_length_c   8.88062092
_cell_angle_alpha   67.78116604
_cell_angle_beta   68.33524824
_cell_angle_gamma   74.82267451
_symmetry_Int_Tables_number   1
_chemical_formula_structural   Li9Fe4(BO3)8
_chemical_formula_sum   'Li9 Fe4 B8 O24'
_cell_volume   518.87497116
_cell_formula_units_Z   1
loop_
 _symmetry_equiv_pos_site_id
 _symmetry_equiv_pos_as_xyz
  1  'x, y, z'
loop_
 _atom_site_type_symbol
 _atom_site_label
 _atom_site_symmetry_multiplicity
 _atom_site_fract_x
 _atom_site_fract_y
 _atom_site_fract_z
 _atom_site_occupancy
  Li  Li0  1  0.66774300  0.00549800  0.26727100  1
  Li  Li1  1  0.48697200  0.31625800  0.08753000  1
  Li  Li2  1  0.99150100  0.17732200  0.92095000  1
  Li  Li3  1  0.15873700  0.49146400  0.60527600  1
  Li  Li4  1  0.88116000  0.48909700  0.49290700  1
  Li  Li5  1  0.99882400  0.80244300  0.08440100  1
  Li  Li6  1  0.49507100  0.66711900  0.92184100  1
  Li  Li7  1  0.31748300  0.98814500  0.72222200  1
  Li  Li8  1  0.66042700  0.98468600  0.61358100  1
  Fe  Fe0  1  0.49139600  0.33823500  0.72517500  1
  Fe  Fe1  1  0.99178000  0.83907300  0.72704400  1
  Fe  Fe2  1  0.01112000  0.16419600  0.27629100  1
  Fe  Fe3  1  0.51190400  0.66492500  0.27822200  1
  B  B0  1  0.04904600  0.20053500  0.57774000  1
  B  B1  1  0.46240400  0.29277000  0.43556800  1
  B  B2  1  0.71450300  0.04593700  0.91299000  1
  B  B3  1  0.78515900  0.44607500  0.09073300  1
  B  B4  1  0.21545500  0.54446100  0.90455800  1
  B  B5  1  0.55227900  0.70994000  0.56668700  1
  B  B6  1  0.28434900  0.94618700  0.08082700  1
  B  B7  1  0.95060400  0.80385900  0.42991400  1
  O  O0  1  0.23159900  0.04465300  0.19082400  1
  O  O1  1  0.12753100  0.02510100  0.62281500  1
  O  O2  1  0.98957900  0.27132300  0.43474300  1
  O  O3  1  0.51155100  0.21489600  0.31635000  1
  O  O4  1  0.48367200  0.19647900  0.59938000  1
  O  O5  1  0.31611300  0.50568100  0.00711300  1
  O  O6  1  0.92386200  0.31114500  0.09203000  1
  O  O7  1  0.02583000  0.30549200  0.67088100  1
  O  O8  1  0.57620300  0.18623800  0.90761400  1
  O  O9  1  0.38729200  0.47001000  0.41471700  1
  O  O10  1  0.73934700  0.54806500  0.19581100  1
  O  O11  1  0.25810100  0.45621300  0.78653900  1
  O  O12  1  0.62215400  0.52986500  0.60254900  1
  O  O13  1  0.01220200  0.72447600  0.57145900  1
  O  O14  1  0.42314800  0.80824800  0.09408600  1
  O  O15  1  0.68370100  0.48441400  0.98727200  1
  O  O16  1  0.52790700  0.79526600  0.40578200  1
  O  O17  1  0.96424300  0.71002800  0.33082600  1
  O  O18  1  0.07439800  0.67917300  0.90810500  1
  O  O19  1  0.80228800  0.00326600  0.02859900  1
  O  O20  1  0.51680500  0.79912500  0.67752700  1
  O  O21  1  0.86370300  0.97881600  0.40007600  1
  O  O22  1  0.20035400  0.97977800  0.96382200  1
  O  O23  1  0.76057300  0.95919300  0.79149100  1
loop_
_geom_bond_atom_site_label_1
_geom_bond_atom_site_label_2
_geom_bond_distance
_geom_bond_site_symmetry_2
Li0 O3 1.964720 1_555
Li0 O19 2.002030 1_555
Li0 O16 2.068091 1_545
Li0 O21 2.255794 1_545
Li1 O5 1.925962 1_555
Li1 O3 1.949546 1_555
Li1 O8 2.068512 1_554
Li1 O15 2.136484 1_554
Li2 O7 2.012490 1_655
Li2 O6 2.044172 1_556
Li2 O22 2.084375 1_645
Li2 O19 2.117010 1_556
Li3 O7 1.914223 1_555
Li3 O11 1.960991 1_555
Li3 O13 1.974979 1_555
Li3 O9 2.038546 1_555
Li4 O17 1.959477 1_555
Li4 O2 1.963024 1_555
Li4 O12 1.994122 1_555
Li4 O7 2.206816 1_655
Li5 O17 1.960260 1_555
Li5 O18 2.010725 1_654
Li5 O19 2.053015 1_565
Li5 O22 2.205179 1_654
Li6 O15 1.957748 1_555
Li6 O20 1.989374 1_555
Li6 O5 2.000101 1_556
Li6 O14 2.093929 1_556
Li7 O1 1.976091 1_565
Li7 O22 1.983520 1_555
Li7 O20 1.992002 1_555
Li7 O4 2.185844 1_565
Li8 O23 1.961453 1_555
Li8 O4 1.965789 1_565
Li8 O20 1.975387 1_555
Li8 O21 2.023677 1_555
Fe0 O8 1.880854 1_555
Fe0 O12 1.898717 1_555
Fe0 O11 1.900865 1_555
Fe0 O4 1.929407 1_555
Fe1 O18 1.880287 1_655
Fe1 O1 1.886649 1_665
Fe1 O13 1.892093 1_655
Fe1 O23 1.897391 1_555
Fe2 O2 1.865701 1_455
Fe2 O0 1.866333 1_555
Fe2 O6 1.893899 1_455
Fe2 O21 1.942747 1_445
Fe3 O10 1.891266 1_555
Fe3 O16 1.893055 1_555
Fe3 O14 1.893404 1_555
Fe3 O9 1.901373 1_555
B0 O7 1.349148 1_555
B0 O2 1.394572 1_455
B0 O1 1.399197 1_555
B1 O3 1.329005 1_555
B1 O9 1.408771 1_555
B1 O4 1.421940 1_555
B2 O19 1.358846 1_556
B2 O8 1.402281 1_555
B2 O23 1.402938 1_545
B3 O15 1.362633 1_554
B3 O6 1.377135 1_555
B3 O10 1.378229 1_555
B4 O5 1.350125 1_556
B4 O18 1.388354 1_555
B4 O11 1.389929 1_555
B5 O20 1.351738 1_555
B5 O16 1.398745 1_555
B5 O12 1.411687 1_555
B6 O22 1.360738 1_554
B6 O0 1.383851 1_565
B6 O14 1.396761 1_555
B7 O17 1.338923 1_555
B7 O13 1.394251 1_655
B7 O21 1.413636 1_555
