# generated using pymatgen
data_CaEr15Si8Se11ClO28
_symmetry_space_group_name_H-M   'P 1'
_cell_length_a   10.86995704
_cell_length_b   10.86995704
_cell_length_c   11.85805854
_cell_angle_alpha   56.99918246
_cell_angle_beta   56.99918246
_cell_angle_gamma   66.14694215
_symmetry_Int_Tables_number   1
_chemical_formula_structural   CaEr15Si8Se11ClO28
_chemical_formula_sum   'Ca1 Er15 Si8 Se11 Cl1 O28'
_cell_volume   973.83943351
_cell_formula_units_Z   1
loop_
 _symmetry_equiv_pos_site_id
 _symmetry_equiv_pos_as_xyz
  1  'x, y, z'
loop_
 _atom_site_type_symbol
 _atom_site_label
 _atom_site_symmetry_multiplicity
 _atom_site_fract_x
 _atom_site_fract_y
 _atom_site_fract_z
 _atom_site_occupancy
  Ca  Ca0  1  0.33106300  0.33106300  0.18144500  1
  Er  Er0  1  0.65598400  0.18531600  0.32949500  1
  Er  Er1  1  0.29975800  0.95231100  0.30122800  1
  Er  Er2  1  0.33046000  0.33046000  0.65827300  1
  Er  Er3  1  0.69980800  0.04842500  0.04735800  1
  Er  Er4  1  0.04740300  0.70418800  0.70386500  1
  Er  Er5  1  0.18531600  0.65598400  0.32949500  1
  Er  Er6  1  0.94731100  0.30179600  0.94926300  1
  Er  Er7  1  0.66902300  0.66902300  0.81897400  1
  Er  Er8  1  0.04842500  0.69980800  0.04735800  1
  Er  Er9  1  0.81674600  0.34471300  0.66958900  1
  Er  Er10  1  0.30179600  0.94731100  0.94926300  1
  Er  Er11  1  0.95231100  0.29975800  0.30122800  1
  Er  Er12  1  0.66974800  0.66974800  0.34168300  1
  Er  Er13  1  0.70418800  0.04740300  0.70386500  1
  Er  Er14  1  0.34471300  0.81674600  0.66958900  1
  Si  Si0  1  0.78478400  0.53644900  0.09011000  1
  Si  Si1  1  0.53644900  0.78478400  0.09011000  1
  Si  Si2  1  0.08976500  0.08976500  0.78466300  1
  Si  Si3  1  0.90932100  0.90932100  0.46386600  1
  Si  Si4  1  0.08946200  0.08946200  0.53608100  1
  Si  Si5  1  0.90893900  0.90893900  0.21694400  1
  Si  Si6  1  0.46366600  0.21501700  0.91011800  1
  Si  Si7  1  0.21501700  0.46366600  0.91011800  1
  Se  Se0  1  0.35406300  0.64487400  0.50171900  1
  Se  Se1  1  0.37740400  0.37740400  0.37885400  1
  Se  Se2  1  0.87635700  0.87635700  0.87515300  1
  Se  Se3  1  0.50261000  0.99612000  0.35801700  1
  Se  Se4  1  0.00047900  0.50165800  0.64348600  1
  Se  Se5  1  0.99612000  0.50261000  0.35801700  1
  Se  Se6  1  0.64890700  0.35711600  0.99510500  1
  Se  Se7  1  0.62580100  0.62580100  0.62420600  1
  Se  Se8  1  0.35711600  0.64890700  0.99510500  1
  Se  Se9  1  0.64487400  0.35406300  0.50171900  1
  Se  Se10  1  0.50165800  0.00047900  0.64348600  1
  Cl  Cl0  1  0.12528100  0.12528100  0.12423400  1
  O  O0  1  0.81971100  0.35111700  0.16468600  1
  O  O1  1  0.57393200  0.85124000  0.16177700  1
  O  O2  1  0.84447500  0.08774600  0.14704400  1
  O  O3  1  0.60787000  0.60787000  0.14322800  1
  O  O4  1  0.16089800  0.91342700  0.57408000  1
  O  O5  1  0.14552000  0.42216700  0.84574400  1
  O  O6  1  0.35111700  0.81971100  0.16468600  1
  O  O7  1  0.16495400  0.16495400  0.82003500  1
  O  O8  1  0.08625400  0.84518800  0.41898700  1
  O  O9  1  0.85231900  0.57430900  0.91383500  1
  O  O10  1  0.14293200  0.14293200  0.60725900  1
  O  O11  1  0.83399300  0.83399300  0.64838700  1
  O  O12  1  0.42447100  0.13842900  0.08617200  1
  O  O13  1  0.08774600  0.84447500  0.14704400  1
  O  O14  1  0.91282800  0.16105900  0.85255500  1
  O  O15  1  0.57430900  0.85231900  0.91383500  1
  O  O16  1  0.16045700  0.16045700  0.35239000  1
  O  O17  1  0.85552600  0.85552600  0.39414100  1
  O  O18  1  0.13842900  0.42447100  0.08617200  1
  O  O19  1  0.91342700  0.16089800  0.57408000  1
  O  O20  1  0.83383500  0.83383500  0.18315900  1
  O  O21  1  0.64848400  0.18491900  0.83208600  1
  O  O22  1  0.85124000  0.57393200  0.16177700  1
  O  O23  1  0.84518800  0.08625500  0.41898700  1
  O  O24  1  0.39228000  0.39228000  0.85697900  1
  O  O25  1  0.16105900  0.91282800  0.85255500  1
  O  O26  1  0.42216700  0.14552000  0.84574400  1
  O  O27  1  0.18491900  0.64848400  0.83208600  1
loop_
_geom_bond_atom_site_label_1
_geom_bond_atom_site_label_2
_geom_bond_distance
_geom_bond_site_symmetry_2
Ca0 O16 2.361984 1_555
Ca0 O12 2.509902 1_555
Ca0 O18 2.509902 1_555
Ca0 Se8 2.948413 1_554
Ca0 Se6 2.948413 1_554
Ca0 Se1 2.959963 1_555
Ca0 Se3 3.402187 1_545
Ca0 Se5 3.402187 1_455
Er0 O0 2.281130 1_555
Er0 O23 2.420115 1_555
Er0 O2 2.432470 1_555
Er0 Se1 2.856365 1_555
Er0 Se10 2.913307 1_555
Er0 Se3 2.919653 1_545
Er0 Se9 3.344045 1_555
Er0 Se6 3.371379 1_554
Er1 O12 2.294851 1_565
Er1 O16 2.345985 1_565
Er1 O8 2.361382 1_555
Er1 O6 2.432579 1_555
Er1 O4 2.575249 1_555
Er1 O1 2.604979 1_555
Er1 Se3 2.891064 1_555
Er1 Se0 2.906411 1_555
Er2 O7 2.291743 1_555
Er2 O5 2.429406 1_555
Er2 O26 2.429406 1_555
Er2 Se1 2.833074 1_555
Er2 Se0 2.910620 1_555
Er2 Se9 2.910620 1_555
Er2 Se10 3.360146 1_555
Er2 Se4 3.360146 1_555
Er3 O1 2.342871 1_545
Er3 O14 2.362686 1_554
Er3 O21 2.405222 1_554
Er3 O20 2.423220 1_545
Er3 O12 2.597738 1_555
Er3 O2 2.677995 1_555
Er3 Se2 2.887837 1_544
Er3 Se6 2.925112 1_554
Er3 Se3 2.931061 1_545
Er4 O4 2.334900 1_555
Er4 O9 2.351621 1_455
Er4 O27 2.377742 1_555
Er4 O11 2.410166 1_455
Er4 O5 2.656647 1_555
Er4 O8 2.696035 1_555
Er4 Se2 2.880555 1_455
Er4 Se0 2.917950 1_555
Er4 Se4 2.939783 1_555
Er5 O6 2.281130 1_555
Er5 O8 2.420114 1_555
Er5 O13 2.432470 1_555
Er5 Se1 2.856365 1_555
Er5 Se4 2.913307 1_555
Er5 Se5 2.919653 1_455
Er5 Se0 3.344045 1_555
Er5 Se8 3.371379 1_554
Er6 O2 2.338203 1_556
Er6 O5 2.347400 1_655
Er6 O0 2.401574 1_556
Er6 O7 2.417734 1_655
Er6 O14 2.576602 1_555
Er6 O9 2.580791 1_555
Er6 Se6 2.834808 1_555
Er6 Se4 2.890171 1_655
Er7 O11 2.285002 1_555
Er7 O15 2.411600 1_555
Er7 O9 2.411600 1_555
Er7 Se6 2.879844 1_555
Er7 Se8 2.879844 1_555
Er7 Se7 2.884107 1_555
Er7 Se10 3.358059 1_565
Er7 Se4 3.358059 1_655
Er8 O22 2.342871 1_455
Er8 O25 2.362686 1_554
Er8 O27 2.405222 1_554
Er8 O20 2.423220 1_455
Er8 O18 2.597738 1_555
Er8 O13 2.677995 1_555
Er8 Se2 2.887837 1_454
Er8 Se8 2.925112 1_554
Er8 Se5 2.931061 1_455
Er9 O21 2.271511 1_555
Er9 O14 2.418122 1_555
Er9 O19 2.418583 1_555
Er9 Se7 2.868738 1_555
Er9 Se5 2.889607 1_555
Er9 Se4 2.915806 1_655
Er9 Se6 3.308023 1_555
Er9 Se9 3.337708 1_555
Er10 O13 2.338203 1_556
Er10 O26 2.347400 1_565
Er10 O6 2.401574 1_556
Er10 O7 2.417734 1_565
Er10 O25 2.576602 1_555
Er10 O15 2.580791 1_555
Er10 Se8 2.834808 1_555
Er10 Se10 2.890171 1_565
Er11 O18 2.294851 1_655
Er11 O16 2.345985 1_655
Er11 O23 2.361373 1_555
Er11 O0 2.432579 1_555
Er11 O19 2.575249 1_555
Er11 O22 2.604979 1_555
Er11 Se5 2.891064 1_555
Er11 Se9 2.906411 1_555
Er12 O20 2.272598 1_555
Er12 O22 2.387855 1_555
Er12 O1 2.387855 1_555
Er12 Se7 2.894482 1_555
Er12 Se9 2.923604 1_555
Er12 Se0 2.923604 1_555
Er12 Se3 3.328116 1_555
Er12 Se5 3.328116 1_555
Er13 O19 2.334900 1_555
Er13 O15 2.351621 1_545
Er13 O21 2.377742 1_555
Er13 O11 2.410166 1_545
Er13 O26 2.656647 1_555
Er13 O23 2.696031 1_555
Er13 Se2 2.880555 1_545
Er13 Se9 2.917950 1_555
Er13 Se10 2.939783 1_555
Er14 O27 2.271511 1_555
Er14 O25 2.418122 1_555
Er14 O4 2.418583 1_555
Er14 Se7 2.868738 1_555
Er14 Se3 2.889607 1_555
Er14 Se10 2.915806 1_565
Er14 Se8 3.308023 1_555
Er14 Se0 3.337708 1_555
Cl0 Er1 2.947951 1_545
Cl0 Er11 2.947951 1_455
Cl0 Er6 2.960136 1_454
Cl0 Er10 2.960136 1_544
O0 Si0 1.670661 1_555
O1 Si1 1.641335 1_555
O2 Si5 1.652874 1_545
O3 Si0 1.644175 1_555
O3 Si1 1.644175 1_555
O4 Si4 1.645496 1_565
O5 Si7 1.623489 1_555
O6 Si1 1.670661 1_555
O7 Si2 1.673021 1_555
O8 Si3 1.634911 1_455
O9 Si0 1.647216 1_556
O10 Si2 1.647690 1_555
O10 Si4 1.652266 1_555
O11 Si3 1.663598 1_555
O12 Si6 1.630246 1_554
O13 Si5 1.652874 1_455
O14 Si2 1.653859 1_655
O15 Si1 1.647216 1_556
O16 Si4 1.659891 1_555
O17 Si3 1.642349 1_555
O17 Si5 1.644418 1_555
O18 Si7 1.630246 1_554
O19 Si4 1.645496 1_655
O20 Si5 1.656808 1_555
O21 Si6 1.665062 1_555
O22 Si0 1.641335 1_555
O23 Si3 1.634920 1_545
O24 Si7 1.647020 1_555
O24 Si6 1.647020 1_555
O25 Si2 1.653859 1_565
O26 Si6 1.623489 1_555
O27 Si7 1.665062 1_555
