# generated using pymatgen
data_Li2MnO2F
_symmetry_space_group_name_H-M   'P 1'
_cell_length_a   2.99000810
_cell_length_b   2.99000810
_cell_length_c   14.41583500
_cell_angle_alpha   90.00000000
_cell_angle_beta   90.00000000
_cell_angle_gamma   120.00000219
_symmetry_Int_Tables_number   1
_chemical_formula_structural   Li2MnO2F
_chemical_formula_sum   'Li4 Mn2 O4 F2'
_cell_volume   111.61309582
_cell_formula_units_Z   2
loop_
 _symmetry_equiv_pos_site_id
 _symmetry_equiv_pos_as_xyz
  1  'x, y, z'
loop_
 _atom_site_type_symbol
 _atom_site_label
 _atom_site_symmetry_multiplicity
 _atom_site_fract_x
 _atom_site_fract_y
 _atom_site_fract_z
 _atom_site_occupancy
  Li  Li0  1  0.33333300  0.66666700  0.83915400  1
  Li  Li1  1  0.00000000  0.00000000  0.00000000  1
  Li  Li2  1  0.00000000  0.00000000  0.50000000  1
  Li  Li3  1  0.66666700  0.33333300  0.16084600  1
  Mn  Mn0  1  0.33333300  0.66666700  0.33118000  1
  Mn  Mn1  1  0.66666700  0.33333300  0.66882000  1
  O  O0  1  0.33333300  0.66666700  0.59065400  1
  O  O1  1  0.00000000  0.00000000  0.74574400  1
  O  O2  1  0.00000000  0.00000000  0.25425600  1
  O  O3  1  0.66666700  0.33333300  0.40934600  1
  F  F0  1  0.33333300  0.66666700  0.08077400  1
  F  F1  1  0.66666700  0.33333300  0.91922600  1
loop_
_geom_bond_atom_site_label_1
_geom_bond_atom_site_label_2
_geom_bond_distance
_geom_bond_site_symmetry_2
Li0 O1 2.189367 1_565
Li0 O1 2.189369 1_555
Li0 O1 2.189369 1_665
Li2 O0 2.165158 1_545
Li2 O3 2.165158 1_455
Li2 O3 2.165160 1_555
Li2 O3 2.165160 1_445
Li2 O0 2.165160 1_555
Li2 O0 2.165160 1_445
Li3 O2 2.189367 1_655
Li3 O2 2.189369 1_665
Li3 O2 2.189369 1_555
Mn0 O2 2.051769 1_565
Mn0 O2 2.051771 1_665
Mn0 O2 2.051771 1_555
Mn0 O3 2.061501 1_455
Mn0 O3 2.061501 1_565
Mn0 O3 2.061505 1_555
Mn1 O1 2.051769 1_655
Mn1 O1 2.051771 1_665
Mn1 O1 2.051771 1_555
Mn1 O0 2.061501 1_655
Mn1 O0 2.061501 1_545
Mn1 O0 2.061505 1_555
F0 Li3 2.076647 1_455
F0 Li3 2.076647 1_565
F0 Li3 2.076651 1_555
F0 Li1 2.082289 1_565
F0 Li1 2.082291 1_555
F0 Li1 2.082291 1_665
F1 Li0 2.076647 1_545
F1 Li0 2.076647 1_655
F1 Li0 2.076651 1_555
F1 Li1 2.082289 1_656
F1 Li1 2.082291 1_556
F1 Li1 2.082291 1_666
