# generated using pymatgen
data_LiV4OF11
_symmetry_space_group_name_H-M   'P 1'
_cell_length_a   5.27440006
_cell_length_b   5.56832627
_cell_length_c   7.49783289
_cell_angle_alpha   86.23244537
_cell_angle_beta   90.01136919
_cell_angle_gamma   89.98855198
_symmetry_Int_Tables_number   1
_chemical_formula_structural   LiV4OF11
_chemical_formula_sum   'Li1 V4 O1 F11'
_cell_volume   219.73229098
_cell_formula_units_Z   1
loop_
 _symmetry_equiv_pos_site_id
 _symmetry_equiv_pos_as_xyz
  1  'x, y, z'
loop_
 _atom_site_type_symbol
 _atom_site_label
 _atom_site_symmetry_multiplicity
 _atom_site_fract_x
 _atom_site_fract_y
 _atom_site_fract_z
 _atom_site_occupancy
  Li  Li0  1  0.98282300  0.50006900  0.75000000  1
  V  V0  1  0.99919000  0.00003800  0.49643800  1
  V  V1  1  0.99923200  0.00000900  0.00356100  1
  V  V2  1  0.50800600  0.50120000  0.98995600  1
  V  V3  1  0.50795500  0.49880200  0.51009000  1
  O  O0  1  0.58915000  0.50002800  0.74994100  1
  F  F0  1  0.11636400  0.00002200  0.25002900  1
  F  F1  1  0.17544700  0.31627400  0.93547800  1
  F  F2  1  0.17531800  0.68372800  0.56449500  1
  F  F3  1  0.29317400  0.80569700  0.94403500  1
  F  F4  1  0.29326100  0.19422300  0.55600100  1
  F  F5  1  0.40788200  0.49996500  0.24990300  1
  F  F6  1  0.70089200  0.19125300  0.05491900  1
  F  F7  1  0.70079500  0.80874600  0.44506100  1
  F  F8  1  0.81750200  0.69094900  0.04751400  1
  F  F9  1  0.81753000  0.30902200  0.45258600  1
  F  F10  1  0.89003000  0.99994100  0.74998500  1
loop_
_geom_bond_atom_site_label_1
_geom_bond_atom_site_label_2
_geom_bond_distance
_geom_bond_site_symmetry_2
Li0 O0 2.076389 1_555
O0 V3 1.849018 1_555
O0 V2 1.850296 1_555
F0 V0 1.948283 1_455
F0 V1 1.948399 1_455
F1 Li0 1.955914 1_455
F1 V1 2.026938 1_456
F1 V2 2.087962 1_555
F2 Li0 1.955835 1_455
F2 V0 2.026488 1_465
F2 V3 2.087974 1_555
F3 V1 1.958727 1_466
F3 V2 2.049316 1_555
F4 V0 1.959140 1_455
F4 V3 2.049728 1_555
F5 V2 2.018993 1_554
F5 V3 2.020481 1_555
F6 V1 1.952403 1_555
F6 V2 2.034594 1_554
F7 V0 1.953040 1_565
F7 V3 2.034992 1_555
F8 V1 1.978704 1_565
F8 V2 2.006912 1_554
F9 V0 1.977682 1_555
F9 V3 2.007039 1_555
F10 V0 1.986402 1_565
F10 V1 1.986514 1_566
