# generated using pymatgen
data_KSbP(O2F)2
_symmetry_space_group_name_H-M   'P 1'
_cell_length_a   7.16496600
_cell_length_b   9.39115100
_cell_length_c   10.46712178
_cell_angle_alpha   63.67814552
_cell_angle_beta   90.00000000
_cell_angle_gamma   90.00000000
_symmetry_Int_Tables_number   1
_chemical_formula_structural   KSbP(O2F)2
_chemical_formula_sum   'K4 Sb4 P4 O16 F8'
_cell_volume   631.28002024
_cell_formula_units_Z   4
loop_
 _symmetry_equiv_pos_site_id
 _symmetry_equiv_pos_as_xyz
  1  'x, y, z'
loop_
 _atom_site_type_symbol
 _atom_site_label
 _atom_site_symmetry_multiplicity
 _atom_site_fract_x
 _atom_site_fract_y
 _atom_site_fract_z
 _atom_site_occupancy
  K  K0  1  0.24936500  0.08245800  0.09301500  1
  K  K1  1  0.74936500  0.91754200  0.40698500  1
  K  K2  1  0.75063500  0.91754200  0.90698500  1
  K  K3  1  0.25063500  0.08245800  0.59301500  1
  Sb  Sb0  1  0.25019200  0.68401800  0.49466100  1
  Sb  Sb1  1  0.75019200  0.31598200  0.00533900  1
  Sb  Sb2  1  0.74980800  0.31598200  0.50533900  1
  Sb  Sb3  1  0.24980800  0.68401800  0.99466100  1
  P  P0  1  0.57800900  0.65657500  0.25866700  1
  P  P1  1  0.07800900  0.34342500  0.24133300  1
  P  P2  1  0.42199100  0.34342500  0.74133300  1
  P  P3  1  0.92199100  0.65657500  0.75866700  1
  O  O0  1  0.76764300  0.73236900  0.23411800  1
  O  O1  1  0.26764300  0.26763100  0.26588200  1
  O  O2  1  0.23235700  0.26763100  0.76588200  1
  O  O3  1  0.73235700  0.73236900  0.73411800  1
  O  O4  1  0.57494000  0.47034400  0.33707900  1
  O  O5  1  0.07494000  0.52965600  0.16292100  1
  O  O6  1  0.42506000  0.52965600  0.66292100  1
  O  O7  1  0.92506000  0.47034400  0.83707900  1
  O  O8  1  0.46157600  0.72560900  0.34665900  1
  O  O9  1  0.96157600  0.27439100  0.15334100  1
  O  O10  1  0.53842400  0.27439100  0.65334100  1
  O  O11  1  0.03842400  0.72560900  0.84665900  1
  O  O12  1  0.02181500  0.70629900  0.61105300  1
  O  O13  1  0.52181500  0.29370100  0.88894700  1
  O  O14  1  0.97818500  0.29370100  0.38894700  1
  O  O15  1  0.47818500  0.70629900  0.11105300  1
  F  F0  1  0.37795200  0.84747100  0.52537100  1
  F  F1  1  0.87795200  0.15252900  0.97462900  1
  F  F2  1  0.62204800  0.15252900  0.47462900  1
  F  F3  1  0.12204800  0.84747100  0.02537100  1
  F  F4  1  0.11708800  0.86587800  0.33981300  1
  F  F5  1  0.61708800  0.13412200  0.16018700  1
  F  F6  1  0.88291200  0.13412200  0.66018700  1
  F  F7  1  0.38291200  0.86587800  0.83981300  1
loop_
_geom_bond_atom_site_label_1
_geom_bond_atom_site_label_2
_geom_bond_distance
_geom_bond_site_symmetry_2
K0 O13 2.924182 1_554
K0 O9 2.984761 1_455
K0 O1 3.017562 1_555
K0 O2 3.079453 1_554
K1 O12 2.924182 1_655
K1 O8 2.984761 1_555
K1 O0 3.017562 1_555
K1 O3 3.079453 1_555
K2 O15 2.924182 1_556
K2 O11 2.984761 1_655
K2 O3 3.017562 1_555
K2 O0 3.079453 1_556
K3 O14 2.924182 1_455
K3 O10 2.984761 1_555
K3 O2 3.017562 1_555
K3 O1 3.079453 1_555
O0 P0 1.502198 1_555
O1 P1 1.502198 1_555
O2 P2 1.502198 1_555
O3 P3 1.502198 1_555
O4 P0 1.568398 1_555
O4 Sb2 2.123424 1_555
O5 P1 1.568398 1_555
O5 Sb3 2.123424 1_554
O6 P2 1.568398 1_555
O6 Sb0 2.123424 1_555
O7 P3 1.568398 1_555
O7 Sb1 2.123424 1_556
O8 P0 1.579263 1_555
O8 Sb0 2.075988 1_555
O9 P1 1.579263 1_655
O9 Sb1 2.075988 1_555
O10 P2 1.579263 1_555
O10 Sb2 2.075988 1_555
O11 P3 1.579263 1_455
O11 Sb3 2.075988 1_555
O12 P3 1.573875 1_455
O12 Sb0 2.105137 1_555
O13 P2 1.573875 1_555
O13 Sb1 2.105137 1_556
O14 P1 1.573875 1_655
O14 Sb2 2.105137 1_555
O15 P0 1.573875 1_555
O15 Sb3 2.105137 1_554
F0 Sb0 1.932645 1_555
F0 K3 2.754830 1_565
F0 K1 2.885686 1_555
F1 Sb1 1.932645 1_556
F1 K2 2.754830 1_545
F1 K0 2.885686 1_656
F2 Sb2 1.932645 1_555
F2 K1 2.754830 1_545
F2 K3 2.885686 1_555
F3 Sb3 1.932645 1_554
F3 K0 2.754830 1_565
F3 K2 2.885686 1_454
F4 Sb0 1.999631 1_555
F4 K0 2.654966 1_565
F4 K1 2.823834 1_455
F5 Sb1 1.999631 1_555
F5 K1 2.654966 1_545
F5 K0 2.823834 1_555
F6 Sb2 1.999631 1_555
F6 K2 2.654966 1_545
F6 K3 2.823834 1_655
F7 Sb3 1.999631 1_555
F7 K3 2.654966 1_565
F7 K2 2.823834 1_555
