# generated using pymatgen
data_P4WO12
_symmetry_space_group_name_H-M   'P 1'
_cell_length_a   7.64432695
_cell_length_b   7.64432695
_cell_length_c   10.14881891
_cell_angle_alpha   67.33620332
_cell_angle_beta   67.33620332
_cell_angle_gamma   66.53320539
_symmetry_Int_Tables_number   1
_chemical_formula_structural   P4WO12
_chemical_formula_sum   'P8 W2 O24'
_cell_volume   482.79264929
_cell_formula_units_Z   2
loop_
 _symmetry_equiv_pos_site_id
 _symmetry_equiv_pos_as_xyz
  1  'x, y, z'
loop_
 _atom_site_type_symbol
 _atom_site_label
 _atom_site_symmetry_multiplicity
 _atom_site_fract_x
 _atom_site_fract_y
 _atom_site_fract_z
 _atom_site_occupancy
  P  P0  1  0.74804400  0.26198300  0.46850300  1
  P  P1  1  0.73801700  0.25195600  0.03149700  1
  P  P2  1  0.69009500  0.65656000  0.81478800  1
  P  P3  1  0.26198300  0.74804400  0.96850300  1
  P  P4  1  0.25195600  0.73801700  0.53149700  1
  P  P5  1  0.34344000  0.30990500  0.68521200  1
  P  P6  1  0.65656000  0.69009500  0.31478800  1
  P  P7  1  0.30990500  0.34344000  0.18521200  1
  W  W0  1  0.50000000  0.00000000  0.00000000  1
  W  W1  1  0.00000000  0.50000000  0.50000000  1
  O  O0  1  0.65857800  0.46861900  0.34809900  1
  O  O1  1  0.20407900  0.35032100  0.34403900  1
  O  O2  1  0.79592100  0.64967900  0.65596100  1
  O  O3  1  0.81786700  0.33052300  0.56024600  1
  O  O4  1  0.33052300  0.81786700  0.06024600  1
  O  O5  1  0.46861900  0.65857800  0.84809900  1
  O  O6  1  0.30672400  0.17032400  0.14969000  1
  O  O7  1  0.21083700  0.54360300  0.07782000  1
  O  O8  1  0.54360300  0.21083700  0.57782000  1
  O  O9  1  0.10565200  0.87617100  0.89693300  1
  O  O10  1  0.34142200  0.53138100  0.65190100  1
  O  O11  1  0.35032100  0.20407900  0.84403900  1
  O  O12  1  0.82967600  0.69327600  0.35031000  1
  O  O13  1  0.12382900  0.89434800  0.60306700  1
  O  O14  1  0.87617100  0.10565200  0.39693300  1
  O  O15  1  0.66947700  0.18213300  0.93975400  1
  O  O16  1  0.64967900  0.79592100  0.15596100  1
  O  O17  1  0.18213300  0.66947700  0.43975400  1
  O  O18  1  0.89434800  0.12382900  0.10306700  1
  O  O19  1  0.45639700  0.78916300  0.42218000  1
  O  O20  1  0.78916300  0.45639700  0.92218000  1
  O  O21  1  0.69327600  0.82967600  0.85031000  1
  O  O22  1  0.53138100  0.34142200  0.15190100  1
  O  O23  1  0.17032400  0.30672400  0.64969000  1
loop_
_geom_bond_atom_site_label_1
_geom_bond_atom_site_label_2
_geom_bond_distance
_geom_bond_site_symmetry_2
O0 P6 1.588404 1_555
O0 P0 1.658968 1_555
O1 P7 1.510623 1_555
O1 W1 2.078307 1_555
O2 P2 1.510623 1_555
O2 W1 2.078307 1_655
O3 P0 1.551766 1_555
O3 W1 2.039806 1_655
O4 P3 1.551766 1_554
O4 W0 2.039806 1_565
O5 P2 1.588404 1_555
O5 P3 1.658968 1_555
O6 P7 1.510585 1_555
O6 W0 2.109157 1_555
O7 P7 1.590805 1_555
O7 P3 1.625510 1_554
O8 P5 1.590805 1_555
O8 P0 1.625510 1_555
O9 P3 1.450346 1_555
O10 P5 1.588404 1_555
O10 P4 1.658968 1_555
O11 P5 1.510623 1_555
O11 W0 2.078307 1_556
O12 P6 1.510585 1_555
O12 W1 2.109157 1_655
O13 P4 1.450346 1_555
O14 P0 1.450346 1_555
O15 P1 1.551766 1_556
O15 W0 2.039806 1_556
O16 P6 1.510623 1_555
O16 W0 2.078307 1_565
O17 P4 1.551766 1_555
O17 W1 2.039806 1_555
O18 P1 1.450346 1_555
O19 P6 1.590805 1_555
O19 P4 1.625510 1_555
O20 P2 1.590805 1_555
O20 P1 1.625510 1_556
O21 P2 1.510585 1_555
O21 W0 2.109157 1_566
O22 P7 1.588404 1_555
O22 P1 1.658968 1_555
O23 P5 1.510585 1_555
O23 W1 2.109157 1_555
