# generated using pymatgen
data_Ho2InPd2
_symmetry_space_group_name_H-M   'P 1'
_cell_length_a   3.60172996
_cell_length_b   7.73452473
_cell_length_c   7.73452473
_cell_angle_alpha   90.00000000
_cell_angle_beta   90.00000000
_cell_angle_gamma   90.00000000
_symmetry_Int_Tables_number   1
_chemical_formula_structural   Ho2InPd2
_chemical_formula_sum   'Ho4 In2 Pd4'
_cell_volume   215.46583325
_cell_formula_units_Z   2
loop_
 _symmetry_equiv_pos_site_id
 _symmetry_equiv_pos_as_xyz
  1  'x, y, z'
loop_
 _atom_site_type_symbol
 _atom_site_label
 _atom_site_symmetry_multiplicity
 _atom_site_fract_x
 _atom_site_fract_y
 _atom_site_fract_z
 _atom_site_occupancy
  Ho  Ho0  1  0.50000000  0.82735969  0.32735969  1
  Ho  Ho1  1  0.50000000  0.67264031  0.82735969  1
  Ho  Ho2  1  0.50000000  0.32735969  0.17264031  1
  Ho  Ho3  1  0.50000000  0.17264031  0.67264031  1
  In  In0  1  0.00000000  0.00000000  -0.00000000  1
  In  In1  1  0.00000000  0.50000000  0.50000000  1
  Pd  Pd0  1  0.00000000  0.12783977  0.37216023  1
  Pd  Pd1  1  0.00000000  0.37216023  0.87216023  1
  Pd  Pd2  1  -0.00000000  0.62783977  0.12783977  1
  Pd  Pd3  1  -0.00000000  0.87216023  0.62783977  1
loop_
_geom_bond_atom_site_label_1
_geom_bond_atom_site_label_2
_geom_bond_distance
_geom_bond_site_symmetry_2
Ho0 Pd2 2.829487 1_555
Ho0 Pd2 2.829487 1_655
Ho0 Pd3 2.960488 1_555
Ho0 Pd3 2.960488 1_655
Ho0 Pd0 2.960488 1_565
Ho0 Pd0 2.960488 1_665
Ho0 In1 3.381863 1_555
Ho0 In1 3.381863 1_655
Ho0 In0 3.381863 1_565
Ho0 In0 3.381863 1_665
Ho1 Pd3 2.829487 1_655
Ho1 Pd3 2.829487 1_555
Ho1 Pd2 2.960488 1_556
Ho1 Pd2 2.960488 1_656
Ho1 Pd1 2.960488 1_555
Ho1 Pd1 2.960488 1_655
Ho1 In1 3.381863 1_555
Ho1 In0 3.381863 1_666
Ho1 In1 3.381863 1_655
Ho1 In0 3.381863 1_566
Ho2 Pd0 2.829487 1_655
Ho2 Pd0 2.829487 1_555
Ho2 Pd1 2.960488 1_654
Ho2 Pd1 2.960488 1_554
Ho2 Pd2 2.960488 1_555
Ho2 Pd2 2.960488 1_655
Ho2 In0 3.381863 1_655
Ho2 In1 3.381863 1_555
Ho2 In1 3.381863 1_655
Ho2 In0 3.381863 1_555
Ho3 Pd1 2.829487 1_555
Ho3 Pd1 2.829487 1_655
Ho3 Pd0 2.960488 1_555
Ho3 Pd0 2.960488 1_655
Ho3 Pd3 2.960488 1_545
Ho3 Pd3 2.960488 1_645
Ho3 In1 3.381863 1_555
Ho3 In1 3.381863 1_655
Ho3 In0 3.381863 1_656
Ho3 In0 3.381863 1_556
In0 Pd1 3.043575 1_554
In0 Pd0 3.043575 1_555
In0 Pd3 3.043575 1_544
In0 Pd2 3.043575 1_545
In1 Pd1 3.043575 1_555
In1 Pd0 3.043575 1_555
In1 Pd3 3.043575 1_555
In1 Pd2 3.043575 1_555
Pd0 Pd3 2.796692 1_545
Pd1 Pd2 2.796692 1_556
