# generated using pymatgen
data_LiVP2HO8
_symmetry_space_group_name_H-M   'P 1'
_cell_length_a   7.48070700
_cell_length_b   9.34636263
_cell_length_c   9.36242139
_cell_angle_alpha   117.49468420
_cell_angle_beta   97.92932522
_cell_angle_gamma   97.96877453
_symmetry_Int_Tables_number   1
_chemical_formula_structural   LiVP2HO8
_chemical_formula_sum   'Li4 V4 P8 H4 O32'
_cell_volume   559.65328170
_cell_formula_units_Z   4
loop_
 _symmetry_equiv_pos_site_id
 _symmetry_equiv_pos_as_xyz
  1  'x, y, z'
loop_
 _atom_site_type_symbol
 _atom_site_label
 _atom_site_symmetry_multiplicity
 _atom_site_fract_x
 _atom_site_fract_y
 _atom_site_fract_z
 _atom_site_occupancy
  Li  Li0  1  0.14536100  0.86275600  0.73322700  1
  Li  Li1  1  0.64536500  0.73124200  0.36246500  1
  Li  Li2  1  0.64905500  0.23044500  0.86102800  1
  Li  Li3  1  0.85524000  0.14343900  0.27224800  1
  V  V0  1  0.00534100  0.50575800  0.00230900  1
  V  V1  1  0.49981700  0.49840800  0.50438900  1
  V  V2  1  0.49936700  0.99819100  0.00402300  1
  V  V3  1  0.00482900  0.00473600  0.50178400  1
  P  P0  1  0.76770700  0.88966500  0.73897800  1
  P  P1  1  0.23626300  0.60489500  0.76145200  1
  P  P2  1  0.26510900  0.73584600  0.39255700  1
  P  P3  1  0.26325900  0.23953900  0.89275700  1
  P  P4  1  0.73132100  0.26055900  0.60814300  1
  P  P5  1  0.73419900  0.75778100  0.10708700  1
  P  P6  1  0.76934100  0.39414900  0.24067100  1
  P  P7  1  0.23771500  0.10993000  0.26386500  1
  H  H0  1  0.49468400  0.99211200  0.49578000  1
  H  H1  1  0.49627100  0.49304500  0.99624400  1
  H  H2  1  0.00933500  0.50976500  0.51751800  1
  H  H3  1  0.01008300  0.01043100  0.01653000  1
  O  O0  1  0.34649500  0.79209400  0.84579500  1
  O  O1  1  0.18297300  0.56539400  0.89238500  1
  O  O2  1  0.94935300  0.91300000  0.85173400  1
  O  O3  1  0.86349600  0.66993700  0.99932300  1
  O  O4  1  0.14529600  0.83530200  0.50881700  1
  O  O5  1  0.06221400  0.60198300  0.64751400  1
  O  O6  1  0.81096400  0.91704200  0.59470500  1
  O  O7  1  0.64847300  0.70839000  0.65649100  1
  O  O8  1  0.44485400  0.85033800  0.40672800  1
  O  O9  1  0.44786700  0.34943100  0.91007100  1
  O  O10  1  0.35992800  0.99838400  0.16686800  1
  O  O11  1  0.36189900  0.49590800  0.66909200  1
  O  O12  1  0.31715300  0.60295700  0.43039000  1
  O  O13  1  0.31113200  0.09605600  0.91916300  1
  O  O14  1  0.14673700  0.15363800  0.70886100  1
  O  O15  1  0.14561600  0.65443400  0.21211600  1
  O  O16  1  0.84498000  0.34393400  0.79225300  1
  O  O17  1  0.84446500  0.84402900  0.29447500  1
  O  O18  1  0.68774500  0.90013400  0.07766400  1
  O  O19  1  0.68191300  0.39161600  0.56569500  1
  O  O20  1  0.64459200  0.50830600  0.33344900  1
  O  O21  1  0.64481300  0.00559800  0.83504300  1
  O  O22  1  0.56074600  0.14191700  0.59871800  1
  O  O23  1  0.55857000  0.64315300  0.09530800  1
  O  O24  1  0.34912600  0.29224200  0.34696400  1
  O  O25  1  0.18312500  0.06901100  0.39506900  1
  O  O26  1  0.93896500  0.39883100  0.35377200  1
  O  O27  1  0.85856700  0.16776400  0.49413400  1
  O  O28  1  0.14086800  0.33478500  0.00245300  1
  O  O29  1  0.05261500  0.09064500  0.15059700  1
  O  O30  1  0.81199400  0.42074400  0.09731000  1
  O  O31  1  0.64894900  0.20822900  0.15588800  1
loop_
_geom_bond_atom_site_label_1
_geom_bond_atom_site_label_2
_geom_bond_distance
_geom_bond_site_symmetry_2
Li0 O2 1.939124 1_455
Li0 O4 1.995504 1_555
Li0 O0 2.071587 1_555
Li0 O13 2.114869 1_565
Li0 O5 2.146444 1_555
Li1 O8 1.967020 1_555
Li1 O20 1.972048 1_555
Li1 O17 2.044650 1_555
Li1 O6 2.109968 1_555
Li1 O23 2.204063 1_555
Li2 O9 1.973810 1_555
Li2 O21 1.995951 1_555
Li2 O16 2.036621 1_555
Li2 O30 2.136558 1_556
Li2 O22 2.162606 1_555
Li3 O29 1.966676 1_655
Li3 O27 1.978873 1_555
Li3 O31 2.083113 1_555
Li3 O26 2.108061 1_555
Li3 O18 2.194320 1_545
H0 O8 1.160657 1_555
H0 O22 1.250691 1_565
H1 O9 1.169805 1_555
H1 O23 1.242463 1_556
H2 O5 1.088434 1_555
H2 O26 1.364093 1_455
H3 O29 1.092518 1_555
H3 O2 1.345647 1_444
O0 P1 1.584102 1_555
O0 V2 1.870786 1_556
O1 P1 1.519811 1_555
O1 V0 1.958872 1_556
O2 P0 1.522470 1_555
O3 P5 1.533669 1_556
O3 V0 1.991034 1_656
O4 P2 1.555031 1_555
O4 V3 2.038340 1_565
O5 P1 1.553725 1_555
O6 P0 1.552887 1_555
O6 V3 2.051519 1_665
O7 P0 1.563756 1_555
O7 V1 1.869135 1_555
O8 P2 1.546424 1_555
O9 P3 1.542588 1_555
O10 P7 1.538375 1_565
O10 V2 1.961964 1_555
O11 P1 1.531348 1_555
O11 V1 1.976955 1_555
O12 P2 1.523781 1_555
O12 V1 2.009008 1_555
O13 P3 1.550040 1_555
O13 V2 2.042093 1_546
O14 P3 1.576153 1_555
O14 V3 1.831317 1_555
O15 P2 1.562001 1_555
O15 V0 1.843168 1_555
O16 P4 1.572596 1_555
O16 V0 1.921945 1_656
O17 P5 1.587043 1_555
O17 V3 1.904875 1_665
O18 P5 1.551459 1_555
O18 V2 1.993635 1_555
O19 P4 1.526244 1_555
O19 V1 1.967618 1_555
O20 P6 1.551701 1_555
O20 V1 2.080853 1_555
O21 P0 1.559705 1_545
O21 V2 2.060754 1_546
O22 P4 1.533585 1_555
O23 P5 1.531917 1_555
O24 P7 1.551341 1_555
O24 V1 1.863617 1_555
O25 P7 1.533244 1_555
O25 V3 1.959023 1_555
O26 P6 1.518029 1_555
O27 P4 1.565917 1_555
O27 V3 2.016282 1_655
O28 P3 1.525372 1_554
O28 V0 2.008035 1_555
O29 P7 1.556785 1_555
O30 P6 1.539263 1_555
O30 V0 2.050188 1_655
O31 P6 1.598742 1_555
O31 V2 1.871424 1_545
