# generated using pymatgen
data_Na3MnO3
_symmetry_space_group_name_H-M   'P 1'
_cell_length_a   11.70506200
_cell_length_b   6.09500200
_cell_length_c   11.67387372
_cell_angle_alpha   89.16835827
_cell_angle_beta   90.00000000
_cell_angle_gamma   90.00000000
_symmetry_Int_Tables_number   1
_chemical_formula_structural   Na3MnO3
_chemical_formula_sum   'Na24 Mn8 O24'
_cell_volume   832.75416067
_cell_formula_units_Z   8
loop_
 _symmetry_equiv_pos_site_id
 _symmetry_equiv_pos_as_xyz
  1  'x, y, z'
loop_
 _atom_site_type_symbol
 _atom_site_label
 _atom_site_symmetry_multiplicity
 _atom_site_fract_x
 _atom_site_fract_y
 _atom_site_fract_z
 _atom_site_occupancy
  Na  Na0  1  0.04383500  0.13006700  0.62499800  1
  Na  Na1  1  0.32680800  0.02712200  0.74785700  1
  Na  Na2  1  0.79406200  0.20928100  0.53287400  1
  Na  Na3  1  0.45616500  0.13006700  0.12499800  1
  Na  Na4  1  0.17319200  0.02712200  0.24785700  1
  Na  Na5  1  0.70593800  0.20928100  0.03287400  1
  Na  Na6  1  0.20830500  0.27059200  0.96217600  1
  Na  Na7  1  0.69176500  0.38239800  0.75867600  1
  Na  Na8  1  0.95940300  0.37066600  0.87577300  1
  Na  Na9  1  0.29169500  0.27059200  0.46217600  1
  Na  Na10  1  0.80823500  0.38239800  0.25867600  1
  Na  Na11  1  0.54059700  0.37066600  0.37577300  1
  Na  Na12  1  0.45940300  0.62933400  0.62422700  1
  Na  Na13  1  0.19176500  0.61760200  0.74132400  1
  Na  Na14  1  0.70830500  0.72940800  0.53782400  1
  Na  Na15  1  0.04059700  0.62933400  0.12422700  1
  Na  Na16  1  0.30823500  0.61760200  0.24132400  1
  Na  Na17  1  0.79169500  0.72940800  0.03782400  1
  Na  Na18  1  0.29406200  0.79071900  0.96712600  1
  Na  Na19  1  0.82680800  0.97287800  0.75214300  1
  Na  Na20  1  0.54383500  0.86993300  0.87500200  1
  Na  Na21  1  0.20593800  0.79071900  0.46712600  1
  Na  Na22  1  0.67319200  0.97287800  0.25214300  1
  Na  Na23  1  0.95616500  0.86993300  0.37500200  1
  Mn  Mn0  1  0.55175800  0.12482800  0.59293400  1
  Mn  Mn1  1  0.94824200  0.12482800  0.09293400  1
  Mn  Mn2  1  0.44559200  0.40680500  0.89939300  1
  Mn  Mn3  1  0.05440800  0.40680500  0.39939300  1
  Mn  Mn4  1  0.94559200  0.59319500  0.60060700  1
  Mn  Mn5  1  0.55440800  0.59319500  0.10060700  1
  Mn  Mn6  1  0.05175800  0.87517200  0.90706600  1
  Mn  Mn7  1  0.44824200  0.87517200  0.40706600  1
  O  O0  1  0.39957900  0.00915300  0.56867300  1
  O  O1  1  0.13755300  0.00621800  0.79193400  1
  O  O2  1  0.10042100  0.00915300  0.06867300  1
  O  O3  1  0.36244700  0.00621800  0.29193400  1
  O  O4  1  0.39122100  0.12288800  0.92553500  1
  O  O5  1  0.10877900  0.12288800  0.42553500  1
  O  O6  1  0.61501100  0.40359600  0.57532000  1
  O  O7  1  0.88498900  0.40359600  0.07532000  1
  O  O8  1  0.88622700  0.37265800  0.69689400  1
  O  O9  1  0.60163600  0.47186900  0.92627000  1
  O  O10  1  0.61377300  0.37265800  0.19689400  1
  O  O11  1  0.89836400  0.47186900  0.42627000  1
  O  O12  1  0.10163600  0.52813100  0.57373000  1
  O  O13  1  0.38622700  0.62734200  0.80310600  1
  O  O14  1  0.39836400  0.52813100  0.07373000  1
  O  O15  1  0.11377300  0.62734200  0.30310600  1
  O  O16  1  0.11501100  0.59640400  0.92468000  1
  O  O17  1  0.38498900  0.59640400  0.42468000  1
  O  O18  1  0.89122100  0.87711200  0.57446500  1
  O  O19  1  0.60877900  0.87711200  0.07446500  1
  O  O20  1  0.63755300  0.99378200  0.70806600  1
  O  O21  1  0.89957900  0.99084700  0.93132700  1
  O  O22  1  0.86244700  0.99378200  0.20806600  1
  O  O23  1  0.60042100  0.99084700  0.43132700  1
loop_
_geom_bond_atom_site_label_1
_geom_bond_atom_site_label_2
_geom_bond_distance
_geom_bond_site_symmetry_2
Na0 O1 2.351222 1_555
Na0 O18 2.437724 1_445
Na0 O5 2.450444 1_555
Na0 O8 2.515954 1_455
Na0 O12 2.580743 1_555
Na1 O0 2.262675 1_555
Na1 O1 2.277364 1_555
Na1 O4 2.290538 1_555
Na1 O13 2.606032 1_545
Na2 O11 2.354344 1_555
Na2 O18 2.366312 1_545
Na2 O8 2.424252 1_555
Na2 O6 2.461228 1_555
Na2 O23 2.891538 1_545
Na3 O3 2.351222 1_555
Na3 O19 2.437724 1_545
Na3 O4 2.450444 1_554
Na3 O10 2.515954 1_555
Na3 O14 2.580743 1_555
Na4 O2 2.262675 1_555
Na4 O3 2.277364 1_555
Na4 O5 2.290538 1_555
Na4 O15 2.606032 1_545
Na5 O9 2.354344 1_554
Na5 O19 2.366312 1_545
Na5 O10 2.424252 1_555
Na5 O7 2.461228 1_555
Na5 O21 2.891538 1_544
Na6 O16 2.302685 1_555
Na6 O4 2.364037 1_555
Na6 O2 2.371056 1_556
Na6 O1 2.706470 1_555
Na7 O9 2.295448 1_555
Na7 O6 2.323239 1_555
Na7 O8 2.388721 1_555
Na7 O20 2.530352 1_545
Na8 O8 2.256918 1_555
Na8 O16 2.357817 1_655
Na8 O21 2.495308 1_545
Na8 O7 2.497807 1_556
Na9 O17 2.302685 1_555
Na9 O5 2.364037 1_555
Na9 O0 2.371056 1_555
Na9 O3 2.706470 1_555
Na10 O11 2.295448 1_555
Na10 O7 2.323239 1_555
Na10 O10 2.388721 1_555
Na10 O22 2.530352 1_545
Na11 O10 2.256918 1_555
Na11 O17 2.357817 1_555
Na11 O23 2.495308 1_545
Na11 O6 2.497807 1_555
Na12 O13 2.256918 1_555
Na12 O6 2.357817 1_555
Na12 O0 2.495308 1_565
Na12 O17 2.497807 1_555
Na13 O12 2.295448 1_555
Na13 O16 2.323239 1_555
Na13 O13 2.388721 1_555
Na13 O1 2.530352 1_565
Na14 O6 2.302685 1_555
Na14 O18 2.364037 1_555
Na14 O23 2.371056 1_555
Na14 O20 2.706470 1_555
Na15 O15 2.256918 1_555
Na15 O7 2.357817 1_455
Na15 O2 2.495308 1_565
Na15 O16 2.497807 1_554
Na16 O14 2.295448 1_555
Na16 O17 2.323239 1_555
Na16 O15 2.388721 1_555
Na16 O3 2.530352 1_565
Na17 O7 2.302685 1_555
Na17 O19 2.364037 1_555
Na17 O21 2.371056 1_554
Na17 O22 2.706470 1_555
Na18 O14 2.354344 1_556
Na18 O4 2.366312 1_565
Na18 O13 2.424252 1_555
Na18 O16 2.461228 1_555
Na18 O2 2.891538 1_566
Na19 O21 2.262675 1_555
Na19 O20 2.277364 1_555
Na19 O18 2.290538 1_555
Na19 O8 2.606032 1_565
Na20 O20 2.351222 1_555
Na20 O4 2.437724 1_565
Na20 O19 2.450444 1_556
Na20 O13 2.515954 1_555
Na20 O9 2.580743 1_555
Na21 O12 2.354344 1_555
Na21 O5 2.366312 1_565
Na21 O15 2.424252 1_555
Na21 O17 2.461228 1_555
Na21 O0 2.891538 1_565
Na22 O23 2.262675 1_555
Na22 O22 2.277364 1_555
Na22 O19 2.290538 1_555
Na22 O10 2.606032 1_565
Na23 O22 2.351222 1_555
Na23 O5 2.437724 1_665
Na23 O18 2.450444 1_555
Na23 O15 2.515954 1_655
Na23 O11 2.580743 1_555
Mn0 O20 1.849790 1_545
Mn0 O6 1.862046 1_555
Mn0 O0 1.938039 1_555
Mn0 O23 2.143645 1_545
Mn1 O22 1.849790 1_545
Mn1 O7 1.862046 1_555
Mn1 O2 1.938039 1_655
Mn1 O21 2.143645 1_544
Mn2 O4 1.864771 1_555
Mn2 O13 1.873302 1_555
Mn2 O9 1.896165 1_555
Mn2 O14 2.244573 1_556
Mn3 O5 1.864771 1_555
Mn3 O15 1.873302 1_555
Mn3 O11 1.896165 1_455
Mn3 O12 2.244573 1_555
Mn4 O18 1.864771 1_555
Mn4 O8 1.873302 1_555
Mn4 O12 1.896165 1_655
Mn4 O11 2.244573 1_555
Mn5 O19 1.864771 1_555
Mn5 O10 1.873302 1_555
Mn5 O14 1.896165 1_555
Mn5 O9 2.244573 1_554
Mn6 O1 1.849790 1_565
Mn6 O16 1.862046 1_555
Mn6 O21 1.938039 1_455
Mn6 O2 2.143645 1_566
Mn7 O3 1.849790 1_565
Mn7 O17 1.862046 1_555
Mn7 O23 1.938039 1_555
Mn7 O0 2.143645 1_565
