# generated using pymatgen
data_NaNi3O4
_symmetry_space_group_name_H-M   'P 1'
_cell_length_a   5.21747625
_cell_length_b   10.00764619
_cell_length_c   3.00809389
_cell_angle_alpha   97.64635288
_cell_angle_beta   90.81727644
_cell_angle_gamma   86.16548400
_symmetry_Int_Tables_number   1
_chemical_formula_structural   NaNi3O4
_chemical_formula_sum   'Na2 Ni6 O8'
_cell_volume   155.31921191
_cell_formula_units_Z   2
loop_
 _symmetry_equiv_pos_site_id
 _symmetry_equiv_pos_as_xyz
  1  'x, y, z'
loop_
 _atom_site_type_symbol
 _atom_site_label
 _atom_site_symmetry_multiplicity
 _atom_site_fract_x
 _atom_site_fract_y
 _atom_site_fract_z
 _atom_site_occupancy
  Na  Na0  1  0.37833400  0.75007300  0.85954200  1
  Na  Na1  1  0.62166600  0.24992700  0.14045800  1
  Ni  Ni0  1  0.00000000  0.00000000  0.00000000  1
  Ni  Ni1  1  0.12431500  0.25062700  0.62960400  1
  Ni  Ni2  1  0.25004200  0.50504900  0.24767700  1
  Ni  Ni3  1  0.50000000  0.00000000  0.50000000  1
  Ni  Ni4  1  0.74995800  0.49495100  0.75232300  1
  Ni  Ni5  1  0.87568500  0.74937300  0.37039600  1
  O  O0  1  0.03898700  0.62077600  0.81120900  1
  O  O1  1  0.16404600  0.89063000  0.41228900  1
  O  O2  1  0.28829600  0.11436400  0.05778800  1
  O  O3  1  0.41294800  0.39232700  0.69630700  1
  O  O4  1  0.58705200  0.60767300  0.30369300  1
  O  O5  1  0.83595400  0.10937000  0.58771100  1
  O  O6  1  0.71170400  0.88563600  0.94221200  1
  O  O7  1  0.96101300  0.37922400  0.18879100  1
loop_
_geom_bond_atom_site_label_1
_geom_bond_atom_site_label_2
_geom_bond_distance
_geom_bond_site_symmetry_2
Na0 O0 2.253725 1_555
Na0 O6 2.267425 1_555
Na0 O1 2.283324 1_556
Na0 O4 2.285337 1_555
Na0 O4 2.293337 1_556
Na0 O1 2.299799 1_555
Na1 O7 2.253725 1_555
Na1 O2 2.267425 1_555
Na1 O5 2.283324 1_554
Na1 O3 2.285337 1_555
Na1 O3 2.293337 1_554
Na1 O5 2.299799 1_555
Ni0 O1 1.916859 1_545
Ni0 O5 1.916859 1_454
Ni0 O2 1.942301 1_555
Ni0 O6 1.942301 1_444
Ni0 O1 2.111621 1_544
Ni0 O5 2.111621 1_455
Ni1 O7 2.101364 1_455
Ni1 O5 2.123560 1_455
Ni1 O3 2.126112 1_555
Ni1 O7 2.128322 1_456
Ni1 O2 2.128501 1_556
Ni1 O2 2.193624 1_555
Ni2 O3 2.015036 1_555
Ni2 O7 2.019421 1_455
Ni2 O3 2.039590 1_554
Ni2 O4 2.088532 1_555
Ni2 O0 2.114366 1_554
Ni2 O0 2.188078 1_555
Ni3 O2 2.119809 1_555
Ni3 O6 2.119809 1_545
Ni3 O1 2.122876 1_545
Ni3 O5 2.122876 1_555
Ni3 O6 2.172094 1_544
Ni3 O2 2.172094 1_556
Ni4 O4 2.015036 1_555
Ni4 O0 2.019421 1_655
Ni4 O4 2.039590 1_556
Ni4 O3 2.088532 1_555
Ni4 O7 2.114366 1_556
Ni4 O7 2.188078 1_555
Ni5 O0 2.101364 1_655
Ni5 O1 2.123560 1_655
Ni5 O4 2.126112 1_555
Ni5 O0 2.128322 1_654
Ni5 O6 2.128501 1_554
Ni5 O6 2.193624 1_555
