# generated using pymatgen
data_Ni3OF5
_symmetry_space_group_name_H-M   'P 1'
_cell_length_a   5.62698948
_cell_length_b   5.62698948
_cell_length_c   7.28440981
_cell_angle_alpha   72.78738557
_cell_angle_beta   72.78738557
_cell_angle_gamma   73.13765929
_symmetry_Int_Tables_number   1
_chemical_formula_structural   Ni3OF5
_chemical_formula_sum   'Ni6 O2 F10'
_cell_volume   205.20062935
_cell_formula_units_Z   2
loop_
 _symmetry_equiv_pos_site_id
 _symmetry_equiv_pos_as_xyz
  1  'x, y, z'
loop_
 _atom_site_type_symbol
 _atom_site_label
 _atom_site_symmetry_multiplicity
 _atom_site_fract_x
 _atom_site_fract_y
 _atom_site_fract_z
 _atom_site_occupancy
  Ni  Ni0  1  0.33456600  0.33456600  0.16582900  1
  Ni  Ni1  1  0.32442100  0.32442100  0.66314600  1
  Ni  Ni2  1  0.00000000  0.00000000  0.00000000  1
  Ni  Ni3  1  0.00000000  0.00000000  0.50000000  1
  Ni  Ni4  1  0.66543400  0.66543400  0.83417100  1
  Ni  Ni5  1  0.67557900  0.67557900  0.33685400  1
  O  O0  1  0.90361100  0.90361100  0.29556600  1
  O  O1  1  0.09638900  0.09638900  0.70443400  1
  F  F0  1  0.63164700  0.02656500  0.66464600  1
  F  F1  1  0.30381200  0.69618800  0.00000000  1
  F  F2  1  0.23351900  0.23351900  0.96371900  1
  F  F3  1  0.55938700  0.55938700  0.63447300  1
  F  F4  1  0.44061300  0.44061300  0.36552700  1
  F  F5  1  0.76648100  0.76648100  0.03628100  1
  F  F6  1  0.36835300  0.97343500  0.33535400  1
  F  F7  1  0.02656500  0.63164700  0.66464600  1
  F  F8  1  0.69618800  0.30381200  0.00000000  1
  F  F9  1  0.97343500  0.36835300  0.33535400  1
loop_
_geom_bond_atom_site_label_1
_geom_bond_atom_site_label_2
_geom_bond_distance
_geom_bond_site_symmetry_2
Ni1 O1 1.970202 1_555
Ni2 O1 2.003069 1_554
Ni2 O0 2.003069 1_445
Ni3 O1 1.983112 1_555
Ni3 O0 1.983112 1_445
Ni5 O0 1.970202 1_555
F0 Ni1 2.029089 1_555
F0 Ni4 2.029806 1_545
F0 Ni3 2.052327 1_655
F1 Ni0 2.023462 1_555
F1 Ni4 2.023462 1_554
F1 Ni2 2.037055 1_565
F2 Ni0 1.998134 1_556
F2 Ni2 2.028231 1_556
F2 Ni1 2.035514 1_555
F3 Ni4 2.015521 1_555
F3 Ni5 2.031076 1_555
F3 Ni1 2.055982 1_555
F4 Ni0 2.015521 1_555
F4 Ni1 2.031076 1_555
F4 Ni5 2.055982 1_555
F5 Ni4 1.998134 1_554
F5 Ni2 2.028231 1_665
F5 Ni5 2.035514 1_555
F6 Ni5 2.029089 1_555
F6 Ni0 2.029806 1_565
F6 Ni3 2.052327 1_565
F7 Ni1 2.029089 1_555
F7 Ni4 2.029806 1_455
F7 Ni3 2.052327 1_565
F8 Ni0 2.023462 1_555
F8 Ni4 2.023462 1_554
F8 Ni2 2.037055 1_655
F9 Ni5 2.029089 1_555
F9 Ni0 2.029806 1_655
F9 Ni3 2.052327 1_655
