# generated using pymatgen
data_Dy2Ge2O7
_symmetry_space_group_name_H-M   'P 1'
_cell_length_a   5.29134000
_cell_length_b   8.31430100
_cell_length_c   13.95156000
_cell_angle_alpha   90.00000000
_cell_angle_beta   90.00000000
_cell_angle_gamma   90.00000000
_symmetry_Int_Tables_number   1
_chemical_formula_structural   Dy2Ge2O7
_chemical_formula_sum   'Dy8 Ge8 O28'
_cell_volume   613.78204899
_cell_formula_units_Z   4
loop_
 _symmetry_equiv_pos_site_id
 _symmetry_equiv_pos_as_xyz
  1  'x, y, z'
loop_
 _atom_site_type_symbol
 _atom_site_label
 _atom_site_symmetry_multiplicity
 _atom_site_fract_x
 _atom_site_fract_y
 _atom_site_fract_z
 _atom_site_occupancy
  Dy  Dy0  1  0.83690600  0.48543200  0.62460800  1
  Dy  Dy1  1  0.83690600  0.01456800  0.62460800  1
  Dy  Dy2  1  0.33690600  0.51456800  0.87539200  1
  Dy  Dy3  1  0.33690600  0.98543200  0.87539200  1
  Dy  Dy4  1  0.66309400  0.48543200  0.12460800  1
  Dy  Dy5  1  0.66309400  0.01456800  0.12460800  1
  Dy  Dy6  1  0.16309400  0.51456800  0.37539200  1
  Dy  Dy7  1  0.16309400  0.98543200  0.37539200  1
  Ge  Ge0  1  0.36940700  0.75000000  0.54930000  1
  Ge  Ge1  1  0.36769800  0.25000000  0.68654400  1
  Ge  Ge2  1  0.86769800  0.75000000  0.81345600  1
  Ge  Ge3  1  0.86940700  0.25000000  0.95070000  1
  Ge  Ge4  1  0.13059300  0.75000000  0.04930000  1
  Ge  Ge5  1  0.13230200  0.25000000  0.18654400  1
  Ge  Ge6  1  0.63230200  0.75000000  0.31345600  1
  Ge  Ge7  1  0.63059300  0.25000000  0.45070000  1
  O  O0  1  0.19440200  0.92832600  0.54989300  1
  O  O1  1  0.19440200  0.57167400  0.54989300  1
  O  O2  1  0.57824300  0.25000000  0.58257900  1
  O  O3  1  0.66443600  0.75000000  0.60759200  1
  O  O4  1  0.04880200  0.25000000  0.65516800  1
  O  O5  1  0.49478600  0.42785200  0.73630500  1
  O  O6  1  0.49478600  0.07214800  0.73630500  1
  O  O7  1  0.99478600  0.57214800  0.76369500  1
  O  O8  1  0.99478600  0.92785200  0.76369500  1
  O  O9  1  0.54880200  0.75000000  0.84483200  1
  O  O10  1  0.16443600  0.25000000  0.89240800  1
  O  O11  1  0.07824300  0.75000000  0.91742100  1
  O  O12  1  0.69440200  0.07167400  0.95010700  1
  O  O13  1  0.69440200  0.42832600  0.95010700  1
  O  O14  1  0.30559800  0.92832600  0.04989300  1
  O  O15  1  0.30559800  0.57167400  0.04989300  1
  O  O16  1  0.92175700  0.25000000  0.08257900  1
  O  O17  1  0.83556400  0.75000000  0.10759200  1
  O  O18  1  0.45119800  0.25000000  0.15516800  1
  O  O19  1  0.00521400  0.42785200  0.23630500  1
  O  O20  1  0.00521400  0.07214800  0.23630500  1
  O  O21  1  0.50521400  0.57214800  0.26369500  1
  O  O22  1  0.50521400  0.92785200  0.26369500  1
  O  O23  1  0.95119800  0.75000000  0.34483200  1
  O  O24  1  0.33556400  0.25000000  0.39240800  1
  O  O25  1  0.42175700  0.75000000  0.41742100  1
  O  O26  1  0.80559800  0.07167400  0.45010700  1
  O  O27  1  0.80559800  0.42832600  0.45010700  1
loop_
_geom_bond_atom_site_label_1
_geom_bond_atom_site_label_2
_geom_bond_distance
_geom_bond_site_symmetry_2
Dy0 O7 2.232301 1_555
Dy0 O1 2.275742 1_655
Dy0 O4 2.295762 1_655
Dy0 O3 2.393296 1_555
Dy0 O5 2.436129 1_555
Dy0 O2 2.459414 1_555
Dy0 O27 2.485953 1_555
Dy1 O8 2.232301 1_545
Dy1 O0 2.275742 1_645
Dy1 O4 2.295762 1_655
Dy1 O3 2.393296 1_545
Dy1 O6 2.436129 1_555
Dy1 O2 2.459414 1_555
Dy1 O26 2.485953 1_555
Dy2 O5 2.232301 1_555
Dy2 O13 2.275742 1_555
Dy2 O9 2.295762 1_555
Dy2 O10 2.393296 1_555
Dy2 O7 2.436129 1_455
Dy2 O11 2.459414 1_555
Dy2 O15 2.485953 1_556
Dy3 O6 2.232301 1_565
Dy3 O12 2.275742 1_565
Dy3 O9 2.295762 1_555
Dy3 O10 2.393296 1_565
Dy3 O8 2.436129 1_455
Dy3 O11 2.459414 1_555
Dy3 O14 2.485953 1_556
Dy4 O21 2.232301 1_555
Dy4 O15 2.275742 1_555
Dy4 O18 2.295762 1_555
Dy4 O17 2.393296 1_555
Dy4 O19 2.436129 1_655
Dy4 O16 2.459414 1_555
Dy4 O13 2.485953 1_554
Dy5 O22 2.232301 1_545
Dy5 O14 2.275742 1_545
Dy5 O18 2.295762 1_555
Dy5 O17 2.393296 1_545
Dy5 O20 2.436129 1_655
Dy5 O16 2.459414 1_555
Dy5 O12 2.485953 1_554
Dy6 O19 2.232301 1_555
Dy6 O27 2.275742 1_455
Dy6 O23 2.295762 1_455
Dy6 O24 2.393296 1_555
Dy6 O21 2.436129 1_555
Dy6 O25 2.459414 1_555
Dy6 O1 2.485953 1_555
Dy7 O20 2.232301 1_565
Dy7 O26 2.275742 1_465
Dy7 O23 2.295762 1_455
Dy7 O24 2.393296 1_565
Dy7 O22 2.436129 1_555
Dy7 O25 2.459414 1_555
Dy7 O0 2.485953 1_555
Ge0 O0 1.748094 1_555
Ge0 O1 1.748094 1_555
Ge0 O3 1.760235 1_555
Ge0 O25 1.860652 1_555
Ge1 O4 1.743243 1_555
Ge1 O5 1.766574 1_555
Ge1 O6 1.766574 1_555
Ge1 O2 1.828938 1_555
Ge2 O9 1.743243 1_555
Ge2 O8 1.766574 1_555
Ge2 O7 1.766574 1_555
Ge2 O11 1.828938 1_655
Ge3 O13 1.748094 1_555
Ge3 O12 1.748094 1_555
Ge3 O10 1.760235 1_655
Ge3 O16 1.860652 1_556
Ge4 O14 1.748094 1_555
Ge4 O15 1.748094 1_555
Ge4 O17 1.760235 1_455
Ge4 O11 1.860652 1_554
Ge5 O18 1.743243 1_555
Ge5 O19 1.766574 1_555
Ge5 O20 1.766574 1_555
Ge5 O16 1.828938 1_455
Ge6 O23 1.743243 1_555
Ge6 O22 1.766574 1_555
Ge6 O21 1.766574 1_555
Ge6 O25 1.828938 1_555
Ge7 O26 1.748094 1_555
Ge7 O27 1.748094 1_555
Ge7 O24 1.760235 1_555
Ge7 O2 1.860652 1_555
