# generated using pymatgen
data_Ca2Mn(AsO5)2
_symmetry_space_group_name_H-M   'P 1'
_cell_length_a   13.56285100
_cell_length_b   5.46326200
_cell_length_c   5.77224635
_cell_angle_alpha   75.67207611
_cell_angle_beta   90.00000000
_cell_angle_gamma   90.00000000
_symmetry_Int_Tables_number   1
_chemical_formula_structural   Ca2Mn(AsO5)2
_chemical_formula_sum   'Ca4 Mn2 As4 O20'
_cell_volume   414.40472460
_cell_formula_units_Z   2
loop_
 _symmetry_equiv_pos_site_id
 _symmetry_equiv_pos_as_xyz
  1  'x, y, z'
loop_
 _atom_site_type_symbol
 _atom_site_label
 _atom_site_symmetry_multiplicity
 _atom_site_fract_x
 _atom_site_fract_y
 _atom_site_fract_z
 _atom_site_occupancy
  Ca  Ca0  1  0.35780100  0.29923400  0.54914800  1
  Ca  Ca1  1  0.85780100  0.20076600  0.45085200  1
  Ca  Ca2  1  0.64219900  0.70076600  0.45085200  1
  Ca  Ca3  1  0.14219900  0.79923400  0.54914800  1
  Mn  Mn0  1  0.50000000  0.50000000  0.00000000  1
  Mn  Mn1  1  0.00000000  0.00000000  0.00000000  1
  As  As0  1  0.37717000  0.95210200  0.17560900  1
  As  As1  1  0.87717000  0.54789800  0.82439100  1
  As  As2  1  0.62283000  0.04789800  0.82439100  1
  As  As3  1  0.12283000  0.45210200  0.17560900  1
  O  O0  1  0.33082400  0.01060400  0.89826700  1
  O  O1  1  0.83082400  0.48939600  0.10173300  1
  O  O2  1  0.66917600  0.98939600  0.10173300  1
  O  O3  1  0.16917600  0.51060400  0.89826700  1
  O  O4  1  0.44713300  0.67030200  0.24736200  1
  O  O5  1  0.94713300  0.82969800  0.75263800  1
  O  O6  1  0.55286700  0.32969800  0.75263800  1
  O  O7  1  0.05286700  0.17030200  0.24736200  1
  O  O8  1  0.45822100  0.18597700  0.22866400  1
  O  O9  1  0.95822100  0.31402300  0.77133600  1
  O  O10  1  0.54177900  0.81402300  0.77133600  1
  O  O11  1  0.04177900  0.68597700  0.22866400  1
  O  O12  1  0.29706700  0.93816800  0.40611000  1
  O  O13  1  0.79706700  0.56183200  0.59389000  1
  O  O14  1  0.70293300  0.06183200  0.59389000  1
  O  O15  1  0.20293300  0.43816800  0.40611000  1
  O  O16  1  0.38977600  0.52481000  0.84508600  1
  O  O17  1  0.88977600  0.97519000  0.15491400  1
  O  O18  1  0.61022400  0.47519000  0.15491400  1
  O  O19  1  0.11022400  0.02481000  0.84508600  1
loop_
_geom_bond_atom_site_label_1
_geom_bond_atom_site_label_2
_geom_bond_distance
_geom_bond_site_symmetry_2
Ca0 O0 2.260226 1_555
Ca0 O15 2.315070 1_555
Ca0 O16 2.380508 1_555
Ca0 O12 2.461193 1_545
Ca0 O8 2.495307 1_555
Ca0 O4 2.619987 1_555
Ca0 O6 2.916093 1_555
Ca1 O1 2.260226 1_555
Ca1 O14 2.315070 1_555
Ca1 O17 2.380508 1_545
Ca1 O13 2.461193 1_555
Ca1 O9 2.495307 1_555
Ca1 O5 2.619987 1_545
Ca1 O7 2.916093 1_655
Ca2 O2 2.260226 1_555
Ca2 O13 2.315070 1_555
Ca2 O18 2.380508 1_555
Ca2 O14 2.461193 1_565
Ca2 O10 2.495307 1_555
Ca2 O6 2.619987 1_555
Ca2 O4 2.916093 1_555
Ca3 O3 2.260226 1_555
Ca3 O12 2.315070 1_555
Ca3 O19 2.380508 1_565
Ca3 O15 2.461193 1_555
Ca3 O11 2.495307 1_555
Ca3 O7 2.619987 1_565
Ca3 O5 2.916093 1_455
Mn0 O18 1.729989 1_555
Mn0 O16 1.729989 1_554
Mn0 O10 1.971224 1_554
Mn0 O8 1.971224 1_555
Mn0 O6 2.018912 1_554
Mn0 O4 2.018912 1_555
Mn1 O17 1.729989 1_445
Mn1 O19 1.729989 1_554
Mn1 O9 1.971224 1_454
Mn1 O11 1.971224 1_545
Mn1 O5 2.018912 1_444
Mn1 O7 2.018912 1_555
As0 O0 1.675370 1_564
As0 O12 1.704769 1_555
As0 O4 1.768207 1_555
As0 O8 1.768742 1_565
As1 O1 1.675370 1_556
As1 O13 1.704769 1_555
As1 O5 1.768207 1_555
As1 O9 1.768742 1_555
As2 O2 1.675370 1_546
As2 O14 1.704769 1_555
As2 O6 1.768207 1_555
As2 O10 1.768742 1_545
As3 O3 1.675370 1_554
As3 O15 1.704769 1_555
As3 O7 1.768207 1_555
As3 O11 1.768742 1_555
