# generated using pymatgen
data_Na(FeO2)2
_symmetry_space_group_name_H-M   'P 1'
_cell_length_a   6.11263208
_cell_length_b   6.11263208
_cell_length_c   6.11263208
_cell_angle_alpha   120.65505962
_cell_angle_beta   119.17544272
_cell_angle_gamma   90.15161601
_symmetry_Int_Tables_number   1
_chemical_formula_structural   Na(FeO2)2
_chemical_formula_sum   'Na2 Fe4 O8'
_cell_volume   161.67164691
_cell_formula_units_Z   2
loop_
 _symmetry_equiv_pos_site_id
 _symmetry_equiv_pos_as_xyz
  1  'x, y, z'
loop_
 _atom_site_type_symbol
 _atom_site_label
 _atom_site_symmetry_multiplicity
 _atom_site_fract_x
 _atom_site_fract_y
 _atom_site_fract_z
 _atom_site_occupancy
  Na  Na0  1  0.87455800  0.12455800  0.75000000  1
  Na  Na1  1  0.12544200  0.87544200  0.25000000  1
  Fe  Fe0  1  0.00000000  0.50000000  0.50000000  1
  Fe  Fe1  1  0.50000000  0.00000000  0.00000000  1
  Fe  Fe2  1  0.50000000  0.50000000  0.00000000  1
  Fe  Fe3  1  0.50000000  0.50000000  0.50000000  1
  O  O0  1  0.72214700  0.25234600  0.03019900  1
  O  O1  1  0.71602200  0.26220300  0.45381900  1
  O  O2  1  0.72214700  0.69194700  0.46980100  1
  O  O3  1  0.30838400  0.26220300  0.04618100  1
  O  O4  1  0.69161600  0.73779700  0.95381900  1
  O  O5  1  0.27785300  0.30805300  0.53019900  1
  O  O6  1  0.27785300  0.74765400  0.96980100  1
  O  O7  1  0.28397800  0.73779700  0.54618100  1
loop_
_geom_bond_atom_site_label_1
_geom_bond_atom_site_label_2
_geom_bond_distance
_geom_bond_site_symmetry_2
Na0 O0 2.146371 1_556
Na0 O2 2.146377 1_545
Na0 O1 2.184450 1_555
Na0 O3 2.184450 1_656
Na1 O6 2.146371 1_554
Na1 O5 2.146377 1_565
Na1 O4 2.184450 1_454
Na1 O7 2.184450 1_555
Fe0 O5 2.054520 1_555
Fe0 O2 2.054520 1_455
Fe0 O6 2.054524 1_555
Fe0 O0 2.054524 1_455
Fe0 O7 2.072729 1_555
Fe0 O1 2.072729 1_455
Fe1 O0 1.926511 1_555
Fe1 O6 1.926511 1_544
Fe1 O3 1.972643 1_555
Fe1 O1 1.972643 1_555
Fe1 O7 1.972643 1_544
Fe1 O4 1.972643 1_544
Fe2 O6 2.054524 1_554
Fe2 O0 2.054524 1_555
Fe2 O2 2.054525 1_555
Fe2 O5 2.054525 1_554
Fe2 O4 2.072729 1_554
Fe2 O3 2.072729 1_555
Fe3 O2 1.926507 1_555
Fe3 O5 1.926507 1_555
Fe3 O7 1.972643 1_555
Fe3 O1 1.972643 1_555
Fe3 O4 1.972643 1_555
Fe3 O3 1.972643 1_555
