# generated using pymatgen
data_Li2H12C3SN6O7
_symmetry_space_group_name_H-M   'P 1'
_cell_length_a   9.86940430
_cell_length_b   9.86940430
_cell_length_c   8.11463286
_cell_angle_alpha   70.77175018
_cell_angle_beta   70.77175018
_cell_angle_gamma   56.98574861
_symmetry_Int_Tables_number   1
_chemical_formula_structural   Li2H12C3SN6O7
_chemical_formula_sum   'Li4 H24 C6 S2 N12 O14'
_cell_volume   614.49231623
_cell_formula_units_Z   2
loop_
 _symmetry_equiv_pos_site_id
 _symmetry_equiv_pos_as_xyz
  1  'x, y, z'
loop_
 _atom_site_type_symbol
 _atom_site_label
 _atom_site_symmetry_multiplicity
 _atom_site_fract_x
 _atom_site_fract_y
 _atom_site_fract_z
 _atom_site_occupancy
  Li  Li0  1  0.24328300  0.61928800  0.66168200  1
  Li  Li1  1  0.38071200  0.75671700  0.83831800  1
  Li  Li2  1  0.75671700  0.38071200  0.33831800  1
  Li  Li3  1  0.61928800  0.24328300  0.16168200  1
  H  H0  1  0.75976300  0.64456300  0.59587900  1
  H  H1  1  0.35543700  0.24023700  0.90412100  1
  H  H2  1  0.24023700  0.35543700  0.40412100  1
  H  H3  1  0.64456300  0.75976300  0.09587900  1
  H  H4  1  0.88717300  0.73608800  0.49871400  1
  H  H5  1  0.26391200  0.11282700  0.00128600  1
  H  H6  1  0.11282700  0.26391200  0.50128600  1
  H  H7  1  0.73608800  0.88717300  0.99871400  1
  H  H8  1  0.76842700  0.49479800  0.88546900  1
  H  H9  1  0.50520200  0.23157300  0.61453100  1
  H  H10  1  0.23157300  0.50520200  0.11453100  1
  H  H11  1  0.49479800  0.76842700  0.38546900  1
  H  H12  1  0.92536300  0.44315400  0.98584600  1
  H  H13  1  0.55684600  0.07463700  0.51415400  1
  H  H14  1  0.07463700  0.55684600  0.01415400  1
  H  H15  1  0.44315400  0.92536300  0.48584600  1
  H  H16  1  0.13511800  0.07648500  0.79919100  1
  H  H17  1  0.92351500  0.86488200  0.70080900  1
  H  H18  1  0.86488200  0.92351500  0.20080900  1
  H  H19  1  0.07648500  0.13511800  0.29919100  1
  H  H20  1  0.92225500  0.18738800  0.79695900  1
  H  H21  1  0.81261200  0.07774500  0.70304100  1
  H  H22  1  0.07774500  0.81261200  0.20304100  1
  H  H23  1  0.18738800  0.92225500  0.29695900  1
  C  C0  1  0.92788200  0.58529200  0.74059100  1
  C  C1  1  0.41470800  0.07211800  0.75940900  1
  C  C2  1  0.07211800  0.41470800  0.25940900  1
  C  C3  1  0.58529200  0.92788200  0.24059100  1
  C  C4  1  0.04923200  0.95076800  0.75000000  1
  C  C5  1  0.95076800  0.04923200  0.25000000  1
  S  S0  1  0.58609100  0.41390900  0.75000000  1
  S  S1  1  0.41390900  0.58609100  0.25000000  1
  N  N0  1  0.84798200  0.66595200  0.60217700  1
  N  N1  1  0.33404800  0.15201800  0.89782300  1
  N  N2  1  0.15201800  0.33404800  0.39782300  1
  N  N3  1  0.66595200  0.84798200  0.10217700  1
  N  N4  1  0.87935200  0.48541000  0.87282700  1
  N  N5  1  0.51459000  0.12064800  0.62717300  1
  N  N6  1  0.12064800  0.51459000  0.12717300  1
  N  N7  1  0.48541000  0.87935200  0.37282700  1
  N  N8  1  0.03663300  0.08937300  0.76806300  1
  N  N9  1  0.91062700  0.96336700  0.73193700  1
  N  N10  1  0.96336700  0.91062700  0.23193700  1
  N  N11  1  0.08937300  0.03663300  0.26806300  1
  O  O0  1  0.69008900  0.33173500  0.59431700  1
  O  O1  1  0.66826500  0.30991100  0.90568300  1
  O  O2  1  0.30991100  0.66826500  0.40568300  1
  O  O3  1  0.33173500  0.69008900  0.09431700  1
  O  O4  1  0.41932800  0.43046600  0.78743100  1
  O  O5  1  0.56953400  0.58067200  0.71256900  1
  O  O6  1  0.58067200  0.56953400  0.21256900  1
  O  O7  1  0.43046600  0.41932800  0.28743100  1
  O  O8  1  0.04381400  0.60282800  0.74841500  1
  O  O9  1  0.39717200  0.95618600  0.75158500  1
  O  O10  1  0.95618600  0.39717200  0.25158500  1
  O  O11  1  0.60282800  0.04381400  0.24841500  1
  O  O12  1  0.18409100  0.81590900  0.75000000  1
  O  O13  1  0.81590900  0.18409100  0.25000000  1
loop_
_geom_bond_atom_site_label_1
_geom_bond_atom_site_label_2
_geom_bond_distance
_geom_bond_site_symmetry_2
Li0 O8 1.938519 1_555
Li0 O2 1.940781 1_555
Li0 O4 1.979853 1_555
Li0 O12 2.006362 1_555
Li1 O9 1.938519 1_555
Li1 O3 1.940781 1_556
Li1 O5 1.979853 1_555
Li1 O12 2.006362 1_555
Li2 O10 1.938519 1_555
Li2 O0 1.940781 1_555
Li2 O6 1.979853 1_555
Li2 O13 2.006362 1_555
Li3 O11 1.938519 1_555
Li3 O1 1.940781 1_554
Li3 O7 1.979853 1_555
Li3 O13 2.006362 1_555
H0 N0 1.020751 1_555
H1 N1 1.020751 1_555
H2 N2 1.020751 1_555
H3 N3 1.020751 1_555
H4 N0 1.014247 1_555
H5 N1 1.014247 1_554
H6 N2 1.014247 1_555
H7 N3 1.014247 1_556
H8 N4 1.019496 1_555
H9 N5 1.019496 1_555
H10 N6 1.019496 1_555
H11 N7 1.019496 1_555
H12 N4 1.018449 1_555
H13 N5 1.018449 1_555
H14 N6 1.018449 1_555
H15 N7 1.018449 1_555
H16 N8 1.015170 1_555
H17 N9 1.015170 1_555
H18 N10 1.015170 1_555
H19 N11 1.015170 1_555
H20 N8 1.024773 1_655
H21 N9 1.024773 1_545
H22 N10 1.024773 1_455
H23 N11 1.024773 1_565
C0 O8 1.270433 1_655
C0 N0 1.351844 1_555
C0 N4 1.353456 1_555
C1 O9 1.270433 1_545
C1 N1 1.351844 1_555
C1 N5 1.353456 1_555
C2 O10 1.270433 1_455
C2 N2 1.351844 1_555
C2 N6 1.353456 1_555
C3 O11 1.270433 1_565
C3 N3 1.351844 1_555
C3 N7 1.353456 1_555
C4 O12 1.269885 1_555
C4 N8 1.357548 1_565
C4 N9 1.357548 1_455
C5 O13 1.269885 1_555
C5 N11 1.357548 1_655
C5 N10 1.357548 1_545
O0 S0 1.490260 1_555
O1 S0 1.490260 1_555
O2 S1 1.490260 1_555
O3 S1 1.490260 1_555
O4 S0 1.496041 1_555
O5 S0 1.496041 1_555
O6 S1 1.496041 1_555
O7 S1 1.496041 1_555
