# generated using pymatgen
data_Li4Ti3Nb3V2O16
_symmetry_space_group_name_H-M   'P 1'
_cell_length_a   6.07192503
_cell_length_b   6.07192503
_cell_length_c   10.02019690
_cell_angle_alpha   89.70673398
_cell_angle_beta   89.70673398
_cell_angle_gamma   59.36157179
_symmetry_Int_Tables_number   1
_chemical_formula_structural   Li4Ti3Nb3V2O16
_chemical_formula_sum   'Li4 Ti3 Nb3 V2 O16'
_cell_volume   317.84993993
_cell_formula_units_Z   1
loop_
 _symmetry_equiv_pos_site_id
 _symmetry_equiv_pos_as_xyz
  1  'x, y, z'
loop_
 _atom_site_type_symbol
 _atom_site_label
 _atom_site_symmetry_multiplicity
 _atom_site_fract_x
 _atom_site_fract_y
 _atom_site_fract_z
 _atom_site_occupancy
  Li  Li0  1  0.66808100  0.66808100  0.89889000  1
  Li  Li1  1  0.00713600  0.00713600  0.99632200  1
  Li  Li2  1  0.00416200  0.00416200  0.49765800  1
  Li  Li3  1  0.33164000  0.33164000  0.38867800  1
  Ti  Ti0  1  0.83203800  0.33604400  0.21616500  1
  Ti  Ti1  1  0.33604400  0.83203800  0.21616500  1
  Ti  Ti2  1  0.16283200  0.16283200  0.71824100  1
  Nb  Nb0  1  0.83130700  0.83130700  0.21381700  1
  Nb  Nb1  1  0.64415700  0.18819200  0.71147400  1
  Nb  Nb2  1  0.18819200  0.64415700  0.71147400  1
  V  V0  1  0.66915800  0.66915800  0.48393800  1
  V  V1  1  0.33239500  0.33239500  0.99045000  1
  O  O0  1  0.84175700  0.31919900  0.60627100  1
  O  O1  1  0.51864600  0.51864600  0.32816700  1
  O  O2  1  0.66457400  0.66457400  0.10603300  1
  O  O3  1  0.00211900  0.00211900  0.31662500  1
  O  O4  1  0.00416800  0.00416800  0.81473700  1
  O  O5  1  0.31919900  0.84175700  0.60627100  1
  O  O6  1  0.96624200  0.51193400  0.33142000  1
  O  O7  1  0.51193400  0.96624200  0.33142000  1
  O  O8  1  0.15625000  0.15625000  0.10943400  1
  O  O9  1  0.84321200  0.84321200  0.59998200  1
  O  O10  1  0.47911800  0.03840600  0.83038500  1
  O  O11  1  0.03840600  0.47911800  0.83038500  1
  O  O12  1  0.31489800  0.31489800  0.59503700  1
  O  O13  1  0.68511200  0.15967100  0.10459100  1
  O  O14  1  0.48843200  0.48843200  0.84897500  1
  O  O15  1  0.15967100  0.68511200  0.10459100  1
loop_
_geom_bond_atom_site_label_1
_geom_bond_atom_site_label_2
_geom_bond_distance
_geom_bond_site_symmetry_2
Li0 O14 1.963123 1_555
Li0 O11 2.050965 1_655
Li0 O10 2.050965 1_565
Li0 O2 2.075725 1_556
Li1 O4 1.819971 1_555
Li1 O8 1.944398 1_556
Li1 O15 2.000189 1_546
Li1 O13 2.000189 1_456
Li2 O3 1.814241 1_555
Li2 O5 1.975779 1_545
Li2 O0 1.975779 1_455
Li2 O9 1.978464 1_445
Li3 O6 1.995278 1_455
Li3 O7 1.995278 1_545
Li3 O1 2.060664 1_555
Li3 O12 2.074252 1_555
Nb0 O15 2.035873 1_655
Nb0 O13 2.035873 1_565
Nb0 O7 2.046350 1_555
Nb0 O6 2.046350 1_555
Nb0 O2 2.069624 1_555
Nb0 O3 2.081076 1_665
Nb1 O0 2.033419 1_555
Nb1 O10 2.038800 1_555
Nb1 O14 2.090757 1_555
Nb1 O12 2.096920 1_555
Nb1 O9 2.127516 1_545
Nb1 O4 2.149274 1_655
Nb2 O5 2.033419 1_555
Nb2 O11 2.038800 1_555
Nb2 O14 2.090757 1_555
Nb2 O12 2.096920 1_555
Nb2 O9 2.127516 1_455
Nb2 O4 2.149274 1_565
O0 Ti2 2.021350 1_655
O0 V0 2.198391 1_555
O1 Ti0 1.987536 1_555
O1 Ti1 1.987536 1_555
O1 V0 2.233197 1_555
O2 Ti0 2.037785 1_555
O2 Ti1 2.037785 1_555
O3 Ti1 2.011567 1_545
O3 Ti0 2.011567 1_455
O4 Ti2 1.928235 1_555
O5 Ti2 2.021350 1_565
O5 V0 2.198391 1_555
O6 Ti0 2.011878 1_555
O6 V0 2.175410 1_555
O7 Ti1 2.011878 1_555
O7 V0 2.175410 1_555
O8 Ti1 2.002714 1_545
O8 Ti0 2.002714 1_455
O8 V1 2.202064 1_554
O9 V0 2.179326 1_555
O10 Ti2 2.014014 1_555
O10 V1 2.224053 1_555
O11 Ti2 2.014014 1_555
O11 V1 2.224053 1_555
O12 Ti2 2.018603 1_555
O13 Ti0 2.046684 1_555
O13 V1 2.172148 1_554
O14 V1 2.166180 1_555
O15 Ti1 2.046684 1_555
O15 V1 2.172148 1_554
