# generated using pymatgen
data_Li5Cr2Fe3(PO4)6
_symmetry_space_group_name_H-M   'P 1'
_cell_length_a   8.43117580
_cell_length_b   8.81815740
_cell_length_c   8.60434354
_cell_angle_alpha   60.94258020
_cell_angle_beta   62.22003844
_cell_angle_gamma   61.57224729
_symmetry_Int_Tables_number   1
_chemical_formula_structural   Li5Cr2Fe3(PO4)6
_chemical_formula_sum   'Li5 Cr2 Fe3 P6 O24'
_cell_volume   468.24985684
_cell_formula_units_Z   1
loop_
 _symmetry_equiv_pos_site_id
 _symmetry_equiv_pos_as_xyz
  1  'x, y, z'
loop_
 _atom_site_type_symbol
 _atom_site_label
 _atom_site_symmetry_multiplicity
 _atom_site_fract_x
 _atom_site_fract_y
 _atom_site_fract_z
 _atom_site_occupancy
  Li  Li0  1  0.75368000  0.14319300  0.35627600  1
  Li  Li1  1  0.19452100  0.84997800  0.66984600  1
  Li  Li2  1  0.66346900  0.18103800  0.85217700  1
  Li  Li3  1  0.85742500  0.67007900  0.18514400  1
  Li  Li4  1  0.84627100  0.83072400  0.83962100  1
  Cr  Cr0  1  0.00543000  0.99742100  0.99534400  1
  Cr  Cr1  1  0.49400700  0.50567100  0.49872300  1
  Fe  Fe0  1  0.14747900  0.14961400  0.14041200  1
  Fe  Fe1  1  0.35206600  0.35677200  0.35544500  1
  Fe  Fe2  1  0.64483800  0.65578800  0.65587900  1
  P  P0  1  0.05665800  0.75023100  0.45285800  1
  P  P1  1  0.44509800  0.04769200  0.75810900  1
  P  P2  1  0.75167200  0.45508300  0.05706400  1
  P  P3  1  0.25527200  0.53858500  0.95508900  1
  P  P4  1  0.55396900  0.96573000  0.25765900  1
  P  P5  1  0.94774200  0.25404900  0.53595100  1
  O  O0  1  0.10384200  0.33361700  0.46608300  1
  O  O1  1  0.33899200  0.48639600  0.10449800  1
  O  O2  1  0.05161100  0.91539600  0.26214200  1
  O  O3  1  0.52972200  0.10992800  0.32523500  1
  O  O4  1  0.03750000  0.81027700  0.59998300  1
  O  O5  1  0.25166900  0.59283400  0.42311800  1
  O  O6  1  0.24644900  0.06662900  0.91304700  1
  O  O7  1  0.43046100  0.23254400  0.59034900  1
  O  O8  1  0.19638500  0.38291100  0.98938600  1
  O  O9  1  0.59655400  0.41890800  0.25656900  1
  O  O10  1  0.09294400  0.72444000  0.94911400  1
  O  O11  1  0.38531700  0.01745400  0.19755900  1
  O  O12  1  0.60017200  0.01781100  0.82295800  1
  O  O13  1  0.90279300  0.25858500  0.07848000  1
  O  O14  1  0.40403900  0.57610700  0.75196900  1
  O  O15  1  0.81205600  0.60198600  0.03444300  1
  O  O16  1  0.57531500  0.76954000  0.40896600  1
  O  O17  1  0.74530100  0.94925700  0.09445300  1
  O  O18  1  0.74488600  0.40248100  0.57210300  1
  O  O19  1  0.96590800  0.18907900  0.38967900  1
  O  O20  1  0.48358800  0.88834800  0.70145700  1
  O  O21  1  0.95261300  0.09709800  0.72839100  1
  O  O22  1  0.68950900  0.49873900  0.89401400  1
  O  O23  1  0.89277600  0.68498900  0.50340800  1
loop_
_geom_bond_atom_site_label_1
_geom_bond_atom_site_label_2
_geom_bond_distance
_geom_bond_site_symmetry_2
Li0 O9 2.090190 1_555
Li0 O13 2.093687 1_555
Li0 O19 2.174793 1_555
Li0 O3 2.190058 1_555
Li0 O2 2.424997 1_645
Li0 O7 2.546460 1_555
Li1 O4 1.903698 1_555
Li1 O10 2.033078 1_555
Li1 O14 2.212755 1_555
Li1 O21 2.244822 1_465
Li2 O12 1.904651 1_555
Li2 O21 2.062214 1_555
Li2 O17 2.204191 1_546
Li2 O18 2.292354 1_555
Li3 O15 1.904098 1_555
Li3 O17 2.041813 1_555
Li3 O10 2.121033 1_654
Li3 O16 2.349495 1_555
Li4 O15 1.944364 1_556
Li4 O12 1.958547 1_565
Li4 O4 1.966979 1_655
Li4 O10 2.281273 1_655
Li4 O21 2.501771 1_565
Li4 O17 2.502819 1_556
Cr0 O6 2.103058 1_565
Cr0 O17 2.123524 1_456
Cr0 O21 2.206022 1_465
Cr0 O2 2.212869 1_556
Cr0 O10 2.337237 1_555
Cr0 O13 2.385384 1_466
Cr1 O5 2.108716 1_555
Cr1 O18 2.134253 1_555
Cr1 O9 2.216671 1_555
Cr1 O14 2.243803 1_555
Cr1 O7 2.387416 1_555
Cr1 O16 2.400037 1_555
Fe0 O11 1.938678 1_555
Fe0 O8 1.949949 1_554
Fe0 O13 2.025635 1_455
Fe0 O19 2.054731 1_455
Fe0 O6 2.084839 1_554
Fe0 O2 2.171418 1_545
Fe1 O1 1.919753 1_555
Fe1 O0 1.920610 1_555
Fe1 O7 2.031576 1_555
Fe1 O3 2.032646 1_555
Fe1 O9 2.064192 1_555
Fe1 O5 2.104536 1_555
Fe2 O22 1.929896 1_555
Fe2 O23 1.945561 1_555
Fe2 O20 1.958931 1_555
Fe2 O16 2.096263 1_555
Fe2 O14 2.127973 1_555
Fe2 O18 2.328923 1_555
O0 P5 1.522431 1_455
O1 P3 1.524662 1_554
O2 P0 1.581261 1_555
O3 P4 1.535129 1_545
O4 P0 1.512636 1_555
O5 P0 1.573303 1_555
O6 P1 1.574452 1_555
O7 P1 1.563603 1_555
O8 P3 1.528685 1_555
O9 P2 1.591068 1_555
O10 P3 1.552386 1_555
O11 P4 1.528453 1_545
O12 P1 1.516389 1_555
O13 P2 1.570505 1_555
O14 P3 1.589722 1_555
O15 P2 1.505257 1_555
O16 P4 1.566673 1_555
O17 P4 1.568051 1_555
O18 P5 1.582190 1_555
O19 P5 1.540417 1_555
O20 P1 1.549519 1_565
O21 P5 1.562730 1_555
O22 P2 1.536166 1_556
O23 P0 1.543660 1_655
