# generated using pymatgen
data_Li4Fe3P4O15
_symmetry_space_group_name_H-M   'P 1'
_cell_length_a   6.50377200
_cell_length_b   10.57120300
_cell_length_c   17.60136700
_cell_angle_alpha   90.00000000
_cell_angle_beta   90.00000000
_cell_angle_gamma   90.00000000
_symmetry_Int_Tables_number   1
_chemical_formula_structural   Li4Fe3P4O15
_chemical_formula_sum   'Li16 Fe12 P16 O60'
_cell_volume   1210.14140070
_cell_formula_units_Z   4
loop_
 _symmetry_equiv_pos_site_id
 _symmetry_equiv_pos_as_xyz
  1  'x, y, z'
loop_
 _atom_site_type_symbol
 _atom_site_label
 _atom_site_symmetry_multiplicity
 _atom_site_fract_x
 _atom_site_fract_y
 _atom_site_fract_z
 _atom_site_occupancy
  Li  Li0  1  0.32410800  0.48094100  0.99548100  1
  Li  Li1  1  0.32410800  0.01905900  0.49548100  1
  Li  Li2  1  0.82410800  0.98094100  0.50451900  1
  Li  Li3  1  0.43658900  0.31909500  0.59433800  1
  Li  Li4  1  0.85901200  0.75977600  0.20540200  1
  Li  Li5  1  0.70308800  0.55191400  0.53432300  1
  Li  Li6  1  0.93658900  0.81909500  0.90566200  1
  Li  Li7  1  0.20308800  0.05191400  0.96567700  1
  Li  Li8  1  0.20308800  0.44808600  0.46567700  1
  Li  Li9  1  0.82410800  0.51905900  0.00451900  1
  Li  Li10  1  0.70308800  0.94808600  0.03432300  1
  Li  Li11  1  0.85901200  0.74022400  0.70540200  1
  Li  Li12  1  0.35901200  0.24022400  0.79459800  1
  Li  Li13  1  0.43658900  0.18090500  0.09433800  1
  Li  Li14  1  0.93658900  0.68090500  0.40566200  1
  Li  Li15  1  0.35901200  0.25977600  0.29459800  1
  Fe  Fe0  1  0.60455800  0.49910400  0.33559900  1
  Fe  Fe1  1  0.59192900  0.49319000  0.86425100  1
  Fe  Fe2  1  0.10455800  0.50089600  0.66440100  1
  Fe  Fe3  1  0.32645400  0.75756900  0.26030700  1
  Fe  Fe4  1  0.59192900  0.00681000  0.36425100  1
  Fe  Fe5  1  0.82645400  0.25756900  0.23969300  1
  Fe  Fe6  1  0.82645400  0.24243100  0.73969300  1
  Fe  Fe7  1  0.09192900  0.99319000  0.63574900  1
  Fe  Fe8  1  0.32645400  0.74243100  0.76030700  1
  Fe  Fe9  1  0.10455800  0.99910400  0.16440100  1
  Fe  Fe10  1  0.60455800  0.00089600  0.83559900  1
  Fe  Fe11  1  0.09192900  0.50681000  0.13574900  1
  P  P0  1  0.46114700  0.74487400  0.44022600  1
  P  P1  1  0.63574900  0.27428900  0.44977900  1
  P  P2  1  0.96114700  0.24487400  0.05977400  1
  P  P3  1  0.13574900  0.77428900  0.05022100  1
  P  P4  1  0.59870000  0.50495900  0.70258200  1
  P  P5  1  0.63574900  0.22571100  0.94977900  1
  P  P6  1  0.59870000  0.99504100  0.20258200  1
  P  P7  1  0.46114700  0.75512600  0.94022600  1
  P  P8  1  0.09870000  0.49504100  0.29741800  1
  P  P9  1  0.09870000  0.00495900  0.79741800  1
  P  P10  1  0.08606800  0.01686000  0.32809100  1
  P  P11  1  0.08606800  0.48314000  0.82809100  1
  P  P12  1  0.96114700  0.25512600  0.55977400  1
  P  P13  1  0.58606800  0.98314000  0.67190900  1
  P  P14  1  0.13574900  0.72571100  0.55022100  1
  P  P15  1  0.58606800  0.51686000  0.17190900  1
  O  O0  1  0.05347700  0.12481000  0.54397300  1
  O  O1  1  0.90064500  0.00243200  0.38110800  1
  O  O2  1  0.55347700  0.62481000  0.95602700  1
  O  O3  1  0.40064500  0.50243200  0.11889200  1
  O  O4  1  0.28672800  0.03513500  0.84827900  1
  O  O5  1  0.99962700  0.62961200  0.50778200  1
  O  O6  1  0.49962700  0.12961200  0.99221800  1
  O  O7  1  0.10040200  0.89750500  0.27480300  1
  O  O8  1  0.55347700  0.87519000  0.45602700  1
  O  O9  1  0.78471600  0.25819000  0.61690700  1
  O  O10  1  0.49962700  0.37038800  0.49221800  1
  O  O11  1  0.78672800  0.53513500  0.65172100  1
  O  O12  1  0.62927500  0.64552500  0.42311700  1
  O  O13  1  0.87124100  0.19472000  0.97822400  1
  O  O14  1  0.13935400  0.69756200  0.63585900  1
  O  O15  1  0.07323200  0.11527600  0.73908500  1
  O  O16  1  0.91612000  0.98507000  0.85143500  1
  O  O17  1  0.09118700  0.86377100  0.53171600  1
  O  O18  1  0.61443400  0.38541100  0.75487100  1
  O  O19  1  0.63935400  0.30243800  0.36414100  1
  O  O20  1  0.87124100  0.30528000  0.47822400  1
  O  O21  1  0.56655400  0.62999900  0.23060400  1
  O  O22  1  0.90064500  0.49756800  0.88110800  1
  O  O23  1  0.57323200  0.61527600  0.76091500  1
  O  O24  1  0.06655400  0.37000100  0.76939600  1
  O  O25  1  0.78128900  0.95801100  0.62480200  1
  O  O26  1  0.59118700  0.13622900  0.46828400  1
  O  O27  1  0.28128900  0.45801100  0.87519800  1
  O  O28  1  0.37124100  0.69472000  0.52177600  1
  O  O29  1  0.41612000  0.48507000  0.64856500  1
  O  O30  1  0.37124100  0.80528000  0.02177600  1
  O  O31  1  0.62927500  0.85447500  0.92311700  1
  O  O32  1  0.13935400  0.80243800  0.13585900  1
  O  O33  1  0.28672800  0.46486500  0.34827900  1
  O  O34  1  0.12927500  0.35447500  0.57688300  1
  O  O35  1  0.11443400  0.88541100  0.74512900  1
  O  O36  1  0.28471600  0.75819000  0.88309300  1
  O  O37  1  0.59118700  0.36377100  0.96828400  1
  O  O38  1  0.28471600  0.74181000  0.38309300  1
  O  O39  1  0.41612000  0.01493000  0.14856500  1
  O  O40  1  0.63935400  0.19756200  0.86414100  1
  O  O41  1  0.56655400  0.87000100  0.73060400  1
  O  O42  1  0.60040200  0.39750500  0.22519700  1
  O  O43  1  0.28128900  0.04198900  0.37519800  1
  O  O44  1  0.99962700  0.87038800  0.00778200  1
  O  O45  1  0.11443400  0.61458900  0.24512900  1
  O  O46  1  0.78128900  0.54198900  0.12480200  1
  O  O47  1  0.40064500  0.99756800  0.61889200  1
  O  O48  1  0.09118700  0.63622900  0.03171600  1
  O  O49  1  0.07323200  0.38472400  0.23908500  1
  O  O50  1  0.57323200  0.88472400  0.26091500  1
  O  O51  1  0.78672800  0.96486500  0.15172100  1
  O  O52  1  0.61443400  0.11458900  0.25487100  1
  O  O53  1  0.91612000  0.51493000  0.35143500  1
  O  O54  1  0.06655400  0.12999900  0.26939600  1
  O  O55  1  0.60040200  0.10249500  0.72519700  1
  O  O56  1  0.10040200  0.60249500  0.77480300  1
  O  O57  1  0.12927500  0.14552500  0.07688300  1
  O  O58  1  0.05347700  0.37519000  0.04397300  1
  O  O59  1  0.78471600  0.24181000  0.11690700  1
loop_
_geom_bond_atom_site_label_1
_geom_bond_atom_site_label_2
_geom_bond_distance
_geom_bond_site_symmetry_2
Li0 O27 2.149096 1_555
Li0 O37 2.186458 1_555
Li0 O3 2.240058 1_556
Li0 O2 2.240681 1_555
Li0 O58 2.253058 1_556
Li0 O48 2.323010 1_556
Li1 O43 2.149096 1_555
Li1 O26 2.186458 1_555
Li1 O47 2.240058 1_545
Li1 O8 2.240681 1_545
Li1 O0 2.253058 1_555
Li1 O17 2.323010 1_545
Li2 O25 2.149096 1_555
Li2 O17 2.186458 1_655
Li2 O1 2.240058 1_565
Li2 O0 2.240681 1_665
Li2 O8 2.253058 1_555
Li2 O26 2.323010 1_565
Li3 O10 1.921700 1_555
Li3 O29 2.001799 1_555
Li3 O34 2.056472 1_555
Li3 O9 2.387186 1_555
Li4 O32 2.241884 1_655
Li4 O45 2.367313 1_655
Li4 O21 2.386794 1_555
Li4 O51 2.411256 1_555
Li4 O7 2.465105 1_655
Li4 O50 2.480716 1_555
Li5 O11 2.144117 1_555
Li5 O5 2.147662 1_555
Li5 O12 2.245230 1_555
Li5 O10 2.445941 1_555
Li6 O44 1.921700 1_556
Li6 O16 2.001799 1_555
Li6 O31 2.056472 1_555
Li6 O36 2.387186 1_655
Li7 O4 2.144117 1_555
Li7 O6 2.147662 1_555
Li7 O57 2.245230 1_556
Li7 O44 2.445941 1_446
Li8 O33 2.144117 1_555
Li8 O10 2.147662 1_555
Li8 O34 2.245230 1_555
Li8 O5 2.445941 1_455
Li9 O46 2.149096 1_555
Li9 O48 2.186458 1_655
Li9 O22 2.240058 1_554
Li9 O58 2.240681 1_655
Li9 O2 2.253058 1_554
Li9 O37 2.323010 1_554
Li10 O51 2.144117 1_555
Li10 O44 2.147662 1_555
Li10 O31 2.245230 1_554
Li10 O6 2.445941 1_564
Li11 O14 2.241884 1_655
Li11 O35 2.367313 1_655
Li11 O41 2.386794 1_555
Li11 O11 2.411256 1_555
Li11 O56 2.465105 1_655
Li11 O23 2.480716 1_555
Li12 O40 2.241884 1_555
Li12 O18 2.367313 1_555
Li12 O24 2.386794 1_555
Li12 O4 2.411256 1_555
Li12 O55 2.465105 1_555
Li12 O15 2.480716 1_555
Li13 O6 1.921700 1_554
Li13 O39 2.001799 1_555
Li13 O57 2.056472 1_555
Li13 O59 2.387186 1_555
Li14 O5 1.921700 1_555
Li14 O53 2.001799 1_555
Li14 O12 2.056472 1_555
Li14 O38 2.387186 1_655
Li15 O19 2.241884 1_555
Li15 O52 2.367313 1_555
Li15 O54 2.386794 1_555
Li15 O33 2.411256 1_555
Li15 O42 2.465105 1_555
Li15 O49 2.480716 1_555
Fe0 O53 2.052240 1_555
Fe0 O33 2.110378 1_555
Fe0 O19 2.150773 1_555
Fe0 O12 2.189661 1_555
Fe0 O42 2.220447 1_555
Fe0 O21 2.321869 1_555
Fe1 O22 2.030151 1_555
Fe1 O27 2.063290 1_555
Fe1 O2 2.146613 1_555
Fe1 O23 2.233530 1_555
Fe1 O18 2.241894 1_555
Fe1 O37 2.285776 1_555
Fe2 O29 2.052240 1_555
Fe2 O11 2.110378 1_455
Fe2 O14 2.150773 1_555
Fe2 O34 2.189661 1_555
Fe2 O56 2.220447 1_555
Fe2 O24 2.321869 1_555
Fe3 O45 2.063337 1_555
Fe3 O50 2.093543 1_555
Fe3 O7 2.101158 1_555
Fe3 O21 2.128480 1_555
Fe3 O38 2.184544 1_555
Fe3 O32 2.550257 1_555
Fe4 O1 2.030151 1_555
Fe4 O43 2.063290 1_555
Fe4 O8 2.146613 1_545
Fe4 O50 2.233530 1_545
Fe4 O52 2.241894 1_555
Fe4 O26 2.285776 1_555
Fe5 O52 2.063337 1_555
Fe5 O49 2.093543 1_655
Fe5 O42 2.101158 1_555
Fe5 O54 2.128480 1_655
Fe5 O59 2.184544 1_555
Fe5 O19 2.550257 1_555
Fe6 O18 2.063337 1_555
Fe6 O15 2.093543 1_655
Fe6 O55 2.101158 1_555
Fe6 O24 2.128480 1_655
Fe6 O9 2.184544 1_555
Fe6 O40 2.550257 1_555
Fe7 O47 2.030151 1_555
Fe7 O25 2.063290 1_455
Fe7 O0 2.146613 1_565
Fe7 O15 2.233530 1_565
Fe7 O35 2.241894 1_555
Fe7 O17 2.285776 1_555
Fe8 O35 2.063337 1_555
Fe8 O23 2.093543 1_555
Fe8 O56 2.101158 1_555
Fe8 O41 2.128480 1_555
Fe8 O36 2.184544 1_555
Fe8 O14 2.550257 1_555
Fe9 O39 2.052240 1_565
Fe9 O51 2.110378 1_455
Fe9 O32 2.150773 1_555
Fe9 O57 2.189661 1_565
Fe9 O7 2.220447 1_555
Fe9 O54 2.321869 1_565
Fe10 O16 2.052240 1_545
Fe10 O4 2.110378 1_555
Fe10 O40 2.150773 1_555
Fe10 O31 2.189661 1_545
Fe10 O55 2.220447 1_555
Fe10 O41 2.321869 1_545
Fe11 O3 2.030151 1_555
Fe11 O46 2.063290 1_455
Fe11 O58 2.146613 1_555
Fe11 O49 2.233530 1_555
Fe11 O45 2.241894 1_555
Fe11 O48 2.285776 1_555
O0 P12 1.528305 1_455
O1 P10 1.532444 1_655
O2 P7 1.528305 1_555
O3 P15 1.532444 1_555
O4 P9 1.548756 1_555
O5 P14 1.540704 1_655
O6 P5 1.540704 1_555
O7 P10 1.574922 1_565
O8 P0 1.528305 1_555
O9 P12 1.526106 1_555
O10 P1 1.540704 1_555
O11 P4 1.548756 1_555
O12 P0 1.545754 1_555
O13 P2 1.638095 1_556
O13 P5 1.644311 1_555
O14 P14 1.536616 1_555
O15 P9 1.562567 1_555
O16 P9 1.535654 1_665
O17 P14 1.523191 1_555
O18 P4 1.566728 1_555
O19 P1 1.536616 1_555
O20 P12 1.638095 1_555
O20 P1 1.644311 1_555
O21 P15 1.585522 1_555
O22 P11 1.532444 1_655
O23 P4 1.562567 1_555
O24 P11 1.585522 1_555
O25 P13 1.539520 1_555
O26 P1 1.523191 1_555
O27 P11 1.539520 1_555
O28 P0 1.638095 1_555
O28 P14 1.644311 1_555
O29 P4 1.535654 1_555
O30 P7 1.638095 1_554
O30 P3 1.644311 1_555
O31 P7 1.545754 1_555
O32 P3 1.536616 1_555
O33 P8 1.548756 1_555
O34 P12 1.545754 1_455
O35 P9 1.566728 1_565
O36 P7 1.526106 1_555
O37 P5 1.523191 1_555
O38 P0 1.526106 1_555
O39 P6 1.535654 1_545
O40 P5 1.536616 1_555
O41 P13 1.585522 1_555
O42 P15 1.574922 1_555
O43 P10 1.539520 1_555
O44 P3 1.540704 1_655
O45 P8 1.566728 1_555
O46 P15 1.539520 1_555
O47 P13 1.532444 1_555
O48 P3 1.523191 1_555
O49 P8 1.562567 1_555
O50 P6 1.562567 1_555
O51 P6 1.548756 1_555
O52 P6 1.566728 1_545
O53 P8 1.535654 1_655
O54 P10 1.585522 1_555
O55 P13 1.574922 1_545
O56 P11 1.574922 1_555
O57 P2 1.545754 1_455
O58 P2 1.528305 1_455
O59 P2 1.526106 1_555
