# generated using pymatgen
data_Fe4O5F3
_symmetry_space_group_name_H-M   'P 1'
_cell_length_a   4.74591100
_cell_length_b   7.69720901
_cell_length_c   7.70351919
_cell_angle_alpha   103.84915256
_cell_angle_beta   92.51850923
_cell_angle_gamma   92.36115752
_symmetry_Int_Tables_number   1
_chemical_formula_structural   Fe4O5F3
_chemical_formula_sum   'Fe8 O10 F6'
_cell_volume   272.57862132
_cell_formula_units_Z   2
loop_
 _symmetry_equiv_pos_site_id
 _symmetry_equiv_pos_as_xyz
  1  'x, y, z'
loop_
 _atom_site_type_symbol
 _atom_site_label
 _atom_site_symmetry_multiplicity
 _atom_site_fract_x
 _atom_site_fract_y
 _atom_site_fract_z
 _atom_site_occupancy
  Fe  Fe0  1  0.53612200  0.86262900  0.61242400  1
  Fe  Fe1  1  0.44537500  0.64031400  0.87950100  1
  Fe  Fe2  1  0.51630900  0.34385900  0.10577100  1
  Fe  Fe3  1  0.49826900  0.13309600  0.38322600  1
  Fe  Fe4  1  0.02420100  0.75831600  0.25783600  1
  Fe  Fe5  1  0.98370900  0.51199900  0.49803700  1
  Fe  Fe6  1  0.99170300  0.25398200  0.76495600  1
  Fe  Fe7  1  0.99682500  0.99349600  0.99755700  1
  O  O0  1  0.81693800  0.72141800  0.45907800  1
  O  O1  1  0.81583600  0.21121000  0.97361200  1
  O  O2  1  0.69449500  0.84538600  0.84228000  1
  O  O3  1  0.69094300  0.34307400  0.35084400  1
  O  O4  1  0.69610300  0.10235500  0.59709000  1
  O  O5  1  0.31855300  0.91209500  0.40781400  1
  O  O6  1  0.30472200  0.65654700  0.64232900  1
  O  O7  1  0.29893500  0.14361800  0.16297300  1
  O  O8  1  0.30845700  0.40273100  0.90217600  1
  O  O9  1  0.17767700  0.78167800  0.03296500  1
  F  F0  1  0.80819600  0.47606700  0.72466400  1
  F  F1  1  0.79642100  0.96844400  0.22361300  1
  F  F2  1  0.69861400  0.59705100  0.09685100  1
  F  F3  1  0.19920000  0.02982300  0.77848300  1
  F  F4  1  0.19699200  0.52418700  0.27137700  1
  F  F5  1  0.18540800  0.28662600  0.53454400  1
loop_
_geom_bond_atom_site_label_1
_geom_bond_atom_site_label_2
_geom_bond_distance
_geom_bond_site_symmetry_2
Fe0 O2 1.929170 1_555
Fe0 O6 1.956776 1_555
Fe0 O5 1.967812 1_555
Fe0 O4 1.998013 1_565
Fe0 O0 1.999022 1_555
Fe1 O6 1.951493 1_555
Fe1 O9 1.955960 1_556
Fe1 O8 1.965192 1_555
Fe1 O2 2.016024 1_555
Fe2 O1 1.961858 1_554
Fe2 O7 1.966757 1_555
Fe2 O8 1.969620 1_554
Fe2 O3 2.029670 1_555
Fe3 O3 1.897871 1_555
Fe3 O5 1.925086 1_545
Fe3 O7 1.926504 1_555
Fe3 O4 1.928935 1_555
Fe4 O5 1.937694 1_555
Fe4 O0 1.942513 1_455
Fe4 O9 1.952680 1_555
Fe5 O0 1.905444 1_555
Fe5 O3 1.978331 1_555
Fe5 O6 1.978373 1_655
Fe6 O1 1.933215 1_555
Fe6 O8 1.956351 1_655
Fe6 O4 1.996402 1_555
Fe7 O9 1.943439 1_656
Fe7 O1 1.957746 1_565
Fe7 O2 1.962347 1_555
Fe7 O7 2.003192 1_666
F0 Fe6 2.032219 1_555
F0 Fe5 2.039171 1_555
F0 Fe1 2.371500 1_555
F1 Fe4 2.043832 1_655
F1 Fe7 2.065320 1_554
F1 Fe3 2.162165 1_565
F2 Fe4 2.098340 1_655
F2 Fe2 2.117026 1_555
F2 Fe1 2.117042 1_554
F3 Fe6 2.043202 1_455
F3 Fe7 2.048175 1_445
F3 Fe0 2.326076 1_545
F4 Fe4 2.033549 1_555
F4 Fe5 2.075599 1_455
F4 Fe2 2.312193 1_555
F5 Fe5 2.086017 1_455
F5 Fe6 2.096834 1_455
F5 Fe3 2.144115 1_555
