# generated using pymatgen
data_Li11Ti24O48
_symmetry_space_group_name_H-M   'P 1'
_cell_length_a   10.36542964
_cell_length_b   10.36542964
_cell_length_c   10.36539213
_cell_angle_alpha   80.40941291
_cell_angle_beta   80.40941291
_cell_angle_gamma   119.99937222
_symmetry_Int_Tables_number   1
_chemical_formula_structural   Li11Ti24O48
_chemical_formula_sum   'Li11 Ti24 O48'
_cell_volume   909.36344841
_cell_formula_units_Z   1
loop_
 _symmetry_equiv_pos_site_id
 _symmetry_equiv_pos_as_xyz
  1  'x, y, z'
loop_
 _atom_site_type_symbol
 _atom_site_label
 _atom_site_symmetry_multiplicity
 _atom_site_fract_x
 _atom_site_fract_y
 _atom_site_fract_z
 _atom_site_occupancy
  Li  Li0  1  0.45835700  0.79165100  0.62505300  1
  Li  Li1  1  0.16659000  0.83330400  0.50006300  1
  Li  Li2  1  0.79165100  0.45835700  0.62505300  1
  Li  Li3  1  0.29107700  0.95843800  0.12468400  1
  Li  Li4  1  0.50004200  0.50004200  0.50006200  1
  Li  Li5  1  0.83330400  0.16659000  0.50006300  1
  Li  Li6  1  0.33335900  0.66669300  0.99993300  1
  Li  Li7  1  0.12469700  0.12469700  0.62578400  1
  Li  Li8  1  0.62579800  0.62579800  0.12468000  1
  Li  Li9  1  0.95843800  0.29107700  0.12468400  1
  Li  Li10  1  0.66669300  0.33335900  0.99993300  1
  Ti  Ti0  1  0.73073700  0.89696500  0.81391300  1
  Ti  Ti1  1  0.22707200  0.89575900  0.81390400  1
  Ti  Ti2  1  0.89696500  0.73073700  0.81391300  1
  Ti  Ti3  1  0.22830400  0.39335900  0.81389900  1
  Ti  Ti4  1  0.06263200  0.56260000  0.81205000  1
  Ti  Ti5  1  0.73136900  0.89642700  0.31083100  1
  Ti  Ti6  1  0.56273700  0.56273700  0.81204700  1
  Ti  Ti7  1  0.89575900  0.22707200  0.81390400  1
  Ti  Ti8  1  0.81203000  0.81203000  0.56280000  1
  Ti  Ti9  1  0.64822500  0.97957100  0.06133100  1
  Ti  Ti10  1  0.14565300  0.47938100  0.56302100  1
  Ti  Ti11  1  0.39605000  0.72980700  0.31250500  1
  Ti  Ti12  1  0.39335900  0.22830400  0.81389900  1
  Ti  Ti13  1  0.89642700  0.73136900  0.31083100  1
  Ti  Ti14  1  0.06183500  0.56203000  0.31251000  1
  Ti  Ti15  1  0.22957500  0.39562300  0.31254700  1
  Ti  Ti16  1  0.56260000  0.06263200  0.81205000  1
  Ti  Ti17  1  0.72980700  0.39605000  0.31250500  1
  Ti  Ti18  1  0.97957100  0.64822500  0.06133100  1
  Ti  Ti19  1  0.47938100  0.14565300  0.56302100  1
  Ti  Ti20  1  0.39562300  0.22957500  0.31254700  1
  Ti  Ti21  1  0.56203000  0.06183500  0.31251000  1
  Ti  Ti22  1  0.06136900  0.06136900  0.31085300  1
  Ti  Ti23  1  0.31086800  0.31086800  0.06131400  1
  O  O0  1  0.53872800  0.87243600  0.93138300  1
  O  O1  1  0.61862100  0.76868900  0.69365300  1
  O  O2  1  0.43560400  0.95204500  0.69362500  1
  O  O3  1  0.02342300  0.83608900  0.92972500  1
  O  O4  1  0.17336700  0.68917800  0.93131600  1
  O  O5  1  0.35654300  0.50703300  0.93132600  1
  O  O6  1  0.87243600  0.53872800  0.93138300  1
  O  O7  1  0.09824100  0.76460900  0.70551800  1
  O  O8  1  0.69329700  0.69329700  0.91881700  1
  O  O9  1  0.25218400  0.58565100  0.69356900  1
  O  O10  1  0.91883500  0.91883500  0.69327600  1
  O  O11  1  0.52685100  0.86031200  0.41895500  1
  O  O12  1  0.02701400  0.36076500  0.91878800  1
  O  O13  1  0.76868900  0.61862100  0.69365300  1
  O  O14  1  0.95204500  0.43560400  0.69362500  1
  O  O15  1  0.45178800  0.93544900  0.19380600  1
  O  O16  1  0.60160800  0.78500500  0.19395100  1
  O  O17  1  0.10224600  0.28562000  0.69328600  1
  O  O18  1  0.00660500  0.85606300  0.43178500  1
  O  O19  1  0.50703300  0.35654300  0.93132600  1
  O  O20  1  0.68917800  0.17336700  0.93131600  1
  O  O21  1  0.33976200  0.52291400  0.43134400  1
  O  O22  1  0.18948200  0.67313500  0.43127800  1
  O  O23  1  0.83608900  0.02342300  0.92972500  1
  O  O24  1  0.21077100  0.21077100  0.92977200  1
  O  O25  1  0.70554800  0.70554800  0.43174300  1
  O  O26  1  0.03937000  0.37266800  0.43139800  1
  O  O27  1  0.43175100  0.43175100  0.70552600  1
  O  O28  1  0.76460900  0.09824100  0.70551800  1
  O  O29  1  0.92978000  0.92978000  0.21078900  1
  O  O30  1  0.26467200  0.59803600  0.20608200  1
  O  O31  1  0.86031200  0.52685100  0.41895500  1
  O  O32  1  0.36076500  0.02701400  0.91878800  1
  O  O33  1  0.08570600  0.75195200  0.19389700  1
  O  O34  1  0.58565100  0.25218400  0.69356900  1
  O  O35  1  0.78500500  0.60160800  0.19395100  1
  O  O36  1  0.93544900  0.45178800  0.19380600  1
  O  O37  1  0.28562000  0.10224600  0.69328600  1
  O  O38  1  0.11874800  0.26911700  0.19394800  1
  O  O39  1  0.52291400  0.33976200  0.43134400  1
  O  O40  1  0.67313500  0.18948200  0.43127800  1
  O  O41  1  0.85606300  0.00660500  0.43178500  1
  O  O42  1  0.59803600  0.26467200  0.20608200  1
  O  O43  1  0.37266800  0.03937000  0.43139800  1
  O  O44  1  0.19372900  0.19372900  0.41902300  1
  O  O45  1  0.41898400  0.41898400  0.19375700  1
  O  O46  1  0.75195200  0.08570600  0.19389700  1
  O  O47  1  0.26911700  0.11874800  0.19394800  1
loop_
_geom_bond_atom_site_label_1
_geom_bond_atom_site_label_2
_geom_bond_distance
_geom_bond_site_symmetry_2
Li0 O1 2.013567 1_555
Li0 O2 2.013679 1_555
Li0 O9 2.014118 1_555
Li0 O11 2.014204 1_555
Li1 O7 2.007922 1_555
Li1 O18 2.008276 1_555
Li1 O22 2.013200 1_555
Li1 O43 2.013975 1_565
Li2 O13 2.013567 1_555
Li2 O14 2.013679 1_555
Li2 O34 2.014118 1_555
Li2 O31 2.014204 1_555
Li3 O32 2.012261 1_564
Li3 O47 2.012400 1_565
Li3 O33 2.012607 1_555
Li3 O15 2.020618 1_555
Li4 O27 2.008008 1_555
Li4 O25 2.008445 1_555
Li4 O39 2.013860 1_555
Li4 O21 2.013860 1_555
Li5 O28 2.007922 1_555
Li5 O41 2.008276 1_555
Li5 O40 2.013200 1_555
Li5 O26 2.013975 1_655
Li6 O4 2.008664 1_555
Li6 O5 2.008785 1_555
Li6 O0 2.008935 1_555
Li6 O30 2.014702 1_556
Li7 O10 2.011956 1_445
Li7 O17 2.012179 1_555
Li7 O37 2.012179 1_555
Li7 O44 2.020683 1_555
Li8 O8 2.011939 1_554
Li8 O16 2.012551 1_555
Li8 O35 2.012551 1_555
Li8 O45 2.021228 1_555
Li9 O12 2.012261 1_654
Li9 O38 2.012400 1_655
Li9 O46 2.012607 1_555
Li9 O36 2.020618 1_555
Li10 O20 2.008664 1_555
Li10 O19 2.008785 1_555
Li10 O6 2.008935 1_555
Li10 O42 2.014702 1_556
O0 Ti16 2.018795 1_565
O0 Ti9 2.020683 1_556
O0 Ti0 2.022792 1_555
O1 Ti8 2.012676 1_555
O1 Ti6 2.013071 1_555
O1 Ti0 2.040136 1_555
O2 Ti19 2.011311 1_565
O2 Ti16 2.012954 1_565
O2 Ti1 2.040962 1_555
O3 Ti2 1.970146 1_455
O3 Ti1 1.970360 1_555
O3 Ti18 1.970426 1_456
O4 Ti4 2.018551 1_555
O4 Ti18 2.021432 1_456
O4 Ti1 2.022401 1_555
O5 Ti6 2.019304 1_555
O5 Ti23 2.021366 1_556
O5 Ti3 2.021776 1_555
O6 Ti4 2.018795 1_655
O6 Ti18 2.020683 1_556
O6 Ti2 2.022792 1_555
O7 Ti4 2.015177 1_555
O7 Ti1 2.021622 1_555
O7 Ti2 2.023199 1_455
O8 Ti6 2.013560 1_555
O8 Ti0 2.016176 1_555
O8 Ti2 2.016176 1_555
O9 Ti10 2.010489 1_555
O9 Ti4 2.013570 1_555
O9 Ti3 2.040866 1_555
O10 Ti8 2.013092 1_555
O10 Ti2 2.016828 1_555
O10 Ti0 2.016828 1_555
O11 Ti11 2.011822 1_555
O11 Ti21 2.012463 1_565
O11 Ti5 2.040885 1_555
O12 Ti4 2.014330 1_555
O12 Ti7 2.015651 1_455
O12 Ti3 2.016512 1_555
O13 Ti8 2.012676 1_555
O13 Ti6 2.013071 1_555
O13 Ti2 2.040136 1_555
O14 Ti10 2.011311 1_655
O14 Ti4 2.012954 1_655
O14 Ti7 2.040962 1_555
O15 Ti21 2.011106 1_565
O15 Ti11 2.012195 1_555
O15 Ti9 2.041697 1_555
O16 Ti11 2.012839 1_555
O16 Ti5 2.016569 1_555
O16 Ti9 2.017643 1_555
O17 Ti10 2.012373 1_555
O17 Ti3 2.016891 1_555
O17 Ti7 2.017189 1_455
O18 Ti8 2.020035 1_455
O18 Ti13 2.021801 1_455
O18 Ti22 2.021953 1_565
O19 Ti6 2.019304 1_555
O19 Ti23 2.021366 1_556
O19 Ti12 2.021776 1_555
O20 Ti16 2.018551 1_555
O20 Ti9 2.021432 1_546
O20 Ti7 2.022401 1_555
O21 Ti15 2.016115 1_555
O21 Ti11 2.021357 1_555
O21 Ti10 2.021532 1_555
O22 Ti11 2.016987 1_555
O22 Ti10 2.017835 1_555
O22 Ti14 2.020872 1_555
O23 Ti0 1.970146 1_545
O23 Ti7 1.970360 1_555
O23 Ti9 1.970426 1_546
O24 Ti23 1.969365 1_556
O24 Ti3 1.970638 1_555
O24 Ti12 1.970638 1_555
O25 Ti8 2.015657 1_555
O25 Ti13 2.022237 1_555
O25 Ti5 2.022237 1_555
O26 Ti14 2.016641 1_555
O26 Ti10 2.020816 1_555
O26 Ti15 2.021194 1_555
O27 Ti6 2.015343 1_555
O27 Ti12 2.022336 1_555
O27 Ti3 2.022336 1_555
O28 Ti16 2.015177 1_555
O28 Ti7 2.021622 1_555
O28 Ti0 2.023199 1_545
O29 Ti22 1.969534 1_665
O29 Ti5 1.970640 1_555
O29 Ti13 1.970640 1_555
O30 Ti11 2.019789 1_555
O30 Ti14 2.020403 1_555
O30 Ti15 2.020802 1_555
O31 Ti17 2.011822 1_555
O31 Ti14 2.012463 1_655
O31 Ti13 2.040885 1_555
O32 Ti16 2.014330 1_555
O32 Ti1 2.015651 1_545
O32 Ti12 2.016512 1_555
O33 Ti14 2.013290 1_555
O33 Ti13 2.016623 1_455
O33 Ti18 2.016838 1_455
O34 Ti19 2.010489 1_555
O34 Ti16 2.013570 1_555
O34 Ti12 2.040866 1_555
O35 Ti17 2.012839 1_555
O35 Ti13 2.016569 1_555
O35 Ti18 2.017643 1_555
O36 Ti14 2.011106 1_655
O36 Ti17 2.012195 1_555
O36 Ti18 2.041697 1_555
O37 Ti19 2.012373 1_555
O37 Ti12 2.016891 1_555
O37 Ti1 2.017189 1_545
O38 Ti15 2.012898 1_555
O38 Ti22 2.017143 1_555
O38 Ti23 2.017610 1_555
O39 Ti20 2.016115 1_555
O39 Ti17 2.021357 1_555
O39 Ti19 2.021532 1_555
O40 Ti17 2.016987 1_555
O40 Ti19 2.017835 1_555
O40 Ti21 2.020872 1_555
O41 Ti8 2.020035 1_545
O41 Ti5 2.021801 1_545
O41 Ti22 2.021953 1_655
O42 Ti17 2.019789 1_555
O42 Ti21 2.020403 1_555
O42 Ti20 2.020802 1_555
O43 Ti21 2.016641 1_555
O43 Ti19 2.020816 1_555
O43 Ti20 2.021194 1_555
O44 Ti15 2.012907 1_555
O44 Ti20 2.012907 1_555
O44 Ti22 2.040743 1_555
O45 Ti15 2.012224 1_555
O45 Ti20 2.012224 1_555
O45 Ti23 2.041042 1_555
O46 Ti21 2.013290 1_555
O46 Ti5 2.016623 1_545
O46 Ti9 2.016838 1_545
O47 Ti20 2.012898 1_555
O47 Ti22 2.017143 1_555
O47 Ti23 2.017610 1_555
