# generated using pymatgen
data_Na3Ti8O16
_symmetry_space_group_name_H-M   'P 1'
_cell_length_a   6.12544100
_cell_length_b   8.66211200
_cell_length_c   12.26396200
_cell_angle_alpha   90.00000000
_cell_angle_beta   90.00000000
_cell_angle_gamma   90.00000000
_symmetry_Int_Tables_number   1
_chemical_formula_structural   Na3Ti8O16
_chemical_formula_sum   'Na6 Ti16 O32'
_cell_volume   650.71669923
_cell_formula_units_Z   2
loop_
 _symmetry_equiv_pos_site_id
 _symmetry_equiv_pos_as_xyz
  1  'x, y, z'
loop_
 _atom_site_type_symbol
 _atom_site_label
 _atom_site_symmetry_multiplicity
 _atom_site_fract_x
 _atom_site_fract_y
 _atom_site_fract_z
 _atom_site_occupancy
  Na  Na0  1  0.50000000  0.62283300  0.50000000  1
  Na  Na1  1  0.50000000  0.87383700  0.24868600  1
  Na  Na2  1  0.50000000  0.87383700  0.75131400  1
  Na  Na3  1  0.00000000  0.12616300  0.74868600  1
  Na  Na4  1  0.00000000  0.12616300  0.25131400  1
  Na  Na5  1  0.00000000  0.37716700  0.00000000  1
  Ti  Ti0  1  0.25000000  0.50000000  0.75000000  1
  Ti  Ti1  1  0.25000000  0.50000000  0.25000000  1
  Ti  Ti2  1  0.75000000  0.50000000  0.75000000  1
  Ti  Ti3  1  0.75000000  0.50000000  0.25000000  1
  Ti  Ti4  1  0.00000000  0.74836900  0.87794200  1
  Ti  Ti5  1  0.00000000  0.74245500  0.62376600  1
  Ti  Ti6  1  0.00000000  0.74836900  0.12205800  1
  Ti  Ti7  1  0.00000000  0.74245500  0.37623400  1
  Ti  Ti8  1  0.25355700  0.99515900  0.00000000  1
  Ti  Ti9  1  0.74644300  0.99515900  0.00000000  1
  Ti  Ti10  1  0.75355700  0.00484100  0.50000000  1
  Ti  Ti11  1  0.24644300  0.00484100  0.50000000  1
  Ti  Ti12  1  0.50000000  0.25754500  0.87623400  1
  Ti  Ti13  1  0.50000000  0.25163100  0.62205800  1
  Ti  Ti14  1  0.50000000  0.25163100  0.37794200  1
  Ti  Ti15  1  0.50000000  0.25754500  0.12376600  1
  O  O0  1  0.00000000  0.51752600  0.85595300  1
  O  O1  1  0.00000000  0.51730100  0.64262800  1
  O  O2  1  0.00000000  0.51730100  0.35737200  1
  O  O3  1  0.00000000  0.51752600  0.14404700  1
  O  O4  1  0.78770200  0.73135400  0.74923900  1
  O  O5  1  0.78770200  0.73135400  0.25076100  1
  O  O6  1  0.21229800  0.73135400  0.25076100  1
  O  O7  1  0.21229800  0.73135400  0.74923900  1
  O  O8  1  0.78496800  0.76684700  0.00000000  1
  O  O9  1  0.21503200  0.76684700  0.00000000  1
  O  O10  1  0.78613100  0.76895300  0.50000000  1
  O  O11  1  0.21386900  0.76895300  0.50000000  1
  O  O12  1  0.00000000  0.98103900  0.10680900  1
  O  O13  1  0.00000000  0.98085300  0.60651700  1
  O  O14  1  0.00000000  0.98103900  0.89319100  1
  O  O15  1  0.00000000  0.98085300  0.39348300  1
  O  O16  1  0.50000000  0.01896100  0.60680900  1
  O  O17  1  0.50000000  0.01914700  0.10651700  1
  O  O18  1  0.50000000  0.01914700  0.89348300  1
  O  O19  1  0.50000000  0.01896100  0.39319100  1
  O  O20  1  0.71503200  0.23315300  0.50000000  1
  O  O21  1  0.28613100  0.23104700  0.00000000  1
  O  O22  1  0.28496800  0.23315300  0.50000000  1
  O  O23  1  0.71386900  0.23104700  0.00000000  1
  O  O24  1  0.28770200  0.26864600  0.75076100  1
  O  O25  1  0.28770200  0.26864600  0.24923900  1
  O  O26  1  0.71229800  0.26864600  0.24923900  1
  O  O27  1  0.71229800  0.26864600  0.75076100  1
  O  O28  1  0.50000000  0.48247400  0.64404700  1
  O  O29  1  0.50000000  0.48269900  0.85737200  1
  O  O30  1  0.50000000  0.48247400  0.35595300  1
  O  O31  1  0.50000000  0.48269900  0.14262800  1
loop_
_geom_bond_atom_site_label_1
_geom_bond_atom_site_label_2
_geom_bond_distance
_geom_bond_site_symmetry_2
Na0 O30 2.144531 1_555
Na0 O28 2.144531 1_555
Na0 O10 2.161920 1_555
Na0 O11 2.161920 1_555
Na1 O17 2.150416 1_565
Na1 O5 2.151654 1_555
Na1 O6 2.151654 1_555
Na1 O19 2.172776 1_565
Na2 O18 2.150416 1_565
Na2 O7 2.151654 1_555
Na2 O4 2.151654 1_555
Na2 O16 2.172776 1_565
Na3 O13 2.150416 1_545
Na3 O24 2.151654 1_555
Na3 O27 2.151654 1_455
Na3 O14 2.172776 1_545
Na4 O15 2.150416 1_545
Na4 O25 2.151654 1_555
Na4 O26 2.151654 1_455
Na4 O12 2.172776 1_545
Na5 O3 2.144531 1_555
Na5 O0 2.144531 1_554
Na5 O21 2.161920 1_555
Na5 O23 2.161920 1_455
O0 Ti2 2.014091 1_455
O0 Ti0 2.014091 1_555
O0 Ti4 2.017691 1_555
O1 Ti5 1.963980 1_555
O1 Ti2 2.025216 1_455
O1 Ti0 2.025216 1_555
O2 Ti7 1.963980 1_555
O2 Ti1 2.025216 1_555
O2 Ti3 2.025216 1_455
O3 Ti3 2.014091 1_455
O3 Ti1 2.014091 1_555
O3 Ti6 2.017691 1_555
O4 Ti5 2.016985 1_655
O4 Ti2 2.017299 1_555
O4 Ti4 2.050411 1_655
O5 Ti7 2.016985 1_655
O5 Ti3 2.017299 1_555
O5 Ti6 2.050411 1_655
O6 Ti7 2.016985 1_555
O6 Ti1 2.017299 1_555
O6 Ti6 2.050411 1_555
O7 Ti5 2.016985 1_555
O7 Ti0 2.017299 1_555
O7 Ti4 2.050411 1_555
O8 Ti9 1.991694 1_555
O8 Ti4 2.000324 1_654
O8 Ti6 2.000324 1_655
O9 Ti8 1.991694 1_555
O9 Ti6 2.000324 1_555
O9 Ti4 2.000324 1_554
O10 Ti7 2.018117 1_655
O10 Ti5 2.018117 1_655
O10 Ti10 2.053007 1_565
O11 Ti7 2.018117 1_555
O11 Ti5 2.018117 1_555
O11 Ti11 2.053007 1_565
O12 Ti6 2.024072 1_555
O12 Ti8 2.035454 1_555
O12 Ti9 2.035454 1_455
O13 Ti10 2.007101 1_465
O13 Ti11 2.007101 1_565
O13 Ti5 2.075837 1_555
O14 Ti4 2.024072 1_555
O14 Ti9 2.035454 1_456
O14 Ti8 2.035454 1_556
O15 Ti11 2.007101 1_565
O15 Ti10 2.007101 1_465
O15 Ti7 2.075837 1_555
O16 Ti13 2.024072 1_555
O16 Ti11 2.035454 1_555
O16 Ti10 2.035454 1_555
O17 Ti8 2.007101 1_545
O17 Ti9 2.007101 1_545
O17 Ti15 2.075837 1_555
O18 Ti9 2.007101 1_546
O18 Ti8 2.007101 1_546
O18 Ti12 2.075837 1_555
O19 Ti14 2.024072 1_555
O19 Ti11 2.035454 1_555
O19 Ti10 2.035454 1_555
O20 Ti10 1.991694 1_555
O20 Ti13 2.000324 1_555
O20 Ti14 2.000324 1_555
O21 Ti15 2.018117 1_555
O21 Ti12 2.018117 1_554
O21 Ti8 2.053007 1_545
O22 Ti11 1.991694 1_555
O22 Ti14 2.000324 1_555
O22 Ti13 2.000324 1_555
O23 Ti15 2.018117 1_555
O23 Ti12 2.018117 1_554
O23 Ti9 2.053007 1_545
O24 Ti12 2.016985 1_555
O24 Ti0 2.017299 1_555
O24 Ti13 2.050411 1_555
O25 Ti15 2.016985 1_555
O25 Ti1 2.017299 1_555
O25 Ti14 2.050411 1_555
O26 Ti15 2.016985 1_555
O26 Ti3 2.017299 1_555
O26 Ti14 2.050411 1_555
O27 Ti12 2.016985 1_555
O27 Ti2 2.017299 1_555
O27 Ti13 2.050411 1_555
O28 Ti0 2.014091 1_555
O28 Ti2 2.014091 1_555
O28 Ti13 2.017691 1_555
O29 Ti12 1.963980 1_555
O29 Ti2 2.025216 1_555
O29 Ti0 2.025216 1_555
O30 Ti3 2.014091 1_555
O30 Ti1 2.014091 1_555
O30 Ti14 2.017691 1_555
O31 Ti15 1.963980 1_555
O31 Ti1 2.025216 1_555
O31 Ti3 2.025216 1_555
