# generated using pymatgen
data_CaV5H19O23
_symmetry_space_group_name_H-M   'P 1'
_cell_length_a   9.75342500
_cell_length_b   10.11192719
_cell_length_c   10.88458878
_cell_angle_alpha   89.48775768
_cell_angle_beta   103.99160565
_cell_angle_gamma   109.94795462
_symmetry_Int_Tables_number   1
_chemical_formula_structural   CaV5H19O23
_chemical_formula_sum   'Ca2 V10 H38 O46'
_cell_volume   975.96858109
_cell_formula_units_Z   2
loop_
 _symmetry_equiv_pos_site_id
 _symmetry_equiv_pos_as_xyz
  1  'x, y, z'
loop_
 _atom_site_type_symbol
 _atom_site_label
 _atom_site_symmetry_multiplicity
 _atom_site_fract_x
 _atom_site_fract_y
 _atom_site_fract_z
 _atom_site_occupancy
  Ca  Ca0  1  0.16133700  0.26941800  0.40844500  1
  Ca  Ca1  1  0.83866300  0.73058200  0.59155500  1
  V  V0  1  0.34921600  0.04025000  0.94559800  1
  V  V1  1  0.65078400  0.95975000  0.05440200  1
  V  V2  1  0.65881300  0.28004800  0.09345800  1
  V  V3  1  0.34118700  0.71995200  0.90654200  1
  V  V4  1  0.48186600  0.04357400  0.24421700  1
  V  V5  1  0.51813400  0.95642600  0.75578300  1
  V  V6  1  0.17576400  0.80199600  0.09719900  1
  V  V7  1  0.82423600  0.19800400  0.90280100  1
  V  V8  1  0.52701100  0.26768800  0.79367800  1
  V  V9  1  0.47298900  0.73231200  0.20632200  1
  H  H0  1  0.25656600  0.02251600  0.39571600  1
  H  H1  1  0.74343400  0.97748400  0.60428400  1
  H  H2  1  0.33967200  0.08700700  0.53786700  1
  H  H3  1  0.66032800  0.91299300  0.46213300  1
  H  H4  1  0.16744800  0.07292500  0.19488500  1
  H  H5  1  0.83255200  0.92707500  0.80511500  1
  H  H6  1  0.01250800  0.09469000  0.14122700  1
  H  H7  1  0.98749200  0.90531000  0.85877300  1
  H  H8  1  0.87015300  0.06079700  0.43223500  1
  H  H9  1  0.12984700  0.93920300  0.56776500  1
  H  H10  1  0.81816600  0.12761100  0.30390600  1
  H  H11  1  0.18183400  0.87238900  0.69609400  1
  H  H12  1  0.18422300  0.76775300  0.50139100  1
  H  H13  1  0.81577700  0.23224700  0.49860900  1
  H  H14  1  0.23495300  0.74360200  0.37768000  1
  H  H15  1  0.76504700  0.25639800  0.62232000  1
  H  H16  1  0.00492300  0.37813000  0.17094000  1
  H  H17  1  0.99507700  0.62187000  0.82906000  1
  H  H18  1  0.14545300  0.51166500  0.23475600  1
  H  H19  1  0.85454700  0.48833500  0.76524400  1
  H  H20  1  0.47447400  0.30674000  0.38332300  1
  H  H21  1  0.52552600  0.69326000  0.61667700  1
  H  H22  1  0.46182300  0.45812900  0.36756100  1
  H  H23  1  0.53817700  0.54187100  0.63243900  1
  H  H24  1  0.03410900  0.24705700  0.63951700  1
  H  H25  1  0.96589100  0.75294300  0.36048300  1
  H  H26  1  0.17542100  0.20548500  0.70516800  1
  H  H27  1  0.82457900  0.79451500  0.29483200  1
  H  H28  1  0.23526400  0.50119900  0.61565800  1
  H  H29  1  0.76473600  0.49880100  0.38434200  1
  H  H30  1  0.18715400  0.56261900  0.48480100  1
  H  H31  1  0.81284600  0.43738100  0.51519900  1
  H  H32  1  0.64711100  0.52011100  0.96160100  1
  H  H33  1  0.35288900  0.47988900  0.03839900  1
  H  H34  1  0.64676300  0.69975900  0.93793100  1
  H  H35  1  0.35323700  0.30024100  0.06206900  1
  H  H36  1  0.80667800  0.67821700  0.01747200  1
  H  H37  1  0.19332200  0.32178300  0.98252800  1
  O  O0  1  0.57185000  0.09783200  0.93434800  1
  O  O1  1  0.42815000  0.90216800  0.06565200  1
  O  O2  1  0.44152700  0.17001300  0.09647700  1
  O  O3  1  0.55847300  0.82998700  0.90352300  1
  O  O4  1  0.32817000  0.89372800  0.81923700  1
  O  O5  1  0.67183000  0.10627200  0.18076300  1
  O  O6  1  0.33021600  0.16654700  0.84084400  1
  O  O7  1  0.66978400  0.83345300  0.15915600  1
  O  O8  1  0.27749000  0.95867800  0.22411700  1
  O  O9  1  0.72251000  0.04132200  0.77588300  1
  O  O10  1  0.17552900  0.95740700  0.97825500  1
  O  O11  1  0.82447100  0.04259300  0.02174500  1
  O  O12  1  0.53045300  0.89590500  0.31643100  1
  O  O13  1  0.46954700  0.10409500  0.68356900  1
  O  O14  1  0.72922300  0.30436000  0.79855100  1
  O  O15  1  0.27077700  0.69564000  0.20144900  1
  O  O16  1  0.83481300  0.30217500  0.04832500  1
  O  O17  1  0.16518700  0.69782500  0.95167500  1
  O  O18  1  0.58815200  0.37471500  0.95692200  1
  O  O19  1  0.41184800  0.62528500  0.04307800  1
  O  O20  1  0.53659900  0.15983800  0.36666700  1
  O  O21  1  0.46340100  0.84016200  0.63333300  1
  O  O22  1  0.70989100  0.39557600  0.21411100  1
  O  O23  1  0.29010900  0.60442400  0.78588900  1
  O  O24  1  0.00000300  0.74610200  0.10691200  1
  O  O25  1  0.99999700  0.25389800  0.89308800  1
  O  O26  1  0.47652800  0.37646200  0.69783900  1
  O  O27  1  0.52347200  0.62353800  0.30216100  1
  O  O28  1  0.24485200  0.06834800  0.46971600  1
  O  O29  1  0.75514800  0.93165200  0.53028400  1
  O  O30  1  0.11011400  0.13406900  0.20385400  1
  O  O31  1  0.88988600  0.86593100  0.79614600  1
  O  O32  1  0.89782100  0.14590300  0.38527700  1
  O  O33  1  0.10217900  0.85409700  0.61472300  1
  O  O34  1  0.15523500  0.70712600  0.42236000  1
  O  O35  1  0.84476500  0.29287400  0.57764000  1
  O  O36  1  0.08815200  0.41442300  0.24801800  1
  O  O37  1  0.91184800  0.58557700  0.75198200  1
  O  O38  1  0.40878500  0.36118600  0.38561500  1
  O  O39  1  0.59121500  0.63881400  0.61438500  1
  O  O40  1  0.10975000  0.21048900  0.62307300  1
  O  O41  1  0.89025000  0.78951100  0.37692700  1
  O  O42  1  0.21525300  0.48315800  0.52383000  1
  O  O43  1  0.78474700  0.51684200  0.47617000  1
  O  O44  1  0.70502800  0.63407700  0.95780300  1
  O  O45  1  0.29497200  0.36592300  0.04219700  1
loop_
_geom_bond_atom_site_label_1
_geom_bond_atom_site_label_2
_geom_bond_distance
_geom_bond_site_symmetry_2
Ca0 O42 2.340692 1_555
Ca0 O38 2.346360 1_555
Ca0 O32 2.394001 1_455
Ca0 O36 2.402976 1_555
Ca0 O28 2.466844 1_555
Ca0 O30 2.476239 1_555
Ca0 O40 2.530751 1_555
Ca1 O43 2.340692 1_555
Ca1 O39 2.346360 1_555
Ca1 O33 2.394001 1_655
Ca1 O37 2.402976 1_555
Ca1 O29 2.466844 1_555
Ca1 O31 2.476239 1_555
Ca1 O41 2.530751 1_555
H0 O28 0.981788 1_555
H1 O29 0.981788 1_555
H2 O28 0.996422 1_555
H3 O29 0.996422 1_555
H4 O30 0.983821 1_555
H5 O31 0.983821 1_555
H6 O30 0.980773 1_555
H7 O31 0.980773 1_555
H8 O32 0.987443 1_555
H9 O33 0.987443 1_555
H10 O32 0.997189 1_555
H10 O5 1.658371 1_555
H11 O33 0.997189 1_555
H11 O4 1.658371 1_555
H12 O34 0.984533 1_555
H13 O35 0.984533 1_555
H14 O34 0.980335 1_555
H15 O35 0.980335 1_555
H16 O36 0.985096 1_555
H17 O37 0.985096 1_555
H18 O36 0.980596 1_555
H19 O37 0.980596 1_555
H20 O38 0.981263 1_555
H21 O39 0.981263 1_555
H22 O38 0.983294 1_555
H23 O39 0.983294 1_555
H24 O40 0.981955 1_555
H25 O41 0.981955 1_555
H26 O40 0.977667 1_555
H27 O41 0.977667 1_555
H28 O42 0.977255 1_555
H29 O43 0.977255 1_555
H30 O42 0.994510 1_555
H31 O43 0.994510 1_555
H32 O44 1.102326 1_555
H32 O18 1.380274 1_555
H33 O45 1.102326 1_555
H33 O19 1.380274 1_555
H34 O44 1.003188 1_555
H35 O45 1.003188 1_555
H36 O44 0.997922 1_554
H37 O45 0.997922 1_556
O0 V0 2.081775 1_555
O0 V1 2.112875 1_546
O0 V5 2.267774 1_545
O0 V2 2.322519 1_556
O0 V8 2.372214 1_555
O0 V7 2.429958 1_555
O1 V1 2.081775 1_555
O1 V0 2.112875 1_564
O1 V4 2.267774 1_565
O1 V3 2.322519 1_554
O1 V9 2.372214 1_555
O1 V6 2.429958 1_555
O2 V0 1.935669 1_554
O2 V2 2.038261 1_555
O2 V4 2.091877 1_555
O3 V1 1.935669 1_556
O3 V3 2.038261 1_555
O3 V5 2.091877 1_555
O4 V0 1.954845 1_565
O4 V3 2.017663 1_555
O4 V5 2.030098 1_555
O5 V1 1.954845 1_545
O5 V2 2.017663 1_555
O5 V4 2.030098 1_555
O6 V0 1.731670 1_555
O6 V8 2.030120 1_555
O7 V1 1.731670 1_555
O7 V9 2.030120 1_555
O8 V4 1.839341 1_565
O8 V6 1.925293 1_555
O9 V5 1.839341 1_545
O9 V7 1.925293 1_555
O10 V0 1.736500 1_565
O10 V6 2.027415 1_556
O11 V1 1.736500 1_545
O11 V7 2.027415 1_554
O12 V4 1.831345 1_565
O12 V9 1.888128 1_555
O13 V5 1.831345 1_545
O13 V8 1.888128 1_555
O14 V7 1.858149 1_555
O14 V8 1.865708 1_555
O15 V6 1.858149 1_555
O15 V9 1.865708 1_555
O16 V2 1.838983 1_555
O16 V7 1.872393 1_554
O17 V3 1.838983 1_555
O17 V6 1.872393 1_556
O18 V2 1.878667 1_556
O18 V8 1.940540 1_555
O19 V3 1.878667 1_554
O19 V9 1.940540 1_555
O20 V4 1.642946 1_555
O21 V5 1.642946 1_555
O22 V2 1.628345 1_555
O23 V3 1.628345 1_555
O24 V6 1.641587 1_555
O25 V7 1.641587 1_555
O26 V8 1.625146 1_555
O27 V9 1.625146 1_555
