# generated using pymatgen
data_Li4Co3Ni3(PO4)6
_symmetry_space_group_name_H-M   'P 1'
_cell_length_a   8.29865130
_cell_length_b   8.78982603
_cell_length_c   8.78534290
_cell_angle_alpha   59.89170723
_cell_angle_beta   58.93013063
_cell_angle_gamma   58.92992551
_symmetry_Int_Tables_number   1
_chemical_formula_structural   Li4Co3Ni3(PO4)6
_chemical_formula_sum   'Li4 Co3 Ni3 P6 O24'
_cell_volume   445.31819983
_cell_formula_units_Z   1
loop_
 _symmetry_equiv_pos_site_id
 _symmetry_equiv_pos_as_xyz
  1  'x, y, z'
loop_
 _atom_site_type_symbol
 _atom_site_label
 _atom_site_symmetry_multiplicity
 _atom_site_fract_x
 _atom_site_fract_y
 _atom_site_fract_z
 _atom_site_occupancy
  Li  Li0  1  0.25175699  0.85341986  0.64254133  1
  Li  Li1  1  0.76005396  0.14737967  0.35302269  1
  Li  Li2  1  0.76290179  0.73941107  0.14493843  1
  Li  Li3  1  0.76447104  0.35360296  0.73784391  1
  Co  Co0  1  0.00763491  0.99834161  0.00476248  1
  Co  Co1  1  0.56696333  0.14595922  0.14402864  1
  Co  Co2  1  0.49467398  0.49720923  0.49886860  1
  Ni  Ni0  1  0.06994215  0.64343109  0.64418545  1
  Ni  Ni1  1  0.43149771  0.85491884  0.85496207  1
  Ni  Ni2  1  0.94087397  0.35348725  0.35151474  1
  P  P0  1  0.25173201  0.25267094  0.54855263  1
  P  P1  1  0.24770378  0.95277597  0.24761556  1
  P  P2  1  0.24921570  0.54940765  0.95175669  1
  P  P3  1  0.74608035  0.45425308  0.04626294  1
  P  P4  1  0.75725477  0.04415559  0.75175683  1
  P  P5  1  0.73578523  0.75389621  0.45612286  1
  O  O0  1  0.05180976  0.10609961  0.31467007  1
  O  O1  1  0.05158107  0.52450140  0.10500940  1
  O  O2  1  0.05332528  0.32272111  0.52125869  1
  O  O3  1  0.22596012  0.08951027  0.73941566  1
  O  O4  1  0.44226367  0.18598130  0.38637568  1
  O  O5  1  0.28160748  0.40259598  0.56576623  1
  O  O6  1  0.22509808  0.92787420  0.09729675  1
  O  O7  1  0.27989322  0.76241205  0.41080127  1
  O  O8  1  0.55849742  0.60822568  0.01084464  1
  O  O9  1  0.28270741  0.56956247  0.75102005  1
  O  O10  1  0.76746221  0.25085374  0.07228321  1
  O  O11  1  0.57999997  0.99521607  0.81295772  1
  O  O12  1  0.44052798  0.99476348  0.17588350  1
  O  O13  1  0.22107312  0.75074101  0.92676118  1
  O  O14  1  0.72361281  0.42992471  0.24689273  1
  O  O15  1  0.44067699  0.38852006  0.98950940  1
  O  O16  1  0.72816573  0.24456179  0.59505056  1
  O  O17  1  0.76969609  0.07552909  0.90962914  1
  O  O18  1  0.72269116  0.59662182  0.42762209  1
  O  O19  1  0.53632747  0.81804361  0.60452788  1
  O  O20  1  0.76371437  0.91079791  0.25306945  1
  O  O21  1  0.91703906  0.69324573  0.49945848  1
  O  O22  1  0.93789674  0.48314933  0.89329635  1
  O  O23  1  0.95983310  0.89722534  0.68886500  1
loop_
_geom_bond_atom_site_label_1
_geom_bond_atom_site_label_2
_geom_bond_distance
_geom_bond_site_symmetry_2
Li0 O19 2.077822 1_555
Li0 O23 2.087949 1_455
Li0 O9 2.098832 1_555
Li0 O13 2.105762 1_555
Li0 O7 2.406216 1_555
Li0 O3 2.490362 1_565
Li1 O14 2.078779 1_555
Li1 O0 2.116871 1_655
Li1 O10 2.136524 1_555
Li1 O4 2.352552 1_555
Li1 O16 2.515752 1_555
Li1 O20 2.614518 1_545
Li2 O18 2.074602 1_555
Li2 O1 2.134708 1_655
Li2 O20 2.150530 1_555
Li2 O12 2.435657 1_555
Li2 O14 2.545243 1_555
Li2 O17 2.632384 1_564
Li3 O16 2.116039 1_555
Li3 O17 2.123921 1_555
Li3 O2 2.139870 1_655
Li3 O15 2.429057 1_555
Li3 O18 2.545793 1_555
Li3 O10 2.615141 1_556
Co0 O6 2.038782 1_555
Co0 O13 2.146632 1_554
Co0 O3 2.150365 1_564
Co0 O10 2.187510 1_465
Co0 O17 2.193053 1_464
Co0 O20 2.194121 1_455
Co1 O12 1.925745 1_545
Co1 O15 1.935256 1_554
Co1 O4 1.956849 1_555
Co1 O10 1.983372 1_555
Co1 O20 2.000124 1_545
Co1 O17 2.020485 1_554
Co2 O5 2.029343 1_555
Co2 O7 2.129518 1_555
Co2 O9 2.154686 1_555
Co2 O18 2.161327 1_555
Co2 O14 2.161588 1_555
Co2 O16 2.183132 1_555
Ni0 O21 1.987885 1_455
Ni0 O22 2.000010 1_455
Ni0 O9 2.082278 1_555
Ni0 O23 2.090416 1_455
Ni0 O7 2.091778 1_555
Ni0 O5 2.101760 1_555
Ni1 O11 1.954056 1_555
Ni1 O8 1.959536 1_556
Ni1 O19 2.037490 1_555
Ni1 O13 2.054219 1_555
Ni1 O3 2.061203 1_565
Ni1 O6 2.085600 1_556
Ni2 O1 1.974692 1_655
Ni2 O2 1.984730 1_655
Ni2 O0 2.003259 1_655
Ni2 O14 2.094644 1_555
Ni2 O16 2.097928 1_555
Ni2 O18 2.117240 1_555
O0 P1 1.533863 1_545
O1 P2 1.531749 1_554
O2 P0 1.536416 1_555
O3 P0 1.564600 1_555
O4 P0 1.558735 1_555
O5 P0 1.548175 1_555
O6 P1 1.554087 1_555
O7 P1 1.566436 1_555
O8 P3 1.501544 1_555
O9 P2 1.565301 1_555
O10 P3 1.607645 1_555
O11 P4 1.497546 1_565
O12 P1 1.558620 1_555
O13 P2 1.571942 1_555
O14 P3 1.584629 1_555
O15 P2 1.545488 1_555
O16 P4 1.589867 1_555
O17 P4 1.603526 1_555
O18 P5 1.586184 1_555
O19 P5 1.517995 1_555
O20 P5 1.604028 1_555
O21 P5 1.500477 1_555
O22 P3 1.507063 1_556
O23 P4 1.521704 1_565
