# generated using pymatgen
data_Li4Mn2Co3Cu3O16
_symmetry_space_group_name_H-M   'P 1'
_cell_length_a   5.78825578
_cell_length_b   5.78825578
_cell_length_c   9.29604376
_cell_angle_alpha   88.54085199
_cell_angle_beta   88.54085199
_cell_angle_gamma   59.43668595
_symmetry_Int_Tables_number   1
_chemical_formula_structural   Li4Mn2Co3Cu3O16
_chemical_formula_sum   'Li4 Mn2 Co3 Cu3 O16'
_cell_volume   268.06750194
_cell_formula_units_Z   1
loop_
 _symmetry_equiv_pos_site_id
 _symmetry_equiv_pos_as_xyz
  1  'x, y, z'
loop_
 _atom_site_type_symbol
 _atom_site_label
 _atom_site_symmetry_multiplicity
 _atom_site_fract_x
 _atom_site_fract_y
 _atom_site_fract_z
 _atom_site_occupancy
  Li  Li0  1  0.66338800  0.66338800  0.89641900  1
  Li  Li1  1  0.99989500  0.99989500  0.99427300  1
  Li  Li2  1  0.99897300  0.99897300  0.49437300  1
  Li  Li3  1  0.33822200  0.33822200  0.40188500  1
  Mn  Mn0  1  0.67151100  0.67151100  0.49241600  1
  Mn  Mn1  1  0.32912300  0.32912300  0.97976600  1
  Co  Co0  1  0.83024200  0.83024200  0.21098400  1
  Co  Co1  1  0.65971800  0.17103700  0.71333400  1
  Co  Co2  1  0.17103700  0.65971800  0.71333400  1
  Cu  Cu0  1  0.83138200  0.33979400  0.21386200  1
  Cu  Cu1  1  0.33979400  0.83138200  0.21386200  1
  Cu  Cu2  1  0.16843500  0.16843500  0.71186600  1
  O  O0  1  0.82922200  0.33099600  0.59300400  1
  O  O1  1  0.52619900  0.52619900  0.35107100  1
  O  O2  1  0.67162200  0.67162200  0.11005400  1
  O  O3  1  0.99378400  0.99378400  0.30284500  1
  O  O4  1  0.99555900  0.99555900  0.80400300  1
  O  O5  1  0.33099600  0.82922200  0.59300400  1
  O  O6  1  0.96470000  0.53641300  0.34469400  1
  O  O7  1  0.53641300  0.96470000  0.34469400  1
  O  O8  1  0.16431300  0.16431300  0.09352100  1
  O  O9  1  0.83473800  0.83473800  0.60137100  1
  O  O10  1  0.48773700  0.03795500  0.84290800  1
  O  O11  1  0.03795500  0.48773700  0.84290800  1
  O  O12  1  0.33766900  0.33766900  0.61315900  1
  O  O13  1  0.66323800  0.15176900  0.09841000  1
  O  O14  1  0.47972300  0.47972300  0.83722600  1
  O  O15  1  0.15176900  0.66323800  0.09841000  1
loop_
_geom_bond_atom_site_label_1
_geom_bond_atom_site_label_2
_geom_bond_distance
_geom_bond_site_symmetry_2
Li0 O11 1.926354 1_655
Li0 O10 1.926354 1_565
Li0 O14 1.942191 1_555
Li0 O2 1.990109 1_556
Li1 O4 1.770573 1_555
Li1 O8 1.916557 1_666
Li1 O15 1.926744 1_656
Li1 O13 1.926744 1_566
Li2 O3 1.782745 1_555
Li2 O9 1.902497 1_555
Li2 O0 1.903422 1_565
Li2 O5 1.903422 1_655
Li3 O1 1.934555 1_555
Li3 O6 1.943761 1_455
Li3 O7 1.943761 1_545
Li3 O12 1.963857 1_555
Mn0 O5 1.926729 1_555
Mn0 O0 1.926729 1_555
Mn0 O9 1.953569 1_555
Mn0 O6 1.990892 1_555
Mn0 O7 1.990892 1_555
Mn0 O1 1.993341 1_555
Mn1 O8 1.939350 1_556
Mn1 O10 1.943716 1_555
Mn1 O11 1.943716 1_555
Mn1 O14 1.982592 1_555
Mn1 O15 2.010557 1_556
Mn1 O13 2.010557 1_556
Co0 O2 1.873840 1_555
Co0 O3 1.874849 1_555
Co0 O13 1.901565 1_565
Co0 O15 1.901565 1_655
Co0 O6 1.907549 1_555
Co0 O7 1.907549 1_555
Co1 O12 1.867227 1_555
Co1 O4 1.884889 1_545
Co1 O10 1.925291 1_555
Co1 O14 1.937762 1_555
Co1 O0 1.971378 1_555
Co1 O9 1.985640 1_545
Co2 O12 1.867227 1_555
Co2 O4 1.884889 1_455
Co2 O11 1.925291 1_555
Co2 O14 1.937762 1_555
Co2 O5 1.971378 1_555
Co2 O9 1.985640 1_455
Cu0 O3 1.902540 1_545
Cu0 O2 1.902689 1_555
Cu0 O1 1.982048 1_555
Cu0 O8 1.988542 1_655
Cu0 O6 2.093166 1_555
Cu0 O13 2.115060 1_555
Cu1 O3 1.902540 1_455
Cu1 O2 1.902689 1_555
Cu1 O1 1.982048 1_555
Cu1 O8 1.988542 1_565
Cu1 O7 2.093166 1_555
Cu1 O15 2.115060 1_555
Cu2 O12 1.909286 1_555
Cu2 O4 1.914998 1_445
Cu2 O10 2.029395 1_555
Cu2 O11 2.029395 1_555
Cu2 O0 2.034722 1_455
Cu2 O5 2.034722 1_545
