# generated using pymatgen
data_Li4FeSi2O7
_symmetry_space_group_name_H-M   'P 1'
_cell_length_a   4.55686203
_cell_length_b   17.22471773
_cell_length_c   7.95422790
_cell_angle_alpha   96.49338208
_cell_angle_beta   106.64457841
_cell_angle_gamma   82.38549853
_symmetry_Int_Tables_number   1
_chemical_formula_structural   Li4FeSi2O7
_chemical_formula_sum   'Li16 Fe4 Si8 O28'
_cell_volume   591.03986226
_cell_formula_units_Z   4
loop_
 _symmetry_equiv_pos_site_id
 _symmetry_equiv_pos_as_xyz
  1  'x, y, z'
loop_
 _atom_site_type_symbol
 _atom_site_label
 _atom_site_symmetry_multiplicity
 _atom_site_fract_x
 _atom_site_fract_y
 _atom_site_fract_z
 _atom_site_occupancy
  Li  Li0  1  0.45147100  0.28475700  0.15212800  1
  Li  Li1  1  0.70147200  0.53472900  0.90215700  1
  Li  Li2  1  0.95144300  0.78475200  0.65217800  1
  Li  Li3  1  0.20143900  0.03475500  0.40218600  1
  Li  Li4  1  0.08399500  0.21529800  0.34783200  1
  Li  Li5  1  0.33405600  0.46526000  0.09786000  1
  Li  Li6  1  0.58398000  0.71528400  0.84776000  1
  Li  Li7  1  0.83395600  0.96527300  0.59778100  1
  Li  Li8  1  0.89935200  0.18047600  0.96694800  1
  Li  Li9  1  0.14957300  0.43045100  0.71689700  1
  Li  Li10  1  0.39944100  0.68047400  0.46689000  1
  Li  Li11  1  0.64943700  0.93045100  0.21693300  1
  Li  Li12  1  0.61302500  0.31955500  0.53300400  1
  Li  Li13  1  0.86284700  0.56952000  0.28298100  1
  Li  Li14  1  0.11303200  0.81956600  0.03303000  1
  Li  Li15  1  0.36306600  0.06953800  0.78303700  1
  Fe  Fe0  1  0.75121900  0.74997600  0.24987800  1
  Fe  Fe1  1  0.00116600  0.00000500  0.99992500  1
  Fe  Fe2  1  0.25079200  0.24991000  0.74979500  1
  Fe  Fe3  1  0.50053100  0.50002900  0.49994900  1
  Si  Si0  1  0.95512300  0.38956200  0.31950100  1
  Si  Si1  1  0.20515800  0.63954900  0.06951300  1
  Si  Si2  1  0.45513100  0.88955300  0.81949600  1
  Si  Si3  1  0.70517000  0.13955000  0.56952700  1
  Si  Si4  1  0.52475600  0.11045900  0.18063600  1
  Si  Si5  1  0.77476700  0.36046800  0.93059500  1
  Si  Si6  1  0.02473100  0.61043400  0.68059600  1
  Si  Si7  1  0.27476500  0.86046500  0.43061800  1
  O  O0  1  0.80703600  0.12507100  0.37507300  1
  O  O1  1  0.05704200  0.37507400  0.12505600  1
  O  O2  1  0.30699800  0.62507600  0.87503600  1
  O  O3  1  0.55703000  0.87508000  0.62505300  1
  O  O4  1  0.62026500  0.28128000  0.94735300  1
  O  O5  1  0.87029200  0.53127000  0.69724800  1
  O  O6  1  0.12044300  0.78126800  0.44745900  1
  O  O7  1  0.37029100  0.03129600  0.19746600  1
  O  O8  1  0.45471600  0.21863800  0.55244400  1
  O  O9  1  0.70467700  0.46863500  0.30245700  1
  O  O10  1  0.95470200  0.71865100  0.05237200  1
  O  O11  1  0.20474400  0.96863500  0.80235400  1
  O  O12  1  0.26497400  0.40545500  0.48112000  1
  O  O13  1  0.51486800  0.65544900  0.23108100  1
  O  O14  1  0.76491200  0.90543200  0.98108100  1
  O  O15  1  0.01493500  0.15541000  0.73110600  1
  O  O16  1  0.68914500  0.09448000  0.01909600  1
  O  O17  1  0.93918000  0.34448200  0.76907300  1
  O  O18  1  0.18916000  0.59450600  0.51907600  1
  O  O19  1  0.43912800  0.84448900  0.26912200  1
  O  O20  1  0.81034600  0.31194800  0.34475300  1
  O  O21  1  0.06032500  0.56195600  0.09473900  1
  O  O22  1  0.31026800  0.81194800  0.84467400  1
  O  O23  1  0.56031000  0.06195600  0.59473200  1
  O  O24  1  0.27679700  0.18809900  0.15533400  1
  O  O25  1  0.52687400  0.43812100  0.90534700  1
  O  O26  1  0.77685200  0.68809500  0.65532300  1
  O  O27  1  0.02679000  0.93810300  0.40534500  1
loop_
_geom_bond_atom_site_label_1
_geom_bond_atom_site_label_2
_geom_bond_distance
_geom_bond_site_symmetry_2
Li0 O24 1.943851 1_555
Li0 O20 1.961266 1_555
Li0 O4 1.982859 1_554
Li0 O1 2.193184 1_555
Li1 O25 1.942854 1_555
Li1 O21 1.961187 1_656
Li1 O5 1.983959 1_555
Li1 O2 2.193621 1_555
Li2 O26 1.943526 1_555
Li2 O22 1.960613 1_655
Li2 O6 1.983013 1_655
Li2 O3 2.193226 1_555
Li3 O27 1.943612 1_545
Li3 O23 1.960975 1_555
Li3 O7 1.982652 1_555
Li3 O0 2.193073 1_455
Li4 O20 1.941286 1_455
Li4 O24 1.958363 1_555
Li4 O8 1.983810 1_555
Li4 O0 2.192651 1_455
Li5 O21 1.942070 1_555
Li5 O25 1.958421 1_554
Li5 O9 1.983489 1_555
Li5 O1 2.192141 1_555
Li6 O22 1.941619 1_555
Li6 O26 1.958123 1_555
Li6 O10 1.983836 1_556
Li6 O2 2.192560 1_555
Li7 O23 1.941736 1_565
Li7 O27 1.957975 1_655
Li7 O11 1.983840 1_655
Li7 O3 2.192165 1_555
Li8 O24 1.939023 1_656
Li8 O4 2.004728 1_555
Li8 O16 2.006571 1_556
Li8 O15 2.074980 1_655
Li9 O25 1.938920 1_555
Li9 O5 2.005369 1_455
Li9 O17 2.006820 1_455
Li9 O12 2.073998 1_555
Li10 O26 1.939106 1_555
Li10 O6 2.004398 1_555
Li10 O18 2.006516 1_555
Li10 O13 2.074334 1_555
Li11 O27 1.938895 1_655
Li11 O7 2.005426 1_565
Li11 O19 2.006522 1_555
Li11 O14 2.074759 1_554
Li12 O20 1.939989 1_555
Li12 O12 2.004057 1_555
Li12 O8 2.005718 1_555
Li12 O17 2.075383 1_555
Li13 O21 1.940468 1_655
Li13 O13 2.004184 1_555
Li13 O9 2.004975 1_555
Li13 O18 2.076074 1_655
Li14 O22 1.940461 1_554
Li14 O14 2.003904 1_454
Li14 O10 2.005517 1_455
Li14 O19 2.075363 1_555
Li15 O23 1.940172 1_555
Li15 O15 2.003995 1_555
Li15 O11 2.005253 1_545
Li15 O16 2.075213 1_556
Fe0 O6 2.031063 1_655
Fe0 O10 2.032035 1_555
Fe0 O13 2.037347 1_555
Fe0 O19 2.037398 1_555
Fe1 O7 2.030608 1_556
Fe1 O11 2.032856 1_545
Fe1 O16 2.036638 1_456
Fe1 O14 2.037695 1_445
Fe2 O4 2.032086 1_555
Fe2 O8 2.032143 1_555
Fe2 O15 2.035711 1_555
Fe2 O17 2.036820 1_455
Fe3 O5 2.031249 1_555
Fe3 O9 2.034020 1_555
Fe3 O18 2.034782 1_555
Fe3 O12 2.035784 1_555
O0 Si3 1.721461 1_555
O0 Si4 1.722787 1_555
O1 Si0 1.721516 1_455
O1 Si5 1.722888 1_454
O2 Si1 1.721575 1_556
O2 Si6 1.722847 1_555
O3 Si2 1.721452 1_555
O3 Si7 1.722749 1_555
O4 Si5 1.650242 1_555
O5 Si6 1.649463 1_655
O6 Si7 1.650117 1_555
O7 Si4 1.649933 1_555
O8 Si3 1.648566 1_555
O9 Si0 1.648360 1_555
O10 Si1 1.648740 1_655
O11 Si2 1.648308 1_555
O12 Si0 1.644443 1_455
O13 Si1 1.643834 1_555
O14 Si2 1.644047 1_555
O15 Si3 1.643912 1_455
O16 Si4 1.644601 1_555
O17 Si5 1.644548 1_555
O18 Si6 1.644563 1_555
O19 Si7 1.644210 1_555
O20 Si0 1.622719 1_555
O21 Si1 1.622468 1_555
O22 Si2 1.622601 1_555
O23 Si3 1.622496 1_555
O24 Si4 1.623516 1_555
O25 Si5 1.623510 1_555
O26 Si6 1.623581 1_655
O27 Si7 1.623526 1_555
