# generated using pymatgen
data_Li3V2(O2F)2
_symmetry_space_group_name_H-M   'P 1'
_cell_length_a   5.15235595
_cell_length_b   5.15235595
_cell_length_c   14.85375339
_cell_angle_alpha   89.65246570
_cell_angle_beta   89.65246570
_cell_angle_gamma   120.25174728
_symmetry_Int_Tables_number   1
_chemical_formula_structural   Li3V2(O2F)2
_chemical_formula_sum   'Li9 V6 O12 F6'
_cell_volume   340.59561253
_cell_formula_units_Z   3
loop_
 _symmetry_equiv_pos_site_id
 _symmetry_equiv_pos_as_xyz
  1  'x, y, z'
loop_
 _atom_site_type_symbol
 _atom_site_label
 _atom_site_symmetry_multiplicity
 _atom_site_fract_x
 _atom_site_fract_y
 _atom_site_fract_z
 _atom_site_occupancy
  Li  Li0  1  0.65698900  0.34301100  0.50000000  1
  Li  Li1  1  0.66662300  0.33337700  0.00000000  1
  Li  Li2  1  0.00000000  0.00000000  0.50000000  1
  Li  Li3  1  0.33756200  0.00314400  0.35933700  1
  Li  Li4  1  0.66243800  0.99685600  0.64066300  1
  Li  Li5  1  0.33337700  0.66662300  0.00000000  1
  Li  Li6  1  0.34301100  0.65698900  0.50000000  1
  Li  Li7  1  0.99685600  0.66243800  0.64066300  1
  Li  Li8  1  0.00314400  0.33756200  0.35933700  1
  V  V0  1  0.66696400  0.66696400  0.83121800  1
  V  V1  1  0.33303600  0.33303600  0.16878200  1
  V  V2  1  0.32986500  0.00303900  0.83269600  1
  V  V3  1  0.67013500  0.99696100  0.16730400  1
  V  V4  1  0.99696100  0.67013500  0.16730400  1
  V  V5  1  0.00303900  0.32986500  0.83269600  1
  O  O0  1  0.64561700  0.64561700  0.09347900  1
  O  O1  1  0.67476100  0.33947200  0.76498700  1
  O  O2  1  0.66052800  0.32523900  0.23501300  1
  O  O3  1  0.35438300  0.35438300  0.90652100  1
  O  O4  1  0.97962100  0.97962100  0.76349900  1
  O  O5  1  0.02037900  0.02037900  0.23650100  1
  O  O6  1  0.34674100  0.00572100  0.09440300  1
  O  O7  1  0.65325900  0.99427900  0.90559700  1
  O  O8  1  0.32523900  0.66052800  0.23501300  1
  O  O9  1  0.33947200  0.67476100  0.76498700  1
  O  O10  1  0.99427900  0.65325900  0.90559700  1
  O  O11  1  0.00572100  0.34674100  0.09440300  1
  F  F0  1  0.68709000  0.68709000  0.57653600  1
  F  F1  1  0.31291000  0.31291000  0.42346400  1
  F  F2  1  0.33133700  0.97474300  0.57962400  1
  F  F3  1  0.66866300  0.02525700  0.42037600  1
  F  F4  1  0.02525700  0.66866300  0.42037600  1
  F  F5  1  0.97474300  0.33133700  0.57962400  1
loop_
_geom_bond_atom_site_label_1
_geom_bond_atom_site_label_2
_geom_bond_distance
_geom_bond_site_symmetry_2
Li1 O10 2.161568 1_554
Li1 O6 2.161568 1_555
Li1 O0 2.174522 1_555
Li1 O3 2.174522 1_554
Li1 O11 2.221089 1_655
Li1 O7 2.221089 1_544
Li3 O2 2.465024 1_555
Li3 O5 2.487596 1_555
Li3 O8 2.541358 1_545
Li4 O9 2.465024 1_555
Li4 O4 2.487596 1_555
Li4 O1 2.541358 1_565
Li5 O7 2.161568 1_554
Li5 O11 2.161568 1_555
Li5 O0 2.174522 1_555
Li5 O3 2.174522 1_554
Li5 O6 2.221089 1_565
Li5 O10 2.221089 1_454
Li7 O1 2.465024 1_555
Li7 O4 2.487596 1_555
Li7 O9 2.541358 1_655
Li8 O8 2.465024 1_555
Li8 O5 2.487596 1_555
Li8 O2 2.541358 1_455
O0 V1 1.944607 1_555
O0 V3 2.071422 1_555
O0 V4 2.071422 1_555
O1 V0 1.975997 1_555
O1 V5 1.994791 1_655
O1 V2 2.006862 1_555
O2 V1 1.975997 1_555
O2 V3 1.994791 1_545
O2 V4 2.006862 1_555
O3 V0 1.944607 1_555
O3 V5 2.071422 1_555
O3 V2 2.071422 1_555
O4 V0 1.883566 1_555
O4 V2 2.032765 1_665
O4 V5 2.032765 1_665
O5 V1 1.883566 1_555
O5 V4 2.032765 1_445
O5 V3 2.032765 1_445
O6 V3 2.011974 1_545
O6 V1 2.052151 1_555
O6 V4 2.055223 1_445
O7 V2 2.011974 1_565
O7 V0 2.052151 1_555
O7 V5 2.055223 1_665
O8 V1 1.975997 1_555
O8 V4 1.994791 1_455
O8 V3 2.006862 1_555
O9 V0 1.975997 1_555
O9 V2 1.994791 1_565
O9 V5 2.006862 1_555
O10 V5 2.011974 1_655
O10 V0 2.052151 1_555
O10 V2 2.055223 1_665
O11 V4 2.011974 1_455
O11 V1 2.052151 1_555
O11 V3 2.055223 1_445
F0 Li7 1.921450 1_555
F0 Li4 1.921450 1_555
F0 Li2 1.956390 1_665
F0 Li6 2.051562 1_555
F0 Li0 2.051562 1_555
F1 Li3 1.921450 1_555
F1 Li8 1.921450 1_555
F1 Li2 1.956390 1_555
F1 Li6 2.051562 1_555
F1 Li0 2.051562 1_555
F2 Li7 1.884259 1_455
F2 Li4 1.889299 1_555
F2 Li6 2.050524 1_555
F2 Li0 2.134294 1_565
F2 Li2 2.139308 1_565
F3 Li8 1.884259 1_655
F3 Li3 1.889299 1_555
F3 Li0 2.050524 1_555
F3 Li6 2.134294 1_545
F3 Li2 2.139308 1_655
F4 Li3 1.884259 1_565
F4 Li8 1.889299 1_555
F4 Li6 2.050524 1_555
F4 Li0 2.134294 1_455
F4 Li2 2.139308 1_565
F5 Li4 1.884259 1_545
F5 Li7 1.889299 1_555
F5 Li0 2.050524 1_555
F5 Li6 2.134294 1_655
F5 Li2 2.139308 1_655
