# generated using pymatgen
data_Zn2Fe7O12
_symmetry_space_group_name_H-M   'P 1'
_cell_length_a   13.55155586
_cell_length_b   13.55155586
_cell_length_c   13.55155586
_cell_angle_alpha   154.14900120
_cell_angle_beta   154.14900120
_cell_angle_gamma   36.88307043
_symmetry_Int_Tables_number   1
_chemical_formula_structural   Zn2Fe7O12
_chemical_formula_sum   'Zn4 Fe14 O24'
_cell_volume   472.49973710
_cell_formula_units_Z   2
loop_
 _symmetry_equiv_pos_site_id
 _symmetry_equiv_pos_as_xyz
  1  'x, y, z'
loop_
 _atom_site_type_symbol
 _atom_site_label
 _atom_site_symmetry_multiplicity
 _atom_site_fract_x
 _atom_site_fract_y
 _atom_site_fract_z
 _atom_site_occupancy
  Zn  Zn0  1  0.83356300  0.83356300  0.00000000  1
  Zn  Zn1  1  0.91643700  0.41643700  0.50000000  1
  Zn  Zn2  1  0.58356300  0.08356300  0.50000000  1
  Zn  Zn3  1  0.16643700  0.16643700  0.00000000  1
  Fe  Fe0  1  0.37500000  0.62500000  0.25000000  1
  Fe  Fe1  1  0.37500000  0.12500000  0.75000000  1
  Fe  Fe2  1  0.70825300  0.95815600  0.75009700  1
  Fe  Fe3  1  0.20806000  0.95815600  0.24990300  1
  Fe  Fe4  1  0.50000000  0.50000000  0.00000000  1
  Fe  Fe5  1  0.04184400  0.79194000  0.75009700  1
  Fe  Fe6  1  0.04184400  0.29174700  0.24990300  1
  Fe  Fe7  1  0.87500000  0.62500000  0.25000000  1
  Fe  Fe8  1  0.37500000  0.62500000  0.75000000  1
  Fe  Fe9  1  0.70815600  0.95825300  0.25009700  1
  Fe  Fe10  1  0.70815600  0.45806000  0.74990300  1
  Fe  Fe11  1  0.25000000  0.75000000  0.50000000  1
  Fe  Fe12  1  0.04174700  0.29184400  0.74990300  1
  Fe  Fe13  1  0.54194000  0.29184400  0.25009700  1
  O  O0  1  0.14244600  0.37166300  0.77078300  1
  O  O1  1  0.60088000  0.37166300  0.22921700  1
  O  O2  1  0.14912000  0.87833700  0.27078300  1
  O  O3  1  0.60755500  0.87833700  0.72921700  1
  O  O4  1  0.45412800  0.17954200  0.72541400  1
  O  O5  1  0.45412800  0.72871500  0.27458600  1
  O  O6  1  0.96183400  0.73261600  0.77078300  1
  O  O7  1  0.96183400  0.19105100  0.22921700  1
  O  O8  1  0.26738400  0.03816600  0.22921700  1
  O  O9  1  0.80894900  0.03816600  0.77078300  1
  O  O10  1  0.27128500  0.54587200  0.72541400  1
  O  O11  1  0.82045800  0.54587200  0.27458600  1
  O  O12  1  0.12166300  0.39244500  0.27078300  1
  O  O13  1  0.12166300  0.85088000  0.72921700  1
  O  O14  1  0.62833700  0.39912000  0.77078300  1
  O  O15  1  0.62833700  0.85755500  0.22921700  1
  O  O16  1  0.92954200  0.70412800  0.22541400  1
  O  O17  1  0.47871500  0.70412800  0.77458600  1
  O  O18  1  0.94105100  0.21183400  0.72921700  1
  O  O19  1  0.48261600  0.21183400  0.27078300  1
  O  O20  1  0.78816600  0.05894900  0.27078300  1
  O  O21  1  0.78816600  0.51738400  0.72921700  1
  O  O22  1  0.29587200  0.07045800  0.77458600  1
  O  O23  1  0.29587200  0.52128500  0.22541400  1
loop_
_geom_bond_atom_site_label_1
_geom_bond_atom_site_label_2
_geom_bond_distance
_geom_bond_site_symmetry_2
Fe0 O5 2.039948 1_555
Fe0 O23 2.039948 1_555
Fe0 O2 2.058055 1_555
Fe0 O0 2.058055 1_554
Fe0 O1 2.058055 1_555
Fe0 O3 2.058055 1_555
Fe1 O4 2.039935 1_555
Fe1 O22 2.039935 1_555
Fe1 O1 2.058055 1_556
Fe1 O0 2.058055 1_555
Fe1 O2 2.058055 1_545
Fe1 O3 2.058059 1_545
Fe2 O5 2.043817 1_555
Fe2 O4 2.043817 1_565
Fe2 O3 2.056136 1_555
Fe2 O7 2.058006 1_566
Fe2 O6 2.058009 1_555
Fe2 O9 2.060979 1_565
Fe3 O5 2.043809 1_555
Fe3 O4 2.043818 1_565
Fe3 O2 2.056162 1_555
Fe3 O6 2.058005 1_454
Fe3 O7 2.058009 1_465
Fe3 O8 2.060979 1_565
Fe4 O10 2.040149 1_554
Fe4 O5 2.040149 1_555
Fe4 O11 2.040154 1_555
Fe4 O4 2.040154 1_554
Fe5 O10 2.043809 1_555
Fe5 O11 2.043818 1_455
Fe5 O13 2.056162 1_555
Fe5 O8 2.058005 1_566
Fe5 O9 2.058009 1_465
Fe5 O6 2.060979 1_455
Fe6 O10 2.043817 1_555
Fe6 O11 2.043817 1_455
Fe6 O12 2.056136 1_555
Fe6 O9 2.058006 1_454
Fe6 O8 2.058009 1_555
Fe6 O7 2.060979 1_455
Fe7 O16 2.039935 1_555
Fe7 O11 2.039935 1_555
Fe7 O14 2.058055 1_554
Fe7 O13 2.058055 1_655
Fe7 O12 2.058059 1_655
Fe7 O15 2.058059 1_555
Fe8 O10 2.039948 1_555
Fe8 O17 2.039948 1_555
Fe8 O14 2.058055 1_555
Fe8 O13 2.058055 1_555
Fe8 O15 2.058055 1_556
Fe8 O12 2.058055 1_555
Fe9 O17 2.043817 1_554
Fe9 O16 2.043817 1_555
Fe9 O15 2.056136 1_555
Fe9 O18 2.058006 1_565
Fe9 O19 2.058009 1_565
Fe9 O20 2.060979 1_565
Fe10 O17 2.043809 1_555
Fe10 O16 2.043818 1_556
Fe10 O14 2.056162 1_555
Fe10 O19 2.058005 1_555
Fe10 O18 2.058009 1_555
Fe10 O21 2.060979 1_555
Fe11 O23 2.040149 1_555
Fe11 O17 2.040149 1_555
Fe11 O22 2.040154 1_565
Fe11 O16 2.040154 1_455
Fe12 O23 2.043817 1_556
Fe12 O22 2.043817 1_555
Fe12 O0 2.056149 1_555
Fe12 O20 2.058006 1_455
Fe12 O21 2.058009 1_455
Fe12 O18 2.060979 1_455
Fe13 O23 2.043809 1_555
Fe13 O22 2.043818 1_554
Fe13 O1 2.056162 1_555
Fe13 O21 2.058005 1_555
Fe13 O20 2.058009 1_555
Fe13 O19 2.060979 1_555
O0 Zn1 2.005045 1_455
O1 Zn1 2.005045 1_555
O2 Zn0 2.005045 1_455
O3 Zn0 2.005050 1_556
O6 Zn1 2.014274 1_555
O7 Zn1 2.014284 1_555
O8 Zn2 2.014274 1_555
O9 Zn2 2.014284 1_555
O12 Zn3 2.005050 1_555
O13 Zn3 2.005045 1_566
O14 Zn2 2.005045 1_555
O15 Zn2 2.005050 1_565
O18 Zn3 2.014284 1_656
O19 Zn3 2.014274 1_555
O20 Zn0 2.014284 1_545
O21 Zn0 2.014274 1_556
