# generated using pymatgen
data_Sr3Hf2O7
_symmetry_space_group_name_H-M   'P 1'
_cell_length_a   10.91467097
_cell_length_b   10.91467097
_cell_length_c   10.91467097
_cell_angle_alpha   158.17883575
_cell_angle_beta   158.17883575
_cell_angle_gamma   31.05226026
_symmetry_Int_Tables_number   1
_chemical_formula_structural   Sr3Hf2O7
_chemical_formula_sum   'Sr3 Hf2 O7'
_cell_volume   179.53215665
_cell_formula_units_Z   1
loop_
 _symmetry_equiv_pos_site_id
 _symmetry_equiv_pos_as_xyz
  1  'x, y, z'
loop_
 _atom_site_type_symbol
 _atom_site_label
 _atom_site_symmetry_multiplicity
 _atom_site_fract_x
 _atom_site_fract_y
 _atom_site_fract_z
 _atom_site_occupancy
  Sr  Sr0  1  0.50000000  0.50000000  0.00000000  1
  Sr  Sr1  1  0.68651600  0.68651600  0.00000000  1
  Sr  Sr2  1  0.31348400  0.31348400  0.00000000  1
  Hf  Hf0  1  0.90057300  0.90057300  0.00000000  1
  Hf  Hf1  1  0.09942700  0.09942700  0.00000000  1
  O  O0  1  0.00000000  0.00000000  0.00000000  1
  O  O1  1  0.09767700  0.59767700  0.50000000  1
  O  O2  1  0.40232300  0.90232300  0.50000000  1
  O  O3  1  0.80176500  0.80176500  0.00000000  1
  O  O4  1  0.19823500  0.19823500  0.00000000  1
  O  O5  1  0.59767700  0.09767700  0.50000000  1
  O  O6  1  0.90232300  0.40232300  0.50000000  1
loop_
_geom_bond_atom_site_label_1
_geom_bond_atom_site_label_2
_geom_bond_distance
_geom_bond_site_symmetry_2
Hf0 O2 2.066222 1_554
Hf0 O2 2.066222 1_655
Hf0 O6 2.066222 1_554
Hf0 O6 2.066222 1_565
Hf0 O3 2.078205 1_555
Hf0 O0 2.091224 1_665
Hf1 O5 2.066222 1_454
Hf1 O5 2.066222 1_555
Hf1 O1 2.066222 1_555
Hf1 O1 2.066222 1_544
Hf1 O4 2.078205 1_555
Hf1 O0 2.091224 1_555
O0 Sr0 2.921615 1_455
O0 Sr0 2.921615 1_556
O0 Sr0 2.921615 1_444
O0 Sr0 2.921615 1_545
O1 Sr1 2.785555 1_556
O1 Sr1 2.785555 1_455
O1 Sr0 2.913511 1_556
O1 Sr0 2.913511 1_455
O2 Sr2 2.785555 1_555
O2 Sr2 2.785555 1_566
O2 Sr0 2.913511 1_555
O2 Sr0 2.913511 1_566
O3 Sr1 2.424004 1_555
O3 Sr2 2.931994 1_565
O3 Sr2 2.931994 1_554
O3 Sr2 2.931994 1_655
O3 Sr2 2.931994 1_666
O4 Sr2 2.424004 1_555
O4 Sr1 2.931994 1_556
O4 Sr1 2.931994 1_444
O4 Sr1 2.931994 1_545
O4 Sr1 2.931994 1_455
O5 Sr1 2.785555 1_556
O5 Sr1 2.785555 1_545
O5 Sr0 2.913511 1_556
O5 Sr0 2.913511 1_545
O6 Sr2 2.785555 1_555
O6 Sr2 2.785555 1_656
O6 Sr0 2.913511 1_555
O6 Sr0 2.913511 1_656
