# generated using pymatgen
data_LaTiNO2
_symmetry_space_group_name_H-M   'P 1'
_cell_length_a   5.61057200
_cell_length_b   5.62135954
_cell_length_c   7.94823679
_cell_angle_alpha   89.97998667
_cell_angle_beta   89.92209647
_cell_angle_gamma   89.27620022
_symmetry_Int_Tables_number   1
_chemical_formula_structural   LaTiNO2
_chemical_formula_sum   'La4 Ti4 N4 O8'
_cell_volume   250.65952949
_cell_formula_units_Z   4
loop_
 _symmetry_equiv_pos_site_id
 _symmetry_equiv_pos_as_xyz
  1  'x, y, z'
loop_
 _atom_site_type_symbol
 _atom_site_label
 _atom_site_symmetry_multiplicity
 _atom_site_fract_x
 _atom_site_fract_y
 _atom_site_fract_z
 _atom_site_occupancy
  La  La0  1  0.50587100  0.99284200  0.26210700  1
  La  La1  1  0.00720900  0.49333500  0.26331900  1
  La  La2  1  0.50749300  0.99441900  0.74487300  1
  La  La3  1  0.00609800  0.49490700  0.74456100  1
  Ti  Ti0  1  0.00615000  0.99559700  0.01601300  1
  Ti  Ti1  1  0.50516100  0.49303800  0.98778300  1
  Ti  Ti2  1  0.00530200  0.98109400  0.50081400  1
  Ti  Ti3  1  0.50438900  0.51219500  0.50810100  1
  N  N0  1  0.04996800  0.95337300  0.24493300  1
  N  N1  1  0.24961800  0.75195400  0.54894400  1
  N  N2  1  0.74936400  0.75005600  0.49984600  1
  N  N3  1  0.54707800  0.44766800  0.75355800  1
  O  O0  1  0.74586100  0.75434600  0.99718600  1
  O  O1  1  0.24720800  0.25241300  0.99795100  1
  O  O2  1  0.43875200  0.55467700  0.24551600  1
  O  O3  1  0.74729100  0.25371900  0.05537300  1
  O  O4  1  0.24539400  0.25374900  0.49710500  1
  O  O5  1  0.74425800  0.25138500  0.44171000  1
  O  O6  1  0.24624800  0.75309600  0.94229600  1
  O  O7  1  0.94134900  0.06607700  0.74807100  1
loop_
_geom_bond_atom_site_label_1
_geom_bond_atom_site_label_2
_geom_bond_distance
_geom_bond_site_symmetry_2
La0 O5 2.448412 1_565
La0 O2 2.499955 1_555
La0 N0 2.574082 1_555
La0 O3 2.593784 1_565
La0 N2 2.694010 1_555
La0 O4 2.777755 1_565
La0 O0 2.827163 1_554
La0 O1 2.931906 1_564
La0 N1 3.022667 1_555
La0 N0 3.060814 1_655
La0 O2 3.178633 1_565
La0 O6 3.234433 1_554
La1 O2 2.453830 1_555
La1 O5 2.465856 1_455
La1 O3 2.594306 1_455
La1 N0 2.604193 1_555
La1 O4 2.648037 1_555
La1 N2 2.766129 1_455
La1 O1 2.836240 1_554
La1 O0 2.954523 1_454
La1 N1 3.029486 1_555
La1 N0 3.045307 1_545
La1 O2 3.206931 1_455
La1 O6 3.237120 1_554
La2 O7 2.472466 1_565
La2 N1 2.536457 1_555
La2 O6 2.548217 1_555
La2 N3 2.561293 1_565
La2 N2 2.732935 1_555
La2 O0 2.755258 1_555
La2 O4 2.849125 1_565
La2 O1 2.867523 1_565
La2 N3 3.079455 1_555
La2 O5 3.113641 1_565
La2 O3 3.175928 1_566
La2 O7 3.196847 1_465
La3 O7 2.442505 1_455
La3 N1 2.532705 1_555
La3 O6 2.539437 1_555
La3 N3 2.593241 1_455
La3 O4 2.730832 1_555
La3 O1 2.775474 1_555
La3 N2 2.805120 1_455
La3 O0 2.868935 1_455
La3 N3 3.044393 1_555
La3 O5 3.144700 1_455
La3 O3 3.176040 1_456
La3 O7 3.226801 1_465
N0 Ti0 1.851171 1_555
N0 Ti2 2.054577 1_555
N1 Ti2 1.908121 1_555
N1 Ti3 1.978752 1_555
N2 Ti3 1.930643 1_555
N2 Ti2 1.948316 1_655
N3 Ti1 1.893097 1_555
N3 Ti3 1.998431 1_555
O0 Ti1 2.009352 1_555
O0 Ti0 2.011222 1_656
O1 Ti1 1.994944 1_555
O1 Ti0 1.995643 1_546
O2 Ti1 2.109618 1_554
O2 Ti3 2.132628 1_555
O3 Ti1 1.974647 1_554
O3 Ti0 2.063592 1_645
O4 Ti2 2.053433 1_545
O4 Ti3 2.069690 1_555
O5 Ti3 2.046429 1_555
O5 Ti2 2.149301 1_645
O6 Ti0 1.992044 1_556
O6 Ti1 2.079760 1_555
O7 Ti2 2.052707 1_645
O7 Ti0 2.196021 1_646
