# generated using pymatgen
data_ErH3(SO4)3
_symmetry_space_group_name_H-M   'P 1'
_cell_length_a   13.74229200
_cell_length_b   5.25420700
_cell_length_c   13.35407572
_cell_angle_alpha   69.25219929
_cell_angle_beta   90.00000000
_cell_angle_gamma   90.00000000
_symmetry_Int_Tables_number   1
_chemical_formula_structural   ErH3(SO4)3
_chemical_formula_sum   'Er4 H12 S12 O48'
_cell_volume   901.69759295
_cell_formula_units_Z   4
loop_
 _symmetry_equiv_pos_site_id
 _symmetry_equiv_pos_as_xyz
  1  'x, y, z'
loop_
 _atom_site_type_symbol
 _atom_site_label
 _atom_site_symmetry_multiplicity
 _atom_site_fract_x
 _atom_site_fract_y
 _atom_site_fract_z
 _atom_site_occupancy
  Er  Er0  1  0.69542700  0.25331300  0.97829100  1
  Er  Er1  1  0.19542700  0.74668700  0.52170900  1
  Er  Er2  1  0.80457300  0.25331300  0.47829100  1
  Er  Er3  1  0.30457300  0.74668700  0.02170900  1
  H  H0  1  0.35857500  0.26376000  0.77860100  1
  H  H1  1  0.92280000  0.88056500  0.18437200  1
  H  H2  1  0.50880400  0.51752800  0.61816700  1
  H  H3  1  0.00880400  0.48247200  0.88183300  1
  H  H4  1  0.85857500  0.73624000  0.72139900  1
  H  H5  1  0.42280000  0.11943500  0.31562800  1
  H  H6  1  0.57720000  0.88056500  0.68437200  1
  H  H7  1  0.14142500  0.26376000  0.27860100  1
  H  H8  1  0.99119600  0.51752800  0.11816700  1
  H  H9  1  0.49119600  0.48247200  0.38183300  1
  H  H10  1  0.07720000  0.11943500  0.81562800  1
  H  H11  1  0.64142500  0.73624000  0.22139900  1
  S  S0  1  0.93967600  0.61777800  0.60911800  1
  S  S1  1  0.62327700  0.72186200  0.50638600  1
  S  S2  1  0.12327700  0.27813800  0.99361400  1
  S  S3  1  0.43967600  0.38222200  0.89088200  1
  S  S4  1  0.79928400  0.95459400  0.27082500  1
  S  S5  1  0.29928400  0.04540600  0.22917500  1
  S  S6  1  0.70071600  0.95459400  0.77082500  1
  S  S7  1  0.20071600  0.04540600  0.72917500  1
  S  S8  1  0.56032400  0.61777800  0.10911800  1
  S  S9  1  0.87672300  0.72186200  0.00638600  1
  S  S10  1  0.37672300  0.27813800  0.49361400  1
  S  S11  1  0.06032400  0.38222200  0.39088200  1
  O  O0  1  0.69307000  0.49402700  0.54211100  1
  O  O1  1  0.08858200  0.62616400  0.41326600  1
  O  O2  1  0.28834900  0.83340600  0.18305700  1
  O  O3  1  0.78947800  0.67894400  0.35120400  1
  O  O4  1  0.39235100  0.13691600  0.96558300  1
  O  O5  1  0.16771200  0.01543200  0.00441700  1
  O  O6  1  0.56509200  0.72945700  0.41484800  1
  O  O7  1  0.40034200  0.42350800  0.77576000  1
  O  O8  1  0.05253300  0.32178200  0.89351800  1
  O  O9  1  0.73202600  0.98404600  0.18142300  1
  O  O10  1  0.54475800  0.35998300  0.88437300  1
  O  O11  1  0.04475800  0.64001700  0.61562700  1
  O  O12  1  0.90627500  0.99580300  0.22773200  1
  O  O13  1  0.55253300  0.67821800  0.60648200  1
  O  O14  1  0.90034200  0.57649200  0.72424000  1
  O  O15  1  0.40627500  0.00419700  0.27226800  1
  O  O16  1  0.23202600  0.01595400  0.31857700  1
  O  O17  1  0.89235100  0.86308400  0.53441700  1
  O  O18  1  0.06509200  0.27054300  0.08515200  1
  O  O19  1  0.19307000  0.50597300  0.95788900  1
  O  O20  1  0.66771200  0.98456800  0.49558300  1
  O  O21  1  0.28947800  0.32105600  0.14879600  1
  O  O22  1  0.41141800  0.62616400  0.91326600  1
  O  O23  1  0.21165100  0.83340600  0.68305700  1
  O  O24  1  0.78834900  0.16659400  0.31694300  1
  O  O25  1  0.58858200  0.37383600  0.08673400  1
  O  O26  1  0.71052200  0.67894400  0.85120400  1
  O  O27  1  0.33228800  0.01543200  0.50441700  1
  O  O28  1  0.80693000  0.49402700  0.04211100  1
  O  O29  1  0.93490800  0.72945700  0.91484800  1
  O  O30  1  0.10764900  0.13691600  0.46558300  1
  O  O31  1  0.76797400  0.98404600  0.68142300  1
  O  O32  1  0.59372500  0.99580300  0.72773200  1
  O  O33  1  0.09965800  0.42350800  0.27576000  1
  O  O34  1  0.44746700  0.32178200  0.39351800  1
  O  O35  1  0.09372500  0.00419700  0.77226800  1
  O  O36  1  0.95524200  0.35998300  0.38437300  1
  O  O37  1  0.45524200  0.64001700  0.11562700  1
  O  O38  1  0.26797400  0.01595400  0.81857700  1
  O  O39  1  0.94746700  0.67821800  0.10648200  1
  O  O40  1  0.59965800  0.57649200  0.22424000  1
  O  O41  1  0.43490800  0.27054300  0.58515200  1
  O  O42  1  0.83228800  0.98456800  0.99558300  1
  O  O43  1  0.60764900  0.86308400  0.03441700  1
  O  O44  1  0.21052200  0.32105600  0.64879600  1
  O  O45  1  0.71165100  0.16659400  0.81694300  1
  O  O46  1  0.91141800  0.37383600  0.58673400  1
  O  O47  1  0.30693000  0.50597300  0.45788900  1
loop_
_geom_bond_atom_site_label_1
_geom_bond_atom_site_label_2
_geom_bond_distance
_geom_bond_site_symmetry_2
Er0 O43 2.265383 1_546
Er0 O26 2.288119 1_555
Er0 O25 2.302997 1_556
Er0 O42 2.313766 1_545
Er0 O28 2.331873 1_556
Er0 O45 2.365465 1_555
Er0 O10 2.382478 1_555
Er0 O9 2.625619 1_546
Er1 O30 2.265383 1_565
Er1 O44 2.288119 1_555
Er1 O1 2.302997 1_555
Er1 O27 2.313766 1_565
Er1 O47 2.331873 1_555
Er1 O23 2.365465 1_555
Er1 O11 2.382478 1_555
Er1 O16 2.625619 1_565
Er2 O17 2.265383 1_545
Er2 O3 2.288119 1_555
Er2 O46 2.302997 1_555
Er2 O20 2.313766 1_545
Er2 O0 2.331873 1_555
Er2 O24 2.365465 1_555
Er2 O36 2.382478 1_555
Er2 O31 2.625619 1_545
Er3 O4 2.265383 1_564
Er3 O21 2.288119 1_555
Er3 O22 2.302997 1_554
Er3 O5 2.313766 1_565
Er3 O19 2.331873 1_554
Er3 O2 2.365465 1_555
Er3 O37 2.382478 1_555
Er3 O38 2.625619 1_564
H0 O7 1.006395 1_555
H1 O12 1.000930 1_555
H2 O13 1.002482 1_555
H3 O8 1.002482 1_555
H4 O14 1.006395 1_555
H5 O15 1.000930 1_555
H6 O32 1.000930 1_555
H7 O33 1.006395 1_555
H8 O39 1.002482 1_555
H9 O34 1.002482 1_555
H10 O35 1.000930 1_555
H11 O40 1.006395 1_555
O0 S1 1.475094 1_555
O1 S11 1.467792 1_555
O2 S5 1.458995 1_565
O3 S4 1.471903 1_555
O4 S3 1.472535 1_555
O5 S2 1.468968 1_554
O6 S1 1.449365 1_555
O7 S3 1.570477 1_555
O8 S2 1.602277 1_555
O9 S4 1.474006 1_555
O10 S3 1.453869 1_555
O11 S0 1.453869 1_455
O12 S4 1.565743 1_555
O13 S1 1.602277 1_555
O14 S0 1.570477 1_555
O15 S5 1.565743 1_555
O16 S5 1.474006 1_555
O17 S0 1.472535 1_555
O18 S2 1.449365 1_554
O19 S2 1.475094 1_555
O20 S1 1.468968 1_555
O21 S5 1.471903 1_555
O22 S3 1.467792 1_555
O23 S7 1.458995 1_565
O24 S4 1.458995 1_545
O25 S8 1.467792 1_555
O26 S6 1.471903 1_555
O27 S10 1.468968 1_555
O28 S9 1.475094 1_555
O29 S9 1.449365 1_556
O30 S11 1.472535 1_555
O31 S6 1.474006 1_555
O32 S6 1.565743 1_555
O33 S11 1.570477 1_555
O34 S10 1.602277 1_555
O35 S7 1.565743 1_555
O36 S11 1.453869 1_655
O37 S8 1.453869 1_555
O38 S7 1.474006 1_555
O39 S9 1.602277 1_555
O40 S8 1.570477 1_555
O41 S10 1.449365 1_555
O42 S9 1.468968 1_556
O43 S8 1.472535 1_555
O44 S7 1.471903 1_555
O45 S6 1.458995 1_545
O46 S0 1.467792 1_555
O47 S10 1.475094 1_555
