# generated using pymatgen
data_Li2TiMnO4
_symmetry_space_group_name_H-M   'P 1'
_cell_length_a   5.79622703
_cell_length_b   10.27877096
_cell_length_c   5.79620911
_cell_angle_alpha   73.62343102
_cell_angle_beta   90.01152335
_cell_angle_gamma   73.62393592
_symmetry_Int_Tables_number   1
_chemical_formula_structural   Li2TiMnO4
_chemical_formula_sum   'Li8 Ti4 Mn4 O16'
_cell_volume   316.68245814
_cell_formula_units_Z   4
loop_
 _symmetry_equiv_pos_site_id
 _symmetry_equiv_pos_as_xyz
  1  'x, y, z'
loop_
 _atom_site_type_symbol
 _atom_site_label
 _atom_site_symmetry_multiplicity
 _atom_site_fract_x
 _atom_site_fract_y
 _atom_site_fract_z
 _atom_site_occupancy
  Li  Li0  1  0.62504100  0.24997800  0.62501400  1
  Li  Li1  1  0.12504500  0.24999100  0.12501000  1
  Li  Li2  1  0.37504100  0.74996500  0.87501000  1
  Li  Li3  1  0.87501600  0.75000000  0.37501300  1
  Li  Li4  1  0.00000000  0.99997600  0.50000600  1
  Li  Li5  1  0.50005400  0.99997400  0.00004300  1
  Li  Li6  1  0.75000100  0.49997200  0.75003400  1
  Li  Li7  1  0.25004000  0.49996000  0.24993800  1
  Ti  Ti0  1  0.62504400  0.25000500  0.12497800  1
  Ti  Ti1  1  0.12505600  0.24999200  0.62502900  1
  Ti  Ti2  1  0.37507300  0.75001500  0.37501800  1
  Ti  Ti3  1  0.87504500  0.74998100  0.87504900  1
  Mn  Mn0  1  0.74993400  0.50005200  0.24997500  1
  Mn  Mn1  1  0.49985900  0.00001300  0.50018500  1
  Mn  Mn2  1  0.24959600  0.50028300  0.74969100  1
  Mn  Mn3  1  0.99990600  0.00022900  0.00000500  1
  O  O0  1  0.52202800  0.45578600  0.02199200  1
  O  O1  1  0.02203300  0.45579700  0.52202000  1
  O  O2  1  0.27215200  0.95577300  0.27213500  1
  O  O3  1  0.77215800  0.95577100  0.77214100  1
  O  O4  1  0.72787600  0.04416300  0.22796200  1
  O  O5  1  0.22788800  0.04415500  0.72794700  1
  O  O6  1  0.47795500  0.54418600  0.47785100  1
  O  O7  1  0.97790800  0.54418700  0.97788000  1
  O  O8  1  0.87436000  0.25133400  0.37433300  1
  O  O9  1  0.37432700  0.25133800  0.87429000  1
  O  O10  1  0.62434500  0.75132800  0.62432500  1
  O  O11  1  0.12434900  0.75133900  0.12433500  1
  O  O12  1  0.12571600  0.74862200  0.62567300  1
  O  O13  1  0.62571500  0.74861700  0.12569900  1
  O  O14  1  0.87573200  0.24861700  0.87568600  1
  O  O15  1  0.37570700  0.24860100  0.37573200  1
loop_
_geom_bond_atom_site_label_1
_geom_bond_atom_site_label_2
_geom_bond_distance
_geom_bond_site_symmetry_2
Li0 O15 2.049080 1_555
Li0 O14 2.049114 1_555
Li0 O9 2.049478 1_555
Li0 O8 2.049518 1_555
Li1 O15 2.049083 1_555
Li1 O14 2.049153 1_454
Li1 O9 2.049526 1_554
Li1 O8 2.049551 1_455
Li2 O12 2.049127 1_555
Li2 O13 2.049166 1_556
Li2 O10 2.049474 1_555
Li2 O11 2.049589 1_556
Li3 O12 2.049033 1_655
Li3 O13 2.049101 1_555
Li3 O10 2.049447 1_555
Li3 O11 2.049562 1_655
Li4 O4 2.090862 1_465
Li4 O5 2.091019 1_565
Li4 O3 2.091313 1_455
Li4 O2 2.091500 1_555
Li4 O12 2.369302 1_555
Li4 O8 2.369340 1_465
Li5 O4 2.090725 1_565
Li5 O5 2.091252 1_564
Li5 O2 2.091373 1_555
Li5 O3 2.091431 1_554
Li5 O13 2.369330 1_555
Li5 O9 2.369396 1_564
Li6 O7 2.090926 1_555
Li6 O6 2.091049 1_555
Li6 O0 2.091092 1_556
Li6 O1 2.091540 1_655
Li6 O14 2.369311 1_555
Li6 O10 2.369321 1_555
Li7 O7 2.090865 1_454
Li7 O0 2.091088 1_555
Li7 O6 2.091292 1_555
Li7 O1 2.091684 1_555
Li7 O15 2.369349 1_555
Li7 O11 2.369538 1_555
Mn0 O1 2.090620 1_655
Mn0 O6 2.090695 1_555
Mn0 O7 2.091551 1_554
Mn0 O0 2.091773 1_555
Mn0 O13 2.343012 1_555
Mn0 O8 2.344454 1_555
Mn1 O5 2.090220 1_555
Mn1 O2 2.091090 1_545
Mn1 O3 2.091094 1_545
Mn1 O4 2.092266 1_555
Mn1 O15 2.343229 1_555
Mn1 O10 2.344144 1_545
Mn2 O7 2.090354 1_455
Mn2 O1 2.090442 1_555
Mn2 O6 2.091640 1_555
Mn2 O0 2.092470 1_556
Mn2 O12 2.340883 1_555
Mn2 O9 2.346595 1_555
Mn3 O4 2.090851 1_555
Mn3 O5 2.091044 1_654
Mn3 O2 2.091124 1_645
Mn3 O3 2.091794 1_544
Mn3 O14 2.341344 1_554
Mn3 O11 2.346076 1_645
O0 Ti0 1.939724 1_555
O1 Ti1 1.939950 1_555
O2 Ti2 1.939507 1_555
O3 Ti3 1.939808 1_555
O4 Ti0 1.940299 1_555
O5 Ti1 1.940252 1_555
O6 Ti2 1.940176 1_555
O7 Ti3 1.939846 1_555
O8 Ti0 2.049106 1_555
O8 Ti1 2.049309 1_655
O9 Ti1 2.048607 1_555
O9 Ti0 2.049399 1_556
O10 Ti2 2.048662 1_555
O10 Ti3 2.049420 1_555
O11 Ti3 2.048894 1_454
O11 Ti2 2.049444 1_555
O12 Ti2 2.049570 1_555
O12 Ti3 2.049711 1_455
O13 Ti2 2.049361 1_555
O13 Ti3 2.049437 1_554
O14 Ti0 2.049438 1_556
O14 Ti1 2.049442 1_655
O15 Ti1 2.049308 1_555
O15 Ti0 2.049894 1_555
