# generated using pymatgen
data_Li5Mn2Ni5O12
_symmetry_space_group_name_H-M   'P 1'
_cell_length_a   5.08168091
_cell_length_b   5.08168091
_cell_length_c   9.67190772
_cell_angle_alpha   84.76840460
_cell_angle_beta   84.76840460
_cell_angle_gamma   121.00073599
_symmetry_Int_Tables_number   1
_chemical_formula_structural   Li5Mn2Ni5O12
_chemical_formula_sum   'Li5 Mn2 Ni5 O12'
_cell_volume   210.38408385
_cell_formula_units_Z   1
loop_
 _symmetry_equiv_pos_site_id
 _symmetry_equiv_pos_as_xyz
  1  'x, y, z'
loop_
 _atom_site_type_symbol
 _atom_site_label
 _atom_site_symmetry_multiplicity
 _atom_site_fract_x
 _atom_site_fract_y
 _atom_site_fract_z
 _atom_site_occupancy
  Li  Li0  1  0.83498600  0.66714100  0.25800000  1
  Li  Li1  1  0.67016500  0.83690200  0.74068300  1
  Li  Li2  1  0.33285900  0.16501400  0.74200000  1
  Li  Li3  1  0.16309800  0.32983500  0.25931700  1
  Li  Li4  1  0.08432900  0.91567100  0.50000000  1
  Mn  Mn0  1  0.74705300  0.25294700  0.50000000  1
  Mn  Mn1  1  0.25131000  0.74869000  0.00000000  1
  Ni  Ni0  1  0.91983400  0.08016600  0.00000000  1
  Ni  Ni1  1  0.00438500  0.51128700  0.74341600  1
  Ni  Ni2  1  0.48871300  0.99561500  0.25658400  1
  Ni  Ni3  1  0.58299500  0.41700500  0.00000000  1
  Ni  Ni4  1  0.41691100  0.58308900  0.50000000  1
  O  O0  1  0.02648100  0.22302000  0.61994200  1
  O  O1  1  0.77698000  0.97351900  0.38005800  1
  O  O2  1  0.88593400  0.38617800  0.11565500  1
  O  O3  1  0.61382200  0.11406600  0.88434500  1
  O  O4  1  0.71021400  0.52221000  0.61934200  1
  O  O5  1  0.47779000  0.28978600  0.38065800  1
  O  O6  1  0.52374500  0.70891000  0.11821700  1
  O  O7  1  0.29109000  0.47625500  0.88178300  1
  O  O8  1  0.39589700  0.89124700  0.61829400  1
  O  O9  1  0.10875300  0.60410300  0.38170600  1
  O  O10  1  0.21221400  0.01955800  0.11950500  1
  O  O11  1  0.98044200  0.78778600  0.88049500  1
loop_
_geom_bond_atom_site_label_1
_geom_bond_atom_site_label_2
_geom_bond_distance
_geom_bond_site_symmetry_2
Li0 O5 1.996573 1_555
Li0 O9 2.040175 1_655
Li0 O10 2.057701 1_665
Li0 O1 2.156153 1_555
Li0 O2 2.162225 1_555
Li0 O6 2.248966 1_555
Li1 O0 2.007255 1_665
Li1 O8 2.014386 1_555
Li1 O7 2.088014 1_555
Li1 O4 2.147098 1_555
Li1 O3 2.167060 1_565
Li1 O11 2.260443 1_555
Li2 O4 1.996573 1_555
Li2 O8 2.040175 1_545
Li2 O11 2.057701 1_445
Li2 O0 2.156153 1_555
Li2 O3 2.162225 1_555
Li2 O7 2.248966 1_555
Li3 O1 2.007255 1_445
Li3 O9 2.014386 1_555
Li3 O6 2.088014 1_555
Li3 O5 2.147098 1_555
Li3 O2 2.167060 1_455
Li3 O10 2.260443 1_555
Li4 O4 2.051277 1_455
Li4 O5 2.051277 1_565
Li4 O9 2.082815 1_555
Li4 O8 2.082815 1_555
Li4 O1 2.147725 1_455
Li4 O0 2.147725 1_565
Mn0 O9 1.933204 1_655
Mn0 O8 1.933204 1_545
Mn0 O5 1.937039 1_555
Mn0 O4 1.937039 1_555
Mn0 O0 1.968719 1_655
Mn0 O1 1.968719 1_545
Mn1 O6 1.949265 1_555
Mn1 O7 1.949265 1_554
Mn1 O10 1.949372 1_565
Mn1 O11 1.949372 1_454
Mn1 O2 1.953048 1_455
Mn1 O3 1.953048 1_564
Ni0 O6 2.047741 1_545
Ni0 O7 2.047741 1_654
Ni0 O2 2.063293 1_555
Ni0 O3 2.063293 1_554
Ni0 O10 2.087586 1_655
Ni0 O11 2.087586 1_544
Ni1 O0 2.012132 1_555
Ni1 O4 2.019481 1_455
Ni1 O11 2.057485 1_455
Ni1 O8 2.080533 1_555
Ni1 O7 2.127122 1_555
Ni1 O3 2.179365 1_455
Ni2 O1 2.012132 1_555
Ni2 O5 2.019481 1_565
Ni2 O10 2.057485 1_565
Ni2 O9 2.080533 1_555
Ni2 O6 2.127122 1_555
Ni2 O2 2.179365 1_565
Ni3 O3 2.043571 1_554
Ni3 O2 2.043571 1_555
Ni3 O10 2.054852 1_555
Ni3 O11 2.054852 1_554
Ni3 O6 2.074837 1_555
Ni3 O7 2.074837 1_554
Ni4 O1 2.020837 1_555
Ni4 O0 2.020837 1_555
Ni4 O8 2.061401 1_555
Ni4 O9 2.061401 1_555
Ni4 O4 2.091206 1_555
Ni4 O5 2.091206 1_555
