# generated using pymatgen
data_Li4VS4
_symmetry_space_group_name_H-M   'P 1'
_cell_length_a   6.15387100
_cell_length_b   7.75857300
_cell_length_c   14.24964000
_cell_angle_alpha   90.00000000
_cell_angle_beta   90.00000000
_cell_angle_gamma   90.00000000
_symmetry_Int_Tables_number   1
_chemical_formula_structural   Li4VS4
_chemical_formula_sum   'Li16 V4 S16'
_cell_volume   680.35272946
_cell_formula_units_Z   4
loop_
 _symmetry_equiv_pos_site_id
 _symmetry_equiv_pos_as_xyz
  1  'x, y, z'
loop_
 _atom_site_type_symbol
 _atom_site_label
 _atom_site_symmetry_multiplicity
 _atom_site_fract_x
 _atom_site_fract_y
 _atom_site_fract_z
 _atom_site_occupancy
  Li  Li0  1  0.50000000  0.00000000  0.00000000  1
  Li  Li1  1  0.50000000  0.50000000  0.00000000  1
  Li  Li2  1  0.86955200  0.25000000  0.08684500  1
  Li  Li3  1  0.30444700  0.49819900  0.17787000  1
  Li  Li4  1  0.30444700  0.00180100  0.17787000  1
  Li  Li5  1  0.80444700  0.99819900  0.32213000  1
  Li  Li6  1  0.80444700  0.50180100  0.32213000  1
  Li  Li7  1  0.36955200  0.75000000  0.41315500  1
  Li  Li8  1  0.00000000  0.00000000  0.50000000  1
  Li  Li9  1  0.00000000  0.50000000  0.50000000  1
  Li  Li10  1  0.63044800  0.25000000  0.58684500  1
  Li  Li11  1  0.19555300  0.49819900  0.67787000  1
  Li  Li12  1  0.19555300  0.00180100  0.67787000  1
  Li  Li13  1  0.69555300  0.99819900  0.82213000  1
  Li  Li14  1  0.69555300  0.50180100  0.82213000  1
  Li  Li15  1  0.13044800  0.75000000  0.91315500  1
  V  V0  1  0.84891100  0.75000000  0.08709700  1
  V  V1  1  0.34891100  0.25000000  0.41290300  1
  V  V2  1  0.65108900  0.75000000  0.58709700  1
  V  V3  1  0.15108900  0.25000000  0.91290300  1
  S  S0  1  0.26557100  0.25000000  0.06235400  1
  S  S1  1  0.20899200  0.75000000  0.08241900  1
  S  S2  1  0.71847400  0.51414300  0.15594200  1
  S  S3  1  0.71847400  0.98585700  0.15594200  1
  S  S4  1  0.21847400  0.01414300  0.34405800  1
  S  S5  1  0.21847400  0.48585700  0.34405800  1
  S  S6  1  0.70899200  0.25000000  0.41758100  1
  S  S7  1  0.76557100  0.75000000  0.43764600  1
  S  S8  1  0.23442900  0.25000000  0.56235400  1
  S  S9  1  0.29100800  0.75000000  0.58241900  1
  S  S10  1  0.78152600  0.51414300  0.65594200  1
  S  S11  1  0.78152600  0.98585700  0.65594200  1
  S  S12  1  0.28152600  0.01414300  0.84405800  1
  S  S13  1  0.28152600  0.48585700  0.84405800  1
  S  S14  1  0.79100800  0.25000000  0.91758100  1
  S  S15  1  0.73442900  0.75000000  0.93764600  1
loop_
_geom_bond_atom_site_label_1
_geom_bond_atom_site_label_2
_geom_bond_distance
_geom_bond_site_symmetry_2
Li0 S15 2.575444 1_544
Li0 S0 2.575444 1_555
Li0 S3 2.599504 1_545
Li0 S12 2.599504 1_554
Li0 S14 2.889392 1_554
Li0 S1 2.889392 1_545
Li1 S15 2.575444 1_554
Li1 S0 2.575444 1_555
Li1 S2 2.599504 1_555
Li1 S13 2.599504 1_554
Li1 S14 2.889392 1_554
Li1 S1 2.889392 1_555
Li2 S3 2.456369 1_545
Li2 S2 2.456369 1_555
Li2 S14 2.459905 1_554
Li2 S0 2.461911 1_655
Li3 S5 2.428388 1_555
Li3 S1 2.451870 1_555
Li3 S0 2.544594 1_555
Li3 S2 2.569936 1_555
Li4 S4 2.428388 1_555
Li4 S1 2.451870 1_545
Li4 S0 2.544594 1_555
Li4 S3 2.569936 1_545
Li5 S3 2.428388 1_555
Li5 S6 2.451870 1_565
Li5 S7 2.544594 1_555
Li5 S4 2.569936 1_665
Li6 S2 2.428388 1_555
Li6 S6 2.451870 1_555
Li6 S7 2.544594 1_555
Li6 S5 2.569936 1_655
Li7 S5 2.456369 1_555
Li7 S4 2.456369 1_565
Li7 S9 2.459905 1_555
Li7 S7 2.461911 1_555
Li8 S8 2.575444 1_555
Li8 S7 2.575444 1_445
Li8 S4 2.599504 1_555
Li8 S11 2.599504 1_445
Li8 S9 2.889392 1_545
Li8 S6 2.889392 1_455
Li9 S8 2.575444 1_555
Li9 S7 2.575444 1_455
Li9 S5 2.599504 1_555
Li9 S10 2.599504 1_455
Li9 S9 2.889392 1_555
Li9 S6 2.889392 1_455
Li10 S10 2.456369 1_555
Li10 S11 2.456369 1_545
Li10 S6 2.459905 1_555
Li10 S8 2.461911 1_555
Li11 S13 2.428388 1_555
Li11 S9 2.451870 1_555
Li11 S8 2.544594 1_555
Li11 S10 2.569936 1_455
Li12 S12 2.428388 1_555
Li12 S9 2.451870 1_545
Li12 S8 2.544594 1_555
Li12 S11 2.569936 1_445
Li13 S11 2.428388 1_555
Li13 S14 2.451870 1_565
Li13 S15 2.544594 1_555
Li13 S12 2.569936 1_565
Li14 S10 2.428388 1_555
Li14 S14 2.451870 1_555
Li14 S15 2.544594 1_555
Li14 S13 2.569936 1_555
Li15 S13 2.456369 1_555
Li15 S12 2.456369 1_565
Li15 S1 2.459905 1_556
Li15 S15 2.461911 1_455
S0 V3 2.243128 1_554
S1 V0 2.216894 1_455
S2 V0 2.226049 1_555
S3 V0 2.226049 1_555
S4 V1 2.226049 1_555
S5 V1 2.226049 1_555
S6 V1 2.216894 1_555
S7 V2 2.243128 1_555
S8 V1 2.243128 1_555
S9 V2 2.216894 1_555
S10 V2 2.226049 1_555
S11 V2 2.226049 1_555
S12 V3 2.226049 1_555
S13 V3 2.226049 1_555
S14 V3 2.216894 1_655
S15 V0 2.243128 1_556
