# generated using pymatgen
data_Li2Cr2O7
_symmetry_space_group_name_H-M   'P 1'
_cell_length_a   7.32158700
_cell_length_b   6.10793100
_cell_length_c   13.94143120
_cell_angle_alpha   72.84227856
_cell_angle_beta   90.00000000
_cell_angle_gamma   90.00000000
_symmetry_Int_Tables_number   1
_chemical_formula_structural   Li2Cr2O7
_chemical_formula_sum   'Li8 Cr8 O28'
_cell_volume   595.71113978
_cell_formula_units_Z   4
loop_
 _symmetry_equiv_pos_site_id
 _symmetry_equiv_pos_as_xyz
  1  'x, y, z'
loop_
 _atom_site_type_symbol
 _atom_site_label
 _atom_site_symmetry_multiplicity
 _atom_site_fract_x
 _atom_site_fract_y
 _atom_site_fract_z
 _atom_site_occupancy
  Li  Li0  1  0.14160700  0.73786000  0.09111400  1
  Li  Li1  1  0.87448000  0.26418100  0.16679900  1
  Li  Li2  1  0.37448000  0.73581900  0.33320100  1
  Li  Li3  1  0.64160700  0.26214000  0.40888600  1
  Li  Li4  1  0.35839300  0.73786000  0.59111400  1
  Li  Li5  1  0.62552000  0.26418100  0.66679900  1
  Li  Li6  1  0.12552000  0.73581900  0.83320100  1
  Li  Li7  1  0.85839300  0.26214000  0.90888600  1
  Cr  Cr0  1  0.35272300  0.22752800  0.09765200  1
  Cr  Cr1  1  0.72875400  0.80351200  0.11734700  1
  Cr  Cr2  1  0.22875400  0.19648800  0.38265300  1
  Cr  Cr3  1  0.85272300  0.77247200  0.40234800  1
  Cr  Cr4  1  0.14727700  0.22752800  0.59765200  1
  Cr  Cr5  1  0.77124600  0.80351200  0.61734700  1
  Cr  Cr6  1  0.27124600  0.19648800  0.88265300  1
  Cr  Cr7  1  0.64727700  0.77247200  0.90234800  1
  O  O0  1  0.57257200  0.76829800  0.02589700  1
  O  O1  1  0.20086400  0.43285200  0.08066500  1
  O  O2  1  0.83266000  0.05611900  0.07794300  1
  O  O3  1  0.52415500  0.27107300  0.16258000  1
  O  O4  1  0.26058700  0.97232100  0.14761000  1
  O  O5  1  0.88729100  0.60234800  0.13556900  1
  O  O6  1  0.61483200  0.77875800  0.21855800  1
  O  O7  1  0.11483200  0.22124200  0.28144200  1
  O  O8  1  0.76058700  0.02767900  0.35239000  1
  O  O9  1  0.02415500  0.72892700  0.33742000  1
  O  O10  1  0.38729100  0.39765200  0.36443100  1
  O  O11  1  0.33266000  0.94388100  0.42205700  1
  O  O12  1  0.70086400  0.56714800  0.41933500  1
  O  O13  1  0.07257200  0.23170200  0.47410300  1
  O  O14  1  0.92742800  0.76829800  0.52589700  1
  O  O15  1  0.29913600  0.43285200  0.58066500  1
  O  O16  1  0.66734000  0.05611900  0.57794300  1
  O  O17  1  0.61270900  0.60234800  0.63556900  1
  O  O18  1  0.97584500  0.27107300  0.66258000  1
  O  O19  1  0.23941300  0.97232100  0.64761000  1
  O  O20  1  0.88516800  0.77875800  0.71855800  1
  O  O21  1  0.38516800  0.22124200  0.78144200  1
  O  O22  1  0.11270900  0.39765200  0.86443100  1
  O  O23  1  0.73941300  0.02767900  0.85239000  1
  O  O24  1  0.47584500  0.72892700  0.83742000  1
  O  O25  1  0.16734000  0.94388100  0.92205700  1
  O  O26  1  0.79913600  0.56714800  0.91933500  1
  O  O27  1  0.42742800  0.23170200  0.97410300  1
loop_
_geom_bond_atom_site_label_1
_geom_bond_atom_site_label_2
_geom_bond_distance
_geom_bond_site_symmetry_2
Li0 O1 1.959648 1_555
Li0 O4 2.023746 1_555
Li0 O5 2.057563 1_455
Li0 O25 2.328965 1_554
Li1 O5 1.983447 1_555
Li1 O2 2.042588 1_555
Li1 O7 2.339388 1_655
Li1 O3 2.565670 1_555
Li2 O10 1.983447 1_555
Li2 O11 2.042588 1_555
Li2 O6 2.339388 1_555
Li2 O9 2.565670 1_555
Li3 O12 1.959648 1_555
Li3 O8 2.023746 1_555
Li3 O10 2.057563 1_555
Li3 O16 2.328965 1_555
Li4 O15 1.959648 1_555
Li4 O19 2.023746 1_555
Li4 O17 2.057563 1_555
Li4 O11 2.328965 1_555
Li5 O17 1.983447 1_555
Li5 O16 2.042588 1_555
Li5 O21 2.339388 1_555
Li5 O18 2.565670 1_555
Li6 O22 1.983447 1_555
Li6 O25 2.042588 1_555
Li6 O20 2.339388 1_455
Li6 O24 2.565670 1_555
Li7 O26 1.959648 1_555
Li7 O23 2.023746 1_555
Li7 O22 2.057563 1_655
Li7 O2 2.328965 1_556
Cr0 O3 1.614796 1_555
Cr0 O1 1.640073 1_555
Cr0 O4 1.652094 1_545
Cr0 O27 1.800205 1_554
Cr1 O6 1.607386 1_555
Cr1 O5 1.654506 1_555
Cr1 O2 1.661628 1_565
Cr1 O0 1.772323 1_555
Cr2 O7 1.607386 1_555
Cr2 O10 1.654506 1_555
Cr2 O11 1.661628 1_545
Cr2 O13 1.772323 1_555
Cr3 O9 1.614796 1_655
Cr3 O12 1.640073 1_555
Cr3 O8 1.652094 1_565
Cr3 O14 1.800205 1_555
Cr4 O18 1.614796 1_455
Cr4 O15 1.640073 1_555
Cr4 O19 1.652094 1_545
Cr4 O13 1.800205 1_555
Cr5 O20 1.607386 1_555
Cr5 O17 1.654506 1_555
Cr5 O16 1.661628 1_565
Cr5 O14 1.772323 1_555
Cr6 O21 1.607386 1_555
Cr6 O22 1.654506 1_555
Cr6 O25 1.661628 1_545
Cr6 O27 1.772323 1_555
Cr7 O24 1.614796 1_555
Cr7 O26 1.640073 1_555
Cr7 O23 1.652094 1_565
Cr7 O0 1.800205 1_556
