# generated using pymatgen
data_Li9Co13O28
_symmetry_space_group_name_H-M   'P 1'
_cell_length_a   7.44119200
_cell_length_b   8.09455058
_cell_length_c   8.53722886
_cell_angle_alpha   101.57677078
_cell_angle_beta   104.39464757
_cell_angle_gamma   105.16889074
_symmetry_Int_Tables_number   1
_chemical_formula_structural   Li9Co13O28
_chemical_formula_sum   'Li9 Co13 O28'
_cell_volume   460.89728134
_cell_formula_units_Z   1
loop_
 _symmetry_equiv_pos_site_id
 _symmetry_equiv_pos_as_xyz
  1  'x, y, z'
loop_
 _atom_site_type_symbol
 _atom_site_label
 _atom_site_symmetry_multiplicity
 _atom_site_fract_x
 _atom_site_fract_y
 _atom_site_fract_z
 _atom_site_occupancy
  Li  Li0  1  0.92521800  0.27339900  0.20809200  1
  Li  Li1  1  0.58466100  0.20246600  0.29340300  1
  Li  Li2  1  0.20735100  0.13562600  0.35150000  1
  Li  Li3  1  0.28807600  0.35445900  0.13161500  1
  Li  Li4  1  0.70135200  0.64986400  0.86403300  1
  Li  Li5  1  0.00014200  0.49930900  0.99631400  1
  Li  Li6  1  0.76962200  0.87104700  0.64276000  1
  Li  Li7  1  0.08676400  0.71984600  0.79286500  1
  Li  Li8  1  0.16144500  0.93300900  0.57094300  1
  Co  Co0  1  0.71698600  0.13973000  0.86008300  1
  Co  Co1  1  0.35510600  0.07388500  0.93292100  1
  Co  Co2  1  0.07093300  0.21360600  0.79028500  1
  Co  Co3  1  0.78266000  0.35018200  0.63910000  1
  Co  Co4  1  0.43215300  0.29197800  0.71992700  1
  Co  Co5  1  0.14360500  0.42909900  0.57241500  1
  Co  Co6  1  0.49959500  0.50051500  0.49990900  1
  Co  Co7  1  0.85560100  0.56877100  0.42608600  1
  Co  Co8  1  0.56972100  0.71137700  0.28127300  1
  Co  Co9  1  0.21759500  0.64951400  0.36204400  1
  Co  Co10  1  0.92720100  0.79042000  0.21106900  1
  Co  Co11  1  0.64152100  0.92397500  0.06517700  1
  Co  Co12  1  0.28065400  0.85964100  0.14105100  1
  O  O0  1  0.90412200  0.00264400  0.20239900  1
  O  O1  1  0.79873500  0.12498500  0.66666500  1
  O  O2  1  0.44245600  0.06799500  0.74341900  1
  O  O3  1  0.98902300  0.24755900  0.97521700  1
  O  O4  1  0.30095800  0.09028300  0.13569600  1
  O  O5  1  0.63136700  0.15431100  0.05701000  1
  O  O6  1  0.70552000  0.37223000  0.83485500  1
  O  O7  1  0.34445700  0.30110300  0.91189800  1
  O  O8  1  0.50536600  0.27164300  0.52030800  1
  O  O9  1  0.86716600  0.34412600  0.44073900  1
  O  O10  1  0.16217800  0.20276200  0.59592200  1
  O  O11  1  0.05323500  0.43767100  0.76375900  1
  O  O12  1  0.41892600  0.51172700  0.69483700  1
  O  O13  1  0.77723900  0.58699200  0.62351600  1
  O  O14  1  0.22387000  0.41317700  0.37282700  1
  O  O15  1  0.58112000  0.48410200  0.30381600  1
  O  O16  1  0.94565300  0.56061700  0.23805000  1
  O  O17  1  0.84270300  0.79332200  0.40728700  1
  O  O18  1  0.12253800  0.65755300  0.55319700  1
  O  O19  1  0.49446100  0.72779000  0.47457800  1
  O  O20  1  0.65559500  0.69947800  0.08860200  1
  O  O21  1  0.29604500  0.63122700  0.16631600  1
  O  O22  1  0.36241700  0.84526900  0.94817400  1
  O  O23  1  0.70661600  0.91794500  0.87004400  1
  O  O24  1  0.01722600  0.75304400  0.02582100  1
  O  O25  1  0.55275400  0.93286700  0.25698800  1
  O  O26  1  0.19866200  0.87843700  0.34020200  1
  O  O27  1  0.09869900  0.99186300  0.79195500  1
loop_
_geom_bond_atom_site_label_1
_geom_bond_atom_site_label_2
_geom_bond_distance
_geom_bond_site_symmetry_2
Li0 O5 2.090388 1_555
Li0 O9 2.135140 1_555
Li0 O3 2.139188 1_554
Li0 O0 2.145623 1_555
Li0 O14 2.165248 1_655
Li0 O16 2.247375 1_555
Li1 O9 2.039872 1_555
Li1 O4 2.046188 1_555
Li1 O25 2.082121 1_545
Li1 O5 2.109389 1_555
Li1 O8 2.172572 1_555
Li1 O15 2.270895 1_555
Li2 O26 2.047770 1_545
Li2 O4 2.124771 1_555
Li2 O0 2.149698 1_455
Li2 O8 2.168694 1_555
Li2 O10 2.179858 1_555
Li2 O14 2.185376 1_555
Li3 O7 2.010479 1_554
Li3 O3 2.129509 1_454
Li3 O15 2.146360 1_555
Li3 O4 2.172236 1_555
Li3 O21 2.183035 1_555
Li3 O14 2.215849 1_555
Li4 O20 2.009963 1_556
Li4 O12 2.089511 1_555
Li4 O23 2.150086 1_555
Li4 O6 2.220158 1_555
Li4 O24 2.241772 1_656
Li4 O13 2.258671 1_555
Li5 O24 1.984384 1_556
Li5 O3 1.987202 1_455
Li5 O11 2.107677 1_555
Li5 O6 2.124312 1_455
Li5 O21 2.157201 1_556
Li5 O16 2.186333 1_456
Li6 O1 1.972392 1_565
Li6 O19 2.055745 1_555
Li6 O23 2.092556 1_555
Li6 O17 2.224360 1_555
Li6 O13 2.288709 1_555
Li6 O27 2.295877 1_655
Li7 O22 2.003448 1_555
Li7 O18 2.106801 1_555
Li7 O24 2.159911 1_556
Li7 O27 2.181969 1_555
Li7 O11 2.187273 1_555
Li7 O13 2.230631 1_455
Li8 O26 2.034280 1_555
Li8 O27 2.049080 1_555
Li8 O2 2.088596 1_565
Li8 O18 2.140815 1_555
Li8 O10 2.149327 1_565
Li8 O17 2.273967 1_455
Co0 O23 1.796705 1_545
Co0 O3 1.888759 1_555
Co0 O1 1.889244 1_555
Co0 O2 1.907303 1_555
Co0 O5 1.933539 1_556
Co0 O6 1.957833 1_555
Co1 O27 1.845048 1_545
Co1 O4 1.859938 1_556
Co1 O2 1.884198 1_555
Co1 O22 1.894811 1_545
Co1 O7 1.903402 1_555
Co1 O5 1.926677 1_556
Co2 O3 1.825275 1_455
Co2 O27 1.862116 1_545
Co2 O1 1.898391 1_455
Co2 O7 1.903151 1_555
Co2 O11 1.906089 1_555
Co2 O10 1.937768 1_555
Co3 O6 1.888156 1_555
Co3 O11 1.890464 1_655
Co3 O1 1.914373 1_555
Co3 O8 1.924727 1_555
Co3 O9 1.943677 1_555
Co3 O13 1.958029 1_555
Co4 O12 1.858400 1_555
Co4 O2 1.882621 1_555
Co4 O10 1.885360 1_555
Co4 O6 1.892843 1_555
Co4 O8 1.903713 1_555
Co4 O7 1.904120 1_555
Co5 O11 1.910652 1_555
Co5 O12 1.916936 1_555
Co5 O10 1.918917 1_555
Co5 O18 1.931799 1_555
Co5 O14 1.932577 1_555
Co5 O9 1.941054 1_455
Co6 O12 1.898027 1_555
Co6 O19 1.903952 1_555
Co6 O8 1.905720 1_555
Co6 O15 1.909476 1_555
Co6 O14 1.926849 1_555
Co6 O13 1.932523 1_555
Co7 O9 1.870154 1_555
Co7 O18 1.872912 1_655
Co7 O17 1.881356 1_555
Co7 O16 1.883043 1_555
Co7 O13 1.906984 1_555
Co7 O15 1.910825 1_555
Co8 O19 1.861500 1_555
Co8 O25 1.878274 1_555
Co8 O21 1.894892 1_555
Co8 O20 1.901169 1_555
Co8 O15 1.909016 1_555
Co8 O17 1.909320 1_555
Co9 O21 1.893617 1_555
Co9 O16 1.897472 1_455
Co9 O19 1.912425 1_555
Co9 O18 1.929535 1_555
Co9 O26 1.936641 1_555
Co9 O14 1.945682 1_555
Co10 O0 1.784688 1_565
Co10 O24 1.866071 1_655
Co10 O20 1.892518 1_555
Co10 O26 1.904657 1_655
Co10 O17 1.928128 1_555
Co10 O16 1.954990 1_555
Co11 O23 1.842053 1_554
Co11 O0 1.872828 1_565
Co11 O20 1.894262 1_555
Co11 O5 1.900023 1_565
Co11 O25 1.907451 1_555
Co11 O22 1.933313 1_554
Co12 O24 1.835787 1_555
Co12 O4 1.844036 1_565
Co12 O22 1.885040 1_554
Co12 O25 1.889617 1_555
Co12 O21 1.933054 1_555
Co12 O26 1.935607 1_555
