# generated using pymatgen
data_Li5Ti2Mn8O20
_symmetry_space_group_name_H-M   'P 1'
_cell_length_a   6.05319331
_cell_length_b   6.05319331
_cell_length_c   24.81875204
_cell_angle_alpha   80.15257827
_cell_angle_beta   80.15257827
_cell_angle_gamma   57.69379674
_symmetry_Int_Tables_number   1
_chemical_formula_structural   Li5Ti2Mn8O20
_chemical_formula_sum   'Li10 Ti4 Mn16 O40'
_cell_volume   753.82425118
_cell_formula_units_Z   2
loop_
 _symmetry_equiv_pos_site_id
 _symmetry_equiv_pos_as_xyz
  1  'x, y, z'
loop_
 _atom_site_type_symbol
 _atom_site_label
 _atom_site_symmetry_multiplicity
 _atom_site_fract_x
 _atom_site_fract_y
 _atom_site_fract_z
 _atom_site_occupancy
  Li  Li0  1  0.48258700  0.48258700  0.57559600  1
  Li  Li1  1  0.51741300  0.51741300  0.42440400  1
  Li  Li2  1  0.12786700  0.12786700  0.62576900  1
  Li  Li3  1  0.87213300  0.87213300  0.37423100  1
  Li  Li4  1  0.93174900  0.93174900  0.22521200  1
  Li  Li5  1  0.27591900  0.27591900  0.17542400  1
  Li  Li6  1  0.32257700  0.32257700  0.02248600  1
  Li  Li7  1  0.06825100  0.06825100  0.77478800  1
  Li  Li8  1  0.67742300  0.67742300  0.97751400  1
  Li  Li9  1  0.72408100  0.72408100  0.82457600  1
  Ti  Ti0  1  0.81192200  0.81192200  0.59843900  1
  Ti  Ti1  1  0.18807800  0.18807800  0.40156100  1
  Ti  Ti2  1  0.79835300  0.79835300  0.09980500  1
  Ti  Ti3  1  0.20164700  0.20164700  0.90019500  1
  Mn  Mn0  1  0.00000000  0.00000000  0.50000000  1
  Mn  Mn1  1  0.00000000  0.50000000  0.50000000  1
  Mn  Mn2  1  0.50000000  0.00000000  0.50000000  1
  Mn  Mn3  1  0.40169900  0.40169900  0.30028700  1
  Mn  Mn4  1  0.60542700  0.60542700  0.19978500  1
  Mn  Mn5  1  0.40465600  0.90181600  0.30009000  1
  Mn  Mn6  1  0.29885000  0.79543400  0.09986600  1
  Mn  Mn7  1  0.90181600  0.40465600  0.30009000  1
  Mn  Mn8  1  0.79543400  0.29885000  0.09986600  1
  Mn  Mn9  1  0.00000000  0.00000000  0.00000000  1
  Mn  Mn10  1  0.70115000  0.20456600  0.90013400  1
  Mn  Mn11  1  0.20456600  0.70115000  0.90013400  1
  Mn  Mn12  1  0.59830100  0.59830100  0.69971300  1
  Mn  Mn13  1  0.39457300  0.39457300  0.80021500  1
  Mn  Mn14  1  0.09818400  0.59534400  0.69991000  1
  Mn  Mn15  1  0.59534400  0.09818400  0.69991000  1
  O  O0  1  0.31974000  0.87327400  0.44881100  1
  O  O1  1  0.87327400  0.31974000  0.44881100  1
  O  O2  1  0.12672600  0.68026000  0.55118900  1
  O  O3  1  0.68026000  0.12672600  0.55118900  1
  O  O4  1  0.06844800  0.06844800  0.34661800  1
  O  O5  1  0.84307800  0.84307800  0.45804900  1
  O  O6  1  0.67547200  0.67547200  0.55158200  1
  O  O7  1  0.56532300  0.56532300  0.34336300  1
  O  O8  1  0.32452800  0.32452800  0.44841800  1
  O  O9  1  0.15692200  0.15692200  0.54195100  1
  O  O10  1  0.74393000  0.29220400  0.25570900  1
  O  O11  1  0.29220400  0.74393000  0.25570900  1
  O  O12  1  0.06113600  0.51247800  0.34497300  1
  O  O13  1  0.51247800  0.06113600  0.34497300  1
  O  O14  1  0.23916100  0.23916100  0.25719000  1
  O  O15  1  0.46703600  0.46703600  0.14783900  1
  O  O16  1  0.94873000  0.94873000  0.14138900  1
  O  O17  1  0.73885000  0.73885000  0.25629400  1
  O  O18  1  0.12106800  0.67959600  0.04913400  1
  O  O19  1  0.67959600  0.12106800  0.04913400  1
  O  O20  1  0.47704700  0.92322500  0.14899800  1
  O  O21  1  0.92322500  0.47704700  0.14899800  1
  O  O22  1  0.32040400  0.87893200  0.95086600  1
  O  O23  1  0.87893200  0.32040400  0.95086600  1
  O  O24  1  0.87616600  0.87616600  0.95022300  1
  O  O25  1  0.05127000  0.05127000  0.85861100  1
  O  O26  1  0.64899200  0.64899200  0.05933000  1
  O  O27  1  0.53296400  0.53296400  0.85216100  1
  O  O28  1  0.12383400  0.12383400  0.04977700  1
  O  O29  1  0.35100800  0.35100800  0.94067000  1
  O  O30  1  0.52295300  0.07677500  0.85100200  1
  O  O31  1  0.07677500  0.52295300  0.85100200  1
  O  O32  1  0.70779600  0.25607000  0.74429100  1
  O  O33  1  0.25607000  0.70779600  0.74429100  1
  O  O34  1  0.26115000  0.26115000  0.74370600  1
  O  O35  1  0.43467700  0.43467700  0.65663700  1
  O  O36  1  0.76083900  0.76083900  0.74281000  1
  O  O37  1  0.93155200  0.93155200  0.65338200  1
  O  O38  1  0.48752200  0.93886400  0.65502700  1
  O  O39  1  0.93886400  0.48752200  0.65502700  1
loop_
_geom_bond_atom_site_label_1
_geom_bond_atom_site_label_2
_geom_bond_distance
_geom_bond_site_symmetry_2
Li0 O2 1.970318 1_555
Li0 O3 1.970318 1_555
Li0 O35 1.975992 1_555
Li0 O6 2.015624 1_555
Li1 O1 1.970318 1_555
Li1 O0 1.970318 1_555
Li1 O7 1.975992 1_555
Li1 O8 2.015624 1_555
Li2 O38 2.042073 1_545
Li2 O39 2.042073 1_455
Li2 O9 2.042575 1_555
Li2 O37 2.060636 1_445
Li3 O12 2.042073 1_655
Li3 O13 2.042073 1_565
Li3 O5 2.042575 1_555
Li3 O4 2.060636 1_665
Li4 O17 2.040357 1_555
Li4 O16 2.052834 1_555
Li4 O10 2.060387 1_565
Li4 O11 2.060387 1_655
Li5 O21 1.974297 1_455
Li5 O20 1.974297 1_545
Li5 O14 1.990282 1_555
Li5 O15 2.008511 1_555
Li6 O29 1.993752 1_554
Li6 O18 1.997732 1_555
Li6 O19 1.997732 1_555
Li6 O28 2.083958 1_555
Li7 O34 2.040357 1_555
Li7 O25 2.052834 1_555
Li7 O32 2.060387 1_455
Li7 O33 2.060387 1_545
Li8 O26 1.993752 1_556
Li8 O23 1.997732 1_555
Li8 O22 1.997732 1_555
Li8 O24 2.083958 1_555
Li9 O30 1.974297 1_565
Li9 O31 1.974297 1_655
Li9 O36 1.990282 1_555
Li9 O27 2.008511 1_555
Mn0 O2 1.963101 1_545
Mn0 O3 1.963101 1_455
Mn0 O1 1.963101 1_455
Mn0 O0 1.963101 1_545
Mn0 O9 2.128279 1_555
Mn0 O5 2.128279 1_445
Mn1 O9 1.946597 1_555
Mn1 O5 1.946597 1_455
Mn1 O8 2.000179 1_555
Mn1 O6 2.000179 1_455
Mn1 O2 2.257270 1_555
Mn1 O1 2.257270 1_455
Mn2 O9 1.946597 1_555
Mn2 O5 1.946597 1_545
Mn2 O8 2.000179 1_555
Mn2 O6 2.000179 1_545
Mn2 O3 2.257270 1_555
Mn2 O0 2.257270 1_545
Mn3 O13 1.980950 1_555
Mn3 O12 1.980950 1_555
Mn3 O11 1.988486 1_555
Mn3 O10 1.988486 1_555
Mn3 O14 2.198796 1_555
Mn3 O7 2.208592 1_555
Mn4 O21 1.949624 1_555
Mn4 O20 1.949624 1_555
Mn4 O10 2.005732 1_555
Mn4 O11 2.005732 1_555
Mn4 O15 2.134141 1_555
Mn4 O17 2.177979 1_555
Mn5 O17 1.930933 1_555
Mn5 O7 1.933828 1_555
Mn5 O14 1.934325 1_565
Mn5 O13 1.971249 1_565
Mn5 O4 1.973077 1_565
Mn5 O11 1.975321 1_555
Mn6 O15 1.961504 1_555
Mn6 O26 1.964071 1_555
Mn6 O16 1.972981 1_455
Mn6 O28 1.993374 1_565
Mn6 O18 2.192518 1_555
Mn6 O20 2.216578 1_555
Mn7 O17 1.930933 1_555
Mn7 O7 1.933828 1_555
Mn7 O14 1.934325 1_655
Mn7 O12 1.971249 1_655
Mn7 O4 1.973077 1_655
Mn7 O10 1.975321 1_555
Mn8 O15 1.961504 1_555
Mn8 O26 1.964071 1_555
Mn8 O16 1.972981 1_545
Mn8 O28 1.993374 1_655
Mn8 O19 2.192518 1_555
Mn8 O21 2.216578 1_555
Mn9 O23 1.939872 1_454
Mn9 O22 1.939872 1_544
Mn9 O19 1.939872 1_455
Mn9 O18 1.939872 1_545
Mn9 O28 1.970811 1_555
Mn9 O24 1.970811 1_444
Mn10 O27 1.961504 1_555
Mn10 O29 1.964071 1_555
Mn10 O25 1.972981 1_655
Mn10 O24 1.993374 1_545
Mn10 O23 2.192518 1_555
Mn10 O30 2.216578 1_555
Mn11 O27 1.961504 1_555
Mn11 O29 1.964071 1_555
Mn11 O25 1.972981 1_565
Mn11 O24 1.993374 1_455
Mn11 O22 2.192518 1_555
Mn11 O31 2.216578 1_555
Mn12 O38 1.980950 1_555
Mn12 O39 1.980950 1_555
Mn12 O32 1.988486 1_555
Mn12 O33 1.988486 1_555
Mn12 O36 2.198796 1_555
Mn12 O35 2.208592 1_555
Mn13 O31 1.949624 1_555
Mn13 O30 1.949624 1_555
Mn13 O32 2.005732 1_555
Mn13 O33 2.005732 1_555
Mn13 O27 2.134141 1_555
Mn13 O34 2.177979 1_555
Mn14 O34 1.930933 1_555
Mn14 O35 1.933828 1_555
Mn14 O36 1.934325 1_455
Mn14 O39 1.971249 1_455
Mn14 O37 1.973077 1_455
Mn14 O33 1.975321 1_555
Mn15 O34 1.930933 1_555
Mn15 O35 1.933828 1_555
Mn15 O36 1.934325 1_545
Mn15 O38 1.971249 1_545
Mn15 O37 1.973077 1_545
Mn15 O32 1.975321 1_555
O0 Ti1 1.890389 1_565
O1 Ti1 1.890389 1_655
O2 Ti0 1.890389 1_455
O3 Ti0 1.890389 1_545
O4 Ti1 2.035741 1_555
O6 Ti0 2.025618 1_555
O8 Ti1 2.025618 1_555
O12 Ti1 2.057143 1_555
O13 Ti1 2.057143 1_555
O16 Ti2 2.061707 1_555
O18 Ti2 1.970334 1_455
O19 Ti2 1.970334 1_545
O20 Ti2 1.943386 1_555
O21 Ti2 1.943386 1_555
O22 Ti3 1.970334 1_565
O23 Ti3 1.970334 1_655
O25 Ti3 2.061707 1_555
O26 Ti2 2.034446 1_555
O29 Ti3 2.034446 1_555
O30 Ti3 1.943386 1_555
O31 Ti3 1.943386 1_555
O37 Ti0 2.035741 1_555
O38 Ti0 2.057143 1_555
O39 Ti0 2.057143 1_555
