# generated using pymatgen
data_KC
_symmetry_space_group_name_H-M   'P 1'
_cell_length_a   4.37341867
_cell_length_b   4.37341867
_cell_length_c   4.37341867
_cell_angle_alpha   60.00000000
_cell_angle_beta   60.00000000
_cell_angle_gamma   60.00000000
_symmetry_Int_Tables_number   1
_chemical_formula_structural   KC
_chemical_formula_sum   'K1 C1'
_cell_volume   59.14910350
_cell_formula_units_Z   1
loop_
 _symmetry_equiv_pos_site_id
 _symmetry_equiv_pos_as_xyz
  1  'x, y, z'
loop_
 _atom_site_type_symbol
 _atom_site_label
 _atom_site_symmetry_multiplicity
 _atom_site_fract_x
 _atom_site_fract_y
 _atom_site_fract_z
 _atom_site_occupancy
  K  K0  1  0.00000000  0.00000000  0.00000000  1
  C  C0  1  0.50000000  0.50000000  0.50000000  1
loop_
_geom_bond_atom_site_label_1
_geom_bond_atom_site_label_2
_geom_bond_distance
_geom_bond_site_symmetry_2
C0 K0 3.092474 1_556
C0 K0 3.092474 1_565
C0 K0 3.092474 1_655
C0 K0 3.092474 1_656
C0 K0 3.092474 1_665
C0 K0 3.092474 1_566
