# generated using pymatgen
data_Li32Ti13Cr3O48
_symmetry_space_group_name_H-M   'P 1'
_cell_length_a   5.08123500
_cell_length_b   8.82920053
_cell_length_c   19.60196199
_cell_angle_alpha   98.37144373
_cell_angle_beta   94.66808712
_cell_angle_gamma   89.96630080
_symmetry_Int_Tables_number   1
_chemical_formula_structural   Li32Ti13Cr3O48
_chemical_formula_sum   'Li32 Ti13 Cr3 O48'
_cell_volume   867.09493677
_cell_formula_units_Z   1
loop_
 _symmetry_equiv_pos_site_id
 _symmetry_equiv_pos_as_xyz
  1  'x, y, z'
loop_
 _atom_site_type_symbol
 _atom_site_label
 _atom_site_symmetry_multiplicity
 _atom_site_fract_x
 _atom_site_fract_y
 _atom_site_fract_z
 _atom_site_occupancy
  Li  Li0  1  0.99091600  0.16864500  0.24984800  1
  Li  Li1  1  0.87540000  0.37700000  0.37513400  1
  Li  Li2  1  0.75138800  0.25013500  0.00013000  1
  Li  Li3  1  0.74290100  0.92106900  0.00039600  1
  Li  Li4  1  0.98886800  0.16881500  0.74925400  1
  Li  Li5  1  0.75952700  0.58088400  0.49904300  1
  Li  Li6  1  0.87401600  0.37577100  0.87514800  1
  Li  Li7  1  0.75459600  0.24895400  0.50004500  1
  Li  Li8  1  0.74114300  0.91894500  0.49968900  1
  Li  Li9  1  0.62492700  0.12499400  0.12500500  1
  Li  Li10  1  0.75422100  0.57847100  0.99920800  1
  Li  Li11  1  0.50907000  0.33061700  0.24994600  1
  Li  Li12  1  0.62646200  0.12539800  0.62485700  1
  Li  Li13  1  0.49873800  0.99992500  0.24978000  1
  Li  Li14  1  0.49543500  0.66981600  0.25025000  1
  Li  Li15  1  0.50637900  0.33248900  0.75061900  1
  Li  Li16  1  0.37623600  0.87452000  0.37484700  1
  Li  Li17  1  0.50102300  0.99947900  0.75067400  1
  Li  Li18  1  0.25102000  0.74918600  0.99946000  1
  Li  Li19  1  0.48885400  0.66871100  0.75074500  1
  Li  Li20  1  0.24354500  0.42081000  0.99974400  1
  Li  Li21  1  0.37451100  0.87340300  0.87484900  1
  Li  Li22  1  0.25853400  0.08140800  0.50050100  1
  Li  Li23  1  0.24573400  0.75005100  0.49987900  1
  Li  Li24  1  0.12494100  0.62499900  0.12499800  1
  Li  Li25  1  0.24072100  0.41967400  0.50066500  1
  Li  Li26  1  0.00736800  0.83052300  0.25057500  1
  Li  Li27  1  0.25733900  0.07974500  0.99973400  1
  Li  Li28  1  0.12589400  0.62355800  0.62515100  1
  Li  Li29  1  0.99734400  0.50084900  0.25040700  1
  Li  Li30  1  0.00996300  0.83169200  0.74984000  1
  Li  Li31  1  0.00594200  0.49887600  0.74962200  1
  Ti  Ti0  1  0.87296700  0.03924100  0.37366700  1
  Ti  Ti1  1  0.87278800  0.70718400  0.87341900  1
  Ti  Ti2  1  0.87966100  0.04103100  0.87449700  1
  Ti  Ti3  1  0.62635200  0.79089700  0.12496900  1
  Ti  Ti4  1  0.62398800  0.45885200  0.12500800  1
  Ti  Ti5  1  0.62205500  0.79109300  0.62516300  1
  Ti  Ti6  1  0.62680300  0.45916600  0.62667700  1
  Ti  Ti7  1  0.37614100  0.54145800  0.37599800  1
  Ti  Ti8  1  0.37261600  0.20858200  0.37545000  1
  Ti  Ti9  1  0.37919500  0.21127500  0.87681800  1
  Ti  Ti10  1  0.12402000  0.95846600  0.12499000  1
  Ti  Ti11  1  0.12644900  0.29138000  0.12507000  1
  Ti  Ti12  1  0.11828000  0.95965100  0.62330500  1
  Cr  Cr0  1  0.87748400  0.70982300  0.37509300  1
  Cr  Cr1  1  0.37187600  0.54070800  0.87511800  1
  Cr  Cr2  1  0.13105700  0.29027300  0.62483400  1
  O  O0  1  0.96232800  0.10642300  0.06836100  1
  O  O1  1  0.92862300  0.78444600  0.06808900  1
  O  O2  1  0.92807900  0.42743300  0.06721800  1
  O  O3  1  0.95994200  0.10506400  0.56799600  1
  O  O4  1  0.82123200  0.96536800  0.18174900  1
  O  O5  1  0.82200200  0.32255600  0.18299200  1
  O  O6  1  0.92966900  0.78528300  0.56826900  1
  O  O7  1  0.93066400  0.42506300  0.56824500  1
  O  O8  1  0.78773200  0.64343700  0.18155500  1
  O  O9  1  0.70985000  0.85724400  0.31842900  1
  O  O10  1  0.82143100  0.96585800  0.68184000  1
  O  O11  1  0.82606800  0.32032800  0.68182000  1
  O  O12  1  0.68076600  0.53712700  0.31908500  1
  O  O13  1  0.67808200  0.17651400  0.31710700  1
  O  O14  1  0.78646400  0.64317200  0.68208300  1
  O  O15  1  0.71277900  0.85588500  0.81805900  1
  O  O16  1  0.46236200  0.60636400  0.06836300  1
  O  O17  1  0.57679900  0.71663500  0.43057400  1
  O  O18  1  0.57219300  0.07237700  0.43301300  1
  O  O19  1  0.67487800  0.53306900  0.81896400  1
  O  O20  1  0.67711900  0.17765800  0.81693500  1
  O  O21  1  0.42803900  0.92729600  0.06701300  1
  O  O22  1  0.42891800  0.28457100  0.06834200  1
  O  O23  1  0.53629800  0.39382400  0.43208100  1
  O  O24  1  0.46559600  0.60594000  0.56811300  1
  O  O25  1  0.56713100  0.71209500  0.93061700  1
  O  O26  1  0.57105000  0.07347200  0.93283000  1
  O  O27  1  0.32206600  0.82242600  0.18281300  1
  O  O28  1  0.32134400  0.46567300  0.18194800  1
  O  O29  1  0.42821500  0.92763300  0.56700900  1
  O  O30  1  0.41996800  0.28312600  0.56893900  1
  O  O31  1  0.54031100  0.39326400  0.93182000  1
  O  O32  1  0.28754400  0.14340200  0.18162100  1
  O  O33  1  0.21486300  0.35732600  0.31824100  1
  O  O34  1  0.32307500  0.82420400  0.68291300  1
  O  O35  1  0.32457800  0.46634000  0.68186300  1
  O  O36  1  0.16864000  0.67937100  0.31811800  1
  O  O37  1  0.17908300  0.03407500  0.31827800  1
  O  O38  1  0.28503900  0.14901500  0.68114600  1
  O  O39  1  0.21391300  0.36280800  0.81948500  1
  O  O40  1  0.07468400  0.57158900  0.43299700  1
  O  O41  1  0.07148900  0.21409100  0.43158300  1
  O  O42  1  0.17609600  0.67836600  0.81702000  1
  O  O43  1  0.17770100  0.03630200  0.81797600  1
  O  O44  1  0.03656600  0.88851100  0.43093700  1
  O  O45  1  0.07882100  0.57072900  0.93222500  1
  O  O46  1  0.07083400  0.21577800  0.93162000  1
  O  O47  1  0.03439000  0.89297900  0.93158500  1
loop_
_geom_bond_atom_site_label_1
_geom_bond_atom_site_label_2
_geom_bond_distance
_geom_bond_site_symmetry_2
Li0 O32 2.085891 1_655
Li0 O37 2.092627 1_655
Li0 O13 2.141054 1_555
Li0 O5 2.152867 1_555
Li0 O4 2.205306 1_545
Li0 O33 2.229580 1_655
Li1 O12 2.111340 1_555
Li1 O23 2.121683 1_555
Li1 O33 2.122609 1_655
Li1 O40 2.123979 1_655
Li1 O41 2.137356 1_655
Li1 O13 2.159301 1_555
Li2 O2 2.048407 1_555
Li2 O26 2.053951 1_554
Li2 O46 2.183071 1_654
Li2 O31 2.190345 1_554
Li2 O22 2.191512 1_555
Li2 O0 2.192456 1_555
Li3 O47 2.074106 1_654
Li3 O1 2.089802 1_555
Li3 O21 2.141700 1_555
Li3 O26 2.157902 1_564
Li3 O0 2.195852 1_565
Li3 O25 2.267402 1_554
Li4 O38 2.082412 1_655
Li4 O43 2.085994 1_655
Li4 O11 2.134645 1_555
Li4 O20 2.141778 1_555
Li4 O10 2.193270 1_545
Li4 O39 2.279472 1_655
Li5 O24 2.086666 1_555
Li5 O17 2.089073 1_555
Li5 O40 2.133917 1_655
Li5 O7 2.199777 1_555
Li5 O23 2.205869 1_555
Li5 O6 2.223389 1_555
Li6 O31 2.095093 1_555
Li6 O19 2.104260 1_555
Li6 O39 2.111066 1_655
Li6 O46 2.120013 1_655
Li6 O45 2.132960 1_655
Li6 O20 2.144231 1_555
Li7 O7 2.051093 1_555
Li7 O18 2.055015 1_555
Li7 O41 2.172397 1_655
Li7 O3 2.177572 1_555
Li7 O23 2.212522 1_555
Li7 O30 2.249526 1_555
Li8 O44 2.089290 1_655
Li8 O6 2.090100 1_555
Li8 O29 2.141831 1_555
Li8 O18 2.147532 1_565
Li8 O17 2.199181 1_555
Li8 O3 2.201903 1_565
Li9 O32 2.110393 1_555
Li9 O0 2.110790 1_555
Li9 O22 2.117708 1_555
Li9 O4 2.119598 1_545
Li9 O5 2.139361 1_555
Li9 O21 2.139881 1_545
Li10 O16 2.080170 1_556
Li10 O25 2.087078 1_555
Li10 O2 2.158836 1_556
Li10 O31 2.177085 1_555
Li10 O45 2.185241 1_655
Li10 O1 2.237812 1_556
Li11 O33 2.077500 1_555
Li11 O28 2.088759 1_555
Li11 O5 2.137343 1_555
Li11 O13 2.158258 1_555
Li11 O32 2.214776 1_555
Li11 O12 2.238804 1_555
Li12 O3 2.096335 1_555
Li12 O10 2.118882 1_545
Li12 O11 2.120310 1_555
Li12 O30 2.120679 1_555
Li12 O38 2.124799 1_555
Li12 O29 2.142207 1_545
Li13 O27 2.048388 1_555
Li13 O13 2.051792 1_565
Li13 O37 2.183671 1_565
Li13 O4 2.189355 1_555
Li13 O32 2.190715 1_565
Li13 O9 2.192157 1_555
Li14 O8 2.075371 1_555
Li14 O12 2.081370 1_555
Li14 O27 2.160255 1_555
Li14 O9 2.198345 1_555
Li14 O36 2.204765 1_555
Li14 O28 2.220403 1_555
Li15 O39 2.079232 1_555
Li15 O35 2.079974 1_555
Li15 O20 2.154934 1_555
Li15 O11 2.187044 1_555
Li15 O19 2.188238 1_555
Li15 O38 2.203200 1_555
Li16 O9 2.091796 1_555
Li16 O17 2.106083 1_555
Li16 O44 2.114723 1_555
Li16 O37 2.118982 1_565
Li16 O36 2.138064 1_555
Li16 O18 2.140194 1_565
Li17 O20 2.044516 1_565
Li17 O34 2.045563 1_555
Li17 O15 2.182776 1_555
Li17 O43 2.184587 1_565
Li17 O10 2.190809 1_555
Li17 O38 2.254734 1_565
Li18 O45 2.048033 1_555
Li18 O21 2.058378 1_556
Li18 O25 2.175265 1_555
Li18 O16 2.196773 1_556
Li18 O1 2.196912 1_456
Li18 O47 2.201246 1_555
Li19 O19 2.091688 1_555
Li19 O14 2.095629 1_555
Li19 O42 2.127008 1_555
Li19 O34 2.170294 1_555
Li19 O35 2.197328 1_555
Li19 O15 2.211255 1_555
Li20 O31 2.082748 1_555
Li20 O22 2.098982 1_556
Li20 O45 2.129043 1_555
Li20 O2 2.155151 1_456
Li20 O16 2.201481 1_556
Li20 O46 2.222085 1_555
Li21 O25 2.111612 1_555
Li21 O15 2.116236 1_555
Li21 O47 2.123685 1_555
Li21 O42 2.124714 1_555
Li21 O43 2.143653 1_565
Li21 O26 2.154562 1_565
Li22 O3 2.083718 1_455
Li22 O41 2.085954 1_555
Li22 O18 2.146823 1_555
Li22 O29 2.148817 1_545
Li22 O30 2.184361 1_555
Li22 O44 2.260048 1_545
Li23 O40 2.042445 1_555
Li23 O29 2.062034 1_555
Li23 O44 2.167052 1_555
Li23 O6 2.168310 1_455
Li23 O24 2.215096 1_555
Li23 O17 2.239899 1_555
Li24 O8 2.108965 1_455
Li24 O16 2.110775 1_555
Li24 O28 2.120208 1_555
Li24 O1 2.120344 1_455
Li24 O27 2.137328 1_555
Li24 O2 2.137410 1_455
Li25 O30 2.084280 1_555
Li25 O23 2.086634 1_555
Li25 O7 2.135525 1_455
Li25 O40 2.145882 1_555
Li25 O24 2.209402 1_555
Li25 O41 2.228105 1_555
Li26 O9 2.084624 1_455
Li26 O4 2.095430 1_455
Li26 O36 2.131212 1_555
Li26 O27 2.155066 1_555
Li26 O37 2.207111 1_565
Li26 O8 2.215876 1_455
Li27 O0 2.085117 1_456
Li27 O46 2.093554 1_555
Li27 O26 2.140780 1_555
Li27 O21 2.152347 1_546
Li27 O47 2.213936 1_545
Li27 O22 2.223071 1_556
Li28 O35 2.108759 1_555
Li28 O14 2.122906 1_455
Li28 O24 2.125289 1_555
Li28 O7 2.133658 1_455
Li28 O6 2.134767 1_455
Li28 O34 2.158145 1_555
Li29 O36 2.051358 1_655
Li29 O5 2.054853 1_555
Li29 O12 2.174591 1_555
Li29 O8 2.190900 1_555
Li29 O33 2.201183 1_655
Li29 O28 2.201191 1_655
Li30 O10 2.085244 1_455
Li30 O15 2.087872 1_455
Li30 O34 2.138007 1_555
Li30 O42 2.148524 1_555
Li30 O43 2.210843 1_565
Li30 O14 2.221989 1_455
Li31 O42 2.051929 1_555
Li31 O11 2.069010 1_455
Li31 O39 2.162735 1_555
Li31 O35 2.169426 1_555
Li31 O14 2.206508 1_455
Li31 O19 2.240671 1_455
Cr0 O36 1.920763 1_655
Cr0 O44 1.922322 1_655
Cr0 O17 1.942159 1_555
Cr0 O12 1.965988 1_555
Cr0 O9 1.979674 1_555
Cr0 O40 1.999691 1_655
Cr1 O39 1.913339 1_555
Cr1 O45 1.930065 1_555
Cr1 O25 1.950484 1_555
Cr1 O19 1.959770 1_555
Cr1 O31 1.981854 1_555
Cr1 O42 1.995248 1_555
Cr2 O30 1.897654 1_555
Cr2 O38 1.909253 1_555
Cr2 O7 1.970456 1_455
Cr2 O11 1.978584 1_455
Cr2 O35 1.987467 1_555
Cr2 O3 1.996202 1_455
O0 Ti10 1.971362 1_645
O0 Ti11 1.979906 1_655
O1 Ti3 1.966097 1_555
O1 Ti10 1.978147 1_655
O2 Ti4 1.985092 1_555
O2 Ti11 1.988500 1_655
O3 Ti12 1.932144 1_645
O4 Ti10 1.966577 1_655
O4 Ti3 1.978750 1_555
O5 Ti11 1.988053 1_655
O5 Ti4 1.990740 1_555
O6 Ti12 1.949953 1_655
O6 Ti5 1.989098 1_555
O7 Ti6 1.993324 1_555
O8 Ti3 1.966981 1_555
O8 Ti4 1.975452 1_555
O9 Ti0 1.946876 1_565
O10 Ti12 1.964172 1_655
O10 Ti5 1.990236 1_555
O11 Ti6 1.975455 1_555
O12 Ti7 1.977504 1_555
O13 Ti0 1.972289 1_555
O13 Ti8 1.997836 1_555
O14 Ti6 1.954861 1_555
O14 Ti5 1.979844 1_555
O15 Ti1 1.957638 1_555
O15 Ti2 1.984315 1_565
O16 Ti4 1.968511 1_555
O16 Ti3 1.976051 1_555
O17 Ti7 1.979583 1_555
O18 Ti8 1.988767 1_555
O18 Ti0 1.991060 1_555
O19 Ti1 1.965515 1_555
O20 Ti9 1.986170 1_555
O20 Ti2 1.998333 1_555
O21 Ti10 1.986920 1_555
O21 Ti3 1.991723 1_555
O22 Ti11 1.964898 1_555
O22 Ti4 1.977109 1_555
O23 Ti7 1.959663 1_555
O23 Ti8 1.980319 1_555
O24 Ti5 1.969653 1_555
O24 Ti6 1.986713 1_555
O25 Ti1 1.985023 1_555
O26 Ti9 1.962023 1_555
O26 Ti2 2.011087 1_555
O27 Ti3 1.986613 1_555
O27 Ti10 1.987313 1_555
O28 Ti4 1.968228 1_555
O28 Ti11 1.978476 1_555
O29 Ti5 1.984664 1_555
O29 Ti12 1.992316 1_555
O30 Ti6 2.024203 1_555
O31 Ti9 1.941115 1_555
O32 Ti11 1.969421 1_555
O32 Ti10 1.978007 1_545
O33 Ti8 1.976386 1_555
O33 Ti7 1.977617 1_555
O34 Ti5 1.964149 1_555
O34 Ti12 2.021326 1_555
O35 Ti6 1.944950 1_555
O36 Ti7 2.021796 1_555
O37 Ti0 1.964864 1_455
O37 Ti8 1.979024 1_555
O38 Ti12 2.022911 1_545
O39 Ti9 2.010281 1_555
O40 Ti7 1.963920 1_555
O41 Ti8 1.952594 1_555
O41 Ti0 1.998691 1_455
O42 Ti1 1.963958 1_455
O43 Ti2 1.944796 1_455
O43 Ti9 2.013963 1_555
O44 Ti0 2.001049 1_465
O45 Ti1 2.020580 1_455
O46 Ti9 1.967747 1_555
O46 Ti2 1.974724 1_455
O47 Ti2 1.964846 1_465
O47 Ti1 1.992440 1_455
