# generated using pymatgen
data_Li5TaO5
_symmetry_space_group_name_H-M   'P 1'
_cell_length_a   5.49199112
_cell_length_b   5.49199112
_cell_length_c   9.09551720
_cell_angle_alpha   82.38589180
_cell_angle_beta   82.38589180
_cell_angle_gamma   117.01716523
_symmetry_Int_Tables_number   1
_chemical_formula_structural   Li5TaO5
_chemical_formula_sum   'Li10 Ta2 O10'
_cell_volume   236.40724993
_cell_formula_units_Z   2
loop_
 _symmetry_equiv_pos_site_id
 _symmetry_equiv_pos_as_xyz
  1  'x, y, z'
loop_
 _atom_site_type_symbol
 _atom_site_label
 _atom_site_symmetry_multiplicity
 _atom_site_fract_x
 _atom_site_fract_y
 _atom_site_fract_z
 _atom_site_occupancy
  Li  Li0  1  0.54311600  0.77600800  0.95921900  1
  Li  Li1  1  0.69825100  0.04618400  0.56045500  1
  Li  Li2  1  0.77600800  0.54311600  0.45921900  1
  Li  Li3  1  0.04618400  0.69825100  0.06045500  1
  Li  Li4  1  0.67303000  0.32697000  0.75000000  1
  Li  Li5  1  0.32697000  0.67303000  0.25000000  1
  Li  Li6  1  0.95381600  0.30174900  0.93954500  1
  Li  Li7  1  0.22399200  0.45688400  0.54078100  1
  Li  Li8  1  0.30174900  0.95381600  0.43954500  1
  Li  Li9  1  0.45688400  0.22399200  0.04078100  1
  Ta  Ta0  1  0.08835300  0.91164700  0.75000000  1
  Ta  Ta1  1  0.91164700  0.08835300  0.25000000  1
  O  O0  1  0.80010000  0.57343700  0.91048900  1
  O  O1  1  0.32587700  0.98709700  0.89365500  1
  O  O2  1  0.57343700  0.80010000  0.41048900  1
  O  O3  1  0.88675600  0.11324400  0.75000000  1
  O  O4  1  0.98709700  0.32587700  0.39365500  1
  O  O5  1  0.01290300  0.67412300  0.60634500  1
  O  O6  1  0.11324400  0.88675600  0.25000000  1
  O  O7  1  0.42656300  0.19990000  0.58951100  1
  O  O8  1  0.67412300  0.01290300  0.10634500  1
  O  O9  1  0.19990000  0.42656300  0.08951100  1
loop_
_geom_bond_atom_site_label_1
_geom_bond_atom_site_label_2
_geom_bond_distance
_geom_bond_site_symmetry_2
Li0 O8 1.966509 1_566
Li0 O9 2.039445 1_556
Li0 O1 2.094028 1_555
Li0 O0 2.194875 1_555
Li0 O3 2.356258 1_565
Li1 O4 1.925756 1_555
Li1 O2 2.012855 1_545
Li1 O7 2.026808 1_555
Li1 O3 2.115293 1_555
Li2 O5 1.966509 1_655
Li2 O7 2.039445 1_555
Li2 O4 2.094028 1_555
Li2 O2 2.194875 1_555
Li2 O6 2.356258 1_655
Li3 O1 1.925756 1_554
Li3 O0 2.012855 1_454
Li3 O9 2.026808 1_555
Li3 O6 2.115293 1_555
Li4 O3 2.001810 1_555
Li4 O1 2.070434 1_545
Li4 O5 2.070434 1_655
Li4 O0 2.094136 1_555
Li4 O7 2.094136 1_555
Li5 O6 2.001810 1_555
Li5 O4 2.070434 1_455
Li5 O8 2.070434 1_565
Li5 O9 2.094136 1_555
Li5 O2 2.094136 1_555
Li6 O8 1.925756 1_556
Li6 O9 2.012855 1_656
Li6 O0 2.026808 1_555
Li6 O3 2.115293 1_555
Li7 O4 1.966509 1_455
Li7 O2 2.039445 1_555
Li7 O5 2.094028 1_555
Li7 O7 2.194875 1_555
Li7 O3 2.356258 1_455
Li8 O5 1.925756 1_555
Li8 O7 2.012855 1_565
Li8 O2 2.026808 1_555
Li8 O6 2.115293 1_555
Li9 O1 1.966509 1_544
Li9 O0 2.039445 1_554
Li9 O8 2.094028 1_555
Li9 O9 2.194875 1_555
Li9 O6 2.356258 1_545
O0 Ta0 2.021062 1_655
O1 Ta0 1.919555 1_555
O2 Ta1 2.021062 1_565
O3 Ta0 1.888207 1_645
O4 Ta1 1.919555 1_555
O5 Ta0 1.919555 1_555
O6 Ta1 1.888207 1_465
O7 Ta0 2.021062 1_545
O8 Ta1 1.919555 1_555
O9 Ta1 2.021062 1_455
