# generated using pymatgen
data_Mn6O7F5
_symmetry_space_group_name_H-M   'P 1'
_cell_length_a   4.63680761
_cell_length_b   5.64573025
_cell_length_c   15.34301240
_cell_angle_alpha   90.06680917
_cell_angle_beta   89.51096945
_cell_angle_gamma   91.39284109
_symmetry_Int_Tables_number   1
_chemical_formula_structural   Mn6O7F5
_chemical_formula_sum   'Mn12 O14 F10'
_cell_volume   401.51842582
_cell_formula_units_Z   2
loop_
 _symmetry_equiv_pos_site_id
 _symmetry_equiv_pos_as_xyz
  1  'x, y, z'
loop_
 _atom_site_type_symbol
 _atom_site_label
 _atom_site_symmetry_multiplicity
 _atom_site_fract_x
 _atom_site_fract_y
 _atom_site_fract_z
 _atom_site_occupancy
  Mn  Mn0  1  0.04498500  0.15311300  0.41254000  1
  Mn  Mn1  1  0.01587200  0.82635100  0.25057200  1
  Mn  Mn2  1  0.00883600  0.17665600  0.08034400  1
  Mn  Mn3  1  0.00957700  0.17052000  0.74539300  1
  Mn  Mn4  1  0.98986500  0.84931300  0.57730100  1
  Mn  Mn5  1  0.05431000  0.84923100  0.91387200  1
  Mn  Mn6  1  0.49402700  0.34708900  0.58570900  1
  Mn  Mn7  1  0.48402600  0.35525100  0.92097100  1
  Mn  Mn8  1  0.48467400  0.36357700  0.25141200  1
  Mn  Mn9  1  0.51440600  0.62192100  0.08460900  1
  Mn  Mn10  1  0.47970600  0.64823100  0.42477500  1
  Mn  Mn11  1  0.48384200  0.64192300  0.75264500  1
  O  O0  1  0.23411400  0.11513700  0.30415000  1
  O  O1  1  0.21038300  0.11124000  0.63462400  1
  O  O2  1  0.23293800  0.12006800  0.96865300  1
  O  O3  1  0.22225800  0.88791300  0.46980800  1
  O  O4  1  0.22232100  0.89370900  0.80099900  1
  O  O5  1  0.27579800  0.39482500  0.14436500  1
  O  O6  1  0.28324300  0.60350900  0.31286500  1
  O  O7  1  0.27514000  0.38292300  0.47532600  1
  O  O8  1  0.27499300  0.40063600  0.81575400  1
  O  O9  1  0.29226600  0.60570100  0.97847800  1
  O  O10  1  0.71445900  0.38073100  0.02605400  1
  O  O11  1  0.72713400  0.60332000  0.19275900  1
  O  O12  1  0.70970400  0.62193400  0.52860200  1
  O  O13  1  0.71190700  0.38625700  0.69500200  1
  F  F0  1  0.25484800  0.88075100  0.13204400  1
  F  F1  1  0.23101200  0.60957700  0.64230200  1
  F  F2  1  0.74477400  0.37881600  0.35801100  1
  F  F3  1  0.75487100  0.61775200  0.86761200  1
  F  F4  1  0.75966500  0.11212700  0.19501600  1
  F  F5  1  0.77313000  0.12971400  0.51422000  1
  F  F6  1  0.75519700  0.88384600  0.36483400  1
  F  F7  1  0.78214700  0.86903500  0.02768400  1
  F  F8  1  0.75407500  0.12827800  0.86090900  1
  F  F9  1  0.73949700  0.87902300  0.68978500  1
loop_
_geom_bond_atom_site_label_1
_geom_bond_atom_site_label_2
_geom_bond_distance
_geom_bond_site_symmetry_2
Mn0 O0 1.887882 1_555
Mn0 O7 1.922906 1_555
Mn0 O3 1.940278 1_545
Mn1 O11 2.024966 1_455
Mn1 O6 2.032767 1_555
Mn1 O0 2.070964 1_565
Mn2 O5 1.989496 1_555
Mn2 O10 1.995630 1_455
Mn2 O2 2.025583 1_554
Mn3 O1 1.963203 1_555
Mn3 O13 2.021995 1_455
Mn3 O4 2.058092 1_545
Mn3 O8 2.075943 1_555
Mn4 O12 1.956280 1_555
Mn4 O3 1.971749 1_655
Mn4 O1 1.986104 1_665
Mn5 O4 1.907249 1_555
Mn5 O2 1.917772 1_565
Mn5 O9 2.045955 1_555
Mn6 O13 1.974506 1_555
Mn6 O1 1.991571 1_555
Mn6 O7 1.994857 1_555
Mn6 O12 2.021972 1_555
Mn7 O2 1.888455 1_555
Mn7 O9 1.900853 1_555
Mn7 O8 1.910746 1_555
Mn7 O10 1.945045 1_556
Mn8 O6 1.907819 1_555
Mn8 O5 1.924277 1_555
Mn8 O11 1.953813 1_555
Mn8 O0 1.969582 1_555
Mn9 O10 1.888421 1_555
Mn9 O5 1.903935 1_555
Mn9 O9 1.935100 1_554
Mn9 O11 1.941851 1_555
Mn10 O7 1.914663 1_555
Mn10 O12 1.932441 1_555
Mn10 O3 1.948274 1_555
Mn10 O6 1.963752 1_555
Mn11 O8 1.911542 1_555
Mn11 O13 2.009780 1_555
Mn11 O4 2.026710 1_555
F0 Mn9 2.044888 1_555
F0 Mn1 2.140038 1_555
F0 Mn2 2.198300 1_565
F1 Mn4 2.042687 1_455
F1 Mn11 2.072842 1_555
F1 Mn6 2.122305 1_555
F2 Mn8 2.040892 1_555
F2 Mn0 2.090459 1_655
F2 Mn10 2.222445 1_555
F3 Mn5 2.016405 1_655
F3 Mn7 2.082925 1_555
F3 Mn11 2.180863 1_555
F4 Mn8 2.110963 1_555
F4 Mn2 2.123546 1_655
F4 Mn1 2.203329 1_645
F5 Mn0 1.999767 1_655
F5 Mn6 2.105676 1_555
F5 Mn4 2.133144 1_545
F6 Mn10 2.036474 1_555
F6 Mn0 2.137098 1_665
F6 Mn1 2.149730 1_655
F7 Mn9 2.037303 1_555
F7 Mn5 2.150147 1_654
F7 Mn2 2.167119 1_665
F8 Mn7 2.028485 1_555
F8 Mn3 2.133800 1_655
F8 Mn5 2.282378 1_645
F9 Mn11 2.008388 1_555
F9 Mn4 2.080617 1_555
F9 Mn3 2.217964 1_665
