# generated using pymatgen
data_Li2V2Si2O9
_symmetry_space_group_name_H-M   'P 1'
_cell_length_a   5.26542000
_cell_length_b   8.41531100
_cell_length_c   14.17530600
_cell_angle_alpha   90.00000000
_cell_angle_beta   90.00000000
_cell_angle_gamma   90.00000000
_symmetry_Int_Tables_number   1
_chemical_formula_structural   Li2V2Si2O9
_chemical_formula_sum   'Li8 V8 Si8 O36'
_cell_volume   628.10989044
_cell_formula_units_Z   4
loop_
 _symmetry_equiv_pos_site_id
 _symmetry_equiv_pos_as_xyz
  1  'x, y, z'
loop_
 _atom_site_type_symbol
 _atom_site_label
 _atom_site_symmetry_multiplicity
 _atom_site_fract_x
 _atom_site_fract_y
 _atom_site_fract_z
 _atom_site_occupancy
  Li  Li0  1  0.40098900  0.96339500  0.15685300  1
  Li  Li1  1  0.90098900  0.53660500  0.15685300  1
  Li  Li2  1  0.90098900  0.46339500  0.34314700  1
  Li  Li3  1  0.40098900  0.03660500  0.34314700  1
  Li  Li4  1  0.59901100  0.96339500  0.65685300  1
  Li  Li5  1  0.09901100  0.53660500  0.65685300  1
  Li  Li6  1  0.09901100  0.46339500  0.84314700  1
  Li  Li7  1  0.59901100  0.03660500  0.84314700  1
  V  V0  1  0.37530500  0.34143400  0.17237600  1
  V  V1  1  0.87530500  0.15856600  0.17237600  1
  V  V2  1  0.87530500  0.84143400  0.32762400  1
  V  V3  1  0.37530500  0.65856600  0.32762400  1
  V  V4  1  0.62469500  0.34143400  0.67237600  1
  V  V5  1  0.12469500  0.15856600  0.67237600  1
  V  V6  1  0.12469500  0.84143400  0.82762400  1
  V  V7  1  0.62469500  0.65856600  0.82762400  1
  Si  Si0  1  0.78527700  0.84473000  0.02705400  1
  Si  Si1  1  0.28527700  0.65527000  0.02705400  1
  Si  Si2  1  0.28527700  0.34473000  0.47294600  1
  Si  Si3  1  0.78527700  0.15527000  0.47294600  1
  Si  Si4  1  0.21472300  0.84473000  0.52705400  1
  Si  Si5  1  0.71472300  0.65527000  0.52705400  1
  Si  Si6  1  0.71472300  0.34473000  0.97294600  1
  Si  Si7  1  0.21472300  0.15527000  0.97294600  1
  O  O0  1  0.54507900  0.73821600  0.06792900  1
  O  O1  1  0.04507900  0.76178400  0.06792900  1
  O  O2  1  0.24169800  0.48373800  0.07617600  1
  O  O3  1  0.74169800  0.01626200  0.07617600  1
  O  O4  1  0.71140400  0.34827000  0.08863000  1
  O  O5  1  0.21140400  0.15173000  0.08863000  1
  O  O6  1  0.54421600  0.17149300  0.22866200  1
  O  O7  1  0.04421600  0.32850700  0.22866200  1
  O  O8  1  0.01050100  0.00000000  0.25000000  1
  O  O9  1  0.51050100  0.50000000  0.25000000  1
  O  O10  1  0.54421600  0.82850700  0.27133800  1
  O  O11  1  0.04421600  0.67149300  0.27133800  1
  O  O12  1  0.21140400  0.84827000  0.41137000  1
  O  O13  1  0.71140400  0.65173000  0.41137000  1
  O  O14  1  0.74169800  0.98373800  0.42382400  1
  O  O15  1  0.24169800  0.51626200  0.42382400  1
  O  O16  1  0.54507900  0.26178400  0.43207100  1
  O  O17  1  0.04507900  0.23821600  0.43207100  1
  O  O18  1  0.95492100  0.76178400  0.56792900  1
  O  O19  1  0.45492100  0.73821600  0.56792900  1
  O  O20  1  0.75830200  0.48373800  0.57617600  1
  O  O21  1  0.25830200  0.01626200  0.57617600  1
  O  O22  1  0.28859600  0.34827000  0.58863000  1
  O  O23  1  0.78859600  0.15173000  0.58863000  1
  O  O24  1  0.95578400  0.32850700  0.72866200  1
  O  O25  1  0.45578400  0.17149300  0.72866200  1
  O  O26  1  0.98949900  0.00000000  0.75000000  1
  O  O27  1  0.48949900  0.50000000  0.75000000  1
  O  O28  1  0.45578400  0.82850700  0.77133800  1
  O  O29  1  0.95578400  0.67149300  0.77133800  1
  O  O30  1  0.78859600  0.84827000  0.91137000  1
  O  O31  1  0.28859600  0.65173000  0.91137000  1
  O  O32  1  0.25830200  0.98373800  0.92382400  1
  O  O33  1  0.75830200  0.51626200  0.92382400  1
  O  O34  1  0.45492100  0.26178400  0.93207100  1
  O  O35  1  0.95492100  0.23821600  0.93207100  1
loop_
_geom_bond_atom_site_label_1
_geom_bond_atom_site_label_2
_geom_bond_distance
_geom_bond_site_symmetry_2
Li0 O5 2.107994 1_565
Li0 O10 2.119180 1_555
Li0 O6 2.161395 1_565
Li0 O3 2.173511 1_565
Li0 O0 2.399037 1_555
Li0 O8 2.462883 1_565
Li1 O4 2.107994 1_555
Li1 O11 2.119180 1_655
Li1 O7 2.161395 1_655
Li1 O2 2.173511 1_655
Li1 O1 2.399037 1_655
Li1 O9 2.462883 1_555
Li2 O13 2.107994 1_555
Li2 O7 2.119180 1_655
Li2 O11 2.161395 1_655
Li2 O15 2.173511 1_655
Li2 O17 2.399037 1_655
Li2 O9 2.462883 1_555
Li3 O12 2.107994 1_545
Li3 O6 2.119180 1_555
Li3 O10 2.161395 1_545
Li3 O14 2.173511 1_545
Li3 O16 2.399037 1_555
Li3 O8 2.462883 1_555
Li4 O23 2.107994 1_565
Li4 O28 2.119180 1_555
Li4 O25 2.161395 1_565
Li4 O21 2.173511 1_565
Li4 O19 2.399037 1_555
Li4 O26 2.462883 1_565
Li5 O22 2.107994 1_555
Li5 O29 2.119180 1_455
Li5 O24 2.161395 1_455
Li5 O20 2.173511 1_455
Li5 O18 2.399037 1_455
Li5 O27 2.462883 1_555
Li6 O31 2.107994 1_555
Li6 O24 2.119180 1_455
Li6 O29 2.161395 1_455
Li6 O33 2.173511 1_455
Li6 O35 2.399037 1_455
Li6 O27 2.462883 1_555
Li7 O30 2.107994 1_545
Li7 O25 2.119180 1_555
Li7 O28 2.161395 1_545
Li7 O32 2.173511 1_545
Li7 O34 2.399037 1_555
Li7 O26 2.462883 1_555
O0 Si1 1.641427 1_555
O0 Si0 1.654914 1_555
O1 Si0 1.641427 1_455
O1 Si1 1.654914 1_555
O2 Si1 1.619009 1_555
O2 V0 1.946426 1_555
O3 Si0 1.619009 1_545
O3 V1 1.946426 1_555
O4 Si6 1.640220 1_554
O4 V0 2.131765 1_555
O4 V1 2.168548 1_555
O5 Si7 1.640220 1_554
O5 V1 2.131765 1_455
O5 V0 2.168548 1_555
O6 V0 1.863548 1_555
O6 V1 1.920314 1_555
O7 V1 1.863548 1_455
O7 V0 1.920314 1_555
O8 V1 1.870316 1_455
O8 V2 1.870316 1_445
O9 V0 1.870316 1_555
O9 V3 1.870316 1_555
O10 V3 1.863548 1_555
O10 V2 1.920314 1_555
O11 V2 1.863548 1_455
O11 V3 1.920314 1_555
O12 Si4 1.640220 1_555
O12 V2 2.131765 1_455
O12 V3 2.168548 1_555
O13 Si5 1.640220 1_555
O13 V3 2.131765 1_555
O13 V2 2.168548 1_555
O14 Si3 1.619009 1_565
O14 V2 1.946426 1_555
O15 Si2 1.619009 1_555
O15 V3 1.946426 1_555
O16 Si2 1.641427 1_555
O16 Si3 1.654914 1_555
O17 Si3 1.641427 1_455
O17 Si2 1.654914 1_555
O18 Si4 1.641427 1_655
O18 Si5 1.654914 1_555
O19 Si5 1.641427 1_555
O19 Si4 1.654914 1_555
O20 Si5 1.619009 1_555
O20 V4 1.946426 1_555
O21 Si4 1.619009 1_545
O21 V5 1.946426 1_555
O22 Si2 1.640220 1_555
O22 V4 2.131765 1_555
O22 V5 2.168548 1_555
O23 Si3 1.640220 1_555
O23 V5 2.131765 1_655
O23 V4 2.168548 1_555
O24 V5 1.863548 1_655
O24 V4 1.920314 1_555
O25 V4 1.863548 1_555
O25 V5 1.920314 1_555
O26 V6 1.870316 1_645
O26 V5 1.870316 1_655
O27 V7 1.870316 1_555
O27 V4 1.870316 1_555
O28 V7 1.863548 1_555
O28 V6 1.920314 1_555
O29 V6 1.863548 1_655
O29 V7 1.920314 1_555
O30 Si0 1.640220 1_556
O30 V6 2.131765 1_655
O30 V7 2.168548 1_555
O31 Si1 1.640220 1_556
O31 V7 2.131765 1_555
O31 V6 2.168548 1_555
O32 Si7 1.619009 1_565
O32 V6 1.946426 1_555
O33 Si6 1.619009 1_555
O33 V7 1.946426 1_555
O34 Si6 1.641427 1_555
O34 Si7 1.654914 1_555
O35 Si7 1.641427 1_655
O35 Si6 1.654914 1_555
