# generated using pymatgen
data_La4Zn3O9
_symmetry_space_group_name_H-M   'P 1'
_cell_length_a   5.56609100
_cell_length_b   5.79028500
_cell_length_c   28.42317100
_cell_angle_alpha   90.00000000
_cell_angle_beta   90.00000000
_cell_angle_gamma   90.00000000
_symmetry_Int_Tables_number   1
_chemical_formula_structural   La4Zn3O9
_chemical_formula_sum   'La16 Zn12 O36'
_cell_volume   916.05757564
_cell_formula_units_Z   4
loop_
 _symmetry_equiv_pos_site_id
 _symmetry_equiv_pos_as_xyz
  1  'x, y, z'
loop_
 _atom_site_type_symbol
 _atom_site_label
 _atom_site_symmetry_multiplicity
 _atom_site_fract_x
 _atom_site_fract_y
 _atom_site_fract_z
 _atom_site_occupancy
  La  La0  1  0.24126100  0.02001500  0.17226700  1
  La  La1  1  0.24126100  0.02001500  0.32773300  1
  La  La2  1  0.25633400  0.48311500  0.95050700  1
  La  La3  1  0.25633400  0.48311500  0.54949300  1
  La  La4  1  0.24366600  0.98311500  0.04949300  1
  La  La5  1  0.24366600  0.98311500  0.45050700  1
  La  La6  1  0.25873900  0.52001500  0.67226700  1
  La  La7  1  0.25873900  0.52001500  0.82773300  1
  La  La8  1  0.74126100  0.47998500  0.17226700  1
  La  La9  1  0.74126100  0.47998500  0.32773300  1
  La  La10  1  0.75633400  0.01688500  0.54949300  1
  La  La11  1  0.75633400  0.01688500  0.95050700  1
  La  La12  1  0.74366600  0.51688500  0.04949300  1
  La  La13  1  0.74366600  0.51688500  0.45050700  1
  La  La14  1  0.75873900  0.97998500  0.67226700  1
  La  La15  1  0.75873900  0.97998500  0.82773300  1
  Zn  Zn0  1  0.20442000  0.55747800  0.25000000  1
  Zn  Zn1  1  0.25199000  0.00096600  0.61017900  1
  Zn  Zn2  1  0.25199000  0.00096600  0.88982100  1
  Zn  Zn3  1  0.24801000  0.50096600  0.11017900  1
  Zn  Zn4  1  0.24801000  0.50096600  0.38982100  1
  Zn  Zn5  1  0.29558000  0.05747800  0.75000000  1
  Zn  Zn6  1  0.70442000  0.94252200  0.25000000  1
  Zn  Zn7  1  0.75199000  0.49903400  0.61017900  1
  Zn  Zn8  1  0.75199000  0.49903400  0.88982100  1
  Zn  Zn9  1  0.74801000  0.99903400  0.11017900  1
  Zn  Zn10  1  0.74801000  0.99903400  0.38982100  1
  Zn  Zn11  1  0.79558000  0.44252200  0.75000000  1
  O  O0  1  0.00021300  0.24949800  0.61999500  1
  O  O1  1  0.00021300  0.24949800  0.88000500  1
  O  O2  1  0.00745300  0.74413400  0.60136100  1
  O  O3  1  0.00745300  0.74413400  0.89863900  1
  O  O4  1  0.16802900  0.38742300  0.75000000  1
  O  O5  1  0.24104000  0.07962100  0.52911700  1
  O  O6  1  0.24104000  0.07962100  0.97088300  1
  O  O7  1  0.27561300  0.41529700  0.31056000  1
  O  O8  1  0.27561300  0.41529700  0.18944000  1
  O  O9  1  0.22438700  0.91529700  0.81056000  1
  O  O10  1  0.22438700  0.91529700  0.68944000  1
  O  O11  1  0.25896000  0.57962100  0.02911700  1
  O  O12  1  0.25896000  0.57962100  0.47088300  1
  O  O13  1  0.33197100  0.88742300  0.25000000  1
  O  O14  1  0.49254700  0.24413400  0.10136100  1
  O  O15  1  0.49254700  0.24413400  0.39863900  1
  O  O16  1  0.49978700  0.74949800  0.11999500  1
  O  O17  1  0.49978700  0.74949800  0.38000500  1
  O  O18  1  0.50021300  0.25050200  0.88000500  1
  O  O19  1  0.50021300  0.25050200  0.61999500  1
  O  O20  1  0.50745300  0.75586600  0.60136100  1
  O  O21  1  0.50745300  0.75586600  0.89863900  1
  O  O22  1  0.66802900  0.11257700  0.75000000  1
  O  O23  1  0.74104000  0.42037900  0.52911700  1
  O  O24  1  0.74104000  0.42037900  0.97088300  1
  O  O25  1  0.77561300  0.08470300  0.18944000  1
  O  O26  1  0.77561300  0.08470300  0.31056000  1
  O  O27  1  0.72438700  0.58470300  0.68944000  1
  O  O28  1  0.72438700  0.58470300  0.81056000  1
  O  O29  1  0.75896000  0.92037900  0.02911700  1
  O  O30  1  0.75896000  0.92037900  0.47088300  1
  O  O31  1  0.83197100  0.61257700  0.25000000  1
  O  O32  1  0.99254700  0.25586600  0.10136100  1
  O  O33  1  0.99254700  0.25586600  0.39863900  1
  O  O34  1  0.99978700  0.75050200  0.11999500  1
  O  O35  1  0.99978700  0.75050200  0.38000500  1
loop_
_geom_bond_atom_site_label_1
_geom_bond_atom_site_label_2
_geom_bond_distance
_geom_bond_site_symmetry_2
La0 O8 2.348062 1_555
La0 O13 2.392883 1_545
La0 O34 2.539540 1_445
La0 O16 2.594531 1_545
La0 O25 2.663865 1_455
La0 O14 2.775265 1_555
La0 O32 2.800568 1_455
La0 O25 3.037223 1_555
La1 O7 2.348062 1_555
La1 O13 2.392883 1_545
La1 O35 2.539540 1_445
La1 O17 2.594531 1_545
La1 O26 2.663865 1_455
La1 O15 2.775265 1_555
La1 O33 2.800568 1_455
La1 O26 3.037223 1_555
La2 O11 2.303208 1_556
La2 O6 2.408562 1_555
La2 O3 2.525216 1_555
La2 O21 2.573196 1_555
La2 O18 2.769907 1_555
La2 O24 2.783187 1_555
La2 O1 2.806726 1_555
La2 O24 2.948523 1_455
La3 O12 2.303208 1_555
La3 O5 2.408562 1_555
La3 O2 2.525216 1_555
La3 O20 2.573196 1_555
La3 O19 2.769907 1_555
La3 O23 2.783187 1_555
La3 O0 2.806726 1_555
La3 O23 2.948523 1_455
La4 O6 2.303208 1_564
La4 O11 2.408562 1_555
La4 O14 2.525216 1_565
La4 O32 2.573196 1_465
La4 O34 2.769907 1_455
La4 O29 2.783187 1_455
La4 O16 2.806726 1_555
La4 O29 2.948523 1_555
La5 O5 2.303208 1_565
La5 O12 2.408562 1_555
La5 O15 2.525216 1_565
La5 O33 2.573196 1_465
La5 O35 2.769907 1_455
La5 O30 2.783187 1_455
La5 O17 2.806726 1_555
La5 O30 2.948523 1_555
La6 O10 2.348062 1_555
La6 O4 2.392883 1_555
La6 O19 2.539540 1_555
La6 O0 2.594531 1_555
La6 O27 2.663865 1_555
La6 O2 2.775265 1_555
La6 O20 2.800568 1_555
La6 O27 3.037223 1_455
La7 O9 2.348062 1_555
La7 O4 2.392883 1_555
La7 O18 2.539540 1_555
La7 O1 2.594531 1_555
La7 O28 2.663865 1_555
La7 O3 2.775265 1_555
La7 O21 2.800568 1_555
La7 O28 3.037223 1_455
La8 O25 2.348062 1_555
La8 O31 2.392883 1_555
La8 O16 2.539540 1_555
La8 O34 2.594531 1_555
La8 O8 2.663865 1_555
La8 O32 2.775265 1_555
La8 O14 2.800568 1_555
La8 O8 3.037223 1_655
La9 O26 2.348062 1_555
La9 O31 2.392883 1_555
La9 O17 2.539540 1_555
La9 O35 2.594531 1_555
La9 O7 2.663865 1_555
La9 O33 2.775265 1_555
La9 O15 2.800568 1_555
La9 O7 3.037223 1_655
La10 O30 2.303208 1_545
La10 O23 2.408562 1_555
La10 O20 2.525216 1_545
La10 O2 2.573196 1_645
La10 O0 2.769907 1_655
La10 O5 2.783187 1_655
La10 O19 2.806726 1_555
La10 O5 2.948523 1_555
La11 O29 2.303208 1_546
La11 O24 2.408562 1_555
La11 O21 2.525216 1_545
La11 O3 2.573196 1_645
La11 O1 2.769907 1_655
La11 O6 2.783187 1_655
La11 O18 2.806726 1_555
La11 O6 2.948523 1_555
La12 O24 2.303208 1_554
La12 O29 2.408562 1_555
La12 O32 2.525216 1_555
La12 O14 2.573196 1_555
La12 O16 2.769907 1_555
La12 O11 2.783187 1_555
La12 O34 2.806726 1_555
La12 O11 2.948523 1_655
La13 O23 2.303208 1_555
La13 O30 2.408562 1_555
La13 O33 2.525216 1_555
La13 O15 2.573196 1_555
La13 O17 2.769907 1_555
La13 O12 2.783187 1_555
La13 O35 2.806726 1_555
La13 O12 2.948523 1_655
La14 O27 2.348062 1_555
La14 O22 2.392883 1_565
La14 O0 2.539540 1_665
La14 O19 2.594531 1_565
La14 O10 2.663865 1_655
La14 O20 2.775265 1_555
La14 O2 2.800568 1_655
La14 O10 3.037223 1_555
La15 O28 2.348062 1_555
La15 O22 2.392883 1_565
La15 O1 2.539540 1_665
La15 O18 2.594531 1_565
La15 O9 2.663865 1_655
La15 O21 2.775265 1_555
La15 O3 2.800568 1_655
La15 O9 3.037223 1_555
O0 Zn7 2.018524 1_455
O0 Zn1 2.027986 1_555
O1 Zn8 2.018524 1_455
O1 Zn2 2.027986 1_555
O2 Zn7 2.024557 1_455
O2 Zn1 2.031504 1_565
O3 Zn8 2.024557 1_455
O3 Zn2 2.031504 1_565
O4 Zn5 2.038127 1_555
O4 Zn11 2.097491 1_455
O5 Zn1 2.349411 1_555
O6 Zn2 2.349411 1_555
O7 Zn0 1.948768 1_555
O7 Zn4 2.311925 1_555
O8 Zn0 1.948768 1_555
O8 Zn3 2.311925 1_555
O9 Zn5 1.948768 1_565
O9 Zn2 2.311925 1_565
O10 Zn5 1.948768 1_565
O10 Zn1 2.311925 1_565
O11 Zn3 2.349411 1_555
O12 Zn4 2.349411 1_555
O13 Zn0 2.038127 1_555
O13 Zn6 2.097491 1_555
O14 Zn9 2.024557 1_545
O14 Zn3 2.031504 1_555
O15 Zn10 2.024557 1_545
O15 Zn4 2.031504 1_555
O16 Zn9 2.018524 1_555
O16 Zn3 2.027986 1_555
O17 Zn10 2.018524 1_555
O17 Zn4 2.027986 1_555
O18 Zn2 2.018524 1_555
O18 Zn8 2.027986 1_555
O19 Zn1 2.018524 1_555
O19 Zn7 2.027986 1_555
O20 Zn1 2.024557 1_565
O20 Zn7 2.031504 1_555
O21 Zn2 2.024557 1_565
O21 Zn8 2.031504 1_555
O22 Zn11 2.038127 1_555
O22 Zn5 2.097491 1_555
O23 Zn7 2.349411 1_555
O24 Zn8 2.349411 1_555
O25 Zn6 1.948768 1_545
O25 Zn9 2.311925 1_545
O26 Zn6 1.948768 1_545
O26 Zn10 2.311925 1_545
O27 Zn11 1.948768 1_555
O27 Zn7 2.311925 1_555
O28 Zn11 1.948768 1_555
O28 Zn8 2.311925 1_555
O29 Zn9 2.349411 1_555
O30 Zn10 2.349411 1_555
O31 Zn6 2.038127 1_555
O31 Zn0 2.097491 1_655
O32 Zn3 2.024557 1_655
O32 Zn9 2.031504 1_545
O33 Zn4 2.024557 1_655
O33 Zn10 2.031504 1_545
O34 Zn3 2.018524 1_655
O34 Zn9 2.027986 1_555
O35 Zn4 2.018524 1_655
O35 Zn10 2.027986 1_555
