# generated using pymatgen
data_Cr2O5
_symmetry_space_group_name_H-M   'P 1'
_cell_length_a   9.28535300
_cell_length_b   9.04749400
_cell_length_c   4.98766800
_cell_angle_alpha   90.00000000
_cell_angle_beta   90.00000000
_cell_angle_gamma   90.00000000
_symmetry_Int_Tables_number   1
_chemical_formula_structural   Cr2O5
_chemical_formula_sum   'Cr8 O20'
_cell_volume   419.00987662
_cell_formula_units_Z   4
loop_
 _symmetry_equiv_pos_site_id
 _symmetry_equiv_pos_as_xyz
  1  'x, y, z'
loop_
 _atom_site_type_symbol
 _atom_site_label
 _atom_site_symmetry_multiplicity
 _atom_site_fract_x
 _atom_site_fract_y
 _atom_site_fract_z
 _atom_site_occupancy
  Cr  Cr0  1  0.03227500  0.71922600  0.86485500  1
  Cr  Cr1  1  0.15715200  0.41020500  0.13312800  1
  Cr  Cr2  1  0.34284800  0.58979500  0.63312800  1
  Cr  Cr3  1  0.46772500  0.28077400  0.36485500  1
  Cr  Cr4  1  0.53227500  0.78077400  0.13514500  1
  Cr  Cr5  1  0.65715200  0.08979500  0.86687200  1
  Cr  Cr6  1  0.84284800  0.91020500  0.36687200  1
  Cr  Cr7  1  0.96772500  0.21922600  0.63514500  1
  O  O0  1  0.00950900  0.54527000  0.96932000  1
  O  O1  1  0.98954400  0.84131300  0.10170200  1
  O  O2  1  0.06957400  0.24664600  0.90474900  1
  O  O3  1  0.21905900  0.55706500  0.34375100  1
  O  O4  1  0.20722300  0.73592000  0.78949700  1
  O  O5  1  0.29277700  0.26408000  0.28949700  1
  O  O6  1  0.28094100  0.44293500  0.84375100  1
  O  O7  1  0.43042600  0.75335400  0.40474900  1
  O  O8  1  0.51045600  0.15868700  0.60170200  1
  O  O9  1  0.49049100  0.45473000  0.46932000  1
  O  O10  1  0.50950900  0.95473000  0.03068000  1
  O  O11  1  0.48954400  0.65868700  0.89829800  1
  O  O12  1  0.56957400  0.25335400  0.09525100  1
  O  O13  1  0.71905900  0.94293500  0.65624900  1
  O  O14  1  0.70722300  0.76408000  0.21050300  1
  O  O15  1  0.79277700  0.23592000  0.71050300  1
  O  O16  1  0.78094100  0.05706500  0.15624900  1
  O  O17  1  0.93042600  0.74664600  0.59525100  1
  O  O18  1  0.01045600  0.34131300  0.39829800  1
  O  O19  1  0.99049100  0.04527000  0.53068000  1
loop_
_geom_bond_atom_site_label_1
_geom_bond_atom_site_label_2
_geom_bond_distance
_geom_bond_site_symmetry_2
Cr0 O17 1.662560 1_455
Cr0 O1 1.665242 1_456
Cr0 O0 1.671293 1_555
Cr0 O4 1.674197 1_555
Cr1 O3 1.788714 1_555
Cr1 O6 1.868697 1_554
Cr1 O5 1.985454 1_555
Cr1 O18 1.998275 1_555
Cr1 O0 2.010030 1_554
Cr1 O2 2.036808 1_554
Cr2 O6 1.788714 1_555
Cr2 O3 1.868697 1_555
Cr2 O4 1.985454 1_555
Cr2 O11 1.998275 1_555
Cr2 O9 2.010030 1_555
Cr2 O7 2.036808 1_555
Cr3 O12 1.662560 1_555
Cr3 O8 1.665242 1_555
Cr3 O9 1.671293 1_555
Cr3 O5 1.674197 1_555
Cr4 O7 1.662560 1_555
Cr4 O11 1.665242 1_554
Cr4 O10 1.671293 1_555
Cr4 O14 1.674197 1_555
Cr5 O13 1.788714 1_545
Cr5 O16 1.868697 1_556
Cr5 O15 1.985454 1_555
Cr5 O8 1.998275 1_555
Cr5 O10 2.010030 1_546
Cr5 O12 2.036808 1_556
Cr6 O16 1.788714 1_565
Cr6 O13 1.868697 1_555
Cr6 O14 1.985454 1_555
Cr6 O1 1.998275 1_555
Cr6 O19 2.010030 1_565
Cr6 O17 2.036808 1_555
Cr7 O2 1.662560 1_655
Cr7 O18 1.665242 1_655
Cr7 O19 1.671293 1_555
Cr7 O15 1.674197 1_555
