# generated using pymatgen
data_Na2Ti7O15
_symmetry_space_group_name_H-M   'P 1'
_cell_length_a   7.54106800
_cell_length_b   7.88110873
_cell_length_c   21.37322969
_cell_angle_alpha   95.69746014
_cell_angle_beta   90.00254133
_cell_angle_gamma   103.83788941
_symmetry_Int_Tables_number   1
_chemical_formula_structural   Na2Ti7O15
_chemical_formula_sum   'Na8 Ti28 O60'
_cell_volume   1226.92085725
_cell_formula_units_Z   4
loop_
 _symmetry_equiv_pos_site_id
 _symmetry_equiv_pos_as_xyz
  1  'x, y, z'
loop_
 _atom_site_type_symbol
 _atom_site_label
 _atom_site_symmetry_multiplicity
 _atom_site_fract_x
 _atom_site_fract_y
 _atom_site_fract_z
 _atom_site_occupancy
  Na  Na0  1  0.26675100  0.06783600  0.60282300  1
  Na  Na1  1  0.76730800  0.06850300  0.60201700  1
  Na  Na2  1  0.74956700  0.99777100  0.99673700  1
  Na  Na3  1  0.25043300  0.00222900  0.00326300  1
  Na  Na4  1  0.78234700  0.12959400  0.18425500  1
  Na  Na5  1  0.21765300  0.87040600  0.81574500  1
  Na  Na6  1  0.73324900  0.93216400  0.39717700  1
  Na  Na7  1  0.23269200  0.93149700  0.39798300  1
  Ti  Ti0  1  0.54934100  0.19488500  0.75726200  1
  Ti  Ti1  1  0.04828600  0.19639700  0.75725100  1
  Ti  Ti2  1  0.07099900  0.28186000  0.90082100  1
  Ti  Ti3  1  0.56984100  0.28162500  0.90132300  1
  Ti  Ti4  1  0.06205200  0.24658600  0.32774800  1
  Ti  Ti5  1  0.56143900  0.24755000  0.32774000  1
  Ti  Ti6  1  0.58340200  0.33367100  0.47330600  1
  Ti  Ti7  1  0.08358200  0.33379500  0.47342600  1
  Ti  Ti8  1  0.37746600  0.50627500  0.81237200  1
  Ti  Ti9  1  0.87603000  0.50799600  0.81284500  1
  Ti  Ti10  1  0.11108300  0.44519100  0.61685100  1
  Ti  Ti11  1  0.61112700  0.44410900  0.61666500  1
  Ti  Ti12  1  0.90286100  0.60926300  0.95590700  1
  Ti  Ti13  1  0.40145300  0.60921000  0.95516400  1
  Ti  Ti14  1  0.59854700  0.39079000  0.04483600  1
  Ti  Ti15  1  0.09713900  0.39073700  0.04409300  1
  Ti  Ti16  1  0.38887300  0.55589100  0.38333500  1
  Ti  Ti17  1  0.88891700  0.55480900  0.38314900  1
  Ti  Ti18  1  0.62253400  0.49372500  0.18762800  1
  Ti  Ti19  1  0.12397000  0.49200400  0.18715500  1
  Ti  Ti20  1  0.41659800  0.66632900  0.52669400  1
  Ti  Ti21  1  0.91641800  0.66620500  0.52657400  1
  Ti  Ti22  1  0.43856100  0.75245000  0.67226000  1
  Ti  Ti23  1  0.93794800  0.75341400  0.67225200  1
  Ti  Ti24  1  0.43015900  0.71837500  0.09867700  1
  Ti  Ti25  1  0.92900100  0.71814000  0.09917900  1
  Ti  Ti26  1  0.45065900  0.80511500  0.24273800  1
  Ti  Ti27  1  0.95171400  0.80360300  0.24274900  1
  O  O0  1  0.51155700  0.09961400  0.84293900  1
  O  O1  1  0.03823300  0.09933400  0.84285900  1
  O  O2  1  0.04901100  0.19496800  0.98211600  1
  O  O3  1  0.54840500  0.19508100  0.98211900  1
  O  O4  1  0.99820200  0.02442500  0.28555300  1
  O  O5  1  0.51437100  0.02479400  0.28555600  1
  O  O6  1  0.81297100  0.25349700  0.76798700  1
  O  O7  1  0.31443300  0.25633500  0.76714300  1
  O  O8  1  0.53609600  0.14781100  0.41277400  1
  O  O9  1  0.03775100  0.14776300  0.41286800  1
  O  O10  1  0.34000600  0.35936200  0.90264800  1
  O  O11  1  0.83863900  0.35551500  0.90187000  1
  O  O12  1  0.56240900  0.24916300  0.55168500  1
  O  O13  1  0.06241700  0.24979000  0.55176200  1
  O  O14  1  0.07762900  0.31199500  0.68022900  1
  O  O15  1  0.57838000  0.31210100  0.68029100  1
  O  O16  1  0.32546700  0.30197000  0.33695200  1
  O  O17  1  0.82543600  0.30133500  0.33821400  1
  O  O18  1  0.61037100  0.44077300  0.82303700  1
  O  O19  1  0.10913200  0.43764900  0.82276400  1
  O  O20  1  0.35204300  0.40793100  0.47035000  1
  O  O21  1  0.85190100  0.40757100  0.47035300  1
  O  O22  1  0.06224100  0.30375300  0.11987600  1
  O  O23  1  0.58956200  0.30321600  0.12003600  1
  O  O24  1  0.13577900  0.54261900  0.96295400  1
  O  O25  1  0.63627100  0.54557800  0.96123800  1
  O  O26  1  0.59985700  0.36661400  0.25151300  1
  O  O27  1  0.08339400  0.36620300  0.25137300  1
  O  O28  1  0.37774100  0.51032300  0.60870100  1
  O  O29  1  0.87729100  0.51016400  0.60865000  1
  O  O30  1  0.12270900  0.48983600  0.39135000  1
  O  O31  1  0.62225900  0.48967700  0.39129900  1
  O  O32  1  0.91660600  0.63379700  0.74862700  1
  O  O33  1  0.40014300  0.63338600  0.74848700  1
  O  O34  1  0.36372900  0.45442200  0.03876200  1
  O  O35  1  0.86422100  0.45738100  0.03704600  1
  O  O36  1  0.93775900  0.69624700  0.88012400  1
  O  O37  1  0.41043800  0.69678400  0.87996400  1
  O  O38  1  0.64795700  0.59206900  0.52965000  1
  O  O39  1  0.14809900  0.59242900  0.52964700  1
  O  O40  1  0.89086800  0.56235100  0.17723600  1
  O  O41  1  0.38962900  0.55922700  0.17696300  1
  O  O42  1  0.67453300  0.69803000  0.66304800  1
  O  O43  1  0.17456400  0.69866500  0.66178600  1
  O  O44  1  0.42162000  0.68789900  0.31970900  1
  O  O45  1  0.92237100  0.68800500  0.31977100  1
  O  O46  1  0.43759100  0.75083700  0.44831500  1
  O  O47  1  0.93758300  0.75021000  0.44823800  1
  O  O48  1  0.16136100  0.64448500  0.09813000  1
  O  O49  1  0.65999400  0.64063800  0.09735200  1
  O  O50  1  0.96224900  0.85223700  0.58713200  1
  O  O51  1  0.46390400  0.85218900  0.58722600  1
  O  O52  1  0.18702900  0.74650300  0.23201300  1
  O  O53  1  0.68556700  0.74366500  0.23285700  1
  O  O54  1  0.48562900  0.97520600  0.71444400  1
  O  O55  1  0.00179800  0.97557500  0.71444700  1
  O  O56  1  0.45159500  0.80491900  0.01788100  1
  O  O57  1  0.95098900  0.80503200  0.01788400  1
  O  O58  1  0.96176700  0.90066600  0.15714100  1
  O  O59  1  0.48844300  0.90038600  0.15706100  1
loop_
_geom_bond_atom_site_label_1
_geom_bond_atom_site_label_2
_geom_bond_distance
_geom_bond_site_symmetry_2
Na0 O50 2.508558 1_445
Na0 O51 2.511216 1_545
Na0 O13 2.643729 1_555
Na0 O12 2.644628 1_555
Na1 O50 2.501653 1_545
Na1 O51 2.503649 1_545
Na1 O12 2.632169 1_555
Na1 O13 2.632784 1_655
Na2 O2 2.455580 1_665
Na2 O3 2.457996 1_565
Na2 O57 2.461452 1_556
Na2 O56 2.462967 1_556
Na3 O57 2.455580 1_445
Na3 O56 2.457996 1_545
Na3 O2 2.461452 1_554
Na3 O3 2.462967 1_554
Na4 O58 2.526231 1_545
Na4 O59 2.527732 1_545
Na4 O23 2.682188 1_555
Na4 O22 2.687333 1_655
Na4 O27 2.851764 1_655
Na4 O26 2.854181 1_555
Na4 O5 3.001790 1_555
Na4 O4 3.004252 1_555
Na5 O1 2.526231 1_565
Na5 O0 2.527732 1_565
Na5 O37 2.682188 1_555
Na5 O36 2.687333 1_455
Na5 O32 2.851764 1_455
Na5 O33 2.854181 1_555
Na5 O54 3.001790 1_555
Na5 O55 3.004252 1_555
Na6 O9 2.508558 1_665
Na6 O8 2.511216 1_565
Na6 O47 2.643729 1_555
Na6 O46 2.644628 1_555
Na7 O9 2.501653 1_565
Na7 O8 2.503649 1_565
Na7 O46 2.632169 1_555
Na7 O47 2.632784 1_455
O0 Ti3 1.775084 1_555
O0 Ti0 2.041794 1_555
O1 Ti2 1.772338 1_555
O1 Ti1 2.046697 1_555
O2 Ti15 1.895571 1_556
O2 Ti2 1.922874 1_555
O3 Ti14 1.905070 1_556
O3 Ti3 1.911693 1_555
O4 Ti27 1.838639 1_545
O4 Ti4 1.842254 1_655
O5 Ti26 1.831194 1_545
O5 Ti5 1.846216 1_555
O6 Ti0 1.938536 1_555
O6 Ti1 1.940524 1_655
O6 Ti9 2.080917 1_555
O7 Ti0 1.951233 1_555
O7 Ti1 1.955157 1_555
O7 Ti8 2.052938 1_555
O8 Ti6 1.822198 1_555
O8 Ti5 2.041900 1_555
O9 Ti7 1.823476 1_555
O9 Ti4 2.040360 1_555
O10 Ti3 1.970947 1_555
O10 Ti2 1.972908 1_555
O10 Ti13 2.115778 1_555
O10 Ti8 2.330339 1_555
O11 Ti3 1.970298 1_555
O11 Ti2 1.972762 1_655
O11 Ti12 2.155407 1_555
O11 Ti9 2.331536 1_555
O12 Ti6 1.856365 1_555
O12 Ti11 1.931478 1_555
O13 Ti7 1.853810 1_555
O13 Ti10 1.935403 1_555
O14 Ti10 1.776566 1_555
O14 Ti1 1.946880 1_555
O15 Ti11 1.775022 1_555
O15 Ti0 1.952632 1_555
O16 Ti5 1.933289 1_555
O16 Ti4 1.934758 1_555
O16 Ti16 2.089131 1_555
O17 Ti4 1.941452 1_655
O17 Ti5 1.941804 1_555
O17 Ti17 2.074549 1_555
O18 Ti9 1.963875 1_555
O18 Ti8 1.964756 1_555
O18 Ti3 2.167863 1_555
O18 Ti0 2.230672 1_555
O19 Ti9 1.982877 1_455
O19 Ti8 1.984157 1_555
O19 Ti2 2.147404 1_555
O19 Ti1 2.200058 1_555
O20 Ti7 1.971306 1_555
O20 Ti6 1.971354 1_555
O20 Ti20 2.207529 1_555
O20 Ti16 2.274081 1_555
O21 Ti6 1.971317 1_555
O21 Ti7 1.971882 1_655
O21 Ti21 2.207855 1_555
O21 Ti17 2.274387 1_555
O22 Ti15 1.815745 1_555
O22 Ti19 1.931730 1_555
O23 Ti14 1.806140 1_555
O23 Ti18 1.947783 1_555
O24 Ti13 1.957407 1_555
O24 Ti12 1.959758 1_455
O24 Ti15 2.184155 1_556
O24 Ti2 2.281084 1_555
O25 Ti12 1.958367 1_555
O25 Ti13 1.960025 1_555
O25 Ti14 2.242412 1_556
O25 Ti3 2.278326 1_555
O26 Ti18 1.756945 1_555
O26 Ti5 1.947392 1_555
O27 Ti19 1.756587 1_555
O27 Ti4 1.952504 1_555
O28 Ti11 1.963609 1_555
O28 Ti10 1.965075 1_555
O28 Ti22 2.182592 1_555
O28 Ti20 2.219295 1_555
O29 Ti11 1.961366 1_555
O29 Ti10 1.962367 1_655
O29 Ti23 2.189836 1_555
O29 Ti21 2.220707 1_555
O30 Ti16 1.961366 1_555
O30 Ti17 1.962367 1_455
O30 Ti4 2.189836 1_555
O30 Ti7 2.220707 1_555
O31 Ti16 1.963609 1_555
O31 Ti17 1.965075 1_555
O31 Ti5 2.182592 1_555
O31 Ti6 2.219295 1_555
O32 Ti9 1.756587 1_555
O32 Ti23 1.952504 1_555
O33 Ti8 1.756945 1_555
O33 Ti22 1.947392 1_555
O34 Ti15 1.958367 1_555
O34 Ti14 1.960025 1_555
O34 Ti13 2.242412 1_554
O34 Ti24 2.278326 1_555
O35 Ti14 1.957407 1_555
O35 Ti15 1.959758 1_655
O35 Ti12 2.184155 1_554
O35 Ti25 2.281084 1_555
O36 Ti12 1.815745 1_555
O36 Ti9 1.931730 1_555
O37 Ti13 1.806140 1_555
O37 Ti8 1.947783 1_555
O38 Ti21 1.971306 1_555
O38 Ti20 1.971354 1_555
O38 Ti6 2.207529 1_555
O38 Ti11 2.274081 1_555
O39 Ti20 1.971317 1_555
O39 Ti21 1.971882 1_455
O39 Ti7 2.207855 1_555
O39 Ti10 2.274387 1_555
O40 Ti19 1.982877 1_655
O40 Ti18 1.984157 1_555
O40 Ti25 2.147404 1_555
O40 Ti27 2.200058 1_555
O41 Ti19 1.963875 1_555
O41 Ti18 1.964756 1_555
O41 Ti24 2.167863 1_555
O41 Ti26 2.230672 1_555
O42 Ti22 1.933289 1_555
O42 Ti23 1.934758 1_555
O42 Ti11 2.089131 1_555
O43 Ti23 1.941452 1_455
O43 Ti22 1.941804 1_555
O43 Ti10 2.074549 1_555
O44 Ti16 1.775022 1_555
O44 Ti26 1.952632 1_555
O45 Ti17 1.776566 1_555
O45 Ti27 1.946880 1_555
O46 Ti20 1.856365 1_555
O46 Ti16 1.931478 1_555
O47 Ti21 1.853810 1_555
O47 Ti17 1.935403 1_555
O48 Ti24 1.970298 1_555
O48 Ti25 1.972762 1_455
O48 Ti15 2.155407 1_555
O48 Ti19 2.331536 1_555
O49 Ti24 1.970947 1_555
O49 Ti25 1.972908 1_555
O49 Ti14 2.115778 1_555
O49 Ti18 2.330339 1_555
O50 Ti21 1.823476 1_555
O50 Ti23 2.040360 1_555
O51 Ti20 1.822198 1_555
O51 Ti22 2.041900 1_555
O52 Ti26 1.938536 1_555
O52 Ti27 1.940524 1_455
O52 Ti19 2.080917 1_555
O53 Ti26 1.951233 1_555
O53 Ti27 1.955157 1_555
O53 Ti18 2.052938 1_555
O54 Ti0 1.831194 1_565
O54 Ti22 1.846216 1_555
O55 Ti1 1.838639 1_565
O55 Ti23 1.842254 1_455
O56 Ti13 1.905070 1_554
O56 Ti24 1.911693 1_555
O57 Ti12 1.895571 1_554
O57 Ti25 1.922874 1_555
O58 Ti25 1.772338 1_555
O58 Ti27 2.046697 1_555
O59 Ti24 1.775084 1_555
O59 Ti26 2.041794 1_555
