# generated using pymatgen
data_Li4Ti4Mn5O18
_symmetry_space_group_name_H-M   'P 1'
_cell_length_a   2.91091300
_cell_length_b   9.12685100
_cell_length_c   26.23829800
_cell_angle_alpha   90.00000000
_cell_angle_beta   90.00000000
_cell_angle_gamma   90.00000000
_symmetry_Int_Tables_number   1
_chemical_formula_structural   Li4Ti4Mn5O18
_chemical_formula_sum   'Li8 Ti8 Mn10 O36'
_cell_volume   697.08517463
_cell_formula_units_Z   2
loop_
 _symmetry_equiv_pos_site_id
 _symmetry_equiv_pos_as_xyz
  1  'x, y, z'
loop_
 _atom_site_type_symbol
 _atom_site_label
 _atom_site_symmetry_multiplicity
 _atom_site_fract_x
 _atom_site_fract_y
 _atom_site_fract_z
 _atom_site_occupancy
  Li  Li0  1  0.00000000  0.19644700  0.48501200  1
  Li  Li1  1  0.00000000  0.20372600  0.68371200  1
  Li  Li2  1  0.00000000  0.29627400  0.18371200  1
  Li  Li3  1  0.00000000  0.30355300  0.98501200  1
  Li  Li4  1  0.00000000  0.69644700  0.01498800  1
  Li  Li5  1  0.00000000  0.70372600  0.81628800  1
  Li  Li6  1  0.00000000  0.79627400  0.31628800  1
  Li  Li7  1  0.00000000  0.80355300  0.51498800  1
  Ti  Ti0  1  0.00000000  0.99510600  0.60147400  1
  Ti  Ti1  1  0.50000000  0.14780700  0.30784300  1
  Ti  Ti2  1  0.50000000  0.35219300  0.80784300  1
  Ti  Ti3  1  0.00000000  0.50489400  0.10147400  1
  Ti  Ti4  1  0.00000000  0.49510600  0.89852600  1
  Ti  Ti5  1  0.50000000  0.64780700  0.19215700  1
  Ti  Ti6  1  0.50000000  0.85219300  0.69215700  1
  Ti  Ti7  1  0.00000000  0.00489400  0.39852600  1
  Mn  Mn0  1  0.00000000  0.00000000  0.00000000  1
  Mn  Mn1  1  0.00000000  0.01071800  0.80926500  1
  Mn  Mn2  1  0.50000000  0.15289200  0.08545300  1
  Mn  Mn3  1  0.50000000  0.34710800  0.58545300  1
  Mn  Mn4  1  0.00000000  0.48928200  0.30926500  1
  Mn  Mn5  1  0.00000000  0.50000000  0.50000000  1
  Mn  Mn6  1  0.00000000  0.51071800  0.69073500  1
  Mn  Mn7  1  0.50000000  0.65289200  0.41454700  1
  Mn  Mn8  1  0.50000000  0.84710800  0.91454700  1
  Mn  Mn9  1  0.00000000  0.98928200  0.19073500  1
  O  O0  1  0.00000000  0.98641500  0.92591300  1
  O  O1  1  0.00000000  0.01358500  0.07408700  1
  O  O2  1  0.50000000  0.05990200  0.44202400  1
  O  O3  1  0.50000000  0.04916500  0.65522200  1
  O  O4  1  0.50000000  0.11820100  0.16694700  1
  O  O5  1  0.00000000  0.09930200  0.26347100  1
  O  O6  1  0.50000000  0.14278100  0.99954500  1
  O  O7  1  0.50000000  0.14279800  0.79114900  1
  O  O8  1  0.00000000  0.18346700  0.35858900  1
  O  O9  1  0.00000000  0.20353700  0.58384700  1
  O  O10  1  0.00000000  0.29646300  0.08384700  1
  O  O11  1  0.00000000  0.31653300  0.85858900  1
  O  O12  1  0.50000000  0.35720200  0.29114900  1
  O  O13  1  0.50000000  0.35721900  0.49954500  1
  O  O14  1  0.00000000  0.40069800  0.76347100  1
  O  O15  1  0.50000000  0.38179900  0.66694700  1
  O  O16  1  0.50000000  0.45083500  0.15522200  1
  O  O17  1  0.50000000  0.44009800  0.94202400  1
  O  O18  1  0.00000000  0.48641500  0.57408700  1
  O  O19  1  0.00000000  0.51358500  0.42591300  1
  O  O20  1  0.50000000  0.55990200  0.05797600  1
  O  O21  1  0.50000000  0.54916500  0.84477800  1
  O  O22  1  0.50000000  0.61820100  0.33305300  1
  O  O23  1  0.00000000  0.59930200  0.23652900  1
  O  O24  1  0.50000000  0.64278100  0.50045500  1
  O  O25  1  0.50000000  0.64279800  0.70885100  1
  O  O26  1  0.00000000  0.68346700  0.14141100  1
  O  O27  1  0.00000000  0.70353700  0.91615300  1
  O  O28  1  0.00000000  0.79646300  0.41615300  1
  O  O29  1  0.00000000  0.81653300  0.64141100  1
  O  O30  1  0.50000000  0.85720200  0.20885100  1
  O  O31  1  0.50000000  0.85721900  0.00045500  1
  O  O32  1  0.00000000  0.90069800  0.73652900  1
  O  O33  1  0.50000000  0.88179900  0.83305300  1
  O  O34  1  0.50000000  0.95083500  0.34477800  1
  O  O35  1  0.50000000  0.94009800  0.55797600  1
loop_
_geom_bond_atom_site_label_1
_geom_bond_atom_site_label_2
_geom_bond_distance
_geom_bond_site_symmetry_2
Li0 O13 2.101631 1_455
Li0 O13 2.101631 1_555
Li0 O2 2.223435 1_455
Li0 O2 2.223435 1_555
Li0 O9 2.594069 1_555
Li1 O3 2.160348 1_555
Li1 O3 2.160348 1_455
Li1 O15 2.225596 1_455
Li1 O15 2.225596 1_555
Li2 O16 2.160348 1_455
Li2 O16 2.160348 1_555
Li2 O4 2.225596 1_455
Li2 O4 2.225596 1_555
Li3 O6 2.101631 1_555
Li3 O6 2.101631 1_455
Li3 O17 2.223435 1_555
Li3 O17 2.223435 1_455
Li3 O10 2.594069 1_556
Li4 O31 2.101631 1_455
Li4 O31 2.101631 1_555
Li4 O20 2.223435 1_455
Li4 O20 2.223435 1_555
Li4 O27 2.594069 1_554
Li5 O21 2.160348 1_555
Li5 O21 2.160348 1_455
Li5 O33 2.225596 1_455
Li5 O33 2.225596 1_555
Li6 O34 2.160348 1_455
Li6 O34 2.160348 1_555
Li6 O22 2.225596 1_455
Li6 O22 2.225596 1_555
Li7 O24 2.101631 1_555
Li7 O24 2.101631 1_455
Li7 O35 2.223435 1_555
Li7 O35 2.223435 1_455
Li7 O28 2.594069 1_555
Mn0 O1 1.947867 1_555
Mn0 O0 1.947867 1_544
Mn0 O6 1.953631 1_454
Mn0 O6 1.953631 1_554
Mn0 O31 1.953631 1_545
Mn0 O31 1.953631 1_445
Mn1 O7 1.948708 1_455
Mn1 O7 1.948708 1_555
Mn1 O33 1.972909 1_545
Mn1 O33 1.972909 1_445
Mn1 O32 2.156512 1_545
Mn2 O1 1.955463 1_655
Mn2 O1 1.955463 1_555
Mn2 O10 1.958864 1_655
Mn2 O10 1.958864 1_555
Mn2 O4 2.161578 1_555
Mn2 O6 2.255968 1_554
Mn3 O18 1.955463 1_655
Mn3 O18 1.955463 1_555
Mn3 O9 1.958864 1_555
Mn3 O9 1.958864 1_655
Mn3 O15 2.161578 1_555
Mn3 O13 2.255968 1_555
Mn4 O12 1.948708 1_455
Mn4 O12 1.948708 1_555
Mn4 O22 1.972909 1_455
Mn4 O22 1.972909 1_555
Mn4 O23 2.156512 1_555
Mn5 O19 1.947867 1_555
Mn5 O18 1.947867 1_555
Mn5 O24 1.953631 1_555
Mn5 O24 1.953631 1_455
Mn5 O13 1.953631 1_455
Mn5 O13 1.953631 1_555
Mn6 O25 1.948708 1_455
Mn6 O25 1.948708 1_555
Mn6 O15 1.972909 1_555
Mn6 O15 1.972909 1_455
Mn6 O14 2.156512 1_555
Mn7 O19 1.955463 1_555
Mn7 O19 1.955463 1_655
Mn7 O28 1.958864 1_655
Mn7 O28 1.958864 1_555
Mn7 O22 2.161578 1_555
Mn7 O24 2.255968 1_555
Mn8 O0 1.955463 1_655
Mn8 O0 1.955463 1_555
Mn8 O27 1.958864 1_555
Mn8 O27 1.958864 1_655
Mn8 O33 2.161578 1_555
Mn8 O31 2.255968 1_556
Mn9 O30 1.948708 1_455
Mn9 O30 1.948708 1_555
Mn9 O4 1.972909 1_465
Mn9 O4 1.972909 1_565
Mn9 O5 2.156512 1_565
O2 Ti7 1.916508 1_655
O2 Ti7 1.916508 1_555
O3 Ti6 2.042309 1_545
O3 Ti0 2.085811 1_545
O3 Ti0 2.085811 1_645
O5 Ti1 1.915673 1_555
O5 Ti1 1.915673 1_455
O7 Ti2 1.960671 1_555
O8 Ti7 1.937609 1_555
O8 Ti1 1.999285 1_555
O8 Ti1 1.999285 1_455
O9 Ti0 1.957735 1_545
O10 Ti3 1.957735 1_555
O11 Ti4 1.937609 1_555
O11 Ti2 1.999285 1_555
O11 Ti2 1.999285 1_455
O12 Ti1 1.960671 1_555
O14 Ti2 1.915673 1_455
O14 Ti2 1.915673 1_555
O16 Ti5 2.042309 1_555
O16 Ti3 2.085811 1_555
O16 Ti3 2.085811 1_655
O17 Ti4 1.916508 1_555
O17 Ti4 1.916508 1_655
O20 Ti3 1.916508 1_655
O20 Ti3 1.916508 1_555
O21 Ti2 2.042309 1_555
O21 Ti4 2.085811 1_555
O21 Ti4 2.085811 1_655
O23 Ti5 1.915673 1_455
O23 Ti5 1.915673 1_555
O25 Ti6 1.960671 1_555
O26 Ti3 1.937609 1_555
O26 Ti5 1.999285 1_555
O26 Ti5 1.999285 1_455
O27 Ti4 1.957735 1_555
O28 Ti7 1.957735 1_565
O29 Ti0 1.937609 1_555
O29 Ti6 1.999285 1_555
O29 Ti6 1.999285 1_455
O30 Ti5 1.960671 1_555
O32 Ti6 1.915673 1_555
O32 Ti6 1.915673 1_455
O34 Ti1 2.042309 1_565
O34 Ti7 2.085811 1_665
O34 Ti7 2.085811 1_565
O35 Ti0 1.916508 1_555
O35 Ti0 1.916508 1_655
