# generated using pymatgen
data_CaB3H7O9
_symmetry_space_group_name_H-M   'P 1'
_cell_length_a   6.52211900
_cell_length_b   6.67307652
_cell_length_c   8.43280527
_cell_angle_alpha   86.77136285
_cell_angle_beta   89.31108647
_cell_angle_gamma   78.21790026
_symmetry_Int_Tables_number   1
_chemical_formula_structural   CaB3H7O9
_chemical_formula_sum   'Ca2 B6 H14 O18'
_cell_volume   358.71466329
_cell_formula_units_Z   2
loop_
 _symmetry_equiv_pos_site_id
 _symmetry_equiv_pos_as_xyz
  1  'x, y, z'
loop_
 _atom_site_type_symbol
 _atom_site_label
 _atom_site_symmetry_multiplicity
 _atom_site_fract_x
 _atom_site_fract_y
 _atom_site_fract_z
 _atom_site_occupancy
  Ca  Ca0  1  0.75537100  0.01137100  0.37634300  1
  Ca  Ca1  1  0.24462900  0.98862900  0.62365700  1
  B  B0  1  0.51483200  0.31622600  0.79885500  1
  B  B1  1  0.48516800  0.68377400  0.20114500  1
  B  B2  1  0.83415000  0.28783500  0.63204400  1
  B  B3  1  0.16585000  0.71216500  0.36795600  1
  B  B4  1  0.30068600  0.03981900  0.26464500  1
  B  B5  1  0.69931400  0.96018100  0.73535500  1
  H  H0  1  0.34910900  0.56919000  0.89958100  1
  H  H1  1  0.65089100  0.43081000  0.10041900  1
  H  H2  1  0.85082400  0.45719300  0.42080000  1
  H  H3  1  0.14917600  0.54280700  0.57920000  1
  H  H4  1  0.35620900  0.31763900  0.34936100  1
  H  H5  1  0.64379100  0.68236100  0.65063900  1
  H  H6  1  0.26960000  0.25285500  0.06471700  1
  H  H7  1  0.73040000  0.74714500  0.93528300  1
  H  H8  1  0.05277500  0.37324300  0.77940700  1
  H  H9  1  0.94722500  0.62675700  0.22059300  1
  H  H10  1  0.77290400  0.05037400  0.02956300  1
  H  H11  1  0.22709600  0.94962600  0.97043700  1
  H  H12  1  0.93853300  0.16574400  0.10383800  1
  H  H13  1  0.06146700  0.83425600  0.89616200  1
  O  O0  1  0.67218500  0.40388000  0.73568100  1
  O  O1  1  0.32781500  0.59612000  0.26431900  1
  O  O2  1  0.35425600  0.42123100  0.89027600  1
  O  O3  1  0.64574400  0.57876900  0.10972400  1
  O  O4  1  0.50787500  0.11395300  0.77772200  1
  O  O5  1  0.49212500  0.88604700  0.22227800  1
  O  O6  1  0.79542300  0.33761600  0.46250200  1
  O  O7  1  0.20457700  0.66238400  0.53749800  1
  O  O8  1  0.85129800  0.06199200  0.65237600  1
  O  O9  1  0.14870200  0.93800800  0.34762400  1
  O  O10  1  0.38077700  0.16984600  0.37898400  1
  O  O11  1  0.61922300  0.83015400  0.62101600  1
  O  O12  1  0.78781400  0.15285800  0.10720700  1
  O  O13  1  0.21218600  0.84714200  0.89279300  1
  O  O14  1  0.19892200  0.15237300  0.12091800  1
  O  O15  1  0.80107800  0.84762700  0.87908200  1
  O  O16  1  0.04297800  0.33347600  0.67066500  1
  O  O17  1  0.95702200  0.66652400  0.32933500  1
loop_
_geom_bond_atom_site_label_1
_geom_bond_atom_site_label_2
_geom_bond_distance
_geom_bond_site_symmetry_2
Ca0 O6 2.398060 1_555
Ca0 O12 2.432246 1_555
Ca0 O10 2.456426 1_555
Ca0 O17 2.456949 1_545
Ca0 O5 2.469319 1_545
Ca0 O8 2.476647 1_555
Ca0 O9 2.522872 1_645
Ca0 O11 2.573205 1_545
Ca1 O7 2.398060 1_555
Ca1 O13 2.432246 1_555
Ca1 O11 2.456426 1_555
Ca1 O16 2.456949 1_565
Ca1 O4 2.469319 1_565
Ca1 O9 2.476647 1_555
Ca1 O8 2.522872 1_465
Ca1 O10 2.573205 1_565
B0 O0 1.369700 1_555
B0 O4 1.381316 1_555
B0 O2 1.387049 1_555
B1 O1 1.369700 1_555
B1 O5 1.381316 1_555
B1 O3 1.387049 1_555
B2 O6 1.462585 1_555
B2 O0 1.483005 1_555
B2 O8 1.488516 1_555
B2 O16 1.498373 1_655
B3 O7 1.462585 1_555
B3 O1 1.483005 1_555
B3 O9 1.488516 1_555
B3 O17 1.498373 1_455
B4 O9 1.462397 1_545
B4 O14 1.478805 1_555
B4 O10 1.498951 1_555
B4 O5 1.498969 1_545
B5 O8 1.462397 1_565
B5 O15 1.478805 1_555
B5 O11 1.498951 1_555
B5 O4 1.498969 1_565
H0 O2 0.988562 1_555
H1 O3 0.988562 1_555
H2 O6 0.986929 1_555
H3 O7 0.986929 1_555
H4 O10 0.984587 1_555
H5 O11 0.984587 1_555
H6 O14 0.985843 1_555
H7 O15 0.985843 1_555
H8 O16 0.975262 1_555
H9 O17 0.975262 1_555
H10 O12 0.992466 1_555
H11 O13 0.992466 1_555
H12 O12 1.004031 1_555
H13 O13 1.004031 1_555
