# generated using pymatgen
data_Li2Mn(PO3)5
_symmetry_space_group_name_H-M   'P 1'
_cell_length_a   13.51719900
_cell_length_b   5.21204100
_cell_length_c   8.67130387
_cell_angle_alpha   78.40178585
_cell_angle_beta   90.00000000
_cell_angle_gamma   90.00000000
_symmetry_Int_Tables_number   1
_chemical_formula_structural   Li2Mn(PO3)5
_chemical_formula_sum   'Li4 Mn2 P10 O30'
_cell_volume   598.43849027
_cell_formula_units_Z   2
loop_
 _symmetry_equiv_pos_site_id
 _symmetry_equiv_pos_as_xyz
  1  'x, y, z'
loop_
 _atom_site_type_symbol
 _atom_site_label
 _atom_site_symmetry_multiplicity
 _atom_site_fract_x
 _atom_site_fract_y
 _atom_site_fract_z
 _atom_site_occupancy
  Li  Li0  1  0.61549400  0.93801800  0.10640200  1
  Li  Li1  1  0.88450600  0.93801800  0.10640200  1
  Li  Li2  1  0.11549400  0.06198200  0.89359800  1
  Li  Li3  1  0.38450600  0.06198200  0.89359800  1
  Mn  Mn0  1  0.50000000  0.50000000  0.50000000  1
  Mn  Mn1  1  0.00000000  0.50000000  0.50000000  1
  P  P0  1  0.42301200  0.33774900  0.18681900  1
  P  P1  1  0.13966400  0.98284300  0.48914800  1
  P  P2  1  0.25000000  0.54177000  0.98906300  1
  P  P3  1  0.57698800  0.66225100  0.81318100  1
  P  P4  1  0.07698800  0.33774900  0.18681900  1
  P  P5  1  0.75000000  0.45823000  0.01093700  1
  P  P6  1  0.92301200  0.66225100  0.81318100  1
  P  P7  1  0.86033600  0.01715700  0.51085200  1
  P  P8  1  0.36033600  0.98284300  0.48914800  1
  P  P9  1  0.63966400  0.01715700  0.51085200  1
  O  O0  1  0.53169000  0.80413400  0.92839000  1
  O  O1  1  0.14367100  0.13550800  0.31013900  1
  O  O2  1  0.87598200  0.30567100  0.50932000  1
  O  O3  1  0.75000000  0.98431100  0.45544900  1
  O  O4  1  0.35632900  0.13550800  0.31013900  1
  O  O5  1  0.85632900  0.86449200  0.68986100  1
  O  O6  1  0.99190600  0.51729300  0.72163600  1
  O  O7  1  0.75000000  0.71181400  0.06649700  1
  O  O8  1  0.25000000  0.01568900  0.54455100  1
  O  O9  1  0.64367100  0.86449200  0.68986100  1
  O  O10  1  0.42429500  0.11998600  0.58858700  1
  O  O11  1  0.25000000  0.80382400  0.88048600  1
  O  O12  1  0.57570500  0.88001400  0.41141300  1
  O  O13  1  0.25000000  0.28818600  0.93350300  1
  O  O14  1  0.62401800  0.30567100  0.50932000  1
  O  O15  1  0.12401800  0.69432900  0.49068000  1
  O  O16  1  0.49190600  0.48270700  0.27836400  1
  O  O17  1  0.50809400  0.51729300  0.72163600  1
  O  O18  1  0.65737500  0.45025600  0.89009700  1
  O  O19  1  0.46831000  0.19586600  0.07161000  1
  O  O20  1  0.92429500  0.88001400  0.41141300  1
  O  O21  1  0.00809400  0.48270700  0.27836400  1
  O  O22  1  0.07570500  0.11998600  0.58858700  1
  O  O23  1  0.34262500  0.54974400  0.10990300  1
  O  O24  1  0.15737500  0.54974400  0.10990300  1
  O  O25  1  0.96831000  0.80413400  0.92839000  1
  O  O26  1  0.37598200  0.69432900  0.49068000  1
  O  O27  1  0.03169000  0.19586600  0.07161000  1
  O  O28  1  0.84262500  0.45025600  0.89009700  1
  O  O29  1  0.75000000  0.19617600  0.11951400  1
loop_
_geom_bond_atom_site_label_1
_geom_bond_atom_site_label_2
_geom_bond_distance
_geom_bond_site_symmetry_2
Li0 O0 2.141486 1_554
Li0 O7 2.231463 1_555
Li0 O29 2.278276 1_565
Li0 O19 2.385847 1_565
Li0 O12 2.656003 1_555
Li1 O25 2.141486 1_554
Li1 O7 2.231463 1_555
Li1 O29 2.278276 1_565
Li1 O27 2.385847 1_665
Li1 O20 2.656003 1_555
Li2 O27 2.141486 1_556
Li2 O13 2.231463 1_555
Li2 O11 2.278276 1_545
Li2 O25 2.385847 1_445
Li2 O22 2.656003 1_555
Li3 O19 2.141486 1_556
Li3 O13 2.231463 1_555
Li3 O11 2.278276 1_545
Li3 O0 2.385847 1_545
Li3 O10 2.656003 1_555
Mn0 O16 1.945081 1_555
Mn0 O17 1.945081 1_555
Mn0 O14 1.951851 1_555
Mn0 O26 1.951851 1_555
Mn0 O12 2.224512 1_555
Mn0 O10 2.224512 1_555
Mn1 O21 1.945081 1_555
Mn1 O6 1.945081 1_455
Mn1 O2 1.951851 1_455
Mn1 O15 1.951851 1_555
Mn1 O22 2.224512 1_555
Mn1 O20 2.224512 1_455
O0 P3 1.488911 1_555
O1 P1 1.596524 1_545
O1 P4 1.616734 1_555
O2 P7 1.515957 1_555
O3 P9 1.586680 1_565
O3 P7 1.586680 1_565
O4 P8 1.596524 1_545
O4 P0 1.616734 1_555
O5 P7 1.596524 1_565
O5 P6 1.616734 1_555
O6 P6 1.519655 1_555
O7 P5 1.494996 1_555
O8 P1 1.586680 1_545
O8 P8 1.586680 1_545
O9 P9 1.596524 1_565
O9 P3 1.616734 1_555
O10 P8 1.499901 1_545
O11 P2 1.494948 1_555
O12 P9 1.499901 1_565
O13 P2 1.494996 1_555
O14 P9 1.515957 1_555
O15 P1 1.515957 1_555
O16 P0 1.519655 1_555
O17 P3 1.519655 1_555
O18 P3 1.596902 1_555
O18 P5 1.638532 1_556
O19 P0 1.488911 1_555
O20 P7 1.499901 1_565
O21 P4 1.519655 1_555
O22 P1 1.499901 1_545
O23 P0 1.596902 1_555
O23 P2 1.638532 1_554
O24 P4 1.596902 1_555
O24 P2 1.638532 1_554
O25 P6 1.488911 1_555
O26 P8 1.515957 1_555
O27 P4 1.488911 1_555
O28 P6 1.596902 1_555
O28 P5 1.638532 1_556
O29 P5 1.494948 1_555
