# generated using pymatgen
data_Ho2(SO4)3
_symmetry_space_group_name_H-M   'P 1'
_cell_length_a   9.43433646
_cell_length_b   9.43433646
_cell_length_c   9.43433628
_cell_angle_alpha   58.05733164
_cell_angle_beta   58.05733164
_cell_angle_gamma   58.05732827
_symmetry_Int_Tables_number   1
_chemical_formula_structural   Ho2(SO4)3
_chemical_formula_sum   'Ho4 S6 O24'
_cell_volume   567.31932370
_cell_formula_units_Z   2
loop_
 _symmetry_equiv_pos_site_id
 _symmetry_equiv_pos_as_xyz
  1  'x, y, z'
loop_
 _atom_site_type_symbol
 _atom_site_label
 _atom_site_symmetry_multiplicity
 _atom_site_fract_x
 _atom_site_fract_y
 _atom_site_fract_z
 _atom_site_occupancy
  Ho  Ho0  1  0.14267788  0.14267788  0.14267788  1
  Ho  Ho1  1  0.85732212  0.85732212  0.85732212  1
  Ho  Ho2  1  0.64267788  0.64267788  0.64267788  1
  Ho  Ho3  1  0.35732212  0.35732212  0.35732212  1
  S  S0  1  0.25000000  0.53448890  0.96551110  1
  S  S1  1  0.46551110  0.03448890  0.75000000  1
  S  S2  1  0.03448890  0.75000000  0.46551110  1
  S  S3  1  0.96551110  0.25000000  0.53448890  1
  S  S4  1  0.53448890  0.96551110  0.25000000  1
  S  S5  1  0.75000000  0.46551110  0.03448890  1
  O  O0  1  0.40705589  0.56060047  0.80651212  1
  O  O1  1  0.27433949  0.50653228  0.12071689  1
  O  O2  1  0.49346772  0.87928311  0.72566051  1
  O  O3  1  0.19348788  0.59294411  0.43939953  1
  O  O4  1  0.09294411  0.69348788  0.93939953  1
  O  O5  1  0.37928311  0.99346772  0.22566051  1
  O  O6  1  0.00653228  0.77433949  0.62071689  1
  O  O7  1  0.30651212  0.06060047  0.90705589  1
  O  O8  1  0.43939953  0.19348788  0.59294411  1
  O  O9  1  0.06060047  0.90705589  0.30651212  1
  O  O10  1  0.87928311  0.72566051  0.49346772  1
  O  O11  1  0.77433949  0.62071689  0.00653228  1
  O  O12  1  0.22566051  0.37928311  0.99346772  1
  O  O13  1  0.12071689  0.27433949  0.50653228  1
  O  O14  1  0.93939953  0.09294411  0.69348788  1
  O  O15  1  0.56060047  0.80651212  0.40705589  1
  O  O16  1  0.69348788  0.93939953  0.09294411  1
  O  O17  1  0.99346772  0.22566051  0.37928311  1
  O  O18  1  0.62071689  0.00653228  0.77433949  1
  O  O19  1  0.90705589  0.30651212  0.06060047  1
  O  O20  1  0.80651212  0.40705589  0.56060047  1
  O  O21  1  0.50653228  0.12071689  0.27433949  1
  O  O22  1  0.72566051  0.49346772  0.87928311  1
  O  O23  1  0.59294411  0.43939953  0.19348788  1
loop_
_geom_bond_atom_site_label_1
_geom_bond_atom_site_label_2
_geom_bond_distance
_geom_bond_site_symmetry_2
Ho0 O19 2.202134 1_455
Ho0 O7 2.202134 1_554
Ho0 O9 2.202134 1_545
Ho0 O5 2.221566 1_545
Ho0 O17 2.221566 1_455
Ho0 O12 2.221566 1_554
Ho1 O4 2.202134 1_655
Ho1 O16 2.202134 1_556
Ho1 O14 2.202134 1_565
Ho1 O18 2.221566 1_565
Ho1 O6 2.221566 1_655
Ho1 O11 2.221566 1_556
Ho2 O20 2.202134 1_555
Ho2 O15 2.202134 1_555
Ho2 O0 2.202134 1_555
Ho2 O2 2.221566 1_555
Ho2 O22 2.221566 1_555
Ho2 O10 2.221566 1_555
Ho3 O3 2.202134 1_555
Ho3 O8 2.202134 1_555
Ho3 O23 2.202134 1_555
Ho3 O21 2.221566 1_555
Ho3 O1 2.221566 1_555
Ho3 O13 2.221566 1_555
O0 S0 1.466175 1_555
O1 S0 1.466084 1_554
O2 S1 1.466084 1_565
O3 S2 1.466174 1_555
O4 S0 1.466174 1_555
O5 S4 1.466084 1_555
O6 S2 1.466084 1_555
O7 S1 1.466175 1_555
O8 S1 1.466175 1_555
O9 S2 1.466175 1_555
O10 S2 1.466084 1_655
O11 S5 1.466084 1_555
O12 S0 1.466084 1_555
O13 S3 1.466084 1_455
O14 S3 1.466175 1_555
O15 S4 1.466175 1_555
O16 S4 1.466175 1_555
O17 S3 1.466084 1_555
O18 S1 1.466084 1_555
O19 S5 1.466174 1_555
O20 S3 1.466174 1_555
O21 S4 1.466084 1_545
O22 S5 1.466084 1_556
O23 S5 1.466175 1_555
