# generated using pymatgen
data_Li2TiVO4
_symmetry_space_group_name_H-M   'P 1'
_cell_length_a   5.17491452
_cell_length_b   5.84201800
_cell_length_c   5.17490756
_cell_angle_alpha   90.00256388
_cell_angle_beta   68.71711030
_cell_angle_gamma   90.00256568
_symmetry_Int_Tables_number   1
_chemical_formula_structural   Li2TiVO4
_chemical_formula_sum   'Li4 Ti2 V2 O8'
_cell_volume   145.77774107
_cell_formula_units_Z   2
loop_
 _symmetry_equiv_pos_site_id
 _symmetry_equiv_pos_as_xyz
  1  'x, y, z'
loop_
 _atom_site_type_symbol
 _atom_site_label
 _atom_site_symmetry_multiplicity
 _atom_site_fract_x
 _atom_site_fract_y
 _atom_site_fract_z
 _atom_site_occupancy
  Li  Li0  1  0.50000000  0.25000800  0.00000000  1
  Li  Li1  1  0.00000000  0.74999300  0.50000000  1
  Li  Li2  1  0.50000000  0.00000000  0.50000000  1
  Li  Li3  1  0.00000000  0.50000000  0.00000000  1
  Ti  Ti0  1  0.00000000  0.24974000  0.50000100  1
  Ti  Ti1  1  0.50000000  0.75026100  0.00000000  1
  V  V0  1  0.49999500  0.49999900  0.50000500  1
  V  V1  1  0.99999500  0.00000000  0.00000600  1
  O  O0  1  0.76592200  0.25043600  0.26677600  1
  O  O1  1  0.26676700  0.74956700  0.76593000  1
  O  O2  1  0.23406900  0.25043200  0.73323300  1
  O  O3  1  0.73322300  0.74956400  0.23407900  1
  O  O4  1  0.24859700  0.00000600  0.24858100  1
  O  O5  1  0.74849200  0.50000400  0.74847400  1
  O  O6  1  0.25152400  0.49999500  0.25151000  1
  O  O7  1  0.75141800  0.99999500  0.75140400  1
loop_
_geom_bond_atom_site_label_1
_geom_bond_atom_site_label_2
_geom_bond_distance
_geom_bond_site_symmetry_2
Li0 O6 2.065266 1_555
Li0 O4 2.065318 1_555
Li0 O5 2.065370 1_554
Li0 O7 2.065426 1_544
Li0 O0 2.275690 1_555
Li0 O2 2.275690 1_554
Li1 O5 2.065266 1_455
Li1 O7 2.065322 1_455
Li1 O6 2.065370 1_555
Li1 O4 2.065431 1_565
Li1 O1 2.275686 1_555
Li1 O3 2.275690 1_455
Li2 O3 2.070058 1_545
Li2 O0 2.070062 1_555
Li2 O2 2.070093 1_555
Li2 O1 2.070095 1_545
Li2 O7 2.148057 1_545
Li2 O4 2.148057 1_555
Li3 O1 2.069964 1_554
Li3 O2 2.069966 1_554
Li3 O0 2.069997 1_455
Li3 O3 2.070002 1_455
Li3 O5 2.148963 1_454
Li3 O6 2.148963 1_555
O0 Ti0 1.996326 1_655
O0 V0 2.066492 1_555
O0 V1 2.073555 1_555
O1 Ti1 1.996325 1_556
O1 V0 2.066495 1_555
O1 V1 2.073563 1_466
O2 Ti0 1.996316 1_555
O2 V0 2.066494 1_555
O2 V1 2.073558 1_456
O3 Ti1 1.996321 1_555
O3 V0 2.066496 1_555
O3 V1 2.073560 1_565
O4 Ti1 2.064258 1_545
O4 Ti0 2.064279 1_555
O4 V1 2.123941 1_455
O5 Ti0 2.066401 1_655
O5 Ti1 2.066447 1_556
O5 V0 2.123040 1_555
O6 Ti1 2.066420 1_555
O6 Ti0 2.066433 1_555
O6 V0 2.123040 1_555
O7 Ti0 2.064260 1_665
O7 Ti1 2.064273 1_556
O7 V1 2.123950 1_566
