# generated using pymatgen
data_LiTiCrSO8
_symmetry_space_group_name_H-M   'P 1'
_cell_length_a   8.57103300
_cell_length_b   8.64731545
_cell_length_c   9.07821424
_cell_angle_alpha   62.64510410
_cell_angle_beta   63.08932169
_cell_angle_gamma   60.48393462
_symmetry_Int_Tables_number   1
_chemical_formula_structural   LiTiCrSO8
_chemical_formula_sum   'Li3 Ti3 Cr3 S3 O24'
_cell_volume   497.27315472
_cell_formula_units_Z   3
loop_
 _symmetry_equiv_pos_site_id
 _symmetry_equiv_pos_as_xyz
  1  'x, y, z'
loop_
 _atom_site_type_symbol
 _atom_site_label
 _atom_site_symmetry_multiplicity
 _atom_site_fract_x
 _atom_site_fract_y
 _atom_site_fract_z
 _atom_site_occupancy
  Li  Li0  1  0.77546000  0.16729100  0.63798400  1
  Li  Li1  1  0.41203600  0.78309400  0.62581500  1
  Li  Li2  1  0.16379000  0.14596500  0.55880600  1
  Ti  Ti0  1  0.85039600  0.84946800  0.43267200  1
  Ti  Ti1  1  0.64343900  0.63799600  0.07212900  1
  Ti  Ti2  1  0.35389300  0.36203800  0.93195400  1
  Cr  Cr0  1  0.96673800  0.24946600  0.25516600  1
  Cr  Cr1  1  0.25545500  0.53369700  0.25913100  1
  Cr  Cr2  1  0.75271400  0.46730800  0.74140800  1
  S  S0  1  0.53772800  0.96323200  0.24651800  1
  S  S1  1  0.47224800  0.03259200  0.74927900  1
  S  S2  1  0.02999000  0.74616900  0.74711000  1
  O  O0  1  0.89816700  0.68888400  0.91785200  1
  O  O1  1  0.67874200  0.51548700  0.93595500  1
  O  O2  1  0.95692000  0.03052800  0.31055200  1
  O  O3  1  0.51256500  0.89111200  0.91328800  1
  O  O4  1  0.96688900  0.27228700  0.42527800  1
  O  O5  1  0.75269400  0.41693600  0.22277100  1
  O  O6  1  0.63400700  0.78227300  0.21022400  1
  O  O7  1  0.66995000  0.99140300  0.29008500  1
  O  O8  1  0.39682800  0.64449800  0.21584000  1
  O  O9  1  0.96453800  0.31583400  0.71428800  1
  O  O10  1  0.69490000  0.68750100  0.59088600  1
  O  O11  1  0.65775100  0.02692000  0.60792000  1
  O  O12  1  0.36640900  0.96235300  0.39359400  1
  O  O13  1  0.29610500  0.33118200  0.40226500  1
  O  O14  1  0.01862700  0.68789900  0.31026700  1
  O  O15  1  0.60089400  0.36454100  0.76877900  1
  O  O16  1  0.35365300  0.99498300  0.70349300  1
  O  O17  1  0.38256900  0.22055500  0.77100600  1
  O  O18  1  0.22970700  0.62332100  0.75632900  1
  O  O19  1  0.00515200  0.71444500  0.61147800  1
  O  O20  1  0.49896600  0.11675000  0.08654500  1
  O  O21  1  0.00831000  0.94115300  0.70007900  1
  O  O22  1  0.30786300  0.49406600  0.06072200  1
  O  O23  1  0.13620500  0.29747600  0.06333900  1
loop_
_geom_bond_atom_site_label_1
_geom_bond_atom_site_label_2
_geom_bond_distance
_geom_bond_site_symmetry_2
Li0 O4 2.057627 1_555
Li0 O21 2.069942 1_645
Li0 O15 2.072762 1_555
Li0 O11 2.079928 1_555
Li1 O16 2.017292 1_555
Li1 O12 2.036142 1_555
Li1 O10 2.057191 1_555
Li1 O18 2.168373 1_555
Li2 O13 2.027323 1_555
Li2 O9 2.078022 1_455
Li2 O4 2.080688 1_455
Li2 O16 2.084091 1_545
Li2 O12 2.213634 1_545
Li2 O21 2.290953 1_545
Cr0 O4 1.644986 1_555
Cr0 O23 1.718969 1_655
Cr0 O5 1.740266 1_555
Cr0 O2 1.757287 1_555
Cr1 O13 1.610583 1_555
Cr1 O8 1.705155 1_555
Cr1 O14 1.778422 1_555
Cr1 O22 1.801874 1_555
Cr2 O9 1.618970 1_555
Cr2 O10 1.740813 1_555
Cr2 O1 1.759865 1_555
Cr2 O15 1.785643 1_555
O0 S2 1.478214 1_655
O0 Ti1 2.129378 1_556
O1 Ti1 1.814154 1_556
O2 Ti0 1.846930 1_545
O3 S1 1.485991 1_565
O3 Ti1 2.067070 1_556
O5 Ti1 1.842338 1_555
O6 S0 1.481047 1_555
O6 Ti1 2.093079 1_555
O7 S0 1.505454 1_555
O7 Ti0 2.013880 1_555
O8 Ti1 1.904500 1_555
O10 Ti0 2.014599 1_555
O11 S1 1.520277 1_555
O11 Ti0 2.231859 1_545
O12 S0 1.471696 1_555
O14 Ti0 1.804797 1_455
O15 Ti2 1.963072 1_555
O16 S1 1.464302 1_565
O17 S1 1.482545 1_555
O17 Ti2 2.171072 1_555
O18 S2 1.523778 1_555
O18 Ti2 2.153097 1_555
O19 S2 1.497300 1_555
O19 Ti0 2.106841 1_455
O20 S0 1.487342 1_545
O20 Ti2 2.063953 1_554
O21 S2 1.470115 1_555
O22 Ti2 1.786293 1_554
O23 Ti2 1.901455 1_554
