# generated using pymatgen
data_Li3Mn3O8
_symmetry_space_group_name_H-M   'P 1'
_cell_length_a   8.27511600
_cell_length_b   8.27511600
_cell_length_c   8.27511600
_cell_angle_alpha   90.00000000
_cell_angle_beta   90.00000000
_cell_angle_gamma   90.00000000
_symmetry_Int_Tables_number   1
_chemical_formula_structural   Li3Mn3O8
_chemical_formula_sum   'Li12 Mn12 O32'
_cell_volume   566.65962673
_cell_formula_units_Z   4
loop_
 _symmetry_equiv_pos_site_id
 _symmetry_equiv_pos_as_xyz
  1  'x, y, z'
loop_
 _atom_site_type_symbol
 _atom_site_label
 _atom_site_symmetry_multiplicity
 _atom_site_fract_x
 _atom_site_fract_y
 _atom_site_fract_z
 _atom_site_occupancy
  Li  Li0  1  0.00358300  0.00358300  0.00358300  1
  Li  Li1  1  0.12500000  0.87500000  0.37500000  1
  Li  Li2  1  0.24641700  0.24641700  0.24641700  1
  Li  Li3  1  0.25358300  0.75358300  0.74641700  1
  Li  Li4  1  0.37500000  0.12500000  0.87500000  1
  Li  Li5  1  0.49641700  0.99641700  0.50358300  1
  Li  Li6  1  0.50358300  0.49641700  0.99641700  1
  Li  Li7  1  0.62500000  0.62500000  0.62500000  1
  Li  Li8  1  0.74641700  0.25358300  0.75358300  1
  Li  Li9  1  0.75358300  0.74641700  0.25358300  1
  Li  Li10  1  0.87500000  0.37500000  0.12500000  1
  Li  Li11  1  0.99641700  0.50358300  0.49641700  1
  Mn  Mn0  1  0.12233000  0.12767000  0.62500000  1
  Mn  Mn1  1  0.12500000  0.37767000  0.87233000  1
  Mn  Mn2  1  0.12767000  0.62500000  0.12233000  1
  Mn  Mn3  1  0.37233000  0.37500000  0.62233000  1
  Mn  Mn4  1  0.37500000  0.62233000  0.37233000  1
  Mn  Mn5  1  0.37767000  0.87233000  0.12500000  1
  Mn  Mn6  1  0.62233000  0.37233000  0.37500000  1
  Mn  Mn7  1  0.62500000  0.12233000  0.12767000  1
  Mn  Mn8  1  0.62767000  0.87500000  0.87767000  1
  Mn  Mn9  1  0.87233000  0.12500000  0.37767000  1
  Mn  Mn10  1  0.87500000  0.87767000  0.62767000  1
  Mn  Mn11  1  0.87767000  0.62767000  0.87500000  1
  O  O0  1  0.09887100  0.13006300  0.39334000  1
  O  O1  1  0.10666000  0.90112900  0.63006300  1
  O  O2  1  0.11531400  0.61531400  0.88468600  1
  O  O3  1  0.13006300  0.39334000  0.09887100  1
  O  O4  1  0.11993700  0.15112900  0.85666000  1
  O  O5  1  0.13468600  0.36531400  0.63468600  1
  O  O6  1  0.14334000  0.61993700  0.34887100  1
  O  O7  1  0.15112900  0.85666000  0.11993700  1
  O  O8  1  0.34887100  0.14334000  0.61993700  1
  O  O9  1  0.35666000  0.38006300  0.84887100  1
  O  O10  1  0.36531400  0.63468600  0.13468600  1
  O  O11  1  0.38006300  0.84887100  0.35666000  1
  O  O12  1  0.36993700  0.60666000  0.59887100  1
  O  O13  1  0.38468600  0.38468600  0.38468600  1
  O  O14  1  0.39334000  0.09887100  0.13006300  1
  O  O15  1  0.40112900  0.86993700  0.89334000  1
  O  O16  1  0.59887100  0.36993700  0.60666000  1
  O  O17  1  0.60666000  0.59887100  0.36993700  1
  O  O18  1  0.61531400  0.88468600  0.11531400  1
  O  O19  1  0.63006300  0.10666000  0.90112900  1
  O  O20  1  0.61993700  0.34887100  0.14334000  1
  O  O21  1  0.63468600  0.13468600  0.36531400  1
  O  O22  1  0.64334000  0.88006300  0.65112900  1
  O  O23  1  0.65112900  0.64334000  0.88006300  1
  O  O24  1  0.84887100  0.35666000  0.38006300  1
  O  O25  1  0.85666000  0.11993700  0.15112900  1
  O  O26  1  0.86531400  0.86531400  0.86531400  1
  O  O27  1  0.88006300  0.65112900  0.64334000  1
  O  O28  1  0.86993700  0.89334000  0.40112900  1
  O  O29  1  0.88468600  0.11531400  0.61531400  1
  O  O30  1  0.89334000  0.40112900  0.86993700  1
  O  O31  1  0.90112900  0.63006300  0.10666000  1
loop_
_geom_bond_atom_site_label_1
_geom_bond_atom_site_label_2
_geom_bond_distance
_geom_bond_site_symmetry_2
Li0 O7 1.973827 1_545
Li0 O25 1.973827 1_455
Li0 O4 1.973827 1_554
Li0 O26 1.981799 1_444
Li1 O11 2.127143 1_555
Li1 O7 2.127143 1_555
Li1 O6 2.127143 1_555
Li1 O0 2.127143 1_565
Li1 O1 2.127143 1_555
Li1 O28 2.127143 1_455
Li2 O3 1.973827 1_555
Li2 O0 1.973827 1_555
Li2 O14 1.973827 1_555
Li2 O13 1.981799 1_555
Li3 O1 1.973827 1_555
Li3 O12 1.973827 1_555
Li3 O15 1.973827 1_555
Li3 O2 1.981799 1_555
Li4 O4 2.127143 1_555
Li4 O9 2.127143 1_555
Li4 O19 2.127143 1_555
Li4 O15 2.127143 1_545
Li4 O14 2.127143 1_556
Li4 O8 2.127143 1_555
Li5 O22 1.973827 1_555
Li5 O8 1.973827 1_565
Li5 O11 1.973827 1_555
Li5 O21 1.981799 1_565
Li6 O9 1.973827 1_555
Li6 O23 1.973827 1_555
Li6 O20 1.973827 1_556
Li6 O10 1.981799 1_556
Li7 O12 2.127143 1_555
Li7 O16 2.127143 1_555
Li7 O17 2.127143 1_555
Li7 O22 2.127143 1_555
Li7 O23 2.127143 1_555
Li7 O27 2.127143 1_555
Li8 O19 1.973827 1_555
Li8 O30 1.973827 1_555
Li8 O16 1.973827 1_555
Li8 O29 1.981799 1_555
Li9 O31 1.973827 1_555
Li9 O17 1.973827 1_555
Li9 O28 1.973827 1_555
Li9 O18 1.981799 1_555
Li10 O24 2.127143 1_555
Li10 O25 2.127143 1_555
Li10 O20 2.127143 1_555
Li10 O3 2.127143 1_655
Li10 O30 2.127143 1_554
Li10 O31 2.127143 1_555
Li11 O27 1.973827 1_555
Li11 O6 1.973827 1_655
Li11 O24 1.973827 1_555
Li11 O5 1.981799 1_655
Mn0 O8 1.879599 1_555
Mn0 O1 1.879599 1_545
Mn0 O0 1.926919 1_555
Mn0 O4 1.926919 1_555
Mn0 O5 1.970819 1_555
Mn0 O29 1.970819 1_455
Mn1 O3 1.879599 1_556
Mn1 O4 1.879599 1_555
Mn1 O9 1.926919 1_555
Mn1 O30 1.926919 1_455
Mn1 O2 1.970819 1_555
Mn1 O5 1.970819 1_555
Mn2 O6 1.879599 1_555
Mn2 O31 1.879599 1_455
Mn2 O3 1.926919 1_555
Mn2 O7 1.926919 1_555
Mn2 O2 1.970819 1_554
Mn2 O10 1.970819 1_555
Mn3 O9 1.879599 1_555
Mn3 O16 1.879599 1_555
Mn3 O12 1.926919 1_555
Mn3 O8 1.926919 1_555
Mn3 O5 1.970819 1_555
Mn3 O13 1.970819 1_555
Mn4 O11 1.879599 1_555
Mn4 O12 1.879599 1_555
Mn4 O17 1.926919 1_555
Mn4 O6 1.926919 1_555
Mn4 O10 1.970819 1_555
Mn4 O13 1.970819 1_555
Mn5 O14 1.879599 1_565
Mn5 O7 1.879599 1_555
Mn5 O11 1.926919 1_555
Mn5 O15 1.926919 1_554
Mn5 O18 1.970819 1_555
Mn5 O10 1.970819 1_555
Mn6 O24 1.879599 1_555
Mn6 O17 1.879599 1_555
Mn6 O16 1.926919 1_555
Mn6 O20 1.926919 1_555
Mn6 O21 1.970819 1_555
Mn6 O13 1.970819 1_555
Mn7 O20 1.879599 1_555
Mn7 O19 1.879599 1_554
Mn7 O25 1.926919 1_555
Mn7 O14 1.926919 1_555
Mn7 O18 1.970819 1_545
Mn7 O21 1.970819 1_555
Mn8 O15 1.879599 1_555
Mn8 O22 1.879599 1_555
Mn8 O19 1.926919 1_565
Mn8 O23 1.926919 1_555
Mn8 O18 1.970819 1_556
Mn8 O26 1.970819 1_555
Mn9 O0 1.879599 1_655
Mn9 O25 1.879599 1_555
Mn9 O24 1.926919 1_555
Mn9 O28 1.926919 1_545
Mn9 O29 1.970819 1_555
Mn9 O21 1.970819 1_555
Mn10 O28 1.879599 1_555
Mn10 O27 1.879599 1_555
Mn10 O1 1.926919 1_655
Mn10 O22 1.926919 1_555
Mn10 O29 1.970819 1_565
Mn10 O26 1.970819 1_555
Mn11 O30 1.879599 1_555
Mn11 O23 1.879599 1_555
Mn11 O31 1.926919 1_556
Mn11 O27 1.926919 1_555
Mn11 O2 1.970819 1_655
Mn11 O26 1.970819 1_555
