# generated using pymatgen
data_Sr3Li2Nb4O13
_symmetry_space_group_name_H-M   'P 1'
_cell_length_a   17.63339440
_cell_length_b   17.63339440
_cell_length_c   17.63339440
_cell_angle_alpha   166.80431834
_cell_angle_beta   166.80431834
_cell_angle_gamma   18.70322651
_symmetry_Int_Tables_number   1
_chemical_formula_structural   Sr3Li2Nb4O13
_chemical_formula_sum   'Sr3 Li2 Nb4 O13'
_cell_volume   285.69002511
_cell_formula_units_Z   1
loop_
 _symmetry_equiv_pos_site_id
 _symmetry_equiv_pos_as_xyz
  1  'x, y, z'
loop_
 _atom_site_type_symbol
 _atom_site_label
 _atom_site_symmetry_multiplicity
 _atom_site_fract_x
 _atom_site_fract_y
 _atom_site_fract_z
 _atom_site_occupancy
  Sr  Sr0  1  0.37705400  0.37705400  0.00000000  1
  Sr  Sr1  1  0.50000000  0.50000000  0.00000000  1
  Sr  Sr2  1  0.62294600  0.62294600  0.00000000  1
  Li  Li0  1  0.75000000  0.25000000  0.50000000  1
  Li  Li1  1  0.25000000  0.75000000  0.50000000  1
  Nb  Nb0  1  0.05907900  0.05907900  0.00000000  1
  Nb  Nb1  1  0.17930400  0.17930400  0.00000000  1
  Nb  Nb2  1  0.82069600  0.82069600  0.00000000  1
  Nb  Nb3  1  0.94092100  0.94092100  0.00000000  1
  O  O0  1  0.00000000  0.00000000  0.00000000  1
  O  O1  1  0.11710200  0.11710200  0.00000000  1
  O  O2  1  0.55791500  0.05791500  0.50000000  1
  O  O3  1  0.23385200  0.23385200  0.00000000  1
  O  O4  1  0.67269600  0.17269600  0.50000000  1
  O  O5  1  0.94208500  0.44208500  0.50000000  1
  O  O6  1  0.82730400  0.32730400  0.50000000  1
  O  O7  1  0.76614800  0.76614800  0.00000000  1
  O  O8  1  0.88289800  0.88289800  0.00000000  1
  O  O9  1  0.17269600  0.67269600  0.50000000  1
  O  O10  1  0.32730400  0.82730400  0.50000000  1
  O  O11  1  0.44208500  0.94208500  0.50000000  1
  O  O12  1  0.05791500  0.55791500  0.50000000  1
loop_
_geom_bond_atom_site_label_1
_geom_bond_atom_site_label_2
_geom_bond_distance
_geom_bond_site_symmetry_2
Li0 O7 2.102551 1_556
Li0 O3 2.102551 1_555
Li0 O3 2.102551 1_656
Li0 O7 2.102551 1_545
Li1 O7 2.102551 1_556
Li1 O3 2.102551 1_555
Li1 O3 2.102551 1_566
Li1 O7 2.102551 1_455
Nb0 O1 2.019089 1_555
Nb0 O12 2.026477 1_555
Nb0 O2 2.026477 1_454
Nb0 O12 2.026477 1_544
Nb0 O2 2.026477 1_555
Nb0 O0 2.055836 1_555
Nb1 O3 1.898166 1_555
Nb1 O9 2.039079 1_544
Nb1 O4 2.039079 1_555
Nb1 O9 2.039079 1_555
Nb1 O4 2.039079 1_454
Nb1 O1 2.164510 1_555
Nb2 O7 1.898166 1_555
Nb2 O10 2.039079 1_655
Nb2 O6 2.039079 1_565
Nb2 O6 2.039079 1_554
Nb2 O10 2.039079 1_554
Nb2 O8 2.164510 1_555
Nb3 O8 2.019089 1_555
Nb3 O5 2.026477 1_554
Nb3 O5 2.026477 1_565
Nb3 O11 2.026477 1_554
Nb3 O11 2.026477 1_655
Nb3 O0 2.055836 1_665
O0 Sr1 2.865299 1_444
O0 Sr1 2.865299 1_545
O0 Sr1 2.865299 1_455
O0 Sr1 2.865299 1_556
O1 Sr2 2.872506 1_556
O1 Sr2 2.872506 1_455
O1 Sr2 2.872506 1_545
O1 Sr2 2.872506 1_444
O2 Sr1 2.857714 1_556
O2 Sr1 2.857714 1_545
O2 Sr2 3.037422 1_556
O2 Sr2 3.037422 1_545
O4 Sr2 2.664965 1_556
O4 Sr2 2.664965 1_545
O5 Sr1 2.857714 1_656
O5 Sr1 2.857714 1_555
O5 Sr0 3.037422 1_656
O5 Sr0 3.037422 1_555
O6 Sr0 2.664965 1_656
O6 Sr0 2.664965 1_555
O8 Sr0 2.872506 1_565
O8 Sr0 2.872506 1_666
O8 Sr0 2.872506 1_655
O8 Sr0 2.872506 1_554
O9 Sr2 2.664965 1_455
O9 Sr2 2.664965 1_556
O10 Sr0 2.664965 1_555
O10 Sr0 2.664965 1_566
O11 Sr1 2.857714 1_566
O11 Sr1 2.857714 1_555
O11 Sr0 3.037422 1_555
O11 Sr0 3.037422 1_566
O12 Sr1 2.857714 1_556
O12 Sr1 2.857714 1_455
O12 Sr2 3.037422 1_455
O12 Sr2 3.037422 1_556
