# generated using pymatgen
data_Co3SbO8
_symmetry_space_group_name_H-M   'P 1'
_cell_length_a   5.84972955
_cell_length_b   5.84972955
_cell_length_c   5.84973015
_cell_angle_alpha   60.00373038
_cell_angle_beta   60.00373038
_cell_angle_gamma   60.00373736
_symmetry_Int_Tables_number   1
_chemical_formula_structural   Co3SbO8
_chemical_formula_sum   'Co3 Sb1 O8'
_cell_volume   141.55628687
_cell_formula_units_Z   1
loop_
 _symmetry_equiv_pos_site_id
 _symmetry_equiv_pos_as_xyz
  1  'x, y, z'
loop_
 _atom_site_type_symbol
 _atom_site_label
 _atom_site_symmetry_multiplicity
 _atom_site_fract_x
 _atom_site_fract_y
 _atom_site_fract_z
 _atom_site_occupancy
  Co  Co0  1  0.00000000  0.50000000  0.50000000  1
  Co  Co1  1  0.50000000  0.50000000  0.00000000  1
  Co  Co2  1  0.50000000  0.00000000  0.50000000  1
  Sb  Sb0  1  0.00000000  0.00000000  0.00000000  1
  O  O0  1  0.24306000  0.71931100  0.24306000  1
  O  O1  1  0.24306000  0.24306000  0.71931100  1
  O  O2  1  0.71931100  0.24306000  0.24306000  1
  O  O3  1  0.72825900  0.72825900  0.72825900  1
  O  O4  1  0.27174100  0.27174100  0.27174100  1
  O  O5  1  0.28068900  0.75694000  0.75694000  1
  O  O6  1  0.75694000  0.75694000  0.28068900  1
  O  O7  1  0.75694000  0.28068900  0.75694000  1
loop_
_geom_bond_atom_site_label_1
_geom_bond_atom_site_label_2
_geom_bond_distance
_geom_bond_site_symmetry_2
Co0 O3 1.905461 1_455
Co0 O4 1.905461 1_555
Co0 O0 1.919791 1_555
Co0 O7 1.919791 1_455
Co0 O1 1.919792 1_555
Co0 O6 1.919792 1_455
Co1 O4 1.905460 1_555
Co1 O3 1.905460 1_554
Co1 O5 1.919792 1_554
Co1 O2 1.919792 1_555
Co1 O0 1.919792 1_555
Co1 O7 1.919792 1_554
Co2 O4 1.905461 1_555
Co2 O3 1.905461 1_545
Co2 O2 1.919791 1_555
Co2 O5 1.919791 1_545
Co2 O1 1.919792 1_555
Co2 O6 1.919792 1_545
O0 Sb0 2.022865 1_565
O1 Sb0 2.022865 1_556
O2 Sb0 2.022865 1_655
O5 Sb0 2.022865 1_566
O6 Sb0 2.022865 1_665
O7 Sb0 2.022865 1_656
