# generated using pymatgen
data_Mn5O3F5
_symmetry_space_group_name_H-M   'P 1'
_cell_length_a   6.43160615
_cell_length_b   6.43133912
_cell_length_c   10.98555063
_cell_angle_alpha   89.97620811
_cell_angle_beta   106.99366895
_cell_angle_gamma   59.98141604
_symmetry_Int_Tables_number   1
_chemical_formula_structural   Mn5O3F5
_chemical_formula_sum   'Mn10 O6 F10'
_cell_volume   370.32661903
_cell_formula_units_Z   2
loop_
 _symmetry_equiv_pos_site_id
 _symmetry_equiv_pos_as_xyz
  1  'x, y, z'
loop_
 _atom_site_type_symbol
 _atom_site_label
 _atom_site_symmetry_multiplicity
 _atom_site_fract_x
 _atom_site_fract_y
 _atom_site_fract_z
 _atom_site_occupancy
  Mn  Mn0  1  0.97970600  0.51022000  0.46951100  1
  Mn  Mn1  1  0.97984600  0.01014800  0.96970300  1
  Mn  Mn2  1  0.88580300  0.05706700  0.32404200  1
  Mn  Mn3  1  0.38122800  0.05706800  0.32416500  1
  Mn  Mn4  1  0.38109900  0.56176300  0.32405500  1
  Mn  Mn5  1  0.36984700  0.81496300  0.55491900  1
  Mn  Mn6  1  0.37131300  0.31430900  0.05702400  1
  Mn  Mn7  1  0.88554000  0.55722300  0.82335500  1
  Mn  Mn8  1  0.38056900  0.55724100  0.82331700  1
  Mn  Mn9  1  0.38056900  0.06222300  0.82337500  1
  O  O0  1  0.13003800  0.70467900  0.42543900  1
  O  O1  1  0.13083700  0.20847800  0.92240700  1
  O  O2  1  0.59059600  0.70510400  0.42532900  1
  O  O3  1  0.58288800  0.20887200  0.92228600  1
  O  O4  1  0.13036800  0.16530000  0.42529600  1
  O  O5  1  0.13112900  0.66059300  0.92225400  1
  F  F0  1  0.12467500  0.93765100  0.18697000  1
  F  F1  1  0.12199300  0.43896200  0.68283900  1
  F  F2  1  0.61771200  0.69119800  0.92640900  1
  F  F3  1  0.61740600  0.19134600  0.42596500  1
  F  F4  1  0.61099600  0.48297400  0.70551800  1
  F  F5  1  0.61237700  0.98025000  0.20568200  1
  F  F6  1  0.18846900  0.90552900  0.70552600  1
  F  F7  1  0.18593700  0.40670100  0.20565300  1
  F  F8  1  0.61111900  0.90571200  0.70541700  1
  F  F9  1  0.61261700  0.40708600  0.20555600  1
loop_
_geom_bond_atom_site_label_1
_geom_bond_atom_site_label_2
_geom_bond_distance
_geom_bond_site_symmetry_2
Mn0 O0 2.053375 1_655
Mn0 O2 2.054401 1_555
Mn0 O4 2.054510 1_655
Mn1 O1 2.091352 1_655
Mn1 O3 2.092902 1_555
Mn1 O5 2.093136 1_645
Mn2 O0 2.063401 1_645
Mn2 O4 2.066255 1_655
Mn3 O2 2.060477 1_545
Mn3 O4 2.060745 1_555
Mn4 O0 2.063905 1_555
Mn4 O2 2.066532 1_555
Mn5 O0 2.172143 1_555
Mn5 O4 2.172478 1_565
Mn5 O2 2.172612 1_555
Mn6 O5 2.180884 1_554
Mn6 O3 2.181132 1_554
Mn6 O1 2.181631 1_554
Mn7 O1 2.039026 1_655
Mn7 O5 2.040942 1_655
Mn8 O3 2.036913 1_555
Mn8 O5 2.037098 1_555
Mn9 O1 2.039302 1_555
Mn9 O3 2.041017 1_555
F0 Mn1 2.246511 1_464
F0 Mn4 2.321204 1_555
F0 Mn2 2.321696 1_465
F0 Mn3 2.323639 1_565
F1 Mn0 2.205783 1_455
F1 Mn9 2.341846 1_555
F1 Mn7 2.343062 1_455
F1 Mn8 2.343618 1_555
F2 Mn7 2.155683 1_555
F2 Mn9 2.156034 1_565
F2 Mn8 2.158000 1_555
F3 Mn2 2.149030 1_555
F3 Mn4 2.149186 1_555
F3 Mn3 2.150390 1_555
F4 Mn8 2.124257 1_555
F4 Mn7 2.128317 1_555
F4 Mn5 2.210246 1_555
F5 Mn3 2.131933 1_565
F5 Mn2 2.135538 1_565
F5 Mn6 2.206991 1_565
F6 Mn8 2.124231 1_555
F6 Mn9 2.128386 1_565
F6 Mn5 2.210567 1_555
F7 Mn3 2.131818 1_555
F7 Mn4 2.135675 1_555
F7 Mn6 2.206895 1_555
F8 Mn7 2.126007 1_555
F8 Mn9 2.126486 1_565
F8 Mn5 2.211190 1_555
F9 Mn2 2.133563 1_555
F9 Mn4 2.133884 1_555
F9 Mn6 2.207764 1_555
