# generated using pymatgen
data_Ca2CuH6(CO2)6
_symmetry_space_group_name_H-M   'P 1'
_cell_length_a   12.13178014
_cell_length_b   12.13178014
_cell_length_c   6.56701149
_cell_angle_alpha   80.21017307
_cell_angle_beta   80.21017307
_cell_angle_gamma   43.16288011
_symmetry_Int_Tables_number   1
_chemical_formula_structural   Ca2CuH6(CO2)6
_chemical_formula_sum   'Ca4 Cu2 H12 C12 O24'
_cell_volume   650.03361514
_cell_formula_units_Z   2
loop_
 _symmetry_equiv_pos_site_id
 _symmetry_equiv_pos_as_xyz
  1  'x, y, z'
loop_
 _atom_site_type_symbol
 _atom_site_label
 _atom_site_symmetry_multiplicity
 _atom_site_fract_x
 _atom_site_fract_y
 _atom_site_fract_z
 _atom_site_occupancy
  Ca  Ca0  1  0.47153400  0.20952300  0.93655900  1
  Ca  Ca1  1  0.79047700  0.52846600  0.56344100  1
  Ca  Ca2  1  0.52846600  0.79047700  0.06344100  1
  Ca  Ca3  1  0.20952300  0.47153400  0.43655900  1
  Cu  Cu0  1  0.90491400  0.09508600  0.75000000  1
  Cu  Cu1  1  0.09508600  0.90491400  0.25000000  1
  H  H0  1  0.91897200  0.84467700  0.87082000  1
  H  H1  1  0.15532300  0.08102800  0.62918000  1
  H  H2  1  0.08102800  0.15532300  0.12918000  1
  H  H3  1  0.84467700  0.91897200  0.37082000  1
  H  H4  1  0.31957000  0.64129500  0.93687400  1
  H  H5  1  0.35870500  0.68043000  0.56312600  1
  H  H6  1  0.68043000  0.35870500  0.06312600  1
  H  H7  1  0.64129500  0.31957000  0.43687400  1
  H  H8  1  0.31657000  0.11174900  0.49544400  1
  H  H9  1  0.88825100  0.68343000  0.00455600  1
  H  H10  1  0.68343000  0.88825100  0.50455600  1
  H  H11  1  0.11174900  0.31657000  0.99544400  1
  C  C0  1  0.99539100  0.80256600  0.72333200  1
  C  C1  1  0.19743400  0.00460900  0.77666800  1
  C  C2  1  0.00460900  0.19743400  0.27666800  1
  C  C3  1  0.80256600  0.99539100  0.22333200  1
  C  C4  1  0.29198400  0.59310400  0.06965000  1
  C  C5  1  0.40689600  0.70801600  0.43035000  1
  C  C6  1  0.70801600  0.40689600  0.93035000  1
  C  C7  1  0.59310400  0.29198400  0.56965000  1
  C  C8  1  0.34660100  0.12462500  0.33005600  1
  C  C9  1  0.87537500  0.65339900  0.16994400  1
  C  C10  1  0.65339900  0.87537500  0.66994400  1
  C  C11  1  0.12462500  0.34660100  0.83005600  1
  O  O0  1  0.01749500  0.88852600  0.63275800  1
  O  O1  1  0.11147400  0.98250500  0.86724200  1
  O  O2  1  0.98250500  0.11147400  0.36724200  1
  O  O3  1  0.88852600  0.01749500  0.13275800  1
  O  O4  1  0.05219900  0.67777000  0.65601300  1
  O  O5  1  0.32223000  0.94780100  0.84398700  1
  O  O6  1  0.94780100  0.32223000  0.34398700  1
  O  O7  1  0.67777000  0.05219900  0.15601300  1
  O  O8  1  0.68450700  0.19403700  0.71814100  1
  O  O9  1  0.80596300  0.31549300  0.78185900  1
  O  O10  1  0.31549300  0.80596300  0.28185900  1
  O  O11  1  0.19403700  0.68450700  0.21814100  1
  O  O12  1  0.35612900  0.45203400  0.07328600  1
  O  O13  1  0.54796600  0.64387100  0.42671400  1
  O  O14  1  0.64387100  0.54796600  0.92671400  1
  O  O15  1  0.45203400  0.35612900  0.57328600  1
  O  O16  1  0.60333200  0.97660600  0.79068800  1
  O  O17  1  0.02339400  0.39666800  0.70931200  1
  O  O18  1  0.39666800  0.02339400  0.20931200  1
  O  O19  1  0.97660600  0.60333200  0.29068800  1
  O  O20  1  0.32869700  0.24271700  0.27318500  1
  O  O21  1  0.75728300  0.67130300  0.22681500  1
  O  O22  1  0.67130300  0.75728300  0.72681500  1
  O  O23  1  0.24271700  0.32869700  0.77318500  1
loop_
_geom_bond_atom_site_label_1
_geom_bond_atom_site_label_2
_geom_bond_distance
_geom_bond_site_symmetry_2
Ca0 O16 2.295061 1_545
Ca0 O7 2.303082 1_556
Ca0 O23 2.361718 1_555
Ca0 O12 2.425707 1_556
Ca0 O20 2.456397 1_556
Ca0 O8 2.625185 1_555
Ca0 O15 2.654375 1_555
Ca1 O17 2.295061 1_655
Ca1 O6 2.303082 1_555
Ca1 O22 2.361718 1_555
Ca1 O13 2.425707 1_555
Ca1 O21 2.456397 1_555
Ca1 O9 2.625185 1_555
Ca1 O14 2.654375 1_555
Ca2 O18 2.295061 1_565
Ca2 O5 2.303082 1_554
Ca2 O21 2.361718 1_555
Ca2 O14 2.425707 1_554
Ca2 O22 2.456397 1_554
Ca2 O10 2.625185 1_555
Ca2 O13 2.654375 1_555
Ca3 O19 2.295061 1_455
Ca3 O4 2.303082 1_555
Ca3 O20 2.361718 1_555
Ca3 O15 2.425707 1_555
Ca3 O23 2.456397 1_555
Ca3 O11 2.625185 1_555
Ca3 O12 2.654375 1_555
Cu0 O0 2.010836 1_645
Cu0 O1 2.010836 1_645
Cu0 O8 2.014169 1_555
Cu0 O9 2.014169 1_555
Cu0 O3 2.557756 1_556
Cu0 O2 2.557756 1_555
Cu1 O3 2.010836 1_465
Cu1 O2 2.010836 1_465
Cu1 O11 2.014169 1_555
Cu1 O10 2.014169 1_555
Cu1 O1 2.557756 1_554
Cu1 O0 2.557756 1_555
C0 H0 1.109309 1_555
C0 O4 1.250774 1_655
C0 O0 1.286860 1_655
C1 H1 1.109309 1_555
C1 O5 1.250774 1_545
C1 O1 1.286860 1_545
C2 H2 1.109309 1_555
C2 O6 1.250774 1_455
C2 O2 1.286860 1_455
C3 H3 1.109309 1_555
C3 O7 1.250774 1_565
C3 O3 1.286860 1_565
C4 H4 1.107669 1_554
C4 O12 1.258839 1_555
C4 O11 1.282170 1_555
C5 H5 1.107669 1_555
C5 O13 1.258839 1_555
C5 O10 1.282170 1_555
C6 H6 1.107669 1_556
C6 O14 1.258839 1_555
C6 O9 1.282170 1_555
C7 H7 1.107669 1_555
C7 O15 1.258839 1_555
C7 O8 1.282170 1_555
C8 H8 1.107937 1_555
C8 O18 1.259001 1_555
C8 O20 1.277050 1_555
C9 H9 1.107937 1_555
C9 O19 1.259001 1_555
C9 O21 1.277050 1_555
C10 H10 1.107937 1_555
C10 O16 1.259001 1_555
C10 O22 1.277050 1_555
C11 H11 1.107937 1_555
C11 O17 1.259001 1_555
C11 O23 1.277050 1_555
