# generated using pymatgen
data_Li8Mn7Fe(BO3)8
_symmetry_space_group_name_H-M   'P 1'
_cell_length_a   5.20566362
_cell_length_b   5.88337228
_cell_length_c   17.42694591
_cell_angle_alpha   84.05065423
_cell_angle_beta   81.37026650
_cell_angle_gamma   66.01729507
_symmetry_Int_Tables_number   1
_chemical_formula_structural   Li8Mn7Fe(BO3)8
_chemical_formula_sum   'Li8 Mn7 Fe1 B8 O24'
_cell_volume   481.59562363
_cell_formula_units_Z   1
loop_
 _symmetry_equiv_pos_site_id
 _symmetry_equiv_pos_as_xyz
  1  'x, y, z'
loop_
 _atom_site_type_symbol
 _atom_site_label
 _atom_site_symmetry_multiplicity
 _atom_site_fract_x
 _atom_site_fract_y
 _atom_site_fract_z
 _atom_site_occupancy
  Li  Li0  1  0.08912925  0.91078659  0.76834335  1
  Li  Li1  1  0.91290795  0.58716476  0.73291710  1
  Li  Li2  1  0.41230440  0.83843627  0.48174768  1
  Li  Li3  1  0.58622591  0.66135454  0.01787774  1
  Li  Li4  1  0.41214356  0.33806324  0.98384264  1
  Li  Li5  1  0.58886838  0.16179232  0.51675151  1
  Li  Li6  1  0.08955834  0.40975386  0.26581053  1
  Li  Li7  1  0.91422982  0.08870140  0.23222340  1
  Mn  Mn0  1  0.54600853  0.90762175  0.85253326  1
  Mn  Mn1  1  0.95625168  0.84134574  0.39746106  1
  Mn  Mn2  1  0.95480733  0.34277720  0.89788363  1
  Mn  Mn3  1  0.45428622  0.59265268  0.64759116  1
  Mn  Mn4  1  0.54678443  0.40738608  0.35152795  1
  Mn  Mn5  1  0.03672926  0.66629110  0.10449222  1
  Mn  Mn6  1  0.04639792  0.15631683  0.60239054  1
  Fe  Fe0  1  0.44558344  0.09828043  0.14564085  1
  B  B0  1  0.94479758  0.69469629  0.56582627  1
  B  B1  1  0.44981077  0.94447175  0.31434534  1
  B  B2  1  0.05435649  0.80411995  0.93503834  1
  B  B3  1  0.44520320  0.44465528  0.81659016  1
  B  B4  1  0.55217136  0.55717735  0.18362690  1
  B  B5  1  0.94165653  0.19410094  0.06719700  1
  B  B6  1  0.55638636  0.05421764  0.68415989  1
  B  B7  1  0.05651504  0.30434051  0.43345904  1
  O  O0  1  0.73028191  0.96025565  0.74182785  1
  O  O1  1  0.82275827  0.74570736  0.93414494  1
  O  O2  1  0.32520345  -0.00597455  0.68430175  1
  O  O3  1  0.12075001  0.95151255  0.87404484  1
  O  O4  1  0.77111362  0.78904001  0.50816906  1
  O  O5  1  0.22508132  0.70880760  0.99331956  1
  O  O6  1  0.88114989  0.54722079  0.62722940  1
  O  O7  1  0.38070414  0.79943587  0.37569318  1
  O  O8  1  0.67634666  0.50455372  0.81657214  1
  O  O9  1  0.17623736  0.75449114  0.56571489  1
  O  O10  1  0.61636970  0.70569741  0.12275984  1
  O  O11  1  0.27239737  0.53796313  0.75875824  1
  O  O12  1  0.72841629  0.45979573  0.24076294  1
  O  O13  1  0.38105548  0.29780779  0.87813083  1
  O  O14  1  0.82473515  0.24551923  0.43324196  1
  O  O15  1  0.31969019  0.49917367  0.18392381  1
  O  O16  1  0.61967847  0.20195101  0.62280538  1
  O  O17  1  0.12168604  0.45087851  0.37204648  1
  O  O18  1  0.77311292  0.29179780  0.00874178  1
  O  O19  1  0.22850570  0.21062082  0.49152391  1
  O  O20  1  0.86708439  0.05359709  0.12851458  1
  O  O21  1  0.68070996  0.00350580  0.31573259  1
  O  O22  1  0.18173345  0.24278282  0.06739938  1
  O  O23  1  0.28208448  0.03735654  0.25536412  1
loop_
_geom_bond_atom_site_label_1
_geom_bond_atom_site_label_2
_geom_bond_distance
_geom_bond_site_symmetry_2
Li0 O0 1.891292 1_455
Li0 O3 1.921515 1_555
Li0 O2 1.922376 1_565
Li0 O11 2.018992 1_555
Li1 O11 1.890548 1_655
Li1 O8 1.918062 1_555
Li1 O6 1.920293 1_555
Li1 O0 2.018923 1_555
Li2 O4 1.890601 1_555
Li2 O9 1.923338 1_555
Li2 O7 1.924944 1_555
Li2 O19 2.016070 1_565
Li3 O5 1.893544 1_554
Li3 O10 1.910927 1_555
Li3 O1 1.923314 1_554
Li3 O18 2.001221 1_555
Li4 O18 1.896772 1_556
Li4 O13 1.920204 1_555
Li4 O22 1.930406 1_556
Li4 O5 2.008237 1_555
Li5 O19 1.891597 1_555
Li5 O14 1.917035 1_555
Li5 O16 1.925527 1_555
Li5 O4 2.016415 1_545
Li6 O12 1.892414 1_455
Li6 O15 1.895272 1_555
Li6 O17 1.932032 1_555
Li6 O23 2.020090 1_555
Li7 O20 1.902897 1_555
Li7 O23 1.912348 1_655
Li7 O21 1.913144 1_555
Li7 O12 2.007960 1_555
Mn0 O1 2.055272 1_555
Mn0 O0 2.073733 1_555
Mn0 O3 2.101007 1_555
Mn0 O13 2.168191 1_565
Mn0 O8 2.312818 1_555
Mn1 O21 2.053085 1_565
Mn1 O4 2.075037 1_555
Mn1 O7 2.100429 1_655
Mn1 O17 2.168735 1_655
Mn1 O14 2.316850 1_565
Mn2 O8 2.056779 1_555
Mn2 O18 2.068579 1_556
Mn2 O13 2.103439 1_655
Mn2 O3 2.166066 1_645
Mn2 O1 2.312363 1_555
Mn3 O9 2.062852 1_555
Mn3 O11 2.078741 1_555
Mn3 O6 2.106021 1_555
Mn3 O16 2.167256 1_555
Mn3 O2 2.308977 1_565
Mn4 O14 2.060436 1_555
Mn4 O12 2.069063 1_555
Mn4 O17 2.100366 1_555
Mn4 O7 2.171657 1_555
Mn4 O21 2.313325 1_555
Mn5 O15 2.050613 1_555
Mn5 O5 2.075166 1_554
Mn5 O10 2.082634 1_455
Mn5 O20 2.144389 1_465
Mn5 O22 2.419607 1_555
Mn6 O2 2.066022 1_555
Mn6 O19 2.074185 1_555
Mn6 O16 2.104970 1_455
Mn6 O6 2.168630 1_455
Mn6 O9 2.310605 1_545
Fe0 O22 1.959832 1_555
Fe0 O23 2.031427 1_555
Fe0 O20 2.079300 1_555
Fe0 O10 2.167814 1_545
Fe0 O15 2.318627 1_555
B0 O4 1.372666 1_555
B0 O9 1.385283 1_655
B0 O6 1.393730 1_555
B1 O23 1.372039 1_565
B1 O21 1.384129 1_565
B1 O7 1.394825 1_555
B2 O5 1.372429 1_555
B2 O1 1.383991 1_455
B2 O3 1.394121 1_555
B3 O11 1.371951 1_555
B3 O8 1.384406 1_555
B3 O13 1.393951 1_555
B4 O12 1.374779 1_555
B4 O15 1.383691 1_555
B4 O10 1.392560 1_555
B5 O18 1.369233 1_555
B5 O20 1.388939 1_555
B5 O22 1.391568 1_655
B6 O0 1.373345 1_545
B6 O2 1.385321 1_555
B6 O16 1.393441 1_555
B7 O19 1.372759 1_555
B7 O14 1.384436 1_455
B7 O17 1.393310 1_555
