# generated using pymatgen
data_Sr2La3Ti2Cr3O15
_symmetry_space_group_name_H-M   'P 1'
_cell_length_a   5.55669200
_cell_length_b   5.59772887
_cell_length_c   39.27609652
_cell_angle_alpha   90.03645212
_cell_angle_beta   90.03781197
_cell_angle_gamma   90.04679690
_symmetry_Int_Tables_number   1
_chemical_formula_structural   Sr2La3Ti2Cr3O15
_chemical_formula_sum   'Sr8 La12 Ti8 Cr12 O60'
_cell_volume   1221.67637429
_cell_formula_units_Z   4
loop_
 _symmetry_equiv_pos_site_id
 _symmetry_equiv_pos_as_xyz
  1  'x, y, z'
loop_
 _atom_site_type_symbol
 _atom_site_label
 _atom_site_symmetry_multiplicity
 _atom_site_fract_x
 _atom_site_fract_y
 _atom_site_fract_z
 _atom_site_occupancy
  Sr  Sr0  1  0.00929500  0.99624000  0.04982700  1
  Sr  Sr1  1  0.00885300  0.99755100  0.25043400  1
  Sr  Sr2  1  0.00984300  0.99881000  0.45051700  1
  Sr  Sr3  1  0.01024000  0.99433900  0.65033000  1
  Sr  Sr4  1  0.01114000  0.99370300  0.85010300  1
  Sr  Sr5  1  0.49108900  0.49835600  0.35032600  1
  Sr  Sr6  1  0.49124400  0.49772700  0.15043600  1
  Sr  Sr7  1  0.49200600  0.49917400  0.55039500  1
  La  La0  1  0.48970900  0.49993500  0.74830500  1
  La  La1  1  0.48864200  0.50001700  0.94833200  1
  La  La2  1  0.51049300  0.50459200  0.05077500  1
  La  La3  1  0.51057200  0.50548200  0.25087100  1
  La  La4  1  0.51066200  0.50650700  0.65043600  1
  La  La5  1  0.50897300  0.50214600  0.45068000  1
  La  La6  1  0.51172400  0.50574600  0.85057400  1
  La  La7  1  0.98951900  0.00629200  0.15065300  1
  La  La8  1  0.98900900  0.00754600  0.35087100  1
  La  La9  1  0.98507000  0.00439800  0.55063000  1
  La  La10  1  0.98661700  0.00611900  0.74826100  1
  La  La11  1  0.98553000  0.00624600  0.94798000  1
  Ti  Ti0  1  0.99985500  0.50175900  0.00032200  1
  Ti  Ti1  1  0.99981200  0.50178600  0.39999300  1
  Ti  Ti2  1  0.00025900  0.50020500  0.50052600  1
  Ti  Ti3  1  0.00075900  0.49717800  0.60124700  1
  Ti  Ti4  1  0.00036300  0.50086500  0.80062000  1
  Ti  Ti5  1  0.49982400  0.00010700  0.10035300  1
  Ti  Ti6  1  0.49961400  0.99981500  0.30068800  1
  Ti  Ti7  1  0.00025500  0.49997400  0.20063700  1
  Cr  Cr0  1  0.00035500  0.50006700  0.09999900  1
  Cr  Cr1  1  0.99997900  0.50052800  0.69999300  1
  Cr  Cr2  1  0.99992300  0.50000700  0.89973300  1
  Cr  Cr3  1  0.49910300  0.00014300  0.99967800  1
  Cr  Cr4  1  0.49972600  0.99997700  0.20025400  1
  Cr  Cr5  1  0.49936900  0.99979300  0.50005300  1
  Cr  Cr6  1  0.49951100  0.00027300  0.59994600  1
  Cr  Cr7  1  0.49889500  0.00014800  0.89960300  1
  Cr  Cr8  1  0.49975900  0.99995900  0.40028300  1
  Cr  Cr9  1  0.49892600  0.00018400  0.69970500  1
  Cr  Cr10  1  0.49963200  0.00014600  0.80008300  1
  Cr  Cr11  1  0.00027500  0.50014000  0.30010800  1
  O  O0  1  0.99553400  0.44253900  0.04900800  1
  O  O1  1  0.99587400  0.44440200  0.24933200  1
  O  O2  1  0.99651100  0.44718100  0.44969700  1
  O  O3  1  0.99595900  0.44225100  0.64966500  1
  O  O4  1  0.99521200  0.44019300  0.84914400  1
  O  O5  1  0.23191300  0.23682300  0.19292700  1
  O  O6  1  0.23683700  0.23182600  0.10651200  1
  O  O7  1  0.23611400  0.23138200  0.30681900  1
  O  O8  1  0.23161500  0.23817000  0.39305300  1
  O  O9  1  0.23052000  0.23772900  0.59295400  1
  O  O10  1  0.23128200  0.23918400  0.50652300  1
  O  O11  1  0.23616700  0.23762300  0.70906600  1
  O  O12  1  0.23563200  0.24196100  0.79181200  1
  O  O13  1  0.23519900  0.23643000  0.90899200  1
  O  O14  1  0.23517200  0.24098100  0.99168400  1
  O  O15  1  0.26824400  0.73681700  0.29302200  1
  O  O16  1  0.26565200  0.72821400  0.00644300  1
  O  O17  1  0.26768200  0.73738200  0.09263200  1
  O  O18  1  0.26360500  0.73109100  0.20683400  1
  O  O19  1  0.26284400  0.73174100  0.40655100  1
  O  O20  1  0.26211300  0.73039000  0.49312100  1
  O  O21  1  0.27093900  0.72749100  0.69349900  1
  O  O22  1  0.26214300  0.73056600  0.60675400  1
  O  O23  1  0.26477000  0.72933000  0.80665300  1
  O  O24  1  0.27224900  0.72624800  0.89333300  1
  O  O25  1  0.50453400  0.94615700  0.34943000  1
  O  O26  1  0.50422400  0.94479800  0.14922900  1
  O  O27  1  0.50852100  0.93964100  0.55003200  1
  O  O28  1  0.50399700  0.92605600  0.75014400  1
  O  O29  1  0.50474400  0.92590900  0.95000100  1
  O  O30  1  0.49748900  0.07250500  0.05013800  1
  O  O31  1  0.49732100  0.07250200  0.25043000  1
  O  O32  1  0.49709900  0.08109500  0.65007900  1
  O  O33  1  0.49693100  0.07835700  0.44999300  1
  O  O34  1  0.49694200  0.08105400  0.84981400  1
  O  O35  1  0.74082000  0.25376500  0.10620500  1
  O  O36  1  0.74662800  0.25790800  0.19323800  1
  O  O37  1  0.74110200  0.25351000  0.30644400  1
  O  O38  1  0.74662800  0.25947600  0.39337700  1
  O  O39  1  0.74771400  0.25918400  0.59328000  1
  O  O40  1  0.74651600  0.26068600  0.50609500  1
  O  O41  1  0.74079000  0.26407100  0.79193800  1
  O  O42  1  0.73698100  0.26301200  0.70883700  1
  O  O43  1  0.74022600  0.26346600  0.99185600  1
  O  O44  1  0.73517100  0.26455900  0.90871800  1
  O  O45  1  0.75832900  0.75149800  0.00615300  1
  O  O46  1  0.75404200  0.75851200  0.09297600  1
  O  O47  1  0.75888700  0.75280100  0.20641200  1
  O  O48  1  0.75354000  0.75817100  0.29333300  1
  O  O49  1  0.75994500  0.75169800  0.49344800  1
  O  O50  1  0.75780700  0.75645800  0.69379900  1
  O  O51  1  0.76001400  0.75391900  0.40618400  1
  O  O52  1  0.76053000  0.75220300  0.60638800  1
  O  O53  1  0.75956200  0.75239000  0.80638600  1
  O  O54  1  0.75941400  0.75811200  0.89351600  1
  O  O55  1  0.00291000  0.57244900  0.15030000  1
  O  O56  1  0.00249600  0.57180800  0.35031800  1
  O  O57  1  0.00290800  0.56895900  0.54981900  1
  O  O58  1  0.00440500  0.57049000  0.75063000  1
  O  O59  1  0.00463200  0.57089700  0.95047100  1
loop_
_geom_bond_atom_site_label_1
_geom_bond_atom_site_label_2
_geom_bond_distance
_geom_bond_site_symmetry_2
La0 O28 2.387611 1_555
La0 O42 2.460272 1_555
La0 O11 2.550875 1_555
La0 O41 2.574751 1_555
La0 O12 2.646041 1_555
La0 O58 2.727352 1_555
La0 O21 2.781445 1_555
La0 O58 2.888205 1_655
La0 O23 2.909578 1_555
La0 O50 2.978060 1_555
La0 O53 3.072020 1_555
La0 O28 3.214321 1_545
La1 O29 2.386490 1_555
La1 O44 2.457176 1_555
La1 O13 2.557073 1_555
La1 O43 2.575399 1_555
La1 O14 2.643564 1_555
La1 O59 2.720269 1_555
La1 O24 2.778187 1_555
La1 O16 2.894630 1_556
La1 O59 2.895356 1_655
La1 O54 2.998502 1_555
La1 O45 3.061494 1_556
La1 O29 3.215728 1_545
La2 O30 2.419839 1_555
La2 O17 2.494837 1_555
La2 O16 2.540095 1_555
La2 O46 2.567095 1_555
La2 O45 2.623254 1_555
La2 O0 2.718722 1_555
La2 O0 2.882977 1_455
La2 O35 2.890021 1_555
La2 O43 2.968043 1_554
La2 O6 3.072585 1_555
La2 O14 3.145100 1_554
La2 O30 3.180017 1_565
La3 O31 2.424813 1_555
La3 O15 2.496779 1_555
La3 O18 2.544046 1_555
La3 O48 2.568229 1_555
La3 O47 2.621598 1_555
La3 O1 2.719246 1_555
La3 O1 2.880696 1_455
La3 O37 2.897872 1_555
La3 O36 2.961063 1_555
La3 O7 3.084412 1_555
La3 O5 3.134611 1_555
La3 O31 3.174996 1_565
La4 O32 2.382504 1_555
La4 O21 2.483596 1_555
La4 O22 2.534956 1_555
La4 O50 2.595190 1_555
La4 O52 2.610636 1_555
La4 O3 2.721005 1_555
La4 O3 2.882420 1_455
La4 O39 2.948579 1_555
La4 O42 2.950197 1_555
La4 O9 3.125882 1_555
La4 O11 3.146415 1_555
La4 O32 3.217371 1_565
La5 O33 2.373281 1_555
La5 O20 2.509143 1_555
La5 O19 2.555167 1_555
La5 O49 2.590091 1_555
La5 O51 2.643774 1_555
La5 O2 2.727060 1_555
La5 O2 2.864150 1_455
La5 O40 2.882555 1_555
La5 O38 2.942364 1_555
La5 O10 3.059926 1_555
La5 O8 3.109503 1_555
La5 O33 3.226351 1_565
La6 O34 2.378830 1_555
La6 O24 2.473390 1_555
La6 O23 2.535287 1_555
La6 O54 2.593316 1_555
La6 O53 2.611115 1_555
La6 O4 2.712448 1_555
La6 O4 2.893667 1_455
La6 O44 2.929585 1_555
La6 O41 2.959188 1_555
La6 O12 3.138131 1_555
La6 O13 3.146974 1_555
La6 O34 3.221689 1_565
La7 O55 2.429767 1_645
La7 O5 2.495535 1_655
La7 O6 2.547790 1_655
La7 O36 2.570215 1_555
La7 O35 2.622867 1_555
La7 O26 2.718772 1_545
La7 O26 2.881552 1_645
La7 O47 2.908028 1_545
La7 O46 2.959175 1_545
La7 O18 3.092795 1_645
La7 O17 3.138815 1_645
La7 O55 3.170045 1_655
La8 O56 2.440439 1_645
La8 O8 2.494039 1_655
La8 O7 2.540069 1_655
La8 O38 2.567672 1_555
La8 O37 2.615538 1_555
La8 O25 2.714192 1_545
La8 O25 2.886018 1_645
La8 O51 2.891206 1_545
La8 O48 2.959175 1_545
La8 O19 3.079794 1_645
La8 O15 3.141759 1_645
La8 O56 3.159502 1_655
La9 O57 2.439753 1_645
La9 O9 2.514121 1_655
La9 O39 2.565666 1_555
La9 O10 2.569668 1_655
La9 O40 2.622615 1_555
La9 O27 2.672524 1_545
La9 O52 2.889685 1_545
La9 O27 2.931558 1_645
La9 O49 2.932436 1_545
La9 O22 3.095600 1_645
La9 O20 3.135026 1_645
La9 O57 3.161914 1_655
La10 O58 2.442446 1_645
La10 O11 2.444272 1_655
La10 O42 2.528427 1_555
La10 O12 2.564054 1_655
La10 O41 2.626189 1_555
La10 O28 2.719662 1_545
La10 O50 2.852173 1_545
La10 O28 2.910905 1_645
La10 O53 2.970830 1_545
La10 O21 3.091765 1_645
La10 O58 3.161969 1_655
La10 O23 3.170647 1_645
La11 O13 2.435613 1_655
La11 O59 2.441383 1_645
La11 O44 2.531284 1_555
La11 O14 2.566766 1_655
La11 O43 2.627543 1_555
La11 O29 2.710025 1_545
La11 O54 2.841422 1_545
La11 O29 2.921347 1_645
La11 O45 2.975355 1_546
La11 O24 3.099341 1_645
La11 O59 3.163907 1_655
La11 O16 3.181413 1_646
Cr0 O35 2.009421 1_455
Cr0 O46 2.011364 1_455
Cr0 O6 2.012480 1_555
Cr0 O17 2.013167 1_555
Cr0 O55 2.016533 1_555
Cr0 O0 2.028406 1_455
Cr1 O50 1.981314 1_555
Cr1 O21 1.985930 1_655
Cr1 O3 2.003327 1_555
Cr1 O11 2.004611 1_655
Cr1 O42 2.005525 1_555
Cr1 O58 2.026901 1_655
Cr2 O54 1.984012 1_555
Cr2 O24 1.988641 1_655
Cr2 O13 2.005376 1_655
Cr2 O44 2.005983 1_555
Cr2 O4 2.014891 1_555
Cr2 O59 2.031816 1_655
Cr3 O29 1.994891 1_545
Cr3 O43 2.014987 1_555
Cr3 O16 2.016967 1_546
Cr3 O14 2.017450 1_555
Cr3 O45 2.019906 1_546
Cr3 O30 2.022617 1_556
Cr4 O36 2.010127 1_565
Cr4 O31 2.011901 1_565
Cr4 O47 2.012451 1_555
Cr4 O18 2.012825 1_555
Cr4 O5 2.014524 1_565
Cr4 O26 2.027705 1_555
Cr5 O27 1.992484 1_555
Cr5 O33 2.015057 1_565
Cr5 O40 2.017664 1_565
Cr5 O20 2.020433 1_555
Cr5 O10 2.020585 1_565
Cr5 O49 2.023816 1_555
Cr6 O27 1.990046 1_545
Cr6 O39 2.017154 1_555
Cr6 O9 2.019783 1_555
Cr6 O32 2.020111 1_555
Cr6 O22 2.021947 1_545
Cr6 O52 2.024655 1_545
Cr7 O54 1.997910 1_545
Cr7 O24 1.998362 1_545
Cr7 O34 2.007581 1_555
Cr7 O13 2.008897 1_555
Cr7 O44 2.009511 1_555
Cr7 O29 2.023094 1_545
Cr8 O33 2.000930 1_565
Cr8 O51 2.011259 1_555
Cr8 O19 2.011365 1_555
Cr8 O38 2.015795 1_565
Cr8 O25 2.019891 1_555
Cr8 O8 2.020384 1_565
Cr9 O50 1.996934 1_545
Cr9 O21 1.997592 1_545
Cr9 O32 2.001348 1_555
Cr9 O11 2.009178 1_555
Cr9 O42 2.009604 1_555
Cr9 O28 2.024479 1_545
Cr10 O28 2.004685 1_545
Cr10 O34 2.004847 1_555
Cr10 O23 2.016330 1_545
Cr10 O53 2.018436 1_545
Cr10 O41 2.019563 1_555
Cr10 O12 2.023108 1_555
Cr11 O37 2.009869 1_455
Cr11 O48 2.009982 1_455
Cr11 O15 2.011883 1_555
Cr11 O56 2.012223 1_555
Cr11 O7 2.013315 1_555
Cr11 O1 2.018475 1_455
O0 Ti0 1.941086 1_555
O0 Sr0 2.499720 1_645
O0 Sr0 3.100495 1_655
O1 Ti7 1.938044 1_655
O1 Sr1 2.502850 1_645
O1 Sr1 3.097433 1_655
O2 Ti1 1.976251 1_555
O2 Ti2 2.018213 1_655
O2 Sr2 2.511239 1_645
O2 Sr2 3.088845 1_655
O3 Ti3 1.926757 1_655
O3 Sr3 2.508762 1_645
O3 Sr3 3.091486 1_655
O4 Ti4 1.936297 1_655
O4 Sr4 2.501276 1_645
O4 Sr4 3.099795 1_655
O5 Ti7 1.980311 1_555
O5 Sr6 2.645282 1_555
O5 Sr1 2.904578 1_545
O6 Ti5 1.969684 1_555
O6 Sr6 2.679582 1_555
O6 Sr0 2.878242 1_545
O7 Ti6 1.971107 1_545
O7 Sr5 2.674096 1_555
O7 Sr1 2.863964 1_545
O8 Ti1 1.978381 1_455
O8 Sr5 2.649367 1_555
O8 Sr2 2.900442 1_545
O9 Ti3 1.961710 1_555
O9 Sr7 2.655175 1_555
O9 Sr3 2.904750 1_545
O10 Ti2 1.959952 1_555
O10 Sr7 2.678840 1_555
O10 Sr2 2.855377 1_545
O11 Sr3 2.956674 1_545
O12 Ti4 1.982979 1_555
O12 Sr4 2.955307 1_545
O13 Sr4 2.955553 1_545
O14 Ti0 1.989689 1_456
O14 Sr0 2.944852 1_546
O15 Ti6 1.976547 1_555
O15 Sr1 2.647443 1_555
O15 Sr5 2.895433 1_555
O16 Ti0 1.960144 1_455
O16 Sr0 2.680877 1_555
O17 Ti5 1.978529 1_565
O17 Sr0 2.644030 1_555
O17 Sr6 2.915496 1_555
O18 Ti7 1.967339 1_555
O18 Sr1 2.676656 1_555
O18 Sr6 2.866325 1_555
O19 Ti1 1.963553 1_455
O19 Sr2 2.682650 1_555
O19 Sr5 2.862624 1_555
O20 Ti2 1.964682 1_555
O20 Sr2 2.650694 1_555
O20 Sr7 2.893077 1_555
O21 Sr3 2.684781 1_555
O22 Ti3 1.964499 1_555
O22 Sr3 2.659318 1_555
O22 Sr7 2.865624 1_555
O23 Ti4 1.961227 1_555
O23 Sr4 2.663079 1_555
O24 Sr4 2.689417 1_555
O25 Ti6 1.938183 1_555
O25 Sr5 2.507991 1_555
O25 Sr5 3.092202 1_565
O26 Ti5 1.944800 1_565
O26 Sr6 2.504042 1_555
O26 Sr6 3.096379 1_565
O27 Sr7 2.467298 1_555
O27 Sr7 3.133557 1_565
O30 Ti5 2.013744 1_555
O30 Sr0 2.745804 1_545
O30 Sr0 2.876190 1_645
O31 Ti6 2.015724 1_545
O31 Sr1 2.746162 1_545
O31 Sr1 2.873562 1_645
O32 Sr3 2.748203 1_545
O32 Sr3 2.892829 1_645
O33 Sr2 2.742716 1_545
O33 Sr2 2.885090 1_645
O34 Sr4 2.743019 1_545
O34 Sr4 2.899187 1_645
O35 Ti5 1.964265 1_555
O35 Sr6 2.609484 1_555
O35 Sr0 3.034900 1_645
O36 Ti7 1.975493 1_655
O36 Sr6 2.577767 1_555
O36 Sr1 3.049094 1_645
O37 Ti6 1.965844 1_545
O37 Sr5 2.604277 1_555
O37 Sr1 3.018213 1_645
O38 Ti1 1.970413 1_555
O38 Sr5 2.581898 1_555
O38 Sr2 3.050936 1_645
O39 Ti3 1.961037 1_655
O39 Sr7 2.581384 1_555
O39 Sr3 3.057795 1_645
O40 Ti2 1.957345 1_655
O40 Sr7 2.610171 1_555
O40 Sr2 3.009746 1_645
O41 Ti4 1.987291 1_655
O41 Sr4 3.125664 1_645
O42 Sr3 3.138771 1_645
O43 Ti0 1.991691 1_556
O43 Sr0 3.108162 1_646
O44 Sr4 3.155050 1_645
O45 Ti0 1.952186 1_555
O45 Sr0 2.598996 1_655
O46 Ti5 1.977757 1_565
O46 Sr0 2.580245 1_655
O46 Sr6 3.059688 1_555
O47 Ti7 1.963754 1_655
O47 Sr1 2.605089 1_655
O47 Sr6 3.012011 1_555
O48 Ti6 1.976659 1_555
O48 Sr1 2.578776 1_655
O48 Sr5 3.042650 1_555
O49 Ti2 1.960968 1_655
O49 Sr2 2.586062 1_655
O49 Sr7 3.036849 1_555
O50 Sr3 2.580414 1_655
O51 Ti1 1.956955 1_555
O51 Sr2 2.613213 1_655
O51 Sr5 3.013451 1_555
O52 Ti3 1.965631 1_655
O52 Sr3 2.594588 1_655
O52 Sr7 3.009519 1_555
O53 Ti4 1.956305 1_655
O53 Sr4 2.591894 1_655
O54 Sr4 2.570223 1_655
O55 Ti7 2.018551 1_555
O55 Sr6 2.745909 1_555
O55 Sr6 2.873444 1_455
O56 Ti1 1.990331 1_455
O56 Sr5 2.746250 1_555
O56 Sr5 2.870990 1_455
O57 Ti2 1.973723 1_555
O57 Ti3 2.059760 1_555
O57 Sr7 2.746094 1_555
O57 Sr7 2.865465 1_455
O58 Ti4 2.002101 1_555
O59 Ti0 1.996267 1_456
