# generated using pymatgen
data_Li2MnFe3O8
_symmetry_space_group_name_H-M   'P 1'
_cell_length_a   5.91143806
_cell_length_b   5.91143806
_cell_length_c   6.00216294
_cell_angle_alpha   60.07251185
_cell_angle_beta   60.07251185
_cell_angle_gamma   59.38937257
_symmetry_Int_Tables_number   1
_chemical_formula_structural   Li2MnFe3O8
_chemical_formula_sum   'Li2 Mn1 Fe3 O8'
_cell_volume   147.77654971
_cell_formula_units_Z   1
loop_
 _symmetry_equiv_pos_site_id
 _symmetry_equiv_pos_as_xyz
  1  'x, y, z'
loop_
 _atom_site_type_symbol
 _atom_site_label
 _atom_site_symmetry_multiplicity
 _atom_site_fract_x
 _atom_site_fract_y
 _atom_site_fract_z
 _atom_site_occupancy
  Li  Li0  1  0.00000000  0.50000000  0.50000000  1
  Li  Li1  1  0.50000000  0.00000000  0.50000000  1
  Mn  Mn0  1  0.00000000  0.00000000  0.00000000  1
  Fe  Fe0  1  0.50000000  0.00000000  0.00000000  1
  Fe  Fe1  1  0.50000000  0.50000000  0.00000000  1
  Fe  Fe2  1  0.00000000  0.50000000  0.00000000  1
  O  O0  1  0.74365900  0.24705200  0.79306600  1
  O  O1  1  0.72956800  0.72956800  0.78753600  1
  O  O2  1  0.24705200  0.74365900  0.79306600  1
  O  O3  1  0.22917700  0.22917700  0.78676800  1
  O  O4  1  0.77082300  0.77082300  0.21323200  1
  O  O5  1  0.75294800  0.25634100  0.20693400  1
  O  O6  1  0.27043200  0.27043200  0.21246400  1
  O  O7  1  0.25634100  0.75294800  0.20693400  1
loop_
_geom_bond_atom_site_label_1
_geom_bond_atom_site_label_2
_geom_bond_distance
_geom_bond_site_symmetry_2
Li0 O7 2.156323 1_555
Li0 O0 2.156323 1_455
Li0 O4 2.174724 1_455
Li0 O3 2.174724 1_555
Li0 O6 2.179550 1_555
Li0 O1 2.179550 1_455
Li1 O5 2.156323 1_555
Li1 O2 2.156323 1_545
Li1 O4 2.174724 1_545
Li1 O3 2.174724 1_555
Li1 O1 2.179550 1_545
Li1 O6 2.179550 1_555
Mn0 O4 1.928152 1_445
Mn0 O3 1.928152 1_554
Mn0 O7 1.945789 1_545
Mn0 O0 1.945789 1_454
Mn0 O2 1.945789 1_544
Mn0 O5 1.945789 1_455
Fe0 O1 2.030157 1_544
Fe0 O6 2.030157 1_555
Fe0 O3 2.035198 1_554
Fe0 O4 2.035198 1_545
Fe0 O0 2.073033 1_554
Fe0 O7 2.073033 1_545
Fe1 O7 1.930777 1_555
Fe1 O5 1.930777 1_555
Fe1 O2 1.930777 1_554
Fe1 O0 1.930777 1_554
Fe1 O6 1.931707 1_555
Fe1 O1 1.931707 1_554
Fe2 O1 2.030157 1_454
Fe2 O6 2.030157 1_555
Fe2 O3 2.035198 1_554
Fe2 O4 2.035198 1_455
Fe2 O2 2.073033 1_554
Fe2 O5 2.073033 1_455
