# generated using pymatgen
data_Li3Fe2(PO4)3
_symmetry_space_group_name_H-M   'P 1'
_cell_length_a   9.78202872
_cell_length_b   9.78202872
_cell_length_c   9.78082705
_cell_angle_alpha   86.55111142
_cell_angle_beta   86.55111142
_cell_angle_gamma   86.45219921
_symmetry_Int_Tables_number   1
_chemical_formula_structural   Li3Fe2(PO4)3
_chemical_formula_sum   'Li12 Fe8 P12 O48'
_cell_volume   930.92596506
_cell_formula_units_Z   4
loop_
 _symmetry_equiv_pos_site_id
 _symmetry_equiv_pos_as_xyz
  1  'x, y, z'
loop_
 _atom_site_type_symbol
 _atom_site_label
 _atom_site_symmetry_multiplicity
 _atom_site_fract_x
 _atom_site_fract_y
 _atom_site_fract_z
 _atom_site_occupancy
  Li  Li0  1  0.77066700  0.96005400  0.60065100  1
  Li  Li1  1  0.51583900  0.17584700  0.47070800  1
  Li  Li2  1  0.03994600  0.22933300  0.39934900  1
  Li  Li3  1  0.82415300  0.48416100  0.52929200  1
  Li  Li4  1  0.03201000  0.48468300  0.25683300  1
  Li  Li5  1  0.51531700  0.96799000  0.74316700  1
  Li  Li6  1  0.73166400  0.65726000  0.26716600  1
  Li  Li7  1  0.34274000  0.26833600  0.73283400  1
  Li  Li8  1  0.16245500  0.50046200  0.99257600  1
  Li  Li9  1  0.99995400  0.75477500  0.09706200  1
  Li  Li10  1  0.49953800  0.83754500  0.00742400  1
  Li  Li11  1  0.24522500  0.00004600  0.90293800  1
  Fe  Fe0  1  0.74987900  0.02816900  0.22105800  1
  Fe  Fe1  1  0.02093800  0.74484200  0.72349600  1
  Fe  Fe2  1  0.47033800  0.52966200  0.50000000  1
  Fe  Fe3  1  0.24772500  0.75227500  0.50000000  1
  Fe  Fe4  1  0.74920000  0.25080000  0.00000000  1
  Fe  Fe5  1  0.97183100  0.25012100  0.77894200  1
  Fe  Fe6  1  0.52674500  0.47325500  0.00000000  1
  Fe  Fe7  1  0.25515800  0.97906200  0.27650400  1
  P  P0  1  0.17245400  0.04990800  0.59903700  1
  P  P1  1  0.65192600  0.32667800  0.69817300  1
  P  P2  1  0.15151700  0.45041900  0.57759500  1
  P  P3  1  0.67332200  0.34807400  0.30182700  1
  P  P4  1  0.04960600  0.17903900  0.09705100  1
  P  P5  1  0.45095000  0.15334300  0.07312500  1
  P  P6  1  0.54958100  0.84848300  0.42240500  1
  P  P7  1  0.95009200  0.82754600  0.40096300  1
  P  P8  1  0.32017900  0.66027700  0.19941300  1
  P  P9  1  0.84665700  0.54905000  0.92687500  1
  P  P10  1  0.33972300  0.67982100  0.80058700  1
  P  P11  1  0.82096100  0.95039400  0.90294900  1
  O  O0  1  0.28869600  0.09464800  0.68113400  1
  O  O1  1  0.02999700  0.11764800  0.64305200  1
  O  O2  1  0.56681700  0.21247400  0.65383400  1
  O  O3  1  0.80940000  0.31005400  0.66175200  1
  O  O4  1  0.18914400  0.08732400  0.44187900  1
  O  O5  1  0.10947300  0.38260100  0.72097000  1
  O  O6  1  0.60946500  0.46887600  0.62827800  1
  O  O7  1  0.68994600  0.19060000  0.33824800  1
  O  O8  1  0.30924100  0.41487300  0.56277700  1
  O  O9  1  0.11826700  0.03848100  0.14668700  1
  O  O10  1  0.38991300  0.10817200  0.21768000  1
  O  O11  1  0.06656300  0.40519200  0.46377900  1
  O  O12  1  0.53112400  0.39053500  0.37172200  1
  O  O13  1  0.37496100  0.67319700  0.64062400  1
  O  O14  1  0.12084800  0.61089500  0.58086800  1
  O  O15  1  0.61267700  0.12279700  0.08024100  1
  O  O16  1  0.88863800  0.16701700  0.12635000  1
  O  O17  1  0.78752600  0.43318300  0.34616600  1
  O  O18  1  0.08773300  0.29985600  0.17561400  1
  O  O19  1  0.40860300  0.06523400  0.96052200  1
  O  O20  1  0.66518100  0.37585800  0.14210400  1
  O  O21  1  0.83298300  0.11136200  0.87365000  1
  O  O22  1  0.58512700  0.69075900  0.43722300  1
  O  O23  1  0.91267600  0.81085600  0.55812100  1
  O  O24  1  0.08821800  0.18961100  0.93967300  1
  O  O25  1  0.41587000  0.30824600  0.04491500  1
  O  O26  1  0.16602900  0.88994600  0.62853500  1
  O  O27  1  0.32680300  0.62503900  0.35937600  1
  O  O28  1  0.59480800  0.93343700  0.53622100  1
  O  O29  1  0.90535200  0.71130400  0.31886600  1
  O  O30  1  0.19228300  0.59868500  0.15175800  1
  O  O31  1  0.38910500  0.87915200  0.41913200  1
  O  O32  1  0.11005400  0.83397100  0.37146500  1
  O  O33  1  0.87720300  0.38732300  0.91975900  1
  O  O34  1  0.62414200  0.33481900  0.85789600  1
  O  O35  1  0.45931700  0.60624500  0.13222900  1
  O  O36  1  0.93476600  0.59139700  0.03947800  1
  O  O37  1  0.88235200  0.97000300  0.35694800  1
  O  O38  1  0.61739900  0.89052700  0.27903000  1
  O  O39  1  0.69175400  0.58413000  0.95508500  1
  O  O40  1  0.31733400  0.81829500  0.16459200  1
  O  O41  1  0.39375500  0.54068300  0.86777100  1
  O  O42  1  0.89182800  0.61008700  0.78232000  1
  O  O43  1  0.81038900  0.91178200  0.06032700  1
  O  O44  1  0.18170500  0.68266600  0.83540800  1
  O  O45  1  0.40131500  0.80771700  0.84824200  1
  O  O46  1  0.96151900  0.88173300  0.85331300  1
  O  O47  1  0.70014400  0.91226700  0.82438600  1
loop_
_geom_bond_atom_site_label_1
_geom_bond_atom_site_label_2
_geom_bond_distance
_geom_bond_site_symmetry_2
Li0 O28 1.905206 1_555
Li0 O23 1.996337 1_555
Li0 O47 2.284367 1_555
Li0 O37 2.560586 1_555
Li1 O2 1.947293 1_555
Li1 O7 2.083839 1_555
Li1 O12 2.268671 1_555
Li1 O28 2.506039 1_545
Li2 O11 1.905206 1_555
Li2 O4 1.996337 1_555
Li2 O18 2.284367 1_555
Li2 O1 2.560586 1_555
Li3 O17 1.947293 1_555
Li3 O3 2.083839 1_555
Li3 O6 2.268671 1_555
Li3 O11 2.506039 1_655
Li4 O18 2.048343 1_555
Li4 O30 2.154629 1_555
Li4 O11 2.162473 1_555
Li4 O36 2.523383 1_455
Li4 O29 2.559082 1_455
Li4 O17 2.565438 1_455
Li5 O47 2.048343 1_555
Li5 O45 2.154629 1_555
Li5 O28 2.162473 1_555
Li5 O19 2.523383 1_565
Li5 O0 2.559082 1_565
Li5 O2 2.565438 1_565
Li6 O29 1.915346 1_555
Li6 O22 2.156210 1_555
Li6 O17 2.323570 1_555
Li6 O38 2.483976 1_555
Li7 O0 1.915346 1_555
Li7 O8 2.156210 1_555
Li7 O2 2.323570 1_555
Li7 O5 2.483976 1_555
Li8 O30 1.923976 1_556
Li8 O44 2.291787 1_555
Li8 O36 2.375575 1_456
Li8 O41 2.546422 1_555
Li9 O36 1.885635 1_555
Li9 O29 2.332330 1_555
Li9 O43 2.363844 1_555
Li9 O30 2.413377 1_655
Li10 O45 1.923976 1_554
Li10 O40 2.291787 1_555
Li10 O19 2.375575 1_564
Li10 O35 2.546422 1_555
Li11 O19 1.885635 1_555
Li11 O0 2.332330 1_555
Li11 O24 2.363844 1_555
Li11 O45 2.413377 1_545
Fe0 O37 1.947952 1_545
Fe0 O38 1.962001 1_545
Fe0 O43 2.034200 1_545
Fe0 O7 2.050639 1_555
Fe0 O15 2.114317 1_555
Fe0 O16 2.114407 1_555
Fe1 O42 1.921209 1_455
Fe1 O46 1.939737 1_455
Fe1 O44 2.012421 1_555
Fe1 O23 2.037310 1_455
Fe1 O14 2.124960 1_555
Fe1 O26 2.196330 1_555
Fe2 O12 1.948190 1_555
Fe2 O6 1.948190 1_555
Fe2 O8 2.034893 1_555
Fe2 O22 2.034893 1_555
Fe2 O27 2.156260 1_555
Fe2 O13 2.156260 1_555
Fe3 O26 1.995589 1_555
Fe3 O32 1.995589 1_555
Fe3 O13 1.999511 1_555
Fe3 O27 1.999511 1_555
Fe3 O31 2.010305 1_555
Fe3 O14 2.010305 1_555
Fe4 O33 1.982391 1_554
Fe4 O15 1.982391 1_555
Fe4 O21 2.000492 1_554
Fe4 O16 2.000492 1_555
Fe4 O20 2.011592 1_555
Fe4 O34 2.011592 1_554
Fe5 O1 1.947952 1_655
Fe5 O5 1.962001 1_655
Fe5 O24 2.034200 1_655
Fe5 O3 2.050639 1_555
Fe5 O33 2.114317 1_555
Fe5 O21 2.114407 1_555
Fe6 O41 1.947734 1_554
Fe6 O35 1.947734 1_555
Fe6 O25 2.012144 1_555
Fe6 O39 2.012144 1_554
Fe6 O34 2.140279 1_554
Fe6 O20 2.140279 1_555
Fe7 O10 1.921209 1_565
Fe7 O9 1.939737 1_565
Fe7 O40 2.012421 1_555
Fe7 O4 2.037310 1_565
Fe7 O31 2.124960 1_555
Fe7 O32 2.196330 1_555
O0 P0 1.530683 1_555
O1 P0 1.553761 1_555
O2 P1 1.531681 1_555
O3 P1 1.560822 1_555
O4 P0 1.559779 1_555
O5 P2 1.558271 1_555
O6 P1 1.556585 1_555
O7 P3 1.560822 1_555
O8 P2 1.560478 1_555
O9 P4 1.556243 1_555
O10 P5 1.551345 1_555
O11 P2 1.530241 1_555
O12 P3 1.556585 1_555
O13 P10 1.586015 1_555
O14 P2 1.581722 1_555
O15 P5 1.596606 1_555
O16 P4 1.593697 1_655
O17 P3 1.531681 1_555
O18 P4 1.524659 1_555
O19 P5 1.529934 1_556
O20 P3 1.575422 1_555
O21 P11 1.593697 1_545
O22 P6 1.560478 1_555
O23 P7 1.559779 1_555
O24 P4 1.561566 1_556
O25 P5 1.544879 1_555
O26 P0 1.578390 1_565
O27 P8 1.586015 1_555
O28 P6 1.530241 1_555
O29 P7 1.530683 1_555
O30 P8 1.530588 1_555
O31 P6 1.581722 1_555
O32 P7 1.578390 1_455
O33 P9 1.596606 1_555
O34 P1 1.575422 1_555
O35 P8 1.552021 1_555
O36 P9 1.529934 1_554
O37 P7 1.553761 1_555
O38 P6 1.558271 1_555
O39 P9 1.544879 1_555
O40 P8 1.561585 1_555
O41 P10 1.552021 1_555
O42 P9 1.551345 1_555
O43 P11 1.561566 1_554
O44 P10 1.561585 1_555
O45 P10 1.530588 1_555
O46 P11 1.556243 1_555
O47 P11 1.524659 1_555
