# generated using pymatgen
data_Li3Bi3P8O29
_symmetry_space_group_name_H-M   'P 1'
_cell_length_a   10.09760521
_cell_length_b   10.09760521
_cell_length_c   14.39504388
_cell_angle_alpha   89.80979261
_cell_angle_beta   89.80979261
_cell_angle_gamma   60.10565150
_symmetry_Int_Tables_number   1
_chemical_formula_structural   Li3Bi3P8O29
_chemical_formula_sum   'Li6 Bi6 P16 O58'
_cell_volume   1272.44370192
_cell_formula_units_Z   2
loop_
 _symmetry_equiv_pos_site_id
 _symmetry_equiv_pos_as_xyz
  1  'x, y, z'
loop_
 _atom_site_type_symbol
 _atom_site_label
 _atom_site_symmetry_multiplicity
 _atom_site_fract_x
 _atom_site_fract_y
 _atom_site_fract_z
 _atom_site_occupancy
  Li  Li0  1  0.03646300  0.94388500  0.50079600  1
  Li  Li1  1  0.94388500  0.03646300  0.00079600  1
  Li  Li2  1  0.08763300  0.68149300  0.94834700  1
  Li  Li3  1  0.68149300  0.08763300  0.44834700  1
  Li  Li4  1  0.09051700  0.22737500  0.44612000  1
  Li  Li5  1  0.22737500  0.09051700  0.94612000  1
  Bi  Bi0  1  0.43720400  0.56427800  0.25179300  1
  Bi  Bi1  1  0.56427800  0.43720400  0.75179300  1
  Bi  Bi2  1  0.99884000  0.56688100  0.74544600  1
  Bi  Bi3  1  0.99596200  0.43824100  0.25008000  1
  Bi  Bi4  1  0.56688100  0.99884000  0.24544600  1
  Bi  Bi5  1  0.43824100  0.99596200  0.75008000  1
  P  P0  1  0.22300500  0.70190800  0.65317000  1
  P  P1  1  0.08335000  0.69506500  0.15553700  1
  P  P2  1  0.70190800  0.22300500  0.15317000  1
  P  P3  1  0.33117100  0.33284000  0.87986000  1
  P  P4  1  0.33284000  0.33117100  0.37986000  1
  P  P5  1  0.69506500  0.08335000  0.65553700  1
  P  P6  1  0.78212400  0.92092900  0.84499100  1
  P  P7  1  0.08433800  0.22277900  0.65272200  1
  P  P8  1  0.92092900  0.78212400  0.34499100  1
  P  P9  1  0.22277900  0.08433800  0.15272200  1
  P  P10  1  0.30147100  0.91852100  0.34054600  1
  P  P11  1  0.66530000  0.66594400  0.12253000  1
  P  P12  1  0.66594400  0.66530000  0.62253000  1
  P  P13  1  0.29922400  0.77843200  0.84562600  1
  P  P14  1  0.91852100  0.30147100  0.84054600  1
  P  P15  1  0.77843200  0.29922400  0.34562600  1
  O  O0  1  0.21807400  0.78926200  0.74795100  1
  O  O1  1  0.19722200  0.78469600  0.92258600  1
  O  O2  1  0.24383800  0.68038200  0.15981800  1
  O  O3  1  0.98742500  0.79118500  0.24426800  1
  O  O4  1  0.00984600  0.80109300  0.42072400  1
  O  O5  1  0.07842000  0.68315800  0.65376700  1
  O  O6  1  0.36941100  0.54190900  0.65595000  1
  O  O7  1  0.30756200  0.48314100  0.33398300  1
  O  O8  1  0.54190900  0.36941100  0.15595000  1
  O  O9  1  0.78469600  0.19722200  0.42258600  1
  O  O10  1  0.78926200  0.21807400  0.24795100  1
  O  O11  1  0.68038200  0.24383800  0.65981800  1
  O  O12  1  0.19392500  0.49028500  0.84361800  1
  O  O13  1  0.10236700  0.53251100  0.16067100  1
  O  O14  1  0.48314100  0.30756200  0.83398300  1
  O  O15  1  0.32880700  0.33727100  0.98410400  1
  O  O16  1  0.33727100  0.32880700  0.48410400  1
  O  O17  1  0.49028500  0.19392500  0.34361800  1
  O  O18  1  0.10870100  0.36325700  0.65995700  1
  O  O19  1  0.19521400  0.30880100  0.34668800  1
  O  O20  1  0.68315800  0.07842000  0.15376700  1
  O  O21  1  0.79118500  0.98742500  0.74426800  1
  O  O22  1  0.80109300  0.00984600  0.92072400  1
  O  O23  1  0.78064600  0.00636500  0.56865300  1
  O  O24  1  0.53251100  0.10236700  0.66067100  1
  O  O25  1  0.30880100  0.19521400  0.84668800  1
  O  O26  1  0.75495600  0.92411700  0.34674800  1
  O  O27  1  0.36325700  0.10870100  0.15995700  1
  O  O28  1  0.07551600  0.24353800  0.15760800  1
  O  O29  1  0.00636500  0.78064600  0.06865300  1
  O  O30  1  0.01477900  0.19541000  0.91594000  1
  O  O31  1  0.98650300  0.22238000  0.74055300  1
  O  O32  1  0.92411700  0.75495600  0.84674800  1
  O  O33  1  0.63396200  0.91011000  0.84702300  1
  O  O34  1  0.24353800  0.07551600  0.65760800  1
  O  O35  1  0.69576500  0.79472200  0.16125900  1
  O  O36  1  0.46100500  0.90664000  0.33952200  1
  O  O37  1  0.19541000  0.01477900  0.41594000  1
  O  O38  1  0.21732600  0.00812700  0.06513900  1
  O  O39  1  0.22238000  0.98650300  0.24055300  1
  O  O40  1  0.31767100  0.92316400  0.84977000  1
  O  O41  1  0.79472200  0.69576500  0.66125900  1
  O  O42  1  0.91011000  0.63396200  0.34702300  1
  O  O43  1  0.50852200  0.79652300  0.66183400  1
  O  O44  1  0.66428700  0.66554800  0.01862100  1
  O  O45  1  0.66554800  0.66428700  0.51862100  1
  O  O46  1  0.50909300  0.69471300  0.16470000  1
  O  O47  1  0.90664000  0.46100500  0.83952200  1
  O  O48  1  0.79652300  0.50852200  0.16183400  1
  O  O49  1  0.32149900  0.75580300  0.34647500  1
  O  O50  1  0.20777500  0.80258200  0.57341000  1
  O  O51  1  0.46212200  0.63582900  0.84379100  1
  O  O52  1  0.69471300  0.50909300  0.66470000  1
  O  O53  1  0.63582900  0.46212200  0.34379100  1
  O  O54  1  0.92316400  0.31767100  0.34977000  1
  O  O55  1  0.00812700  0.21732600  0.56513900  1
  O  O56  1  0.75580300  0.32149900  0.84647500  1
  O  O57  1  0.80258200  0.20777500  0.07341000  1
loop_
_geom_bond_atom_site_label_1
_geom_bond_atom_site_label_2
_geom_bond_distance
_geom_bond_site_symmetry_2
Li0 O50 1.913792 1_555
Li0 O4 1.969555 1_555
Li0 O37 2.388923 1_565
Li0 O23 2.527377 1_465
Li1 O57 1.913792 1_555
Li1 O22 1.969555 1_554
Li1 O30 2.388923 1_654
Li1 O29 2.527377 1_645
Li2 O1 1.895318 1_555
Li2 O29 1.964201 1_556
Li2 O32 2.050214 1_455
Li2 O12 2.257315 1_555
Li3 O9 1.895318 1_555
Li3 O23 1.964201 1_555
Li3 O26 2.050214 1_545
Li3 O17 2.257315 1_555
Li4 O37 1.911967 1_555
Li4 O55 1.926472 1_555
Li4 O54 2.020384 1_455
Li4 O19 2.165863 1_555
Li5 O30 1.911967 1_555
Li5 O38 1.926472 1_556
Li5 O40 2.020384 1_545
Li5 O25 2.165863 1_555
Bi0 O2 2.159827 1_555
Bi0 O49 2.171967 1_555
Bi0 O46 2.183905 1_555
Bi0 O53 2.187863 1_555
Bi0 O8 2.197204 1_555
Bi0 O7 2.199333 1_555
Bi1 O11 2.159827 1_555
Bi1 O56 2.171967 1_555
Bi1 O52 2.183905 1_555
Bi1 O51 2.187863 1_555
Bi1 O6 2.197204 1_555
Bi1 O14 2.199333 1_555
Bi2 O5 2.165430 1_655
Bi2 O18 2.169506 1_655
Bi2 O41 2.177798 1_555
Bi2 O47 2.194953 1_555
Bi2 O32 2.210235 1_555
Bi2 O12 2.228966 1_655
Bi3 O28 2.172215 1_655
Bi3 O13 2.172370 1_655
Bi3 O48 2.181586 1_555
Bi3 O42 2.215228 1_555
Bi3 O54 2.226074 1_555
Bi3 O19 2.252895 1_655
Bi4 O20 2.165430 1_565
Bi4 O27 2.169506 1_565
Bi4 O35 2.177798 1_555
Bi4 O36 2.194953 1_555
Bi4 O26 2.210235 1_555
Bi4 O17 2.228966 1_565
Bi5 O34 2.172215 1_565
Bi5 O24 2.172370 1_565
Bi5 O43 2.181586 1_555
Bi5 O33 2.215228 1_555
Bi5 O40 2.226074 1_555
Bi5 O25 2.252895 1_565
O0 P13 1.605507 1_555
O0 P0 1.614250 1_555
O1 P13 1.490005 1_555
O2 P1 1.553399 1_555
O3 P1 1.604557 1_655
O3 P8 1.617206 1_555
O4 P8 1.486817 1_455
O5 P0 1.562961 1_555
O6 P0 1.554500 1_555
O7 P4 1.568448 1_555
O8 P2 1.554500 1_555
O9 P15 1.490005 1_555
O10 P15 1.605507 1_555
O10 P2 1.614250 1_555
O11 P5 1.553399 1_555
O12 P3 1.588511 1_555
O13 P1 1.556166 1_555
O14 P3 1.568448 1_555
O15 P3 1.501168 1_555
O16 P4 1.501168 1_555
O17 P4 1.588511 1_555
O18 P7 1.559641 1_555
O19 P4 1.590068 1_555
O20 P2 1.562961 1_555
O21 P5 1.604557 1_565
O21 P6 1.617206 1_555
O22 P6 1.486817 1_545
O23 P5 1.498325 1_555
O24 P5 1.556166 1_555
O25 P3 1.590068 1_555
O26 P8 1.571572 1_555
O27 P9 1.559641 1_555
O28 P9 1.554859 1_555
O29 P1 1.498325 1_555
O30 P14 1.493732 1_455
O31 P7 1.603164 1_655
O31 P14 1.623426 1_555
O32 P6 1.571572 1_555
O33 P6 1.553595 1_555
O34 P7 1.554859 1_555
O35 P11 1.581469 1_555
O36 P10 1.554624 1_555
O37 P10 1.493732 1_545
O38 P9 1.494622 1_555
O39 P9 1.603164 1_565
O39 P10 1.623426 1_555
O40 P13 1.563998 1_555
O41 P12 1.581469 1_555
O42 P8 1.553595 1_555
O43 P12 1.581801 1_555
O44 P11 1.495876 1_555
O45 P12 1.495876 1_555
O46 P11 1.574447 1_555
O47 P14 1.554624 1_555
O48 P11 1.581801 1_555
O49 P10 1.554284 1_555
O50 P0 1.487579 1_555
O51 P13 1.555239 1_555
O52 P12 1.574447 1_555
O53 P15 1.555239 1_555
O54 P15 1.563998 1_555
O55 P7 1.494622 1_555
O56 P14 1.554284 1_555
O57 P2 1.487579 1_555
