# generated using pymatgen
data_LiMn3(FeO4)2
_symmetry_space_group_name_H-M   'P 1'
_cell_length_a   6.00053576
_cell_length_b   6.00053576
_cell_length_c   6.00053567
_cell_angle_alpha   60.67940292
_cell_angle_beta   60.67940292
_cell_angle_gamma   60.67939772
_symmetry_Int_Tables_number   1
_chemical_formula_structural   LiMn3(FeO4)2
_chemical_formula_sum   'Li1 Mn3 Fe2 O8'
_cell_volume   155.11899848
_cell_formula_units_Z   1
loop_
 _symmetry_equiv_pos_site_id
 _symmetry_equiv_pos_as_xyz
  1  'x, y, z'
loop_
 _atom_site_type_symbol
 _atom_site_label
 _atom_site_symmetry_multiplicity
 _atom_site_fract_x
 _atom_site_fract_y
 _atom_site_fract_z
 _atom_site_occupancy
  Li  Li0  1  0.87690300  0.87690300  0.87690300  1
  Mn  Mn0  1  0.50607700  0.50607700  0.98908000  1
  Mn  Mn1  1  0.98908000  0.50607700  0.50607700  1
  Mn  Mn2  1  0.50607700  0.98908000  0.50607700  1
  Fe  Fe0  1  0.50264400  0.50264400  0.50264400  1
  Fe  Fe1  1  0.12119700  0.12119700  0.12119700  1
  O  O0  1  0.29415700  0.73789000  0.73789000  1
  O  O1  1  0.74901400  0.74901400  0.74901400  1
  O  O2  1  0.73789000  0.29415700  0.73789000  1
  O  O3  1  0.73789000  0.73789000  0.29415700  1
  O  O4  1  0.25637500  0.25637500  0.71944500  1
  O  O5  1  0.25637500  0.71944500  0.25637500  1
  O  O6  1  0.71944500  0.25637500  0.25637500  1
  O  O7  1  0.24687500  0.24687500  0.24687500  1
loop_
_geom_bond_atom_site_label_1
_geom_bond_atom_site_label_2
_geom_bond_distance
_geom_bond_site_symmetry_2
Li0 O1 1.870035 1_555
Li0 O0 2.061773 1_655
Li0 O2 2.061773 1_565
Li0 O3 2.061773 1_556
Mn0 O0 1.978689 1_555
Mn0 O2 1.978689 1_555
Mn0 O6 2.058030 1_556
Mn0 O5 2.058030 1_556
Mn0 O1 2.071989 1_555
Mn0 O7 2.210795 1_556
Mn1 O3 1.978689 1_555
Mn1 O2 1.978689 1_555
Mn1 O4 2.058030 1_655
Mn1 O5 2.058030 1_655
Mn1 O1 2.071989 1_555
Mn1 O7 2.210795 1_655
Mn2 O3 1.978689 1_555
Mn2 O0 1.978689 1_555
Mn2 O4 2.058030 1_565
Mn2 O6 2.058030 1_565
Mn2 O1 2.071989 1_555
Mn2 O7 2.210795 1_565
Fe0 O0 2.010658 1_555
Fe0 O2 2.010658 1_555
Fe0 O3 2.010658 1_555
Fe0 O6 2.105461 1_555
Fe0 O5 2.105461 1_555
Fe0 O4 2.105461 1_555
Fe1 O7 1.837705 1_555
Fe1 O5 1.985349 1_545
Fe1 O6 1.985349 1_455
Fe1 O4 1.985349 1_554
