# generated using pymatgen
data_Li5Mn6O16
_symmetry_space_group_name_H-M   'P 1'
_cell_length_a   5.81745698
_cell_length_b   5.81531899
_cell_length_c   10.30178418
_cell_angle_alpha   106.37878895
_cell_angle_beta   89.98335507
_cell_angle_gamma   119.99144615
_symmetry_Int_Tables_number   1
_chemical_formula_structural   Li5Mn6O16
_chemical_formula_sum   'Li5 Mn6 O16'
_cell_volume   285.41818906
_cell_formula_units_Z   1
loop_
 _symmetry_equiv_pos_site_id
 _symmetry_equiv_pos_as_xyz
  1  'x, y, z'
loop_
 _atom_site_type_symbol
 _atom_site_label
 _atom_site_symmetry_multiplicity
 _atom_site_fract_x
 _atom_site_fract_y
 _atom_site_fract_z
 _atom_site_occupancy
  Li  Li0  1  0.68745500  0.37618800  0.06395500  1
  Li  Li1  1  0.80961800  0.61946500  0.42924400  1
  Li  Li2  1  0.50001400  0.99987800  0.49985400  1
  Li  Li3  1  0.19033400  0.38043800  0.57055000  1
  Li  Li4  1  0.31244000  0.62469300  0.93665800  1
  Mn  Mn0  1  0.25023100  0.49992500  0.24977400  1
  Mn  Mn1  1  0.75003500  0.99968900  0.24974900  1
  Mn  Mn2  1  0.24997900  0.99987300  0.24976800  1
  Mn  Mn3  1  0.75000600  0.00006200  0.75018200  1
  Mn  Mn4  1  0.24997100  0.99996400  0.75022400  1
  Mn  Mn5  1  0.75003700  0.49995100  0.75015000  1
  O  O0  1  0.89382400  0.78741500  0.14940000  1
  O  O1  1  0.38124800  0.76223100  0.14321700  1
  O  O2  1  0.89377100  0.25601300  0.14952900  1
  O  O3  1  0.36211500  0.25580400  0.14945000  1
  O  O4  1  0.60393900  0.75060700  0.35458300  1
  O  O5  1  0.14643800  0.75044400  0.35444300  1
  O  O6  1  0.11891500  0.23774900  0.35669000  1
  O  O7  1  0.60394700  0.20802700  0.35450300  1
  O  O8  1  0.39598000  0.79187800  0.64540700  1
  O  O9  1  0.88107700  0.76214100  0.64327200  1
  O  O10  1  0.85362600  0.24955800  0.64547100  1
  O  O11  1  0.39600900  0.24954700  0.64552000  1
  O  O12  1  0.63781300  0.74412500  0.85055300  1
  O  O13  1  0.10617400  0.74400300  0.85051400  1
  O  O14  1  0.61879400  0.23769800  0.85676600  1
  O  O15  1  0.10621000  0.21262800  0.85057500  1
loop_
_geom_bond_atom_site_label_1
_geom_bond_atom_site_label_2
_geom_bond_distance
_geom_bond_site_symmetry_2
Li0 O3 1.967250 1_555
Li0 O0 1.969310 1_555
Li0 O2 1.973009 1_555
Li0 O14 2.018247 1_554
Li1 O4 1.961757 1_555
Li1 O7 1.961810 1_555
Li1 O5 1.962500 1_655
Li1 O9 2.084864 1_555
Li2 O4 2.087740 1_555
Li2 O7 2.088754 1_565
Li2 O8 2.090034 1_555
Li2 O5 2.091031 1_555
Li2 O11 2.091631 1_565
Li2 O10 2.092271 1_565
Li3 O8 1.961878 1_555
Li3 O11 1.962164 1_555
Li3 O10 1.962597 1_455
Li3 O6 2.083227 1_555
Li4 O12 1.970846 1_555
Li4 O13 1.972058 1_555
Li4 O15 1.973823 1_555
Li4 O1 2.012107 1_556
Mn0 O3 1.898182 1_555
Mn0 O2 1.900819 1_455
Mn0 O4 1.907801 1_555
Mn0 O5 1.908611 1_555
Mn0 O1 1.973396 1_555
Mn0 O6 1.975704 1_555
Mn1 O0 1.898516 1_555
Mn1 O2 1.899575 1_565
Mn1 O4 1.907293 1_555
Mn1 O7 1.909497 1_565
Mn1 O1 1.974570 1_555
Mn1 O6 1.976483 1_665
Mn2 O3 1.898708 1_565
Mn2 O0 1.899996 1_455
Mn2 O5 1.907324 1_555
Mn2 O7 1.908516 1_565
Mn2 O1 1.974064 1_555
Mn2 O6 1.975561 1_565
Mn3 O12 1.899137 1_545
Mn3 O15 1.900277 1_655
Mn3 O10 1.907881 1_555
Mn3 O8 1.908921 1_545
Mn3 O14 1.973916 1_555
Mn3 O9 1.975739 1_545
Mn4 O13 1.898629 1_555
Mn4 O15 1.900025 1_565
Mn4 O11 1.908257 1_565
Mn4 O8 1.908376 1_555
Mn4 O14 1.974761 1_565
Mn4 O9 1.976584 1_455
Mn5 O13 1.899919 1_655
Mn5 O12 1.900108 1_555
Mn5 O10 1.907261 1_555
Mn5 O11 1.908348 1_555
Mn5 O14 1.973639 1_555
Mn5 O9 1.975460 1_555
