# generated using pymatgen
data_K3CrC5N6O
_symmetry_space_group_name_H-M   'P 1'
_cell_length_a   8.66731300
_cell_length_b   10.57268900
_cell_length_c   13.84831500
_cell_angle_alpha   90.00000000
_cell_angle_beta   90.00000000
_cell_angle_gamma   90.00000000
_symmetry_Int_Tables_number   1
_chemical_formula_structural   K3CrC5N6O
_chemical_formula_sum   'K12 Cr4 C20 N24 O4'
_cell_volume   1269.01533867
_cell_formula_units_Z   4
loop_
 _symmetry_equiv_pos_site_id
 _symmetry_equiv_pos_as_xyz
  1  'x, y, z'
loop_
 _atom_site_type_symbol
 _atom_site_label
 _atom_site_symmetry_multiplicity
 _atom_site_fract_x
 _atom_site_fract_y
 _atom_site_fract_z
 _atom_site_occupancy
  K  K0  1  0.50092900  0.00000000  0.00000000  1
  K  K1  1  0.49978500  0.23085400  0.74959100  1
  K  K2  1  0.99978500  0.73085400  0.25040900  1
  K  K3  1  0.24920300  0.00000000  0.50000000  1
  K  K4  1  0.74987600  0.72704900  0.75083700  1
  K  K5  1  0.49978500  0.76914600  0.25040900  1
  K  K6  1  0.99978500  0.26914600  0.74959100  1
  K  K7  1  0.24987600  0.22704900  0.24916300  1
  K  K8  1  0.74987600  0.27295100  0.24916300  1
  K  K9  1  0.00092900  0.50000000  0.00000000  1
  K  K10  1  0.74920300  0.50000000  0.50000000  1
  K  K11  1  0.24987600  0.77295100  0.75083700  1
  Cr  Cr0  1  0.75022900  0.00000000  0.50000000  1
  Cr  Cr1  1  0.99969800  0.00000000  0.00000000  1
  Cr  Cr2  1  0.25022900  0.50000000  0.50000000  1
  Cr  Cr3  1  0.49969800  0.50000000  0.00000000  1
  C  C0  1  0.91659200  0.94167700  0.59879500  1
  C  C1  1  0.66720700  0.55767000  0.09814100  1
  C  C2  1  0.41659200  0.55832300  0.59879500  1
  C  C3  1  0.33262400  0.55788200  0.09828700  1
  C  C4  1  0.83262400  0.05788200  0.90171300  1
  C  C5  1  0.16720700  0.05767000  0.90185900  1
  C  C6  1  0.33262400  0.44211800  0.90171300  1
  C  C7  1  0.08334200  0.44174600  0.40117200  1
  C  C8  1  0.75020300  0.82320800  0.43512400  1
  C  C9  1  0.16720700  0.94233000  0.09814100  1
  C  C10  1  0.41659200  0.44167700  0.40120500  1
  C  C11  1  0.91659200  0.05832300  0.40120500  1
  C  C12  1  0.66720700  0.44233000  0.90185900  1
  C  C13  1  0.75020300  0.17679200  0.56487600  1
  C  C14  1  0.58334200  0.94174600  0.59882800  1
  C  C15  1  0.25020300  0.32320800  0.56487600  1
  C  C16  1  0.58334200  0.05825400  0.40117200  1
  C  C17  1  0.25020300  0.67679200  0.43512400  1
  C  C18  1  0.83262400  0.94211800  0.09828700  1
  C  C19  1  0.08334200  0.55825400  0.59882800  1
  N  N0  1  0.00960000  0.90750900  0.65446400  1
  N  N1  1  0.99975400  0.84386300  0.94375500  1
  N  N2  1  0.73723900  0.90984500  0.15353600  1
  N  N3  1  0.25026600  0.22508500  0.60446200  1
  N  N4  1  0.50960000  0.40750900  0.34553600  1
  N  N5  1  0.23723900  0.59015500  0.15353600  1
  N  N6  1  0.49975400  0.65613700  0.94375500  1
  N  N7  1  0.75026600  0.27491500  0.60446200  1
  N  N8  1  0.00960000  0.09249100  0.34553600  1
  N  N9  1  0.26330800  0.91127200  0.15332200  1
  N  N10  1  0.99975400  0.15613700  0.05624500  1
  N  N11  1  0.76330800  0.41127200  0.84667800  1
  N  N12  1  0.49041600  0.09143200  0.34514300  1
  N  N13  1  0.99041600  0.40856800  0.34514300  1
  N  N14  1  0.75026600  0.72508500  0.39553800  1
  N  N15  1  0.26330800  0.08872800  0.84667800  1
  N  N16  1  0.50960000  0.59249100  0.65446400  1
  N  N17  1  0.49041600  0.90856800  0.65485700  1
  N  N18  1  0.73723900  0.09015500  0.84646400  1
  N  N19  1  0.25026600  0.77491500  0.39553800  1
  N  N20  1  0.49975400  0.34386300  0.05624500  1
  N  N21  1  0.23723900  0.40984500  0.84646400  1
  N  N22  1  0.99041600  0.59143200  0.65485700  1
  N  N23  1  0.76330800  0.58872800  0.15332200  1
  O  O0  1  0.49975700  0.75827200  0.90106500  1
  O  O1  1  0.99975700  0.74172800  0.90106500  1
  O  O2  1  0.49975700  0.24172800  0.09893500  1
  O  O3  1  0.99975700  0.25827200  0.09893500  1
loop_
_geom_bond_atom_site_label_1
_geom_bond_atom_site_label_2
_geom_bond_distance
_geom_bond_site_symmetry_2
K0 O2 2.899812 1_555
K0 O0 2.899812 1_544
K0 N18 3.102314 1_554
K0 N2 3.102314 1_545
K0 N15 3.103208 1_554
K0 N9 3.103208 1_545
K1 N18 2.871982 1_555
K1 N15 2.875164 1_555
K1 N3 2.952978 1_555
K1 N7 2.994913 1_555
K2 N5 2.871982 1_655
K2 N23 2.875164 1_555
K2 N14 2.952978 1_555
K2 N19 2.994913 1_655
K3 N19 2.784965 1_545
K3 N3 2.784965 1_555
K3 N8 3.137609 1_555
K3 N0 3.137609 1_545
K3 N17 3.147108 1_545
K3 N12 3.147108 1_555
K4 N16 2.853432 1_555
K4 N22 2.858163 1_555
K4 O1 3.007132 1_555
K4 O0 3.022693 1_555
K4 N0 3.238661 1_655
K4 N17 3.241447 1_555
K5 N2 2.871982 1_555
K5 N9 2.875164 1_555
K5 N19 2.952978 1_555
K5 N14 2.994913 1_555
K6 N21 2.871982 1_655
K6 N11 2.875164 1_555
K6 N7 2.952978 1_555
K6 N3 2.994913 1_655
K7 N8 2.853432 1_555
K7 N12 2.858163 1_555
K7 O2 3.007132 1_555
K7 O3 3.022693 1_455
K7 N4 3.238661 1_555
K7 N13 3.241447 1_455
K8 N4 2.853432 1_555
K8 N13 2.858163 1_555
K8 O3 3.007132 1_555
K8 O2 3.022693 1_555
K8 N8 3.238661 1_655
K8 N12 3.241447 1_555
K9 O3 2.899812 1_455
K9 O1 2.899812 1_454
K9 N21 3.102314 1_554
K9 N5 3.102314 1_555
K9 N11 3.103208 1_454
K9 N23 3.103208 1_455
K10 N14 2.784965 1_555
K10 N7 2.784965 1_555
K10 N4 3.137609 1_555
K10 N16 3.137609 1_555
K10 N13 3.147108 1_555
K10 N22 3.147108 1_555
K11 N0 2.853432 1_555
K11 N17 2.858163 1_555
K11 O0 3.007132 1_555
K11 O1 3.022693 1_455
K11 N16 3.238661 1_555
K11 N22 3.241447 1_455
Cr1 N1 1.825317 1_544
Cr1 N10 1.825317 1_555
Cr3 N6 1.825317 1_554
Cr3 N20 1.825317 1_555
C0 N0 1.172461 1_655
C0 Cr0 2.081150 1_565
C0 K3 3.250052 1_665
C1 N23 1.177096 1_555
C1 Cr3 2.080087 1_555
C1 K9 3.253504 1_655
C2 N16 1.172461 1_555
C2 Cr2 2.081150 1_555
C2 K10 3.250052 1_555
C3 N5 1.176987 1_555
C3 Cr3 2.079439 1_555
C3 K9 3.239166 1_555
C4 N18 1.176987 1_555
C4 Cr1 2.079439 1_556
C4 K0 3.239166 1_556
C5 N15 1.177096 1_555
C5 Cr1 2.080087 1_456
C5 K0 3.253504 1_556
C6 N21 1.176987 1_555
C6 Cr3 2.079439 1_556
C6 K9 3.239166 1_556
C7 N13 1.172083 1_455
C7 Cr2 2.084384 1_555
C7 K10 3.261859 1_455
C8 N14 1.173359 1_555
C8 Cr0 2.073873 1_565
C9 N9 1.177096 1_555
C9 Cr1 2.080087 1_465
C9 K0 3.253504 1_565
C10 N4 1.172461 1_555
C10 Cr2 2.081150 1_555
C10 K10 3.250052 1_555
C11 N8 1.172461 1_655
C11 Cr0 2.081150 1_555
C11 K3 3.250052 1_655
C12 N11 1.177096 1_555
C12 Cr3 2.080087 1_556
C12 K9 3.253504 1_656
C13 N7 1.173359 1_555
C13 Cr0 2.073873 1_555
C14 N17 1.172083 1_555
C14 Cr0 2.084384 1_565
C14 K3 3.261859 1_565
C15 N3 1.173359 1_555
C15 Cr2 2.073873 1_555
C16 N12 1.172083 1_555
C16 Cr0 2.084384 1_555
C16 K3 3.261859 1_555
C17 N19 1.173359 1_555
C17 Cr2 2.073873 1_555
C18 N2 1.176987 1_555
C18 Cr1 2.079439 1_565
C18 K0 3.239166 1_565
C19 N22 1.172083 1_455
C19 Cr2 2.084384 1_555
C19 K10 3.261859 1_455
N1 O1 1.231080 1_555
N6 O0 1.231080 1_555
N10 O3 1.231080 1_555
N20 O2 1.231080 1_555
