# generated using pymatgen
data_Li3VOF4
_symmetry_space_group_name_H-M   'P 1'
_cell_length_a   7.68066400
_cell_length_b   10.22067888
_cell_length_c   10.77929357
_cell_angle_alpha   90.52018380
_cell_angle_beta   109.11422744
_cell_angle_gamma   90.64013060
_symmetry_Int_Tables_number   1
_chemical_formula_structural   Li3VOF4
_chemical_formula_sum   'Li24 V8 O8 F32'
_cell_volume   799.41668259
_cell_formula_units_Z   8
loop_
 _symmetry_equiv_pos_site_id
 _symmetry_equiv_pos_as_xyz
  1  'x, y, z'
loop_
 _atom_site_type_symbol
 _atom_site_label
 _atom_site_symmetry_multiplicity
 _atom_site_fract_x
 _atom_site_fract_y
 _atom_site_fract_z
 _atom_site_occupancy
  Li  Li0  1  0.11002800  0.77926900  0.86618700  1
  Li  Li1  1  0.18669000  0.39186100  0.91171700  1
  Li  Li2  1  0.09176900  0.06363000  0.66200800  1
  Li  Li3  1  0.09800700  0.44170700  0.64973800  1
  Li  Li4  1  0.40725400  0.94643000  0.84217300  1
  Li  Li5  1  0.41373800  0.57248700  0.84034700  1
  Li  Li6  1  0.38126400  0.75380100  0.61870300  1
  Li  Li7  1  0.83841700  0.43993400  0.90927100  1
  Li  Li8  1  0.84896400  0.06026800  0.90366000  1
  Li  Li9  1  0.38776100  0.22483900  0.62854300  1
  Li  Li10  1  0.34656900  0.05596400  0.40408500  1
  Li  Li11  1  0.35738200  0.44360400  0.41618900  1
  Li  Li12  1  0.67310400  0.95412900  0.60123400  1
  Li  Li13  1  0.66519400  0.56272300  0.59436700  1
  Li  Li14  1  0.61463800  0.75095800  0.37453500  1
  Li  Li15  1  0.15555600  0.94692600  0.09607800  1
  Li  Li16  1  0.15567100  0.57344600  0.10275500  1
  Li  Li17  1  0.63575000  0.26795200  0.38366900  1
  Li  Li18  1  0.90104300  0.94282300  0.34216000  1
  Li  Li19  1  0.89391500  0.55380900  0.33806800  1
  Li  Li20  1  0.59268400  0.05285000  0.15842100  1
  Li  Li21  1  0.58858800  0.43560500  0.15520700  1
  Li  Li22  1  0.86627900  0.75152900  0.12220700  1
  Li  Li23  1  0.87525700  0.23072200  0.12864600  1
  V  V0  1  0.50575800  0.25402500  0.90334900  1
  V  V1  1  0.99679800  0.75049500  0.59670900  1
  V  V2  1  0.74329900  0.74829100  0.84513500  1
  V  V3  1  0.76377200  0.25257800  0.65864500  1
  V  V4  1  0.24294200  0.75179300  0.34681800  1
  V  V5  1  0.25138800  0.25282700  0.15240500  1
  V  V6  1  0.00873900  0.24876300  0.40454600  1
  V  V7  1  0.48892600  0.74166000  0.09362600  1
  O  O0  1  0.61389200  0.74156400  0.96779400  1
  O  O1  1  0.63981700  0.25662500  0.78364000  1
  O  O2  1  0.12703700  0.75430500  0.47658000  1
  O  O3  1  0.12732900  0.25020600  0.27740000  1
  O  O4  1  0.86561800  0.74938700  0.71810300  1
  O  O5  1  0.89234200  0.25020800  0.53486500  1
  O  O6  1  0.35783900  0.74397700  0.21577300  1
  O  O7  1  0.37880000  0.26535700  0.02784400  1
  F  F0  1  0.17683600  0.88434100  0.71637100  1
  F  F1  1  0.18456900  0.62360800  0.71124000  1
  F  F2  1  0.67230200  0.10591200  0.00774200  1
  F  F3  1  0.69513800  0.38698600  0.01874800  1
  F  F4  1  0.32796400  0.12213900  0.78050600  1
  F  F5  1  0.32648700  0.39230700  0.79410700  1
  F  F6  1  0.93444700  0.88049100  0.95911600  1
  F  F7  1  0.93411000  0.62272700  0.95976300  1
  F  F8  1  0.18177600  0.10474300  0.50695700  1
  F  F9  1  0.19531300  0.38796000  0.51203600  1
  F  F10  1  0.56136600  0.88674100  0.73770200  1
  F  F11  1  0.56604400  0.60796800  0.73403000  1
  F  F12  1  0.44106100  0.88184600  0.45723400  1
  F  F13  1  0.43908600  0.62506200  0.45926900  1
  F  F14  1  0.05277900  0.61395600  0.24110000  1
  F  F15  1  0.06357000  0.89121900  0.24061300  1
  F  F16  1  0.94490800  0.40103000  0.76557000  1
  F  F17  1  0.89009400  0.07860300  0.73554800  1
  F  F18  1  0.58661600  0.38664700  0.54211100  1
  F  F19  1  0.55741200  0.12992900  0.53896700  1
  F  F20  1  0.42256600  0.10473800  0.25092800  1
  F  F21  1  0.43632500  0.38934500  0.26812900  1
  F  F22  1  0.81401400  0.88571100  0.48508100  1
  F  F23  1  0.82345200  0.60576200  0.48887600  1
  F  F24  1  0.05612700  0.12142300  0.04514200  1
  F  F25  1  0.07464800  0.39344800  0.04591700  1
  F  F26  1  0.67927300  0.87620300  0.20555200  1
  F  F27  1  0.67529500  0.61597700  0.21040700  1
  F  F28  1  0.32045900  0.58609200  0.99228600  1
  F  F29  1  0.31486400  0.88692700  0.98851800  1
  F  F30  1  0.81491200  0.11825900  0.28886600  1
  F  F31  1  0.81050200  0.37559300  0.29688700  1
loop_
_geom_bond_atom_site_label_1
_geom_bond_atom_site_label_2
_geom_bond_distance
_geom_bond_site_symmetry_2
Li0 O4 2.044790 1_455
Li1 O7 2.068392 1_556
Li2 O5 2.568830 1_455
Li3 O5 2.542692 1_455
Li5 O0 2.398189 1_555
Li6 O2 2.049649 1_555
Li7 O1 2.491602 1_555
Li8 O1 2.653302 1_555
Li9 O1 2.122481 1_555
Li13 O4 2.516355 1_555
Li14 O6 2.146659 1_555
Li16 O6 2.365424 1_555
Li17 O5 2.117297 1_555
Li21 O7 2.440110 1_555
Li22 O0 2.101906 1_554
Li23 O3 2.076448 1_655
O0 V2 1.897775 1_555
O0 V7 1.900956 1_556
O1 V3 1.887710 1_555
O1 V0 1.896349 1_555
O2 V1 1.878111 1_455
O2 V4 1.888118 1_555
O3 V6 1.877733 1_555
O3 V5 1.888094 1_555
O4 V1 1.894999 1_555
O4 V2 1.897458 1_555
O5 V6 1.896091 1_655
O5 V3 1.902326 1_555
O6 V4 1.896427 1_555
O6 V7 1.901582 1_555
O7 V0 1.903117 1_554
O7 V5 1.907277 1_555
F0 Li4 1.939390 1_555
F0 Li2 1.980828 1_565
F0 V1 2.050591 1_455
F0 Li0 2.141585 1_555
F0 Li6 2.541203 1_555
F1 Li5 1.933255 1_555
F1 Li3 1.999830 1_555
F1 V1 2.047141 1_455
F1 Li6 2.452362 1_555
F1 Li0 2.499385 1_555
F2 Li20 1.991282 1_555
F2 Li8 2.078247 1_554
F2 V0 2.079827 1_554
F2 Li23 2.085810 1_555
F3 Li7 1.935277 1_554
F3 Li21 1.965827 1_555
F3 V0 2.061558 1_554
F3 Li23 2.208724 1_555
F4 Li2 1.929914 1_555
F4 Li4 1.954193 1_545
F4 V0 2.043879 1_555
F4 Li9 2.123465 1_555
F5 Li1 1.910914 1_555
F5 Li5 1.955987 1_555
F5 Li3 2.000458 1_555
F5 V0 2.071690 1_555
F6 Li15 1.959287 1_656
F6 Li8 1.988586 1_565
F6 V2 2.057879 1_555
F6 Li0 2.188482 1_655
F6 Li22 2.394057 1_556
F7 Li16 1.959801 1_656
F7 Li7 2.003929 1_555
F7 V2 2.050963 1_555
F7 Li22 2.375180 1_556
F7 Li0 2.505305 1_655
F8 Li10 2.000870 1_555
F8 Li2 2.052027 1_555
F8 V6 2.064966 1_555
F8 Li9 2.072885 1_555
F9 Li11 1.943579 1_555
F9 Li3 1.945368 1_555
F9 V6 2.063297 1_555
F9 Li9 2.327875 1_555
F10 Li4 1.979410 1_555
F10 Li6 2.041904 1_555
F10 Li12 2.051057 1_555
F10 V2 2.076113 1_555
F11 Li5 1.920777 1_555
F11 Li13 1.950969 1_555
F11 V2 2.049905 1_555
F11 Li6 2.169496 1_555
F12 Li10 1.948592 1_565
F12 V4 2.058868 1_555
F12 Li12 2.066296 1_555
F12 Li14 2.271163 1_555
F12 Li6 2.346172 1_555
F13 Li11 1.953609 1_555
F13 Li13 1.981902 1_555
F13 V4 2.071908 1_555
F13 Li14 2.257685 1_555
F13 Li6 2.313861 1_555
F14 Li16 1.946213 1_555
F14 Li19 1.946653 1_455
F14 V4 2.061896 1_555
F14 Li22 2.132344 1_455
F15 Li18 1.983363 1_455
F15 Li15 1.994656 1_555
F15 V4 2.068797 1_555
F15 Li22 2.148392 1_455
F16 Li1 2.007436 1_655
F16 Li7 2.013034 1_555
F16 Li3 2.018565 1_655
F16 V3 2.106433 1_555
F17 Li8 1.948968 1_555
F17 Li2 1.964296 1_655
F17 V3 2.080602 1_555
F17 Li12 2.198007 1_545
F18 Li13 1.911764 1_555
F18 Li11 1.937362 1_555
F18 V3 2.064112 1_555
F18 Li17 2.219402 1_555
F19 Li10 1.928372 1_555
F19 Li12 2.033604 1_545
F19 V3 2.082053 1_555
F19 Li9 2.099145 1_555
F19 Li17 2.416176 1_555
F20 Li20 1.960101 1_555
F20 Li10 1.988546 1_555
F20 V5 2.075227 1_555
F20 Li17 2.423309 1_555
F21 Li11 1.961514 1_555
F21 Li21 2.000804 1_555
F21 Li17 2.063454 1_555
F21 V5 2.069851 1_555
F22 Li18 1.960352 1_555
F22 Li12 2.028892 1_555
F22 V1 2.072669 1_555
F22 Li14 2.095192 1_555
F23 Li19 1.945344 1_555
F23 Li13 1.966313 1_555
F23 V1 2.055051 1_555
F23 Li14 2.255092 1_555
F24 Li8 1.902513 1_454
F24 Li15 1.959355 1_545
F24 V5 2.044743 1_555
F24 Li23 2.196215 1_455
F25 Li1 1.910124 1_554
F25 Li16 1.962498 1_555
F25 Li7 1.992263 1_454
F25 V5 2.068595 1_555
F26 Li20 1.944807 1_565
F26 Li18 1.961272 1_555
F26 V7 2.062466 1_555
F26 Li22 2.314970 1_555
F26 Li14 2.413163 1_555
F27 Li19 1.908757 1_555
F27 Li21 1.972125 1_555
F27 V7 2.043063 1_555
F27 Li14 2.400040 1_555
F27 Li22 2.422172 1_555
F28 Li5 1.995382 1_555
F28 Li16 2.005688 1_556
F28 V7 2.095829 1_556
F28 Li1 2.255999 1_555
F29 Li0 2.000268 1_555
F29 Li4 2.025536 1_555
F29 Li15 2.037259 1_556
F29 V7 2.087659 1_556
F30 Li20 1.929526 1_555
F30 Li18 1.943989 1_545
F30 V6 2.063974 1_655
F30 Li23 2.251035 1_555
F30 Li17 2.493651 1_555
F31 Li19 1.923101 1_555
F31 Li21 1.987296 1_555
F31 V6 2.063883 1_655
F31 Li17 2.166778 1_555
F31 Li23 2.507397 1_555
