# generated using pymatgen
data_AlGaO3
_symmetry_space_group_name_H-M   'P 1'
_cell_length_a   4.99509200
_cell_length_b   8.62502800
_cell_length_c   9.15976100
_cell_angle_alpha   90.00000000
_cell_angle_beta   90.00000000
_cell_angle_gamma   90.00000000
_symmetry_Int_Tables_number   1
_chemical_formula_structural   AlGaO3
_chemical_formula_sum   'Al8 Ga8 O24'
_cell_volume   394.62822781
_cell_formula_units_Z   8
loop_
 _symmetry_equiv_pos_site_id
 _symmetry_equiv_pos_as_xyz
  1  'x, y, z'
loop_
 _atom_site_type_symbol
 _atom_site_label
 _atom_site_symmetry_multiplicity
 _atom_site_fract_x
 _atom_site_fract_y
 _atom_site_fract_z
 _atom_site_occupancy
  Al  Al0  1  0.18054200  0.46609300  0.79031900  1
  Al  Al1  1  0.18970600  0.15730600  0.58468300  1
  Al  Al2  1  0.31029400  0.65730600  0.08468300  1
  Al  Al3  1  0.31945800  0.96609300  0.29031900  1
  Al  Al4  1  0.68054200  0.03390700  0.79031900  1
  Al  Al5  1  0.68970600  0.34269400  0.58468300  1
  Al  Al6  1  0.81029400  0.84269400  0.08468300  1
  Al  Al7  1  0.81945800  0.53390700  0.29031900  1
  Ga  Ga0  1  0.18254600  0.14940500  0.99172200  1
  Ga  Ga1  1  0.18631900  0.84208200  0.80760000  1
  Ga  Ga2  1  0.31368100  0.34208200  0.30760000  1
  Ga  Ga3  1  0.31745400  0.64940500  0.49172200  1
  Ga  Ga4  1  0.68254600  0.35059500  0.99172200  1
  Ga  Ga5  1  0.68631900  0.65791800  0.80760000  1
  Ga  Ga6  1  0.81368100  0.15791800  0.30760000  1
  Ga  Ga7  1  0.81745400  0.85059500  0.49172200  1
  O  O0  1  0.03216100  0.33601000  0.93243500  1
  O  O1  1  0.03788400  0.01253900  0.43279300  1
  O  O2  1  0.01945400  0.67927000  0.93469400  1
  O  O3  1  0.14861600  0.83101200  0.17004500  1
  O  O4  1  0.16866900  0.15436100  0.19702500  1
  O  O5  1  0.15033800  0.50795100  0.20307600  1
  O  O6  1  0.34966200  0.00795100  0.70307600  1
  O  O7  1  0.33133100  0.65436100  0.69702500  1
  O  O8  1  0.35138400  0.33101200  0.67004500  1
  O  O9  1  0.48054600  0.17927000  0.43469400  1
  O  O10  1  0.46211600  0.51253900  0.93279300  1
  O  O11  1  0.46783900  0.83601000  0.43243500  1
  O  O12  1  0.53216100  0.16399000  0.93243500  1
  O  O13  1  0.53788400  0.48746100  0.43279300  1
  O  O14  1  0.51945400  0.82073000  0.93469400  1
  O  O15  1  0.64861600  0.66898800  0.17004500  1
  O  O16  1  0.66866900  0.34563900  0.19702500  1
  O  O17  1  0.65033800  0.99204900  0.20307600  1
  O  O18  1  0.84966200  0.49204900  0.70307600  1
  O  O19  1  0.83133100  0.84563900  0.69702500  1
  O  O20  1  0.85138400  0.16898800  0.67004500  1
  O  O21  1  0.98054600  0.32073000  0.43469400  1
  O  O22  1  0.96211600  0.98746100  0.93279300  1
  O  O23  1  0.96783900  0.66399000  0.43243500  1
loop_
_geom_bond_atom_site_label_1
_geom_bond_atom_site_label_2
_geom_bond_distance
_geom_bond_site_symmetry_2
Al0 O8 1.816411 1_555
Al0 O18 1.849429 1_455
Al0 O0 1.871552 1_555
Al0 O10 1.960047 1_555
Al0 O7 1.983521 1_555
Al0 O2 2.403533 1_555
Al1 O6 1.863831 1_555
Al1 O20 1.864790 1_455
Al1 O8 1.873028 1_555
Al1 O9 2.008466 1_555
Al1 O1 2.017379 1_555
Al1 O21 2.228418 1_455
Al2 O5 1.863831 1_555
Al2 O15 1.864790 1_555
Al2 O3 1.873028 1_555
Al2 O2 2.008466 1_554
Al2 O10 2.017379 1_554
Al2 O14 2.228418 1_554
Al3 O3 1.816411 1_555
Al3 O17 1.849429 1_555
Al3 O11 1.871552 1_555
Al3 O1 1.960047 1_565
Al3 O4 1.983521 1_565
Al3 O9 2.403533 1_565
Al4 O20 1.816411 1_555
Al4 O6 1.849429 1_555
Al4 O12 1.871552 1_555
Al4 O22 1.960047 1_545
Al4 O19 1.983521 1_545
Al4 O14 2.403533 1_545
Al5 O18 1.863831 1_555
Al5 O8 1.864790 1_555
Al5 O20 1.873028 1_555
Al5 O21 2.008466 1_555
Al5 O13 2.017379 1_555
Al5 O9 2.228418 1_555
Al6 O17 1.863831 1_555
Al6 O3 1.864790 1_655
Al6 O15 1.873028 1_555
Al6 O14 2.008466 1_554
Al6 O22 2.017379 1_554
Al6 O2 2.228418 1_654
Al7 O15 1.816411 1_555
Al7 O5 1.849429 1_655
Al7 O23 1.871552 1_555
Al7 O13 1.960047 1_555
Al7 O16 1.983521 1_555
Al7 O21 2.403533 1_555
Ga0 O12 1.833168 1_555
Ga0 O0 1.857308 1_555
Ga0 O22 1.858677 1_445
Ga0 O4 1.882289 1_556
Ga1 O6 1.905005 1_565
Ga1 O2 2.005472 1_555
Ga1 O22 2.035062 1_455
Ga1 O14 2.039164 1_555
Ga1 O19 2.042307 1_455
Ga1 O7 2.042549 1_555
Ga2 O5 1.905005 1_555
Ga2 O9 2.005472 1_555
Ga2 O13 2.035062 1_555
Ga2 O21 2.039164 1_455
Ga2 O16 2.042307 1_555
Ga2 O4 2.042549 1_555
Ga3 O23 1.833168 1_455
Ga3 O11 1.857308 1_555
Ga3 O13 1.858677 1_555
Ga3 O7 1.882289 1_555
Ga4 O0 1.833168 1_655
Ga4 O12 1.857308 1_555
Ga4 O10 1.858677 1_555
Ga4 O16 1.882289 1_556
Ga5 O18 1.905005 1_555
Ga5 O14 2.005472 1_555
Ga5 O10 2.035062 1_555
Ga5 O2 2.039164 1_655
Ga5 O7 2.042307 1_555
Ga5 O19 2.042549 1_555
Ga6 O17 1.905005 1_545
Ga6 O21 2.005472 1_555
Ga6 O1 2.035062 1_655
Ga6 O9 2.039164 1_555
Ga6 O4 2.042307 1_655
Ga6 O16 2.042549 1_555
Ga7 O11 1.833168 1_555
Ga7 O23 1.857308 1_555
Ga7 O1 1.858677 1_665
Ga7 O19 1.882289 1_555
