# generated using pymatgen
data_Na3MnAsCO7
_symmetry_space_group_name_H-M   'P 1'
_cell_length_a   8.79009073
_cell_length_b   8.79053558
_cell_length_c   10.61981011
_cell_angle_alpha   107.29096480
_cell_angle_beta   107.27644458
_cell_angle_gamma   106.09262574
_symmetry_Int_Tables_number   1
_chemical_formula_structural   Na3MnAsCO7
_chemical_formula_sum   'Na12 Mn4 As4 C4 O28'
_cell_volume   685.41931504
_cell_formula_units_Z   4
loop_
 _symmetry_equiv_pos_site_id
 _symmetry_equiv_pos_as_xyz
  1  'x, y, z'
loop_
 _atom_site_type_symbol
 _atom_site_label
 _atom_site_symmetry_multiplicity
 _atom_site_fract_x
 _atom_site_fract_y
 _atom_site_fract_z
 _atom_site_occupancy
  Na  Na0  1  0.54450000  0.29456900  0.08042600  1
  Na  Na1  1  0.04447900  0.79458800  0.08042600  1
  Na  Na2  1  0.95543100  0.20534300  0.91960900  1
  Na  Na3  1  0.45544600  0.70535000  0.91958000  1
  Na  Na4  1  0.25150800  0.24830100  0.25380600  1
  Na  Na5  1  0.75160200  0.74829800  0.25377200  1
  Na  Na6  1  0.49829500  0.00151800  0.25382200  1
  Na  Na7  1  0.99832000  0.50145900  0.25385400  1
  Na  Na8  1  0.00169300  0.49856100  0.74622000  1
  Na  Na9  1  0.50166400  0.99852400  0.74620700  1
  Na  Na10  1  0.24850300  0.25169700  0.74626600  1
  Na  Na11  1  0.74846100  0.75168200  0.74626600  1
  Mn  Mn0  1  0.44046000  0.69039900  0.35198300  1
  Mn  Mn1  1  0.05995600  0.81006600  0.64791400  1
  Mn  Mn2  1  0.94032700  0.19029300  0.35214200  1
  Mn  Mn3  1  0.56014900  0.31013700  0.64806900  1
  As  As0  1  0.68142000  0.43144200  0.41272000  1
  As  As1  1  0.18143200  0.93143900  0.41273100  1
  As  As2  1  0.81863300  0.06860500  0.58731000  1
  As  As3  1  0.31860600  0.56859300  0.58722400  1
  C  C0  1  0.76979800  0.01983900  0.05739600  1
  C  C1  1  0.26978000  0.51981500  0.05735100  1
  C  C2  1  0.73012400  0.48008600  0.94263700  1
  C  C3  1  0.23010800  0.98008600  0.94262500  1
  O  O0  1  0.31190900  0.06180500  0.08254000  1
  O  O1  1  0.81192600  0.56180900  0.08255100  1
  O  O2  1  0.18799600  0.43812000  0.91744100  1
  O  O3  1  0.68800600  0.93812500  0.91747200  1
  O  O4  1  0.91140700  0.16135200  0.11676100  1
  O  O5  1  0.41140100  0.66133700  0.11670600  1
  O  O6  1  0.58852600  0.33858800  0.88326400  1
  O  O7  1  0.08851500  0.83857900  0.88326700  1
  O  O8  1  0.71146600  0.96145600  0.14091500  1
  O  O9  1  0.21144900  0.46143100  0.14086400  1
  O  O10  1  0.78847000  0.53847100  0.85910700  1
  O  O11  1  0.28846000  0.03849400  0.85910900  1
  O  O12  1  0.52838000  0.27834900  0.43293000  1
  O  O13  1  0.02838400  0.77833700  0.43293800  1
  O  O14  1  0.97157900  0.22162600  0.56700300  1
  O  O15  1  0.47147700  0.72152000  0.56679100  1
  O  O16  1  0.66955400  0.91945300  0.41614500  1
  O  O17  1  0.16939000  0.41930100  0.41614800  1
  O  O18  1  0.83051200  0.58062600  0.58387400  1
  O  O19  1  0.33053000  0.08061300  0.58387900  1
  O  O20  1  0.57463300  0.51837000  0.30835400  1
  O  O21  1  0.07459000  0.01834600  0.30838200  1
  O  O22  1  0.76859100  0.32483900  0.30844700  1
  O  O23  1  0.26859000  0.82488800  0.30841900  1
  O  O24  1  0.73137000  0.17508800  0.69156400  1
  O  O25  1  0.23143300  0.67514900  0.69154000  1
  O  O26  1  0.92535500  0.98158200  0.69162300  1
  O  O27  1  0.42540900  0.48165600  0.69160700  1
loop_
_geom_bond_atom_site_label_1
_geom_bond_atom_site_label_2
_geom_bond_distance
_geom_bond_site_symmetry_2
Na0 O6 2.358704 1_554
Na0 O0 2.470325 1_555
Na0 O20 2.509810 1_555
Na0 O22 2.511561 1_555
Na0 O11 2.561439 1_554
Na0 O1 2.814340 1_555
Na1 O7 2.358612 1_554
Na1 O1 2.470263 1_455
Na1 O21 2.509918 1_565
Na1 O23 2.511330 1_555
Na1 O10 2.561483 1_454
Na1 O0 2.814297 1_565
Na2 O4 2.358498 1_556
Na2 O2 2.470544 1_655
Na2 O26 2.510276 1_545
Na2 O24 2.511668 1_555
Na2 O9 2.561150 1_656
Na2 O3 2.814156 1_545
Na3 O5 2.358371 1_556
Na3 O3 2.470188 1_555
Na3 O27 2.510040 1_555
Na3 O25 2.511622 1_555
Na3 O8 2.561550 1_556
Na3 O2 2.814342 1_555
Na4 O17 2.356491 1_555
Na4 O0 2.358220 1_555
Na4 O12 2.491292 1_555
Na4 O21 2.515865 1_555
Na4 O9 2.554094 1_555
Na4 O4 2.669697 1_455
Na4 O20 2.916501 1_555
Na5 O16 2.356957 1_555
Na5 O1 2.357448 1_555
Na5 O13 2.490950 1_655
Na5 O20 2.515948 1_555
Na5 O8 2.553872 1_555
Na5 O5 2.670478 1_555
Na5 O21 2.915363 1_665
Na6 O0 2.357547 1_555
Na6 O16 2.357569 1_545
Na6 O12 2.490522 1_555
Na6 O23 2.513235 1_545
Na6 O8 2.553852 1_545
Na6 O5 2.670347 1_545
Na6 O22 2.918403 1_555
Na7 O17 2.357106 1_655
Na7 O1 2.358083 1_555
Na7 O13 2.490780 1_655
Na7 O22 2.513315 1_555
Na7 O9 2.554025 1_655
Na7 O4 2.669713 1_555
Na7 O23 2.919158 1_655
Na8 O18 2.357377 1_455
Na8 O2 2.357628 1_555
Na8 O14 2.491593 1_455
Na8 O25 2.513855 1_555
Na8 O10 2.553862 1_455
Na8 O7 2.669113 1_555
Na8 O24 2.919329 1_455
Na9 O19 2.357195 1_565
Na9 O3 2.357865 1_555
Na9 O15 2.492713 1_555
Na9 O24 2.513291 1_565
Na9 O11 2.553919 1_565
Na9 O6 2.669416 1_565
Na9 O25 2.918305 1_555
Na10 O19 2.356606 1_555
Na10 O2 2.357873 1_555
Na10 O14 2.492194 1_455
Na10 O27 2.516416 1_555
Na10 O11 2.553818 1_555
Na10 O6 2.669126 1_555
Na10 O26 2.916501 1_445
Na11 O18 2.356663 1_555
Na11 O3 2.357878 1_555
Na11 O15 2.493257 1_555
Na11 O26 2.515893 1_555
Na11 O10 2.553961 1_555
Na11 O7 2.669359 1_655
Na11 O27 2.915484 1_555
Mn0 O15 2.138081 1_555
Mn0 O16 2.166859 1_555
Mn0 O20 2.188443 1_555
Mn0 O23 2.189572 1_555
Mn0 O9 2.349620 1_555
Mn0 O5 2.361947 1_555
Mn1 O13 2.137559 1_555
Mn1 O18 2.170909 1_455
Mn1 O26 2.188070 1_455
Mn1 O25 2.189991 1_555
Mn1 O11 2.346895 1_565
Mn1 O7 2.364932 1_555
Mn2 O14 2.137757 1_555
Mn2 O17 2.166862 1_655
Mn2 O21 2.188743 1_655
Mn2 O22 2.189288 1_555
Mn2 O8 2.349302 1_545
Mn2 O4 2.363585 1_555
Mn3 O12 2.138772 1_555
Mn3 O19 2.171846 1_555
Mn3 O27 2.188757 1_555
Mn3 O24 2.188935 1_555
Mn3 O10 2.345335 1_555
Mn3 O6 2.363774 1_555
As0 O18 1.719431 1_555
As0 O20 1.725285 1_555
As0 O22 1.725315 1_555
As0 O12 1.733888 1_555
As1 O19 1.719384 1_565
As1 O21 1.725260 1_565
As1 O23 1.725262 1_555
As1 O13 1.733959 1_555
As2 O16 1.719408 1_545
As2 O26 1.725324 1_545
As2 O24 1.725325 1_555
As2 O14 1.733619 1_555
As3 O17 1.719415 1_555
As3 O25 1.725412 1_555
As3 O27 1.725525 1_555
As3 O15 1.733515 1_555
C0 O3 1.298306 1_544
C0 O4 1.305223 1_555
C0 O8 1.306837 1_545
C1 O2 1.298170 1_554
C1 O5 1.305333 1_555
C1 O9 1.306779 1_555
C2 O1 1.298229 1_556
C2 O6 1.305091 1_555
C2 O10 1.307011 1_555
C3 O0 1.298235 1_566
C3 O7 1.305124 1_555
C3 O11 1.307000 1_565
