# generated using pymatgen
data_Mn6O7F5
_symmetry_space_group_name_H-M   'P 1'
_cell_length_a   4.60132000
_cell_length_b   5.60530985
_cell_length_c   15.36608485
_cell_angle_alpha   89.86375884
_cell_angle_beta   89.87844001
_cell_angle_gamma   89.11486804
_symmetry_Int_Tables_number   1
_chemical_formula_structural   Mn6O7F5
_chemical_formula_sum   'Mn12 O14 F10'
_cell_volume   396.27008850
_cell_formula_units_Z   2
loop_
 _symmetry_equiv_pos_site_id
 _symmetry_equiv_pos_as_xyz
  1  'x, y, z'
loop_
 _atom_site_type_symbol
 _atom_site_label
 _atom_site_symmetry_multiplicity
 _atom_site_fract_x
 _atom_site_fract_y
 _atom_site_fract_z
 _atom_site_occupancy
  Mn  Mn0  1  0.01961300  0.83559800  0.58975900  1
  Mn  Mn1  1  0.99464600  0.15652200  0.75202100  1
  Mn  Mn2  1  0.02387700  0.82120900  0.92218500  1
  Mn  Mn3  1  0.01280900  0.83219700  0.25442700  1
  Mn  Mn4  1  0.00272000  0.14878100  0.42516800  1
  Mn  Mn5  1  0.05264900  0.15241600  0.08579000  1
  Mn  Mn6  1  0.49420700  0.65585800  0.41350400  1
  Mn  Mn7  1  0.48540400  0.64441200  0.07916300  1
  Mn  Mn8  1  0.50457800  0.65121700  0.74620200  1
  Mn  Mn9  1  0.51837700  0.37932500  0.91406300  1
  Mn  Mn10  1  0.49658100  0.36278300  0.57291200  1
  Mn  Mn11  1  0.48672900  0.35584300  0.24757800  1
  O  O0  1  0.21075600  0.88518900  0.69954900  1
  O  O1  1  0.21595500  0.89303900  0.36607300  1
  O  O2  1  0.23496100  0.88020300  0.03139100  1
  O  O3  1  0.22788300  0.11273700  0.53288200  1
  O  O4  1  0.22363800  0.10511000  0.19904200  1
  O  O5  1  0.28828800  0.60770000  0.85488100  1
  O  O6  1  0.27696900  0.60792900  0.52197200  1
  O  O7  1  0.27312100  0.59698000  0.18490600  1
  O  O8  1  0.29233700  0.39642500  0.02013000  1
  O  O9  1  0.71804300  0.61860600  0.97429500  1
  O  O10  1  0.73571000  0.39327000  0.80489800  1
  O  O11  1  0.72385800  0.60903900  0.63734000  1
  O  O12  1  0.71654900  0.38138200  0.46990300  1
  O  O13  1  0.71447400  0.61480600  0.30432100  1
  F  F0  1  0.25689100  0.12342800  0.86553400  1
  F  F1  1  0.25414300  0.37699500  0.68365200  1
  F  F2  1  0.23208800  0.39059500  0.35817500  1
  F  F3  1  0.75211300  0.38350700  0.13197900  1
  F  F4  1  0.77058700  0.90051600  0.81371900  1
  F  F5  1  0.77123200  0.87802800  0.48345900  1
  F  F6  1  0.73746600  0.12193300  0.63828300  1
  F  F7  1  0.78278100  0.13149800  0.97246300  1
  F  F8  1  0.75197600  0.87350600  0.13809400  1
  F  F9  1  0.74599400  0.12141600  0.31029000  1
loop_
_geom_bond_atom_site_label_1
_geom_bond_atom_site_label_2
_geom_bond_distance
_geom_bond_site_symmetry_2
Mn0 O0 1.926914 1_555
Mn0 O11 2.010968 1_455
Mn0 O6 2.017479 1_555
Mn0 O3 2.032584 1_565
Mn1 O10 1.947548 1_555
Mn1 O0 1.976809 1_645
Mn2 O2 1.971826 1_556
Mn2 O5 1.984347 1_555
Mn2 O9 1.987829 1_455
Mn3 O1 1.988123 1_555
Mn3 O13 1.999953 1_455
Mn3 O4 2.010396 1_565
Mn3 O7 2.065597 1_555
Mn4 O1 1.949658 1_545
Mn4 O3 1.962888 1_555
Mn4 O12 1.963076 1_455
Mn5 O2 1.922022 1_545
Mn5 O4 1.927416 1_555
Mn5 O8 2.034785 1_555
Mn6 O6 1.961739 1_555
Mn6 O13 1.970359 1_555
Mn6 O1 1.970961 1_555
Mn6 O12 2.028191 1_555
Mn7 O2 1.888272 1_555
Mn7 O8 1.895210 1_555
Mn7 O7 1.914205 1_555
Mn7 O9 1.937119 1_554
Mn8 O5 1.958896 1_555
Mn8 O11 1.964556 1_555
Mn8 O10 1.996357 1_555
Mn8 O0 2.001645 1_555
Mn9 O5 1.882349 1_555
Mn9 O9 1.883397 1_555
Mn9 O8 1.933336 1_556
Mn9 O10 1.953106 1_555
Mn10 O6 1.864768 1_555
Mn10 O12 1.880526 1_555
Mn10 O3 1.982993 1_555
Mn10 O11 2.008628 1_555
Mn11 O7 1.917602 1_555
Mn11 O13 2.005576 1_555
Mn11 O4 2.014530 1_555
F0 Mn9 2.030611 1_555
F0 Mn1 2.129168 1_455
F0 Mn2 2.195954 1_545
F1 Mn1 2.022556 1_455
F1 Mn10 2.033762 1_555
F1 Mn8 2.163515 1_555
F2 Mn4 2.010906 1_555
F2 Mn11 2.070017 1_555
F2 Mn6 2.110467 1_555
F3 Mn5 2.009678 1_655
F3 Mn7 2.060730 1_555
F3 Mn11 2.160038 1_555
F4 Mn1 2.013951 1_565
F4 Mn2 2.079068 1_655
F4 Mn8 2.142978 1_555
F5 Mn0 2.007102 1_655
F5 Mn4 2.068704 1_665
F5 Mn6 2.095798 1_555
F6 Mn10 2.003045 1_555
F6 Mn1 2.123654 1_555
F6 Mn0 2.180510 1_645
F7 Mn9 2.040010 1_555
F7 Mn5 2.145409 1_656
F7 Mn2 2.189918 1_645
F8 Mn7 2.008093 1_555
F8 Mn3 2.165188 1_655
F8 Mn5 2.249506 1_665
F9 Mn11 2.007204 1_555
F9 Mn4 2.133237 1_655
F9 Mn3 2.193836 1_645
