# generated using pymatgen
data_Fe3Co7O20
_symmetry_space_group_name_H-M   'P 1'
_cell_length_a   2.89538200
_cell_length_b   5.78964000
_cell_length_c   20.58770982
_cell_angle_alpha   82.24012974
_cell_angle_beta   90.00000000
_cell_angle_gamma   90.00000000
_symmetry_Int_Tables_number   1
_chemical_formula_structural   Fe3Co7O20
_chemical_formula_sum   'Fe3 Co7 O20'
_cell_volume   341.95594755
_cell_formula_units_Z   1
loop_
 _symmetry_equiv_pos_site_id
 _symmetry_equiv_pos_as_xyz
  1  'x, y, z'
loop_
 _atom_site_type_symbol
 _atom_site_label
 _atom_site_symmetry_multiplicity
 _atom_site_fract_x
 _atom_site_fract_y
 _atom_site_fract_z
 _atom_site_occupancy
  Fe  Fe0  1  0.00000000  0.09865600  0.79903800  1
  Fe  Fe1  1  0.00000000  0.50000000  0.00000000  1
  Fe  Fe2  1  0.00000000  0.90134400  0.20096200  1
  Co  Co0  1  0.50000000  0.89508600  0.69821100  1
  Co  Co1  1  0.50000000  0.30023100  0.89945500  1
  Co  Co2  1  0.50000000  0.69976900  0.10054500  1
  Co  Co3  1  0.00000000  0.30122500  0.40062300  1
  Co  Co4  1  0.50000000  0.10491400  0.30178900  1
  Co  Co5  1  0.50000000  0.50000000  0.50000000  1
  Co  Co6  1  0.00000000  0.69877500  0.59937700  1
  O  O0  1  0.00000000  0.68591300  0.69190600  1
  O  O1  1  0.50000000  0.90797300  0.60632200  1
  O  O2  1  0.50000000  0.32243100  0.80778300  1
  O  O3  1  0.00000000  0.10601500  0.70274400  1
  O  O4  1  0.50000000  0.87601200  0.79088800  1
  O  O5  1  0.00000000  0.51049800  0.90303700  1
  O  O6  1  0.00000000  0.08936200  0.89582500  1
  O  O7  1  0.50000000  0.27724700  0.99128400  1
  O  O8  1  0.00000000  0.48950200  0.09696300  1
  O  O9  1  0.50000000  0.72275300  0.00871600  1
  O  O10  1  0.00000000  0.91063800  0.10417500  1
  O  O11  1  0.50000000  0.67756900  0.19221700  1
  O  O12  1  0.00000000  0.31408700  0.30809400  1
  O  O13  1  0.50000000  0.12398800  0.20911200  1
  O  O14  1  0.00000000  0.89398500  0.29725600  1
  O  O15  1  0.00000000  0.29072200  0.49313800  1
  O  O16  1  0.50000000  0.51001300  0.40757500  1
  O  O17  1  0.50000000  0.09202700  0.39367800  1
  O  O18  1  0.00000000  0.70927800  0.50686200  1
  O  O19  1  0.50000000  0.48998700  0.59242500  1
loop_
_geom_bond_atom_site_label_1
_geom_bond_atom_site_label_2
_geom_bond_distance
_geom_bond_site_symmetry_2
Fe0 O4 1.960603 1_445
Fe0 O4 1.960603 1_545
Fe0 O2 1.967163 1_455
Fe0 O2 1.967163 1_555
Fe0 O3 1.977171 1_555
Fe0 O6 1.986073 1_555
Fe1 O9 1.963090 1_455
Fe1 O9 1.963090 1_555
Fe1 O7 1.963090 1_454
Fe1 O7 1.963090 1_554
Fe1 O8 1.988951 1_555
Fe1 O5 1.988951 1_554
Fe2 O13 1.960603 1_465
Fe2 O13 1.960603 1_565
Fe2 O11 1.967163 1_455
Fe2 O11 1.967163 1_555
Fe2 O14 1.977171 1_555
Fe2 O10 1.986073 1_555
Co0 O1 1.883162 1_555
Co0 O4 1.896256 1_555
Co0 O0 1.903081 1_555
Co0 O0 1.903081 1_655
Co0 O3 1.904372 1_565
Co0 O3 1.904372 1_665
Co1 O2 1.874294 1_555
Co1 O7 1.877218 1_555
Co1 O5 1.899337 1_655
Co1 O5 1.899337 1_555
Co1 O6 1.901715 1_555
Co1 O6 1.901715 1_655
Co2 O11 1.874294 1_555
Co2 O9 1.877218 1_555
Co2 O8 1.899337 1_555
Co2 O8 1.899337 1_655
Co2 O10 1.901715 1_655
Co2 O10 1.901715 1_555
Co3 O12 1.896342 1_555
Co3 O15 1.897418 1_555
Co3 O16 1.903741 1_555
Co3 O16 1.903741 1_455
Co3 O17 1.905250 1_555
Co3 O17 1.905250 1_455
Co4 O17 1.883162 1_555
Co4 O13 1.896256 1_555
Co4 O12 1.903081 1_555
Co4 O12 1.903081 1_655
Co4 O14 1.904372 1_545
Co4 O14 1.904372 1_645
Co5 O19 1.895862 1_555
Co5 O16 1.895862 1_555
Co5 O18 1.905275 1_655
Co5 O18 1.905275 1_555
Co5 O15 1.905275 1_655
Co5 O15 1.905275 1_555
Co6 O0 1.896342 1_555
Co6 O18 1.897418 1_555
Co6 O19 1.903741 1_555
Co6 O19 1.903741 1_455
Co6 O1 1.905250 1_455
Co6 O1 1.905250 1_555
