# generated using pymatgen
data_BaCaP2(HO4)2
_symmetry_space_group_name_H-M   'P 1'
_cell_length_a   8.03806000
_cell_length_b   9.66133300
_cell_length_c   9.97688763
_cell_angle_alpha   64.53142007
_cell_angle_beta   90.00000000
_cell_angle_gamma   90.00000000
_symmetry_Int_Tables_number   1
_chemical_formula_structural   BaCaP2(HO4)2
_chemical_formula_sum   'Ba4 Ca4 P8 H8 O32'
_cell_volume   699.49584742
_cell_formula_units_Z   4
loop_
 _symmetry_equiv_pos_site_id
 _symmetry_equiv_pos_as_xyz
  1  'x, y, z'
loop_
 _atom_site_type_symbol
 _atom_site_label
 _atom_site_symmetry_multiplicity
 _atom_site_fract_x
 _atom_site_fract_y
 _atom_site_fract_z
 _atom_site_occupancy
  Ba  Ba0  1  0.35446800  0.55152400  0.77337200  1
  Ba  Ba1  1  0.85446800  0.94847600  0.22662800  1
  Ba  Ba2  1  0.64553200  0.44847600  0.22662800  1
  Ba  Ba3  1  0.14553200  0.05152400  0.77337200  1
  Ca  Ca0  1  0.35831700  0.78937900  0.27446100  1
  Ca  Ca1  1  0.85831700  0.71062100  0.72553900  1
  Ca  Ca2  1  0.64168300  0.21062100  0.72553900  1
  Ca  Ca3  1  0.14168300  0.28937900  0.27446100  1
  P  P0  1  0.23740300  0.92577000  0.49898100  1
  P  P1  1  0.73740300  0.57423000  0.50101900  1
  P  P2  1  0.76259700  0.07423000  0.50101900  1
  P  P3  1  0.26259700  0.42577000  0.49898100  1
  P  P4  1  0.43729600  0.16586700  0.07331700  1
  P  P5  1  0.93729600  0.33413300  0.92668300  1
  P  P6  1  0.56270400  0.83413300  0.92668300  1
  P  P7  1  0.06270400  0.66586700  0.07331700  1
  H  H0  1  0.52135700  0.87154000  0.51587000  1
  H  H1  1  0.02135700  0.62846000  0.48413000  1
  H  H2  1  0.47864300  0.12846000  0.48413000  1
  H  H3  1  0.97864300  0.37154000  0.51587000  1
  H  H4  1  0.33177000  0.66173800  0.04740000  1
  H  H5  1  0.83177000  0.83826200  0.95260000  1
  H  H6  1  0.66823000  0.33826200  0.95260000  1
  H  H7  1  0.16823000  0.16173800  0.04740000  1
  O  O0  1  0.66056200  0.55989700  0.64694700  1
  O  O1  1  0.16056200  0.94010300  0.35305300  1
  O  O2  1  0.33943800  0.44010300  0.35305300  1
  O  O3  1  0.83943800  0.05989700  0.64694700  1
  O  O4  1  0.36540300  0.33220300  0.63881300  1
  O  O5  1  0.86540300  0.16779700  0.36118700  1
  O  O6  1  0.63459700  0.66779700  0.36118700  1
  O  O7  1  0.13459700  0.83220300  0.63881300  1
  O  O8  1  0.21333600  0.58348400  0.49132100  1
  O  O9  1  0.71333600  0.91651600  0.50867900  1
  O  O10  1  0.78666400  0.41651600  0.50867900  1
  O  O11  1  0.28666400  0.08348400  0.49132100  1
  O  O12  1  0.40605400  0.82611300  0.51673500  1
  O  O13  1  0.90605400  0.67388700  0.48326500  1
  O  O14  1  0.59394600  0.17388700  0.48326500  1
  O  O15  1  0.09394600  0.32611300  0.51673500  1
  O  O16  1  0.02798700  0.48002100  0.82179800  1
  O  O17  1  0.52798700  0.01997900  0.17820200  1
  O  O18  1  0.97201300  0.51997900  0.17820200  1
  O  O19  1  0.47201300  0.98002100  0.82179800  1
  O  O20  1  0.39145800  0.27622500  0.14239100  1
  O  O21  1  0.89145800  0.22377500  0.85760900  1
  O  O22  1  0.60854200  0.72377500  0.85760900  1
  O  O23  1  0.10854200  0.77622500  0.14239100  1
  O  O24  1  0.53520500  0.25842500  0.92647200  1
  O  O25  1  0.03520500  0.24157500  0.07352800  1
  O  O26  1  0.46479500  0.74157500  0.07352800  1
  O  O27  1  0.96479500  0.75842500  0.92647200  1
  O  O28  1  0.22862200  0.60930600  0.02197500  1
  O  O29  1  0.72862200  0.89069400  0.97802500  1
  O  O30  1  0.77137800  0.39069400  0.97802500  1
  O  O31  1  0.27137800  0.10930600  0.02197500  1
loop_
_geom_bond_atom_site_label_1
_geom_bond_atom_site_label_2
_geom_bond_distance
_geom_bond_site_symmetry_2
Ba0 O16 2.703778 1_555
Ba0 O0 2.750149 1_555
Ba0 O12 2.814925 1_555
Ba0 O8 2.924643 1_555
Ba0 O28 2.945763 1_556
Ba0 O24 2.956760 1_555
Ba0 O4 2.957419 1_555
Ba0 O22 2.974806 1_555
Ba0 O7 3.024620 1_555
Ba1 O17 2.703778 1_565
Ba1 O1 2.750149 1_655
Ba1 O13 2.814925 1_555
Ba1 O9 2.924643 1_555
Ba1 O29 2.945763 1_554
Ba1 O25 2.956760 1_665
Ba1 O5 2.957419 1_565
Ba1 O23 2.974806 1_655
Ba1 O6 3.024620 1_555
Ba2 O18 2.703778 1_555
Ba2 O2 2.750149 1_555
Ba2 O14 2.814925 1_555
Ba2 O10 2.924643 1_555
Ba2 O30 2.945763 1_554
Ba2 O26 2.956760 1_555
Ba2 O6 2.957419 1_555
Ba2 O20 2.974806 1_555
Ba2 O5 3.024620 1_555
Ba3 O19 2.703778 1_545
Ba3 O3 2.750149 1_455
Ba3 O15 2.814925 1_555
Ba3 O11 2.924643 1_555
Ba3 O31 2.945763 1_556
Ba3 O27 2.956760 1_445
Ba3 O7 2.957419 1_545
Ba3 O21 2.974806 1_455
Ba3 O4 3.024620 1_555
Ca0 O26 2.400181 1_555
Ca0 O17 2.430170 1_565
Ca0 O23 2.434594 1_555
Ca0 O6 2.487187 1_555
Ca0 O1 2.498807 1_555
Ca0 O8 2.508931 1_555
Ca0 O12 2.617924 1_555
Ca1 O27 2.400181 1_555
Ca1 O16 2.430170 1_655
Ca1 O22 2.434594 1_555
Ca1 O7 2.487187 1_655
Ca1 O0 2.498807 1_555
Ca1 O9 2.508931 1_555
Ca1 O13 2.617924 1_555
Ca2 O24 2.400181 1_555
Ca2 O19 2.430170 1_545
Ca2 O21 2.434594 1_555
Ca2 O4 2.487187 1_555
Ca2 O3 2.498807 1_555
Ca2 O10 2.508931 1_555
Ca2 O14 2.617924 1_555
Ca3 O25 2.400181 1_555
Ca3 O18 2.430170 1_455
Ca3 O20 2.434594 1_555
Ca3 O5 2.487187 1_455
Ca3 O2 2.498807 1_555
Ca3 O11 2.508931 1_555
Ca3 O15 2.617924 1_555
H0 O12 1.023923 1_555
H0 O9 1.596380 1_555
H1 O13 1.023923 1_455
H1 O8 1.596380 1_555
H2 O14 1.023923 1_555
H2 O11 1.596380 1_555
H3 O15 1.023923 1_655
H3 O10 1.596380 1_555
H4 O28 1.057773 1_555
H4 O26 1.406824 1_555
H5 O29 1.057773 1_555
H5 O27 1.406824 1_555
H6 O30 1.057773 1_555
H6 O24 1.406824 1_555
H7 O31 1.057773 1_555
H7 O25 1.406824 1_555
O0 P1 1.531975 1_555
O1 P0 1.531975 1_555
O2 P3 1.531975 1_555
O3 P2 1.531975 1_555
O4 P3 1.536786 1_555
O5 P2 1.536786 1_555
O6 P1 1.536786 1_555
O7 P0 1.536786 1_555
O8 P3 1.544093 1_555
O9 P2 1.544093 1_565
O10 P1 1.544093 1_555
O11 P0 1.544093 1_545
O12 P0 1.627712 1_555
O13 P1 1.627712 1_555
O14 P2 1.627712 1_555
O15 P3 1.627712 1_555
O16 P5 1.531196 1_455
O17 P4 1.531196 1_555
O18 P7 1.531196 1_655
O19 P6 1.531196 1_555
O20 P4 1.542528 1_555
O21 P5 1.542528 1_555
O22 P6 1.542528 1_555
O23 P7 1.542528 1_555
O24 P4 1.561627 1_556
O25 P5 1.561627 1_454
O26 P6 1.561627 1_554
O27 P7 1.561627 1_656
O28 P7 1.606355 1_555
O29 P6 1.606355 1_555
O30 P5 1.606355 1_555
O31 P4 1.606355 1_555
