# generated using pymatgen
data_Na4Al2Si6ClO24
_symmetry_space_group_name_H-M   'P 1'
_cell_length_a   8.40370300
_cell_length_b   9.19109437
_cell_length_c   9.95868528
_cell_angle_alpha   103.16419644
_cell_angle_beta   103.94052897
_cell_angle_gamma   116.53019182
_symmetry_Int_Tables_number   1
_chemical_formula_structural   Na4Al2Si6ClO24
_chemical_formula_sum   'Na4 Al2 Si6 Cl1 O24'
_cell_volume   616.11316193
_cell_formula_units_Z   1
loop_
 _symmetry_equiv_pos_site_id
 _symmetry_equiv_pos_as_xyz
  1  'x, y, z'
loop_
 _atom_site_type_symbol
 _atom_site_label
 _atom_site_symmetry_multiplicity
 _atom_site_fract_x
 _atom_site_fract_y
 _atom_site_fract_z
 _atom_site_occupancy
  Na  Na0  1  0.07781000  0.93394700  0.37405600  1
  Na  Na1  1  0.42657300  0.02129900  0.04446200  1
  Na  Na2  1  0.97459700  0.66185700  0.03818400  1
  Na  Na3  1  0.96346500  0.11897300  0.71320600  1
  Al  Al0  1  0.84748300  0.59763100  0.58143600  1
  Al  Al1  1  0.40593500  0.47836800  0.58045000  1
  Si  Si0  1  0.61146900  0.35922300  0.72069100  1
  Si  Si1  1  0.03334800  0.04278400  0.08670700  1
  Si  Si2  1  0.30798000  0.55161900  0.02442100  1
  Si  Si3  1  0.81467100  0.45625800  0.25675600  1
  Si  Si4  1  0.20658500  0.58335700  0.78321300  1
  Si  Si5  1  0.10771900  0.31247200  0.26191100  1
  Cl  Cl0  1  0.75248300  0.89182100  0.92533400  1
  O  O0  1  0.64862800  0.51429700  0.64600800  1
  O  O1  1  0.65245400  0.09787700  0.66690100  1
  O  O2  1  0.70917100  0.41268700  0.89063900  1
  O  O3  1  0.14628500  0.94565400  0.07293400  1
  O  O4  1  0.87499300  0.82146400  0.62437200  1
  O  O5  1  0.95943000  0.37558700  0.26374600  1
  O  O6  1  0.97795800  0.80269200  0.53748200  1
  O  O7  1  0.38941000  0.96810600  0.65836100  1
  O  O8  1  0.92389300  0.64496400  0.24434300  1
  O  O9  1  0.37880400  0.94306300  0.77274800  1
  O  O10  1  0.01810700  0.10286300  0.25448200  1
  O  O11  1  0.33781600  0.59528100  0.68751300  1
  O  O12  1  0.75528700  0.45025400  0.40023500  1
  O  O13  1  0.20089400  0.13261400  0.62021300  1
  O  O14  1  0.60470000  0.31250100  0.11600900  1
  O  O15  1  0.16097700  0.41259600  0.84131100  1
  O  O16  1  0.58381400  0.98849200  0.31061000  1
  O  O17  1  0.63850600  0.21214300  0.60143400  1
  O  O18  1  0.02158000  0.59229300  0.71307900  1
  O  O19  1  0.36962000  0.28843400  0.63440800  1
  O  O20  1  0.12044900  0.25075000  0.09411100  1
  O  O21  1  0.33546000  0.72257400  0.96618400  1
  O  O22  1  0.43615200  0.88559600  0.32265900  1
  O  O23  1  0.31849100  0.44260900  0.39539200  1
loop_
_geom_bond_atom_site_label_1
_geom_bond_atom_site_label_2
_geom_bond_distance
_geom_bond_site_symmetry_2
Na0 O8 2.226989 1_455
Na0 O10 2.308706 1_565
Na0 O6 2.335862 1_455
Na0 O13 2.337860 1_565
Na1 O14 2.224919 1_555
Na1 O3 2.249572 1_545
Na1 O21 2.364701 1_544
Na1 O9 2.516479 1_544
Na1 O16 2.809721 1_545
Na2 O2 2.168827 1_554
Na2 O8 2.219996 1_555
Na2 O3 2.234163 1_655
Na3 O15 2.252898 1_655
Na3 O13 2.360984 1_655
Na3 O4 2.361692 1_545
Na3 O1 2.450961 1_555
Al0 O12 1.722457 1_555
Al0 O18 1.740946 1_655
Al0 O0 1.841599 1_555
Al0 O4 1.896168 1_555
Al0 O6 1.925349 1_555
Al1 O23 1.703013 1_555
Al1 O11 1.714914 1_555
Al1 O0 1.831253 1_555
Al1 O19 1.860029 1_555
Cl0 Si1 2.076039 1_666
O0 Si0 1.696846 1_555
O1 O17 1.388095 1_555
O1 O7 1.955555 1_545
O2 Si0 1.539879 1_555
O3 Si1 1.574932 1_565
O4 O6 1.397635 1_555
O5 Si5 1.594284 1_655
O5 Si3 1.680175 1_555
O7 O9 1.228249 1_555
O8 Si3 1.611249 1_555
O10 Si1 1.690861 1_555
O10 Si5 1.701850 1_555
O11 Si4 1.607035 1_555
O12 Si3 1.627461 1_555
O13 O19 1.441761 1_555
O14 Si3 1.644989 1_555
O15 Si2 1.710913 1_556
O15 Si4 1.711140 1_555
O16 O22 1.234381 1_555
O17 Si0 1.721246 1_555
O18 Si4 1.590199 1_555
O19 Si0 1.736374 1_555
O20 Si5 1.683535 1_555
O20 Si1 1.689591 1_555
O21 Si4 1.696944 1_555
O21 Si2 1.736090 1_556
O23 Si5 1.607400 1_555
