# generated using pymatgen
data_InP(H2O3)2
_symmetry_space_group_name_H-M   'P 1'
_cell_length_a   5.38532921
_cell_length_b   10.30002401
_cell_length_c   8.79287992
_cell_angle_alpha   90.00000000
_cell_angle_beta   93.09021399
_cell_angle_gamma   90.00000000
_symmetry_Int_Tables_number   1
_chemical_formula_structural   InP(H2O3)2
_chemical_formula_sum   'In4 P4 H16 O24'
_cell_volume   487.02321821
_cell_formula_units_Z   4
loop_
 _symmetry_equiv_pos_site_id
 _symmetry_equiv_pos_as_xyz
  1  'x, y, z'
loop_
 _atom_site_type_symbol
 _atom_site_label
 _atom_site_symmetry_multiplicity
 _atom_site_fract_x
 _atom_site_fract_y
 _atom_site_fract_z
 _atom_site_occupancy
  In  In0  1  0.08896148  0.82692363  0.20499556  1
  In  In1  1  0.41103852  0.32692363  0.29500444  1
  In  In2  1  0.58896148  0.67307637  0.70499556  1
  In  In3  1  0.91103852  0.17307637  0.79500444  1
  P  P0  1  0.09323838  0.85717086  0.82094029  1
  P  P1  1  0.40676162  0.35717086  0.67905971  1
  P  P2  1  0.59323838  0.64282914  0.32094029  1
  P  P3  1  0.90676162  0.14282914  0.17905971  1
  H  H0  1  0.07442970  0.54711621  0.69974934  1
  H  H1  1  0.12458633  0.18389448  0.53095204  1
  H  H2  1  0.15477009  0.53896334  0.24989450  1
  H  H3  1  0.15438789  0.84513313  0.52543235  1
  H  H4  1  0.34561211  0.34513313  0.97456765  1
  H  H5  1  0.34522991  0.03896334  0.25010550  1
  H  H6  1  0.37541367  0.68389448  0.96904796  1
  H  H7  1  0.42557030  0.04711621  0.80025066  1
  H  H8  1  0.57442970  0.95288379  0.19974934  1
  H  H9  1  0.62458633  0.31610552  0.03095204  1
  H  H10  1  0.65477009  0.96103666  0.74989450  1
  H  H11  1  0.65438789  0.65486687  0.02543235  1
  H  H12  1  0.84561211  0.15486687  0.47456765  1
  H  H13  1  0.84522991  0.46103666  0.75010550  1
  H  H14  1  0.87541367  0.81610552  0.46904796  1
  H  H15  1  0.92557030  0.45288379  0.30025066  1
  O  O0  1  0.02947324  0.86088167  0.44154138  1
  O  O1  1  0.13692983  0.78579356  0.97342731  1
  O  O2  1  0.08991717  0.44862401  0.25553071  1
  O  O3  1  0.13728604  0.00375981  0.84293270  1
  O  O4  1  0.17396796  0.16383299  0.24389937  1
  O  O5  1  0.22516148  0.30232215  0.79208751  1
  O  O6  1  0.27483852  0.80232215  0.70791249  1
  O  O7  1  0.32603204  0.66383299  0.25610063  1
  O  O8  1  0.36271396  0.50375981  0.65706730  1
  O  O9  1  0.36307017  0.28579356  0.52657269  1
  O  O10  1  0.41008283  0.94862401  0.24446929  1
  O  O11  1  0.47052676  0.36088167  0.05845862  1
  O  O12  1  0.52947324  0.63911833  0.94154138  1
  O  O13  1  0.58991717  0.05137599  0.75553071  1
  O  O14  1  0.63692983  0.71420644  0.47342731  1
  O  O15  1  0.63728504  0.49624019  0.34293270  1
  O  O16  1  0.67396796  0.33616701  0.74389937  1
  O  O17  1  0.72516148  0.19767785  0.29208751  1
  O  O18  1  0.77483852  0.69767785  0.20791249  1
  O  O19  1  0.82603204  0.83616701  0.75610063  1
  O  O20  1  0.86271496  0.99624019  0.15706730  1
  O  O21  1  0.91008283  0.55137599  0.74446929  1
  O  O22  1  0.86307017  0.21420644  0.02657269  1
  O  O23  1  0.97052676  0.13911833  0.55845862  1
loop_
_geom_bond_atom_site_label_1
_geom_bond_atom_site_label_2
_geom_bond_distance
_geom_bond_site_symmetry_2
In0 O1 2.109225 1_554
In0 O7 2.142871 1_555
In0 O10 2.148881 1_555
In0 O0 2.150087 1_555
In0 O18 2.153885 1_455
In0 O20 2.155964 1_455
In1 O9 2.109225 1_555
In1 O4 2.142871 1_555
In1 O2 2.148881 1_555
In1 O11 2.150087 1_555
In1 O17 2.153885 1_555
In1 O15 2.155964 1_555
In2 O14 2.109225 1_555
In2 O19 2.142871 1_555
In2 O21 2.148881 1_555
In2 O12 2.150087 1_555
In2 O6 2.153885 1_555
In2 O8 2.155967 1_555
In3 O22 2.109225 1_556
In3 O16 2.142871 1_555
In3 O13 2.148881 1_555
In3 O23 2.150087 1_555
In3 O5 2.153885 1_655
In3 O3 2.155967 1_655
H0 O21 0.988636 1_455
H0 O8 1.677310 1_555
H1 O23 0.990541 1_455
H1 O9 1.660681 1_555
H2 O2 0.996055 1_555
H2 O7 1.581898 1_555
H3 O0 0.984613 1_555
H3 O6 1.754279 1_555
H4 O11 0.984613 1_556
H4 O5 1.754279 1_555
H5 O10 0.996055 1_545
H5 O4 1.581898 1_555
H6 O12 0.990541 1_555
H6 O1 1.660681 1_555
H7 O13 0.988636 1_555
H7 O3 1.677310 1_555
H8 O10 0.988636 1_555
H8 O20 1.677315 1_555
H9 O11 0.990541 1_555
H9 O22 1.660681 1_555
H10 O13 0.996055 1_565
H10 O19 1.581898 1_555
H11 O12 0.984613 1_554
H11 O18 1.754279 1_555
H12 O23 0.984613 1_555
H12 O17 1.754279 1_555
H13 O21 0.996055 1_555
H13 O16 1.581898 1_555
H14 O0 0.990541 1_655
H14 O14 1.660681 1_555
H15 O2 0.988636 1_655
H15 O15 1.677315 1_555
O1 P0 1.536097 1_555
O3 P0 1.538969 1_545
O4 P3 1.534307 1_455
O5 P1 1.538866 1_555
O6 P0 1.538866 1_555
O7 P2 1.534307 1_555
O8 P1 1.538969 1_555
O9 P1 1.536097 1_555
O14 P2 1.536097 1_555
O15 P2 1.538968 1_555
O16 P1 1.534307 1_555
O17 P3 1.538866 1_555
O18 P2 1.538866 1_555
O19 P0 1.534307 1_655
O20 P3 1.538968 1_565
O22 P3 1.536097 1_555
