# generated using pymatgen
data_Li2CuPO4
_symmetry_space_group_name_H-M   'P 1'
_cell_length_a   6.15712400
_cell_length_b   5.05224400
_cell_length_c   5.45130066
_cell_angle_alpha   89.64666700
_cell_angle_beta   90.00000000
_cell_angle_gamma   90.00000000
_symmetry_Int_Tables_number   1
_chemical_formula_structural   Li2CuPO4
_chemical_formula_sum   'Li4 Cu2 P2 O8'
_cell_volume   169.57198111
_cell_formula_units_Z   2
loop_
 _symmetry_equiv_pos_site_id
 _symmetry_equiv_pos_as_xyz
  1  'x, y, z'
loop_
 _atom_site_type_symbol
 _atom_site_label
 _atom_site_symmetry_multiplicity
 _atom_site_fract_x
 _atom_site_fract_y
 _atom_site_fract_z
 _atom_site_occupancy
  Li  Li0  1  0.00000000  0.50927600  0.84614000  1
  Li  Li1  1  0.25287200  0.50946100  0.32673700  1
  Li  Li2  1  0.50000000  0.00495600  0.15497300  1
  Li  Li3  1  0.74712800  0.50946100  0.32673700  1
  Cu  Cu0  1  0.24137900  0.99606300  0.65881600  1
  Cu  Cu1  1  0.75862100  0.99606300  0.65881600  1
  P  P0  1  0.00000000  0.00497100  0.17544000  1
  P  P1  1  0.50000000  0.50022700  0.83374600  1
  O  O0  1  0.00000000  0.11917200  0.90939300  1
  O  O1  1  0.00000000  0.69673600  0.17798200  1
  O  O2  1  0.20950100  0.11352900  0.30284100  1
  O  O3  1  0.29229900  0.58963500  0.68939900  1
  O  O4  1  0.50000000  0.19228700  0.84745800  1
  O  O5  1  0.50000000  0.61240800  0.09928200  1
  O  O6  1  0.70770100  0.58963500  0.68939900  1
  O  O7  1  0.79049900  0.11352900  0.30284100  1
loop_
_geom_bond_atom_site_label_1
_geom_bond_atom_site_label_2
_geom_bond_distance
_geom_bond_site_symmetry_2
Li0 O0 1.998740 1_555
Li0 O3 2.032147 1_555
Li0 O6 2.032147 1_455
Li0 O1 2.047069 1_556
Li1 O1 1.991849 1_555
Li1 O2 2.023085 1_555
Li1 O5 2.028605 1_555
Li1 O3 2.035025 1_555
Li2 O4 1.919989 1_554
Li2 O5 2.008200 1_545
Li2 O7 2.038462 1_555
Li2 O2 2.038462 1_555
Li3 O1 1.991849 1_655
Li3 O7 2.023085 1_555
Li3 O5 2.028605 1_555
Li3 O6 2.035025 1_555
Cu0 O2 2.035232 1_565
Cu0 O3 2.082837 1_555
Cu0 O0 2.114711 1_565
Cu0 O4 2.142078 1_565
Cu1 O7 2.035232 1_565
Cu1 O6 2.082837 1_555
Cu1 O0 2.114711 1_665
Cu1 O4 2.142078 1_565
O0 P0 1.557547 1_556
O1 P0 1.557255 1_565
O2 P0 1.565804 1_555
O3 P1 1.566611 1_555
O4 P1 1.557122 1_555
O5 P1 1.557770 1_554
O6 P1 1.566611 1_555
O7 P0 1.565804 1_655
