# generated using pymatgen
data_LiFe8(BO3)8
_symmetry_space_group_name_H-M   'P 1'
_cell_length_a   5.24301800
_cell_length_b   9.10284778
_cell_length_c   11.33447186
_cell_angle_alpha   112.81128802
_cell_angle_beta   102.33684537
_cell_angle_gamma   91.25418935
_symmetry_Int_Tables_number   1
_chemical_formula_structural   LiFe8(BO3)8
_chemical_formula_sum   'Li1 Fe8 B8 O24'
_cell_volume   483.82402537
_cell_formula_units_Z   1
loop_
 _symmetry_equiv_pos_site_id
 _symmetry_equiv_pos_as_xyz
  1  'x, y, z'
loop_
 _atom_site_type_symbol
 _atom_site_label
 _atom_site_symmetry_multiplicity
 _atom_site_fract_x
 _atom_site_fract_y
 _atom_site_fract_z
 _atom_site_occupancy
  Li  Li0  1  0.23884400  0.59262600  0.84584200  1
  Fe  Fe0  1  0.98012900  0.97710700  0.62486400  1
  Fe  Fe1  1  0.73229500  0.05863100  0.12269400  1
  Fe  Fe2  1  0.51648600  0.52415000  0.37126500  1
  Fe  Fe3  1  0.75049400  0.42201300  0.87458000  1
  Fe  Fe4  1  0.23163400  0.55635200  0.11768200  1
  Fe  Fe5  1  0.49349200  0.47023100  0.62353300  1
  Fe  Fe6  1  0.01779200  0.02178200  0.37068000  1
  Fe  Fe7  1  0.26628700  0.94953800  0.87507600  1
  B  B0  1  0.97963800  0.30848700  0.62581400  1
  B  B1  1  0.73376400  0.72881800  0.12166000  1
  B  B2  1  0.52513600  0.18722400  0.37184400  1
  B  B3  1  0.76308200  0.76787000  0.87257500  1
  B  B4  1  0.47148500  0.80938200  0.62304100  1
  B  B5  1  0.23410400  0.23064500  0.12373600  1
  B  B6  1  0.02875400  0.68758900  0.37257800  1
  B  B7  1  0.26513300  0.26530700  0.87306000  1
  O  O0  1  0.98274500  0.21012600  0.12865700  1
  O  O1  1  0.86946700  0.88372300  0.17321700  1
  O  O2  1  0.87209300  0.59866800  0.07609800  1
  O  O3  1  0.86297400  0.56934800  0.36880900  1
  O  O4  1  0.98146400  0.84803400  0.42937100  1
  O  O5  1  0.75157200  0.15787700  0.32324500  1
  O  O6  1  0.74556300  0.33540600  0.66405500  1
  O  O7  1  0.47154000  0.70764400  0.11141000  1
  O  O8  1  0.37242500  0.38344400  0.17122900  1
  O  O9  1  0.51274000  0.64758900  0.56763100  1
  O  O10  1  0.63528100  0.92449900  0.62314500  1
  O  O11  1  0.36594300  0.09758300  0.06865400  1
  O  O12  1  0.63561800  0.90229700  0.92777400  1
  O  O13  1  0.36092500  0.06707000  0.36460500  1
  O  O14  1  0.47277900  0.34725300  0.42692900  1
  O  O15  1  0.61160500  0.61849100  0.82203100  1
  O  O16  1  0.51805400  0.25772100  0.87324000  1
  O  O17  1  0.25293400  0.65653400  0.32195200  1
  O  O18  1  0.25251500  0.84716600  0.67814000  1
  O  O19  1  0.03190000  0.15043600  0.56667100  1
  O  O20  1  0.15855500  0.43486800  0.65245500  1
  O  O21  1  0.15562300  0.41217000  0.91849300  1
  O  O22  1  0.09620800  0.11922000  0.82553300  1
  O  O23  1  0.02196200  0.78089500  0.86928700  1
loop_
_geom_bond_atom_site_label_1
_geom_bond_atom_site_label_2
_geom_bond_distance
_geom_bond_site_symmetry_2
Li0 O23 2.040101 1_555
Li0 O20 2.045128 1_555
Li0 O15 2.049986 1_555
Li0 O21 2.176655 1_555
Fe0 O10 1.854330 1_555
Fe0 O19 1.965413 1_665
Fe0 O18 2.015576 1_655
Fe0 O4 2.068486 1_555
Fe0 O22 2.075976 1_665
Fe1 O0 1.855023 1_555
Fe1 O11 1.971244 1_555
Fe1 O1 1.990290 1_545
Fe1 O12 2.053092 1_544
Fe1 O5 2.073409 1_555
Fe2 O3 1.862260 1_555
Fe2 O14 1.968991 1_555
Fe2 O17 1.984725 1_555
Fe2 O9 2.072966 1_555
Fe2 O8 2.079849 1_555
Fe3 O16 1.901767 1_555
Fe3 O21 2.087749 1_655
Fe3 O2 2.166632 1_556
Fe3 O15 2.186657 1_555
Fe3 O6 2.197765 1_555
Fe4 O7 1.876735 1_555
Fe4 O2 1.927939 1_455
Fe4 O8 1.997679 1_555
Fe4 O21 2.067273 1_554
Fe4 O17 2.110110 1_555
Fe5 O20 1.896833 1_555
Fe5 O6 1.926800 1_555
Fe5 O9 1.957431 1_555
Fe5 O14 2.046392 1_555
Fe5 O15 2.068921 1_555
Fe6 O13 1.858429 1_555
Fe6 O4 1.958838 1_445
Fe6 O5 2.010859 1_455
Fe6 O19 2.054406 1_555
Fe6 O1 2.055695 1_445
Fe7 O23 1.949818 1_555
Fe7 O22 2.003778 1_565
Fe7 O12 2.008170 1_555
Fe7 O11 2.022321 1_566
Fe7 O18 2.042413 1_555
B0 O20 1.362712 1_655
B0 O6 1.382823 1_555
B0 O19 1.393656 1_655
B1 O7 1.357803 1_555
B1 O2 1.385479 1_555
B1 O1 1.405528 1_555
B2 O13 1.342858 1_555
B2 O5 1.401246 1_555
B2 O14 1.404536 1_555
B3 O23 1.369577 1_655
B3 O12 1.398663 1_555
B3 O15 1.400787 1_555
B4 O10 1.339704 1_555
B4 O9 1.401812 1_555
B4 O18 1.408362 1_555
B5 O0 1.342952 1_455
B5 O8 1.399569 1_555
B5 O11 1.403353 1_555
B6 O3 1.350305 1_455
B6 O4 1.401425 1_455
B6 O17 1.402737 1_555
B7 O16 1.328982 1_555
B7 O21 1.417113 1_555
B7 O22 1.425520 1_555
