# generated using pymatgen
data_K3EuSi3(HO5)2
_symmetry_space_group_name_H-M   'P 1'
_cell_length_a   6.04767000
_cell_length_b   13.24445400
_cell_length_c   14.11731800
_cell_angle_alpha   90.00000000
_cell_angle_beta   90.00000000
_cell_angle_gamma   90.00000000
_symmetry_Int_Tables_number   1
_chemical_formula_structural   K3EuSi3(HO5)2
_chemical_formula_sum   'K12 Eu4 Si12 H8 O40'
_cell_volume   1130.77016710
_cell_formula_units_Z   4
loop_
 _symmetry_equiv_pos_site_id
 _symmetry_equiv_pos_as_xyz
  1  'x, y, z'
loop_
 _atom_site_type_symbol
 _atom_site_label
 _atom_site_symmetry_multiplicity
 _atom_site_fract_x
 _atom_site_fract_y
 _atom_site_fract_z
 _atom_site_occupancy
  Eu  Eu0  1  0.08439400  0.04637700  0.25000000  1
  Eu  Eu1  1  0.58439400  0.45362300  0.75000000  1
  Eu  Eu2  1  0.41560600  0.54637700  0.25000000  1
  Eu  Eu3  1  0.91560600  0.95362300  0.75000000  1
  K  K0  1  0.42627300  0.11804000  0.75000000  1
  K  K1  1  0.10807300  0.13667900  0.51653900  1
  K  K2  1  0.10807300  0.13667900  0.98346100  1
  K  K3  1  0.60807300  0.36332100  0.01653900  1
  K  K4  1  0.60807300  0.36332100  0.48346100  1
  K  K5  1  0.92627300  0.38196000  0.25000000  1
  K  K6  1  0.07372700  0.61804000  0.75000000  1
  K  K7  1  0.39192700  0.63667900  0.51653900  1
  K  K8  1  0.39192700  0.63667900  0.98346100  1
  K  K9  1  0.89192700  0.86332100  0.01653900  1
  K  K10  1  0.89192700  0.86332100  0.48346100  1
  K  K11  1  0.57372700  0.88196000  0.25000000  1
  Si  Si0  1  0.59010400  0.10099800  0.10518700  1
  Si  Si1  1  0.59010400  0.10099800  0.39481300  1
  Si  Si2  1  0.92758100  0.24483000  0.75000000  1
  Si  Si3  1  0.42758100  0.25517000  0.25000000  1
  Si  Si4  1  0.09010400  0.39900200  0.60518700  1
  Si  Si5  1  0.09010400  0.39900200  0.89481300  1
  Si  Si6  1  0.90989600  0.60099800  0.10518700  1
  Si  Si7  1  0.90989600  0.60099800  0.39481300  1
  Si  Si8  1  0.57241900  0.74483000  0.75000000  1
  Si  Si9  1  0.07241900  0.75517000  0.25000000  1
  Si  Si10  1  0.40989600  0.89900200  0.60518700  1
  Si  Si11  1  0.40989600  0.89900200  0.89481300  1
  H  H0  1  0.62535000  0.08192700  0.94637800  1
  H  H1  1  0.62535000  0.08192700  0.55362200  1
  H  H2  1  0.12535000  0.41807300  0.44637800  1
  H  H3  1  0.12535000  0.41807300  0.05362200  1
  H  H4  1  0.87465000  0.58192700  0.94637800  1
  H  H5  1  0.87465000  0.58192700  0.55362200  1
  H  H6  1  0.37465000  0.91807300  0.05362200  1
  H  H7  1  0.37465000  0.91807300  0.44637800  1
  O  O0  1  0.36921600  0.03378200  0.12561200  1
  O  O1  1  0.36921600  0.03378200  0.37438800  1
  O  O2  1  0.81747700  0.04237900  0.13011800  1
  O  O3  1  0.81747700  0.04237900  0.36988200  1
  O  O4  1  0.93552500  0.12378300  0.75000000  1
  O  O5  1  0.60150200  0.13969900  0.50926800  1
  O  O6  1  0.60150200  0.13969900  0.99073200  1
  O  O7  1  0.17741400  0.21277000  0.25000000  1
  O  O8  1  0.57262400  0.21415500  0.15669700  1
  O  O9  1  0.57262400  0.21415500  0.34330300  1
  O  O10  1  0.07262400  0.28584500  0.65669700  1
  O  O11  1  0.07262400  0.28584500  0.84330300  1
  O  O12  1  0.67741400  0.28723000  0.75000000  1
  O  O13  1  0.10150200  0.36030100  0.49073200  1
  O  O14  1  0.10150200  0.36030100  0.00926800  1
  O  O15  1  0.43552500  0.37621700  0.25000000  1
  O  O16  1  0.31747700  0.45762100  0.63011800  1
  O  O17  1  0.31747700  0.45762100  0.86988200  1
  O  O18  1  0.86921600  0.46621800  0.62561200  1
  O  O19  1  0.86921600  0.46621800  0.87438800  1
  O  O20  1  0.13078400  0.53378200  0.12561200  1
  O  O21  1  0.13078400  0.53378200  0.37438800  1
  O  O22  1  0.68252300  0.54237900  0.13011800  1
  O  O23  1  0.68252300  0.54237900  0.36988200  1
  O  O24  1  0.56447500  0.62378300  0.75000000  1
  O  O25  1  0.89849800  0.63969900  0.50926800  1
  O  O26  1  0.89849800  0.63969900  0.99073200  1
  O  O27  1  0.32258600  0.71277000  0.25000000  1
  O  O28  1  0.92737600  0.71415500  0.15669700  1
  O  O29  1  0.92737600  0.71415500  0.34330300  1
  O  O30  1  0.42737600  0.78584500  0.65669700  1
  O  O31  1  0.42737600  0.78584500  0.84330300  1
  O  O32  1  0.82258600  0.78723000  0.75000000  1
  O  O33  1  0.39849800  0.86030100  0.00926800  1
  O  O34  1  0.39849800  0.86030100  0.49073200  1
  O  O35  1  0.06447500  0.87621700  0.25000000  1
  O  O36  1  0.18252300  0.95762100  0.63011800  1
  O  O37  1  0.18252300  0.95762100  0.86988200  1
  O  O38  1  0.63078400  0.96621800  0.62561200  1
  O  O39  1  0.63078400  0.96621800  0.87438800  1
loop_
_geom_bond_atom_site_label_1
_geom_bond_atom_site_label_2
_geom_bond_distance
_geom_bond_site_symmetry_2
Eu0 O35 2.256894 1_545
Eu0 O7 2.274452 1_555
Eu0 O3 2.339399 1_455
Eu0 O2 2.339399 1_455
Eu0 O1 2.465459 1_555
Eu0 O0 2.465459 1_555
Eu1 O24 2.256894 1_555
Eu1 O12 2.274452 1_555
Eu1 O17 2.339399 1_555
Eu1 O16 2.339399 1_555
Eu1 O19 2.465459 1_555
Eu1 O18 2.465459 1_555
Eu2 O15 2.256894 1_555
Eu2 O27 2.274452 1_555
Eu2 O23 2.339399 1_555
Eu2 O22 2.339399 1_555
Eu2 O21 2.465459 1_555
Eu2 O20 2.465459 1_555
Eu3 O4 2.256894 1_565
Eu3 O32 2.274452 1_555
Eu3 O37 2.339399 1_655
Eu3 O36 2.339399 1_655
Eu3 O39 2.465459 1_555
Eu3 O38 2.465459 1_555
K0 O12 2.707051 1_555
K0 O39 2.942218 1_545
K0 O38 2.942218 1_545
K0 O4 2.968856 1_455
K0 O4 3.080727 1_555
K0 O37 3.090546 1_545
K0 O36 3.090546 1_545
K0 O11 3.353907 1_555
K0 O10 3.353907 1_555
K1 O10 2.804304 1_555
K1 O1 2.894595 1_555
K1 O36 2.897904 1_545
K1 O13 2.984340 1_555
K1 O5 2.986129 1_555
K1 O3 2.989148 1_455
K1 O5 3.065554 1_455
K2 O11 2.804304 1_555
K2 O0 2.894595 1_556
K2 O37 2.897904 1_545
K2 O14 2.984340 1_556
K2 O6 2.986129 1_555
K2 O2 2.989148 1_456
K2 O6 3.065554 1_455
K3 O8 2.804304 1_555
K3 O19 2.894595 1_554
K3 O22 2.897904 1_555
K3 O6 2.984340 1_554
K3 O14 2.986129 1_655
K3 O17 2.989148 1_554
K3 O14 3.065554 1_555
K4 O9 2.804304 1_555
K4 O18 2.894595 1_555
K4 O23 2.897904 1_555
K4 O5 2.984340 1_555
K4 O13 2.986129 1_655
K4 O16 2.989148 1_555
K4 O13 3.065554 1_555
K5 O7 2.707051 1_655
K5 O20 2.942218 1_655
K5 O21 2.942218 1_655
K5 O15 2.968856 1_555
K5 O15 3.080727 1_655
K5 O23 3.090546 1_555
K5 O22 3.090546 1_555
K5 O9 3.353907 1_555
K5 O8 3.353907 1_555
K6 O32 2.707051 1_455
K6 O19 2.942218 1_455
K6 O18 2.942218 1_455
K6 O24 2.968856 1_555
K6 O24 3.080727 1_455
K6 O17 3.090546 1_555
K6 O16 3.090546 1_555
K6 O31 3.353907 1_555
K6 O30 3.353907 1_555
K7 O30 2.804304 1_555
K7 O21 2.894595 1_555
K7 O16 2.897904 1_555
K7 O34 2.984340 1_555
K7 O25 2.986129 1_455
K7 O23 2.989148 1_555
K7 O25 3.065554 1_555
K8 O31 2.804304 1_555
K8 O20 2.894595 1_556
K8 O17 2.897904 1_555
K8 O33 2.984340 1_556
K8 O26 2.986129 1_455
K8 O22 2.989148 1_556
K8 O26 3.065554 1_555
K9 O28 2.804304 1_555
K9 O39 2.894595 1_554
K9 O2 2.897904 1_565
K9 O26 2.984340 1_554
K9 O33 2.986129 1_555
K9 O37 2.989148 1_654
K9 O33 3.065554 1_655
K10 O29 2.804304 1_555
K10 O38 2.894595 1_555
K10 O3 2.897904 1_565
K10 O25 2.984340 1_555
K10 O34 2.986129 1_555
K10 O36 2.989148 1_655
K10 O34 3.065554 1_655
K11 O27 2.707051 1_555
K11 O0 2.942218 1_565
K11 O1 2.942218 1_565
K11 O35 2.968856 1_655
K11 O35 3.080727 1_555
K11 O3 3.090546 1_565
K11 O2 3.090546 1_565
K11 O29 3.353907 1_555
K11 O28 3.353907 1_555
H0 O6 0.999172 1_555
H0 K0 3.060079 1_555
H1 O5 0.999172 1_555
H1 K0 3.060079 1_555
H2 O13 0.999172 1_555
H2 K5 3.060079 1_455
H3 O14 0.999172 1_555
H3 K5 3.060079 1_455
H4 O26 0.999172 1_555
H4 K6 3.060079 1_655
H5 O25 0.999172 1_555
H5 K6 3.060079 1_655
H6 O33 0.999172 1_555
H6 K11 3.060079 1_555
H7 O34 0.999172 1_555
H7 K11 3.060079 1_555
O0 Si0 1.631007 1_555
O1 Si1 1.631007 1_555
O2 Si0 1.617860 1_555
O3 Si1 1.617860 1_555
O4 Si2 1.603921 1_555
O5 Si1 1.696551 1_555
O6 Si0 1.696551 1_556
O7 Si3 1.613786 1_555
O8 Si0 1.669156 1_555
O8 Si3 1.673172 1_555
O9 Si1 1.669156 1_555
O9 Si3 1.673172 1_555
O10 Si4 1.669156 1_555
O10 Si2 1.673172 1_455
O11 Si5 1.669156 1_555
O11 Si2 1.673172 1_455
O12 Si2 1.613786 1_555
O13 Si4 1.696551 1_555
O14 Si5 1.696551 1_554
O15 Si3 1.603921 1_555
O16 Si4 1.617860 1_555
O17 Si5 1.617860 1_555
O18 Si4 1.631007 1_655
O19 Si5 1.631007 1_655
O20 Si6 1.631007 1_455
O21 Si7 1.631007 1_455
O22 Si6 1.617860 1_555
O23 Si7 1.617860 1_555
O24 Si8 1.603921 1_555
O25 Si7 1.696551 1_555
O26 Si6 1.696551 1_556
O27 Si9 1.613786 1_555
O28 Si6 1.669156 1_555
O28 Si9 1.673172 1_655
O29 Si7 1.669156 1_555
O29 Si9 1.673172 1_655
O30 Si10 1.669156 1_555
O30 Si8 1.673172 1_555
O31 Si11 1.669156 1_555
O31 Si8 1.673172 1_555
O32 Si8 1.613786 1_555
O33 Si11 1.696551 1_554
O34 Si10 1.696551 1_555
O35 Si9 1.603921 1_555
O36 Si10 1.617860 1_555
O37 Si11 1.617860 1_555
O38 Si10 1.631007 1_555
O39 Si11 1.631007 1_555
