# generated using pymatgen
data_Li2V3SnO8
_symmetry_space_group_name_H-M   'P 1'
_cell_length_a   8.51052100
_cell_length_b   8.51052100
_cell_length_c   8.51052100
_cell_angle_alpha   90.00000000
_cell_angle_beta   90.00000000
_cell_angle_gamma   90.00000000
_symmetry_Int_Tables_number   1
_chemical_formula_structural   Li2V3SnO8
_chemical_formula_sum   'Li8 V12 Sn4 O32'
_cell_volume   616.40825055
_cell_formula_units_Z   4
loop_
 _symmetry_equiv_pos_site_id
 _symmetry_equiv_pos_as_xyz
  1  'x, y, z'
loop_
 _atom_site_type_symbol
 _atom_site_label
 _atom_site_symmetry_multiplicity
 _atom_site_fract_x
 _atom_site_fract_y
 _atom_site_fract_z
 _atom_site_occupancy
  Li  Li0  1  0.00369900  0.00369900  0.00369900  1
  Li  Li1  1  0.24630100  0.24630100  0.24630100  1
  Li  Li2  1  0.25369900  0.75369900  0.74630100  1
  Li  Li3  1  0.49630100  0.99630100  0.50369900  1
  Li  Li4  1  0.50369900  0.49630100  0.99630100  1
  Li  Li5  1  0.74630100  0.25369900  0.75369900  1
  Li  Li6  1  0.75369900  0.74630100  0.25369900  1
  Li  Li7  1  0.99630100  0.50369900  0.49630100  1
  V  V0  1  0.11184900  0.13815100  0.62500000  1
  V  V1  1  0.12500000  0.38815100  0.86184900  1
  V  V2  1  0.13815100  0.62500000  0.11184900  1
  V  V3  1  0.36184900  0.37500000  0.61184900  1
  V  V4  1  0.37500000  0.61184900  0.36184900  1
  V  V5  1  0.38815100  0.86184900  0.12500000  1
  V  V6  1  0.61184900  0.36184900  0.37500000  1
  V  V7  1  0.62500000  0.11184900  0.13815100  1
  V  V8  1  0.63815100  0.87500000  0.88815100  1
  V  V9  1  0.86184900  0.12500000  0.38815100  1
  V  V10  1  0.87500000  0.88815100  0.63815100  1
  V  V11  1  0.88815100  0.63815100  0.87500000  1
  Sn  Sn0  1  0.12500000  0.87500000  0.37500000  1
  Sn  Sn1  1  0.37500000  0.12500000  0.87500000  1
  Sn  Sn2  1  0.62500000  0.62500000  0.62500000  1
  Sn  Sn3  1  0.87500000  0.37500000  0.12500000  1
  O  O0  1  0.10362800  0.12138700  0.38828200  1
  O  O1  1  0.11171800  0.89637200  0.62138700  1
  O  O2  1  0.12026300  0.62026300  0.87973700  1
  O  O3  1  0.12861300  0.14637200  0.86171800  1
  O  O4  1  0.12138700  0.38828200  0.10362800  1
  O  O5  1  0.12973700  0.37026300  0.62973700  1
  O  O6  1  0.13828200  0.62861300  0.35362800  1
  O  O7  1  0.14637200  0.86171800  0.12861300  1
  O  O8  1  0.35362800  0.13828200  0.62861300  1
  O  O9  1  0.36171800  0.37138700  0.85362800  1
  O  O10  1  0.37026300  0.62973700  0.12973700  1
  O  O11  1  0.37861300  0.61171800  0.60362800  1
  O  O12  1  0.37138700  0.85362800  0.36171800  1
  O  O13  1  0.37973700  0.37973700  0.37973700  1
  O  O14  1  0.38828200  0.10362800  0.12138700  1
  O  O15  1  0.39637200  0.87861300  0.88828200  1
  O  O16  1  0.60362800  0.37861300  0.61171800  1
  O  O17  1  0.61171800  0.60362800  0.37861300  1
  O  O18  1  0.62026300  0.87973700  0.12026300  1
  O  O19  1  0.62861300  0.35362800  0.13828200  1
  O  O20  1  0.62138700  0.11171800  0.89637200  1
  O  O21  1  0.62973700  0.12973700  0.37026300  1
  O  O22  1  0.63828200  0.87138700  0.64637200  1
  O  O23  1  0.64637200  0.63828200  0.87138700  1
  O  O24  1  0.85362800  0.36171800  0.37138700  1
  O  O25  1  0.86171800  0.12861300  0.14637200  1
  O  O26  1  0.87026300  0.87026300  0.87026300  1
  O  O27  1  0.87861300  0.88828200  0.39637200  1
  O  O28  1  0.87138700  0.64637200  0.63828200  1
  O  O29  1  0.87973700  0.12026300  0.62026300  1
  O  O30  1  0.88828200  0.39637200  0.87861300  1
  O  O31  1  0.89637200  0.62138700  0.11171800  1
loop_
_geom_bond_atom_site_label_1
_geom_bond_atom_site_label_2
_geom_bond_distance
_geom_bond_site_symmetry_2
Li0 O26 1.966934 1_444
Li0 O7 2.016072 1_545
Li0 O25 2.016072 1_455
Li0 O3 2.016072 1_554
Li1 O13 1.966934 1_555
Li1 O0 2.016072 1_555
Li1 O14 2.016072 1_555
Li1 O4 2.016072 1_555
Li2 O2 1.966934 1_555
Li2 O15 2.016072 1_555
Li2 O1 2.016072 1_555
Li2 O11 2.016072 1_555
Li3 O21 1.966934 1_565
Li3 O8 2.016072 1_565
Li3 O22 2.016072 1_555
Li3 O12 2.016072 1_555
Li4 O10 1.966934 1_556
Li4 O19 2.016072 1_556
Li4 O23 2.016072 1_555
Li4 O9 2.016072 1_555
Li5 O29 1.966934 1_555
Li5 O30 2.016072 1_555
Li5 O20 2.016072 1_555
Li5 O16 2.016072 1_555
Li6 O18 1.966934 1_555
Li6 O27 2.016072 1_555
Li6 O31 2.016072 1_555
Li6 O17 2.016072 1_555
Li7 O5 1.966934 1_655
Li7 O6 2.016072 1_655
Li7 O28 2.016072 1_555
Li7 O24 2.016072 1_555
O0 V0 2.020851 1_555
O0 V9 2.057895 1_455
O0 Sn0 2.107789 1_545
O1 V10 2.020851 1_455
O1 V0 2.057895 1_565
O1 Sn0 2.107789 1_555
O2 V2 1.981662 1_556
O2 V1 1.981662 1_555
O2 V11 1.981662 1_455
O3 V0 2.020851 1_555
O3 V1 2.057895 1_555
O3 Sn1 2.107789 1_555
O4 V2 2.020851 1_555
O4 V1 2.057895 1_554
O4 Sn3 2.107789 1_455
O5 V1 1.981662 1_555
O5 V3 1.981662 1_555
O5 V0 1.981662 1_555
O6 V4 2.020851 1_555
O6 V2 2.057895 1_555
O6 Sn0 2.107789 1_555
O7 V2 2.020851 1_555
O7 V5 2.057895 1_555
O7 Sn0 2.107789 1_555
O8 V3 2.020851 1_555
O8 V0 2.057895 1_555
O8 Sn1 2.107789 1_555
O9 V1 2.020851 1_555
O9 V3 2.057895 1_555
O9 Sn1 2.107789 1_555
O10 V5 1.981662 1_555
O10 V4 1.981662 1_555
O10 V2 1.981662 1_555
O11 V3 2.020851 1_555
O11 V4 2.057895 1_555
O11 Sn2 2.107789 1_555
O12 V5 2.020851 1_555
O12 V4 2.057895 1_555
O12 Sn0 2.107789 1_555
O13 V3 1.981662 1_555
O13 V4 1.981662 1_555
O13 V6 1.981662 1_555
O14 V7 2.020851 1_555
O14 V5 2.057895 1_545
O14 Sn1 2.107789 1_554
O15 V5 2.020851 1_556
O15 V8 2.057895 1_555
O15 Sn1 2.107789 1_565
O16 V6 2.020851 1_555
O16 V3 2.057895 1_555
O16 Sn2 2.107789 1_555
O17 V4 2.020851 1_555
O17 V6 2.057895 1_555
O17 Sn2 2.107789 1_555
O18 V7 1.981662 1_565
O18 V5 1.981662 1_555
O18 V8 1.981662 1_554
O19 V6 2.020851 1_555
O19 V7 2.057895 1_555
O19 Sn3 2.107789 1_555
O20 V8 2.020851 1_545
O20 V7 2.057895 1_556
O20 Sn1 2.107789 1_555
O21 V9 1.981662 1_555
O21 V6 1.981662 1_555
O21 V7 1.981662 1_555
O22 V10 2.020851 1_555
O22 V8 2.057895 1_555
O22 Sn2 2.107789 1_555
O23 V8 2.020851 1_555
O23 V11 2.057895 1_555
O23 Sn2 2.107789 1_555
O24 V9 2.020851 1_555
O24 V6 2.057895 1_555
O24 Sn3 2.107789 1_555
O25 V7 2.020851 1_555
O25 V9 2.057895 1_555
O25 Sn3 2.107789 1_555
O26 V11 1.981662 1_555
O26 V8 1.981662 1_555
O26 V10 1.981662 1_555
O27 V9 2.020851 1_565
O27 V10 2.057895 1_555
O27 Sn0 2.107789 1_655
O28 V11 2.020851 1_555
O28 V10 2.057895 1_555
O28 Sn2 2.107789 1_555
O29 V0 1.981662 1_655
O29 V10 1.981662 1_545
O29 V9 1.981662 1_555
O30 V1 2.020851 1_655
O30 V11 2.057895 1_555
O30 Sn3 2.107789 1_556
O31 V11 2.020851 1_554
O31 V2 2.057895 1_655
O31 Sn3 2.107789 1_555
