# generated using pymatgen
data_Fe5(O4F)2
_symmetry_space_group_name_H-M   'P 1'
_cell_length_a   4.65205100
_cell_length_b   7.60503460
_cell_length_c   9.77847050
_cell_angle_alpha   70.07020054
_cell_angle_beta   88.55800658
_cell_angle_gamma   88.76710570
_symmetry_Int_Tables_number   1
_chemical_formula_structural   Fe5(O4F)2
_chemical_formula_sum   'Fe10 O16 F4'
_cell_volume   325.10001862
_cell_formula_units_Z   2
loop_
 _symmetry_equiv_pos_site_id
 _symmetry_equiv_pos_as_xyz
  1  'x, y, z'
loop_
 _atom_site_type_symbol
 _atom_site_label
 _atom_site_symmetry_multiplicity
 _atom_site_fract_x
 _atom_site_fract_y
 _atom_site_fract_z
 _atom_site_occupancy
  Fe  Fe0  1  0.50648200  0.69838400  0.89548900  1
  Fe  Fe1  1  0.49097900  0.89719600  0.31121100  1
  Fe  Fe2  1  0.53144600  0.10631300  0.70817900  1
  Fe  Fe3  1  0.46429400  0.30723800  0.09266200  1
  Fe  Fe4  1  0.47285200  0.49205600  0.49166800  1
  Fe  Fe5  1  0.00841900  0.39597900  0.80530600  1
  Fe  Fe6  1  0.00278200  0.79456700  0.60372000  1
  Fe  Fe7  1  0.99382700  0.19785300  0.39784600  1
  Fe  Fe8  1  0.00347500  0.61571900  0.19936500  1
  Fe  Fe9  1  0.02144200  0.99479300  0.99557400  1
  O  O0  1  0.18782800  0.23453000  0.97610700  1
  O  O1  1  0.17480100  0.43597600  0.37033500  1
  O  O2  1  0.18782100  0.63232600  0.77640200  1
  O  O3  1  0.19764600  0.85355400  0.17300100  1
  O  O4  1  0.32591900  0.93596700  0.87254900  1
  O  O5  1  0.30548100  0.33572300  0.67798600  1
  O  O6  1  0.30216100  0.54884500  0.07255600  1
  O  O7  1  0.30111100  0.14104900  0.27860600  1
  O  O8  1  0.29849700  0.73032300  0.48552900  1
  O  O9  1  0.70481500  0.86188200  0.72192300  1
  O  O10  1  0.69506000  0.25972900  0.52320700  1
  O  O11  1  0.68621300  0.65934800  0.32534500  1
  O  O12  1  0.69146200  0.46152100  0.91931900  1
  O  O13  1  0.81189100  0.96019600  0.42799600  1
  O  O14  1  0.82370900  0.16082200  0.83019700  1
  O  O15  1  0.81559600  0.77107900  0.02240400  1
  F  F0  1  0.20622100  0.03854300  0.58106400  1
  F  F1  1  0.69534600  0.06695100  0.12458400  1
  F  F2  1  0.80100900  0.55052500  0.62495700  1
  F  F3  1  0.79141700  0.36101200  0.21491700  1
loop_
_geom_bond_atom_site_label_1
_geom_bond_atom_site_label_2
_geom_bond_distance
_geom_bond_site_symmetry_2
Fe0 O4 1.920516 1_555
Fe0 O12 1.922736 1_555
Fe0 O9 1.951857 1_555
Fe0 O6 1.953458 1_556
Fe0 O2 2.079364 1_555
Fe0 O15 2.122608 1_556
Fe1 O8 1.953261 1_555
Fe1 O7 1.965103 1_565
Fe1 O11 1.970050 1_555
Fe1 O3 2.053510 1_555
Fe1 O13 2.062040 1_555
Fe2 O4 1.931906 1_545
Fe2 O10 1.934527 1_555
Fe2 O5 1.954892 1_555
Fe2 O14 1.971578 1_555
Fe2 O9 1.973498 1_545
Fe3 O6 1.919699 1_555
Fe3 O0 1.947535 1_554
Fe3 O7 1.971002 1_555
Fe3 O12 1.993487 1_554
Fe4 O8 1.951921 1_555
Fe4 O11 1.952285 1_555
Fe4 O5 1.957254 1_555
Fe4 O10 1.962508 1_555
Fe4 O1 1.991303 1_555
Fe5 O0 1.903065 1_555
Fe5 O2 1.927047 1_555
Fe5 O14 1.937718 1_455
Fe5 O12 1.982429 1_455
Fe5 O5 1.986173 1_555
Fe6 O2 1.929178 1_555
Fe6 O8 1.934663 1_555
Fe6 O9 1.952359 1_455
Fe6 O13 1.970009 1_455
Fe7 O13 1.939054 1_545
Fe7 O1 1.944925 1_655
Fe7 O7 1.955132 1_655
Fe7 O10 1.983744 1_555
Fe8 O1 1.939329 1_555
Fe8 O15 1.947325 1_455
Fe8 O3 1.973487 1_555
Fe8 O11 1.993002 1_455
Fe8 O6 2.009917 1_555
Fe9 O3 1.897103 1_556
Fe9 O15 1.906202 1_456
Fe9 O14 1.920529 1_465
Fe9 O0 1.943236 1_565
Fe9 O4 1.976746 1_555
F0 Fe6 2.042604 1_545
F0 Fe7 2.052253 1_455
F0 Fe2 2.159782 1_555
F1 Fe3 2.033622 1_555
F1 Fe1 2.064036 1_545
F1 Fe9 2.129253 1_644
F2 Fe5 2.011526 1_655
F2 Fe6 2.042340 1_655
F2 Fe4 2.179782 1_555
F3 Fe7 2.036500 1_555
F3 Fe3 2.088989 1_555
F3 Fe8 2.149967 1_655
