# generated using pymatgen
data_Li4V3Ni3(TeO8)2
_symmetry_space_group_name_H-M   'P 1'
_cell_length_a   5.88193800
_cell_length_b   6.01238142
_cell_length_c   10.22974725
_cell_angle_alpha   90.23322363
_cell_angle_beta   90.14722539
_cell_angle_gamma   119.23191132
_symmetry_Int_Tables_number   1
_chemical_formula_structural   Li4V3Ni3(TeO8)2
_chemical_formula_sum   'Li4 V3 Ni3 Te2 O16'
_cell_volume   315.69125722
_cell_formula_units_Z   1
loop_
 _symmetry_equiv_pos_site_id
 _symmetry_equiv_pos_as_xyz
  1  'x, y, z'
loop_
 _atom_site_type_symbol
 _atom_site_label
 _atom_site_symmetry_multiplicity
 _atom_site_fract_x
 _atom_site_fract_y
 _atom_site_fract_z
 _atom_site_occupancy
  Li  Li0  1  0.65881500  0.31635100  0.09514900  1
  Li  Li1  1  0.00571700  0.01351600  0.01477700  1
  Li  Li2  1  0.99980900  0.00232200  0.50460900  1
  Li  Li3  1  0.33891700  0.67008700  0.59576500  1
  V  V0  1  0.84102900  0.19663500  0.77957100  1
  V  V1  1  0.34142700  0.18524900  0.77807500  1
  V  V2  1  0.17909100  0.35899700  0.26586300  1
  Ni  Ni0  1  0.83123000  0.66858400  0.79487600  1
  Ni  Ni1  1  0.65853800  0.82813800  0.28451000  1
  Ni  Ni2  1  0.16996200  0.82847900  0.28492400  1
  Te  Te0  1  0.67081400  0.33889400  0.48538400  1
  Te  Te1  1  0.35394000  0.70765500  0.00377500  1
  O  O0  1  0.83619100  0.16757000  0.39569000  1
  O  O1  1  0.52713700  0.02506600  0.68027400  1
  O  O2  1  0.67021700  0.31523900  0.89243700  1
  O  O3  1  0.99285800  0.00351400  0.69246800  1
  O  O4  1  0.01377100  0.02748900  0.19966200  1
  O  O5  1  0.33210900  0.16731900  0.39698900  1
  O  O6  1  0.98579100  0.47038000  0.68207500  1
  O  O7  1  0.48415400  0.46844000  0.68543400  1
  O  O8  1  0.13303900  0.28874700  0.88936100  1
  O  O9  1  0.83676500  0.67344200  0.40164500  1
  O  O10  1  0.46824300  0.48579100  0.16879100  1
  O  O11  1  0.01630600  0.48583700  0.16984600  1
  O  O12  1  0.31185600  0.62282700  0.38966800  1
  O  O13  1  0.68297800  0.85756800  0.90849700  1
  O  O14  1  0.47909800  0.95938800  0.14699500  1
  O  O15  1  0.18049600  0.86647800  0.90505100  1
loop_
_geom_bond_atom_site_label_1
_geom_bond_atom_site_label_2
_geom_bond_distance
_geom_bond_site_symmetry_2
Li0 O14 1.949667 1_545
Li0 O11 1.984043 1_655
Li0 O10 1.993802 1_555
Li0 O2 2.075038 1_554
Li1 O4 1.892294 1_555
Li1 O8 1.938311 1_554
Li1 O13 1.976740 1_444
Li1 O15 1.995958 1_544
Li2 O3 1.922349 1_555
Li2 O9 2.016136 1_545
Li2 O0 2.022909 1_555
Li2 O5 2.035350 1_655
Li3 O7 2.014364 1_555
Li3 O6 2.029212 1_455
Li3 O1 2.049495 1_565
Li3 O12 2.121394 1_555
Ni0 O3 2.051554 1_565
Ni0 O13 2.089163 1_555
Ni0 O7 2.108801 1_555
Ni0 O2 2.112647 1_555
Ni0 O15 2.120419 1_655
Ni0 O6 2.151850 1_555
Ni1 O4 2.031646 1_665
Ni1 O9 2.086816 1_555
Ni1 O12 2.098275 1_555
Ni1 O0 2.107721 1_565
Ni1 O14 2.128500 1_555
Ni1 O10 2.148027 1_555
Ni2 O4 2.028410 1_565
Ni2 O9 2.091026 1_455
Ni2 O12 2.094666 1_555
Ni2 O5 2.109938 1_565
Ni2 O14 2.130977 1_555
Ni2 O11 2.145452 1_555
O0 Te0 1.955675 1_555
O0 V2 2.217075 1_655
O1 V0 1.904307 1_555
O1 V1 2.036403 1_555
O1 Te0 2.594422 1_555
O2 V0 1.884150 1_555
O2 V1 2.055293 1_555
O3 V0 1.986987 1_555
O3 V1 1.989813 1_655
O4 V2 1.862661 1_555
O5 Te0 1.956211 1_555
O5 V2 2.226424 1_555
O6 V0 1.754301 1_555
O6 Te0 2.577464 1_555
O7 V1 1.767222 1_555
O7 Te0 2.614169 1_555
O8 V0 1.890552 1_455
O8 V1 1.982926 1_555
O8 Te1 2.484673 1_556
O9 Te0 1.957847 1_555
O10 V2 1.791196 1_555
O10 Te1 2.443237 1_555
O11 V2 1.782576 1_555
O11 Te1 2.461239 1_555
O12 V2 1.870488 1_555
O13 Te1 1.954780 1_556
O13 V0 2.221883 1_565
O14 Te1 1.966564 1_555
O15 Te1 1.981564 1_556
O15 V1 2.123952 1_565
