# generated using pymatgen
data_Li4Cu7(PO4)6
_symmetry_space_group_name_H-M   'P 1'
_cell_length_a   8.90643923
_cell_length_b   8.90643923
_cell_length_c   6.25427756
_cell_angle_alpha   80.92774382
_cell_angle_beta   80.92774382
_cell_angle_gamma   103.09423308
_symmetry_Int_Tables_number   1
_chemical_formula_structural   Li4Cu7(PO4)6
_chemical_formula_sum   'Li4 Cu7 P6 O24'
_cell_volume   467.42733614
_cell_formula_units_Z   1
loop_
 _symmetry_equiv_pos_site_id
 _symmetry_equiv_pos_as_xyz
  1  'x, y, z'
loop_
 _atom_site_type_symbol
 _atom_site_label
 _atom_site_symmetry_multiplicity
 _atom_site_fract_x
 _atom_site_fract_y
 _atom_site_fract_z
 _atom_site_occupancy
  Li  Li0  1  0.72991600  0.72991600  0.52752300  1
  Li  Li1  1  0.54105300  0.28721000  0.53119900  1
  Li  Li2  1  0.28721000  0.54105300  0.53119900  1
  Li  Li3  1  0.05598200  0.05598200  0.51308000  1
  Cu  Cu0  1  0.98527600  0.36011500  0.18148700  1
  Cu  Cu1  1  0.36011500  0.98527600  0.18148700  1
  Cu  Cu2  1  0.62594800  0.37571100  0.99792500  1
  Cu  Cu3  1  0.37571100  0.62594800  0.99792500  1
  Cu  Cu4  1  0.00737500  0.00737500  0.00069800  1
  Cu  Cu5  1  0.65038100  0.00691500  0.81659400  1
  Cu  Cu6  1  0.00691500  0.65038100  0.81659400  1
  P  P0  1  0.28519600  0.90436200  0.71176600  1
  P  P1  1  0.90436200  0.28519600  0.71176600  1
  P  P2  1  0.67162800  0.67162800  0.07167800  1
  P  P3  1  0.32086800  0.32086800  0.92320600  1
  P  P4  1  0.71518500  0.08530700  0.29172700  1
  P  P5  1  0.08530700  0.71518500  0.29172700  1
  O  O0  1  0.58949700  0.76700900  0.91163200  1
  O  O1  1  0.76700900  0.58949700  0.91163200  1
  O  O2  1  0.76911500  0.76911500  0.19940800  1
  O  O3  1  0.97542900  0.38867000  0.86665100  1
  O  O4  1  0.38867000  0.97542900  0.86665100  1
  O  O5  1  0.10380300  0.90142500  0.77202100  1
  O  O6  1  0.90142500  0.10380300  0.77202100  1
  O  O7  1  0.72570600  0.28204000  0.73319700  1
  O  O8  1  0.28204000  0.72570600  0.73319700  1
  O  O9  1  0.53408500  0.53408500  0.21574600  1
  O  O10  1  0.43974300  0.43974300  0.72724700  1
  O  O11  1  0.11010900  0.90023900  0.21725400  1
  O  O12  1  0.90023900  0.11010900  0.21725400  1
  O  O13  1  0.69561800  0.25329100  0.29502100  1
  O  O14  1  0.25329100  0.69561800  0.29502100  1
  O  O15  1  0.66489000  0.96929400  0.51703200  1
  O  O16  1  0.96929400  0.66489000  0.51703200  1
  O  O17  1  0.20526600  0.20526600  0.83685700  1
  O  O18  1  0.61484900  0.01348100  0.13258500  1
  O  O19  1  0.01348100  0.61484900  0.13258500  1
  O  O20  1  0.41687500  0.23535800  0.07087300  1
  O  O21  1  0.23535800  0.41687500  0.07087300  1
  O  O22  1  0.01278900  0.34798500  0.48247700  1
  O  O23  1  0.34798500  0.01278900  0.48247700  1
loop_
_geom_bond_atom_site_label_1
_geom_bond_atom_site_label_2
_geom_bond_distance
_geom_bond_site_symmetry_2
Li0 O2 1.986927 1_555
Li0 O16 2.326480 1_555
Li0 O15 2.326480 1_555
Li1 O13 1.963706 1_555
Li1 O10 2.212466 1_555
Li1 O7 2.230265 1_555
Li2 O14 1.963706 1_555
Li2 O10 2.212466 1_555
Li2 O8 2.230265 1_555
Li3 O5 2.116409 1_545
Li3 O6 2.116409 1_455
Li3 O12 2.531937 1_455
Li3 O11 2.531937 1_545
Cu0 O22 1.925814 1_655
Cu0 O3 1.963735 1_554
Cu0 O21 2.142145 1_655
Cu0 O12 2.146404 1_555
Cu0 O19 2.191502 1_655
Cu0 O13 2.482336 1_555
Cu1 O23 1.925814 1_565
Cu1 O4 1.963735 1_554
Cu1 O20 2.142145 1_565
Cu1 O11 2.146404 1_555
Cu1 O18 2.191502 1_565
Cu1 O14 2.482336 1_555
Cu2 O20 1.932795 1_556
Cu2 O1 1.968087 1_555
Cu2 O7 2.129382 1_555
Cu2 O13 2.248936 1_556
Cu2 O9 2.300514 1_556
Cu3 O21 1.932795 1_556
Cu3 O0 1.968087 1_555
Cu3 O8 2.129382 1_555
Cu3 O14 2.248936 1_556
Cu3 O9 2.300514 1_556
Cu4 O12 1.990219 1_455
Cu4 O11 1.990219 1_545
Cu4 O6 2.019653 1_454
Cu4 O5 2.019653 1_544
Cu4 O17 2.171685 1_554
Cu4 O2 2.616668 1_445
Cu5 O15 1.944319 1_545
Cu5 O18 1.963902 1_556
Cu5 O0 2.045901 1_545
Cu5 O6 2.162170 1_555
Cu5 O4 2.248514 1_545
Cu5 O7 2.338426 1_555
Cu6 O16 1.944319 1_455
Cu6 O19 1.963902 1_556
Cu6 O1 2.045901 1_455
Cu6 O5 2.162170 1_555
Cu6 O3 2.248514 1_455
Cu6 O8 2.338426 1_555
O0 P2 1.582088 1_556
O1 P2 1.582088 1_556
O2 P2 1.497273 1_555
O3 P1 1.548839 1_555
O4 P0 1.548839 1_555
O5 P0 1.593266 1_555
O6 P1 1.593266 1_555
O7 P1 1.569052 1_555
O8 P0 1.569052 1_555
O9 P2 1.561111 1_555
O10 P3 1.554876 1_555
O11 P5 1.594587 1_555
O12 P4 1.594587 1_555
O13 P4 1.547888 1_555
O14 P5 1.547888 1_555
O15 P4 1.544658 1_565
O16 P5 1.544658 1_655
O17 P3 1.510692 1_555
O18 P4 1.555874 1_555
O19 P5 1.555874 1_555
O20 P3 1.576841 1_554
O21 P3 1.576841 1_554
O22 P1 1.538650 1_455
O23 P0 1.538650 1_545
