# generated using pymatgen
data_Li3MnV(PO4)3
_symmetry_space_group_name_H-M   'P 1'
_cell_length_a   8.76627300
_cell_length_b   8.79223268
_cell_length_c   14.45516939
_cell_angle_alpha   73.65206640
_cell_angle_beta   74.58257417
_cell_angle_gamma   61.03002979
_symmetry_Int_Tables_number   1
_chemical_formula_structural   Li3MnV(PO4)3
_chemical_formula_sum   'Li12 Mn4 V4 P12 O48'
_cell_volume   924.11976422
_cell_formula_units_Z   4
loop_
 _symmetry_equiv_pos_site_id
 _symmetry_equiv_pos_as_xyz
  1  'x, y, z'
loop_
 _atom_site_type_symbol
 _atom_site_label
 _atom_site_symmetry_multiplicity
 _atom_site_fract_x
 _atom_site_fract_y
 _atom_site_fract_z
 _atom_site_occupancy
  Li  Li0  1  0.14040500  0.01312000  0.11163500  1
  Li  Li1  1  0.49885500  0.00035300  0.00004800  1
  Li  Li2  1  0.23482100  0.10969200  0.63818700  1
  Li  Li3  1  0.74570100  0.25304700  0.24865200  1
  Li  Li4  1  0.35765200  0.48737400  0.38624600  1
  Li  Li5  1  0.26686500  0.39183600  0.86306700  1
  Li  Li6  1  0.73342100  0.60833200  0.13714800  1
  Li  Li7  1  0.64104100  0.51458700  0.61180100  1
  Li  Li8  1  0.25052900  0.75059600  0.74976800  1
  Li  Li9  1  0.99631900  0.50347700  0.50159900  1
  Li  Li10  1  0.76438900  0.89182900  0.36438100  1
  Li  Li11  1  0.85893400  0.98591700  0.88796200  1
  Mn  Mn0  1  0.82183700  0.32740300  0.03469900  1
  Mn  Mn1  1  0.17963000  0.67093600  0.96506100  1
  Mn  Mn2  1  0.92459300  0.42661200  0.71532900  1
  Mn  Mn3  1  0.32135900  0.82907800  0.53514100  1
  V  V0  1  0.57660200  0.06698700  0.78690200  1
  V  V1  1  0.68183100  0.17517400  0.46274800  1
  V  V2  1  0.07533400  0.57079500  0.28667000  1
  V  V3  1  0.42161700  0.93190900  0.21318800  1
  P  P0  1  0.13257700  0.33239300  0.11659800  1
  P  P1  1  0.36577400  0.16964900  0.38172400  1
  P  P2  1  0.18174000  0.06574100  0.87706700  1
  P  P3  1  0.91809100  0.11821400  0.63492200  1
  P  P4  1  0.32436400  0.42557000  0.62443100  1
  P  P5  1  0.41565900  0.61917900  0.13241200  1
  P  P6  1  0.58556100  0.38084400  0.86735900  1
  P  P7  1  0.67649700  0.57382700  0.37505600  1
  P  P8  1  0.08225500  0.88244700  0.36959300  1
  P  P9  1  0.82177100  0.92980100  0.12385000  1
  P  P10  1  0.63156100  0.83235800  0.61552900  1
  P  P11  1  0.86909000  0.66548900  0.88149600  1
  O  O0  1  0.27979700  0.14232600  0.11331500  1
  O  O1  1  0.38100400  0.08882200  0.29776600  1
  O  O2  1  0.32849100  0.06029900  0.48154200  1
  O  O3  1  0.17058700  0.44246100  0.01725700  1
  O  O4  1  0.11267200  0.41249200  0.20168200  1
  O  O5  1  0.81179200  0.11048000  0.12834900  1
  O  O6  1  0.11325700  0.18361600  0.78177500  1
  O  O7  1  0.54456700  0.18160800  0.36514300  1
  O  O8  1  0.06396300  0.13658800  0.96980100  1
  O  O9  1  0.89156400  0.03247200  0.36495200  1
  O  O10  1  0.21716100  0.36018800  0.38518400  1
  O  O11  1  0.36588800  0.05030900  0.88010800  1
  O  O12  1  0.14116400  0.43770600  0.62181600  1
  O  O13  1  0.84175200  0.13601300  0.54716100  1
  O  O14  1  0.33921900  0.63050600  0.04597100  1
  O  O15  1  0.44310800  0.35455200  0.53097200  1
  O  O16  1  0.80125200  0.08692600  0.73135300  1
  O  O17  1  0.60392900  0.47099600  0.14104200  1
  O  O18  1  0.39682100  0.30366200  0.71891200  1
  O  O19  1  0.29965200  0.58935600  0.23022300  1
  O  O20  1  0.95184000  0.32203100  0.13084900  1
  O  O21  1  0.57767800  0.19961300  0.88477700  1
  O  O22  1  0.69150800  0.39162300  0.37010800  1
  O  O23  1  0.07101100  0.70354900  0.38610100  1
  O  O24  1  0.92658700  0.30061000  0.61812900  1
  O  O25  1  0.31219500  0.60724500  0.62737200  1
  O  O26  1  0.42365100  0.80046200  0.11491100  1
  O  O27  1  0.04832500  0.67797900  0.86755200  1
  O  O28  1  0.69892100  0.41668300  0.76911200  1
  O  O29  1  0.60260200  0.69712100  0.28142300  1
  O  O30  1  0.39714700  0.52812400  0.85861300  1
  O  O31  1  0.19259400  0.91711700  0.27094300  1
  O  O32  1  0.56092800  0.63938300  0.46931800  1
  O  O33  1  0.66280800  0.36833300  0.95370200  1
  O  O34  1  0.16195900  0.86731600  0.45547600  1
  O  O35  1  0.86087000  0.55771300  0.37734700  1
  O  O36  1  0.63668800  0.94657100  0.12252700  1
  O  O37  1  0.77917400  0.64504400  0.60902400  1
  O  O38  1  0.10575900  0.97011500  0.64293400  1
  O  O39  1  0.93674400  0.86137000  0.03006600  1
  O  O40  1  0.44996000  0.82166500  0.63150500  1
  O  O41  1  0.89568800  0.80663800  0.21796800  1
  O  O42  1  0.19315000  0.88323600  0.87414100  1
  O  O43  1  0.89049800  0.58418900  0.79605200  1
  O  O44  1  0.83089100  0.55651400  0.98093700  1
  O  O45  1  0.66227000  0.94946000  0.51804800  1
  O  O46  1  0.61330800  0.90869300  0.70235300  1
  O  O47  1  0.72093100  0.85566000  0.88411600  1
loop_
_geom_bond_atom_site_label_1
_geom_bond_atom_site_label_2
_geom_bond_distance
_geom_bond_site_symmetry_2
Li0 O0 2.039674 1_555
Li0 O8 2.145660 1_554
Li0 O26 2.275721 1_545
Li0 O31 2.305785 1_545
Li0 O20 2.453118 1_455
Li0 O5 2.539143 1_455
Li1 O11 2.169650 1_554
Li1 O36 2.220521 1_545
Li1 O0 2.254610 1_555
Li1 O26 2.275494 1_545
Li1 O21 2.289182 1_554
Li1 O47 2.298504 1_544
Li2 O38 2.011731 1_545
Li2 O6 2.185994 1_555
Li2 O2 2.282449 1_555
Li2 O40 2.322401 1_545
Li2 O24 2.439622 1_455
Li2 O12 2.544170 1_555
Li3 O17 2.163135 1_555
Li3 O5 2.217861 1_555
Li3 O22 2.234399 1_555
Li3 O9 2.264445 1_555
Li3 O7 2.288595 1_555
Li3 O20 2.318897 1_555
Li4 O10 2.030108 1_555
Li4 O15 2.216326 1_555
Li4 O19 2.275681 1_555
Li4 O23 2.302314 1_555
Li4 O7 2.435970 1_555
Li4 O22 2.586381 1_555
Li5 O30 1.996885 1_555
Li5 O18 2.243360 1_555
Li5 O3 2.252234 1_556
Li5 O27 2.315316 1_555
Li5 O21 2.464540 1_555
Li5 O11 2.646357 1_555
Li6 O17 2.001339 1_555
Li6 O29 2.247572 1_555
Li6 O44 2.283121 1_554
Li6 O20 2.319108 1_555
Li6 O26 2.458818 1_555
Li6 O36 2.627980 1_555
Li7 O37 2.019217 1_555
Li7 O32 2.165547 1_555
Li7 O28 2.292983 1_555
Li7 O24 2.297089 1_555
Li7 O40 2.444319 1_555
Li7 O25 2.551050 1_555
Li8 O38 2.170715 1_555
Li8 O30 2.204741 1_555
Li8 O42 2.230797 1_555
Li8 O25 2.257833 1_555
Li8 O40 2.288477 1_555
Li8 O27 2.308287 1_555
Li9 O37 2.192103 1_555
Li9 O12 2.205151 1_655
Li9 O35 2.228559 1_555
Li9 O23 2.278529 1_655
Li9 O24 2.282515 1_555
Li9 O10 2.294679 1_655
Li10 O9 2.029319 1_565
Li10 O41 2.264315 1_555
Li10 O45 2.264763 1_555
Li10 O7 2.335238 1_565
Li10 O23 2.430986 1_655
Li10 O35 2.597621 1_555
Li11 O47 2.047429 1_555
Li11 O39 2.153842 1_556
Li11 O21 2.266153 1_565
Li11 O16 2.282780 1_565
Li11 O27 2.451260 1_655
Li11 O42 2.582036 1_655
Mn0 O33 1.894337 1_554
Mn0 O44 1.977084 1_554
Mn0 O20 1.996453 1_555
Mn0 O5 2.030703 1_555
Mn0 O8 2.139543 1_654
Mn0 O17 2.191106 1_555
Mn1 O14 1.898855 1_556
Mn1 O3 1.969796 1_556
Mn1 O42 1.993987 1_555
Mn1 O27 2.014929 1_555
Mn1 O39 2.142042 1_456
Mn1 O30 2.188266 1_555
Mn2 O43 1.921949 1_555
Mn2 O28 1.958838 1_555
Mn2 O24 2.011514 1_555
Mn2 O12 2.044937 1_655
Mn2 O6 2.118712 1_655
Mn2 O37 2.164104 1_555
Mn3 O34 1.890573 1_555
Mn3 O40 1.981961 1_555
Mn3 O2 1.986898 1_565
Mn3 O25 2.054025 1_555
Mn3 O32 2.129643 1_555
Mn3 O38 2.188434 1_555
O0 P0 1.543805 1_555
O0 V3 2.067659 1_545
O1 P1 1.517627 1_555
O1 V3 1.940899 1_545
O2 P1 1.544608 1_555
O3 P0 1.544436 1_555
O4 P0 1.514439 1_555
O4 V2 1.964955 1_555
O5 P9 1.567150 1_545
O6 P2 1.537933 1_555
O7 P1 1.571878 1_555
O7 V1 2.057560 1_555
O8 P2 1.536904 1_555
O9 P8 1.553269 1_645
O9 V1 2.082043 1_555
O10 P1 1.550670 1_555
O10 V2 2.056519 1_555
O11 P2 1.564761 1_555
O11 V0 2.019090 1_555
O12 P4 1.567162 1_555
O13 P3 1.523108 1_555
O13 V1 1.943770 1_555
O14 P5 1.526674 1_555
O15 P4 1.547927 1_555
O15 V1 2.102478 1_555
O16 P3 1.538097 1_555
O16 V0 1.992037 1_555
O17 P5 1.540102 1_555
O18 P4 1.547649 1_555
O18 V0 2.067671 1_555
O19 P5 1.545022 1_555
O19 V2 1.985460 1_555
O20 P0 1.586428 1_655
O21 P6 1.574402 1_555
O21 V0 2.075562 1_555
O22 P7 1.563349 1_555
O22 V1 2.020766 1_555
O23 P8 1.570701 1_555
O23 V2 2.074173 1_555
O24 P3 1.588448 1_555
O25 P4 1.560576 1_555
O26 P5 1.575160 1_555
O26 V3 2.060325 1_555
O27 P11 1.583579 1_455
O28 P6 1.550727 1_555
O29 P7 1.544874 1_555
O29 V3 2.065099 1_555
O30 P6 1.538791 1_555
O31 P8 1.539329 1_555
O31 V3 2.011291 1_555
O32 P7 1.535476 1_555
O33 P6 1.525894 1_555
O34 P8 1.524887 1_555
O35 P7 1.561241 1_555
O35 V2 2.019960 1_655
O36 P9 1.561327 1_555
O36 V3 2.028623 1_555
O37 P10 1.534171 1_555
O38 P3 1.535162 1_465
O39 P9 1.536522 1_555
O40 P10 1.591794 1_555
O41 P9 1.550193 1_555
O41 V2 2.067621 1_655
O42 P2 1.570700 1_565
O43 P11 1.521667 1_555
O44 P11 1.541407 1_555
O45 P10 1.538892 1_555
O45 V1 1.992610 1_565
O46 P10 1.521379 1_555
O46 V0 1.961850 1_565
O47 P11 1.545906 1_555
O47 V0 2.055737 1_565
