# generated using pymatgen
data_Li4Nb2V3Ni3O16
_symmetry_space_group_name_H-M   'P 1'
_cell_length_a   5.94215591
_cell_length_b   5.96657078
_cell_length_c   9.71042258
_cell_angle_alpha   90.06491104
_cell_angle_beta   90.36710327
_cell_angle_gamma   120.16939142
_symmetry_Int_Tables_number   1
_chemical_formula_structural   Li4Nb2V3Ni3O16
_chemical_formula_sum   'Li4 Nb2 V3 Ni3 O16'
_cell_volume   297.63181377
_cell_formula_units_Z   1
loop_
 _symmetry_equiv_pos_site_id
 _symmetry_equiv_pos_as_xyz
  1  'x, y, z'
loop_
 _atom_site_type_symbol
 _atom_site_label
 _atom_site_symmetry_multiplicity
 _atom_site_fract_x
 _atom_site_fract_y
 _atom_site_fract_z
 _atom_site_occupancy
  Li  Li0  1  0.32322600  0.66142000  0.89840900  1
  Li  Li1  1  0.00432000  0.00028700  0.98791700  1
  Li  Li2  1  0.00636100  0.00223300  0.49455400  1
  Li  Li3  1  0.66459700  0.33416300  0.40372700  1
  Nb  Nb0  1  0.33065400  0.66404800  0.50152800  1
  Nb  Nb1  1  0.69581800  0.34815200  0.98740200  1
  V  V0  1  0.18834500  0.84301500  0.22029300  1
  V  V1  1  0.18586300  0.34691100  0.21879000  1
  V  V2  1  0.34986800  0.17400300  0.72636200  1
  Ni  Ni0  1  0.66366900  0.83190900  0.20758300  1
  Ni  Ni1  1  0.82534900  0.65933700  0.71173100  1
  Ni  Ni2  1  0.82513900  0.16552300  0.71173100  1
  O  O0  1  0.17389600  0.83291300  0.59163000  1
  O  O1  1  0.03883300  0.52019900  0.33534200  1
  O  O2  1  0.30526600  0.65296800  0.10498500  1
  O  O3  1  0.01119300  0.00672600  0.30499100  1
  O  O4  1  0.01954400  0.00963000  0.79909000  1
  O  O5  1  0.17337100  0.33967000  0.59186000  1
  O  O6  1  0.46588400  0.96413700  0.33775700  1
  O  O7  1  0.46423600  0.50231200  0.33799700  1
  O  O8  1  0.33034700  0.16495900  0.10293200  1
  O  O9  1  0.66611400  0.83255100  0.58380100  1
  O  O10  1  0.50342400  0.46872800  0.85025600  1
  O  O11  1  0.50330000  0.03357800  0.84982000  1
  O  O12  1  0.63156600  0.31582500  0.60825000  1
  O  O13  1  0.84519300  0.66975300  0.09601500  1
  O  O14  1  0.95764700  0.47888500  0.84768100  1
  O  O15  1  0.84697700  0.17646600  0.09540600  1
loop_
_geom_bond_atom_site_label_1
_geom_bond_atom_site_label_2
_geom_bond_distance
_geom_bond_site_symmetry_2
Li0 O14 1.937750 1_455
Li0 O11 1.979623 1_565
Li0 O10 1.982315 1_555
Li0 O2 2.008804 1_556
Li1 O4 1.835928 1_555
Li1 O8 2.005602 1_556
Li1 O13 2.007082 1_446
Li1 O15 2.016540 1_456
Li2 O3 1.841160 1_555
Li2 O9 1.957235 1_445
Li2 O0 1.975166 1_545
Li2 O5 1.976516 1_555
Li3 O12 1.994646 1_555
Li3 O7 2.005919 1_555
Li3 O6 2.011413 1_545
Li3 O1 2.039065 1_655
Nb0 O5 1.893411 1_555
Nb0 O9 1.893659 1_555
Nb0 O0 1.897382 1_555
Nb0 O1 2.193809 1_555
Nb0 O7 2.205787 1_555
Nb0 O6 2.226501 1_555
Nb1 O14 1.918193 1_555
Nb1 O13 1.963087 1_556
Nb1 O15 1.967540 1_556
Nb1 O10 2.099392 1_555
Nb1 O11 2.105461 1_555
Nb1 O8 2.194904 1_556
Ni0 O3 2.013653 1_665
Ni0 O13 2.082018 1_555
Ni0 O2 2.086385 1_555
Ni0 O15 2.090200 1_565
Ni0 O6 2.133132 1_555
Ni0 O7 2.134924 1_555
Ni1 O4 1.994690 1_665
Ni1 O12 2.035880 1_555
Ni1 O14 2.088220 1_555
Ni1 O9 2.115972 1_555
Ni1 O0 2.144753 1_655
Ni1 O10 2.147526 1_555
Ni2 O4 1.997109 1_655
Ni2 O12 2.039859 1_555
Ni2 O14 2.088031 1_555
Ni2 O9 2.115546 1_545
Ni2 O5 2.142162 1_655
Ni2 O11 2.144089 1_555
O0 V2 2.187313 1_565
O1 V1 2.007784 1_555
O1 V0 2.011193 1_555
O2 V1 1.942078 1_555
O2 V0 1.954771 1_555
O3 V0 1.944590 1_545
O3 V1 1.948143 1_555
O4 V2 1.843306 1_555
O5 V2 2.193207 1_555
O6 V0 1.821863 1_555
O7 V1 1.835010 1_555
O8 V0 2.022063 1_545
O8 V1 2.031706 1_555
O10 V2 1.934071 1_555
O11 V2 1.930411 1_555
O12 V2 1.853779 1_555
O13 V0 2.128318 1_655
O15 V1 2.105397 1_655
