# generated using pymatgen
data_Na(FeO2)2
_symmetry_space_group_name_H-M   'P 1'
_cell_length_a   2.99806100
_cell_length_b   9.23974000
_cell_length_c   10.83727500
_cell_angle_alpha   90.00000000
_cell_angle_beta   90.00000000
_cell_angle_gamma   90.00000000
_symmetry_Int_Tables_number   1
_chemical_formula_structural   Na(FeO2)2
_chemical_formula_sum   'Na4 Fe8 O16'
_cell_volume   300.20665087
_cell_formula_units_Z   4
loop_
 _symmetry_equiv_pos_site_id
 _symmetry_equiv_pos_as_xyz
  1  'x, y, z'
loop_
 _atom_site_type_symbol
 _atom_site_label
 _atom_site_symmetry_multiplicity
 _atom_site_fract_x
 _atom_site_fract_y
 _atom_site_fract_z
 _atom_site_occupancy
  Na  Na0  1  0.25000000  0.74262000  0.15743400  1
  Na  Na1  1  0.75000000  0.75738000  0.65743400  1
  Na  Na2  1  0.25000000  0.24262000  0.34256600  1
  Na  Na3  1  0.75000000  0.25738000  0.84256600  1
  Fe  Fe0  1  0.25000000  0.56297800  0.38801400  1
  Fe  Fe1  1  0.25000000  0.58353400  0.89725500  1
  Fe  Fe2  1  0.75000000  0.91646600  0.39725500  1
  Fe  Fe3  1  0.75000000  0.93702200  0.88801400  1
  Fe  Fe4  1  0.25000000  0.06297800  0.11198600  1
  Fe  Fe5  1  0.25000000  0.08353400  0.60274500  1
  Fe  Fe6  1  0.75000000  0.41646600  0.10274500  1
  Fe  Fe7  1  0.75000000  0.43702200  0.61198600  1
  O  O0  1  0.75000000  0.52370600  0.78545300  1
  O  O1  1  0.25000000  0.57538500  0.57395600  1
  O  O2  1  0.75000000  0.61418000  0.01983200  1
  O  O3  1  0.75000000  0.70512800  0.34932600  1
  O  O4  1  0.25000000  0.79487200  0.84932600  1
  O  O5  1  0.25000000  0.88582000  0.51983200  1
  O  O6  1  0.75000000  0.92461500  0.07395600  1
  O  O7  1  0.25000000  0.97629400  0.28545300  1
  O  O8  1  0.75000000  0.02370600  0.71454700  1
  O  O9  1  0.25000000  0.07538500  0.92604400  1
  O  O10  1  0.75000000  0.11418000  0.48016800  1
  O  O11  1  0.75000000  0.20512800  0.15067400  1
  O  O12  1  0.25000000  0.29487200  0.65067400  1
  O  O13  1  0.25000000  0.38582000  0.98016800  1
  O  O14  1  0.75000000  0.42461500  0.42604400  1
  O  O15  1  0.25000000  0.47629400  0.21454700  1
loop_
_geom_bond_atom_site_label_1
_geom_bond_atom_site_label_2
_geom_bond_distance
_geom_bond_site_symmetry_2
Na0 O2 2.424715 1_555
Na0 O2 2.424715 1_455
Na0 O6 2.427604 1_555
Na0 O6 2.427604 1_455
Na0 O15 2.537430 1_555
Na0 O7 2.566412 1_555
Na0 O3 2.586847 1_455
Na0 O3 2.586847 1_555
Na1 O5 2.424715 1_555
Na1 O5 2.424715 1_655
Na1 O1 2.427604 1_655
Na1 O1 2.427604 1_555
Na1 O8 2.537430 1_565
Na1 O0 2.566412 1_555
Na1 O4 2.586847 1_555
Na1 O4 2.586847 1_655
Na2 O10 2.424715 1_555
Na2 O10 2.424715 1_455
Na2 O14 2.427604 1_455
Na2 O14 2.427604 1_555
Na2 O7 2.537430 1_545
Na2 O15 2.566412 1_555
Na2 O11 2.586847 1_555
Na2 O11 2.586847 1_455
Na3 O13 2.424715 1_555
Na3 O13 2.424715 1_655
Na3 O9 2.427604 1_555
Na3 O9 2.427604 1_655
Na3 O0 2.537430 1_555
Na3 O8 2.566412 1_555
Na3 O12 2.586847 1_655
Na3 O12 2.586847 1_555
Fe0 O14 2.012798 1_455
Fe0 O14 2.012798 1_555
Fe0 O1 2.018363 1_555
Fe0 O3 2.036658 1_455
Fe0 O3 2.036658 1_555
Fe0 O15 2.043419 1_555
Fe1 O0 2.005173 1_455
Fe1 O0 2.005173 1_555
Fe1 O4 2.020610 1_555
Fe1 O2 2.022850 1_456
Fe1 O2 2.022850 1_556
Fe1 O13 2.035850 1_555
Fe2 O7 2.005173 1_655
Fe2 O7 2.005173 1_555
Fe2 O3 2.020610 1_555
Fe2 O5 2.022850 1_555
Fe2 O5 2.022850 1_655
Fe2 O10 2.035850 1_565
Fe3 O9 2.012798 1_565
Fe3 O9 2.012798 1_665
Fe3 O6 2.018363 1_556
Fe3 O4 2.036658 1_555
Fe3 O4 2.036658 1_655
Fe3 O8 2.043419 1_565
Fe4 O6 2.012798 1_545
Fe4 O6 2.012798 1_445
Fe4 O9 2.018363 1_554
Fe4 O11 2.036658 1_555
Fe4 O11 2.036658 1_455
Fe4 O7 2.043419 1_545
Fe5 O8 2.005173 1_555
Fe5 O8 2.005173 1_455
Fe5 O12 2.020610 1_555
Fe5 O10 2.022850 1_455
Fe5 O10 2.022850 1_555
Fe5 O5 2.035850 1_545
Fe6 O15 2.005173 1_555
Fe6 O15 2.005173 1_655
Fe6 O11 2.020610 1_555
Fe6 O13 2.022850 1_654
Fe6 O13 2.022850 1_554
Fe6 O2 2.035850 1_555
Fe7 O1 2.012798 1_655
Fe7 O1 2.012798 1_555
Fe7 O14 2.018363 1_555
Fe7 O12 2.036658 1_655
Fe7 O12 2.036658 1_555
Fe7 O0 2.043419 1_555
