# generated using pymatgen
data_LiFeF4
_symmetry_space_group_name_H-M   'P 1'
_cell_length_a   6.05218545
_cell_length_b   6.05218545
_cell_length_c   5.32375247
_cell_angle_alpha   87.10378728
_cell_angle_beta   87.10378728
_cell_angle_gamma   55.89357918
_symmetry_Int_Tables_number   1
_chemical_formula_structural   LiFeF4
_chemical_formula_sum   'Li2 Fe2 F8'
_cell_volume   161.19804573
_cell_formula_units_Z   2
loop_
 _symmetry_equiv_pos_site_id
 _symmetry_equiv_pos_as_xyz
  1  'x, y, z'
loop_
 _atom_site_type_symbol
 _atom_site_label
 _atom_site_symmetry_multiplicity
 _atom_site_fract_x
 _atom_site_fract_y
 _atom_site_fract_z
 _atom_site_occupancy
  Li  Li0  1  0.50000000  0.00000000  0.00000000  1
  Li  Li1  1  0.00000000  0.50000000  0.50000000  1
  Fe  Fe0  1  0.83472300  0.16527700  0.75000000  1
  Fe  Fe1  1  0.16527700  0.83472300  0.25000000  1
  F  F0  1  0.99289900  0.19540300  0.41428400  1
  F  F1  1  0.50271800  0.76909900  0.29057500  1
  F  F2  1  0.19540300  0.99289900  0.91428400  1
  F  F3  1  0.76909900  0.50271800  0.79057500  1
  F  F4  1  0.23090100  0.49728200  0.20942500  1
  F  F5  1  0.80459700  0.00710100  0.08571600  1
  F  F6  1  0.49728200  0.23090100  0.70942500  1
  F  F7  1  0.00710100  0.80459700  0.58571600  1
loop_
_geom_bond_atom_site_label_1
_geom_bond_atom_site_label_2
_geom_bond_distance
_geom_bond_site_symmetry_2
F0 Li1 1.945337 1_655
F0 Fe0 2.033207 1_555
F0 Fe1 2.040874 1_645
F1 Fe1 1.871224 1_555
F1 Li0 2.025966 1_565
F2 Li0 1.945337 1_566
F2 Fe1 2.033207 1_556
F2 Fe0 2.040874 1_465
F3 Fe0 1.871224 1_555
F3 Li1 2.025966 1_655
F4 Fe1 1.871224 1_555
F4 Li1 2.025966 1_555
F5 Li0 1.945337 1_555
F5 Fe0 2.033207 1_554
F5 Fe1 2.040874 1_645
F6 Fe0 1.871224 1_555
F6 Li0 2.025966 1_556
F7 Li1 1.945337 1_555
F7 Fe1 2.033207 1_555
F7 Fe0 2.040874 1_465
