# generated using pymatgen
data_Na7NbO6
_symmetry_space_group_name_H-M   'P 1'
_cell_length_a   6.43699652
_cell_length_b   6.43699652
_cell_length_c   6.43699698
_cell_angle_alpha   60.43324748
_cell_angle_beta   60.43324748
_cell_angle_gamma   60.43325472
_symmetry_Int_Tables_number   1
_chemical_formula_structural   Na7NbO6
_chemical_formula_sum   'Na7 Nb1 O6'
_cell_volume   190.44446538
_cell_formula_units_Z   1
loop_
 _symmetry_equiv_pos_site_id
 _symmetry_equiv_pos_as_xyz
  1  'x, y, z'
loop_
 _atom_site_type_symbol
 _atom_site_label
 _atom_site_symmetry_multiplicity
 _atom_site_fract_x
 _atom_site_fract_y
 _atom_site_fract_z
 _atom_site_occupancy
  Na  Na0  1  0.88119400  0.29010300  0.49984000  1
  Na  Na1  1  0.04672700  0.75250400  0.51388900  1
  Na  Na2  1  0.75250400  0.51388900  0.04672700  1
  Na  Na3  1  0.51388900  0.04672700  0.75250400  1
  Na  Na4  1  0.34287900  0.34287900  0.34287900  1
  Na  Na5  1  0.49984000  0.88119400  0.29010300  1
  Na  Na6  1  0.29010300  0.49984000  0.88119400  1
  Nb  Nb0  1  0.99655700  0.99655700  0.99655700  1
  O  O0  1  0.78421500  0.10894300  0.32112000  1
  O  O1  1  0.18239100  0.92714000  0.66123900  1
  O  O2  1  0.92714000  0.66123900  0.18239100  1
  O  O3  1  0.66123900  0.18239100  0.92714000  1
  O  O4  1  0.32112000  0.78421500  0.10894300  1
  O  O5  1  0.10894300  0.32112000  0.78421400  1
loop_
_geom_bond_atom_site_label_1
_geom_bond_atom_site_label_2
_geom_bond_distance
_geom_bond_site_symmetry_2
Na0 O2 2.292066 1_555
Na0 O3 2.300934 1_555
Na0 O1 2.327888 1_645
Na0 O0 2.413310 1_555
Na1 O0 2.256728 1_465
Na1 O4 2.289770 1_555
Na1 O5 2.391813 1_555
Na1 O1 2.400904 1_555
Na2 O5 2.256731 1_654
Na2 O0 2.289769 1_555
Na2 O4 2.391815 1_555
Na2 O2 2.400904 1_555
Na3 O4 2.256728 1_546
Na3 O5 2.289770 1_555
Na3 O0 2.391815 1_555
Na3 O3 2.400904 1_555
Na4 O5 2.439558 1_555
Na4 O4 2.439564 1_555
Na4 O0 2.439564 1_555
Na4 O1 2.766815 1_545
Na4 O3 2.766816 1_554
Na4 O2 2.766816 1_455
Na5 O1 2.292066 1_555
Na5 O2 2.300934 1_555
Na5 O3 2.327887 1_564
Na5 O4 2.413310 1_555
Na6 O3 2.292067 1_555
Na6 O1 2.300934 1_555
Na6 O2 2.327888 1_456
Na6 O5 2.413315 1_555
Nb0 O2 2.041006 1_556
Nb0 O3 2.041006 1_565
Nb0 O1 2.041006 1_655
Nb0 O5 2.110448 1_665
Nb0 O4 2.110448 1_656
Nb0 O0 2.110448 1_566
