# generated using pymatgen
data_Li7V4O11F
_symmetry_space_group_name_H-M   'P 1'
_cell_length_a   5.03006900
_cell_length_b   5.07154095
_cell_length_c   9.40358122
_cell_angle_alpha   93.92560002
_cell_angle_beta   93.09269293
_cell_angle_gamma   116.01303261
_symmetry_Int_Tables_number   1
_chemical_formula_structural   Li7V4O11F
_chemical_formula_sum   'Li7 V4 O11 F1'
_cell_volume   214.13399902
_cell_formula_units_Z   1
loop_
 _symmetry_equiv_pos_site_id
 _symmetry_equiv_pos_as_xyz
  1  'x, y, z'
loop_
 _atom_site_type_symbol
 _atom_site_label
 _atom_site_symmetry_multiplicity
 _atom_site_fract_x
 _atom_site_fract_y
 _atom_site_fract_z
 _atom_site_occupancy
  Li  Li0  1  0.38800600  0.86494300  0.12343500  1
  Li  Li1  1  0.69537300  0.53015600  0.12131900  1
  Li  Li2  1  0.77843700  0.93405300  0.37068100  1
  Li  Li3  1  0.12518600  0.64297900  0.37638300  1
  Li  Li4  1  0.86506100  0.36407700  0.62607400  1
  Li  Li5  1  0.27912900  0.42283100  0.86190400  1
  Li  Li6  1  0.61679500  0.14139600  0.87501000  1
  V  V0  1  0.05233200  0.23000900  0.12079800  1
  V  V1  1  0.47020700  0.27157700  0.37089200  1
  V  V2  1  0.54489700  0.74369700  0.63316300  1
  V  V3  1  0.96698900  0.79436800  0.87091500  1
  O  O0  1  0.39239600  0.54081900  0.24431500  1
  O  O1  1  0.74213700  0.60881000  0.49205100  1
  O  O2  1  0.50508200  0.99807300  0.49764200  1
  O  O3  1  0.73940700  0.86696600  0.00962500  1
  O  O4  1  0.87897100  0.04206300  0.74392600  1
  O  O5  1  0.75159600  0.24873000  0.25144400  1
  O  O6  1  0.12288000  0.97870700  0.26434300  1
  O  O7  1  0.30270700  0.14114400  0.99380800  1
  O  O8  1  0.01245600  0.49491600  0.00536200  1
  O  O9  1  0.25255600  0.73681500  0.75298000  1
  O  O10  1  0.63460200  0.48489700  0.76252300  1
  F  F0  1  0.18100000  0.36977200  0.50640700  1
loop_
_geom_bond_atom_site_label_1
_geom_bond_atom_site_label_2
_geom_bond_distance
_geom_bond_site_symmetry_2
Li0 O0 2.068735 1_555
Li0 O7 2.082457 1_564
Li0 O3 2.111754 1_555
Li0 O6 2.151282 1_555
Li0 O8 2.168368 1_555
Li0 O5 2.213930 1_565
Li1 O0 1.979176 1_555
Li1 O3 2.002222 1_555
Li1 O5 2.042106 1_555
Li1 O8 2.043480 1_655
Li1 O7 2.287736 1_554
Li1 O6 2.566343 1_655
Li2 O6 1.981614 1_655
Li2 O2 1.984198 1_555
Li2 O1 2.018118 1_555
Li2 O5 2.059126 1_565
Li2 O0 2.278077 1_555
Li3 O6 2.066599 1_555
Li3 O0 2.078507 1_555
Li3 O2 2.158725 1_555
Li3 O1 2.210112 1_455
Li3 O5 2.248074 1_455
Li4 O10 2.010353 1_555
Li4 O4 2.059073 1_555
Li4 O1 2.077120 1_555
Li4 O2 2.166036 1_545
Li4 O9 2.237165 1_655
Li5 O10 1.973949 1_555
Li5 O7 1.992187 1_555
Li5 O9 1.999485 1_555
Li5 O8 2.076219 1_556
Li5 O4 2.251137 1_455
Li6 O7 1.983147 1_555
Li6 O4 2.045847 1_555
Li6 O10 2.070611 1_555
Li6 O3 2.197672 1_546
Li6 O8 2.232460 1_656
Li6 O9 2.244312 1_545
O0 V0 1.982320 1_555
O0 V1 2.018791 1_555
O1 V1 1.899253 1_555
O1 V2 1.956068 1_555
O2 V2 1.937178 1_555
O2 V1 1.947476 1_565
O3 V3 1.900649 1_554
O3 V0 1.994315 1_665
O4 V2 1.887674 1_545
O4 V3 1.958629 1_545
O5 V1 1.891044 1_555
O5 V0 2.029088 1_655
O6 V1 1.895651 1_565
O6 V0 2.037862 1_565
O7 V0 1.949791 1_556
O7 V3 2.046034 1_445
O8 V0 1.853668 1_555
O8 V3 2.119781 1_454
O9 V2 1.890024 1_555
O9 V3 1.968181 1_455
O10 V3 1.895505 1_555
O10 V2 2.021115 1_555
F0 Li4 1.987417 1_455
F0 Li3 2.007427 1_555
F0 V1 2.176408 1_555
F0 V2 2.185819 1_555
F0 Li2 2.454058 1_445
