# generated using pymatgen
data_Ti3Mn3(SnO8)2
_symmetry_space_group_name_H-M   'P 1'
_cell_length_a   5.89911728
_cell_length_b   5.89911728
_cell_length_c   9.52037695
_cell_angle_alpha   89.27704702
_cell_angle_beta   89.27704702
_cell_angle_gamma   60.04386413
_symmetry_Int_Tables_number   1
_chemical_formula_structural   Ti3Mn3(SnO8)2
_chemical_formula_sum   'Ti3 Mn3 Sn2 O16'
_cell_volume   287.01494286
_cell_formula_units_Z   1
loop_
 _symmetry_equiv_pos_site_id
 _symmetry_equiv_pos_as_xyz
  1  'x, y, z'
loop_
 _atom_site_type_symbol
 _atom_site_label
 _atom_site_symmetry_multiplicity
 _atom_site_fract_x
 _atom_site_fract_y
 _atom_site_fract_z
 _atom_site_occupancy
  Ti  Ti0  1  0.83977100  0.83977100  0.28732500  1
  Ti  Ti1  1  0.67046900  0.17188300  0.78749300  1
  Ti  Ti2  1  0.17188300  0.67046900  0.78749300  1
  Mn  Mn0  1  0.17218500  0.17218500  0.78667200  1
  Mn  Mn1  1  0.83312700  0.34044000  0.28761600  1
  Mn  Mn2  1  0.34044000  0.83312700  0.28761600  1
  Sn  Sn0  1  0.33023500  0.33023500  0.50741500  1
  Sn  Sn1  1  0.66593600  0.66593600  0.01066400  1
  O  O0  1  0.67348700  0.16102500  0.39386800  1
  O  O1  1  0.47873500  0.47873500  0.66590600  1
  O  O2  1  0.32985200  0.32985200  0.89378700  1
  O  O3  1  0.00410700  0.00410700  0.68871400  1
  O  O4  1  0.00497900  0.00497900  0.18844500  1
  O  O5  1  0.16102500  0.67348700  0.39386800  1
  O  O6  1  0.47405000  0.03900600  0.66896900  1
  O  O7  1  0.03900600  0.47405000  0.66896900  1
  O  O8  1  0.83423300  0.83423300  0.89259200  1
  O  O9  1  0.15875100  0.15875100  0.39363900  1
  O  O10  1  0.96030100  0.51523000  0.16906700  1
  O  O11  1  0.51523000  0.96030100  0.16906700  1
  O  O12  1  0.66206800  0.66206800  0.39157500  1
  O  O13  1  0.83522700  0.32624800  0.89460700  1
  O  O14  1  0.51882800  0.51882800  0.17431300  1
  O  O15  1  0.32624800  0.83522700  0.89460700  1
loop_
_geom_bond_atom_site_label_1
_geom_bond_atom_site_label_2
_geom_bond_distance
_geom_bond_site_symmetry_2
Mn0 O6 1.902274 1_555
Mn0 O7 1.902274 1_555
Mn0 O2 1.918828 1_555
Mn0 O3 1.965805 1_555
Mn0 O13 2.000238 1_455
Mn0 O15 2.000238 1_545
Mn1 O10 1.903051 1_555
Mn1 O12 1.925568 1_555
Mn1 O14 1.944712 1_555
Mn1 O9 1.955244 1_655
Mn1 O4 1.963355 1_655
Mn1 O0 1.993653 1_555
Mn2 O11 1.903051 1_555
Mn2 O12 1.925568 1_555
Mn2 O14 1.944712 1_555
Mn2 O9 1.955244 1_565
Mn2 O4 1.963355 1_565
Mn2 O5 1.993653 1_555
O0 Ti0 1.936347 1_545
O0 Sn0 2.053917 1_555
O1 Ti2 1.957390 1_555
O1 Ti1 1.957390 1_555
O1 Sn0 2.155153 1_555
O2 Ti1 2.008087 1_555
O2 Ti2 2.008087 1_555
O3 Ti1 1.941402 1_455
O3 Ti2 1.941402 1_545
O4 Ti0 1.920430 1_445
O5 Ti0 1.936347 1_455
O5 Sn0 2.053917 1_555
O6 Ti1 2.047596 1_555
O6 Sn0 2.132495 1_555
O7 Ti2 2.047596 1_555
O7 Sn0 2.132495 1_555
O8 Ti1 1.988534 1_565
O8 Ti2 1.988534 1_655
O8 Sn1 2.040324 1_556
O9 Sn0 2.072987 1_555
O10 Ti0 2.028100 1_555
O10 Sn1 2.137878 1_555
O11 Ti0 2.028100 1_555
O11 Sn1 2.137878 1_555
O12 Ti0 2.056168 1_555
O13 Ti1 1.935488 1_555
O13 Sn1 2.064727 1_556
O14 Sn1 2.148813 1_555
O15 Ti2 1.935488 1_555
O15 Sn1 2.064727 1_556
