# generated using pymatgen
data_Rb4LiH3(SO4)4
_symmetry_space_group_name_H-M   'P 1'
_cell_length_a   7.74802800
_cell_length_b   7.74802800
_cell_length_c   30.00459700
_cell_angle_alpha   90.00000000
_cell_angle_beta   90.00000000
_cell_angle_gamma   90.00000000
_symmetry_Int_Tables_number   1
_chemical_formula_structural   Rb4LiH3(SO4)4
_chemical_formula_sum   'Rb16 Li4 H12 S16 O64'
_cell_volume   1801.23410348
_cell_formula_units_Z   4
loop_
 _symmetry_equiv_pos_site_id
 _symmetry_equiv_pos_as_xyz
  1  'x, y, z'
loop_
 _atom_site_type_symbol
 _atom_site_label
 _atom_site_symmetry_multiplicity
 _atom_site_fract_x
 _atom_site_fract_y
 _atom_site_fract_z
 _atom_site_occupancy
  Rb  Rb0  1  0.93464200  0.11442100  0.47482100  1
  Rb  Rb1  1  0.06535800  0.88557900  0.97482100  1
  Rb  Rb2  1  0.11442100  0.06535800  0.72482100  1
  Rb  Rb3  1  0.88557900  0.93464200  0.22482100  1
  Rb  Rb4  1  0.51852700  0.22708700  0.37000300  1
  Rb  Rb5  1  0.48147300  0.77291300  0.87000300  1
  Rb  Rb6  1  0.22708700  0.48147300  0.62000300  1
  Rb  Rb7  1  0.77291300  0.51852700  0.12000300  1
  Rb  Rb8  1  0.63579600  0.61799900  0.48805500  1
  Rb  Rb9  1  0.36420400  0.38200100  0.98805500  1
  Rb  Rb10  1  0.61799900  0.36420400  0.73805500  1
  Rb  Rb11  1  0.38200100  0.63579600  0.23805500  1
  Rb  Rb12  1  0.02385200  0.52860300  0.35959300  1
  Rb  Rb13  1  0.97614800  0.47139700  0.85959300  1
  Rb  Rb14  1  0.52860300  0.97614800  0.60959300  1
  Rb  Rb15  1  0.47139700  0.02385200  0.10959300  1
  Li  Li0  1  0.27923700  0.87141900  0.42245400  1
  Li  Li1  1  0.72076300  0.12858100  0.92245400  1
  Li  Li2  1  0.87141900  0.72076300  0.67245400  1
  Li  Li3  1  0.12858100  0.27923700  0.17245400  1
  H  H0  1  0.07224100  0.78388300  0.53887200  1
  H  H1  1  0.92775900  0.21611700  0.03887200  1
  H  H2  1  0.78388300  0.92775900  0.78887200  1
  H  H3  1  0.21611700  0.07224100  0.28887200  1
  H  H4  1  0.31281000  0.31812900  0.52391500  1
  H  H5  1  0.68719000  0.68187100  0.02391500  1
  H  H6  1  0.31812900  0.68719000  0.77391500  1
  H  H7  1  0.68187100  0.31281000  0.27391500  1
  H  H8  1  0.73227200  0.84628200  0.32338900  1
  H  H9  1  0.26772800  0.15371800  0.82338900  1
  H  H10  1  0.84628200  0.26772800  0.57338900  1
  H  H11  1  0.15371800  0.73227200  0.07338900  1
  S  S0  1  0.12604500  0.58624900  0.48553800  1
  S  S1  1  0.87395500  0.41375100  0.98553800  1
  S  S2  1  0.58624900  0.87395500  0.73553800  1
  S  S3  1  0.41375100  0.12604500  0.23553800  1
  S  S4  1  0.46342000  0.12492000  0.48832800  1
  S  S5  1  0.53658000  0.87508000  0.98832800  1
  S  S6  1  0.12492000  0.53658000  0.73832800  1
  S  S7  1  0.87508000  0.46342000  0.23832800  1
  S  S8  1  0.53721200  0.69551200  0.36026900  1
  S  S9  1  0.46278800  0.30448800  0.86026900  1
  S  S10  1  0.69551200  0.46278800  0.61026900  1
  S  S11  1  0.30448800  0.53721200  0.11026900  1
  S  S12  1  0.00660300  0.03649800  0.35622800  1
  S  S13  1  0.99339700  0.96350200  0.85622800  1
  S  S14  1  0.03649800  0.99339700  0.60622800  1
  S  S15  1  0.96350200  0.00660300  0.10622800  1
  O  O0  1  0.25905500  0.65271200  0.45488900  1
  O  O1  1  0.74094500  0.34728800  0.95488900  1
  O  O2  1  0.65271200  0.74094500  0.70488900  1
  O  O3  1  0.34728800  0.25905500  0.20488900  1
  O  O4  1  0.02768500  0.74546200  0.50681300  1
  O  O5  1  0.97231500  0.25453800  0.00681300  1
  O  O6  1  0.74546200  0.97231500  0.75681300  1
  O  O7  1  0.25453800  0.02768500  0.25681300  1
  O  O8  1  0.20476200  0.49368700  0.52362200  1
  O  O9  1  0.79523800  0.50631300  0.02362200  1
  O  O10  1  0.49368700  0.79523800  0.77362200  1
  O  O11  1  0.50631300  0.20476200  0.27362200  1
  O  O12  1  0.99377200  0.48767500  0.46207400  1
  O  O13  1  0.00622800  0.51232500  0.96207400  1
  O  O14  1  0.48767500  0.00622800  0.71207400  1
  O  O15  1  0.51232500  0.99377200  0.21207400  1
  O  O16  1  0.55882700  0.97708300  0.50597400  1
  O  O17  1  0.44117300  0.02291700  0.00597400  1
  O  O18  1  0.97708300  0.44117300  0.75597400  1
  O  O19  1  0.02291700  0.55882700  0.25597400  1
  O  O20  1  0.57426500  0.25571500  0.46747200  1
  O  O21  1  0.42573500  0.74428500  0.96747200  1
  O  O22  1  0.25571500  0.42573500  0.71747200  1
  O  O23  1  0.74428500  0.57426500  0.21747200  1
  O  O24  1  0.37891900  0.20854000  0.53148900  1
  O  O25  1  0.62108100  0.79146000  0.03148900  1
  O  O26  1  0.20854000  0.62108100  0.78148900  1
  O  O27  1  0.79146000  0.37891900  0.28148900  1
  O  O28  1  0.31845900  0.07713000  0.45875200  1
  O  O29  1  0.68154100  0.92287000  0.95875200  1
  O  O30  1  0.07713000  0.68154100  0.70875200  1
  O  O31  1  0.92287000  0.31845900  0.20875200  1
  O  O32  1  0.89331900  0.16641200  0.37733400  1
  O  O33  1  0.10668100  0.83358800  0.87733400  1
  O  O34  1  0.16641200  0.10668100  0.62733400  1
  O  O35  1  0.83358800  0.89331900  0.12733400  1
  O  O36  1  0.07077000  0.91355800  0.39072000  1
  O  O37  1  0.92923000  0.08644200  0.89072000  1
  O  O38  1  0.91355800  0.92923000  0.64072000  1
  O  O39  1  0.08644200  0.07077000  0.14072000  1
  O  O40  1  0.91166200  0.93685400  0.32110800  1
  O  O41  1  0.08833800  0.06314600  0.82110800  1
  O  O42  1  0.93685400  0.08833800  0.57110800  1
  O  O43  1  0.06314600  0.91166200  0.07110800  1
  O  O44  1  0.15760700  0.12635700  0.33405100  1
  O  O45  1  0.84239300  0.87364300  0.83405100  1
  O  O46  1  0.12635700  0.84239300  0.58405100  1
  O  O47  1  0.87364300  0.15760700  0.08405100  1
  O  O48  1  0.48700800  0.84567800  0.38762400  1
  O  O49  1  0.51299200  0.15432200  0.88762400  1
  O  O50  1  0.84567800  0.51299200  0.63762400  1
  O  O51  1  0.15432200  0.48700800  0.13762400  1
  O  O52  1  0.39110500  0.59604700  0.34274000  1
  O  O53  1  0.60889500  0.40395300  0.84274000  1
  O  O54  1  0.59604700  0.60889500  0.59274000  1
  O  O55  1  0.40395300  0.39110500  0.09274000  1
  O  O56  1  0.62390500  0.77311600  0.31665900  1
  O  O57  1  0.37609500  0.22688400  0.81665900  1
  O  O58  1  0.77311600  0.37609500  0.56665900  1
  O  O59  1  0.22688400  0.62390500  0.06665900  1
  O  O60  1  0.66424300  0.58703300  0.38351500  1
  O  O61  1  0.33575700  0.41296700  0.88351500  1
  O  O62  1  0.58703300  0.33575700  0.63351500  1
  O  O63  1  0.41296700  0.66424300  0.13351500  1
loop_
_geom_bond_atom_site_label_1
_geom_bond_atom_site_label_2
_geom_bond_distance
_geom_bond_site_symmetry_2
Li0 O36 1.903186 1_555
Li0 O48 1.929620 1_555
Li0 O28 1.954195 1_565
Li0 O0 1.960373 1_555
Li1 O37 1.903186 1_555
Li1 O49 1.929620 1_555
Li1 O29 1.954195 1_545
Li1 O1 1.960373 1_555
Li2 O38 1.903186 1_555
Li2 O50 1.929620 1_555
Li2 O30 1.954195 1_655
Li2 O2 1.960373 1_555
Li3 O39 1.903186 1_555
Li3 O51 1.929620 1_555
Li3 O31 1.954195 1_455
Li3 O3 1.960373 1_555
H0 O4 1.064462 1_555
H0 O46 1.489601 1_555
H1 O5 1.064462 1_555
H1 O47 1.489601 1_555
H2 O6 1.064462 1_555
H2 O45 1.489601 1_555
H3 O7 1.064462 1_555
H3 O44 1.489601 1_555
H4 O24 1.017338 1_555
H4 O8 1.597227 1_555
H5 O25 1.017338 1_555
H5 O9 1.597227 1_555
H6 O26 1.017338 1_555
H6 O10 1.597227 1_555
H7 O27 1.017338 1_555
H7 O11 1.597227 1_555
H8 O56 1.033016 1_555
H8 O40 1.558531 1_555
H9 O57 1.033016 1_555
H9 O41 1.558531 1_555
H10 O58 1.033016 1_555
H10 O42 1.558531 1_555
H11 O59 1.033016 1_555
H11 O43 1.558531 1_555
O0 S0 1.474086 1_555
O0 Rb8 3.095672 1_555
O1 S1 1.474086 1_555
O1 Rb9 3.095672 1_555
O2 S2 1.474086 1_555
O2 Rb10 3.095672 1_555
O3 S3 1.474086 1_555
O3 Rb11 3.095672 1_555
O4 S0 1.584303 1_555
O4 Rb0 3.100534 1_465
O4 Rb8 3.242164 1_455
O5 S1 1.584303 1_554
O5 Rb1 3.100534 1_644
O5 Rb9 3.242164 1_654
O6 S2 1.584303 1_555
O6 Rb2 3.100534 1_665
O6 Rb10 3.242164 1_565
O7 S3 1.584303 1_555
O7 Rb3 3.100534 1_445
O7 Rb11 3.242164 1_545
O8 S0 1.480564 1_555
O8 Rb6 2.898587 1_555
O9 S1 1.480564 1_554
O9 Rb7 2.898587 1_555
O10 S2 1.480564 1_555
O10 Rb5 2.898587 1_555
O11 S3 1.480564 1_555
O11 Rb4 2.898587 1_555
O12 S0 1.459213 1_655
O12 Rb0 2.952920 1_555
O12 Rb8 3.052901 1_555
O12 Rb12 3.099983 1_655
O13 S1 1.459213 1_455
O13 Rb1 2.952920 1_555
O13 Rb9 3.052901 1_555
O13 Rb13 3.099983 1_455
O14 S2 1.459213 1_545
O14 Rb2 2.952920 1_555
O14 Rb10 3.052901 1_555
O14 Rb14 3.099983 1_545
O15 S3 1.459213 1_565
O15 Rb3 2.952920 1_555
O15 Rb11 3.052901 1_555
O15 Rb15 3.099983 1_565
O16 S4 1.462469 1_565
O16 Rb8 2.895740 1_555
O16 Rb14 3.117861 1_555
O16 Rb0 3.238018 1_565
O17 S5 1.462469 1_544
O17 Rb9 2.895740 1_554
O17 Rb15 3.117861 1_555
O17 Rb1 3.238018 1_544
O18 S6 1.462469 1_655
O18 Rb10 2.895740 1_555
O18 Rb13 3.117861 1_555
O18 Rb2 3.238018 1_655
O19 S7 1.462469 1_455
O19 Rb11 2.895740 1_555
O19 Rb12 3.117861 1_555
O19 Rb3 3.238018 1_455
O20 S4 1.468391 1_555
O20 Rb8 2.913395 1_555
O20 Rb4 2.964542 1_555
O20 Rb0 3.007248 1_555
O21 S5 1.468391 1_555
O21 Rb9 2.913395 1_555
O21 Rb5 2.964542 1_555
O21 Rb1 3.007248 1_555
O22 S6 1.468391 1_555
O22 Rb10 2.913395 1_555
O22 Rb6 2.964542 1_555
O22 Rb2 3.007248 1_555
O23 S7 1.468391 1_555
O23 Rb11 2.913395 1_555
O23 Rb7 2.964542 1_555
O23 Rb3 3.007248 1_555
O24 S4 1.589186 1_555
O24 Rb14 3.174746 1_545
O25 S5 1.589186 1_554
O25 Rb15 3.174746 1_565
O26 S6 1.589186 1_555
O26 Rb13 3.174746 1_455
O27 S7 1.589186 1_555
O27 Rb12 3.174746 1_655
O28 S4 1.478549 1_555
O28 Rb0 3.026480 1_455
O28 Rb4 3.292989 1_555
O29 S5 1.478549 1_555
O29 Rb1 3.026480 1_655
O29 Rb5 3.292989 1_555
O30 S6 1.478549 1_555
O30 Rb2 3.026480 1_565
O30 Rb6 3.292989 1_555
O31 S7 1.478549 1_555
O31 Rb3 3.026480 1_545
O31 Rb7 3.292989 1_555
O32 S12 1.478054 1_655
O32 Rb4 2.949918 1_555
O32 Rb0 2.969974 1_555
O32 Rb12 3.030076 1_655
O33 S13 1.478054 1_455
O33 Rb5 2.949918 1_555
O33 Rb1 2.969974 1_555
O33 Rb13 3.030076 1_455
O34 S14 1.478054 1_545
O34 Rb6 2.949918 1_555
O34 Rb2 2.969974 1_555
O34 Rb14 3.030076 1_545
O35 S15 1.478054 1_565
O35 Rb7 2.949918 1_555
O35 Rb3 2.969974 1_555
O35 Rb15 3.030076 1_565
O36 S12 1.491834 1_565
O36 Rb12 3.146517 1_555
O36 Rb0 3.146763 1_465
O37 S13 1.491834 1_545
O37 Rb13 3.146517 1_555
O37 Rb1 3.146763 1_645
O38 S14 1.491834 1_655
O38 Rb14 3.146517 1_555
O38 Rb2 3.146763 1_665
O39 S15 1.491834 1_455
O39 Rb15 3.146517 1_555
O39 Rb3 3.146763 1_445
O40 S12 1.499194 1_665
O40 Rb3 2.896163 1_555
O41 S13 1.499194 1_445
O41 Rb2 2.896163 1_555
O42 S14 1.499194 1_645
O42 Rb0 2.896163 1_555
O43 S15 1.499194 1_465
O43 Rb1 2.896163 1_554
O44 S12 1.515378 1_555
O44 Rb4 3.097212 1_555
O44 Rb12 3.372626 1_555
O45 S13 1.515378 1_555
O45 Rb5 3.097212 1_555
O45 Rb13 3.372626 1_555
O46 S14 1.515378 1_555
O46 Rb6 3.097212 1_555
O46 Rb14 3.372626 1_555
O47 S15 1.515378 1_555
O47 Rb7 3.097212 1_555
O47 Rb15 3.372626 1_555
O48 S8 1.476039 1_555
O48 Rb4 3.012008 1_565
O49 S9 1.476039 1_555
O49 Rb5 3.012008 1_545
O50 S10 1.476039 1_555
O50 Rb6 3.012008 1_655
O51 S11 1.476039 1_555
O51 Rb7 3.012008 1_455
O52 S8 1.466988 1_555
O52 Rb12 2.936930 1_555
O52 Rb4 3.133063 1_555
O52 Rb11 3.156882 1_555
O53 S9 1.466988 1_555
O53 Rb13 2.936930 1_555
O53 Rb5 3.133063 1_555
O53 Rb10 3.156882 1_555
O54 S10 1.466988 1_555
O54 Rb14 2.936930 1_555
O54 Rb6 3.133063 1_555
O54 Rb8 3.156882 1_555
O55 S11 1.466988 1_555
O55 Rb15 2.936930 1_555
O55 Rb7 3.133063 1_555
O55 Rb9 3.156882 1_554
O56 S8 1.588990 1_555
O56 Rb11 3.194897 1_555
O57 S9 1.588990 1_555
O57 Rb10 3.194897 1_555
O58 S10 1.588990 1_555
O58 Rb8 3.194897 1_555
O59 S11 1.588990 1_555
O59 Rb9 3.194897 1_554
O60 S8 1.470256 1_555
O60 Rb12 2.912627 1_655
O60 Rb4 3.035925 1_555
O60 Rb8 3.153555 1_555
O61 S9 1.470256 1_555
O61 Rb13 2.912627 1_455
O61 Rb5 3.035925 1_555
O61 Rb9 3.153555 1_555
O62 S10 1.470256 1_555
O62 Rb14 2.912627 1_545
O62 Rb6 3.035925 1_555
O62 Rb10 3.153555 1_555
O63 S11 1.470256 1_555
O63 Rb15 2.912627 1_565
O63 Rb7 3.035925 1_555
O63 Rb11 3.153555 1_555
