# generated using pymatgen
data_Li12VFe3P4(CO7)4
_symmetry_space_group_name_H-M   'P 1'
_cell_length_a   6.53275700
_cell_length_b   8.49464400
_cell_length_c   10.05787686
_cell_angle_alpha   84.81626407
_cell_angle_beta   90.00000000
_cell_angle_gamma   90.00000000
_symmetry_Int_Tables_number   1
_chemical_formula_structural   Li12VFe3P4(CO7)4
_chemical_formula_sum   'Li12 V1 Fe3 P4 C4 O28'
_cell_volume   555.86346630
_cell_formula_units_Z   1
loop_
 _symmetry_equiv_pos_site_id
 _symmetry_equiv_pos_as_xyz
  1  'x, y, z'
loop_
 _atom_site_type_symbol
 _atom_site_label
 _atom_site_symmetry_multiplicity
 _atom_site_fract_x
 _atom_site_fract_y
 _atom_site_fract_z
 _atom_site_occupancy
  Li  Li0  1  0.00000000  0.90768300  0.61823900  1
  Li  Li1  1  0.00000000  0.90422100  0.11807700  1
  Li  Li2  1  0.22798300  0.72510000  0.87526300  1
  Li  Li3  1  0.77201700  0.72510000  0.87526300  1
  Li  Li4  1  0.22930900  0.72398700  0.37618700  1
  Li  Li5  1  0.77069100  0.72398700  0.37618700  1
  Li  Li6  1  0.72377100  0.27584200  0.62376100  1
  Li  Li7  1  0.27622900  0.27584200  0.62376100  1
  Li  Li8  1  0.72545300  0.27595900  0.12516200  1
  Li  Li9  1  0.27454700  0.27595900  0.12516200  1
  Li  Li10  1  0.50000000  0.09369300  0.88121400  1
  Li  Li11  1  0.50000000  0.09559200  0.38095300  1
  V  V0  1  0.00000000  0.33087700  0.39580500  1
  Fe  Fe0  1  0.50000000  0.66558800  0.60575200  1
  Fe  Fe1  1  0.50000000  0.66559200  0.10657900  1
  Fe  Fe2  1  0.00000000  0.33355900  0.89429000  1
  P  P0  1  0.00000000  0.58858300  0.63886400  1
  P  P1  1  0.00000000  0.58762800  0.14117300  1
  P  P2  1  0.50000000  0.41187100  0.85995100  1
  P  P3  1  0.50000000  0.41093500  0.36072800  1
  C  C0  1  0.50000000  0.96555100  0.64930000  1
  C  C1  1  0.50000000  0.96560600  0.14966800  1
  C  C2  1  0.00000000  0.03368800  0.85008100  1
  C  C3  1  0.00000000  0.03568600  0.34956300  1
  O  O0  1  0.50000000  0.93005100  0.52711200  1
  O  O1  1  0.00000000  0.88782900  0.82096000  1
  O  O2  1  0.50000000  0.92959600  0.02730100  1
  O  O3  1  0.50000000  0.85135900  0.74522600  1
  O  O4  1  0.00000000  0.88995000  0.32217500  1
  O  O5  1  0.50000000  0.85180600  0.24558400  1
  O  O6  1  0.18653800  0.69074900  0.58643400  1
  O  O7  1  0.81346200  0.69074900  0.58643400  1
  O  O8  1  0.18673700  0.68942800  0.08853700  1
  O  O9  1  0.81326300  0.68942800  0.08853700  1
  O  O10  1  0.50000000  0.57861800  0.90949900  1
  O  O11  1  0.00000000  0.56972600  0.79496000  1
  O  O12  1  0.50000000  0.57874100  0.40971700  1
  O  O13  1  0.00000000  0.57109200  0.29674400  1
  O  O14  1  0.50000000  0.42863700  0.70389900  1
  O  O15  1  0.00000000  0.42224800  0.58888600  1
  O  O16  1  0.50000000  0.42936500  0.20389700  1
  O  O17  1  0.00000000  0.42125300  0.09015500  1
  O  O18  1  0.31332900  0.31009200  0.91281100  1
  O  O19  1  0.68667100  0.31009200  0.91281100  1
  O  O20  1  0.68292000  0.30775900  0.41408000  1
  O  O21  1  0.31708000  0.30775900  0.41408000  1
  O  O22  1  0.00000000  0.14809500  0.75392500  1
  O  O23  1  0.50000000  0.11169600  0.67920600  1
  O  O24  1  0.00000000  0.14937500  0.25320300  1
  O  O25  1  0.00000000  0.07003500  0.97233100  1
  O  O26  1  0.50000000  0.11201000  0.17867800  1
  O  O27  1  0.00000000  0.07432800  0.47183700  1
loop_
_geom_bond_atom_site_label_1
_geom_bond_atom_site_label_2
_geom_bond_distance
_geom_bond_site_symmetry_2
Li0 O27 1.948197 1_565
Li0 O1 2.030663 1_555
Li0 O6 2.256032 1_555
Li0 O7 2.256032 1_455
Li0 O22 2.556697 1_565
Li1 O25 1.938996 1_564
Li1 O4 2.045406 1_555
Li1 O9 2.236858 1_455
Li1 O8 2.236858 1_555
Li2 O1 2.071446 1_555
Li2 O8 2.156004 1_556
Li2 O10 2.178822 1_555
Li2 O11 2.192066 1_555
Li2 O3 2.401089 1_555
Li3 O1 2.071446 1_655
Li3 O9 2.156004 1_556
Li3 O10 2.178822 1_555
Li3 O11 2.192066 1_655
Li3 O3 2.401089 1_555
Li4 O4 2.094830 1_555
Li4 O6 2.126405 1_555
Li4 O12 2.165163 1_555
Li4 O13 2.181029 1_555
Li4 O5 2.402872 1_555
Li5 O4 2.094830 1_655
Li5 O7 2.126405 1_555
Li5 O12 2.165163 1_555
Li5 O13 2.181029 1_655
Li5 O5 2.402872 1_555
Li6 O23 2.061965 1_555
Li6 O20 2.118740 1_555
Li6 O14 2.158781 1_555
Li6 O15 2.201652 1_655
Li6 O22 2.427171 1_655
Li7 O23 2.061965 1_555
Li7 O21 2.118740 1_555
Li7 O14 2.158781 1_555
Li7 O15 2.201652 1_555
Li7 O22 2.427171 1_555
Li8 O26 2.064721 1_555
Li8 O19 2.144294 1_554
Li8 O16 2.163554 1_555
Li8 O17 2.187593 1_655
Li8 O24 2.404436 1_655
Li9 O26 2.064721 1_555
Li9 O18 2.144294 1_554
Li9 O16 2.163554 1_555
Li9 O17 2.187593 1_555
Li9 O24 2.404436 1_555
Li10 O2 1.931812 1_546
Li10 O23 2.023694 1_555
Li10 O19 2.252283 1_555
Li10 O18 2.252283 1_555
Li11 O0 1.940344 1_545
Li11 O26 2.026622 1_555
Li11 O21 2.212624 1_555
Li11 O20 2.212624 1_555
Fe0 O7 2.066228 1_555
Fe0 O6 2.066228 1_555
Fe0 O14 2.160288 1_555
Fe0 O12 2.166721 1_555
Fe0 O3 2.204126 1_555
Fe0 O0 2.313303 1_555
Fe1 O9 2.062845 1_555
Fe1 O8 2.062845 1_555
Fe1 O16 2.151710 1_555
Fe1 O10 2.177066 1_554
Fe1 O5 2.203736 1_555
Fe1 O2 2.311280 1_555
Fe2 O18 2.063380 1_555
Fe2 O19 2.063380 1_455
Fe2 O11 2.158840 1_555
Fe2 O17 2.168166 1_556
Fe2 O22 2.208406 1_555
Fe2 O25 2.304274 1_555
C0 O0 1.291599 1_555
C0 O23 1.303514 1_565
C0 O3 1.304870 1_555
C1 O2 1.294740 1_555
C1 O5 1.302552 1_555
C1 O26 1.302832 1_565
C2 O25 1.294521 1_555
C2 O1 1.298667 1_545
C2 O22 1.307661 1_555
C3 O4 1.292318 1_545
C3 O27 1.301209 1_555
C3 O24 1.304930 1_555
O6 P0 1.559992 1_555
O7 P0 1.559992 1_655
O8 P1 1.559975 1_555
O9 P1 1.559975 1_655
O10 P2 1.543455 1_555
O11 P0 1.563681 1_555
O12 P3 1.549712 1_555
O13 P1 1.558315 1_555
O13 V0 2.188408 1_555
O14 P2 1.563133 1_555
O15 P0 1.541904 1_555
O15 V0 2.155482 1_555
O16 P3 1.570998 1_555
O17 P1 1.546531 1_555
O18 P2 1.560197 1_555
O19 P2 1.560197 1_555
O20 P3 1.548895 1_555
O20 V0 2.087236 1_655
O21 P3 1.548895 1_555
O21 V0 2.087236 1_555
O24 V0 2.198605 1_555
O27 V0 2.243428 1_555
