# generated using pymatgen
data_Li5Ti2Mn3O10
_symmetry_space_group_name_H-M   'P 1'
_cell_length_a   5.24146805
_cell_length_b   5.27730675
_cell_length_c   14.47622304
_cell_angle_alpha   92.18181382
_cell_angle_beta   85.56365702
_cell_angle_gamma   101.47015275
_symmetry_Int_Tables_number   1
_chemical_formula_structural   Li5Ti2Mn3O10
_chemical_formula_sum   'Li10 Ti4 Mn6 O20'
_cell_volume   391.14605638
_cell_formula_units_Z   2
loop_
 _symmetry_equiv_pos_site_id
 _symmetry_equiv_pos_as_xyz
  1  'x, y, z'
loop_
 _atom_site_type_symbol
 _atom_site_label
 _atom_site_symmetry_multiplicity
 _atom_site_fract_x
 _atom_site_fract_y
 _atom_site_fract_z
 _atom_site_occupancy
  Li  Li0  1  0.01881400  0.69471800  0.19922800  1
  Li  Li1  1  0.51876200  0.19456700  0.69936500  1
  Li  Li2  1  0.00004900  0.90355100  0.39178800  1
  Li  Li3  1  0.49952300  0.40373600  0.89140100  1
  Li  Li4  1  0.25152300  0.24301300  0.25273700  1
  Li  Li5  1  0.75155300  0.74300600  0.75275200  1
  Li  Li6  1  0.48141100  0.80251800  0.30202800  1
  Li  Li7  1  0.98148600  0.30267500  0.80189900  1
  Li  Li8  1  0.49599800  0.59457500  0.11094000  1
  Li  Li9  1  0.99651200  0.09446500  0.61129900  1
  Ti  Ti0  1  0.75482600  0.37432900  0.34377300  1
  Ti  Ti1  1  0.25708300  0.87412500  0.84390900  1
  Ti  Ti2  1  0.74446400  0.12528600  0.15758800  1
  Ti  Ti3  1  0.24227700  0.62551700  0.65742700  1
  Mn  Mn0  1  0.49937000  0.00091000  0.50085800  1
  Mn  Mn1  1  0.23793900  0.43959800  0.44912000  1
  Mn  Mn2  1  0.74106200  0.93872100  0.94925100  1
  Mn  Mn3  1  0.99576000  0.49919700  0.99984700  1
  Mn  Mn4  1  0.25937400  0.06024100  0.05234700  1
  Mn  Mn5  1  0.75643200  0.56116100  0.55229100  1
  O  O0  1  0.63361000  0.64982100  0.41533800  1
  O  O1  1  0.13624900  0.15092200  0.91602300  1
  O  O2  1  0.86514200  0.05727900  0.27133300  1
  O  O3  1  0.36533400  0.55761000  0.77122500  1
  O  O4  1  0.84603000  0.21522500  0.46736500  1
  O  O5  1  0.34239800  0.71719600  0.96766800  1
  O  O6  1  0.09947600  0.37811900  0.11587900  1
  O  O7  1  0.60164800  0.88086200  0.61668900  1
  O  O8  1  0.09796900  0.56037200  0.32636100  1
  O  O9  1  0.59836200  0.06058200  0.82617500  1
  O  O10  1  0.40034400  0.93827200  0.17487600  1
  O  O11  1  0.90002300  0.43810200  0.67509500  1
  O  O12  1  0.39601500  0.12120500  0.38437500  1
  O  O13  1  0.89376300  0.61863800  0.88356600  1
  O  O14  1  0.64965900  0.28426500  0.03332600  1
  O  O15  1  0.15345800  0.78240000  0.53296700  1
  O  O16  1  0.63332100  0.44081300  0.22973200  1
  O  O17  1  0.13314700  0.94050700  0.72982500  1
  O  O18  1  0.86402000  0.84936400  0.08548500  1
  O  O19  1  0.36133400  0.34835500  0.58476400  1
loop_
_geom_bond_atom_site_label_1
_geom_bond_atom_site_label_2
_geom_bond_distance
_geom_bond_site_symmetry_2
Li0 O8 2.096747 1_555
Li0 O6 2.115336 1_555
Li0 O18 2.146592 1_455
Li0 O10 2.163003 1_555
Li0 O16 2.214336 1_455
Li0 O2 2.393742 1_465
Li1 O9 2.092508 1_555
Li1 O7 2.101581 1_545
Li1 O19 2.161582 1_555
Li1 O11 2.161707 1_555
Li1 O17 2.215089 1_545
Li1 O3 2.393971 1_555
Li2 O0 2.123392 1_455
Li2 O8 2.145763 1_555
Li2 O12 2.159893 1_565
Li2 O2 2.173795 1_465
Li2 O4 2.192830 1_465
Li2 O15 2.406321 1_555
Li3 O1 2.110330 1_555
Li3 O9 2.146315 1_555
Li3 O13 2.147216 1_555
Li3 O3 2.169022 1_555
Li3 O5 2.212638 1_555
Li3 O14 2.404990 1_556
Li4 O2 2.069040 1_455
Li4 O16 2.073120 1_555
Li4 O10 2.165669 1_545
Li4 O8 2.203667 1_555
Li4 O12 2.264586 1_555
Li4 O6 2.376216 1_555
Li5 O3 2.067663 1_555
Li5 O17 2.071589 1_655
Li5 O11 2.164123 1_555
Li5 O9 2.202450 1_565
Li5 O13 2.253889 1_555
Li5 O7 2.366882 1_555
Li6 O10 2.103421 1_555
Li6 O12 2.124632 1_565
Li6 O0 2.129576 1_555
Li6 O8 2.167869 1_555
Li6 O2 2.209556 1_565
Li6 O16 2.386708 1_555
Li7 O11 2.098856 1_555
Li7 O13 2.111906 1_555
Li7 O1 2.143641 1_655
Li7 O9 2.166331 1_555
Li7 O3 2.210383 1_655
Li7 O17 2.386960 1_645
Li8 O10 2.135399 1_555
Li8 O18 2.135624 1_555
Li8 O16 2.159578 1_555
Li8 O6 2.160683 1_555
Li8 O14 2.199381 1_555
Li8 O5 2.436445 1_554
Li9 O19 2.122702 1_655
Li9 O11 2.135970 1_555
Li9 O7 2.148053 1_545
Li9 O17 2.155155 1_645
Li9 O15 2.219690 1_645
Li9 O4 2.434132 1_555
Mn0 O7 1.963521 1_545
Mn0 O12 1.974709 1_555
Mn0 O4 1.975832 1_555
Mn0 O15 1.977876 1_545
Mn0 O19 2.362816 1_555
Mn0 O0 2.381112 1_545
Mn1 O8 2.139255 1_555
Mn1 O4 2.159624 1_455
Mn1 O12 2.168378 1_555
Mn1 O0 2.177233 1_555
Mn1 O19 2.213204 1_555
Mn1 O15 2.238381 1_555
Mn2 O9 2.152229 1_565
Mn2 O13 2.166966 1_555
Mn2 O1 2.177224 1_665
Mn2 O5 2.184062 1_555
Mn2 O18 2.217077 1_556
Mn2 O14 2.263712 1_566
Mn3 O13 1.967406 1_555
Mn3 O6 1.971382 1_656
Mn3 O14 1.974791 1_556
Mn3 O5 1.979943 1_655
Mn3 O1 2.371288 1_655
Mn3 O18 2.372594 1_556
Mn4 O10 2.141336 1_545
Mn4 O14 2.152685 1_555
Mn4 O6 2.164452 1_555
Mn4 O18 2.175416 1_445
Mn4 O1 2.220763 1_554
Mn4 O5 2.243043 1_544
Mn5 O11 2.153563 1_555
Mn5 O7 2.163655 1_555
Mn5 O19 2.176105 1_555
Mn5 O15 2.177263 1_655
Mn5 O0 2.225260 1_555
Mn5 O4 2.268395 1_555
O0 Ti0 1.934297 1_555
O1 Ti1 1.942745 1_545
O2 Ti2 1.880583 1_555
O2 Ti0 2.095445 1_555
O3 Ti3 1.886670 1_555
O3 Ti1 2.090419 1_555
O4 Ti0 2.130938 1_555
O5 Ti1 2.116534 1_555
O6 Ti2 2.123077 1_455
O7 Ti3 2.142628 1_555
O8 Ti0 1.873165 1_455
O9 Ti1 1.866040 1_545
O10 Ti2 1.879087 1_565
O11 Ti3 1.872000 1_655
O12 Ti0 2.134594 1_555
O13 Ti1 2.154659 1_655
O14 Ti2 2.146081 1_555
O15 Ti3 2.131894 1_555
O16 Ti0 1.884074 1_555
O16 Ti2 2.088543 1_555
O17 Ti1 1.890162 1_555
O17 Ti3 2.083651 1_555
O18 Ti2 1.936093 1_565
O19 Ti3 1.944120 1_555
