# generated using pymatgen
data_Li3Ti2V2O8
_symmetry_space_group_name_H-M   'P 1'
_cell_length_a   5.98999007
_cell_length_b   5.98999007
_cell_length_c   6.03156448
_cell_angle_alpha   59.81351368
_cell_angle_beta   59.81351368
_cell_angle_gamma   59.78829089
_symmetry_Int_Tables_number   1
_chemical_formula_structural   Li3Ti2V2O8
_chemical_formula_sum   'Li3 Ti2 V2 O8'
_cell_volume   152.34966123
_cell_formula_units_Z   1
loop_
 _symmetry_equiv_pos_site_id
 _symmetry_equiv_pos_as_xyz
  1  'x, y, z'
loop_
 _atom_site_type_symbol
 _atom_site_label
 _atom_site_symmetry_multiplicity
 _atom_site_fract_x
 _atom_site_fract_y
 _atom_site_fract_z
 _atom_site_occupancy
  Li  Li0  1  0.00000000  0.50000000  0.50000000  1
  Li  Li1  1  0.50000000  0.00000000  0.50000000  1
  Li  Li2  1  0.00000000  0.00000000  0.00000000  1
  Ti  Ti0  1  0.50000000  0.00000000  0.00000000  1
  Ti  Ti1  1  0.00000000  0.50000000  0.00000000  1
  V  V0  1  0.50000000  0.50000000  0.50000000  1
  V  V1  1  0.50000000  0.50000000  0.00000000  1
  O  O0  1  0.27974900  0.75273100  0.22091900  1
  O  O1  1  0.25409900  0.25409900  0.22087200  1
  O  O2  1  0.75273100  0.27974900  0.22091900  1
  O  O3  1  0.25024100  0.25024100  0.77047700  1
  O  O4  1  0.74975900  0.74975900  0.22952300  1
  O  O5  1  0.24726900  0.72025100  0.77908100  1
  O  O6  1  0.74590100  0.74590100  0.77912800  1
  O  O7  1  0.72025100  0.24726900  0.77908100  1
loop_
_geom_bond_atom_site_label_1
_geom_bond_atom_site_label_2
_geom_bond_distance
_geom_bond_site_symmetry_2
Li0 O3 2.212322 1_555
Li0 O4 2.212322 1_455
Li0 O1 2.231876 1_555
Li0 O6 2.231876 1_455
Li0 O0 2.255433 1_555
Li0 O7 2.255433 1_455
Li1 O3 2.212322 1_555
Li1 O4 2.212322 1_545
Li1 O1 2.231876 1_555
Li1 O6 2.231876 1_545
Li1 O5 2.255433 1_545
Li1 O2 2.255433 1_555
Li2 O3 2.120793 1_554
Li2 O4 2.120793 1_445
Li2 O5 2.130761 1_544
Li2 O2 2.130761 1_455
Li2 O0 2.130761 1_545
Li2 O7 2.130761 1_454
O0 Ti0 1.980870 1_565
O0 V1 2.014582 1_555
O0 V0 2.127548 1_555
O1 Ti0 2.017555 1_555
O1 Ti1 2.017555 1_555
O1 V1 2.085835 1_555
O2 Ti1 1.980870 1_655
O2 V1 2.014582 1_555
O2 V0 2.127548 1_555
O3 Ti0 2.034862 1_556
O3 Ti1 2.034862 1_556
O3 V0 2.116953 1_555
O4 Ti0 2.034862 1_565
O4 Ti1 2.034862 1_655
O4 V0 2.116953 1_555
O5 Ti1 1.980870 1_556
O5 V1 2.014582 1_556
O5 V0 2.127548 1_555
O6 Ti0 2.017555 1_566
O6 Ti1 2.017555 1_656
O6 V1 2.085835 1_556
O7 Ti0 1.980870 1_556
O7 V1 2.014582 1_556
O7 V0 2.127548 1_555
