# generated using pymatgen
data_MgAs4
_symmetry_space_group_name_H-M   'P 1'
_cell_length_a   5.42958383
_cell_length_b   5.42958383
_cell_length_c   15.93397421
_cell_angle_alpha   90.00000000
_cell_angle_beta   90.00000000
_cell_angle_gamma   90.00000000
_symmetry_Int_Tables_number   1
_chemical_formula_structural   MgAs4
_chemical_formula_sum   'Mg4 As16'
_cell_volume   469.73962366
_cell_formula_units_Z   4
loop_
 _symmetry_equiv_pos_site_id
 _symmetry_equiv_pos_as_xyz
  1  'x, y, z'
loop_
 _atom_site_type_symbol
 _atom_site_label
 _atom_site_symmetry_multiplicity
 _atom_site_fract_x
 _atom_site_fract_y
 _atom_site_fract_z
 _atom_site_occupancy
  Mg  Mg0  1  0.80307451  0.80307451  0.50000000  1
  Mg  Mg1  1  0.69692549  0.30307451  0.75000000  1
  Mg  Mg2  1  0.30307451  0.69692549  0.25000000  1
  Mg  Mg3  1  0.19692549  0.19692549  -0.00000000  1
  As  As0  1  0.40014389  0.47873420  0.87498271  1
  As  As1  1  0.90014389  0.02126580  0.87501729  1
  As  As2  1  0.97873420  0.09985611  0.62498271  1
  As  As3  1  0.02126580  0.90014389  0.12498271  1
  As  As4  1  0.67617833  0.06842713  0.20253262  1
  As  As5  1  0.43157287  0.17617833  0.45253262  1
  As  As6  1  0.56842713  0.82382167  0.95253262  1
  As  As7  1  0.17617833  0.43157287  0.54746738  1
  As  As8  1  0.82382167  0.56842713  0.04746738  1
  As  As9  1  0.32382167  0.93157287  0.70253262  1
  As  As10  1  0.06842713  0.67617833  0.79746738  1
  As  As11  1  0.93157287  0.32382167  0.29746738  1
  As  As12  1  0.59985611  0.52126580  0.37498271  1
  As  As13  1  0.47873420  0.40014389  0.12501729  1
  As  As14  1  0.52126580  0.59985611  0.62501729  1
  As  As15  1  0.09985611  0.97873420  0.37501729  1
loop_
_geom_bond_atom_site_label_1
_geom_bond_atom_site_label_2
_geom_bond_distance
_geom_bond_site_symmetry_2
As0 As6 2.423313 1_555
As0 As10 2.432840 1_555
As0 Mg1 2.733537 1_555
As0 Mg3 2.743509 1_556
As1 As10 2.423313 1_645
As1 As6 2.432840 1_545
As1 Mg3 2.733537 1_656
As1 Mg1 2.743509 1_555
As2 As9 2.423313 1_645
As2 As7 2.432840 1_655
As2 Mg0 2.733537 1_545
As2 Mg1 2.743509 1_555
As3 As4 2.423313 1_465
As3 As8 2.432840 1_455
As3 Mg3 2.733537 1_565
As3 Mg2 2.743509 1_555
As4 Mg2 2.957128 1_545
As5 As7 2.476696 1_555
As5 Mg0 2.957128 1_545
As6 As8 2.476696 1_556
As6 Mg3 2.957128 1_566
As7 Mg0 2.957128 1_455
As8 Mg3 2.957128 1_655
As9 Mg1 2.957128 1_565
As10 As9 2.476696 1_555
As10 Mg1 2.957128 1_455
As11 As15 2.423313 1_645
As11 As12 2.432840 1_555
As11 As4 2.476696 1_555
As11 Mg2 2.957128 1_655
As12 As5 2.423313 1_555
As12 Mg2 2.733537 1_555
As12 Mg0 2.743509 1_555
As13 As8 2.423313 1_555
As13 As4 2.432840 1_555
As13 Mg2 2.733537 1_555
As13 Mg3 2.743509 1_555
As14 As7 2.423313 1_555
As14 As9 2.432840 1_555
As14 Mg1 2.733537 1_555
As14 Mg0 2.743509 1_555
As15 As5 2.432840 1_565
As15 Mg0 2.733537 1_455
As15 Mg2 2.743509 1_555
