# generated using pymatgen
data_Li3Mn2(SiO4)2
_symmetry_space_group_name_H-M   'P 1'
_cell_length_a   4.97075800
_cell_length_b   6.63305200
_cell_length_c   10.90347109
_cell_angle_alpha   88.29928521
_cell_angle_beta   90.00000000
_cell_angle_gamma   90.00000000
_symmetry_Int_Tables_number   1
_chemical_formula_structural   Li3Mn2(SiO4)2
_chemical_formula_sum   'Li6 Mn4 Si4 O16'
_cell_volume   359.34321183
_cell_formula_units_Z   2
loop_
 _symmetry_equiv_pos_site_id
 _symmetry_equiv_pos_as_xyz
  1  'x, y, z'
loop_
 _atom_site_type_symbol
 _atom_site_label
 _atom_site_symmetry_multiplicity
 _atom_site_fract_x
 _atom_site_fract_y
 _atom_site_fract_z
 _atom_site_occupancy
  Li  Li0  1  0.95771500  0.12919800  0.09615100  1
  Li  Li1  1  0.95398700  0.38447100  0.32913600  1
  Li  Li2  1  0.45036800  0.62687400  0.40311700  1
  Li  Li3  1  0.04228500  0.12919800  0.59615100  1
  Li  Li4  1  0.04601300  0.38447100  0.82913600  1
  Li  Li5  1  0.54963200  0.62687400  0.90311700  1
  Mn  Mn0  1  0.95220500  0.64843200  0.09055100  1
  Mn  Mn1  1  0.45869200  0.12306100  0.41707600  1
  Mn  Mn2  1  0.04779500  0.64843200  0.59055100  1
  Mn  Mn3  1  0.54130800  0.12306100  0.91707600  1
  Si  Si0  1  0.44514300  0.38468100  0.16218300  1
  Si  Si1  1  0.93614200  0.87948300  0.33444400  1
  Si  Si2  1  0.55485700  0.38468100  0.66218300  1
  Si  Si3  1  0.06385800  0.87948300  0.83444400  1
  O  O0  1  0.55102000  0.58862500  0.08869300  1
  O  O1  1  0.56146900  0.19118100  0.08772600  1
  O  O2  1  0.11242700  0.38278000  0.16086600  1
  O  O3  1  0.02022800  0.88821700  0.19149200  1
  O  O4  1  0.54996300  0.37359000  0.30751100  1
  O  O5  1  0.60490200  0.88267800  0.35130200  1
  O  O6  1  0.04074800  0.66595100  0.40154300  1
  O  O7  1  0.04809400  0.08408900  0.40606600  1
  O  O8  1  0.44898000  0.58862500  0.58869300  1
  O  O9  1  0.43853100  0.19118100  0.58772600  1
  O  O10  1  0.88757300  0.38278000  0.66086600  1
  O  O11  1  0.97977200  0.88821700  0.69149200  1
  O  O12  1  0.45003700  0.37359000  0.80751100  1
  O  O13  1  0.39509800  0.88267800  0.85130200  1
  O  O14  1  0.95925200  0.66595100  0.90154300  1
  O  O15  1  0.95190600  0.08408900  0.90606600  1
loop_
_geom_bond_atom_site_label_1
_geom_bond_atom_site_label_2
_geom_bond_distance
_geom_bond_site_symmetry_2
Li0 O3 1.906199 1_645
Li0 O2 1.997239 1_655
Li0 O1 2.013634 1_555
Li0 O15 2.103042 1_554
Li1 O2 1.996956 1_655
Li1 O4 2.023637 1_555
Li1 O6 2.093498 1_655
Li1 O7 2.189307 1_655
Li2 O5 1.931667 1_555
Li2 O8 2.031793 1_555
Li2 O6 2.052561 1_555
Li2 O4 2.063558 1_555
Li3 O11 1.906199 1_445
Li3 O10 1.997239 1_455
Li3 O9 2.013634 1_555
Li3 O7 2.103042 1_555
Li4 O10 1.996956 1_455
Li4 O12 2.023637 1_555
Li4 O14 2.093498 1_455
Li4 O15 2.189307 1_455
Li5 O13 1.931667 1_555
Li5 O0 2.031793 1_556
Li5 O14 2.052561 1_555
Li5 O12 2.063558 1_555
Mn0 O3 1.989795 1_655
Mn0 O0 2.033487 1_555
Mn0 O2 2.060785 1_655
Mn0 O14 2.060968 1_554
Mn1 O5 1.911216 1_545
Mn1 O9 1.930344 1_555
Mn1 O7 2.061235 1_555
Mn1 O4 2.068004 1_555
Mn2 O11 1.989795 1_455
Mn2 O8 2.033487 1_555
Mn2 O10 2.060785 1_455
Mn2 O6 2.060968 1_555
Mn3 O13 1.911216 1_545
Mn3 O1 1.930344 1_556
Mn3 O15 2.061235 1_555
Mn3 O12 2.068004 1_555
O0 Si0 1.638507 1_555
O1 Si0 1.643972 1_555
O2 Si0 1.653964 1_555
O3 Si1 1.613121 1_455
O4 Si0 1.667592 1_555
O5 Si1 1.656947 1_555
O6 Si1 1.658378 1_455
O7 Si1 1.680573 1_445
O8 Si2 1.638507 1_555
O9 Si2 1.643972 1_555
O10 Si2 1.653964 1_555
O11 Si3 1.613121 1_655
O12 Si2 1.667592 1_555
O13 Si3 1.656947 1_555
O14 Si3 1.658378 1_655
O15 Si3 1.680573 1_645
