# generated using pymatgen
data_V3P6WO24
_symmetry_space_group_name_H-M   'P 1'
_cell_length_a   8.80208048
_cell_length_b   8.80208048
_cell_length_c   8.80208045
_cell_angle_alpha   58.60262974
_cell_angle_beta   58.60262974
_cell_angle_gamma   58.60263151
_symmetry_Int_Tables_number   1
_chemical_formula_structural   V3P6WO24
_chemical_formula_sum   'V3 P6 W1 O24'
_cell_volume   466.80972524
_cell_formula_units_Z   1
loop_
 _symmetry_equiv_pos_site_id
 _symmetry_equiv_pos_as_xyz
  1  'x, y, z'
loop_
 _atom_site_type_symbol
 _atom_site_label
 _atom_site_symmetry_multiplicity
 _atom_site_fract_x
 _atom_site_fract_y
 _atom_site_fract_z
 _atom_site_occupancy
  V  V0  1  0.14210500  0.14210500  0.14210500  1
  V  V1  1  0.35895100  0.35895100  0.35895100  1
  V  V2  1  0.64238900  0.64238900  0.64238900  1
  P  P0  1  0.03587400  0.45931700  0.74905500  1
  P  P1  1  0.45931700  0.74905500  0.03587400  1
  P  P2  1  0.74905500  0.03587400  0.45931700  1
  P  P3  1  0.25762600  0.96725800  0.52769100  1
  P  P4  1  0.52769100  0.25762600  0.96725800  1
  P  P5  1  0.96725800  0.52769100  0.25762600  1
  W  W0  1  0.85878100  0.85878100  0.85878100  1
  O  O0  1  0.13919400  0.50904400  0.27690600  1
  O  O1  1  0.27690600  0.13919400  0.50904400  1
  O  O2  1  0.06169600  0.28568400  0.92475800  1
  O  O3  1  0.50904400  0.27690600  0.13919400  1
  O  O4  1  0.21557300  0.44112600  0.57565700  1
  O  O5  1  0.00117900  0.63836200  0.78069700  1
  O  O6  1  0.28568400  0.92475800  0.06169600  1
  O  O7  1  0.44112600  0.57565700  0.21557300  1
  O  O8  1  0.57565700  0.21557300  0.44112600  1
  O  O9  1  0.21913500  0.99389600  0.36397800  1
  O  O10  1  0.07700700  0.93683500  0.71280700  1
  O  O11  1  0.36397800  0.21913500  0.99389600  1
  O  O12  1  0.63836200  0.78069700  0.00117900  1
  O  O13  1  0.92475800  0.06169600  0.28568400  1
  O  O14  1  0.78069700  0.00117900  0.63836200  1
  O  O15  1  0.42328700  0.78414300  0.56338100  1
  O  O16  1  0.56338100  0.42328700  0.78414300  1
  O  O17  1  0.71280700  0.07700700  0.93683500  1
  O  O18  1  0.99389600  0.36397800  0.21913500  1
  O  O19  1  0.78414300  0.56338100  0.42328700  1
  O  O20  1  0.49338500  0.72092000  0.86230300  1
  O  O21  1  0.93683500  0.71280700  0.07700700  1
  O  O22  1  0.72092000  0.86230300  0.49338500  1
  O  O23  1  0.86230300  0.49338500  0.72092000  1
loop_
_geom_bond_atom_site_label_1
_geom_bond_atom_site_label_2
_geom_bond_distance
_geom_bond_site_symmetry_2
O0 P5 1.525079 1_455
O0 V1 1.951212 1_555
O1 P3 1.525079 1_545
O1 V1 1.951212 1_555
O2 P0 1.523423 1_555
O2 V0 1.928145 1_556
O3 P4 1.525079 1_554
O3 V1 1.951212 1_555
O4 P0 1.527200 1_555
O4 V1 1.931970 1_555
O5 P0 1.588005 1_555
O5 W0 1.940513 1_455
O6 P1 1.523423 1_555
O6 V0 1.928145 1_565
O7 P1 1.527200 1_555
O7 V1 1.931970 1_555
O8 P2 1.527200 1_555
O8 V1 1.931970 1_555
O9 P3 1.523209 1_555
O9 V0 1.943980 1_565
O10 P3 1.595008 1_555
O10 W0 1.922568 1_455
O11 P4 1.523209 1_555
O11 V0 1.943980 1_556
O12 P1 1.588005 1_555
O12 W0 1.940513 1_554
O13 P2 1.523423 1_555
O13 V0 1.928145 1_655
O14 P2 1.588005 1_555
O14 W0 1.940513 1_545
O15 P3 1.524364 1_555
O15 V2 1.935424 1_555
O16 P4 1.524364 1_555
O16 V2 1.935424 1_555
O17 P4 1.595009 1_555
O17 W0 1.922568 1_545
O18 P5 1.523209 1_555
O18 V0 1.943980 1_655
O19 P5 1.524364 1_555
O19 V2 1.935424 1_555
O20 P1 1.524753 1_556
O20 V2 1.936283 1_555
O21 P5 1.595009 1_555
O21 W0 1.922568 1_554
O22 P2 1.524753 1_565
O22 V2 1.936283 1_555
O23 P0 1.524753 1_655
O23 V2 1.936283 1_555
