# generated using pymatgen
data_BaSi2
_symmetry_space_group_name_H-M   'P 1'
_cell_length_a   6.76018255
_cell_length_b   6.76018255
_cell_length_c   6.76018255
_cell_angle_alpha   90.00000000
_cell_angle_beta   90.00000000
_cell_angle_gamma   90.00000000
_symmetry_Int_Tables_number   1
_chemical_formula_structural   BaSi2
_chemical_formula_sum   'Ba4 Si8'
_cell_volume   308.94080297
_cell_formula_units_Z   4
loop_
 _symmetry_equiv_pos_site_id
 _symmetry_equiv_pos_as_xyz
  1  'x, y, z'
loop_
 _atom_site_type_symbol
 _atom_site_label
 _atom_site_symmetry_multiplicity
 _atom_site_fract_x
 _atom_site_fract_y
 _atom_site_fract_z
 _atom_site_occupancy
  Ba  Ba0  1  0.62500000  0.37500000  0.87500000  1
  Ba  Ba1  1  0.37500000  0.87500000  0.62500000  1
  Ba  Ba2  1  0.87500000  0.62500000  0.37500000  1
  Ba  Ba3  1  0.12500000  0.12500000  0.12500000  1
  Si  Si0  1  0.83258594  0.83258594  0.83258594  1
  Si  Si1  1  0.58258594  0.91741406  0.08258594  1
  Si  Si2  1  0.91741406  0.08258594  0.58258594  1
  Si  Si3  1  0.08258594  0.58258594  0.91741406  1
  Si  Si4  1  0.41741406  0.41741406  0.41741406  1
  Si  Si5  1  0.16741406  0.33258594  0.66741406  1
  Si  Si6  1  0.66741406  0.16741406  0.33258594  1
  Si  Si7  1  0.33258594  0.66741406  0.16741406  1
loop_
_geom_bond_atom_site_label_1
_geom_bond_atom_site_label_2
_geom_bond_distance
_geom_bond_site_symmetry_2
Ba0 Si0 3.408874 1_555
Ba0 Si6 3.408874 1_556
Ba0 Si3 3.408874 1_655
Ba0 Si4 3.408874 1_555
Ba0 Si1 3.408874 1_546
Ba0 Si5 3.408874 1_555
Ba0 Si7 3.423870 1_556
Ba0 Si2 3.423870 1_555
Ba1 Si0 3.408874 1_555
Ba1 Si5 3.408874 1_565
Ba1 Si4 3.408874 1_555
Ba1 Si1 3.408874 1_556
Ba1 Si2 3.408874 1_465
Ba1 Si7 3.408874 1_555
Ba1 Si6 3.423870 1_565
Ba1 Si3 3.423870 1_555
Ba2 Si0 3.408874 1_555
Ba2 Si3 3.408874 1_654
Ba2 Si6 3.408874 1_555
Ba2 Si2 3.408874 1_565
Ba2 Si4 3.408874 1_555
Ba2 Si7 3.408874 1_655
Ba2 Si1 3.423870 1_555
Ba2 Si5 3.423870 1_655
Ba3 Si2 3.408874 1_455
Ba3 Si1 3.408874 1_545
Ba3 Si5 3.408874 1_554
Ba3 Si3 3.408874 1_554
Ba3 Si6 3.408874 1_455
Ba3 Si7 3.408874 1_545
Ba3 Si4 3.423870 1_555
Ba3 Si0 3.423870 1_444
Si0 Si3 2.457917 1_655
Si0 Si2 2.457917 1_565
Si0 Si1 2.457917 1_556
Si1 Si7 2.457917 1_555
Si1 Si6 2.457917 1_565
Si2 Si6 2.457917 1_555
Si2 Si5 2.457917 1_655
Si3 Si5 2.457917 1_555
Si3 Si7 2.457917 1_556
Si4 Si6 2.457917 1_555
Si4 Si5 2.457917 1_555
Si4 Si7 2.457917 1_555
