# generated using pymatgen
data_DySeO3
_symmetry_space_group_name_H-M   'P 1'
_cell_length_a   12.22147792
_cell_length_b   5.93174047
_cell_length_c   8.88506698
_cell_angle_alpha   73.80175795
_cell_angle_beta   89.99950874
_cell_angle_gamma   89.99919490
_symmetry_Int_Tables_number   1
_chemical_formula_structural   DySeO3
_chemical_formula_sum   'Dy8 Se8 O24'
_cell_volume   618.54958410
_cell_formula_units_Z   8
loop_
 _symmetry_equiv_pos_site_id
 _symmetry_equiv_pos_as_xyz
  1  'x, y, z'
loop_
 _atom_site_type_symbol
 _atom_site_label
 _atom_site_symmetry_multiplicity
 _atom_site_fract_x
 _atom_site_fract_y
 _atom_site_fract_z
 _atom_site_occupancy
  Dy  Dy0  1  0.56190149  0.76056715  0.91617068  1
  Dy  Dy1  1  0.93809203  0.76056133  0.41620990  1
  Dy  Dy2  1  0.24284438  0.63734039  0.84101338  1
  Dy  Dy3  1  0.25715922  0.63734525  0.34102036  1
  Dy  Dy4  1  0.74283684  0.36264634  0.65898320  1
  Dy  Dy5  1  0.75715703  0.36267517  0.15898036  1
  Dy  Dy6  1  0.06190729  0.23943986  0.58382513  1
  Dy  Dy7  1  0.43810024  0.23942481  0.08379507  1
  Se  Se0  1  0.84223338  0.95564731  0.01789981  1
  Se  Se1  1  0.65776436  0.95561507  0.51789508  1
  Se  Se2  1  0.98484426  0.63102327  0.82050973  1
  Se  Se3  1  0.51517893  0.63099417  0.32046478  1
  Se  Se4  1  0.48482187  0.36894948  0.67949387  1
  Se  Se5  1  0.01516559  0.36900348  0.17955385  1
  Se  Se6  1  0.34222761  0.04439242  0.48209438  1
  Se  Se7  1  0.15776890  0.04439642  0.98211054  1
  O  O0  1  0.17867947  0.02045079  0.79658185  1
  O  O1  1  0.32134691  0.02039788  0.29657845  1
  O  O2  1  0.98402936  0.86480351  0.64519582  1
  O  O3  1  0.27533508  0.78579076  0.57457775  1
  O  O4  1  0.75306286  0.75013209  0.50849938  1
  O  O5  1  0.51597375  0.86478524  0.14516168  1
  O  O6  1  0.40485539  0.59391532  0.91816123  1
  O  O7  1  0.22466168  0.78577671  0.07459040  1
  O  O8  1  0.74694021  0.75015915  0.00850838  1
  O  O9  1  0.58878820  0.55523237  0.72210275  1
  O  O10  1  0.09514840  0.59391992  0.41818710  1
  O  O11  1  0.08880304  0.44477424  0.77787931  1
  O  O12  1  0.91118913  0.55525735  0.22216218  1
  O  O13  1  0.90484914  0.40608408  0.58184120  1
  O  O14  1  0.41119039  0.44474033  0.27784362  1
  O  O15  1  0.25305592  0.24984121  0.99149867  1
  O  O16  1  0.77534598  0.21422529  0.92541847  1
  O  O17  1  0.59515182  0.40608459  0.08180690  1
  O  O18  1  0.48402926  0.13518302  0.85482200  1
  O  O19  1  0.24693052  0.24985627  0.49146417  1
  O  O20  1  0.72466831  0.21421283  0.42541333  1
  O  O21  1  0.01595880  0.13519985  0.35485298  1
  O  O22  1  0.67867071  0.97954993  0.70341277  1
  O  O23  1  0.82133225  0.97960335  0.20342250  1
loop_
_geom_bond_atom_site_label_1
_geom_bond_atom_site_label_2
_geom_bond_distance
_geom_bond_site_symmetry_2
Dy0 O6 2.156771 1_555
Dy0 O17 2.241836 1_556
Dy0 O18 2.337708 1_565
Dy0 O5 2.353411 1_556
Dy0 O9 2.395087 1_555
Dy0 O8 2.400588 1_556
Dy0 O22 2.434622 1_555
Dy1 O10 2.156844 1_655
Dy1 O13 2.241784 1_555
Dy1 O21 2.337819 1_665
Dy1 O2 2.353481 1_555
Dy1 O12 2.394838 1_555
Dy1 O4 2.400314 1_555
Dy1 O23 2.434828 1_555
Dy2 O6 2.087622 1_555
Dy2 O15 2.317749 1_555
Dy2 O3 2.318220 1_555
Dy2 O0 2.331209 1_565
Dy2 O11 2.349724 1_555
Dy2 O7 2.480160 1_556
Dy3 O10 2.087665 1_555
Dy3 O19 2.317602 1_555
Dy3 O7 2.318180 1_555
Dy3 O1 2.330994 1_565
Dy3 O14 2.349860 1_555
Dy3 O3 2.480026 1_555
Dy4 O13 2.087620 1_555
Dy4 O4 2.317691 1_555
Dy4 O16 2.318242 1_555
Dy4 O22 2.331158 1_545
Dy4 O9 2.349779 1_555
Dy4 O20 2.480080 1_555
Dy5 O17 2.087619 1_555
Dy5 O8 2.317642 1_555
Dy5 O20 2.318201 1_555
Dy5 O23 2.331029 1_545
Dy5 O12 2.349845 1_555
Dy5 O16 2.480088 1_554
Dy6 O13 2.156864 1_455
Dy6 O10 2.241817 1_555
Dy6 O2 2.337859 1_445
Dy6 O21 2.353392 1_555
Dy6 O11 2.395003 1_555
Dy6 O19 2.400463 1_555
Dy6 O0 2.434646 1_555
Dy7 O17 2.156855 1_555
Dy7 O6 2.241851 1_554
Dy7 O5 2.337834 1_545
Dy7 O18 2.353336 1_554
Dy7 O14 2.394896 1_555
Dy7 O15 2.400526 1_554
Dy7 O1 2.434733 1_555
O0 Se7 1.712731 1_555
O1 Se6 1.712672 1_555
O2 Se2 1.773219 1_555
O3 Se6 1.730136 1_565
O4 Se1 1.704654 1_555
O5 Se3 1.773188 1_555
O7 Se7 1.730197 1_564
O8 Se0 1.704647 1_555
O9 Se4 1.792270 1_555
O11 Se2 1.792116 1_455
O12 Se5 1.792213 1_655
O14 Se3 1.792388 1_555
O15 Se7 1.704401 1_555
O16 Se0 1.729982 1_546
O18 Se4 1.773257 1_555
O19 Se6 1.704502 1_555
O20 Se1 1.730181 1_545
O21 Se5 1.773205 1_555
O22 Se1 1.712609 1_555
O23 Se0 1.712683 1_555
