# generated using pymatgen
data_Li4V3Ni3(SnO8)2
_symmetry_space_group_name_H-M   'P 1'
_cell_length_a   5.94675500
_cell_length_b   5.96702608
_cell_length_c   9.73197687
_cell_angle_alpha   90.79555783
_cell_angle_beta   89.90541342
_cell_angle_gamma   119.78044306
_symmetry_Int_Tables_number   1
_chemical_formula_structural   Li4V3Ni3(SnO8)2
_chemical_formula_sum   'Li4 V3 Ni3 Sn2 O16'
_cell_volume   299.69291202
_cell_formula_units_Z   1
loop_
 _symmetry_equiv_pos_site_id
 _symmetry_equiv_pos_as_xyz
  1  'x, y, z'
loop_
 _atom_site_type_symbol
 _atom_site_label
 _atom_site_symmetry_multiplicity
 _atom_site_fract_x
 _atom_site_fract_y
 _atom_site_fract_z
 _atom_site_occupancy
  Li  Li0  1  0.65971200  0.31764800  0.88765800  1
  Li  Li1  1  0.99887800  0.00271200  0.98830200  1
  Li  Li2  1  0.00074700  0.00310800  0.49717700  1
  Li  Li3  1  0.33010300  0.65613000  0.40184900  1
  V  V0  1  0.33523800  0.17660500  0.21285700  1
  V  V1  1  0.82126700  0.17205900  0.21863100  1
  V  V2  1  0.17162900  0.34433200  0.71918300  1
  Ni  Ni0  1  0.83214800  0.66370500  0.21220700  1
  Ni  Ni1  1  0.16968700  0.82897900  0.71215300  1
  Ni  Ni2  1  0.65903300  0.82877300  0.71252000  1
  Sn  Sn0  1  0.67303500  0.34588900  0.50251300  1
  Sn  Sn1  1  0.34021000  0.68156000  0.98584500  1
  O  O0  1  0.32665800  0.17500500  0.60094300  1
  O  O1  1  0.53016100  0.03324500  0.33468400  1
  O  O2  1  0.67109200  0.30818200  0.10433200  1
  O  O3  1  0.00113800  0.02176700  0.30645400  1
  O  O4  1  0.01375300  0.02800800  0.80243100  1
  O  O5  1  0.84891400  0.17648600  0.60214900  1
  O  O6  1  0.50323900  0.45803900  0.33301800  1
  O  O7  1  0.96153100  0.46263900  0.33441500  1
  O  O8  1  0.16102300  0.33258500  0.10825200  1
  O  O9  1  0.84568200  0.69155100  0.59120600  1
  O  O10  1  0.02954500  0.49601600  0.84131200  1
  O  O11  1  0.46507400  0.49435700  0.84189100  1
  O  O12  1  0.31123600  0.62132200  0.60355000  1
  O  O13  1  0.17733500  0.86127900  0.10520100  1
  O  O14  1  0.48035900  0.96198000  0.84208100  1
  O  O15  1  0.68127300  0.85603600  0.10502400  1
loop_
_geom_bond_atom_site_label_1
_geom_bond_atom_site_label_2
_geom_bond_distance
_geom_bond_site_symmetry_2
Li0 O14 1.888197 1_545
Li0 O10 1.964180 1_655
Li0 O11 1.969015 1_555
Li0 O2 2.112302 1_556
Li1 O4 1.815624 1_655
Li1 O15 2.000521 1_546
Li1 O13 2.013215 1_646
Li1 O8 2.054619 1_656
Li2 O3 1.860919 1_555
Li2 O9 1.866920 1_445
Li2 O5 1.955683 1_455
Li2 O0 1.957325 1_555
Li3 O12 1.973916 1_555
Li3 O7 2.009394 1_455
Li3 O6 2.022521 1_555
Li3 O1 2.070079 1_565
Ni0 O3 2.057149 1_665
Ni0 O15 2.066234 1_555
Ni0 O13 2.076337 1_655
Ni0 O6 2.088580 1_555
Ni0 O7 2.098939 1_555
Ni0 O2 2.107850 1_555
Ni1 O4 2.025959 1_565
Ni1 O14 2.040903 1_555
Ni1 O9 2.044882 1_455
Ni1 O12 2.087529 1_555
Ni1 O0 2.109514 1_565
Ni1 O10 2.154763 1_555
Ni2 O4 2.028493 1_665
Ni2 O14 2.038939 1_555
Ni2 O9 2.041556 1_555
Ni2 O12 2.088597 1_555
Ni2 O5 2.112879 1_565
Ni2 O11 2.162429 1_555
O0 V2 2.021000 1_555
O0 Sn0 2.033327 1_555
O1 V1 1.885117 1_555
O1 V0 2.121038 1_555
O1 Sn0 2.283709 1_555
O2 V1 1.855683 1_555
O2 V0 2.044327 1_555
O3 V1 1.912087 1_455
O3 V0 1.955682 1_555
O4 V2 1.838520 1_555
O5 V2 2.012352 1_655
O5 Sn0 2.033893 1_555
O6 V0 1.862386 1_555
O6 Sn0 2.212622 1_555
O7 V1 1.866557 1_555
O7 Sn0 2.222622 1_555
O8 V0 1.990877 1_555
O8 V1 2.062178 1_455
O8 Sn1 2.179737 1_554
O9 Sn0 1.975672 1_555
O10 V2 1.916320 1_555
O10 Sn1 2.133277 1_555
O11 V2 1.923036 1_555
O11 Sn1 2.130463 1_555
O12 V2 1.836548 1_555
O13 V0 1.926949 1_565
O13 Sn1 2.104967 1_554
O14 Sn1 2.031704 1_555
O15 V1 1.963949 1_565
O15 Sn1 2.102259 1_554
