# generated using pymatgen
data_Sm2Ge2O7
_symmetry_space_group_name_H-M   'P 1'
_cell_length_a   6.98732900
_cell_length_b   6.98732900
_cell_length_c   12.73364100
_cell_angle_alpha   90.00000000
_cell_angle_beta   90.00000000
_cell_angle_gamma   90.00000000
_symmetry_Int_Tables_number   1
_chemical_formula_structural   Sm2Ge2O7
_chemical_formula_sum   'Sm8 Ge8 O28'
_cell_volume   621.69158193
_cell_formula_units_Z   4
loop_
 _symmetry_equiv_pos_site_id
 _symmetry_equiv_pos_as_xyz
  1  'x, y, z'
loop_
 _atom_site_type_symbol
 _atom_site_label
 _atom_site_symmetry_multiplicity
 _atom_site_fract_x
 _atom_site_fract_y
 _atom_site_fract_z
 _atom_site_occupancy
  Sm  Sm0  1  0.12261100  0.64975800  0.13464500  1
  Sm  Sm1  1  0.14975800  0.37738900  0.88464500  1
  Sm  Sm2  1  0.35024200  0.87738900  0.36535500  1
  Sm  Sm3  1  0.37738900  0.14975800  0.11535500  1
  Sm  Sm4  1  0.62261100  0.85024200  0.61535500  1
  Sm  Sm5  1  0.64975800  0.12261100  0.86535500  1
  Sm  Sm6  1  0.85024200  0.62261100  0.38464500  1
  Sm  Sm7  1  0.87738900  0.35024200  0.63464500  1
  Ge  Ge0  1  0.09831200  0.84574600  0.62118100  1
  Ge  Ge1  1  0.15425400  0.90168800  0.87881900  1
  Ge  Ge2  1  0.34574600  0.40168800  0.37118100  1
  Ge  Ge3  1  0.40168800  0.34574600  0.62881900  1
  Ge  Ge4  1  0.59831200  0.65425400  0.12881900  1
  Ge  Ge5  1  0.65425400  0.59831200  0.87118100  1
  Ge  Ge6  1  0.84574600  0.09831200  0.37881900  1
  Ge  Ge7  1  0.90168800  0.15425400  0.12118100  1
  O  O0  1  0.02677200  0.92440200  0.37475600  1
  O  O1  1  0.06212400  0.33667000  0.07210100  1
  O  O2  1  0.07559800  0.97322800  0.12524400  1
  O  O3  1  0.14310900  0.69052700  0.95363600  1
  O  O4  1  0.16333000  0.56212400  0.32210100  1
  O  O5  1  0.19052700  0.35689100  0.70363600  1
  O  O6  1  0.19659400  0.80340600  0.75000000  1
  O  O7  1  0.30340600  0.30340600  0.50000000  1
  O  O8  1  0.30947300  0.85689100  0.54636400  1
  O  O9  1  0.33667000  0.06212400  0.92789900  1
  O  O10  1  0.35689100  0.19052700  0.29636400  1
  O  O11  1  0.42440200  0.47322800  0.12475600  1
  O  O12  1  0.43787600  0.83667000  0.17789900  1
  O  O13  1  0.47322800  0.42440200  0.87524400  1
  O  O14  1  0.52677200  0.57559800  0.37524400  1
  O  O15  1  0.56212400  0.16333000  0.67789900  1
  O  O16  1  0.57559800  0.52677200  0.62475600  1
  O  O17  1  0.64310900  0.80947300  0.79636400  1
  O  O18  1  0.66333000  0.93787600  0.42789900  1
  O  O19  1  0.69052700  0.14310900  0.04636400  1
  O  O20  1  0.69659400  0.69659400  0.00000000  1
  O  O21  1  0.80340600  0.19659400  0.25000000  1
  O  O22  1  0.80947300  0.64310900  0.20363600  1
  O  O23  1  0.83667000  0.43787600  0.82210100  1
  O  O24  1  0.85689100  0.30947300  0.45363600  1
  O  O25  1  0.92440200  0.02677200  0.62524400  1
  O  O26  1  0.93787600  0.66333000  0.57210100  1
  O  O27  1  0.97322800  0.07559800  0.87475600  1
loop_
_geom_bond_atom_site_label_1
_geom_bond_atom_site_label_2
_geom_bond_distance
_geom_bond_site_symmetry_2
Ge0 O25 1.754779 1_465
Ge0 O8 1.758023 1_555
Ge0 O6 1.802725 1_555
Ge0 O26 1.808832 1_455
Ge1 O27 1.754779 1_465
Ge1 O3 1.758023 1_555
Ge1 O6 1.802725 1_555
Ge1 O9 1.808832 1_565
Ge2 O14 1.754779 1_555
Ge2 O10 1.758023 1_555
Ge2 O7 1.802725 1_555
Ge2 O4 1.808832 1_555
Ge3 O16 1.754779 1_555
Ge3 O5 1.758023 1_555
Ge3 O7 1.802725 1_555
Ge3 O15 1.808832 1_555
Ge4 O11 1.754779 1_555
Ge4 O22 1.758023 1_555
Ge4 O20 1.802725 1_555
Ge4 O12 1.808832 1_555
Ge5 O13 1.754779 1_555
Ge5 O17 1.758023 1_555
Ge5 O20 1.802725 1_556
Ge5 O23 1.808832 1_555
Ge6 O0 1.754779 1_645
Ge6 O24 1.758023 1_555
Ge6 O21 1.802725 1_555
Ge6 O18 1.808832 1_545
Ge7 O2 1.754779 1_645
Ge7 O19 1.758023 1_555
Ge7 O21 1.802725 1_555
Ge7 O1 1.808832 1_655
O0 Sm2 2.287073 1_555
O0 Sm6 2.446218 1_455
O1 Sm0 2.366159 1_555
O1 Sm1 2.480655 1_554
O1 Sm3 2.619471 1_555
O2 Sm0 2.287073 1_555
O2 Sm3 2.446218 1_565
O3 Sm0 2.326853 1_556
O3 Sm1 2.358234 1_555
O4 Sm6 2.366159 1_455
O4 Sm0 2.480655 1_555
O4 Sm2 2.619471 1_555
O5 Sm1 2.326853 1_555
O5 Sm7 2.358234 1_455
O8 Sm2 2.326853 1_555
O8 Sm4 2.358234 1_555
O9 Sm5 2.366159 1_555
O9 Sm3 2.480655 1_556
O9 Sm1 2.619471 1_555
O10 Sm3 2.326853 1_555
O10 Sm2 2.358234 1_545
O11 Sm3 2.287073 1_555
O11 Sm0 2.446218 1_555
O12 Sm3 2.366159 1_565
O12 Sm2 2.480655 1_555
O12 Sm0 2.619471 1_555
O13 Sm1 2.287073 1_555
O13 Sm5 2.446218 1_555
O14 Sm6 2.287073 1_555
O14 Sm2 2.446218 1_555
O15 Sm4 2.366159 1_545
O15 Sm5 2.480655 1_555
O15 Sm7 2.619471 1_555
O16 Sm4 2.287073 1_555
O16 Sm7 2.446218 1_555
O17 Sm4 2.326853 1_555
O17 Sm5 2.358234 1_565
O18 Sm2 2.366159 1_555
O18 Sm4 2.480655 1_555
O18 Sm6 2.619471 1_555
O19 Sm5 2.326853 1_554
O19 Sm3 2.358234 1_555
O22 Sm6 2.326853 1_555
O22 Sm0 2.358234 1_655
O23 Sm1 2.366159 1_655
O23 Sm7 2.480655 1_555
O23 Sm5 2.619471 1_555
O24 Sm7 2.326853 1_555
O24 Sm6 2.358234 1_555
O25 Sm7 2.287073 1_555
O25 Sm4 2.446218 1_545
O26 Sm7 2.366159 1_555
O26 Sm6 2.480655 1_555
O26 Sm4 2.619471 1_555
O27 Sm5 2.287073 1_555
O27 Sm1 2.446218 1_655
