# generated using pymatgen
data_LiWF6
_symmetry_space_group_name_H-M   'P 1'
_cell_length_a   4.97164267
_cell_length_b   8.74828663
_cell_length_c   9.87924667
_cell_angle_alpha   88.53074763
_cell_angle_beta   90.00000000
_cell_angle_gamma   90.00000000
_symmetry_Int_Tables_number   1
_chemical_formula_structural   LiWF6
_chemical_formula_sum   'Li4 W4 F24'
_cell_volume   429.54031658
_cell_formula_units_Z   4
loop_
 _symmetry_equiv_pos_site_id
 _symmetry_equiv_pos_as_xyz
  1  'x, y, z'
loop_
 _atom_site_type_symbol
 _atom_site_label
 _atom_site_symmetry_multiplicity
 _atom_site_fract_x
 _atom_site_fract_y
 _atom_site_fract_z
 _atom_site_occupancy
  Li  Li0  1  0.63472355  0.60231754  0.08084386  1
  Li  Li1  1  0.13472355  0.39768246  0.41915614  1
  Li  Li2  1  0.86527645  0.60231754  0.58084386  1
  Li  Li3  1  0.36527645  0.39768246  0.91915614  1
  W  W0  1  0.85872605  0.22630024  0.13900694  1
  W  W1  1  0.35872605  0.77369976  0.36099306  1
  W  W2  1  0.64127395  0.22630024  0.63900694  1
  W  W3  1  0.14127395  0.77369976  0.86099306  1
  F  F0  1  0.16743766  0.26189945  0.02403018  1
  F  F1  1  0.68868266  0.39740024  0.02899878  1
  F  F2  1  0.75084879  0.08602774  0.01271955  1
  F  F3  1  0.01803853  0.07684485  0.25214358  1
  F  F4  1  0.01932564  0.39092837  0.24272941  1
  F  F5  1  0.57351663  0.24682755  0.25935117  1
  F  F6  1  0.07351663  0.75317245  0.24064883  1
  F  F7  1  0.51803853  0.92315515  0.24785642  1
  F  F8  1  0.51932564  0.60907163  0.25727059  1
  F  F9  1  0.25084879  0.91397226  0.48728045  1
  F  F10  1  0.18868266  0.60259976  0.47100122  1
  F  F11  1  0.66743766  0.73810055  0.47596982  1
  F  F12  1  0.33256234  0.26189945  0.52403018  1
  F  F13  1  0.74915121  0.08602774  0.51271955  1
  F  F14  1  0.81131734  0.39740024  0.52899878  1
  F  F15  1  0.48196147  0.07684485  0.75214358  1
  F  F16  1  0.48067436  0.39092837  0.74272941  1
  F  F17  1  0.92648337  0.24682755  0.75935117  1
  F  F18  1  0.42648337  0.75317245  0.74064883  1
  F  F19  1  0.98067436  0.60907163  0.75727059  1
  F  F20  1  0.98196147  0.92315515  0.74785642  1
  F  F21  1  0.24915121  0.91397226  0.98728045  1
  F  F22  1  0.31131734  0.60259976  0.97100122  1
  F  F23  1  0.83256234  0.73810055  0.97596982  1
loop_
_geom_bond_atom_site_label_1
_geom_bond_atom_site_label_2
_geom_bond_distance
_geom_bond_site_symmetry_2
F0 Li3 1.840872 1_554
F0 W0 1.929949 1_455
F1 Li0 1.896068 1_555
F1 Li3 1.939758 1_554
F1 W0 2.013183 1_555
F2 W0 1.851650 1_555
F3 W0 1.873809 1_455
F4 Li1 1.837347 1_555
F4 W0 1.958933 1_455
F5 W0 1.862072 1_555
F6 W1 1.862072 1_555
F7 W1 1.873809 1_555
F8 Li0 1.837347 1_555
F8 W1 1.958933 1_555
F9 W1 1.851650 1_555
F10 Li1 1.896068 1_555
F10 Li2 1.939758 1_455
F10 W1 2.013183 1_555
F11 Li2 1.840872 1_555
F11 W1 1.929949 1_555
F12 Li1 1.840872 1_555
F12 W2 1.929949 1_555
F13 W2 1.851650 1_555
F14 Li2 1.896068 1_555
F14 Li1 1.939758 1_655
F14 W2 2.013183 1_555
F15 W2 1.873809 1_555
F16 Li3 1.837347 1_555
F16 W2 1.958933 1_555
F17 W2 1.862072 1_555
F18 W3 1.862072 1_555
F19 Li2 1.837347 1_555
F19 W3 1.958933 1_655
F20 W3 1.873809 1_655
F21 W3 1.851650 1_555
F22 Li3 1.896068 1_555
F22 Li0 1.939758 1_556
F22 W3 2.013183 1_555
F23 Li0 1.840872 1_556
F23 W3 1.929949 1_655
