# generated using pymatgen
data_Li2Fe3F8
_symmetry_space_group_name_H-M   'P 1'
_cell_length_a   12.36141600
_cell_length_b   5.35530600
_cell_length_c   5.64392151
_cell_angle_alpha   67.43891692
_cell_angle_beta   90.00000000
_cell_angle_gamma   90.00000000
_symmetry_Int_Tables_number   1
_chemical_formula_structural   Li2Fe3F8
_chemical_formula_sum   'Li4 Fe6 F16'
_cell_volume   345.02991701
_cell_formula_units_Z   2
loop_
 _symmetry_equiv_pos_site_id
 _symmetry_equiv_pos_as_xyz
  1  'x, y, z'
loop_
 _atom_site_type_symbol
 _atom_site_label
 _atom_site_symmetry_multiplicity
 _atom_site_fract_x
 _atom_site_fract_y
 _atom_site_fract_z
 _atom_site_occupancy
  Li  Li0  1  0.11677300  0.09560800  0.29845600  1
  Li  Li1  1  0.61677300  0.40439200  0.70154400  1
  Li  Li2  1  0.38322700  0.59560800  0.29845600  1
  Li  Li3  1  0.88322700  0.90439200  0.70154400  1
  Fe  Fe0  1  0.50000000  0.00000000  0.50000000  1
  Fe  Fe1  1  0.83387600  0.23111300  0.11756300  1
  Fe  Fe2  1  0.33387600  0.26888700  0.88243700  1
  Fe  Fe3  1  0.00000000  0.50000000  0.50000000  1
  Fe  Fe4  1  0.66612400  0.73111300  0.11756300  1
  Fe  Fe5  1  0.16612400  0.76888700  0.88243700  1
  F  F0  1  0.69029400  0.13356700  0.97356300  1
  F  F1  1  0.17580600  0.12587500  0.60371200  1
  F  F2  1  0.98002500  0.27309200  0.29472900  1
  F  F3  1  0.41281100  0.27755200  0.21943800  1
  F  F4  1  0.91281100  0.22244800  0.78056200  1
  F  F5  1  0.48002500  0.22690800  0.70527100  1
  F  F6  1  0.67580600  0.37412500  0.39628800  1
  F  F7  1  0.80970600  0.63356700  0.97356300  1
  F  F8  1  0.19029400  0.36643300  0.02643700  1
  F  F9  1  0.32419400  0.62587500  0.60371200  1
  F  F10  1  0.51997500  0.77309200  0.29472900  1
  F  F11  1  0.08718900  0.77755200  0.21943800  1
  F  F12  1  0.58718900  0.72244800  0.78056200  1
  F  F13  1  0.01997500  0.72690800  0.70527100  1
  F  F14  1  0.82419400  0.87412500  0.39628800  1
  F  F15  1  0.30970600  0.86643300  0.02643700  1
loop_
_geom_bond_atom_site_label_1
_geom_bond_atom_site_label_2
_geom_bond_distance
_geom_bond_site_symmetry_2
F0 Li1 1.891531 1_555
F0 Fe4 2.012674 1_546
F0 Fe1 2.099852 1_556
F1 Li0 1.934229 1_555
F1 Fe5 1.958614 1_545
F2 Li0 1.935449 1_655
F2 Fe3 1.989987 1_655
F2 Fe1 2.118180 1_555
F3 Li2 1.953637 1_555
F3 Fe0 2.017987 1_555
F3 Fe2 2.153972 1_554
F4 Li3 1.953637 1_545
F4 Fe3 2.017987 1_655
F4 Fe1 2.153972 1_556
F5 Li1 1.935449 1_555
F5 Fe0 1.989987 1_555
F5 Fe2 2.118180 1_555
F6 Li1 1.934229 1_555
F6 Fe4 1.958614 1_555
F7 Li3 1.891531 1_555
F7 Fe1 2.012674 1_556
F7 Fe4 2.099852 1_556
F8 Li0 1.891531 1_555
F8 Fe5 2.012674 1_554
F8 Fe2 2.099852 1_554
F9 Li2 1.934229 1_555
F9 Fe2 1.958614 1_555
F10 Li2 1.935449 1_555
F10 Fe0 1.989987 1_565
F10 Fe4 2.118180 1_555
F11 Li0 1.953637 1_565
F11 Fe3 2.017987 1_555
F11 Fe5 2.153972 1_554
F12 Li1 1.953637 1_555
F12 Fe0 2.017987 1_565
F12 Fe4 2.153972 1_556
F13 Li3 1.935449 1_455
F13 Fe3 1.989987 1_555
F13 Fe5 2.118180 1_555
F14 Li3 1.934229 1_555
F14 Fe1 1.958614 1_565
F15 Li2 1.891531 1_555
F15 Fe2 2.012674 1_564
F15 Fe5 2.099852 1_554
