# generated using pymatgen
data_LiTiFeO4
_symmetry_space_group_name_H-M   'P 1'
_cell_length_a   5.96458589
_cell_length_b   6.00987000
_cell_length_c   8.49191566
_cell_angle_alpha   89.99971953
_cell_angle_beta   89.99989022
_cell_angle_gamma   90.00009946
_symmetry_Int_Tables_number   1
_chemical_formula_structural   LiTiFeO4
_chemical_formula_sum   'Li4 Ti4 Fe4 O16'
_cell_volume   304.40448460
_cell_formula_units_Z   4
loop_
 _symmetry_equiv_pos_site_id
 _symmetry_equiv_pos_as_xyz
  1  'x, y, z'
loop_
 _atom_site_type_symbol
 _atom_site_label
 _atom_site_symmetry_multiplicity
 _atom_site_fract_x
 _atom_site_fract_y
 _atom_site_fract_z
 _atom_site_occupancy
  Li  Li0  1  0.00000100  0.25000200  0.12060100  1
  Li  Li1  1  0.50000000  0.74999700  0.62060100  1
  Li  Li2  1  0.00000000  0.74999700  0.87939800  1
  Li  Li3  1  0.49999900  0.25000200  0.37939800  1
  Ti  Ti0  1  0.24999900  0.74999600  0.24999800  1
  Ti  Ti1  1  0.74999500  0.24999700  0.74999400  1
  Ti  Ti2  1  0.75000400  0.74999700  0.24999500  1
  Ti  Ti3  1  0.24999900  0.25000100  0.74999800  1
  Fe  Fe0  1  0.49999900  0.00002200  0.00001300  1
  Fe  Fe1  1  0.00000900  0.99998500  0.49999900  1
  Fe  Fe2  1  0.99998700  0.50000300  0.50000300  1
  Fe  Fe3  1  0.50001000  0.49999700  0.00000000  1
  O  O0  1  0.99999800  0.52916600  0.25649200  1
  O  O1  1  0.50000100  0.02917300  0.75649100  1
  O  O2  1  0.00000000  0.97083100  0.25648800  1
  O  O3  1  0.50000100  0.47083500  0.75649100  1
  O  O4  1  0.00000100  0.02916700  0.74351000  1
  O  O5  1  0.50000100  0.52916500  0.24350900  1
  O  O6  1  0.00000000  0.47083600  0.74350700  1
  O  O7  1  0.50000000  0.97083500  0.24351100  1
  O  O8  1  0.22807700  0.74999400  0.48155100  1
  O  O9  1  0.72807900  0.25000300  0.98155300  1
  O  O10  1  0.77192100  0.74999700  0.48155000  1
  O  O11  1  0.27192300  0.25000600  0.98155200  1
  O  O12  1  0.77192100  0.24999900  0.51845000  1
  O  O13  1  0.27192400  0.74999900  0.01845100  1
  O  O14  1  0.22807500  0.25000100  0.51844700  1
  O  O15  1  0.72807700  0.74999900  0.01845000  1
loop_
_geom_bond_atom_site_label_1
_geom_bond_atom_site_label_2
_geom_bond_distance
_geom_bond_site_symmetry_2
Li0 O9 2.006197 1_454
Li0 O11 2.006198 1_554
Li0 O0 2.036292 1_455
Li0 O2 2.036298 1_545
Li1 O10 2.006203 1_555
Li1 O8 2.006211 1_555
Li1 O3 2.036268 1_555
Li1 O1 2.036347 1_565
Li2 O15 2.006218 1_456
Li2 O13 2.006231 1_556
Li2 O6 2.036277 1_555
Li2 O4 2.036298 1_565
Li3 O14 2.006207 1_555
Li3 O12 2.006217 1_555
Li3 O5 2.036268 1_555
Li3 O7 2.036288 1_545
Fe0 O9 2.032812 1_554
Fe0 O11 2.032814 1_554
Fe0 O13 2.032964 1_545
Fe0 O15 2.032979 1_545
Fe0 O7 2.075190 1_545
Fe0 O1 2.075375 1_554
Fe1 O8 2.032805 1_555
Fe1 O10 2.032869 1_455
Fe1 O14 2.032905 1_565
Fe1 O12 2.032989 1_465
Fe1 O2 2.075285 1_555
Fe1 O4 2.075300 1_565
Fe2 O10 2.032813 1_555
Fe2 O12 2.032850 1_555
Fe2 O8 2.032891 1_655
Fe2 O14 2.032931 1_655
Fe2 O6 2.075231 1_655
Fe2 O0 2.075288 1_555
Fe3 O9 2.032822 1_554
Fe3 O15 2.032848 1_555
Fe3 O11 2.032878 1_554
Fe3 O13 2.032928 1_555
Fe3 O3 2.075272 1_554
Fe3 O5 2.075276 1_555
O0 Ti2 1.996955 1_555
O0 Ti0 1.996978 1_655
O1 Ti1 1.996924 1_555
O1 Ti3 1.996978 1_555
O2 Ti2 1.996972 1_455
O2 Ti0 1.996992 1_555
O3 Ti1 1.996983 1_555
O3 Ti3 1.996999 1_555
O4 Ti3 1.996980 1_555
O4 Ti1 1.997002 1_455
O5 Ti0 1.996989 1_555
O5 Ti2 1.996994 1_555
O6 Ti3 1.996992 1_555
O6 Ti1 1.997030 1_455
O7 Ti0 1.997012 1_555
O7 Ti2 1.997025 1_555
O8 Ti0 1.970671 1_555
O9 Ti1 1.970719 1_555
O10 Ti2 1.970686 1_555
O11 Ti3 1.970681 1_555
O12 Ti1 1.970596 1_555
O13 Ti0 1.970621 1_555
O14 Ti3 1.970655 1_555
O15 Ti2 1.970606 1_555
