# generated using pymatgen
data_KMnH4Cl3O2
_symmetry_space_group_name_H-M   'P 1'
_cell_length_a   6.52060800
_cell_length_b   6.97380221
_cell_length_c   9.28904744
_cell_angle_alpha   110.54371602
_cell_angle_beta   88.77633469
_cell_angle_gamma   112.58020446
_symmetry_Int_Tables_number   1
_chemical_formula_structural   KMnH4Cl3O2
_chemical_formula_sum   'K2 Mn2 H8 Cl6 O4'
_cell_volume   362.06650639
_cell_formula_units_Z   2
loop_
 _symmetry_equiv_pos_site_id
 _symmetry_equiv_pos_as_xyz
  1  'x, y, z'
loop_
 _atom_site_type_symbol
 _atom_site_label
 _atom_site_symmetry_multiplicity
 _atom_site_fract_x
 _atom_site_fract_y
 _atom_site_fract_z
 _atom_site_occupancy
  K  K0  1  0.94189300  0.04150800  0.80412600  1
  K  K1  1  0.05810700  0.95849200  0.19587400  1
  Mn  Mn0  1  0.62595300  0.62397200  0.67379900  1
  Mn  Mn1  1  0.37404700  0.37602800  0.32620100  1
  H  H0  1  0.10326000  0.21772100  0.50552200  1
  H  H1  1  0.89674000  0.78227900  0.49447800  1
  H  H2  1  0.34749600  0.23664100  0.58321100  1
  H  H3  1  0.65250400  0.76335900  0.41678900  1
  H  H4  1  0.53819300  0.36437800  0.94192500  1
  H  H5  1  0.46180700  0.63562200  0.05807500  1
  H  H6  1  0.38008200  0.61253300  0.80866100  1
  H  H7  1  0.61991800  0.38746700  0.19133900  1
  Cl  Cl0  1  0.75274600  0.20917100  0.50164200  1
  Cl  Cl1  1  0.24725400  0.79082900  0.49835800  1
  Cl  Cl2  1  0.46134000  0.07896600  0.81222300  1
  Cl  Cl3  1  0.53866000  0.92103400  0.18777700  1
  Cl  Cl4  1  0.00338100  0.50379600  0.83136300  1
  Cl  Cl5  1  0.99661900  0.49620400  0.16863700  1
  O  O0  1  0.26203600  0.29561400  0.48894000  1
  O  O1  1  0.73796400  0.70438600  0.51106000  1
  O  O2  1  0.52959900  0.57156700  0.83225800  1
  O  O3  1  0.47040100  0.42843300  0.16774200  1
loop_
_geom_bond_atom_site_label_1
_geom_bond_atom_site_label_2
_geom_bond_distance
_geom_bond_site_symmetry_2
K0 Mn0 2.685907 1_545
K0 O1 2.822820 1_545
K1 Mn1 2.685907 1_565
K1 O0 2.822820 1_565
Mn0 O2 1.690151 1_555
Mn0 O1 1.834783 1_555
Mn1 O3 1.690151 1_555
Mn1 O0 1.834783 1_555
H0 O0 1.005337 1_555
H0 K1 2.757914 1_545
H1 O1 1.005337 1_555
H1 K0 2.757914 1_565
H2 O0 1.302344 1_555
H3 O1 1.302344 1_555
H6 O2 1.160668 1_555
H7 O3 1.160668 1_555
Cl2 H4 1.800317 1_555
Cl2 K0 3.239977 1_555
Cl2 K0 3.296061 1_455
Cl3 H5 1.800317 1_555
Cl3 K1 3.239977 1_555
Cl3 K1 3.296061 1_655
Cl4 K0 3.009575 1_455
Cl4 K1 3.646116 1_556
Cl5 K1 3.009575 1_655
Cl5 K0 3.646116 1_554
