# generated using pymatgen
data_Li32Mn5Cr11O48
_symmetry_space_group_name_H-M   'P 1'
_cell_length_a   5.01568712
_cell_length_b   5.01568712
_cell_length_c   38.45336428
_cell_angle_alpha   89.00863152
_cell_angle_beta   89.00863152
_cell_angle_gamma   119.60585959
_symmetry_Int_Tables_number   1
_chemical_formula_structural   Li32Mn5Cr11O48
_chemical_formula_sum   'Li32 Mn5 Cr11 O48'
_cell_volume   840.58171449
_cell_formula_units_Z   1
loop_
 _symmetry_equiv_pos_site_id
 _symmetry_equiv_pos_as_xyz
  1  'x, y, z'
loop_
 _atom_site_type_symbol
 _atom_site_label
 _atom_site_symmetry_multiplicity
 _atom_site_fract_x
 _atom_site_fract_y
 _atom_site_fract_z
 _atom_site_occupancy
  Li  Li0  1  0.71609700  0.90842700  0.56250100  1
  Li  Li1  1  0.61899100  0.49617200  0.81239700  1
  Li  Li2  1  0.68991700  0.56833400  0.62499000  1
  Li  Li3  1  0.74777600  0.62841700  0.43746400  1
  Li  Li4  1  0.80615200  0.68281700  0.25003400  1
  Li  Li5  1  0.87379100  0.74932700  0.06242800  1
  Li  Li6  1  0.93770800  0.81248800  0.87494000  1
  Li  Li7  1  0.66575700  0.21490000  0.68759500  1
  Li  Li8  1  0.99081900  0.87471100  0.68748300  1
  Li  Li9  1  0.78510000  0.33424300  0.31240500  1
  Li  Li10  1  0.90476500  0.46142700  0.93762800  1
  Li  Li11  1  0.06248500  0.93751500  0.50000000  1
  Li  Li12  1  0.12528900  0.00918100  0.31251700  1
  Li  Li13  1  0.03698100  0.59028800  0.56262900  1
  Li  Li14  1  0.15740900  0.70836600  0.18766300  1
  Li  Li15  1  0.83948500  0.03561700  0.18753200  1
  Li  Li16  1  0.96438300  0.16051500  0.81246800  1
  Li  Li17  1  0.29163400  0.84259100  0.81233700  1
  Li  Li18  1  0.40971200  0.96301900  0.43737100  1
  Li  Li19  1  0.09157300  0.28390300  0.43749900  1
  Li  Li20  1  0.21190400  0.40657200  0.06251100  1
  Li  Li21  1  0.18751200  0.06229200  0.12506000  1
  Li  Li22  1  0.34201000  0.53552000  0.68739900  1
  Li  Li23  1  0.46448000  0.65799000  0.31260100  1
  Li  Li24  1  0.25067300  0.12620900  0.93757200  1
  Li  Li25  1  0.59342800  0.78809600  0.93748900  1
  Li  Li26  1  0.31718300  0.19384800  0.74996600  1
  Li  Li27  1  0.37158300  0.25222400  0.56253600  1
  Li  Li28  1  0.43166600  0.31008300  0.37501000  1
  Li  Li29  1  0.50382800  0.38100900  0.18760300  1
  Li  Li30  1  0.56483800  0.43516200  0.00000000  1
  Li  Li31  1  0.53857300  0.09523500  0.06237200  1
  Mn  Mn0  1  0.64617200  0.85415500  0.75008100  1
  Mn  Mn1  1  0.77029000  0.98001600  0.37503100  1
  Mn  Mn2  1  0.89517100  0.10482900  0.00000000  1
  Mn  Mn3  1  0.01998400  0.22971000  0.62496900  1
  Mn  Mn4  1  0.14584500  0.35382800  0.24991900  1
  Cr  Cr0  1  0.73282900  0.26717100  0.50000000  1
  Cr  Cr1  1  0.85836400  0.39143100  0.12501600  1
  Cr  Cr2  1  0.98565300  0.52691400  0.74993300  1
  Cr  Cr3  1  0.09820200  0.64203400  0.37499700  1
  Cr  Cr4  1  0.23356300  0.76643700  0.00000000  1
  Cr  Cr5  1  0.35796600  0.90179800  0.62500300  1
  Cr  Cr6  1  0.26642900  0.48383000  0.87499400  1
  Cr  Cr7  1  0.39160200  0.60839800  0.50000000  1
  Cr  Cr8  1  0.51617000  0.73357100  0.12500600  1
  Cr  Cr9  1  0.47308600  0.01434700  0.25006700  1
  Cr  Cr10  1  0.60856900  0.14163600  0.87498400  1
  O  O0  1  0.71794100  0.95612600  0.47177100  1
  O  O1  1  0.68651900  0.91366500  0.65331400  1
  O  O2  1  0.69493400  0.56998600  0.52849900  1
  O  O3  1  0.82132300  0.69593500  0.15332900  1
  O  O4  1  0.67374300  0.55481700  0.72104000  1
  O  O5  1  0.80879100  0.68145000  0.34652400  1
  O  O6  1  0.93058500  0.80556400  0.97158600  1
  O  O7  1  0.94368400  0.81433500  0.77842400  1
  O  O8  1  0.06962400  0.95142400  0.40391300  1
  O  O9  1  0.69161700  0.20796800  0.59708100  1
  O  O10  1  0.04857600  0.93037600  0.59608700  1
  O  O11  1  0.82164600  0.33809200  0.22204500  1
  O  O12  1  0.95762300  0.46925500  0.84651800  1
  O  O13  1  0.66190800  0.17835400  0.77795500  1
  O  O14  1  0.79203200  0.30838300  0.40291900  1
  O  O15  1  0.90613400  0.42265200  0.02831200  1
  O  O16  1  0.84384200  0.08201000  0.09665800  1
  O  O17  1  0.80384100  0.03798800  0.27779300  1
  O  O18  1  0.91799000  0.15615800  0.90334200  1
  O  O19  1  0.08110800  0.59300500  0.47168100  1
  O  O20  1  0.20783500  0.71939700  0.09661300  1
  O  O21  1  0.03925800  0.55490700  0.65300300  1
  O  O22  1  0.16491600  0.68144500  0.27785700  1
  O  O23  1  0.28060300  0.79216500  0.90338700  1
  O  O24  1  0.96201200  0.19615900  0.72220700  1
  O  O25  1  0.08633500  0.31348100  0.34668600  1
  O  O26  1  0.21098200  0.44753300  0.97208700  1
  O  O27  1  0.04387400  0.28205900  0.52822900  1
  O  O28  1  0.16736300  0.40464700  0.15333600  1
  O  O29  1  0.31855500  0.83508400  0.72214300  1
  O  O30  1  0.44509300  0.96074200  0.34699700  1
  O  O31  1  0.40699500  0.91889200  0.52831900  1
  O  O32  1  0.33644400  0.56987300  0.59704500  1
  O  O33  1  0.46158200  0.68760200  0.22168800  1
  O  O34  1  0.59535300  0.83263700  0.84666400  1
  O  O35  1  0.31239800  0.53841800  0.77831200  1
  O  O36  1  0.43012700  0.66355600  0.40295500  1
  O  O37  1  0.19443600  0.06941500  0.02841400  1
  O  O38  1  0.55246700  0.78901800  0.02791300  1
  O  O39  1  0.18566500  0.05631600  0.22157600  1
  O  O40  1  0.30406500  0.17867700  0.84667100  1
  O  O41  1  0.31855000  0.19120900  0.65347600  1
  O  O42  1  0.44518300  0.32625700  0.27896000  1
  O  O43  1  0.57030000  0.44552900  0.90330800  1
  O  O44  1  0.43001400  0.30506600  0.47150100  1
  O  O45  1  0.55447100  0.42970000  0.09669200  1
  O  O46  1  0.57734800  0.09386600  0.97168800  1
  O  O47  1  0.53074500  0.04237700  0.15348200  1
loop_
_geom_bond_atom_site_label_1
_geom_bond_atom_site_label_2
_geom_bond_distance
_geom_bond_site_symmetry_2
Li0 O31 2.069440 1_555
Li0 O9 2.070312 1_565
Li0 O10 2.087835 1_655
Li0 O2 2.122716 1_555
Li0 O27 2.178756 1_665
Li0 O32 2.216643 1_555
Li1 O40 2.034188 1_555
Li1 O7 2.047394 1_555
Li1 O35 2.123588 1_555
Li1 O13 2.178006 1_555
Li1 O34 2.206260 1_555
Li1 O12 2.218583 1_555
Li2 O1 2.068919 1_555
Li2 O32 2.092164 1_555
Li2 O10 2.098131 1_655
Li2 O21 2.101055 1_655
Li2 O9 2.121521 1_555
Li2 O41 2.150293 1_555
Li3 O8 2.041239 1_655
Li3 O44 2.045464 1_555
Li3 O36 2.161677 1_555
Li3 O0 2.185330 1_555
Li3 O14 2.192286 1_555
Li3 O19 2.217977 1_655
Li4 O33 2.069010 1_555
Li4 O11 2.085238 1_555
Li4 O42 2.091827 1_555
Li4 O17 2.097329 1_565
Li4 O22 2.112184 1_655
Li4 O39 2.159614 1_665
Li5 O37 2.044043 1_665
Li5 O45 2.046495 1_555
Li5 O15 2.182122 1_555
Li5 O38 2.186431 1_555
Li5 O16 2.203693 1_565
Li5 O20 2.208073 1_655
Li6 O34 2.091246 1_555
Li6 O23 2.097458 1_655
Li6 O12 2.097481 1_555
Li6 O18 2.098502 1_565
Li6 O40 2.111566 1_665
Li6 O43 2.117352 1_555
Li7 O24 2.047031 1_555
Li7 O1 2.061795 1_545
Li7 O4 2.138343 1_555
Li7 O41 2.155966 1_555
Li7 O21 2.205854 1_655
Li7 O29 2.231850 1_545
Li8 O4 2.026029 1_555
Li8 O41 2.051244 1_665
Li8 O1 2.109314 1_555
Li8 O24 2.168232 1_565
Li8 O21 2.199409 1_655
Li8 O29 2.215278 1_655
Li9 O17 2.047031 1_555
Li9 O25 2.061795 1_655
Li9 O42 2.138343 1_555
Li9 O5 2.155966 1_555
Li9 O30 2.205854 1_545
Li9 O22 2.231850 1_655
Li10 O18 2.062561 1_555
Li10 O26 2.071857 1_655
Li10 O43 2.123757 1_555
Li10 O6 2.136405 1_555
Li10 O46 2.159080 1_555
Li10 O23 2.188107 1_655
Li11 O27 2.096243 1_565
Li11 O0 2.096243 1_455
Li11 O31 2.097965 1_555
Li11 O19 2.097965 1_555
Li11 O2 2.121340 1_455
Li11 O44 2.121340 1_565
Li12 O42 2.026029 1_555
Li12 O5 2.051244 1_445
Li12 O25 2.109314 1_555
Li12 O17 2.168232 1_455
Li12 O30 2.199409 1_545
Li12 O22 2.215278 1_545
Li13 O32 2.057669 1_555
Li13 O27 2.064711 1_555
Li13 O10 2.132799 1_555
Li13 O2 2.141497 1_455
Li13 O31 2.172357 1_555
Li13 O9 2.232379 1_455
Li14 O28 2.051325 1_555
Li14 O33 2.066787 1_555
Li14 O3 2.136486 1_455
Li14 O39 2.146438 1_565
Li14 O47 2.186235 1_565
Li14 O11 2.186525 1_455
Li15 O47 2.057669 1_555
Li15 O11 2.066555 1_555
Li15 O3 2.137560 1_545
Li15 O39 2.155140 1_655
Li15 O28 2.166315 1_655
Li15 O33 2.220385 1_545
Li16 O12 2.057669 1_555
Li16 O13 2.066555 1_555
Li16 O40 2.137560 1_655
Li16 O7 2.155140 1_545
Li16 O34 2.166315 1_545
Li16 O35 2.220385 1_655
Li17 O34 2.051325 1_555
Li17 O35 2.066787 1_555
Li17 O40 2.136486 1_565
Li17 O7 2.146438 1_455
Li17 O12 2.186235 1_455
Li17 O13 2.186525 1_565
Li18 O36 2.057669 1_555
Li18 O0 2.064711 1_555
Li18 O8 2.132799 1_555
Li18 O44 2.141497 1_565
Li18 O19 2.172357 1_555
Li18 O14 2.232379 1_565
Li19 O19 2.069440 1_555
Li19 O14 2.070312 1_455
Li19 O8 2.087835 1_545
Li19 O44 2.122716 1_555
Li19 O0 2.178756 1_445
Li19 O36 2.216643 1_555
Li20 O15 2.067925 1_455
Li20 O20 2.069733 1_555
Li20 O37 2.126221 1_555
Li20 O45 2.140038 1_555
Li20 O16 2.157550 1_455
Li20 O38 2.227763 1_555
Li21 O28 2.091246 1_555
Li21 O20 2.097458 1_545
Li21 O47 2.097481 1_555
Li21 O16 2.098502 1_455
Li21 O3 2.111566 1_445
Li21 O45 2.117352 1_555
Li22 O21 2.067765 1_555
Li22 O29 2.072447 1_555
Li22 O4 2.090681 1_555
Li22 O41 2.140165 1_555
Li22 O1 2.213236 1_555
Li22 O24 2.224607 1_455
Li23 O30 2.067765 1_555
Li23 O22 2.072447 1_555
Li23 O42 2.090681 1_555
Li23 O5 2.140165 1_555
Li23 O25 2.213236 1_555
Li23 O17 2.224607 1_565
Li24 O6 2.044043 1_445
Li24 O43 2.046495 1_555
Li24 O46 2.182122 1_555
Li24 O26 2.186431 1_555
Li24 O18 2.203693 1_455
Li24 O23 2.208073 1_545
Li25 O46 2.067925 1_565
Li25 O23 2.069733 1_555
Li25 O6 2.126221 1_555
Li25 O43 2.140038 1_555
Li25 O18 2.157550 1_565
Li25 O26 2.227763 1_555
Li26 O35 2.069010 1_555
Li26 O13 2.085238 1_555
Li26 O4 2.091827 1_555
Li26 O24 2.097329 1_455
Li26 O29 2.112184 1_545
Li26 O7 2.159614 1_445
Li27 O10 2.041239 1_545
Li27 O2 2.045464 1_555
Li27 O32 2.161677 1_555
Li27 O27 2.185330 1_555
Li27 O9 2.192286 1_555
Li27 O31 2.217977 1_545
Li28 O25 2.068919 1_555
Li28 O36 2.092164 1_555
Li28 O8 2.098131 1_545
Li28 O30 2.101055 1_545
Li28 O14 2.121521 1_555
Li28 O5 2.150293 1_555
Li29 O3 2.034188 1_555
Li29 O39 2.047394 1_555
Li29 O33 2.123588 1_555
Li29 O11 2.178006 1_555
Li29 O28 2.206260 1_555
Li29 O47 2.218583 1_555
Li30 O15 2.070704 1_555
Li30 O46 2.070704 1_554
Li30 O38 2.116218 1_555
Li30 O26 2.116218 1_554
Li30 O6 2.122159 1_554
Li30 O37 2.122159 1_555
Li31 O16 2.062561 1_555
Li31 O38 2.071857 1_545
Li31 O45 2.123757 1_555
Li31 O37 2.136405 1_555
Li31 O15 2.159080 1_555
Li31 O20 2.188107 1_545
Mn0 O13 1.932785 1_565
Mn0 O35 1.935746 1_555
Mn0 O29 1.942374 1_555
Mn0 O4 1.943752 1_555
Mn0 O24 1.947711 1_565
Mn0 O7 1.948769 1_555
Mn1 O30 1.934044 1_555
Mn1 O25 1.937972 1_665
Mn1 O14 1.939632 1_565
Mn1 O8 1.942433 1_655
Mn1 O36 1.945557 1_555
Mn1 O5 1.953633 1_555
Mn2 O46 1.924824 1_554
Mn2 O15 1.924824 1_555
Mn2 O6 1.947277 1_544
Mn2 O37 1.947277 1_655
Mn2 O38 1.950089 1_545
Mn2 O26 1.950089 1_654
Mn3 O21 1.934044 1_555
Mn3 O1 1.937972 1_445
Mn3 O9 1.939632 1_455
Mn3 O10 1.942433 1_545
Mn3 O32 1.945557 1_555
Mn3 O41 1.953633 1_555
Mn4 O11 1.932785 1_455
Mn4 O33 1.935746 1_555
Mn4 O22 1.942374 1_555
Mn4 O42 1.943752 1_555
Mn4 O17 1.947711 1_455
Mn4 O39 1.948769 1_555
Cr0 O27 1.887885 1_655
Cr0 O0 1.887885 1_545
Cr0 O2 1.969655 1_555
Cr0 O44 1.969655 1_555
Cr0 O31 1.989985 1_545
Cr0 O19 1.989985 1_655
Cr1 O28 1.884600 1_655
Cr1 O16 1.884835 1_555
Cr1 O3 1.970631 1_555
Cr1 O45 1.971210 1_555
Cr1 O47 1.998102 1_555
Cr1 O20 1.998473 1_655
Cr2 O29 1.910530 1_655
Cr2 O7 1.915557 1_555
Cr2 O24 1.942711 1_555
Cr2 O35 1.962309 1_655
Cr2 O13 1.980804 1_555
Cr2 O4 1.993129 1_555
Cr3 O14 1.911326 1_455
Cr3 O5 1.917300 1_455
Cr3 O36 1.956398 1_555
Cr3 O30 1.967071 1_555
Cr3 O25 1.967677 1_555
Cr3 O8 1.984684 1_555
Cr4 O38 1.899472 1_555
Cr4 O26 1.899472 1_554
Cr4 O37 1.971379 1_565
Cr4 O6 1.971379 1_454
Cr4 O46 1.982618 1_564
Cr4 O15 1.982618 1_455
Cr5 O9 1.911326 1_565
Cr5 O41 1.917300 1_565
Cr5 O32 1.956398 1_555
Cr5 O21 1.967071 1_555
Cr5 O1 1.967677 1_555
Cr5 O10 1.984684 1_555
Cr6 O23 1.881828 1_555
Cr6 O12 1.884929 1_455
Cr6 O43 1.970977 1_555
Cr6 O40 1.974952 1_555
Cr6 O18 1.994435 1_455
Cr6 O34 1.997328 1_555
Cr7 O31 1.886769 1_555
Cr7 O19 1.886769 1_555
Cr7 O2 1.973018 1_555
Cr7 O44 1.973018 1_555
Cr7 O0 1.987880 1_555
Cr7 O27 1.987880 1_555
Cr8 O20 1.881828 1_555
Cr8 O47 1.884929 1_565
Cr8 O45 1.970977 1_555
Cr8 O3 1.974952 1_555
Cr8 O16 1.994435 1_565
Cr8 O28 1.997328 1_555
Cr9 O22 1.910530 1_545
Cr9 O39 1.915557 1_555
Cr9 O17 1.942711 1_555
Cr9 O33 1.962309 1_545
Cr9 O11 1.980804 1_555
Cr9 O42 1.993129 1_555
Cr10 O34 1.884600 1_545
Cr10 O18 1.884835 1_555
Cr10 O40 1.970631 1_555
Cr10 O43 1.971210 1_555
Cr10 O12 1.998102 1_555
Cr10 O23 1.998473 1_545
