# generated using pymatgen
data_V6O7F5
_symmetry_space_group_name_H-M   'P 1'
_cell_length_a   4.75405242
_cell_length_b   4.75405242
_cell_length_c   9.14497500
_cell_angle_alpha   90.00000000
_cell_angle_beta   90.00000000
_cell_angle_gamma   94.28702461
_symmetry_Int_Tables_number   1
_chemical_formula_structural   V6O7F5
_chemical_formula_sum   'V6 O7 F5'
_cell_volume   206.10742330
_cell_formula_units_Z   1
loop_
 _symmetry_equiv_pos_site_id
 _symmetry_equiv_pos_as_xyz
  1  'x, y, z'
loop_
 _atom_site_type_symbol
 _atom_site_label
 _atom_site_symmetry_multiplicity
 _atom_site_fract_x
 _atom_site_fract_y
 _atom_site_fract_z
 _atom_site_occupancy
  V  V0  1  0.98974400  0.01025600  0.65926300  1
  V  V1  1  0.98974400  0.01025600  0.34073700  1
  V  V2  1  0.99940200  0.00059800  0.00000000  1
  V  V3  1  0.53101100  0.46898900  0.50000000  1
  V  V4  1  0.49681100  0.50318900  0.83220600  1
  V  V5  1  0.49681100  0.50318900  0.16779400  1
  O  O0  1  0.80168200  0.19831800  0.50000000  1
  O  O1  1  0.30602000  0.29967700  0.66088300  1
  O  O2  1  0.30602000  0.29967700  0.33911700  1
  O  O3  1  0.29724800  0.30233000  0.00000000  1
  O  O4  1  0.70032300  0.69398000  0.66088300  1
  O  O5  1  0.70032300  0.69398000  0.33911700  1
  O  O6  1  0.69767000  0.70275200  0.00000000  1
  F  F0  1  0.80098500  0.19901500  0.16660100  1
  F  F1  1  0.80098500  0.19901500  0.83339900  1
  F  F2  1  0.19824100  0.80175900  0.50000000  1
  F  F3  1  0.19348900  0.80651100  0.83068700  1
  F  F4  1  0.19348900  0.80651100  0.16931300  1
loop_
_geom_bond_atom_site_label_1
_geom_bond_atom_site_label_2
_geom_bond_distance
_geom_bond_site_symmetry_2
O0 V3 1.886579 1_555
O0 V1 1.959450 1_555
O0 V0 1.959450 1_555
O1 V3 1.956502 1_555
O1 V0 1.960834 1_455
O1 V4 2.020461 1_555
O2 V3 1.956502 1_555
O2 V1 1.960834 1_455
O2 V5 2.020461 1_555
O3 V2 1.938805 1_455
O3 V4 2.007754 1_554
O3 V5 2.007754 1_555
O4 V3 1.956502 1_555
O4 V0 1.960834 1_565
O4 V4 2.020461 1_555
O5 V3 1.956502 1_555
O5 V1 1.960834 1_565
O5 V5 2.020461 1_555
O6 V2 1.938805 1_565
O6 V4 2.007754 1_554
O6 V5 2.007754 1_555
F0 V2 2.057630 1_555
F0 V1 2.065647 1_555
F0 V5 2.120123 1_555
F1 V2 2.057630 1_556
F1 V0 2.065647 1_555
F1 V4 2.120123 1_555
F2 V1 2.057457 1_465
F2 V0 2.057457 1_465
F2 V3 2.319410 1_555
F3 V2 2.056080 1_466
F3 V4 2.114202 1_555
F3 V0 2.115249 1_465
F4 V2 2.056080 1_465
F4 V5 2.114202 1_555
F4 V1 2.115249 1_465
