# generated using pymatgen
data_MnF3
_symmetry_space_group_name_H-M   'P 1'
_cell_length_a   8.53169782
_cell_length_b   8.53169782
_cell_length_c   4.65400200
_cell_angle_alpha   90.00000000
_cell_angle_beta   90.00000000
_cell_angle_gamma   119.99999862
_symmetry_Int_Tables_number   1
_chemical_formula_structural   MnF3
_chemical_formula_sum   'Mn6 F18'
_cell_volume   293.37839850
_cell_formula_units_Z   6
loop_
 _symmetry_equiv_pos_site_id
 _symmetry_equiv_pos_as_xyz
  1  'x, y, z'
loop_
 _atom_site_type_symbol
 _atom_site_label
 _atom_site_symmetry_multiplicity
 _atom_site_fract_x
 _atom_site_fract_y
 _atom_site_fract_z
 _atom_site_occupancy
  Mn  Mn0  1  0.66668400  0.66668400  0.00000000  1
  Mn  Mn1  1  0.00000000  0.66482200  0.50000000  1
  Mn  Mn2  1  0.33517800  0.33517800  0.50000000  1
  Mn  Mn3  1  0.00000000  0.33331600  0.00000000  1
  Mn  Mn4  1  0.33331600  0.00000000  0.00000000  1
  Mn  Mn5  1  0.66482200  0.00000000  0.50000000  1
  F  F0  1  0.11945200  0.87612200  0.25769100  1
  F  F1  1  0.88054800  0.75666900  0.74230900  1
  F  F2  1  0.21755800  0.79050400  0.75962300  1
  F  F3  1  0.78244200  0.57294600  0.24037700  1
  F  F4  1  0.45599700  0.90710900  0.25371500  1
  F  F5  1  0.54400300  0.45111200  0.74628500  1
  F  F6  1  0.09289100  0.54888800  0.25371500  1
  F  F7  1  0.90710900  0.45599700  0.74628500  1
  F  F8  1  0.75666900  0.88054800  0.25769100  1
  F  F9  1  0.24333100  0.12387800  0.74230900  1
  F  F10  1  0.57294600  0.78244200  0.75962300  1
  F  F11  1  0.42705400  0.20949600  0.24037700  1
  F  F12  1  0.20949600  0.42705400  0.75962300  1
  F  F13  1  0.79050400  0.21755800  0.24037700  1
  F  F14  1  0.54888800  0.09289100  0.74628500  1
  F  F15  1  0.45111200  0.54400300  0.25371500  1
  F  F16  1  0.12387800  0.24333100  0.25769100  1
  F  F17  1  0.87612200  0.11945200  0.74230900  1
loop_
_geom_bond_atom_site_label_1
_geom_bond_atom_site_label_2
_geom_bond_distance
_geom_bond_site_symmetry_2
F0 Mn1 1.929511 1_555
F0 Mn4 1.989007 1_565
F1 Mn1 1.929505 1_655
F1 Mn0 1.989007 1_556
F2 Mn4 1.912153 1_566
F2 Mn1 2.016108 1_555
F3 Mn0 1.912153 1_555
F3 Mn1 2.016108 1_655
F4 Mn5 1.924609 1_565
F4 Mn4 1.986805 1_565
F5 Mn2 1.924609 1_555
F5 Mn0 1.986805 1_556
F6 Mn1 1.924609 1_555
F6 Mn3 1.986805 1_555
F7 Mn1 1.924609 1_655
F7 Mn3 1.986805 1_656
F8 Mn5 1.929505 1_565
F8 Mn0 1.989007 1_555
F9 Mn2 1.929512 1_555
F9 Mn4 1.989001 1_556
F10 Mn0 1.912153 1_556
F10 Mn5 2.016108 1_565
F11 Mn4 1.912153 1_555
F11 Mn2 2.016108 1_555
F12 Mn3 1.912153 1_556
F12 Mn2 2.016108 1_555
F13 Mn3 1.912153 1_655
F13 Mn5 2.016108 1_555
F14 Mn5 1.924609 1_555
F14 Mn4 1.986805 1_556
F15 Mn2 1.924609 1_555
F15 Mn0 1.986805 1_555
F16 Mn2 1.929512 1_555
F16 Mn3 1.989001 1_555
F17 Mn5 1.929511 1_555
F17 Mn3 1.989007 1_656
