# generated using pymatgen
data_LiMn5O7F
_symmetry_space_group_name_H-M   'P 1'
_cell_length_a   6.06310286
_cell_length_b   6.06310286
_cell_length_c   6.06310349
_cell_angle_alpha   61.07597354
_cell_angle_beta   61.07597354
_cell_angle_gamma   61.07596905
_symmetry_Int_Tables_number   1
_chemical_formula_structural   LiMn5O7F
_chemical_formula_sum   'Li1 Mn5 O7 F1'
_cell_volume   161.42271707
_cell_formula_units_Z   1
loop_
 _symmetry_equiv_pos_site_id
 _symmetry_equiv_pos_as_xyz
  1  'x, y, z'
loop_
 _atom_site_type_symbol
 _atom_site_label
 _atom_site_symmetry_multiplicity
 _atom_site_fract_x
 _atom_site_fract_y
 _atom_site_fract_z
 _atom_site_occupancy
  Li  Li0  1  0.76296000  0.76296000  0.76296000  1
  Mn  Mn0  1  0.37651400  0.37651400  0.37651400  1
  Mn  Mn1  1  0.98702900  0.98702900  0.98702900  1
  Mn  Mn2  1  0.36734200  0.87710900  0.36734200  1
  Mn  Mn3  1  0.36734200  0.36734200  0.87710900  1
  Mn  Mn4  1  0.87710900  0.36734200  0.36734200  1
  O  O0  1  0.17637900  0.61821100  0.61821100  1
  O  O1  1  0.61821100  0.61821100  0.17637900  1
  O  O2  1  0.13374500  0.13374500  0.57507500  1
  O  O3  1  0.12203900  0.12203900  0.12203900  1
  O  O4  1  0.57507500  0.13374500  0.13374500  1
  O  O5  1  0.13374500  0.57507500  0.13374500  1
  O  O6  1  0.61821100  0.17637900  0.61821100  1
  F  F0  1  0.63430100  0.63430100  0.63430100  1
loop_
_geom_bond_atom_site_label_1
_geom_bond_atom_site_label_2
_geom_bond_distance
_geom_bond_site_symmetry_2
Li0 O6 2.076706 1_565
Li0 O0 2.076706 1_655
Li0 O1 2.076706 1_556
Mn0 O6 2.098706 1_555
Mn0 O0 2.098706 1_555
Mn0 O1 2.098706 1_555
Mn0 O2 2.109518 1_555
Mn0 O5 2.109518 1_555
Mn0 O4 2.109518 1_555
Mn1 O3 1.988642 1_666
Mn1 O5 2.070808 1_656
Mn1 O4 2.070808 1_566
Mn1 O2 2.070808 1_665
Mn2 O1 1.965491 1_555
Mn2 O0 1.965492 1_555
Mn2 O2 2.012942 1_565
Mn2 O4 2.012942 1_565
Mn2 O3 2.120431 1_565
Mn3 O6 1.965492 1_555
Mn3 O0 1.965492 1_555
Mn3 O4 2.012942 1_556
Mn3 O5 2.012942 1_556
Mn3 O3 2.120431 1_556
Mn4 O1 1.965491 1_555
Mn4 O6 1.965492 1_555
Mn4 O2 2.012942 1_655
Mn4 O5 2.012942 1_655
Mn4 O3 2.120431 1_655
F0 Li0 1.895095 1_555
F0 Mn4 2.308970 1_555
F0 Mn2 2.308970 1_555
F0 Mn3 2.308970 1_555
