# generated using pymatgen
data_Li6Mn3Ni(PO4)6
_symmetry_space_group_name_H-M   'P 1'
_cell_length_a   8.49806500
_cell_length_b   8.51006286
_cell_length_c   8.57857656
_cell_angle_alpha   61.60054747
_cell_angle_beta   62.31215242
_cell_angle_gamma   61.81406882
_symmetry_Int_Tables_number   1
_chemical_formula_structural   Li6Mn3Ni(PO4)6
_chemical_formula_sum   'Li6 Mn3 Ni1 P6 O24'
_cell_volume   457.39336337
_cell_formula_units_Z   1
loop_
 _symmetry_equiv_pos_site_id
 _symmetry_equiv_pos_as_xyz
  1  'x, y, z'
loop_
 _atom_site_type_symbol
 _atom_site_label
 _atom_site_symmetry_multiplicity
 _atom_site_fract_x
 _atom_site_fract_y
 _atom_site_fract_z
 _atom_site_occupancy
  Li  Li0  1  0.98692100  0.00452700  0.99963100  1
  Li  Li1  1  0.24858400  0.65245900  0.85253500  1
  Li  Li2  1  0.52294500  0.49799300  0.49445000  1
  Li  Li3  1  0.77984700  0.33910800  0.14789900  1
  Li  Li4  1  0.33394800  0.16538600  0.77988400  1
  Li  Li5  1  0.15460800  0.77735000  0.34011200  1
  Mn  Mn0  1  0.85586100  0.86139600  0.85909700  1
  Mn  Mn1  1  0.64077900  0.64547600  0.63775300  1
  Mn  Mn2  1  0.35920100  0.35235900  0.34908300  1
  Ni  Ni0  1  0.14504700  0.14689900  0.14708600  1
  P  P0  1  0.94927600  0.54884100  0.25327300  1
  P  P1  1  0.55552800  0.24905800  0.94129800  1
  P  P2  1  0.25422400  0.95306200  0.54294200  1
  P  P3  1  0.74934700  0.03799100  0.45969900  1
  P  P4  1  0.45138400  0.74731100  0.03387300  1
  P  P5  1  0.03554100  0.46809400  0.75514500  1
  O  O0  1  0.86287500  0.51549500  0.70508000  1
  O  O1  1  0.68703000  0.87803500  0.49466600  1
  O  O2  1  0.94694700  0.73720500  0.08703200  1
  O  O3  1  0.46804800  0.69652000  0.87301400  1
  O  O4  1  0.75980600  0.56766700  0.41650600  1
  O  O5  1  0.96716500  0.39119500  0.20092800  1
  O  O6  1  0.74806200  0.08941800  0.91983300  1
  O  O7  1  0.55707700  0.42281100  0.75371500  1
  O  O8  1  0.41857400  0.75593700  0.56108800  1
  O  O9  1  0.79986800  0.00739500  0.62197900  1
  O  O10  1  0.91084100  0.05020200  0.27176700  1
  O  O11  1  0.62285800  0.78425500  0.00049100  1
  O  O12  1  0.39314300  0.19652100  0.96709000  1
  O  O13  1  0.11032700  0.92677800  0.73968500  1
  O  O14  1  0.19532200  0.97137200  0.39060100  1
  O  O15  1  0.59141800  0.23684600  0.43043200  1
  O  O16  1  0.42688900  0.58636200  0.23012700  1
  O  O17  1  0.26393600  0.91303300  0.05263300  1
  O  O18  1  0.02037300  0.62779600  0.80609400  1
  O  O19  1  0.22714500  0.43846100  0.60102000  1
  O  O20  1  0.53089300  0.30409200  0.09820900  1
  O  O21  1  0.04232800  0.27782000  0.91903400  1
  O  O22  1  0.31258200  0.11722700  0.50348000  1
  O  O23  1  0.11345500  0.50924300  0.31273400  1
loop_
_geom_bond_atom_site_label_1
_geom_bond_atom_site_label_2
_geom_bond_distance
_geom_bond_site_symmetry_2
Li0 O6 2.132222 1_555
Li0 O2 2.173406 1_546
Li0 O13 2.255009 1_645
Li0 O10 2.289603 1_556
Li0 O17 2.298074 1_646
Li0 O21 2.304594 1_655
Li1 O13 2.020791 1_555
Li1 O3 2.162758 1_555
Li1 O8 2.205508 1_555
Li1 O18 2.268464 1_555
Li1 O2 2.445238 1_456
Li1 O7 2.466062 1_555
Li2 O4 2.085625 1_555
Li2 O7 2.123867 1_555
Li2 O8 2.194371 1_555
Li2 O15 2.285068 1_555
Li2 O16 2.427267 1_555
Li2 O19 2.457257 1_555
Li3 O10 2.107549 1_555
Li3 O5 2.113934 1_555
Li3 O15 2.213419 1_555
Li3 O21 2.215279 1_654
Li3 O20 2.510147 1_555
Li4 O12 2.045434 1_555
Li4 O19 2.118591 1_555
Li4 O21 2.139926 1_555
Li4 O17 2.360961 1_546
Li5 O14 2.095893 1_555
Li5 O17 2.110404 1_555
Li5 O16 2.182443 1_555
Li5 O10 2.305738 1_465
Mn0 O6 1.927444 1_565
Mn0 O18 1.938254 1_655
Mn0 O9 1.960802 1_565
Mn0 O11 2.015306 1_556
Mn0 O2 2.051226 1_556
Mn0 O13 2.138007 1_655
Mn1 O0 1.884803 1_555
Mn1 O1 1.885114 1_555
Mn1 O8 1.941929 1_555
Mn1 O4 1.960255 1_555
Mn1 O3 1.973584 1_555
Mn1 O7 1.977064 1_555
Mn2 O22 1.911906 1_555
Mn2 O23 1.953521 1_555
Mn2 O16 1.985293 1_555
Mn2 O15 2.035268 1_555
Mn2 O20 2.070241 1_555
Mn2 O19 2.223281 1_555
Ni0 O14 2.008992 1_545
Ni0 O5 2.028876 1_455
Ni0 O12 2.050151 1_554
Ni0 O21 2.103698 1_554
Ni0 O17 2.124135 1_545
Ni0 O10 2.124643 1_455
O0 P5 1.536856 1_655
O1 P3 1.538942 1_565
O2 P0 1.557390 1_555
O3 P4 1.561750 1_556
O4 P0 1.566355 1_555
O5 P0 1.530206 1_555
O6 P1 1.553949 1_555
O7 P1 1.584738 1_555
O8 P2 1.590398 1_555
O9 P3 1.514987 1_555
O10 P3 1.553261 1_555
O11 P4 1.504534 1_555
O12 P1 1.535618 1_555
O13 P2 1.541188 1_555
O14 P2 1.524227 1_555
O15 P3 1.578445 1_555
O16 P4 1.582388 1_555
O17 P4 1.551696 1_555
O18 P5 1.549814 1_555
O19 P5 1.546476 1_555
O20 P1 1.523241 1_554
O21 P5 1.556770 1_555
O22 P2 1.536528 1_545
O23 P0 1.540799 1_455
