# generated using pymatgen
data_LiVSn3(PO4)6
_symmetry_space_group_name_H-M   'P 1'
_cell_length_a   8.90539145
_cell_length_b   8.90539145
_cell_length_c   8.90539199
_cell_angle_alpha   58.57688381
_cell_angle_beta   58.57688381
_cell_angle_gamma   58.57689004
_symmetry_Int_Tables_number   1
_chemical_formula_structural   LiVSn3(PO4)6
_chemical_formula_sum   'Li1 V1 Sn3 P6 O24'
_cell_volume   483.14412048
_cell_formula_units_Z   1
loop_
 _symmetry_equiv_pos_site_id
 _symmetry_equiv_pos_as_xyz
  1  'x, y, z'
loop_
 _atom_site_type_symbol
 _atom_site_label
 _atom_site_symmetry_multiplicity
 _atom_site_fract_x
 _atom_site_fract_y
 _atom_site_fract_z
 _atom_site_occupancy
  Li  Li0  1  0.00032700  0.00032700  0.00032700  1
  V  V0  1  0.14530700  0.14530700  0.14530700  1
  Sn  Sn0  1  0.85411300  0.85411300  0.85411300  1
  Sn  Sn1  1  0.64101100  0.64101100  0.64101100  1
  Sn  Sn2  1  0.35815600  0.35815600  0.35815600  1
  P  P0  1  0.24829300  0.53742000  0.96399500  1
  P  P1  1  0.96399500  0.24829300  0.53742000  1
  P  P2  1  0.53742000  0.96399500  0.24829300  1
  P  P3  1  0.45321200  0.03887600  0.75725200  1
  P  P4  1  0.03887600  0.75725200  0.45321200  1
  P  P5  1  0.75725200  0.45321200  0.03887600  1
  O  O0  1  0.73682100  0.47463200  0.86665700  1
  O  O1  1  0.47463200  0.86665700  0.73682100  1
  O  O2  1  0.08026700  0.72257400  0.94016200  1
  O  O3  1  0.86665700  0.73682100  0.47463200  1
  O  O4  1  0.42039000  0.54449100  0.78551500  1
  O  O5  1  0.20115200  0.36756600  0.00944200  1
  O  O6  1  0.94016200  0.08026700  0.72257400  1
  O  O7  1  0.78551500  0.42039000  0.54449100  1
  O  O8  1  0.54449100  0.78551500  0.42039000  1
  O  O9  1  0.61898400  0.01365000  0.78945600  1
  O  O10  1  0.27063200  0.06838800  0.93182300  1
  O  O11  1  0.01365000  0.78945600  0.61898400  1
  O  O12  1  0.00944200  0.20115200  0.36756600  1
  O  O13  1  0.72257400  0.94016200  0.08026700  1
  O  O14  1  0.36756600  0.00944200  0.20115200  1
  O  O15  1  0.42600900  0.21951600  0.59162700  1
  O  O16  1  0.21951600  0.59162700  0.42600900  1
  O  O17  1  0.06838800  0.93182300  0.27063200  1
  O  O18  1  0.78945600  0.61898400  0.01365000  1
  O  O19  1  0.59162700  0.42600900  0.21951600  1
  O  O20  1  0.12892300  0.27947200  0.51389000  1
  O  O21  1  0.93182300  0.27063200  0.06838800  1
  O  O22  1  0.51389000  0.12892300  0.27947200  1
  O  O23  1  0.27947200  0.51389000  0.12892300  1
loop_
_geom_bond_atom_site_label_1
_geom_bond_atom_site_label_2
_geom_bond_distance
_geom_bond_site_symmetry_2
Li0 O13 2.461738 1_445
Li0 O2 2.461738 1_544
Li0 O6 2.461738 1_454
Li0 O10 2.477611 1_554
Li0 O21 2.477611 1_455
Li0 O17 2.477612 1_545
O0 P5 1.539930 1_556
O0 Sn1 2.079984 1_555
O1 P3 1.539930 1_565
O1 Sn1 2.079984 1_555
O2 P0 1.548047 1_555
O2 Sn0 2.056418 1_455
O3 P4 1.539930 1_655
O3 Sn1 2.079984 1_555
O4 P0 1.528196 1_555
O4 Sn1 2.055768 1_555
O5 P0 1.573111 1_554
O5 V0 1.879035 1_555
O6 P1 1.548047 1_555
O6 Sn0 2.056418 1_545
O7 P1 1.528196 1_555
O7 Sn1 2.055768 1_555
O8 P2 1.528196 1_555
O8 Sn1 2.055768 1_555
O9 P3 1.529885 1_555
O9 Sn0 2.009162 1_545
O10 P3 1.573021 1_555
O10 V0 1.917691 1_556
O11 P4 1.529885 1_555
O11 Sn0 2.009162 1_455
O12 P1 1.573111 1_455
O12 V0 1.879035 1_555
O13 P2 1.548047 1_555
O13 Sn0 2.056418 1_554
O14 P2 1.573111 1_545
O14 V0 1.879035 1_555
O15 P3 1.521241 1_555
O15 Sn2 2.016877 1_555
O16 P4 1.521241 1_555
O16 Sn2 2.016877 1_555
O17 P4 1.573020 1_555
O17 V0 1.917690 1_565
O18 P5 1.529885 1_555
O18 Sn0 2.009162 1_554
O19 P5 1.521241 1_555
O19 Sn2 2.016877 1_555
O20 P1 1.523771 1_455
O20 Sn2 2.026797 1_555
O21 P5 1.573021 1_555
O21 V0 1.917691 1_655
O22 P2 1.523771 1_545
O22 Sn2 2.026797 1_555
O23 P0 1.523771 1_554
O23 Sn2 2.026797 1_555
