# generated using pymatgen
data_Li5V7O12
_symmetry_space_group_name_H-M   'P 1'
_cell_length_a   5.13543491
_cell_length_b   5.20540742
_cell_length_c   9.94477990
_cell_angle_alpha   95.32532834
_cell_angle_beta   78.99935824
_cell_angle_gamma   119.50073245
_symmetry_Int_Tables_number   1
_chemical_formula_structural   Li5V7O12
_chemical_formula_sum   'Li5 V7 O12'
_cell_volume   227.12555433
_cell_formula_units_Z   1
loop_
 _symmetry_equiv_pos_site_id
 _symmetry_equiv_pos_as_xyz
  1  'x, y, z'
loop_
 _atom_site_type_symbol
 _atom_site_label
 _atom_site_symmetry_multiplicity
 _atom_site_fract_x
 _atom_site_fract_y
 _atom_site_fract_z
 _atom_site_occupancy
  Li  Li0  1  0.16145900  0.83116700  0.00345200  1
  Li  Li1  1  0.66928600  0.83295500  0.49497800  1
  Li  Li2  1  0.08210700  0.16464600  0.25061300  1
  Li  Li3  1  0.32715500  0.16458100  0.49388300  1
  Li  Li4  1  0.84002300  0.16207000  0.00811000  1
  V  V0  1  0.49333300  0.48872300  0.00008700  1
  V  V1  1  0.23625100  0.47343500  0.74982600  1
  V  V2  1  0.99598200  0.48962800  0.49937800  1
  V  V3  1  0.57468600  0.14798000  0.75021800  1
  V  V4  1  0.41899900  0.83955500  0.24991300  1
  V  V5  1  0.91337400  0.82830600  0.74988400  1
  V  V6  1  0.75023800  0.50049000  0.25027200  1
  O  O0  1  0.03776000  0.80953700  0.36991600  1
  O  O1  1  0.27777800  0.79661400  0.62578800  1
  O  O2  1  0.14532500  0.51700700  0.12863000  1
  O  O3  1  0.77188600  0.81035600  0.12941200  1
  O  O4  1  0.51740200  0.79543000  0.87450100  1
  O  O5  1  0.37228700  0.51773700  0.37157300  1
  O  O6  1  0.61920500  0.48679900  0.62648100  1
  O  O7  1  0.47300400  0.18284700  0.12907300  1
  O  O8  1  0.86755500  0.48666700  0.87381100  1
  O  O9  1  0.19896900  0.16356300  0.87857800  1
  O  O10  1  0.70916100  0.18182600  0.37074100  1
  O  O11  1  0.96441300  0.16380800  0.62079100  1
loop_
_geom_bond_atom_site_label_1
_geom_bond_atom_site_label_2
_geom_bond_distance
_geom_bond_site_symmetry_2
Li0 O4 2.101532 1_554
Li0 O2 2.106167 1_555
Li0 O3 2.106818 1_455
Li0 O9 2.133628 1_564
Li0 O8 2.191767 1_454
Li0 O7 2.219322 1_565
Li1 O5 2.097748 1_555
Li1 O0 2.107902 1_655
Li1 O1 2.107926 1_555
Li1 O11 2.140463 1_565
Li1 O10 2.195451 1_565
Li1 O6 2.208126 1_555
Li2 O10 2.092599 1_455
Li2 O7 2.099432 1_555
Li2 O2 2.148831 1_555
Li2 O5 2.149907 1_555
Li2 O0 2.183066 1_545
Li2 O3 2.195127 1_445
Li3 O11 2.039441 1_455
Li3 O10 2.070360 1_555
Li3 O6 2.160610 1_555
Li3 O0 2.171500 1_545
Li3 O5 2.191000 1_555
Li3 O1 2.305418 1_545
Li4 O9 2.034425 1_654
Li4 O7 2.079081 1_555
Li4 O3 2.132478 1_545
Li4 O2 2.182079 1_655
Li4 O8 2.184086 1_554
Li4 O4 2.325539 1_544
O0 V4 2.030602 1_555
O0 V6 2.039521 1_455
O0 V2 2.101754 1_455
O1 V2 2.066886 1_455
O1 V1 2.080529 1_555
O1 V5 2.106453 1_455
O1 V3 2.180534 1_565
O2 V4 2.048425 1_555
O2 V0 2.049904 1_555
O2 V6 2.120892 1_455
O3 V4 2.037644 1_555
O3 V6 2.047180 1_555
O3 V0 2.108823 1_555
O4 V0 2.059337 1_556
O4 V1 2.084541 1_555
O4 V5 2.105961 1_555
O4 V3 2.175445 1_565
O5 V2 2.046952 1_455
O5 V4 2.048733 1_555
O5 V6 2.118598 1_555
O6 V1 2.082688 1_555
O6 V2 2.093759 1_555
O6 V3 2.139032 1_555
O6 V5 2.146179 1_555
O7 V6 2.044547 1_555
O7 V0 2.087041 1_555
O7 V4 2.120770 1_545
O8 V1 2.081289 1_655
O8 V0 2.089768 1_556
O8 V3 2.138397 1_555
O8 V5 2.149623 1_555
O9 V1 2.064840 1_555
O9 V0 2.099471 1_556
O9 V3 2.133978 1_555
O9 V5 2.148388 1_445
O10 V6 2.039397 1_555
O10 V2 2.094664 1_555
O10 V4 2.123640 1_545
O11 V1 2.068091 1_655
O11 V2 2.096492 1_555
O11 V3 2.131501 1_555
O11 V5 2.145641 1_545
