# generated using pymatgen
data_Sr3WO6
_symmetry_space_group_name_H-M   'P 1'
_cell_length_a   6.85610124
_cell_length_b   6.85610123
_cell_length_c   6.85610165
_cell_angle_alpha   91.68986954
_cell_angle_beta   91.68986945
_cell_angle_gamma   91.68986661
_symmetry_Int_Tables_number   1
_chemical_formula_structural   Sr3WO6
_chemical_formula_sum   'Sr6 W2 O12'
_cell_volume   321.84982021
_cell_formula_units_Z   2
loop_
 _symmetry_equiv_pos_site_id
 _symmetry_equiv_pos_as_xyz
  1  'x, y, z'
loop_
 _atom_site_type_symbol
 _atom_site_label
 _atom_site_symmetry_multiplicity
 _atom_site_fract_x
 _atom_site_fract_y
 _atom_site_fract_z
 _atom_site_occupancy
  Sr  Sr0  1  0.06436365  0.25328997  0.56276720  1
  Sr  Sr1  1  0.43723280  0.93563635  0.74671003  1
  Sr  Sr2  1  0.74671003  0.43723280  0.93563635  1
  Sr  Sr3  1  0.25328997  0.56276720  0.06436365  1
  Sr  Sr4  1  0.56276720  0.06436365  0.25328997  1
  Sr  Sr5  1  0.93563635  0.74671003  0.43723280  1
  W  W0  1  0.50000000  0.50000000  0.50000000  1
  W  W1  1  0.00000000  -0.00000000  -0.00000000  1
  O  O0  1  0.06749353  0.26948601  0.94179174  1
  O  O1  1  0.05820826  0.93250647  0.73051399  1
  O  O2  1  0.45338210  0.57291868  0.76982107  1
  O  O3  1  0.73051399  0.05820826  0.93250647  1
  O  O4  1  0.23017893  0.54661790  0.42708132  1
  O  O5  1  0.42708132  0.23017893  0.54661790  1
  O  O6  1  0.57291868  0.76982107  0.45338210  1
  O  O7  1  0.76982107  0.45338210  0.57291868  1
  O  O8  1  0.26948601  0.94179174  0.06749353  1
  O  O9  1  0.54661790  0.42708132  0.23017893  1
  O  O10  1  0.94179174  0.06749353  0.26948601  1
  O  O11  1  0.93250647  0.73051399  0.05820826  1
loop_
_geom_bond_atom_site_label_1
_geom_bond_atom_site_label_2
_geom_bond_distance
_geom_bond_site_symmetry_2
O0 W1 1.947065 1_556
O0 Sr3 2.461340 1_556
O0 Sr2 2.511590 1_455
O0 Sr0 2.597157 1_555
O1 W1 1.947065 1_566
O1 Sr5 2.461340 1_455
O1 Sr0 2.511590 1_565
O1 Sr1 2.597157 1_555
O2 W0 1.940116 1_555
O2 Sr3 2.476066 1_556
O2 Sr2 2.498034 1_555
O2 Sr1 2.502025 1_555
O3 W1 1.947065 1_656
O3 Sr1 2.461340 1_545
O3 Sr4 2.511590 1_556
O3 Sr2 2.597157 1_555
O4 W0 1.940116 1_555
O4 Sr5 2.476066 1_455
O4 Sr0 2.498034 1_555
O4 Sr3 2.502025 1_555
O5 W0 1.940116 1_555
O5 Sr1 2.476066 1_545
O5 Sr4 2.498034 1_555
O5 Sr0 2.502025 1_555
O6 W0 1.940116 1_555
O6 Sr4 2.476066 1_565
O6 Sr1 2.498034 1_555
O6 Sr5 2.502025 1_555
O7 W0 1.940116 1_555
O7 Sr0 2.476066 1_655
O7 Sr5 2.498034 1_555
O7 Sr2 2.502025 1_555
O8 W1 1.947065 1_565
O8 Sr4 2.461340 1_565
O8 Sr1 2.511590 1_554
O8 Sr3 2.597157 1_555
O9 W0 1.940116 1_555
O9 Sr2 2.476066 1_554
O9 Sr3 2.498034 1_555
O9 Sr4 2.502025 1_555
O10 W1 1.947065 1_655
O10 Sr0 2.461340 1_655
O10 Sr5 2.511590 1_545
O10 Sr4 2.597157 1_555
O11 W1 1.947065 1_665
O11 Sr2 2.461340 1_554
O11 Sr3 2.511590 1_655
O11 Sr5 2.597157 1_555
