# generated using pymatgen
data_BaSO3
_symmetry_space_group_name_H-M   'P 1'
_cell_length_a   5.57264300
_cell_length_b   4.71665800
_cell_length_c   6.79782843
_cell_angle_alpha   73.21345750
_cell_angle_beta   90.00000000
_cell_angle_gamma   90.00000000
_symmetry_Int_Tables_number   1
_chemical_formula_structural   BaSO3
_chemical_formula_sum   'Ba2 S2 O6'
_cell_volume   171.06198078
_cell_formula_units_Z   2
loop_
 _symmetry_equiv_pos_site_id
 _symmetry_equiv_pos_as_xyz
  1  'x, y, z'
loop_
 _atom_site_type_symbol
 _atom_site_label
 _atom_site_symmetry_multiplicity
 _atom_site_fract_x
 _atom_site_fract_y
 _atom_site_fract_z
 _atom_site_occupancy
  Ba  Ba0  1  0.25000000  0.65537800  0.72606900  1
  Ba  Ba1  1  0.75000000  0.34462200  0.27393100  1
  S  S0  1  0.25000000  0.92650300  0.17620000  1
  S  S1  1  0.75000000  0.07349700  0.82380000  1
  O  O0  1  0.75000000  0.73130100  0.87085400  1
  O  O1  1  0.46928200  0.82320100  0.31888300  1
  O  O2  1  0.03071800  0.82320100  0.31888300  1
  O  O3  1  0.96928200  0.17679900  0.68111700  1
  O  O4  1  0.53071800  0.17679900  0.68111700  1
  O  O5  1  0.25000000  0.26869900  0.12914600  1
loop_
_geom_bond_atom_site_label_1
_geom_bond_atom_site_label_2
_geom_bond_distance
_geom_bond_site_symmetry_2
Ba0 O5 2.819161 1_556
Ba0 O3 2.834491 1_455
Ba0 O4 2.834491 1_555
Ba0 O3 2.855683 1_465
Ba0 O4 2.855683 1_565
Ba0 O2 2.918211 1_555
Ba0 O1 2.918211 1_555
Ba0 O0 3.010665 1_555
Ba0 O0 3.010665 1_455
Ba1 O0 2.819161 1_554
Ba1 O2 2.834491 1_655
Ba1 O1 2.834491 1_555
Ba1 O1 2.855683 1_545
Ba1 O2 2.855683 1_645
Ba1 O4 2.918211 1_555
Ba1 O3 2.918211 1_555
Ba1 O5 3.010665 1_555
Ba1 O5 3.010665 1_655
O0 S1 1.552152 1_565
O1 S0 1.548689 1_555
O2 S0 1.548689 1_555
O3 S1 1.548689 1_555
O4 S1 1.548689 1_555
O5 S0 1.552152 1_545
