# generated using pymatgen
data_Li3Cu(NiO3)2
_symmetry_space_group_name_H-M   'P 1'
_cell_length_a   6.36560357
_cell_length_b   6.36560357
_cell_length_c   5.87514440
_cell_angle_alpha   75.88651548
_cell_angle_beta   75.88651548
_cell_angle_gamma   26.67243492
_symmetry_Int_Tables_number   1
_chemical_formula_structural   Li3Cu(NiO3)2
_chemical_formula_sum   'Li3 Cu1 Ni2 O6'
_cell_volume   103.45530068
_cell_formula_units_Z   1
loop_
 _symmetry_equiv_pos_site_id
 _symmetry_equiv_pos_as_xyz
  1  'x, y, z'
loop_
 _atom_site_type_symbol
 _atom_site_label
 _atom_site_symmetry_multiplicity
 _atom_site_fract_x
 _atom_site_fract_y
 _atom_site_fract_z
 _atom_site_occupancy
  Li  Li0  1  0.50000000  0.50000000  0.50000000  1
  Li  Li1  1  0.16838700  0.16838700  0.16407600  1
  Li  Li2  1  0.83161300  0.83161300  0.83592400  1
  Cu  Cu0  1  0.50000000  0.50000000  0.00000000  1
  Ni  Ni0  1  0.16807700  0.16807700  0.66813300  1
  Ni  Ni1  1  0.83192300  0.83192300  0.33186700  1
  O  O0  1  0.66247100  0.66247100  0.90455300  1
  O  O1  1  0.32480100  0.32480100  0.57651000  1
  O  O2  1  0.33752900  0.33752900  0.09544700  1
  O  O3  1  0.98924000  0.98924000  0.24360700  1
  O  O4  1  0.01076000  0.01076000  0.75639300  1
  O  O5  1  0.67519900  0.67519900  0.42349000  1
loop_
_geom_bond_atom_site_label_1
_geom_bond_atom_site_label_2
_geom_bond_distance
_geom_bond_site_symmetry_2
Li0 O5 2.103210 1_555
Li0 O1 2.103210 1_555
Li0 O3 2.131536 1_545
Li0 O3 2.131536 1_455
Li0 O4 2.131536 1_565
Li0 O4 2.131536 1_655
Li1 O2 2.032110 1_555
Li1 O0 2.131234 1_544
Li1 O0 2.131234 1_454
Li1 O5 2.133170 1_545
Li1 O5 2.133170 1_455
Li1 O3 2.150276 1_445
Li2 O0 2.032110 1_555
Li2 O2 2.131234 1_566
Li2 O2 2.131234 1_656
Li2 O1 2.133170 1_565
Li2 O1 2.133170 1_655
Li2 O4 2.150276 1_665
Cu0 O2 1.949265 1_555
Cu0 O0 1.949265 1_554
Cu0 O3 2.031385 1_545
Cu0 O4 2.031385 1_564
Cu0 O4 2.031385 1_654
Cu0 O3 2.031385 1_455
Ni0 O1 1.880240 1_555
Ni0 O4 1.886880 1_555
Ni0 O0 2.010415 1_455
Ni0 O0 2.010415 1_545
Ni0 O5 2.041093 1_545
Ni0 O5 2.041093 1_455
Ni1 O5 1.880240 1_555
Ni1 O3 1.886880 1_555
Ni1 O2 2.010415 1_565
Ni1 O2 2.010415 1_655
Ni1 O1 2.041093 1_655
Ni1 O1 2.041093 1_565
