# generated using pymatgen
data_Li8Mn7Fe(BO3)8
_symmetry_space_group_name_H-M   'P 1'
_cell_length_a   5.18579500
_cell_length_b   6.04356604
_cell_length_c   17.87925060
_cell_angle_alpha   84.17320764
_cell_angle_beta   82.84853979
_cell_angle_gamma   66.84564382
_symmetry_Int_Tables_number   1
_chemical_formula_structural   Li8Mn7Fe(BO3)8
_chemical_formula_sum   'Li8 Mn7 Fe1 B8 O24'
_cell_volume   510.35395897
_cell_formula_units_Z   1
loop_
 _symmetry_equiv_pos_site_id
 _symmetry_equiv_pos_as_xyz
  1  'x, y, z'
loop_
 _atom_site_type_symbol
 _atom_site_label
 _atom_site_symmetry_multiplicity
 _atom_site_fract_x
 _atom_site_fract_y
 _atom_site_fract_z
 _atom_site_occupancy
  Li  Li0  1  0.75206800  0.16922300  0.15781100  1
  Li  Li1  1  0.74785100  0.07898000  0.59197500  1
  Li  Li2  1  0.24788700  0.32919500  0.34108200  1
  Li  Li3  1  0.25212100  0.42089400  0.90818400  1
  Li  Li4  1  0.74720800  0.57944500  0.09201500  1
  Li  Li5  1  0.75211400  0.67102100  0.65803300  1
  Li  Li6  1  0.25237500  0.92111800  0.40787200  1
  Li  Li7  1  0.24754000  0.82876500  0.84233800  1
  Mn  Mn0  1  0.28669700  0.17193000  0.06371600  1
  Mn  Mn1  1  0.21338800  0.07854100  0.68658600  1
  Mn  Mn2  1  0.71354000  0.32798600  0.43680100  1
  Mn  Mn3  1  0.78661100  0.42141200  0.81344200  1
  Mn  Mn4  1  0.28658100  0.67150700  0.56337300  1
  Mn  Mn5  1  0.78895400  0.91949800  0.31264000  1
  Mn  Mn6  1  0.71286100  0.82870800  0.93669500  1
  Fe  Fe0  1  0.22204400  0.57497900  0.18649500  1
  B  B0  1  0.27087000  0.03120300  0.23175200  1
  B  B1  1  0.22888700  0.21931400  0.51799500  1
  B  B2  1  0.72743100  0.47033000  0.26781300  1
  B  B3  1  0.22833200  0.71894800  0.01933900  1
  B  B4  1  0.77101700  0.28098900  0.98195900  1
  B  B5  1  0.27100300  0.53089300  0.73191200  1
  B  B6  1  0.77106200  0.78084800  0.48178500  1
  B  B7  1  0.72889300  0.96915400  0.76809000  1
  O  O0  1  0.11694400  0.09909200  0.57513000  1
  O  O1  1  0.38197100  0.15256000  0.17473000  1
  O  O2  1  0.64160900  0.00673200  0.69626400  1
  O  O3  1  0.14168700  0.25708200  0.44610200  1
  O  O4  1  0.85836800  0.24408200  0.05379700  1
  O  O5  1  0.94145800  0.04306300  0.78318800  1
  O  O6  1  0.44133000  0.29322300  0.53317000  1
  O  O7  1  0.61826100  0.35044600  0.32543900  1
  O  O8  1  0.11695200  0.60027100  0.07741400  1
  O  O9  1  0.55861000  0.20676900  0.96695800  1
  O  O10  1  0.05866700  0.45667900  0.71684300  1
  O  O11  1  0.63125500  0.50982500  0.19666800  1
  O  O12  1  0.35821600  0.49345100  0.80378900  1
  O  O13  1  0.94299300  0.54315900  0.28012400  1
  O  O14  1  0.44185600  0.79313800  0.03322800  1
  O  O15  1  0.88311800  0.40077100  0.92477100  1
  O  O16  1  0.38287500  0.65112400  0.67479500  1
  O  O17  1  0.55861700  0.70665600  0.46681600  1
  O  O18  1  0.06001000  0.95561500  0.21663800  1
  O  O19  1  0.14048000  0.75459800  0.94749800  1
  O  O20  1  0.85834500  0.74353200  0.55364000  1
  O  O21  1  0.35927800  0.99348600  0.30354500  1
  O  O22  1  0.61684400  0.84904100  0.82526000  1
  O  O23  1  0.88292100  0.90072500  0.42448800  1
loop_
_geom_bond_atom_site_label_1
_geom_bond_atom_site_label_2
_geom_bond_distance
_geom_bond_site_symmetry_2
Li0 O4 1.933148 1_555
Li0 O1 1.945871 1_555
Li0 O18 1.960672 1_645
Li0 O11 2.068861 1_555
Li1 O2 1.933664 1_555
Li1 O0 1.949622 1_655
Li1 O6 1.956971 1_555
Li1 O20 2.044227 1_545
Li2 O3 1.945263 1_555
Li2 O7 1.958747 1_555
Li2 O13 1.973558 1_455
Li2 O21 2.039296 1_545
Li3 O12 1.935636 1_555
Li3 O15 1.949076 1_455
Li3 O9 1.956346 1_555
Li3 O19 2.040802 1_555
Li4 O11 1.949015 1_555
Li4 O14 1.952080 1_555
Li4 O8 1.954217 1_655
Li4 O4 2.042399 1_555
Li5 O20 1.935715 1_555
Li5 O16 1.949770 1_555
Li5 O10 1.957296 1_655
Li5 O2 2.044929 1_565
Li6 O21 1.935326 1_555
Li6 O23 1.952105 1_455
Li6 O17 1.957878 1_555
Li6 O3 2.046179 1_565
Li7 O22 1.951243 1_555
Li7 O19 1.951645 1_555
Li7 O5 1.959189 1_465
Li7 O12 2.044881 1_555
Mn0 O1 2.085410 1_555
Mn0 O4 2.115683 1_455
Mn0 O9 2.139530 1_554
Mn0 O14 2.209261 1_545
Mn0 O8 2.412313 1_555
Mn1 O0 2.094198 1_555
Mn1 O2 2.114751 1_555
Mn1 O5 2.138654 1_455
Mn1 O10 2.204536 1_555
Mn1 O16 2.401759 1_545
Mn2 O7 2.089077 1_555
Mn2 O3 2.114280 1_655
Mn2 O6 2.135348 1_555
Mn2 O17 2.206096 1_555
Mn2 O23 2.402341 1_545
Mn3 O15 2.092021 1_555
Mn3 O12 2.115249 1_555
Mn3 O10 2.138653 1_655
Mn3 O5 2.205643 1_555
Mn3 O22 2.402939 1_555
Mn4 O16 2.093478 1_555
Mn4 O20 2.114734 1_455
Mn4 O17 2.137856 1_555
Mn4 O6 2.205042 1_555
Mn4 O0 2.402569 1_565
Mn5 O23 2.098200 1_555
Mn5 O21 2.117361 1_555
Mn5 O18 2.129351 1_655
Mn5 O13 2.207524 1_555
Mn5 O7 2.424188 1_565
Mn6 O22 2.093266 1_555
Mn6 O19 2.112679 1_655
Mn6 O14 2.135058 1_556
Mn6 O9 2.204324 1_565
Mn6 O15 2.404806 1_555
Fe0 O11 2.028745 1_555
Fe0 O8 2.064605 1_555
Fe0 O13 2.117484 1_455
Fe0 O18 2.215219 1_555
Fe0 O1 2.376972 1_555
B0 O21 1.383735 1_545
B0 O1 1.394096 1_555
B0 O18 1.403165 1_545
B1 O3 1.383041 1_555
B1 O0 1.393474 1_555
B1 O6 1.404587 1_555
B2 O11 1.387966 1_555
B2 O7 1.390236 1_555
B2 O13 1.399879 1_555
B3 O19 1.384247 1_554
B3 O8 1.396937 1_555
B3 O14 1.403677 1_555
B4 O4 1.382711 1_556
B4 O15 1.392882 1_555
B4 O9 1.404626 1_555
B5 O12 1.382909 1_555
B5 O16 1.393110 1_555
B5 O10 1.404650 1_555
B6 O20 1.382717 1_555
B6 O23 1.393795 1_555
B6 O17 1.404517 1_555
B7 O2 1.382131 1_565
B7 O22 1.393757 1_555
B7 O5 1.404734 1_565
