# generated using pymatgen
data_Li2CoPO4F
_symmetry_space_group_name_H-M   'P 1'
_cell_length_a   6.42273800
_cell_length_b   10.58536800
_cell_length_c   10.96840100
_cell_angle_alpha   90.00000000
_cell_angle_beta   90.00000000
_cell_angle_gamma   90.00000000
_symmetry_Int_Tables_number   1
_chemical_formula_structural   Li2CoPO4F
_chemical_formula_sum   'Li16 Co8 P8 O32 F8'
_cell_volume   745.70917563
_cell_formula_units_Z   8
loop_
 _symmetry_equiv_pos_site_id
 _symmetry_equiv_pos_as_xyz
  1  'x, y, z'
loop_
 _atom_site_type_symbol
 _atom_site_label
 _atom_site_symmetry_multiplicity
 _atom_site_fract_x
 _atom_site_fract_y
 _atom_site_fract_z
 _atom_site_occupancy
  Li  Li0  1  0.75000000  0.02655600  0.27376600  1
  Li  Li1  1  0.25000000  0.22895700  0.08227100  1
  Li  Li2  1  0.51037400  0.24015900  0.33473000  1
  Li  Li3  1  0.98962600  0.24015900  0.33473000  1
  Li  Li4  1  0.01037400  0.25984100  0.83473000  1
  Li  Li5  1  0.48962600  0.25984100  0.83473000  1
  Li  Li6  1  0.75000000  0.27104300  0.58227100  1
  Li  Li7  1  0.25000000  0.47344400  0.77376600  1
  Li  Li8  1  0.75000000  0.52655600  0.22623400  1
  Li  Li9  1  0.25000000  0.72895700  0.41772900  1
  Li  Li10  1  0.51037400  0.74015900  0.16527000  1
  Li  Li11  1  0.98962600  0.74015900  0.16527000  1
  Li  Li12  1  0.01037400  0.75984100  0.66527000  1
  Li  Li13  1  0.48962600  0.75984100  0.66527000  1
  Li  Li14  1  0.75000000  0.77104300  0.91772900  1
  Li  Li15  1  0.25000000  0.97344400  0.72623400  1
  Co  Co0  1  0.00000000  0.00000000  0.00000000  1
  Co  Co1  1  0.50000000  0.00000000  0.00000000  1
  Co  Co2  1  0.00000000  0.00000000  0.50000000  1
  Co  Co3  1  0.50000000  0.00000000  0.50000000  1
  Co  Co4  1  0.00000000  0.50000000  0.50000000  1
  Co  Co5  1  0.50000000  0.50000000  0.50000000  1
  Co  Co6  1  0.00000000  0.50000000  0.00000000  1
  Co  Co7  1  0.50000000  0.50000000  0.00000000  1
  P  P0  1  0.75000000  0.02342000  0.74419100  1
  P  P1  1  0.75000000  0.24364700  0.07814800  1
  P  P2  1  0.25000000  0.25635300  0.57814800  1
  P  P3  1  0.25000000  0.47658000  0.24419100  1
  P  P4  1  0.75000000  0.52342000  0.75580900  1
  P  P5  1  0.75000000  0.74364700  0.42185200  1
  P  P6  1  0.25000000  0.75635300  0.92185200  1
  P  P7  1  0.25000000  0.97658000  0.25580900  1
  O  O0  1  0.25000000  0.02731600  0.12147100  1
  O  O1  1  0.05412500  0.03304500  0.31948700  1
  O  O2  1  0.44587500  0.03304500  0.31948700  1
  O  O3  1  0.25000000  0.11072500  0.55395500  1
  O  O4  1  0.75000000  0.16969500  0.74422100  1
  O  O5  1  0.55123700  0.18997100  0.01531300  1
  O  O6  1  0.94876300  0.18997100  0.01531300  1
  O  O7  1  0.75000000  0.21767900  0.21655900  1
  O  O8  1  0.25000000  0.28232100  0.71655900  1
  O  O9  1  0.05123700  0.31002900  0.51531300  1
  O  O10  1  0.44876300  0.31002900  0.51531300  1
  O  O11  1  0.25000000  0.33030500  0.24422100  1
  O  O12  1  0.75000000  0.38927500  0.05395500  1
  O  O13  1  0.55412500  0.46695500  0.81948700  1
  O  O14  1  0.94587500  0.46695500  0.81948700  1
  O  O15  1  0.75000000  0.47268400  0.62147100  1
  O  O16  1  0.25000000  0.52731600  0.37852900  1
  O  O17  1  0.05412500  0.53304500  0.18051300  1
  O  O18  1  0.44587500  0.53304500  0.18051300  1
  O  O19  1  0.25000000  0.61072500  0.94604500  1
  O  O20  1  0.75000000  0.66969500  0.75577900  1
  O  O21  1  0.55123700  0.68997100  0.48468700  1
  O  O22  1  0.94876300  0.68997100  0.48468700  1
  O  O23  1  0.75000000  0.71767900  0.28344100  1
  O  O24  1  0.25000000  0.78232100  0.78344100  1
  O  O25  1  0.05123700  0.81002900  0.98468700  1
  O  O26  1  0.44876300  0.81002900  0.98468700  1
  O  O27  1  0.25000000  0.83030500  0.25577900  1
  O  O28  1  0.75000000  0.88927500  0.44604500  1
  O  O29  1  0.55412500  0.96695500  0.68051300  1
  O  O30  1  0.94587500  0.96695500  0.68051300  1
  O  O31  1  0.75000000  0.97268400  0.87852900  1
  F  F0  1  0.25000000  0.05210200  0.88034900  1
  F  F1  1  0.75000000  0.13271700  0.46860200  1
  F  F2  1  0.25000000  0.36728300  0.96860200  1
  F  F3  1  0.75000000  0.44789800  0.38034900  1
  F  F4  1  0.25000000  0.55210200  0.61965100  1
  F  F5  1  0.75000000  0.63271700  0.03139800  1
  F  F6  1  0.25000000  0.86728300  0.53139800  1
  F  F7  1  0.75000000  0.94789800  0.11965100  1
loop_
_geom_bond_atom_site_label_1
_geom_bond_atom_site_label_2
_geom_bond_distance
_geom_bond_site_symmetry_2
Li0 O2 2.017832 1_555
Li0 O1 2.017832 1_655
Li0 O7 2.118179 1_555
Li0 O28 2.383776 1_545
Li1 O11 2.075155 1_555
Li1 O5 2.110214 1_555
Li1 O6 2.110214 1_455
Li1 O0 2.177319 1_555
Li2 O7 2.026157 1_555
Li2 O10 2.150998 1_555
Li2 O11 2.166268 1_555
Li2 O2 2.237428 1_555
Li3 O7 2.026157 1_555
Li3 O9 2.150998 1_655
Li3 O11 2.166268 1_655
Li3 O1 2.237428 1_655
Li4 O8 2.026157 1_555
Li4 O6 2.150998 1_456
Li4 O4 2.166268 1_455
Li4 O14 2.237428 1_455
Li5 O8 2.026157 1_555
Li5 O5 2.150998 1_556
Li5 O4 2.166268 1_555
Li5 O13 2.237428 1_555
Li6 O4 2.075155 1_555
Li6 O10 2.110214 1_555
Li6 O9 2.110214 1_655
Li6 O15 2.177319 1_555
Li7 O13 2.017832 1_555
Li7 O14 2.017832 1_455
Li7 O8 2.118179 1_555
Li7 O19 2.383776 1_555
Li8 O17 2.017832 1_655
Li8 O18 2.017832 1_555
Li8 O23 2.118179 1_555
Li8 O12 2.383776 1_555
Li9 O27 2.075155 1_555
Li9 O21 2.110214 1_555
Li9 O22 2.110214 1_455
Li9 O16 2.177319 1_555
Li10 O23 2.026157 1_555
Li10 O26 2.150998 1_554
Li10 O27 2.166268 1_555
Li10 O18 2.237428 1_555
Li11 O23 2.026157 1_555
Li11 O25 2.150998 1_654
Li11 O27 2.166268 1_655
Li11 O17 2.237428 1_655
Li12 O24 2.026157 1_555
Li12 O22 2.150998 1_455
Li12 O20 2.166268 1_455
Li12 O30 2.237428 1_455
Li13 O24 2.026157 1_555
Li13 O21 2.150998 1_555
Li13 O20 2.166268 1_555
Li13 O29 2.237428 1_555
Li14 O20 2.075155 1_555
Li14 O25 2.110214 1_655
Li14 O26 2.110214 1_555
Li14 O31 2.177319 1_555
Li15 O30 2.017832 1_455
Li15 O29 2.017832 1_555
Li15 O24 2.118179 1_555
Li15 O3 2.383776 1_565
Co0 O6 2.044572 1_455
Co0 O25 2.044572 1_544
Co0 O31 2.106411 1_444
Co0 O0 2.106411 1_555
Co0 F7 2.145865 1_445
Co0 F0 2.145865 1_554
Co1 O26 2.044572 1_544
Co1 O5 2.044572 1_555
Co1 O0 2.106411 1_555
Co1 O31 2.106411 1_544
Co1 F7 2.145865 1_545
Co1 F0 2.145865 1_554
Co2 O30 2.040432 1_445
Co2 O1 2.040432 1_555
Co2 O28 2.074171 1_445
Co2 O3 2.074171 1_555
Co2 F6 2.161123 1_545
Co2 F1 2.161123 1_455
Co3 O2 2.040432 1_555
Co3 O29 2.040432 1_545
Co3 O28 2.074171 1_545
Co3 O3 2.074171 1_555
Co3 F6 2.161123 1_545
Co3 F1 2.161123 1_555
Co4 O22 2.044572 1_455
Co4 O9 2.044572 1_555
Co4 O15 2.106411 1_455
Co4 O16 2.106411 1_555
Co4 F3 2.145865 1_455
Co4 F4 2.145865 1_555
Co5 O10 2.044572 1_555
Co5 O21 2.044572 1_555
Co5 O15 2.106411 1_555
Co5 O16 2.106411 1_555
Co5 F3 2.145865 1_555
Co5 F4 2.145865 1_555
Co6 O14 2.040432 1_454
Co6 O17 2.040432 1_555
Co6 O19 2.074171 1_554
Co6 O12 2.074171 1_455
Co6 F2 2.161123 1_554
Co6 F5 2.161123 1_455
Co7 O18 2.040432 1_555
Co7 O13 2.040432 1_554
Co7 O19 2.074171 1_554
Co7 O12 2.074171 1_555
Co7 F5 2.161123 1_555
Co7 F2 2.161123 1_554
O0 P7 1.568297 1_545
O1 P7 1.558132 1_545
O2 P7 1.558132 1_545
O3 P2 1.564199 1_555
O4 P0 1.548375 1_555
O5 P1 1.558056 1_555
O6 P1 1.558056 1_555
O7 P1 1.542832 1_555
O8 P2 1.542832 1_555
O9 P2 1.558056 1_555
O10 P2 1.558056 1_555
O11 P3 1.548375 1_555
O12 P1 1.564199 1_555
O13 P4 1.558132 1_555
O14 P4 1.558132 1_555
O15 P4 1.568297 1_555
O16 P3 1.568297 1_555
O17 P3 1.558132 1_555
O18 P3 1.558132 1_555
O19 P6 1.564199 1_555
O20 P4 1.548375 1_555
O21 P5 1.558056 1_555
O22 P5 1.558056 1_555
O23 P5 1.542832 1_555
O24 P6 1.542832 1_555
O25 P6 1.558056 1_555
O26 P6 1.558056 1_555
O27 P7 1.548375 1_555
O28 P5 1.564199 1_555
O29 P0 1.558132 1_565
O30 P0 1.558132 1_565
O31 P0 1.568297 1_565
F0 Li15 1.884330 1_545
F1 Li6 1.923123 1_555
F1 Li2 2.412106 1_555
F1 Li3 2.412106 1_555
F1 Li0 2.414489 1_555
F2 Li1 1.923123 1_556
F2 Li4 2.412106 1_555
F2 Li5 2.412106 1_555
F2 Li7 2.414489 1_555
F3 Li8 1.884330 1_555
F4 Li7 1.884330 1_555
F5 Li14 1.923123 1_554
F5 Li10 2.412106 1_555
F5 Li11 2.412106 1_555
F5 Li8 2.414489 1_555
F6 Li9 1.923123 1_555
F6 Li13 2.412106 1_555
F6 Li12 2.412106 1_555
F6 Li15 2.414489 1_555
F7 Li0 1.884330 1_565
