# generated using pymatgen
data_VNi3Sn2(PO4)6
_symmetry_space_group_name_H-M   'P 1'
_cell_length_a   8.47112535
_cell_length_b   8.47112535
_cell_length_c   8.47112621
_cell_angle_alpha   61.60271836
_cell_angle_beta   61.60271836
_cell_angle_gamma   61.60271990
_symmetry_Int_Tables_number   1
_chemical_formula_structural   VNi3Sn2(PO4)6
_chemical_formula_sum   'V1 Ni3 Sn2 P6 O24'
_cell_volume   445.29473839
_cell_formula_units_Z   1
loop_
 _symmetry_equiv_pos_site_id
 _symmetry_equiv_pos_as_xyz
  1  'x, y, z'
loop_
 _atom_site_type_symbol
 _atom_site_label
 _atom_site_symmetry_multiplicity
 _atom_site_fract_x
 _atom_site_fract_y
 _atom_site_fract_z
 _atom_site_occupancy
  V  V0  1  0.14743800  0.14743800  0.14743800  1
  Ni  Ni0  1  0.64781000  0.64781000  0.64781000  1
  Ni  Ni1  1  0.85151000  0.85151000  0.85151000  1
  Ni  Ni2  1  0.35394800  0.35394800  0.35394800  1
  Sn  Sn0  1  0.99775700  0.99775700  0.99775700  1
  Sn  Sn1  1  0.49852600  0.49852600  0.49852600  1
  P  P0  1  0.95597300  0.25189100  0.54524400  1
  P  P1  1  0.54524400  0.95597300  0.25189100  1
  P  P2  1  0.25189100  0.54524400  0.95597300  1
  P  P3  1  0.74993300  0.45704300  0.04515500  1
  P  P4  1  0.45704300  0.04515500  0.74993300  1
  P  P5  1  0.04515500  0.74993300  0.45704300  1
  O  O0  1  0.50859200  0.10376400  0.32327600  1
  O  O1  1  0.32327700  0.50859200  0.10376400  1
  O  O2  1  0.10376400  0.32327700  0.50859200  1
  O  O3  1  0.93335800  0.09511000  0.74739400  1
  O  O4  1  0.00263500  0.17531300  0.38748500  1
  O  O5  1  0.75319600  0.40331200  0.55375700  1
  O  O6  1  0.74739400  0.93335800  0.09511000  1
  O  O7  1  0.55375700  0.75319600  0.40331200  1
  O  O8  1  0.82416500  0.60185900  0.01359800  1
  O  O9  1  0.40331200  0.55375700  0.75319600  1
  O  O10  1  0.91285900  0.24846300  0.06798500  1
  O  O11  1  0.60185900  0.01359800  0.82416500  1
  O  O12  1  0.38748500  0.00263500  0.17531300  1
  O  O13  1  0.09511000  0.74739400  0.93335800  1
  O  O14  1  0.59783400  0.43025100  0.25117300  1
  O  O15  1  0.17531300  0.38748500  0.00263500  1
  O  O16  1  0.43025100  0.25117300  0.59783400  1
  O  O17  1  0.24846300  0.06798500  0.91285900  1
  O  O18  1  0.25117300  0.59783400  0.43025100  1
  O  O19  1  0.01359800  0.82416500  0.60185900  1
  O  O20  1  0.06798500  0.91285900  0.24846300  1
  O  O21  1  0.89596900  0.68579800  0.48061500  1
  O  O22  1  0.68579800  0.48061500  0.89596900  1
  O  O23  1  0.48061500  0.89596900  0.68579800  1
loop_
_geom_bond_atom_site_label_1
_geom_bond_atom_site_label_2
_geom_bond_distance
_geom_bond_site_symmetry_2
Ni0 O21 1.976531 1_555
Ni0 O23 1.976531 1_555
Ni0 O22 1.976531 1_555
Ni0 O9 2.203601 1_555
Ni0 O5 2.203601 1_555
Ni0 O7 2.203601 1_555
Ni1 O8 1.952665 1_556
Ni1 O11 1.952665 1_565
Ni1 O19 1.952665 1_655
Ni1 O3 2.136590 1_565
Ni1 O13 2.136590 1_655
Ni1 O6 2.136590 1_556
Ni2 O2 1.958180 1_555
Ni2 O1 1.958180 1_555
Ni2 O0 1.958183 1_555
Ni2 O14 2.113801 1_555
Ni2 O18 2.113801 1_555
Ni2 O16 2.113801 1_555
O0 P1 1.483663 1_545
O1 P2 1.483669 1_554
O2 P0 1.483669 1_455
O3 P0 1.581060 1_555
O3 Sn0 2.117708 1_545
O4 P0 1.562451 1_455
O4 V0 1.871922 1_555
O5 P0 1.573401 1_555
O5 Sn1 2.114150 1_555
O6 P1 1.581060 1_555
O6 Sn0 2.117708 1_554
O7 P1 1.573401 1_555
O7 Sn1 2.114149 1_555
O8 P3 1.494571 1_555
O9 P2 1.573401 1_555
O9 Sn1 2.114150 1_555
O10 P3 1.635098 1_555
O10 V0 2.059340 1_655
O10 Sn0 2.173365 1_544
O11 P4 1.494571 1_555
O12 P1 1.562451 1_545
O12 V0 1.871922 1_555
O13 P2 1.581060 1_555
O13 Sn0 2.117708 1_455
O14 P3 1.587436 1_555
O14 Sn1 2.108556 1_555
O15 P2 1.562451 1_554
O15 V0 1.871922 1_555
O16 P4 1.587436 1_555
O16 Sn1 2.108556 1_555
O17 P4 1.635098 1_555
O17 V0 2.059340 1_556
O17 Sn0 2.173365 1_445
O18 P5 1.587436 1_555
O18 Sn1 2.108556 1_555
O19 P5 1.494571 1_555
O20 P5 1.635098 1_555
O20 V0 2.059340 1_565
O20 Sn0 2.173365 1_454
O21 P5 1.497338 1_655
O22 P3 1.497338 1_556
O23 P4 1.497338 1_565
