# generated using pymatgen
data_Li4Mn2VNi3(PO4)6
_symmetry_space_group_name_H-M   'P 1'
_cell_length_a   8.47454817
_cell_length_b   8.82226272
_cell_length_c   8.80750627
_cell_angle_alpha   60.09155733
_cell_angle_beta   59.35909993
_cell_angle_gamma   59.47725672
_symmetry_Int_Tables_number   1
_chemical_formula_structural   Li4Mn2VNi3(PO4)6
_chemical_formula_sum   'Li4 Mn2 V1 Ni3 P6 O24'
_cell_volume   461.79791509
_cell_formula_units_Z   1
loop_
 _symmetry_equiv_pos_site_id
 _symmetry_equiv_pos_as_xyz
  1  'x, y, z'
loop_
 _atom_site_type_symbol
 _atom_site_label
 _atom_site_symmetry_multiplicity
 _atom_site_fract_x
 _atom_site_fract_y
 _atom_site_fract_z
 _atom_site_occupancy
  Li  Li0  1  0.25193200  0.84849500  0.64766600  1
  Li  Li1  1  0.78572300  0.14876800  0.35353300  1
  Li  Li2  1  0.78726400  0.71112400  0.14678400  1
  Li  Li3  1  0.78784700  0.35472800  0.71032400  1
  Mn  Mn0  1  0.01656500  0.99755900  0.00217500  1
  Mn  Mn1  1  0.49334800  0.49532300  0.49978900  1
  V  V0  1  0.55210600  0.15238200  0.14810500  1
  Ni  Ni0  1  0.06466400  0.64335300  0.64784100  1
  Ni  Ni1  1  0.43833300  0.85158600  0.85373800  1
  Ni  Ni2  1  0.94177300  0.35322400  0.35022300  1
  P  P0  1  0.24163200  0.25449200  0.54985200  1
  P  P1  1  0.24307200  0.95478400  0.25150700  1
  P  P2  1  0.24274900  0.55143600  0.95386800  1
  P  P3  1  0.74591500  0.45607800  0.04306000  1
  P  P4  1  0.75710200  0.04197200  0.75273500  1
  P  P5  1  0.73652700  0.75598100  0.45693600  1
  O  O0  1  0.05271000  0.10722500  0.31267400  1
  O  O1  1  0.05300200  0.52431500  0.10535100  1
  O  O2  1  0.05070900  0.32257200  0.52064000  1
  O  O3  1  0.23151900  0.08551400  0.73112300  1
  O  O4  1  0.42324000  0.19013100  0.38205300  1
  O  O5  1  0.27482900  0.40571600  0.55735600  1
  O  O6  1  0.23684700  0.92816400  0.09601200  1
  O  O7  1  0.27828900  0.77318500  0.41652000  1
  O  O8  1  0.56238400  0.60625200  0.00999500  1
  O  O9  1  0.27803600  0.56182800  0.75840000  1
  O  O10  1  0.75653500  0.25300200  0.07914900  1
  O  O11  1  0.58471500  0.99296400  0.81123700  1
  O  O12  1  0.42453200  0.01195300  0.18047800  1
  O  O13  1  0.22866400  0.74483400  0.92757000  1
  O  O14  1  0.73050200  0.43171100  0.24037800  1
  O  O15  1  0.42478900  0.38743400  0.00345000  1
  O  O16  1  0.73530700  0.23762300  0.59408100  1
  O  O17  1  0.75751600  0.08223700  0.91152900  1
  O  O18  1  0.73173800  0.59645600  0.42695100  1
  O  O19  1  0.54094200  0.81420300  0.60487300  1
  O  O20  1  0.75333200  0.91459500  0.25561300  1
  O  O21  1  0.91334500  0.71080200  0.49390300  1
  O  O22  1  0.93434400  0.47697700  0.88755200  1
  O  O23  1  0.95562200  0.89202100  0.70197600  1
loop_
_geom_bond_atom_site_label_1
_geom_bond_atom_site_label_2
_geom_bond_distance
_geom_bond_site_symmetry_2
Li0 O13 2.095735 1_555
Li0 O9 2.141992 1_555
Li0 O19 2.156947 1_555
Li0 O23 2.158988 1_455
Li0 O7 2.317433 1_555
Li0 O3 2.445077 1_565
Li1 O0 1.960208 1_655
Li1 O14 2.061847 1_555
Li1 O10 2.215644 1_555
Li1 O16 2.383056 1_555
Li2 O1 1.978123 1_655
Li2 O18 2.035768 1_555
Li2 O20 2.265897 1_555
Li2 O14 2.400268 1_555
Li3 O2 1.967524 1_655
Li3 O16 2.073768 1_555
Li3 O17 2.213737 1_555
Li3 O18 2.423829 1_555
Mn0 O6 2.109486 1_555
Mn0 O3 2.185261 1_564
Mn0 O13 2.195462 1_554
Mn0 O10 2.313159 1_465
Mn0 O20 2.334152 1_455
Mn0 O17 2.353890 1_464
Mn1 O5 2.107516 1_555
Mn1 O9 2.206935 1_555
Mn1 O7 2.213637 1_555
Mn1 O14 2.242041 1_555
Mn1 O16 2.276105 1_555
Mn1 O18 2.286498 1_555
Ni0 O22 2.002782 1_455
Ni0 O21 2.007318 1_455
Ni0 O23 2.104486 1_455
Ni0 O9 2.123793 1_555
Ni0 O5 2.151535 1_555
Ni0 O7 2.181697 1_555
Ni1 O11 1.966580 1_555
Ni1 O8 1.968974 1_556
Ni1 O19 2.038638 1_555
Ni1 O13 2.092450 1_555
Ni1 O6 2.115936 1_556
Ni1 O3 2.128347 1_565
Ni2 O2 1.983005 1_655
Ni2 O1 1.986179 1_655
Ni2 O0 2.007389 1_655
Ni2 O14 2.111718 1_555
Ni2 O16 2.124195 1_555
Ni2 O18 2.137737 1_555
O0 P1 1.527836 1_545
O1 P2 1.519431 1_554
O2 P0 1.525755 1_555
O3 P0 1.547743 1_555
O4 P0 1.583017 1_555
O4 V0 1.889550 1_555
O5 P0 1.533483 1_555
O6 P1 1.529869 1_555
O7 P1 1.550009 1_555
O8 P3 1.497669 1_555
O9 P2 1.551570 1_555
O10 P3 1.617533 1_555
O10 V0 2.027368 1_555
O11 P4 1.496268 1_565
O12 P1 1.582124 1_545
O12 V0 1.865227 1_555
O13 P2 1.551211 1_555
O14 P3 1.583691 1_555
O15 P2 1.566337 1_554
O15 V0 1.892452 1_555
O16 P4 1.581152 1_555
O17 P4 1.607461 1_555
O17 V0 2.061371 1_556
O18 P5 1.578505 1_555
O19 P5 1.519898 1_555
O20 P5 1.610328 1_555
O20 V0 2.058322 1_565
O21 P5 1.507133 1_555
O22 P3 1.509213 1_556
O23 P4 1.530605 1_565
