# generated using pymatgen
data_Li2Cr4O13
_symmetry_space_group_name_H-M   'P 1'
_cell_length_a   7.64524927
_cell_length_b   7.64524927
_cell_length_c   14.05801036
_cell_angle_alpha   73.22173686
_cell_angle_beta   73.22173686
_cell_angle_gamma   53.14078710
_symmetry_Int_Tables_number   1
_chemical_formula_structural   Li2Cr4O13
_chemical_formula_sum   'Li4 Cr8 O26'
_cell_volume   622.25769434
_cell_formula_units_Z   2
loop_
 _symmetry_equiv_pos_site_id
 _symmetry_equiv_pos_as_xyz
  1  'x, y, z'
loop_
 _atom_site_type_symbol
 _atom_site_label
 _atom_site_symmetry_multiplicity
 _atom_site_fract_x
 _atom_site_fract_y
 _atom_site_fract_z
 _atom_site_occupancy
  Li  Li0  1  0.72961000  0.73441300  0.90988800  1
  Li  Li1  1  0.26558700  0.27039000  0.59011200  1
  Li  Li2  1  0.73441300  0.72961000  0.40988800  1
  Li  Li3  1  0.27039000  0.26558700  0.09011200  1
  Cr  Cr0  1  0.84521900  0.13307400  0.86646300  1
  Cr  Cr1  1  0.13307400  0.84521900  0.36646300  1
  Cr  Cr2  1  0.22564400  0.23339500  0.84263300  1
  Cr  Cr3  1  0.76660500  0.77435600  0.65736700  1
  Cr  Cr4  1  0.23339500  0.22564400  0.34263300  1
  Cr  Cr5  1  0.77435600  0.76660500  0.15736700  1
  Cr  Cr6  1  0.86692600  0.15478100  0.63353700  1
  Cr  Cr7  1  0.15478100  0.86692600  0.13353700  1
  O  O0  1  0.67601300  0.29085800  0.94901400  1
  O  O1  1  0.87578500  0.89721700  0.90017200  1
  O  O2  1  0.29085800  0.67601300  0.44901400  1
  O  O3  1  0.91528400  0.89736400  0.64913300  1
  O  O4  1  0.04871200  0.44937600  0.89926100  1
  O  O5  1  0.44337700  0.06624700  0.89905800  1
  O  O6  1  0.29206500  0.30357100  0.72399400  1
  O  O7  1  0.89721700  0.87578500  0.40017200  1
  O  O8  1  0.89736400  0.91528400  0.14913300  1
  O  O9  1  0.69642900  0.70793500  0.77600600  1
  O  O10  1  0.93375300  0.55662300  0.60094200  1
  O  O11  1  0.55062400  0.95128800  0.60073900  1
  O  O12  1  0.44937600  0.04871200  0.39926100  1
  O  O13  1  0.06624700  0.44337700  0.39905800  1
  O  O14  1  0.30357100  0.29206500  0.22399400  1
  O  O15  1  0.10263600  0.08471600  0.85086700  1
  O  O16  1  0.10278300  0.12421500  0.59982800  1
  O  O17  1  0.70793500  0.69642900  0.27600600  1
  O  O18  1  0.55662300  0.93375300  0.10094200  1
  O  O19  1  0.95128800  0.55062400  0.10073900  1
  O  O20  1  0.74165700  0.25834300  0.75000000  1
  O  O21  1  0.08471600  0.10263600  0.35086700  1
  O  O22  1  0.70914200  0.32398700  0.55098600  1
  O  O23  1  0.12421500  0.10278300  0.09982800  1
  O  O24  1  0.25834300  0.74165700  0.25000000  1
  O  O25  1  0.32398700  0.70914200  0.05098600  1
loop_
_geom_bond_atom_site_label_1
_geom_bond_atom_site_label_2
_geom_bond_distance
_geom_bond_site_symmetry_2
Li0 O9 2.050587 1_555
Li0 O1 2.073468 1_555
Li0 O4 2.079027 1_655
Li0 O5 2.134730 1_565
Li1 O6 2.050587 1_555
Li1 O16 2.073468 1_555
Li1 O11 2.079027 1_545
Li1 O10 2.134730 1_455
Li2 O17 2.050587 1_555
Li2 O7 2.073468 1_555
Li2 O12 2.079027 1_565
Li2 O13 2.134730 1_655
Li3 O14 2.050587 1_555
Li3 O23 2.073468 1_555
Li3 O19 2.079027 1_455
Li3 O18 2.134730 1_545
Cr0 O0 1.595226 1_555
Cr0 O1 1.611125 1_545
Cr0 O15 1.727031 1_655
Cr0 O20 1.777096 1_555
Cr1 O2 1.595226 1_555
Cr1 O7 1.611125 1_455
Cr1 O21 1.727031 1_565
Cr1 O24 1.777096 1_555
Cr2 O4 1.627151 1_555
Cr2 O6 1.627465 1_555
Cr2 O5 1.630421 1_555
Cr2 O15 1.825787 1_555
Cr3 O11 1.627151 1_555
Cr3 O9 1.627465 1_555
Cr3 O10 1.630421 1_555
Cr3 O3 1.825787 1_555
Cr4 O12 1.627151 1_555
Cr4 O14 1.627465 1_555
Cr4 O13 1.630421 1_555
Cr4 O21 1.825787 1_555
Cr5 O19 1.627151 1_555
Cr5 O17 1.627465 1_555
Cr5 O18 1.630421 1_555
Cr5 O8 1.825787 1_555
Cr6 O22 1.595226 1_555
Cr6 O16 1.611125 1_655
Cr6 O3 1.727031 1_545
Cr6 O20 1.777096 1_555
Cr7 O25 1.595226 1_555
Cr7 O23 1.611125 1_565
Cr7 O8 1.727031 1_455
Cr7 O24 1.777096 1_555
