# generated using pymatgen
data_LiFePO4
_symmetry_space_group_name_H-M   'P 1'
_cell_length_a   7.90014600
_cell_length_b   8.74640000
_cell_length_c   17.49855811
_cell_angle_alpha   61.11808874
_cell_angle_beta   90.00000000
_cell_angle_gamma   90.00000000
_symmetry_Int_Tables_number   1
_chemical_formula_structural   LiFePO4
_chemical_formula_sum   'Li12 Fe12 P12 O48'
_cell_volume   1058.71954564
_cell_formula_units_Z   12
loop_
 _symmetry_equiv_pos_site_id
 _symmetry_equiv_pos_as_xyz
  1  'x, y, z'
loop_
 _atom_site_type_symbol
 _atom_site_label
 _atom_site_symmetry_multiplicity
 _atom_site_fract_x
 _atom_site_fract_y
 _atom_site_fract_z
 _atom_site_occupancy
  Li  Li0  1  0.99144700  0.27358200  0.93575400  1
  Li  Li1  1  0.01063100  0.64345400  0.58534400  1
  Li  Li2  1  0.87131200  0.00388100  0.24549600  1
  Li  Li3  1  0.37131200  0.99611900  0.25450400  1
  Li  Li4  1  0.51063100  0.35654600  0.91465600  1
  Li  Li5  1  0.49144700  0.72641800  0.56424600  1
  Li  Li6  1  0.50855300  0.27358200  0.43575400  1
  Li  Li7  1  0.48936900  0.64345400  0.08534400  1
  Li  Li8  1  0.62868800  0.00388100  0.74549600  1
  Li  Li9  1  0.12868800  0.99611900  0.75450400  1
  Li  Li10  1  0.98936900  0.35654600  0.41465600  1
  Li  Li11  1  0.00855300  0.72641800  0.06424600  1
  Fe  Fe0  1  0.66875000  0.64884600  0.40316300  1
  Fe  Fe1  1  0.82375500  0.31005300  0.76573000  1
  Fe  Fe2  1  0.66835000  0.02078900  0.08067500  1
  Fe  Fe3  1  0.16835000  0.97921100  0.41932500  1
  Fe  Fe4  1  0.32375500  0.68994700  0.73427000  1
  Fe  Fe5  1  0.16875000  0.35115400  0.09683700  1
  Fe  Fe6  1  0.83125000  0.64884600  0.90316300  1
  Fe  Fe7  1  0.67624500  0.31005300  0.26573000  1
  Fe  Fe8  1  0.83165000  0.02078900  0.58067500  1
  Fe  Fe9  1  0.33165000  0.97921100  0.91932500  1
  Fe  Fe10  1  0.17624500  0.68994700  0.23427000  1
  Fe  Fe11  1  0.33125000  0.35115400  0.59683700  1
  P  P0  1  0.26049200  0.63864000  0.40950500  1
  P  P1  1  0.22470700  0.30851300  0.77521000  1
  P  P2  1  0.26594900  0.04070300  0.07237000  1
  P  P3  1  0.76594900  0.95929700  0.42763000  1
  P  P4  1  0.72470700  0.69148700  0.72479000  1
  P  P5  1  0.76049200  0.36136000  0.09049500  1
  P  P6  1  0.23950800  0.63864000  0.90950500  1
  P  P7  1  0.27529300  0.30851300  0.27521000  1
  P  P8  1  0.23405100  0.04070300  0.57237000  1
  P  P9  1  0.73405100  0.95929700  0.92763000  1
  P  P10  1  0.77529300  0.69148700  0.22479000  1
  P  P11  1  0.73950800  0.36136000  0.59049500  1
  O  O0  1  0.56865200  0.43611200  0.60234200  1
  O  O1  1  0.87967100  0.41612200  0.63496400  1
  O  O2  1  0.78080800  0.08568200  0.96365000  1
  O  O3  1  0.05442500  0.25520000  0.82652200  1
  O  O4  1  0.36830900  0.24599800  0.84442200  1
  O  O5  1  0.75899300  0.78773200  0.28027000  1
  O  O6  1  0.21874400  0.57125700  0.50766600  1
  O  O7  1  0.27968600  0.93040500  0.17376300  1
  O  O8  1  0.43811200  0.13342200  0.03533700  1
  O  O9  1  0.23051200  0.50649000  0.70953900  1
  O  O10  1  0.26916800  0.84201800  0.36432900  1
  O  O11  1  0.12827200  0.18336700  0.04598400  1
  O  O12  1  0.62827200  0.81663300  0.45401600  1
  O  O13  1  0.76916800  0.15798200  0.13567100  1
  O  O14  1  0.73051200  0.49351000  0.79046100  1
  O  O15  1  0.93811200  0.86657800  0.46466300  1
  O  O16  1  0.77968600  0.06959500  0.32623700  1
  O  O17  1  0.71874400  0.42874300  0.99233400  1
  O  O18  1  0.86830900  0.75400200  0.65557800  1
  O  O19  1  0.25899300  0.21226800  0.21973000  1
  O  O20  1  0.55442500  0.74480000  0.67347800  1
  O  O21  1  0.28080800  0.91431800  0.53635000  1
  O  O22  1  0.37967100  0.58387800  0.86503600  1
  O  O23  1  0.06865200  0.56388800  0.89765800  1
  O  O24  1  0.93134800  0.43611200  0.10234200  1
  O  O25  1  0.62032900  0.41612200  0.13496400  1
  O  O26  1  0.71919200  0.08568200  0.46365000  1
  O  O27  1  0.44557500  0.25520000  0.32652200  1
  O  O28  1  0.74100700  0.78773200  0.78027000  1
  O  O29  1  0.13169100  0.24599800  0.34442200  1
  O  O30  1  0.28125600  0.57125700  0.00766600  1
  O  O31  1  0.22031400  0.93040500  0.67376300  1
  O  O32  1  0.06188800  0.13342200  0.53533700  1
  O  O33  1  0.26948800  0.50649000  0.20953900  1
  O  O34  1  0.23083200  0.84201800  0.86432900  1
  O  O35  1  0.37172800  0.18336700  0.54598400  1
  O  O36  1  0.87172800  0.81663300  0.95401600  1
  O  O37  1  0.73083200  0.15798200  0.63567100  1
  O  O38  1  0.76948800  0.49351000  0.29046100  1
  O  O39  1  0.56188800  0.86657800  0.96466300  1
  O  O40  1  0.72031400  0.06959500  0.82623700  1
  O  O41  1  0.78125600  0.42874300  0.49233400  1
  O  O42  1  0.24100700  0.21226800  0.71973000  1
  O  O43  1  0.63169100  0.75400200  0.15557800  1
  O  O44  1  0.94557500  0.74480000  0.17347800  1
  O  O45  1  0.21919200  0.91431800  0.03635000  1
  O  O46  1  0.12032900  0.58387800  0.36503600  1
  O  O47  1  0.43134800  0.56388800  0.39765800  1
loop_
_geom_bond_atom_site_label_1
_geom_bond_atom_site_label_2
_geom_bond_distance
_geom_bond_site_symmetry_2
Li0 O11 2.010300 1_656
Li0 O3 2.055168 1_655
Li0 O2 2.221125 1_555
Li0 O23 2.372441 1_655
Li1 O1 2.027324 1_455
Li1 O15 2.148278 1_455
Li1 O18 2.203959 1_455
Li1 O6 2.403872 1_555
Li1 O9 2.580809 1_555
Li2 O5 1.902746 1_545
Li2 O16 1.906547 1_555
Li2 O13 1.912814 1_555
Li3 O19 1.902746 1_565
Li3 O7 1.906547 1_555
Li3 O10 1.912814 1_555
Li4 O22 2.027324 1_555
Li4 O8 2.148278 1_556
Li4 O4 2.203959 1_555
Li4 O17 2.403872 1_555
Li4 O14 2.580809 1_555
Li5 O12 2.010300 1_555
Li5 O20 2.055168 1_555
Li5 O21 2.221125 1_555
Li5 O0 2.372441 1_555
Li6 O35 2.010300 1_555
Li6 O27 2.055168 1_555
Li6 O26 2.221125 1_555
Li6 O47 2.372441 1_555
Li7 O25 2.027324 1_555
Li7 O39 2.148278 1_554
Li7 O43 2.203959 1_555
Li7 O30 2.403872 1_555
Li7 O33 2.580809 1_555
Li8 O28 1.902746 1_545
Li8 O40 1.906547 1_555
Li8 O37 1.912814 1_555
Li9 O42 1.902746 1_565
Li9 O31 1.906547 1_555
Li9 O34 1.912814 1_555
Li10 O46 2.027324 1_655
Li10 O32 2.148278 1_655
Li10 O29 2.203959 1_655
Li10 O41 2.403872 1_555
Li10 O38 2.580809 1_555
Li11 O36 2.010300 1_454
Li11 O44 2.055168 1_455
Li11 O45 2.221125 1_555
Li11 O24 2.372441 1_455
Fe0 O41 2.007236 1_555
Fe0 O5 2.021102 1_555
Fe0 O47 2.036696 1_555
Fe0 O12 2.075875 1_555
Fe1 O14 1.993842 1_555
Fe1 O40 2.015181 1_555
Fe1 O3 2.046862 1_655
Fe1 O1 2.059384 1_555
Fe2 O13 2.028764 1_555
Fe2 O8 2.037976 1_555
Fe2 O2 2.045006 1_554
Fe2 O43 2.071765 1_545
Fe3 O10 2.028764 1_555
Fe3 O15 2.037976 1_455
Fe3 O21 2.045006 1_555
Fe3 O29 2.071765 1_565
Fe4 O9 1.993842 1_555
Fe4 O31 2.015181 1_555
Fe4 O20 2.046862 1_555
Fe4 O22 2.059384 1_555
Fe5 O30 2.007236 1_555
Fe5 O19 2.021102 1_555
Fe5 O24 2.036696 1_455
Fe5 O11 2.075875 1_555
Fe6 O17 2.007236 1_555
Fe6 O28 2.021102 1_555
Fe6 O23 2.036696 1_655
Fe6 O36 2.075875 1_555
Fe7 O38 1.993842 1_555
Fe7 O16 2.015181 1_555
Fe7 O27 2.046862 1_555
Fe7 O25 2.059384 1_555
Fe8 O37 2.028764 1_555
Fe8 O32 2.037976 1_655
Fe8 O26 2.045006 1_555
Fe8 O18 2.071765 1_545
Fe9 O34 2.028764 1_555
Fe9 O39 2.037976 1_555
Fe9 O45 2.045006 1_556
Fe9 O4 2.071765 1_565
Fe10 O33 1.993842 1_555
Fe10 O7 2.015181 1_555
Fe10 O44 2.046862 1_455
Fe10 O46 2.059384 1_555
Fe11 O6 2.007236 1_555
Fe11 O42 2.021102 1_555
Fe11 O0 2.036696 1_555
Fe11 O35 2.075875 1_555
O0 P11 1.556696 1_555
O1 P11 1.555986 1_555
O2 P9 1.558436 1_545
O3 P1 1.558488 1_555
O4 P1 1.553412 1_555
O5 P10 1.567531 1_555
O6 P0 1.558401 1_555
O7 P2 1.561056 1_565
O8 P2 1.555582 1_555
O9 P1 1.548811 1_555
O10 P0 1.560589 1_555
O11 P2 1.548113 1_555
O12 P3 1.548113 1_555
O13 P5 1.560589 1_555
O14 P4 1.548811 1_555
O15 P3 1.555582 1_555
O16 P3 1.561056 1_545
O17 P5 1.558401 1_556
O18 P4 1.553412 1_555
O19 P7 1.567531 1_555
O20 P4 1.558488 1_555
O21 P8 1.558436 1_565
O22 P6 1.555986 1_555
O23 P6 1.556696 1_555
O24 P5 1.556696 1_555
O25 P5 1.555986 1_555
O26 P3 1.558436 1_545
O27 P7 1.558488 1_555
O28 P4 1.567531 1_555
O29 P7 1.553412 1_555
O30 P6 1.558401 1_554
O31 P8 1.561056 1_565
O32 P8 1.555582 1_555
O33 P7 1.548811 1_555
O34 P6 1.560589 1_555
O35 P8 1.548113 1_555
O36 P9 1.548113 1_555
O37 P11 1.560589 1_555
O38 P10 1.548811 1_555
O39 P9 1.555582 1_555
O40 P9 1.561056 1_545
O41 P11 1.558401 1_555
O42 P1 1.567531 1_555
O43 P10 1.553412 1_555
O44 P10 1.558488 1_555
O45 P2 1.558436 1_565
O46 P0 1.555986 1_555
O47 P0 1.556696 1_555
