# generated using pymatgen
data_Li4Ti3Mn2Cr3O16
_symmetry_space_group_name_H-M   'P 1'
_cell_length_a   5.90044521
_cell_length_b   5.90044521
_cell_length_c   9.58243604
_cell_angle_alpha   88.67869926
_cell_angle_beta   88.67869926
_cell_angle_gamma   60.45457455
_symmetry_Int_Tables_number   1
_chemical_formula_structural   Li4Ti3Mn2Cr3O16
_chemical_formula_sum   'Li4 Ti3 Mn2 Cr3 O16'
_cell_volume   290.12995421
_cell_formula_units_Z   1
loop_
 _symmetry_equiv_pos_site_id
 _symmetry_equiv_pos_as_xyz
  1  'x, y, z'
loop_
 _atom_site_type_symbol
 _atom_site_label
 _atom_site_symmetry_multiplicity
 _atom_site_fract_x
 _atom_site_fract_y
 _atom_site_fract_z
 _atom_site_occupancy
  Li  Li0  1  0.66836300  0.66836300  0.10388700  1
  Li  Li1  1  0.99477300  0.99477300  0.00543000  1
  Li  Li2  1  0.99068300  0.99068300  0.50405400  1
  Li  Li3  1  0.33775600  0.33775600  0.60122700  1
  Ti  Ti0  1  0.16296400  0.16296400  0.29192900  1
  Ti  Ti1  1  0.34182500  0.83919300  0.78520000  1
  Ti  Ti2  1  0.83919300  0.34182500  0.78520000  1
  Mn  Mn0  1  0.66907100  0.66907100  0.51013400  1
  Mn  Mn1  1  0.33691100  0.33691100  0.02030300  1
  Cr  Cr0  1  0.83151800  0.83151800  0.79221700  1
  Cr  Cr1  1  0.16507600  0.65828800  0.28460000  1
  Cr  Cr2  1  0.65828800  0.16507600  0.28460000  1
  O  O0  1  0.31996400  0.84196300  0.39583900  1
  O  O1  1  0.52593600  0.52593600  0.65859600  1
  O  O2  1  0.65949800  0.65949800  0.89662800  1
  O  O3  1  0.00538800  0.00538800  0.69150300  1
  O  O4  1  0.00111400  0.00111400  0.18843300  1
  O  O5  1  0.84196300  0.31996400  0.39583900  1
  O  O6  1  0.51696400  0.96967500  0.66801800  1
  O  O7  1  0.96967500  0.51696400  0.66801800  1
  O  O8  1  0.16492300  0.16492300  0.89918100  1
  O  O9  1  0.83210100  0.83210100  0.40016900  1
  O  O10  1  0.04437600  0.47529900  0.15368600  1
  O  O11  1  0.47529900  0.04437600  0.15368600  1
  O  O12  1  0.32541300  0.32541300  0.39439100  1
  O  O13  1  0.17307900  0.66850900  0.90131100  1
  O  O14  1  0.47901600  0.47901600  0.15677300  1
  O  O15  1  0.66850900  0.17307900  0.90131100  1
loop_
_geom_bond_atom_site_label_1
_geom_bond_atom_site_label_2
_geom_bond_distance
_geom_bond_site_symmetry_2
Li0 O14 1.982934 1_555
Li0 O2 1.990510 1_554
Li0 O10 1.994733 1_655
Li0 O11 1.994733 1_565
Li1 O4 1.756530 1_665
Li1 O13 1.962404 1_654
Li1 O15 1.962404 1_564
Li1 O8 1.988021 1_664
Li2 O3 1.806448 1_665
Li2 O9 1.921314 1_555
Li2 O5 1.971753 1_565
Li2 O0 1.971753 1_655
Li3 O7 1.986668 1_455
Li3 O6 1.986668 1_545
Li3 O12 1.989334 1_555
Li3 O1 2.010008 1_555
Mn0 O9 1.944262 1_555
Mn0 O1 2.010739 1_555
Mn0 O5 2.112681 1_555
Mn0 O0 2.112681 1_555
Mn0 O7 2.175220 1_555
Mn0 O6 2.175220 1_555
Mn1 O10 1.958601 1_555
Mn1 O11 1.958601 1_555
Mn1 O14 1.977557 1_555
Mn1 O13 2.036027 1_554
Mn1 O15 2.036027 1_554
Mn1 O8 2.128624 1_554
Cr0 O3 1.995758 1_665
Cr0 O2 1.995948 1_555
Cr0 O6 2.022542 1_555
Cr0 O7 2.022542 1_555
Cr0 O15 2.053945 1_565
Cr0 O13 2.053945 1_655
Cr1 O4 1.975371 1_565
Cr1 O12 1.994400 1_555
Cr1 O14 2.018237 1_555
Cr1 O9 2.025611 1_455
Cr1 O10 2.027002 1_555
Cr1 O0 2.054513 1_555
Cr2 O4 1.975371 1_655
Cr2 O12 1.994400 1_555
Cr2 O14 2.018237 1_555
Cr2 O9 2.025611 1_545
Cr2 O11 2.027002 1_555
Cr2 O5 2.054513 1_555
O0 Ti0 1.913678 1_565
O1 Ti1 2.032411 1_555
O1 Ti2 2.032411 1_555
O2 Ti1 1.964120 1_555
O2 Ti2 1.964120 1_555
O3 Ti1 1.957096 1_545
O3 Ti2 1.957096 1_455
O4 Ti0 1.947910 1_555
O5 Ti0 1.913678 1_655
O6 Ti1 1.900740 1_555
O7 Ti2 1.900740 1_555
O8 Ti2 2.010493 1_455
O8 Ti1 2.010493 1_545
O10 Ti0 2.073447 1_555
O11 Ti0 2.073447 1_555
O12 Ti0 1.947933 1_555
O13 Ti1 2.032181 1_555
O15 Ti2 2.032181 1_555
