# generated using pymatgen
data_LiCrF4
_symmetry_space_group_name_H-M   'P 1'
_cell_length_a   9.37029051
_cell_length_b   9.37029051
_cell_length_c   7.36324990
_cell_angle_alpha   81.04837695
_cell_angle_beta   81.04837695
_cell_angle_gamma   66.11227135
_symmetry_Int_Tables_number   1
_chemical_formula_structural   LiCrF4
_chemical_formula_sum   'Li8 Cr8 F32'
_cell_volume   580.85464653
_cell_formula_units_Z   8
loop_
 _symmetry_equiv_pos_site_id
 _symmetry_equiv_pos_as_xyz
  1  'x, y, z'
loop_
 _atom_site_type_symbol
 _atom_site_label
 _atom_site_symmetry_multiplicity
 _atom_site_fract_x
 _atom_site_fract_y
 _atom_site_fract_z
 _atom_site_occupancy
  Li  Li0  1  0.88871300  0.48684700  0.89156300  1
  Li  Li1  1  0.48684700  0.88871300  0.39156300  1
  Li  Li2  1  0.61112800  0.61800900  0.15883700  1
  Li  Li3  1  0.61800900  0.61112800  0.65883700  1
  Li  Li4  1  0.38199100  0.38887200  0.34116300  1
  Li  Li5  1  0.38887200  0.38199100  0.84116300  1
  Li  Li6  1  0.51315300  0.11128700  0.60843700  1
  Li  Li7  1  0.11128700  0.51315300  0.10843700  1
  Cr  Cr0  1  0.82100900  0.82889800  0.08955100  1
  Cr  Cr1  1  0.82889800  0.82100900  0.58955100  1
  Cr  Cr2  1  0.74432600  0.25074800  0.99820900  1
  Cr  Cr3  1  0.74925200  0.25567400  0.50179100  1
  Cr  Cr4  1  0.25074800  0.74432600  0.49820900  1
  Cr  Cr5  1  0.25567400  0.74925200  0.00179100  1
  Cr  Cr6  1  0.17110200  0.17899100  0.41044900  1
  Cr  Cr7  1  0.17899100  0.17110200  0.91044900  1
  F  F0  1  0.88949900  0.76290400  0.33759400  1
  F  F1  1  0.96824500  0.16776200  0.39875800  1
  F  F2  1  0.89577000  0.60927300  0.68003200  1
  F  F3  1  0.82422300  0.61848300  0.08720500  1
  F  F4  1  0.76290400  0.88949900  0.83759400  1
  F  F5  1  0.95072500  0.26864800  0.00239000  1
  F  F6  1  0.74732200  0.45497900  0.50621000  1
  F  F7  1  0.60927300  0.89577000  0.18003200  1
  F  F8  1  0.61848300  0.82422300  0.58720500  1
  F  F9  1  0.83223800  0.03175500  0.10124200  1
  F  F10  1  0.81505400  0.18494600  0.75000000  1
  F  F11  1  0.67259500  0.32740500  0.25000000  1
  F  F12  1  0.73135200  0.04927500  0.49761000  1
  F  F13  1  0.68102100  0.47144900  0.90147600  1
  F  F14  1  0.47144900  0.68102100  0.40147600  1
  F  F15  1  0.45497900  0.74732200  0.00621000  1
  F  F16  1  0.26864800  0.95072500  0.50239000  1
  F  F17  1  0.54502100  0.25267800  0.99379000  1
  F  F18  1  0.52855100  0.31897900  0.59852400  1
  F  F19  1  0.31897900  0.52855100  0.09852400  1
  F  F20  1  0.32740500  0.67259500  0.75000000  1
  F  F21  1  0.18494600  0.81505400  0.25000000  1
  F  F22  1  0.16776200  0.96824500  0.89875800  1
  F  F23  1  0.38151700  0.17577700  0.41279500  1
  F  F24  1  0.39072700  0.10423000  0.81996800  1
  F  F25  1  0.25267800  0.54502100  0.49379000  1
  F  F26  1  0.04927500  0.73135200  0.99761000  1
  F  F27  1  0.23709600  0.11050100  0.16240600  1
  F  F28  1  0.17577700  0.38151700  0.91279500  1
  F  F29  1  0.10423000  0.39072700  0.31996800  1
  F  F30  1  0.03175500  0.83223800  0.60124200  1
  F  F31  1  0.11050100  0.23709600  0.66240600  1
loop_
_geom_bond_atom_site_label_1
_geom_bond_atom_site_label_2
_geom_bond_distance
_geom_bond_site_symmetry_2
Cr0 F7 1.866701 1_555
Cr0 F4 1.948549 1_554
Cr0 F0 1.954966 1_555
Cr0 F9 1.961467 1_565
Cr0 F3 1.962385 1_555
Cr0 F26 2.006816 1_654
Cr1 F2 1.866701 1_555
Cr1 F0 1.948549 1_555
Cr1 F4 1.954966 1_555
Cr1 F30 1.961467 1_655
Cr1 F8 1.962385 1_555
Cr1 F12 2.006816 1_565
Cr2 F17 1.865606 1_555
Cr2 F10 1.949977 1_555
Cr2 F9 1.950884 1_556
Cr2 F13 1.953337 1_555
Cr2 F11 2.010139 1_556
Cr2 F5 2.013049 1_556
Cr3 F6 1.865606 1_555
Cr3 F10 1.949977 1_555
Cr3 F1 1.950884 1_555
Cr3 F18 1.953337 1_555
Cr3 F11 2.010139 1_555
Cr3 F12 2.013049 1_555
Cr4 F25 1.865606 1_555
Cr4 F21 1.949977 1_555
Cr4 F30 1.950884 1_555
Cr4 F14 1.953337 1_555
Cr4 F20 2.010139 1_555
Cr4 F16 2.013049 1_555
Cr5 F15 1.865606 1_555
Cr5 F21 1.949977 1_555
Cr5 F22 1.950884 1_554
Cr5 F19 1.953337 1_555
Cr5 F20 2.010139 1_554
Cr5 F26 2.013049 1_554
Cr6 F29 1.866701 1_555
Cr6 F31 1.948549 1_555
Cr6 F27 1.954966 1_555
Cr6 F1 1.961467 1_455
Cr6 F23 1.962385 1_555
Cr6 F16 2.006816 1_545
Cr7 F24 1.866701 1_555
Cr7 F27 1.948549 1_556
Cr7 F31 1.954966 1_555
Cr7 F22 1.961467 1_545
Cr7 F28 1.962385 1_555
Cr7 F5 2.006816 1_456
F2 Li0 1.794347 1_555
F3 Li0 1.907935 1_554
F3 Li2 1.985945 1_555
F3 Li7 2.483284 1_655
F5 Li0 1.962156 1_554
F6 Li3 1.877267 1_555
F7 Li1 1.794347 1_555
F8 Li1 1.907935 1_555
F8 Li3 1.985945 1_555
F8 Li6 2.483284 1_565
F11 Li4 2.545301 1_555
F11 Li2 2.545301 1_555
F12 Li6 1.962156 1_555
F13 Li0 1.998378 1_555
F13 Li3 2.056295 1_555
F13 Li2 2.366687 1_556
F14 Li1 1.998378 1_555
F14 Li2 2.056295 1_555
F14 Li3 2.366687 1_555
F15 Li2 1.877267 1_555
F16 Li1 1.962156 1_555
F17 Li5 1.877267 1_555
F18 Li6 1.998378 1_555
F18 Li5 2.056295 1_555
F18 Li4 2.366687 1_555
F19 Li7 1.998378 1_555
F19 Li4 2.056295 1_555
F19 Li5 2.366687 1_554
F20 Li3 2.545301 1_555
F20 Li5 2.545301 1_555
F23 Li6 1.907935 1_555
F23 Li4 1.985945 1_555
F23 Li1 2.483284 1_545
F24 Li6 1.794347 1_555
F25 Li4 1.877267 1_555
F26 Li7 1.962156 1_556
F28 Li7 1.907935 1_556
F28 Li5 1.985945 1_555
F28 Li0 2.483284 1_455
F29 Li7 1.794347 1_555
