# generated using pymatgen
data_Li8MnFe7(BO3)8
_symmetry_space_group_name_H-M   'P 1'
_cell_length_a   5.22381200
_cell_length_b   9.07096525
_cell_length_c   11.47609945
_cell_angle_alpha   111.88513457
_cell_angle_beta   102.37310290
_cell_angle_gamma   90.20178390
_symmetry_Int_Tables_number   1
_chemical_formula_structural   Li8MnFe7(BO3)8
_chemical_formula_sum   'Li8 Mn1 Fe7 B8 O24'
_cell_volume   490.79437913
_cell_formula_units_Z   1
loop_
 _symmetry_equiv_pos_site_id
 _symmetry_equiv_pos_as_xyz
  1  'x, y, z'
loop_
 _atom_site_type_symbol
 _atom_site_label
 _atom_site_symmetry_multiplicity
 _atom_site_fract_x
 _atom_site_fract_y
 _atom_site_fract_z
 _atom_site_occupancy
  Li  Li0  1  0.02305100  0.03562200  0.41786400  1
  Li  Li1  1  0.29925000  0.28437100  0.91591700  1
  Li  Li2  1  0.48605800  0.50349300  0.66367700  1
  Li  Li3  1  0.26604600  0.24945900  0.16804700  1
  Li  Li4  1  0.52151800  0.53711000  0.41597100  1
  Li  Li5  1  0.79875800  0.78191300  0.91662200  1
  Li  Li6  1  0.98490800  0.00626100  0.66771200  1
  Li  Li7  1  0.76594300  0.74900700  0.16918900  1
  Mn  Mn0  1  0.98186700  0.65327800  0.63330300  1
  Fe  Fe0  1  0.00307300  0.35012800  0.37702600  1
  Fe  Fe1  1  0.27149100  0.94402800  0.88461700  1
  Fe  Fe2  1  0.48435600  0.15831300  0.63534000  1
  Fe  Fe3  1  0.24702900  0.56776700  0.13210700  1
  Fe  Fe4  1  0.50921300  0.85723500  0.38331800  1
  Fe  Fe5  1  0.77966000  0.44049800  0.88467000  1
  Fe  Fe6  1  0.74522000  0.06528400  0.13015200  1
  B  B0  1  0.01707000  0.68267700  0.37397600  1
  B  B1  1  0.27290200  0.60238800  0.87654300  1
  B  B2  1  0.23489200  0.89837400  0.12707600  1
  B  B3  1  0.47558900  0.81709800  0.62777200  1
  B  B4  1  0.51529900  0.18401400  0.37498300  1
  B  B5  1  0.76943600  0.10385800  0.87810600  1
  B  B6  1  0.73365500  0.39818200  0.12532900  1
  B  B7  1  0.98079400  0.31158100  0.62509300  1
  O  O0  1  0.02746100  0.10782900  0.86517000  1
  O  O1  1  0.11157500  0.71380800  0.84983900  1
  O  O2  1  0.17471400  0.49016100  0.91651600  1
  O  O3  1  0.08802800  0.16874200  0.61507700  1
  O  O4  1  0.10799700  0.42235900  0.59402200  1
  O  O5  1  0.24253000  0.85107100  0.66935200  1
  O  O6  1  0.26492100  0.65634100  0.34423600  1
  O  O7  1  0.52757100  0.60116800  0.85971700  1
  O  O8  1  0.60557500  0.21251200  0.84861600  1
  O  O9  1  0.39824400  0.07986600  0.41645400  1
  O  O10  1  0.39114000  0.31186400  0.35997200  1
  O  O11  1  0.67457000  0.99045900  0.91750000  1
  O  O12  1  0.33942200  0.01900200  0.09763800  1
  O  O13  1  0.57662300  0.67157700  0.61293300  1
  O  O14  1  0.60481400  0.92809700  0.59697700  1
  O  O15  1  0.39749700  0.79471900  0.16408100  1
  O  O16  1  0.46386300  0.38112200  0.11415000  1
  O  O17  1  0.74387900  0.34329200  0.66382600  1
  O  O18  1  0.76423100  0.15528800  0.34636400  1
  O  O19  1  0.90204700  0.57741000  0.41510200  1
  O  O20  1  0.88955500  0.81059400  0.36095100  1
  O  O21  1  0.83889300  0.51846700  0.09584500  1
  O  O22  1  0.89586200  0.29451400  0.16284200  1
  O  O23  1  0.96511000  0.88099800  0.11600900  1
loop_
_geom_bond_atom_site_label_1
_geom_bond_atom_site_label_2
_geom_bond_distance
_geom_bond_site_symmetry_2
Li0 O18 1.969378 1_455
Li0 O20 1.969865 1_445
Li0 O9 2.003891 1_555
Li0 O3 2.079926 1_555
Li1 O8 1.934861 1_555
Li1 O0 1.963110 1_555
Li1 O2 1.977066 1_555
Li1 O16 2.086371 1_556
Li2 O13 1.913768 1_555
Li2 O17 1.985012 1_555
Li2 O4 1.988862 1_555
Li2 O7 2.048678 1_555
Li3 O16 1.921643 1_555
Li3 O22 1.970871 1_455
Li3 O12 2.012213 1_555
Li3 O10 2.012407 1_555
Li4 O6 1.960927 1_555
Li4 O10 1.968568 1_555
Li4 O19 2.022678 1_555
Li4 O13 2.084025 1_555
Li5 O1 1.957080 1_655
Li5 O7 1.977462 1_555
Li5 O11 1.999193 1_555
Li5 O23 2.099509 1_556
Li6 O3 1.903906 1_655
Li6 O5 1.953298 1_645
Li6 O14 1.993567 1_545
Li6 O0 2.063854 1_655
Li7 O23 1.922625 1_555
Li7 O15 1.963467 1_555
Li7 O20 2.010968 1_555
Li7 O21 2.014386 1_555
Mn0 O13 2.093530 1_555
Mn0 O5 2.105314 1_655
Mn0 O4 2.111398 1_655
Mn0 O19 2.276790 1_555
Mn0 O1 2.279117 1_655
Fe0 O18 2.033922 1_455
Fe0 O19 2.038336 1_455
Fe0 O10 2.095856 1_555
Fe0 O22 2.256890 1_455
Fe0 O4 2.264353 1_555
Fe1 O0 2.005284 1_565
Fe1 O11 2.070779 1_555
Fe1 O1 2.107530 1_555
Fe1 O12 2.225274 1_566
Fe1 O5 2.263360 1_555
Fe2 O17 2.036022 1_555
Fe2 O3 2.039804 1_555
Fe2 O14 2.096017 1_545
Fe2 O8 2.251633 1_555
Fe2 O9 2.280258 1_555
Fe3 O16 2.011302 1_555
Fe3 O15 2.071824 1_555
Fe3 O21 2.095953 1_455
Fe3 O6 2.241532 1_555
Fe3 O2 2.249180 1_554
Fe4 O9 2.022162 1_565
Fe4 O6 2.068694 1_555
Fe4 O20 2.082287 1_555
Fe4 O14 2.229964 1_555
Fe4 O15 2.301547 1_555
Fe5 O7 2.025658 1_555
Fe5 O2 2.035389 1_655
Fe5 O8 2.112493 1_555
Fe5 O21 2.206457 1_556
Fe5 O17 2.316374 1_555
Fe6 O23 2.007822 1_545
Fe6 O12 2.084960 1_555
Fe6 O22 2.089032 1_555
Fe6 O11 2.220346 1_544
Fe6 O18 2.284019 1_555
B0 O20 1.380033 1_455
B0 O19 1.396075 1_455
B0 O6 1.407353 1_555
B1 O7 1.384132 1_555
B1 O1 1.397083 1_555
B1 O2 1.398269 1_555
B2 O23 1.390640 1_455
B2 O15 1.390914 1_555
B2 O12 1.400009 1_565
B3 O13 1.387747 1_555
B3 O5 1.395294 1_555
B3 O14 1.398961 1_555
B4 O10 1.379002 1_555
B4 O9 1.395973 1_555
B4 O18 1.410091 1_555
B5 O0 1.389064 1_655
B5 O11 1.395409 1_545
B5 O8 1.396100 1_555
B6 O16 1.390263 1_555
B6 O22 1.392369 1_555
B6 O21 1.399259 1_555
B7 O3 1.388340 1_655
B7 O4 1.393696 1_655
B7 O17 1.398185 1_555
