# generated using pymatgen
data_Li5Fe2P2(CO7)2
_symmetry_space_group_name_H-M   'P 1'
_cell_length_a   8.25897500
_cell_length_b   8.27116783
_cell_length_c   8.42847031
_cell_angle_alpha   93.25479016
_cell_angle_beta   92.92446937
_cell_angle_gamma   104.62174827
_symmetry_Int_Tables_number   1
_chemical_formula_structural   Li5Fe2P2(CO7)2
_chemical_formula_sum   'Li10 Fe4 P4 C4 O28'
_cell_volume   554.94060538
_cell_formula_units_Z   2
loop_
 _symmetry_equiv_pos_site_id
 _symmetry_equiv_pos_as_xyz
  1  'x, y, z'
loop_
 _atom_site_type_symbol
 _atom_site_label
 _atom_site_symmetry_multiplicity
 _atom_site_fract_x
 _atom_site_fract_y
 _atom_site_fract_z
 _atom_site_occupancy
  Li  Li0  1  0.73970700  0.49504900  0.09769500  1
  Li  Li1  1  0.23609800  0.98733500  0.09883100  1
  Li  Li2  1  0.59897500  0.12383700  0.27308300  1
  Li  Li3  1  0.38288500  0.36499500  0.27663300  1
  Li  Li4  1  0.11035400  0.64446600  0.27406700  1
  Li  Li5  1  0.40291700  0.89062400  0.72927900  1
  Li  Li6  1  0.61382100  0.63761300  0.72301200  1
  Li  Li7  1  0.10744000  0.14909600  0.72363700  1
  Li  Li8  1  0.26534700  0.50869400  0.89558100  1
  Li  Li9  1  0.74652000  0.01624200  0.91442800  1
  Fe  Fe0  1  0.48653400  0.73393000  0.32621400  1
  Fe  Fe1  1  0.97053500  0.21739100  0.33771500  1
  Fe  Fe2  1  0.01991700  0.76848700  0.65925600  1
  Fe  Fe3  1  0.53508200  0.27643900  0.67344900  1
  P  P0  1  0.76280300  0.51071800  0.41354800  1
  P  P1  1  0.26212200  0.01216000  0.41631400  1
  P  P2  1  0.73784100  0.98599000  0.58778700  1
  P  P3  1  0.23926200  0.48564900  0.58141000  1
  C  C0  1  0.51490600  0.78178800  0.02865600  1
  C  C1  1  0.03772000  0.27353200  0.04989200  1
  C  C2  1  0.97659700  0.71997500  0.95150300  1
  C  C3  1  0.46870000  0.22444800  0.96973000  1
  O  O0  1  0.40354400  0.65113700  0.06565200  1
  O  O1  1  0.90880100  0.15353200  0.08154600  1
  O  O2  1  0.95708100  0.66474200  0.08836100  1
  O  O3  1  0.59435400  0.89136100  0.14162800  1
  O  O4  1  0.43236700  0.19505600  0.11610200  1
  O  O5  1  0.11565700  0.36703000  0.17711300  1
  O  O6  1  0.63584500  0.56140000  0.29664300  1
  O  O7  1  0.80497500  0.36173000  0.31554200  1
  O  O8  1  0.29356500  0.86554800  0.30896300  1
  O  O9  1  0.12459000  0.06794000  0.31686300  1
  O  O10  1  0.92948900  0.65362300  0.44786600  1
  O  O11  1  0.77915800  0.05790200  0.42405200  1
  O  O12  1  0.30437700  0.54513900  0.42114900  1
  O  O13  1  0.42231200  0.15839600  0.44403100  1
  O  O14  1  0.59492900  0.82221200  0.55902600  1
  O  O15  1  0.68933100  0.46643200  0.57243800  1
  O  O16  1  0.20830500  0.95520000  0.58379600  1
  O  O17  1  0.09126700  0.32364100  0.54648600  1
  O  O18  1  0.89663500  0.95103200  0.67434800  1
  O  O19  1  0.18383200  0.62533700  0.68200300  1
  O  O20  1  0.68283600  0.10669100  0.70709300  1
  O  O21  1  0.37407300  0.44490500  0.69609200  1
  O  O22  1  0.86955800  0.65601800  0.82920000  1
  O  O23  1  0.55074100  0.80432200  0.88215600  1
  O  O24  1  0.38214300  0.12612800  0.85216200  1
  O  O25  1  0.08812500  0.29806700  0.91186400  1
  O  O26  1  0.58908000  0.34947300  0.93886100  1
  O  O27  1  0.10495800  0.83953600  0.91724700  1
loop_
_geom_bond_atom_site_label_1
_geom_bond_atom_site_label_2
_geom_bond_distance
_geom_bond_site_symmetry_2
Li0 O26 1.918430 1_554
Li0 O2 1.988466 1_555
Li0 O6 2.031917 1_555
Li0 O7 2.303664 1_555
Li1 O27 1.989922 1_554
Li1 O4 2.035208 1_565
Li1 O8 2.175985 1_555
Li1 O9 2.239024 1_565
Li2 O4 2.074363 1_555
Li2 O11 2.103891 1_555
Li2 O3 2.154786 1_545
Li2 O13 2.159826 1_555
Li2 O7 2.249907 1_555
Li3 O4 2.025803 1_555
Li3 O12 2.118119 1_555
Li3 O6 2.291639 1_555
Li3 O5 2.325147 1_555
Li3 O13 2.350440 1_555
Li4 O2 2.003819 1_455
Li4 O8 2.053400 1_555
Li4 O10 2.156540 1_455
Li4 O12 2.314548 1_555
Li4 O5 2.403516 1_555
Li5 O23 2.011036 1_555
Li5 O16 2.163085 1_555
Li5 O24 2.203226 1_565
Li5 O14 2.342477 1_555
Li5 O19 2.463754 1_555
Li5 O20 2.563115 1_565
Li6 O23 2.048385 1_555
Li6 O15 2.080084 1_555
Li6 O14 2.145661 1_555
Li6 O21 2.198277 1_555
Li6 O22 2.216886 1_555
Li7 O25 1.990889 1_555
Li7 O18 2.072792 1_445
Li7 O17 2.157139 1_555
Li7 O16 2.283685 1_545
Li7 O24 2.519335 1_555
Li8 O0 1.925595 1_556
Li8 O25 1.989085 1_555
Li8 O21 2.050439 1_555
Li8 O19 2.241871 1_555
Li9 O1 1.981709 1_556
Li9 O20 2.035549 1_555
Li9 O23 2.056922 1_545
Li9 O3 2.475502 1_546
Li9 O18 2.528291 1_545
Fe0 O12 2.102516 1_555
Fe0 O6 2.120994 1_555
Fe0 O14 2.124397 1_555
Fe0 O8 2.148606 1_555
Fe0 O3 2.166784 1_555
Fe0 O0 2.280444 1_555
Fe1 O11 1.985353 1_555
Fe1 O9 1.992475 1_655
Fe1 O17 2.016380 1_655
Fe1 O7 2.037964 1_555
Fe1 O5 2.099421 1_655
Fe1 O1 2.196114 1_555
Fe2 O10 1.987109 1_455
Fe2 O19 2.019875 1_555
Fe2 O18 2.024873 1_455
Fe2 O22 2.051515 1_455
Fe2 O16 2.051748 1_555
Fe2 O27 2.248918 1_555
Fe3 O15 2.017203 1_555
Fe3 O20 2.101356 1_555
Fe3 O21 2.162750 1_555
Fe3 O13 2.168510 1_555
Fe3 O24 2.241418 1_555
Fe3 O26 2.275255 1_555
C0 O0 1.294857 1_555
C0 O23 1.297136 1_554
C0 O3 1.302532 1_555
C1 O25 1.265494 1_554
C1 O1 1.309768 1_455
C1 O5 1.321457 1_555
C2 O2 1.267631 1_556
C2 O27 1.311312 1_655
C2 O22 1.316414 1_555
C3 O26 1.289729 1_555
C3 O24 1.302688 1_555
C3 O4 1.306193 1_556
O6 P0 1.552238 1_555
O7 P0 1.566108 1_555
O8 P1 1.554030 1_565
O9 P1 1.554677 1_555
O10 P0 1.573203 1_555
O11 P2 1.553548 1_545
O12 P3 1.540085 1_555
O13 P1 1.548022 1_555
O14 P2 1.553450 1_555
O15 P0 1.523891 1_555
O16 P1 1.563968 1_565
O17 P3 1.570925 1_555
O18 P2 1.566405 1_555
O19 P3 1.568037 1_555
O20 P2 1.541367 1_545
O21 P3 1.550530 1_555
