# generated using pymatgen
data_Si17CO34
_symmetry_space_group_name_H-M   'P 1'
_cell_length_a   14.15207330
_cell_length_b   14.15207330
_cell_length_c   14.15207330
_cell_angle_alpha   60.00000000
_cell_angle_beta   60.00000000
_cell_angle_gamma   60.00000000
_symmetry_Int_Tables_number   1
_chemical_formula_structural   Si17CO34
_chemical_formula_sum   'Si34 C2 O68'
_cell_volume   2004.21916342
_cell_formula_units_Z   2
loop_
 _symmetry_equiv_pos_site_id
 _symmetry_equiv_pos_as_xyz
  1  'x, y, z'
loop_
 _atom_site_type_symbol
 _atom_site_label
 _atom_site_symmetry_multiplicity
 _atom_site_fract_x
 _atom_site_fract_y
 _atom_site_fract_z
 _atom_site_occupancy
  Si  Si0  1  0.50000000  0.50000000  0.50000000  1
  Si  Si1  1  0.75000000  0.75000000  0.75000000  1
  Si  Si2  1  0.77677700  0.40774100  0.40774100  1
  Si  Si3  1  0.40774100  0.77677700  0.40774100  1
  Si  Si4  1  0.40774100  0.40774100  0.77677700  1
  Si  Si5  1  0.40774100  0.40774100  0.40774100  1
  Si  Si6  1  0.47322300  0.84225900  0.84225900  1
  Si  Si7  1  0.84225900  0.47322300  0.84225900  1
  Si  Si8  1  0.84225900  0.84225900  0.47322300  1
  Si  Si9  1  0.84225900  0.84225900  0.84225900  1
  Si  Si10  1  0.86058500  0.25432500  0.25432500  1
  Si  Si11  1  0.25432500  0.86058500  0.63076500  1
  Si  Si12  1  0.25432500  0.63076500  0.86058500  1
  Si  Si13  1  0.63076500  0.25432500  0.25432500  1
  Si  Si14  1  0.25432500  0.25432500  0.86058500  1
  Si  Si15  1  0.86058500  0.63076500  0.25432500  1
  Si  Si16  1  0.63076500  0.86058500  0.25432500  1
  Si  Si17  1  0.25432500  0.25432500  0.63076500  1
  Si  Si18  1  0.25432500  0.86058500  0.25432500  1
  Si  Si19  1  0.63076500  0.25432500  0.86058500  1
  Si  Si20  1  0.86058500  0.25432500  0.63076500  1
  Si  Si21  1  0.25432500  0.63076500  0.25432500  1
  Si  Si22  1  0.38941500  0.99567500  0.99567500  1
  Si  Si23  1  0.99567500  0.38941500  0.61923500  1
  Si  Si24  1  0.99567500  0.61923500  0.38941500  1
  Si  Si25  1  0.61923500  0.99567500  0.99567500  1
  Si  Si26  1  0.99567500  0.99567500  0.38941500  1
  Si  Si27  1  0.38941500  0.61923500  0.99567500  1
  Si  Si28  1  0.61923500  0.38941500  0.99567500  1
  Si  Si29  1  0.99567500  0.99567500  0.61923500  1
  Si  Si30  1  0.99567500  0.38941500  0.99567500  1
  Si  Si31  1  0.61923500  0.99567500  0.38941500  1
  Si  Si32  1  0.38941500  0.99567500  0.61923500  1
  Si  Si33  1  0.99567500  0.61923500  0.99567500  1
  C  C0  1  0.25000000  0.25000000  0.25000000  1
  C  C1  1  0.00000000  0.00000000  0.00000000  1
  O  O0  1  0.63842000  0.45386000  0.45386000  1
  O  O1  1  0.45386000  0.63842000  0.45386000  1
  O  O2  1  0.45386000  0.45386000  0.63842000  1
  O  O3  1  0.45386000  0.45386000  0.45386000  1
  O  O4  1  0.61158000  0.79614000  0.79614000  1
  O  O5  1  0.79614000  0.61158000  0.79614000  1
  O  O6  1  0.79614000  0.79614000  0.61158000  1
  O  O7  1  0.79614000  0.79614000  0.79614000  1
  O  O8  1  0.82003100  0.33086500  0.33086500  1
  O  O9  1  0.33086500  0.82003100  0.51823800  1
  O  O10  1  0.33086500  0.51823800  0.82003100  1
  O  O11  1  0.51823800  0.33086500  0.33086500  1
  O  O12  1  0.33086500  0.33086500  0.82003100  1
  O  O13  1  0.82003100  0.51823800  0.33086500  1
  O  O14  1  0.51823800  0.82003100  0.33086500  1
  O  O15  1  0.33086500  0.33086500  0.51823800  1
  O  O16  1  0.33086500  0.82003100  0.33086500  1
  O  O17  1  0.51823800  0.33086500  0.82003100  1
  O  O18  1  0.82003100  0.33086500  0.51823800  1
  O  O19  1  0.33086500  0.51823800  0.33086500  1
  O  O20  1  0.42996900  0.91913500  0.91913500  1
  O  O21  1  0.91913500  0.42996900  0.73176200  1
  O  O22  1  0.91913500  0.73176200  0.42996900  1
  O  O23  1  0.73176200  0.91913500  0.91913500  1
  O  O24  1  0.91913500  0.91913500  0.42996900  1
  O  O25  1  0.42996900  0.73176200  0.91913500  1
  O  O26  1  0.73176200  0.42996900  0.91913500  1
  O  O27  1  0.91913500  0.91913500  0.73176200  1
  O  O28  1  0.91913500  0.42996900  0.91913500  1
  O  O29  1  0.73176200  0.91913500  0.42996900  1
  O  O30  1  0.42996900  0.91913500  0.73176200  1
  O  O31  1  0.91913500  0.73176200  0.91913500  1
  O  O32  1  0.74820200  0.25179800  0.25179800  1
  O  O33  1  0.25179800  0.74820200  0.74820200  1
  O  O34  1  0.25179800  0.25179800  0.74820200  1
  O  O35  1  0.74820200  0.74820200  0.25179800  1
  O  O36  1  0.25179800  0.74820200  0.25179800  1
  O  O37  1  0.74820200  0.25179800  0.74820200  1
  O  O38  1  0.50179800  0.99820200  0.99820200  1
  O  O39  1  0.99820200  0.50179800  0.50179800  1
  O  O40  1  0.99820200  0.99820200  0.50179800  1
  O  O41  1  0.50179800  0.50179800  0.99820200  1
  O  O42  1  0.99820200  0.50179800  0.99820200  1
  O  O43  1  0.50179800  0.99820200  0.50179800  1
  O  O44  1  0.93896900  0.31103100  0.12500000  1
  O  O45  1  0.31103100  0.93896900  0.62500000  1
  O  O46  1  0.12500000  0.62500000  0.93896900  1
  O  O47  1  0.62500000  0.12500000  0.31103100  1
  O  O48  1  0.31103100  0.12500000  0.93896900  1
  O  O49  1  0.93896900  0.62500000  0.31103100  1
  O  O50  1  0.62500000  0.93896900  0.12500000  1
  O  O51  1  0.12500000  0.31103100  0.62500000  1
  O  O52  1  0.12500000  0.93896900  0.31103100  1
  O  O53  1  0.62500000  0.31103100  0.93896900  1
  O  O54  1  0.93896900  0.12500000  0.62500000  1
  O  O55  1  0.31103100  0.62500000  0.12500000  1
  O  O56  1  0.93896900  0.12500000  0.31103100  1
  O  O57  1  0.31103100  0.62500000  0.93896900  1
  O  O58  1  0.12500000  0.93896900  0.62500000  1
  O  O59  1  0.62500000  0.31103100  0.12500000  1
  O  O60  1  0.31103100  0.93896900  0.12500000  1
  O  O61  1  0.93896900  0.31103100  0.62500000  1
  O  O62  1  0.62500000  0.12500000  0.93896900  1
  O  O63  1  0.12500000  0.62500000  0.31103100  1
  O  O64  1  0.12500000  0.31103100  0.93896900  1
  O  O65  1  0.62500000  0.93896900  0.31103100  1
  O  O66  1  0.93896900  0.62500000  0.12500000  1
  O  O67  1  0.31103100  0.12500000  0.62500000  1
loop_
_geom_bond_atom_site_label_1
_geom_bond_atom_site_label_2
_geom_bond_distance
_geom_bond_site_symmetry_2
O0 Si2 1.598732 1_555
O0 Si0 1.599460 1_555
O1 Si3 1.598732 1_555
O1 Si0 1.599460 1_555
O2 Si4 1.598732 1_555
O2 Si0 1.599460 1_555
O3 Si5 1.598732 1_555
O3 Si0 1.599460 1_555
O4 Si6 1.598732 1_555
O4 Si1 1.599460 1_555
O5 Si7 1.598732 1_555
O5 Si1 1.599460 1_555
O6 Si8 1.598732 1_555
O6 Si1 1.599460 1_555
O7 Si9 1.598732 1_555
O7 Si1 1.599460 1_555
O8 Si2 1.610496 1_555
O8 Si10 1.614313 1_555
O9 Si3 1.610484 1_555
O9 Si11 1.614324 1_555
O10 Si4 1.610484 1_555
O10 Si12 1.614324 1_555
O11 Si5 1.610492 1_555
O11 Si13 1.614317 1_555
O12 Si4 1.610496 1_555
O12 Si14 1.614313 1_555
O13 Si2 1.610484 1_555
O13 Si15 1.614324 1_555
O14 Si3 1.610484 1_555
O14 Si16 1.614324 1_555
O15 Si5 1.610492 1_555
O15 Si17 1.614317 1_555
O16 Si3 1.610496 1_555
O16 Si18 1.614313 1_555
O17 Si4 1.610484 1_555
O17 Si19 1.614324 1_555
O18 Si2 1.610484 1_555
O18 Si20 1.614324 1_555
O19 Si5 1.610492 1_555
O19 Si21 1.614317 1_555
O20 Si6 1.610496 1_555
O20 Si22 1.614313 1_555
O21 Si7 1.610484 1_555
O21 Si23 1.614324 1_555
O22 Si8 1.610484 1_555
O22 Si24 1.614324 1_555
O23 Si9 1.610492 1_555
O23 Si25 1.614317 1_555
O24 Si8 1.610496 1_555
O24 Si26 1.614313 1_555
O25 Si6 1.610484 1_555
O25 Si27 1.614324 1_555
O26 Si7 1.610484 1_555
O26 Si28 1.614324 1_555
O27 Si9 1.610492 1_555
O27 Si29 1.614317 1_555
O28 Si7 1.610496 1_555
O28 Si30 1.614313 1_555
O29 Si8 1.610484 1_555
O29 Si31 1.614324 1_555
O30 Si6 1.610484 1_555
O30 Si32 1.614324 1_555
O31 Si9 1.610492 1_555
O31 Si33 1.614317 1_555
O32 Si13 1.627001 1_555
O32 Si10 1.627001 1_555
O33 Si11 1.627001 1_555
O33 Si12 1.627001 1_555
O34 Si17 1.627001 1_555
O34 Si14 1.627001 1_555
O35 Si15 1.627001 1_555
O35 Si16 1.627001 1_555
O36 Si21 1.627001 1_555
O36 Si18 1.627001 1_555
O37 Si20 1.627001 1_555
O37 Si19 1.627001 1_555
O38 Si22 1.627001 1_555
O38 Si25 1.627001 1_555
O39 Si24 1.627001 1_555
O39 Si23 1.627001 1_555
O40 Si26 1.627001 1_555
O40 Si29 1.627001 1_555
O41 Si28 1.627001 1_555
O41 Si27 1.627001 1_555
O42 Si30 1.627001 1_555
O42 Si33 1.627001 1_555
O43 Si31 1.627001 1_555
O43 Si32 1.627001 1_555
O44 Si10 1.617236 1_555
O44 Si30 1.617236 1_554
O45 Si32 1.617236 1_555
O45 Si11 1.617236 1_555
O46 Si12 1.617236 1_555
O46 Si33 1.617236 1_455
O47 Si13 1.617236 1_555
O47 Si31 1.617236 1_545
O48 Si14 1.617236 1_555
O48 Si22 1.617236 1_545
O49 Si24 1.617236 1_555
O49 Si15 1.617236 1_555
O50 Si16 1.617236 1_555
O50 Si25 1.617236 1_554
O51 Si17 1.617236 1_555
O51 Si23 1.617236 1_455
O52 Si18 1.617236 1_555
O52 Si26 1.617236 1_455
O53 Si28 1.617236 1_555
O53 Si19 1.617236 1_555
O54 Si20 1.617236 1_555
O54 Si29 1.617236 1_545
O55 Si21 1.617236 1_555
O55 Si27 1.617236 1_554
O56 Si10 1.617236 1_555
O56 Si26 1.617236 1_545
O57 Si27 1.617236 1_555
O57 Si12 1.617236 1_555
O58 Si11 1.617236 1_555
O58 Si29 1.617236 1_455
O59 Si13 1.617236 1_555
O59 Si28 1.617236 1_554
O60 Si18 1.617236 1_555
O60 Si22 1.617236 1_554
O61 Si23 1.617236 1_555
O61 Si20 1.617236 1_555
O62 Si19 1.617236 1_555
O62 Si25 1.617236 1_545
O63 Si21 1.617236 1_555
O63 Si24 1.617236 1_455
O64 Si14 1.617236 1_555
O64 Si30 1.617236 1_455
O65 Si31 1.617236 1_555
O65 Si16 1.617236 1_555
O66 Si15 1.617236 1_555
O66 Si33 1.617236 1_554
O67 Si17 1.617236 1_555
O67 Si32 1.617236 1_545
