# generated using pymatgen
data_Li5V3(NiO5)2
_symmetry_space_group_name_H-M   'P 1'
_cell_length_a   5.06970483
_cell_length_b   5.20218606
_cell_length_c   7.92562315
_cell_angle_alpha   106.96862736
_cell_angle_beta   102.66511744
_cell_angle_gamma   100.61921181
_symmetry_Int_Tables_number   1
_chemical_formula_structural   Li5V3(NiO5)2
_chemical_formula_sum   'Li5 V3 Ni2 O10'
_cell_volume   188.03236570
_cell_formula_units_Z   1
loop_
 _symmetry_equiv_pos_site_id
 _symmetry_equiv_pos_as_xyz
  1  'x, y, z'
loop_
 _atom_site_type_symbol
 _atom_site_label
 _atom_site_symmetry_multiplicity
 _atom_site_fract_x
 _atom_site_fract_y
 _atom_site_fract_z
 _atom_site_occupancy
  Li  Li0  1  0.18835500  0.93060100  0.42397000  1
  Li  Li1  1  0.38080700  0.28584400  0.76969500  1
  Li  Li2  1  0.50000000  0.50000000  0.50000000  1
  Li  Li3  1  0.61919300  0.71415600  0.23030500  1
  Li  Li4  1  0.81164500  0.06939900  0.57603000  1
  V  V0  1  0.00000000  0.50000000  0.00000000  1
  V  V1  1  0.68022500  0.89418100  0.88159400  1
  V  V2  1  0.31977500  0.10581900  0.11840600  1
  Ni  Ni0  1  0.08662800  0.67869600  0.68295900  1
  Ni  Ni1  1  0.91337200  0.32130400  0.31704100  1
  O  O0  1  0.04815000  0.10972000  0.87268100  1
  O  O1  1  0.34949000  0.73418600  0.95687400  1
  O  O2  1  0.14436100  0.30773900  0.55045900  1
  O  O3  1  0.24322900  0.46675700  0.22404400  1
  O  O4  1  0.47760300  0.90803400  0.67290000  1
  O  O5  1  0.52239700  0.09196600  0.32710000  1
  O  O6  1  0.75677100  0.53324300  0.77595600  1
  O  O7  1  0.85563900  0.69226100  0.44954100  1
  O  O8  1  0.65051000  0.26581400  0.04312600  1
  O  O9  1  0.95185000  0.89028000  0.12731900  1
loop_
_geom_bond_atom_site_label_1
_geom_bond_atom_site_label_2
_geom_bond_distance
_geom_bond_site_symmetry_2
Li0 O7 1.987300 1_455
Li0 O2 2.003810 1_565
Li0 O5 2.141127 1_565
Li0 O4 2.233060 1_555
Li0 O9 2.322237 1_455
Li0 O3 2.572875 1_555
Li1 O2 1.929138 1_555
Li1 O6 2.075799 1_555
Li1 O4 2.081526 1_545
Li1 O0 2.195572 1_555
Li1 O8 2.337039 1_556
Li1 O1 2.426115 1_555
Li2 O2 2.072696 1_555
Li2 O7 2.072696 1_555
Li2 O4 2.203558 1_555
Li2 O5 2.203558 1_555
Li2 O3 2.226156 1_555
Li2 O6 2.226156 1_555
Li3 O7 1.929138 1_555
Li3 O3 2.075799 1_555
Li3 O5 2.081526 1_565
Li3 O9 2.195572 1_555
Li3 O1 2.337039 1_554
Li3 O8 2.426115 1_555
Li4 O2 1.987300 1_655
Li4 O7 2.003810 1_545
Li4 O4 2.141127 1_545
Li4 O5 2.233060 1_555
Li4 O0 2.322237 1_655
Li4 O6 2.572875 1_555
Ni0 O7 1.988829 1_455
Ni0 O2 2.018072 1_555
Ni0 O6 2.076530 1_455
Ni0 O4 2.147514 1_555
Ni0 O1 2.189988 1_555
Ni0 O0 2.376690 1_565
Ni1 O2 1.988829 1_655
Ni1 O7 2.018072 1_555
Ni1 O3 2.076530 1_655
Ni1 O5 2.147514 1_555
Ni1 O8 2.189988 1_555
Ni1 O9 2.376690 1_545
O0 V1 2.018577 1_445
O0 V0 2.072395 1_556
O0 V2 2.132350 1_556
O1 V1 2.018502 1_555
O1 V2 2.036317 1_566
O1 V0 2.110308 1_556
O3 V2 1.967391 1_555
O3 V0 2.000299 1_555
O4 V1 1.774268 1_555
O5 V2 1.774268 1_555
O6 V1 1.967391 1_555
O6 V0 2.000299 1_656
O8 V2 2.018502 1_555
O8 V1 2.036317 1_544
O8 V0 2.110308 1_655
O9 V2 2.018577 1_665
O9 V0 2.072395 1_655
O9 V1 2.132350 1_554
