# generated using pymatgen
data_YBO3
_symmetry_space_group_name_H-M   'P 1'
_cell_length_a   3.96762275
_cell_length_b   3.96762275
_cell_length_c   8.67174700
_cell_angle_alpha   90.00000000
_cell_angle_beta   90.00000000
_cell_angle_gamma   117.37352662
_symmetry_Int_Tables_number   1
_chemical_formula_structural   YBO3
_chemical_formula_sum   'Y2 B2 O6'
_cell_volume   121.22549441
_cell_formula_units_Z   2
loop_
 _symmetry_equiv_pos_site_id
 _symmetry_equiv_pos_as_xyz
  1  'x, y, z'
loop_
 _atom_site_type_symbol
 _atom_site_label
 _atom_site_symmetry_multiplicity
 _atom_site_fract_x
 _atom_site_fract_y
 _atom_site_fract_z
 _atom_site_occupancy
  Y  Y0  1  0.05223000  0.05223000  0.00000000  1
  Y  Y1  1  0.05223000  0.05223000  0.50000000  1
  B  B0  1  0.75860700  0.50183900  0.75000000  1
  B  B1  1  0.50183900  0.75860700  0.25000000  1
  O  O0  1  0.67574600  0.33508500  0.89584900  1
  O  O1  1  0.67574600  0.33508500  0.60415100  1
  O  O2  1  0.95821100  0.89298800  0.75000000  1
  O  O3  1  0.33508500  0.67574600  0.39584900  1
  O  O4  1  0.33508500  0.67574600  0.10415100  1
  O  O5  1  0.89298800  0.95821100  0.25000000  1
loop_
_geom_bond_atom_site_label_1
_geom_bond_atom_site_label_2
_geom_bond_distance
_geom_bond_site_symmetry_2
B0 O2 1.380386 1_555
B0 O0 1.394787 1_555
B0 O1 1.394787 1_555
B1 O5 1.380386 1_555
B1 O4 1.394787 1_555
B1 O3 1.394787 1_555
O0 Y0 2.375330 1_556
O0 Y0 2.418270 1_656
O0 Y0 2.689728 1_666
O1 Y1 2.375330 1_555
O1 Y1 2.418270 1_655
O1 Y1 2.689728 1_665
O2 Y0 2.240883 1_666
O2 Y1 2.240883 1_665
O3 Y1 2.375330 1_555
O3 Y1 2.418270 1_565
O3 Y1 2.689728 1_665
O4 Y0 2.375330 1_555
O4 Y0 2.418270 1_565
O4 Y0 2.689728 1_665
O5 Y1 2.240883 1_665
O5 Y0 2.240883 1_665
