# generated using pymatgen
data_SrGe2
_symmetry_space_group_name_H-M   'P 1'
_cell_length_a   4.13190910
_cell_length_b   4.13190929
_cell_length_c   5.14788355
_cell_angle_alpha   90.00000000
_cell_angle_beta   90.00000000
_cell_angle_gamma   119.99999032
_symmetry_Int_Tables_number   1
_chemical_formula_structural   SrGe2
_chemical_formula_sum   'Sr1 Ge2'
_cell_volume   76.11336550
_cell_formula_units_Z   1
loop_
 _symmetry_equiv_pos_site_id
 _symmetry_equiv_pos_as_xyz
  1  'x, y, z'
loop_
 _atom_site_type_symbol
 _atom_site_label
 _atom_site_symmetry_multiplicity
 _atom_site_fract_x
 _atom_site_fract_y
 _atom_site_fract_z
 _atom_site_occupancy
  Sr  Sr0  1  0.00000000  0.00000000  0.00000000  1
  Ge  Ge0  1  0.66666700  0.33333300  0.59503290  1
  Ge  Ge1  1  0.33333300  0.66666700  0.40496710  1
loop_
_geom_bond_atom_site_label_1
_geom_bond_atom_site_label_2
_geom_bond_distance
_geom_bond_site_symmetry_2
Ge0 Ge1 2.578414 1_655
Ge0 Ge1 2.578414 1_545
Ge0 Ge1 2.578420 1_555
Ge0 Sr0 3.168115 1_656
Ge0 Sr0 3.168118 1_556
Ge0 Sr0 3.168118 1_666
Ge1 Sr0 3.168115 1_565
Ge1 Sr0 3.168118 1_665
Ge1 Sr0 3.168118 1_555
