# generated using pymatgen
data_FeOF
_symmetry_space_group_name_H-M   'P 1'
_cell_length_a   3.09798200
_cell_length_b   14.12264700
_cell_length_c   14.13434364
_cell_angle_alpha   89.97237838
_cell_angle_beta   90.00000000
_cell_angle_gamma   90.00000000
_symmetry_Int_Tables_number   1
_chemical_formula_structural   FeOF
_chemical_formula_sum   'Fe18 O18 F18'
_cell_volume   618.40157849
_cell_formula_units_Z   18
loop_
 _symmetry_equiv_pos_site_id
 _symmetry_equiv_pos_as_xyz
  1  'x, y, z'
loop_
 _atom_site_type_symbol
 _atom_site_label
 _atom_site_symmetry_multiplicity
 _atom_site_fract_x
 _atom_site_fract_y
 _atom_site_fract_z
 _atom_site_occupancy
  Fe  Fe0  1  0.00000000  0.99265700  0.98429900  1
  Fe  Fe1  1  0.00000000  0.32715900  0.99429500  1
  Fe  Fe2  1  0.00000000  0.67761600  0.99859700  1
  Fe  Fe3  1  0.50000000  0.16492600  0.84891300  1
  Fe  Fe4  1  0.50000000  0.48603300  0.84800400  1
  Fe  Fe5  1  0.50000000  0.82656700  0.83442000  1
  Fe  Fe6  1  0.00000000  0.00136100  0.65553700  1
  Fe  Fe7  1  0.00000000  0.33442500  0.65643700  1
  Fe  Fe8  1  0.00000000  0.67465400  0.66669200  1
  Fe  Fe9  1  0.50000000  0.50551500  0.51609400  1
  Fe  Fe10  1  0.50000000  0.14979000  0.49490300  1
  Fe  Fe11  1  0.50000000  0.83206300  0.51571600  1
  Fe  Fe12  1  0.00000000  0.00212400  0.33103200  1
  Fe  Fe13  1  0.00000000  0.32857600  0.32224400  1
  Fe  Fe14  1  0.00000000  0.66911800  0.31800400  1
  Fe  Fe15  1  0.50000000  0.18359400  0.15596200  1
  Fe  Fe16  1  0.50000000  0.49615200  0.18032400  1
  Fe  Fe17  1  0.50000000  0.84049900  0.18255000  1
  O  O0  1  0.50000000  0.27292000  0.93190400  1
  O  O1  1  0.50000000  0.92944500  0.93131700  1
  O  O2  1  0.00000000  0.10123900  0.89700100  1
  O  O3  1  0.00000000  0.43044700  0.90386300  1
  O  O4  1  0.00000000  0.76492100  0.90281900  1
  O  O5  1  0.50000000  0.73089800  0.73729700  1
  O  O6  1  0.50000000  0.59895100  0.60943400  1
  O  O7  1  0.50000000  0.93923000  0.59978800  1
  O  O8  1  0.00000000  0.09822900  0.56284600  1
  O  O9  1  0.00000000  0.43047700  0.56752200  1
  O  O10  1  0.00000000  0.76912100  0.56444300  1
  O  O11  1  0.50000000  0.06196800  0.39045400  1
  O  O12  1  0.50000000  0.26549300  0.26962600  1
  O  O13  1  0.50000000  0.60470100  0.26484300  1
  O  O14  1  0.50000000  0.94326900  0.27127300  1
  O  O15  1  0.00000000  0.43467600  0.23162400  1
  O  O16  1  0.00000000  0.77475200  0.23462600  1
  O  O17  1  0.00000000  0.23717400  0.09312900  1
  F  F0  1  0.50000000  0.59985300  0.94108800  1
  F  F1  1  0.00000000  0.23615800  0.75966700  1
  F  F2  1  0.00000000  0.55582100  0.77933900  1
  F  F3  1  0.00000000  0.90135400  0.76526200  1
  F  F4  1  0.50000000  0.07229300  0.73100800  1
  F  F5  1  0.50000000  0.39340700  0.73233200  1
  F  F6  1  0.50000000  0.26520600  0.60109500  1
  F  F7  1  0.00000000  0.23330400  0.43731200  1
  F  F8  1  0.00000000  0.56497500  0.43690300  1
  F  F9  1  0.00000000  0.89472100  0.43398900  1
  F  F10  1  0.50000000  0.39833900  0.40145200  1
  F  F11  1  0.50000000  0.73013500  0.39932800  1
  F  F12  1  0.00000000  0.10572300  0.22070000  1
  F  F13  1  0.00000000  0.56929000  0.09620800  1
  F  F14  1  0.00000000  0.90218100  0.09960300  1
  F  F15  1  0.50000000  0.06291800  0.06425800  1
  F  F16  1  0.50000000  0.40195200  0.06298500  1
  F  F17  1  0.50000000  0.73163200  0.06963800  1
loop_
_geom_bond_atom_site_label_1
_geom_bond_atom_site_label_2
_geom_bond_distance
_geom_bond_site_symmetry_2
Fe0 O1 1.938496 1_555
Fe0 O1 1.938496 1_455
Fe0 O2 1.967791 1_565
Fe1 O17 1.888059 1_556
Fe1 O3 1.939019 1_555
Fe1 O0 1.940218 1_555
Fe1 O0 1.940218 1_455
Fe2 O4 1.830652 1_555
Fe3 O2 1.915656 1_555
Fe3 O2 1.915656 1_655
Fe3 O0 1.924532 1_555
Fe4 O3 1.907457 1_555
Fe4 O3 1.907457 1_655
Fe5 O5 1.926592 1_555
Fe5 O1 1.997149 1_555
Fe5 O4 2.022664 1_555
Fe5 O4 2.022664 1_655
Fe6 O8 1.893731 1_555
Fe6 O7 1.947016 1_545
Fe6 O7 1.947016 1_445
Fe7 O9 1.848758 1_555
Fe8 O10 1.966392 1_555
Fe8 O5 2.006735 1_555
Fe8 O5 2.006735 1_455
Fe8 O6 2.048954 1_455
Fe8 O6 2.048954 1_555
Fe9 O6 1.866408 1_555
Fe9 O9 2.012475 1_655
Fe9 O9 2.012475 1_555
Fe10 O11 1.928619 1_555
Fe10 O8 1.962441 1_555
Fe10 O8 1.962441 1_655
Fe11 O10 1.913970 1_655
Fe11 O10 1.913970 1_555
Fe11 O7 1.924688 1_555
Fe12 O14 1.950478 1_545
Fe12 O14 1.950478 1_445
Fe12 O11 1.954421 1_455
Fe12 O11 1.954421 1_555
Fe13 O12 1.935674 1_555
Fe13 O12 1.935674 1_455
Fe13 O15 1.970781 1_555
Fe14 O16 1.900714 1_555
Fe14 O13 1.947371 1_455
Fe14 O13 1.947371 1_555
Fe15 O17 1.939081 1_555
Fe15 O17 1.939081 1_655
Fe15 O12 1.980061 1_555
Fe16 O15 1.917890 1_555
Fe16 O15 1.917890 1_655
Fe16 O13 1.943957 1_555
Fe17 O14 1.918565 1_555
Fe17 O16 1.950039 1_655
Fe17 O16 1.950039 1_555
F0 Fe2 2.065683 1_555
F0 Fe2 2.065683 1_655
F0 Fe4 2.077720 1_555
F1 Fe7 2.013193 1_555
F1 Fe3 2.236374 1_455
F1 Fe3 2.236374 1_555
F2 Fe4 2.076482 1_555
F2 Fe4 2.076482 1_455
F2 Fe8 2.312785 1_555
F3 Fe6 2.097122 1_565
F3 Fe5 2.114102 1_455
F3 Fe5 2.114102 1_555
F4 Fe3 2.119152 1_555
F4 Fe6 2.131155 1_655
F4 Fe6 2.131155 1_555
F5 Fe7 2.060300 1_555
F5 Fe7 2.060300 1_655
F5 Fe4 2.094351 1_555
F6 Fe7 1.991883 1_555
F6 Fe7 1.991883 1_655
F6 Fe10 2.216316 1_555
F7 Fe10 2.110009 1_555
F7 Fe10 2.110009 1_455
F7 Fe13 2.110321 1_555
F8 Fe9 2.087218 1_555
F8 Fe9 2.087218 1_455
F8 Fe14 2.232728 1_555
F9 Fe12 2.101497 1_565
F9 Fe11 2.125046 1_455
F9 Fe11 2.125046 1_555
F10 Fe13 2.150472 1_655
F10 Fe13 2.150472 1_555
F10 Fe9 2.217891 1_555
F11 Fe14 2.112854 1_555
F11 Fe14 2.112854 1_655
F11 Fe11 2.186475 1_555
F12 Fe15 2.108345 1_555
F12 Fe15 2.108345 1_455
F12 Fe12 2.137846 1_555
F13 Fe2 2.059584 1_554
F13 Fe16 2.208759 1_555
F13 Fe16 2.208759 1_455
F14 Fe0 2.070444 1_554
F14 Fe17 2.128791 1_455
F14 Fe17 2.128791 1_555
F15 Fe15 2.141663 1_555
F15 Fe0 2.159244 1_644
F15 Fe0 2.159244 1_544
F16 Fe1 2.111564 1_554
F16 Fe1 2.111564 1_654
F16 Fe16 2.126646 1_555
F17 Fe2 1.997574 1_554
F17 Fe2 1.997574 1_654
F17 Fe17 2.216587 1_555
