# generated using pymatgen
data_VO2
_symmetry_space_group_name_H-M   'P 1'
_cell_length_a   2.93799300
_cell_length_b   4.94963127
_cell_length_c   9.35738283
_cell_angle_alpha   90.03499823
_cell_angle_beta   92.41619434
_cell_angle_gamma   90.37545112
_symmetry_Int_Tables_number   1
_chemical_formula_structural   VO2
_chemical_formula_sum   'V4 O8'
_cell_volume   135.95094349
_cell_formula_units_Z   4
loop_
 _symmetry_equiv_pos_site_id
 _symmetry_equiv_pos_as_xyz
  1  'x, y, z'
loop_
 _atom_site_type_symbol
 _atom_site_label
 _atom_site_symmetry_multiplicity
 _atom_site_fract_x
 _atom_site_fract_y
 _atom_site_fract_z
 _atom_site_occupancy
  V  V0  1  0.23907300  0.57711000  0.36188200  1
  V  V1  1  0.24382500  0.91872200  0.85988500  1
  V  V2  1  0.75192900  0.41819000  0.63643000  1
  V  V3  1  0.76255900  0.07140100  0.13317000  1
  O  O0  1  0.74107600  0.70470900  0.47708600  1
  O  O1  1  0.26607300  0.20525400  0.02181000  1
  O  O2  1  0.75654300  0.79498200  0.97767400  1
  O  O3  1  0.25678100  0.28909600  0.52633400  1
  O  O4  1  0.73509800  0.11776900  0.76635300  1
  O  O5  1  0.77404900  0.39279700  0.26186800  1
  O  O6  1  0.23470100  0.89490400  0.23930100  1
  O  O7  1  0.23829200  0.61506600  0.73820800  1
loop_
_geom_bond_atom_site_label_1
_geom_bond_atom_site_label_2
_geom_bond_distance
_geom_bond_site_symmetry_2
O0 V0 1.894507 1_555
O0 V0 1.961107 1_655
O0 V2 2.057810 1_555
O1 V3 1.880918 1_555
O1 V3 1.957330 1_455
O1 V1 2.073467 1_544
O2 V1 1.931840 1_555
O2 V1 1.939562 1_655
O2 V3 1.996101 1_566
O3 V2 1.856485 1_555
O3 V2 1.951949 1_455
O3 V0 2.097586 1_555
O4 V2 1.922985 1_555
O4 V1 1.969932 1_645
O4 V1 1.977080 1_545
O5 V0 1.857290 1_655
O5 V3 1.993883 1_555
O5 V0 2.078533 1_555
O6 V3 1.890610 1_465
O6 V0 1.947126 1_555
O6 V3 2.065844 1_565
O7 V1 1.884574 1_555
O7 V2 1.940185 1_455
O7 V2 2.067168 1_555
