# generated using pymatgen
data_La3Ti3CrO12
_symmetry_space_group_name_H-M   'P 1'
_cell_length_a   9.59509879
_cell_length_b   11.06244894
_cell_length_c   11.06948316
_cell_angle_alpha   119.85758090
_cell_angle_beta   73.12337575
_cell_angle_gamma   89.90880487
_symmetry_Int_Tables_number   1
_chemical_formula_structural   La3Ti3CrO12
_chemical_formula_sum   'La12 Ti12 Cr4 O48'
_cell_volume   959.89367050
_cell_formula_units_Z   4
loop_
 _symmetry_equiv_pos_site_id
 _symmetry_equiv_pos_as_xyz
  1  'x, y, z'
loop_
 _atom_site_type_symbol
 _atom_site_label
 _atom_site_symmetry_multiplicity
 _atom_site_fract_x
 _atom_site_fract_y
 _atom_site_fract_z
 _atom_site_occupancy
  La  La0  1  0.39001600  0.19278200  0.86981300  1
  La  La1  1  0.89008400  0.44283400  0.36984000  1
  La  La2  1  0.39006400  0.69279000  0.86979900  1
  La  La3  1  0.89009000  0.94282400  0.36982400  1
  La  La4  1  0.61953400  0.31801200  0.13024700  1
  La  La5  1  0.11950900  0.56797600  0.63020700  1
  La  La6  1  0.61952000  0.81800800  0.13025900  1
  La  La7  1  0.11951000  0.06796800  0.63019500  1
  La  La8  1  0.86302700  0.94139600  0.87822000  1
  La  La9  1  0.36304400  0.19137200  0.37822600  1
  La  La10  1  0.86304100  0.44139900  0.87822800  1
  La  La11  1  0.36305500  0.69137900  0.37820900  1
  Ti  Ti0  1  0.25143400  0.88201000  0.75642300  1
  Ti  Ti1  1  0.75145100  0.13202700  0.25643600  1
  Ti  Ti2  1  0.25142800  0.38201600  0.75643000  1
  Ti  Ti3  1  0.75145800  0.63202400  0.25644100  1
  Ti  Ti4  1  0.49443500  0.99932600  0.99786900  1
  Ti  Ti5  1  0.99445700  0.24934700  0.49788700  1
  Ti  Ti6  1  0.49442500  0.49931400  0.99786100  1
  Ti  Ti7  1  0.99447000  0.74933800  0.49787800  1
  Ti  Ti8  1  0.00843400  0.25627600  0.00772700  1
  Ti  Ti9  1  0.50845200  0.50625900  0.50772000  1
  Ti  Ti10  1  0.00843800  0.75628000  0.00772200  1
  Ti  Ti11  1  0.50844900  0.00625800  0.50771400  1
  Cr  Cr0  1  0.24977100  0.37447600  0.24813400  1
  Cr  Cr1  1  0.74969800  0.62456300  0.74827400  1
  Cr  Cr2  1  0.24979100  0.87447200  0.24812100  1
  Cr  Cr3  1  0.74966600  0.12456100  0.74827100  1
  O  O0  1  0.37126400  0.97055600  0.87576600  1
  O  O1  1  0.87126300  0.22055100  0.37576500  1
  O  O2  1  0.37126700  0.47056000  0.87576600  1
  O  O3  1  0.87126200  0.72055500  0.37576600  1
  O  O4  1  0.38419000  0.18877500  0.63317200  1
  O  O5  1  0.88419700  0.43879500  0.13317500  1
  O  O6  1  0.38418900  0.68877500  0.63317000  1
  O  O7  1  0.88419700  0.93879700  0.13317500  1
  O  O8  1  0.61505400  0.31175800  0.86551600  1
  O  O9  1  0.11503000  0.56174700  0.36548300  1
  O  O10  1  0.61505800  0.81174800  0.86551600  1
  O  O11  1  0.11502500  0.06173100  0.36550000  1
  O  O12  1  0.15240600  0.29195500  0.86974800  1
  O  O13  1  0.65240200  0.54195500  0.36975600  1
  O  O14  1  0.15240900  0.79195200  0.86974500  1
  O  O15  1  0.65240200  0.04195600  0.36975100  1
  O  O16  1  0.37958400  0.41235300  0.09880500  1
  O  O17  1  0.87966900  0.66225200  0.59869100  1
  O  O18  1  0.37958800  0.91235200  0.09880200  1
  O  O19  1  0.87966800  0.16224600  0.59868300  1
  O  O20  1  0.61824900  0.03926900  0.62708900  1
  O  O21  1  0.11829800  0.28925800  0.12706000  1
  O  O22  1  0.61827600  0.53929900  0.62711000  1
  O  O23  1  0.11828500  0.78924800  0.12704700  1
  O  O24  1  0.37933500  0.46931600  0.37074800  1
  O  O25  1  0.87929400  0.71926600  0.87081600  1
  O  O26  1  0.37933200  0.96931800  0.37075000  1
  O  O27  1  0.87929800  0.21930100  0.87079400  1
  O  O28  1  0.63360300  0.08517200  0.90451600  1
  O  O29  1  0.13357500  0.33518500  0.40451500  1
  O  O30  1  0.63360500  0.58516300  0.90451300  1
  O  O31  1  0.13357800  0.83517900  0.40450500  1
  O  O32  1  0.84681600  0.18428500  0.11186100  1
  O  O33  1  0.34681800  0.43428000  0.61185600  1
  O  O34  1  0.84680700  0.68429000  0.11187400  1
  O  O35  1  0.34680200  0.93428600  0.61187200  1
  O  O36  1  0.39359800  0.19350500  0.14922200  1
  O  O37  1  0.89360000  0.44349400  0.64921800  1
  O  O38  1  0.39360100  0.69350800  0.14922300  1
  O  O39  1  0.89358700  0.94349600  0.64922400  1
  O  O40  1  0.59675600  0.29429000  0.35729600  1
  O  O41  1  0.09676100  0.54428600  0.85729400  1
  O  O42  1  0.59673400  0.79429100  0.35730900  1
  O  O43  1  0.09676200  0.04428400  0.85729300  1
  O  O44  1  0.62671900  0.53330800  0.12355000  1
  O  O45  1  0.12672100  0.78328800  0.62352300  1
  O  O46  1  0.62672000  0.03329200  0.12352400  1
  O  O47  1  0.12672100  0.28330600  0.62354900  1
loop_
_geom_bond_atom_site_label_1
_geom_bond_atom_site_label_2
_geom_bond_distance
_geom_bond_site_symmetry_2
La0 O16 2.461041 1_556
La0 O0 2.497217 1_545
La0 O12 2.528893 1_555
La0 O8 2.531544 1_555
La0 O4 2.614623 1_555
La0 O20 2.631994 1_555
La0 O28 2.827572 1_555
La0 O21 2.949508 1_556
La0 O35 3.010523 1_545
La0 O2 3.044534 1_555
La0 O36 3.099105 1_556
La0 O43 3.263398 1_555
La1 O17 2.459458 1_555
La1 O1 2.497736 1_555
La1 O13 2.529368 1_555
La1 O9 2.530445 1_655
La1 O5 2.614901 1_555
La1 O21 2.632275 1_655
La1 O29 2.826804 1_655
La1 O22 2.950178 1_555
La1 O32 3.011235 1_555
La1 O3 3.044089 1_555
La1 O37 3.098915 1_555
La1 O40 3.264277 1_555
La2 O18 2.460948 1_556
La2 O2 2.497366 1_555
La2 O14 2.529172 1_555
La2 O10 2.531075 1_555
La2 O6 2.614594 1_555
La2 O22 2.631676 1_555
La2 O30 2.827353 1_555
La2 O23 2.949891 1_556
La2 O33 3.010735 1_555
La2 O0 3.044349 1_555
La2 O38 3.099168 1_556
La2 O41 3.263835 1_555
La3 O19 2.459508 1_565
La3 O3 2.497679 1_555
La3 O15 2.529414 1_565
La3 O11 2.530309 1_665
La3 O7 2.614805 1_555
La3 O23 2.632162 1_655
La3 O31 2.826796 1_655
La3 O20 2.950367 1_565
La3 O34 3.011050 1_555
La3 O1 3.044075 1_565
La3 O39 3.099039 1_555
La3 O42 3.264439 1_555
La4 O44 2.419939 1_555
La4 O28 2.508207 1_554
La4 O32 2.533376 1_555
La4 O36 2.583426 1_555
La4 O40 2.602180 1_555
La4 O24 2.681264 1_555
La4 O13 2.685894 1_555
La4 O16 2.707472 1_555
La4 O5 2.872408 1_555
La4 O27 2.892330 1_554
La4 O8 2.909530 1_554
La4 O46 3.113494 1_555
La5 O45 2.420047 1_555
La5 O29 2.507723 1_555
La5 O33 2.533585 1_555
La5 O37 2.583097 1_455
La5 O41 2.602448 1_555
La5 O25 2.681849 1_455
La5 O14 2.686356 1_555
La5 O17 2.706678 1_455
La5 O6 2.872649 1_555
La5 O24 2.892774 1_555
La5 O9 2.909582 1_555
La5 O47 3.113294 1_555
La6 O46 2.420025 1_565
La6 O30 2.508278 1_554
La6 O34 2.533367 1_555
La6 O38 2.583236 1_555
La6 O42 2.602144 1_555
La6 O26 2.681164 1_555
La6 O15 2.685867 1_565
La6 O18 2.707428 1_555
La6 O7 2.872553 1_555
La6 O25 2.892283 1_554
La6 O10 2.909579 1_554
La6 O44 3.113350 1_555
La7 O47 2.420119 1_555
La7 O31 2.507697 1_545
La7 O35 2.533507 1_545
La7 O39 2.583163 1_445
La7 O43 2.602530 1_555
La7 O27 2.681845 1_455
La7 O12 2.686487 1_555
La7 O19 2.706680 1_455
La7 O4 2.872695 1_555
La7 O26 2.892680 1_545
La7 O11 2.909237 1_555
La7 O45 3.113329 1_545
La8 O25 2.420792 1_555
La8 O39 2.477732 1_555
La8 O43 2.519504 1_665
La8 O28 2.572201 1_565
La8 O32 2.603569 1_566
La8 O46 2.686475 1_566
La8 O10 2.782462 1_555
La8 O45 2.888572 1_655
La8 O7 2.901835 1_556
La8 O17 3.055048 1_555
La8 O27 3.119009 1_565
La8 O14 3.182989 1_655
La9 O26 2.419573 1_545
La9 O36 2.478020 1_555
La9 O40 2.519481 1_555
La9 O29 2.572820 1_555
La9 O33 2.603593 1_555
La9 O47 2.686628 1_555
La9 O11 2.782852 1_555
La9 O46 2.888456 1_555
La9 O4 2.901643 1_555
La9 O18 3.054008 1_545
La9 O24 3.119737 1_555
La9 O15 3.182635 1_555
La10 O27 2.420271 1_555
La10 O37 2.477859 1_555
La10 O41 2.519379 1_655
La10 O30 2.572275 1_555
La10 O34 2.603556 1_556
La10 O44 2.686652 1_556
La10 O8 2.782578 1_555
La10 O47 2.888389 1_655
La10 O5 2.901726 1_556
La10 O19 3.055221 1_555
La10 O25 3.118503 1_555
La10 O12 3.182822 1_655
La11 O24 2.419750 1_555
La11 O38 2.477813 1_555
La11 O42 2.519155 1_555
La11 O31 2.572768 1_555
La11 O35 2.603696 1_555
La11 O45 2.686664 1_555
La11 O9 2.782853 1_555
La11 O44 2.888176 1_555
La11 O6 2.901806 1_555
La11 O16 3.053967 1_555
La11 O26 3.119570 1_555
La11 O13 3.182706 1_555
Cr0 O16 1.988781 1_555
Cr0 O9 1.996889 1_555
Cr0 O21 2.000932 1_555
Cr0 O36 2.010619 1_555
Cr0 O24 2.013559 1_555
Cr0 O29 2.014605 1_555
Cr1 O17 1.990186 1_555
Cr1 O10 1.995832 1_555
Cr1 O22 2.001214 1_555
Cr1 O37 2.011543 1_555
Cr1 O25 2.013054 1_555
Cr1 O30 2.013815 1_555
Cr2 O18 1.988659 1_555
Cr2 O11 1.996886 1_565
Cr2 O23 2.001202 1_555
Cr2 O38 2.010500 1_555
Cr2 O26 2.013491 1_555
Cr2 O31 2.014696 1_555
Cr3 O19 1.990315 1_555
Cr3 O8 1.995802 1_555
Cr3 O20 2.001341 1_555
Cr3 O39 2.011622 1_545
Cr3 O27 2.013286 1_555
Cr3 O28 2.013703 1_555
O0 Ti0 1.903617 1_555
O0 Ti4 1.955828 1_555
O1 Ti1 1.903342 1_555
O1 Ti5 1.956119 1_555
O2 Ti2 1.903636 1_555
O2 Ti6 1.955690 1_555
O3 Ti3 1.903266 1_555
O3 Ti7 1.956166 1_555
O4 Ti11 1.914651 1_555
O4 Ti2 2.032780 1_555
O5 Ti8 1.914577 1_655
O5 Ti3 2.032587 1_555
O6 Ti9 1.914657 1_555
O6 Ti0 2.032705 1_555
O7 Ti10 1.914579 1_655
O7 Ti1 2.032626 1_565
O8 Ti6 1.942192 1_555
O9 Ti7 1.942239 1_455
O10 Ti4 1.942343 1_555
O11 Ti5 1.942454 1_455
O12 Ti8 1.942639 1_556
O12 Ti2 2.006029 1_555
O13 Ti9 1.942536 1_555
O13 Ti3 2.006172 1_555
O14 Ti10 1.942573 1_556
O14 Ti0 2.006043 1_555
O15 Ti11 1.942556 1_555
O15 Ti1 2.006170 1_555
O16 Ti6 1.935719 1_554
O17 Ti7 1.935695 1_555
O18 Ti4 1.935775 1_554
O19 Ti5 1.935655 1_555
O20 Ti11 1.821683 1_555
O21 Ti8 1.821850 1_555
O22 Ti9 1.821946 1_555
O23 Ti10 1.821676 1_555
O24 Ti9 2.115668 1_555
O25 Ti10 2.115168 1_656
O26 Ti11 2.115603 1_565
O27 Ti8 2.115414 1_656
O28 Ti4 1.983128 1_545
O29 Ti5 1.982930 1_455
O30 Ti6 1.983182 1_555
O31 Ti7 1.982911 1_455
O32 Ti1 1.950715 1_555
O32 Ti8 2.061038 1_655
O33 Ti2 1.950808 1_555
O33 Ti9 2.061052 1_555
O34 Ti3 1.950668 1_555
O34 Ti10 2.061211 1_655
O35 Ti0 1.950641 1_555
O35 Ti11 2.061204 1_565
O36 Ti4 1.956063 1_544
O37 Ti5 1.955832 1_555
O38 Ti6 1.956161 1_554
O39 Ti7 1.956002 1_555
O40 Ti1 1.925011 1_555
O40 Ti9 2.067814 1_555
O41 Ti2 1.924895 1_555
O41 Ti10 2.068054 1_556
O42 Ti3 1.925197 1_555
O42 Ti11 2.067741 1_565
O43 Ti0 1.924945 1_545
O43 Ti8 2.068054 1_556
O44 Ti6 2.048042 1_554
O44 Ti3 2.053279 1_555
O45 Ti7 2.047406 1_455
O45 Ti0 2.053155 1_555
O46 Ti4 2.047730 1_544
O46 Ti1 2.053400 1_555
O47 Ti5 2.047637 1_455
O47 Ti2 2.052956 1_555
