# generated using pymatgen
data_Na4Co3P4(H3O4)6
_symmetry_space_group_name_H-M   'P 1'
_cell_length_a   9.25665900
_cell_length_b   7.42932700
_cell_length_c   15.29639004
_cell_angle_alpha   84.48507193
_cell_angle_beta   90.00000000
_cell_angle_gamma   90.00000000
_symmetry_Int_Tables_number   1
_chemical_formula_structural   Na4Co3P4(H3O4)6
_chemical_formula_sum   'Na8 Co6 P8 H36 O48'
_cell_volume   1047.07491723
_cell_formula_units_Z   2
loop_
 _symmetry_equiv_pos_site_id
 _symmetry_equiv_pos_as_xyz
  1  'x, y, z'
loop_
 _atom_site_type_symbol
 _atom_site_label
 _atom_site_symmetry_multiplicity
 _atom_site_fract_x
 _atom_site_fract_y
 _atom_site_fract_z
 _atom_site_occupancy
  Na  Na0  1  0.60795900  0.45143500  0.21703000  1
  Na  Na1  1  0.10795900  0.54856500  0.28297000  1
  Na  Na2  1  0.39204100  0.54856500  0.78297000  1
  Na  Na3  1  0.89204100  0.45143500  0.71703000  1
  Na  Na4  1  0.51539300  0.74057100  0.37020300  1
  Na  Na5  1  0.01539300  0.25942900  0.12979700  1
  Na  Na6  1  0.48460700  0.25942900  0.62979700  1
  Na  Na7  1  0.98460700  0.74057100  0.87020300  1
  Co  Co0  1  0.50000000  0.50000000  0.00000000  1
  Co  Co1  1  0.00000000  0.50000000  0.50000000  1
  Co  Co2  1  0.73988000  0.97253900  0.00390200  1
  Co  Co3  1  0.23988000  0.02746100  0.49609800  1
  Co  Co4  1  0.26012000  0.02746100  0.99609800  1
  Co  Co5  1  0.76012000  0.97253900  0.50390200  1
  P  P0  1  0.52377600  0.89724100  0.88276500  1
  P  P1  1  0.02377600  0.10275900  0.61723500  1
  P  P2  1  0.47622400  0.10275900  0.11723500  1
  P  P3  1  0.97622400  0.89724100  0.38276500  1
  P  P4  1  0.97712400  0.24670400  0.92726400  1
  P  P5  1  0.47712400  0.75329600  0.57273600  1
  P  P6  1  0.02287600  0.75329600  0.07273600  1
  P  P7  1  0.52287600  0.24670400  0.42726400  1
  H  H0  1  0.50410700  0.12070000  0.30089600  1
  H  H1  1  0.00410700  0.87930000  0.19910400  1
  H  H2  1  0.49589300  0.87930000  0.69910400  1
  H  H3  1  0.99589300  0.12070000  0.80089600  1
  H  H4  1  0.65870400  0.83846900  0.20099900  1
  H  H5  1  0.15870400  0.16153100  0.29900100  1
  H  H6  1  0.34129600  0.16153100  0.79900100  1
  H  H7  1  0.84129600  0.83846900  0.70099900  1
  H  H8  1  0.71863900  0.76876800  0.76722400  1
  H  H9  1  0.21863900  0.23123200  0.73277600  1
  H  H10  1  0.28136100  0.23123200  0.23277600  1
  H  H11  1  0.78136100  0.76876800  0.26722400  1
  H  H12  1  0.75414200  0.13784900  0.68317700  1
  H  H13  1  0.25414200  0.86215100  0.81682300  1
  H  H14  1  0.24585800  0.86215100  0.31682300  1
  H  H15  1  0.74585800  0.13784900  0.18317700  1
  H  H16  1  0.68807700  0.14435900  0.77757300  1
  H  H17  1  0.18807700  0.85564100  0.72242700  1
  H  H18  1  0.31192300  0.85564100  0.22242700  1
  H  H19  1  0.81192300  0.14435900  0.27757300  1
  H  H20  1  0.74321100  0.36305500  0.54314300  1
  H  H21  1  0.24321100  0.63694500  0.95685700  1
  H  H22  1  0.25678900  0.63694500  0.45685700  1
  H  H23  1  0.75678900  0.36305500  0.04314300  1
  H  H24  1  0.73585200  0.57360600  0.55277900  1
  H  H25  1  0.23585200  0.42639400  0.94722100  1
  H  H26  1  0.26414800  0.42639400  0.44722100  1
  H  H27  1  0.76414800  0.57360600  0.05277900  1
  H  H28  1  0.60124700  0.27543500  0.88755100  1
  H  H29  1  0.10124700  0.72456500  0.61244900  1
  H  H30  1  0.39875300  0.72456500  0.11244900  1
  H  H31  1  0.89875300  0.27543500  0.38755100  1
  H  H32  1  0.69241500  0.45294900  0.87359500  1
  H  H33  1  0.19241500  0.54705100  0.62640500  1
  H  H34  1  0.30758500  0.54705100  0.12640500  1
  H  H35  1  0.80758500  0.45294900  0.37359500  1
  O  O0  1  0.94203200  0.42515100  0.87519200  1
  O  O1  1  0.44203200  0.57484900  0.62480800  1
  O  O2  1  0.05796800  0.57484900  0.12480800  1
  O  O3  1  0.55796800  0.42515100  0.37519200  1
  O  O4  1  0.86709400  0.19503100  0.00264200  1
  O  O5  1  0.36709400  0.80496900  0.49735800  1
  O  O6  1  0.13290600  0.80496900  0.99735800  1
  O  O7  1  0.63290600  0.19503100  0.50264200  1
  O  O8  1  0.55468000  0.76337200  0.96476200  1
  O  O9  1  0.05468000  0.23662800  0.53523800  1
  O  O10  1  0.44532000  0.23662800  0.03523800  1
  O  O11  1  0.94532000  0.76337200  0.46476200  1
  O  O12  1  0.63146900  0.01930500  0.11427600  1
  O  O13  1  0.13146900  0.98069500  0.38572400  1
  O  O14  1  0.36853100  0.98069500  0.88572400  1
  O  O15  1  0.86853100  0.01930500  0.61427600  1
  O  O16  1  0.63939900  0.05046900  0.88917400  1
  O  O17  1  0.13939900  0.94953100  0.61082600  1
  O  O18  1  0.36060100  0.94953100  0.11082600  1
  O  O19  1  0.86060100  0.05046900  0.38917400  1
  O  O20  1  0.86870500  0.75494700  0.02982900  1
  O  O21  1  0.36870500  0.24505300  0.47017100  1
  O  O22  1  0.13129500  0.24505300  0.97017100  1
  O  O23  1  0.63129500  0.75494700  0.52982900  1
  O  O24  1  0.54102400  0.81043000  0.79588400  1
  O  O25  1  0.04102400  0.18957000  0.70411600  1
  O  O26  1  0.45897600  0.18957000  0.20411600  1
  O  O27  1  0.95897600  0.81043000  0.29588400  1
  O  O28  1  0.97018300  0.08400000  0.86539900  1
  O  O29  1  0.47018300  0.91600000  0.63460100  1
  O  O30  1  0.02981700  0.91600000  0.13460100  1
  O  O31  1  0.52981700  0.08400000  0.36539900  1
  O  O32  1  0.67838200  0.74800300  0.25141000  1
  O  O33  1  0.17838200  0.25199700  0.24859000  1
  O  O34  1  0.32161800  0.25199700  0.74859000  1
  O  O35  1  0.82161800  0.74800300  0.75141000  1
  O  O36  1  0.69632100  0.21461000  0.71959800  1
  O  O37  1  0.19632100  0.78539000  0.78040200  1
  O  O38  1  0.30367900  0.78539000  0.28040200  1
  O  O39  1  0.80367900  0.21461000  0.21959800  1
  O  O40  1  0.70149000  0.46380800  0.06576700  1
  O  O41  1  0.20149000  0.53619200  0.43423300  1
  O  O42  1  0.29851000  0.53619200  0.93423300  1
  O  O43  1  0.79851000  0.46380800  0.56576700  1
  O  O44  1  0.59206100  0.41055800  0.87996200  1
  O  O45  1  0.09206100  0.58944200  0.62003800  1
  O  O46  1  0.40793900  0.58944200  0.12003800  1
  O  O47  1  0.90793900  0.41055800  0.37996200  1
loop_
_geom_bond_atom_site_label_1
_geom_bond_atom_site_label_2
_geom_bond_distance
_geom_bond_site_symmetry_2
Na0 O32 2.403904 1_555
Na0 O26 2.408248 1_555
Na0 O3 2.452450 1_555
Na0 O40 2.463883 1_555
Na0 O39 2.523139 1_555
Na0 O46 2.527473 1_555
Na1 O33 2.403904 1_555
Na1 O27 2.408248 1_455
Na1 O2 2.452450 1_555
Na1 O41 2.463883 1_555
Na1 O38 2.523139 1_555
Na1 O47 2.527473 1_455
Na2 O34 2.403904 1_555
Na2 O24 2.408248 1_555
Na2 O1 2.452450 1_555
Na2 O42 2.463883 1_555
Na2 O37 2.523139 1_555
Na2 O44 2.527473 1_555
Na3 O35 2.403904 1_555
Na3 O25 2.408248 1_655
Na3 O0 2.452450 1_555
Na3 O43 2.463883 1_555
Na3 O36 2.523139 1_555
Na3 O45 2.527473 1_655
Na4 O32 2.358370 1_555
Na4 O3 2.370252 1_555
Na4 O38 2.398019 1_555
Na4 O5 2.464810 1_555
Na4 O31 2.548935 1_565
Na4 O23 2.678522 1_555
Na5 O33 2.358370 1_555
Na5 O2 2.370252 1_555
Na5 O39 2.398019 1_455
Na5 O4 2.464810 1_455
Na5 O30 2.548935 1_545
Na5 O22 2.678522 1_554
Na6 O34 2.358370 1_555
Na6 O1 2.370252 1_555
Na6 O36 2.398019 1_555
Na6 O7 2.464810 1_555
Na6 O29 2.548935 1_545
Na6 O21 2.678522 1_555
Na7 O35 2.358370 1_555
Na7 O0 2.370252 1_555
Na7 O37 2.398019 1_655
Na7 O6 2.464810 1_655
Na7 O28 2.548935 1_565
Na7 O20 2.678522 1_556
Co0 O10 2.042692 1_555
Co0 O8 2.042692 1_554
Co0 O40 2.123917 1_555
Co0 O42 2.123917 1_554
Co0 O44 2.184883 1_554
Co0 O46 2.184883 1_555
Co1 O11 2.042692 1_455
Co1 O9 2.042692 1_555
Co1 O43 2.123917 1_455
Co1 O41 2.123917 1_555
Co1 O47 2.184883 1_455
Co1 O45 2.184883 1_555
Co2 O20 2.017265 1_555
Co2 O16 2.021086 1_564
Co2 O12 2.022612 1_565
Co2 O4 2.028110 1_565
Co2 O8 2.427144 1_554
Co3 O21 2.017265 1_555
Co3 O17 2.021086 1_545
Co3 O13 2.022612 1_545
Co3 O5 2.028110 1_545
Co3 O9 2.427144 1_555
Co4 O22 2.017265 1_555
Co4 O18 2.021086 1_546
Co4 O14 2.022612 1_545
Co4 O6 2.028110 1_545
Co4 O10 2.427144 1_556
Co5 O23 2.017265 1_555
Co5 O19 2.021086 1_565
Co5 O15 2.022612 1_565
Co5 O7 2.028110 1_565
Co5 O11 2.427144 1_555
H0 O31 1.026049 1_555
H0 O26 1.575521 1_555
H1 O30 1.026049 1_555
H1 O27 1.575521 1_455
H2 O29 1.026049 1_555
H2 O24 1.575521 1_555
H3 O28 1.026049 1_555
H3 O25 1.575521 1_655
H4 O32 0.989894 1_555
H5 O33 0.989894 1_555
H6 O34 0.989894 1_555
H7 O35 0.989894 1_555
H8 O35 0.999077 1_555
H8 O24 1.737012 1_555
H9 O34 0.999077 1_555
H9 O25 1.737012 1_555
H10 O33 0.999077 1_555
H10 O26 1.737012 1_555
H11 O32 0.999077 1_555
H11 O27 1.737012 1_555
H12 O36 0.991530 1_555
H13 O37 0.991530 1_555
H14 O38 0.991530 1_555
H15 O39 0.991530 1_555
H16 O36 0.987769 1_555
H17 O37 0.987769 1_555
H18 O38 0.987769 1_555
H19 O39 0.987769 1_555
H20 O43 0.995926 1_555
H20 O7 1.770105 1_555
H21 O42 0.995926 1_555
H21 O6 1.770105 1_555
H22 O41 0.995926 1_555
H22 O5 1.770105 1_555
H23 O40 0.995926 1_555
H23 O4 1.770105 1_555
H24 O43 1.005053 1_555
H24 O23 1.668569 1_555
H25 O42 1.005053 1_555
H25 O22 1.668569 1_555
H26 O41 1.005053 1_555
H26 O21 1.668569 1_555
H27 O40 1.005053 1_555
H27 O20 1.668569 1_555
H28 O44 1.003029 1_555
H28 O16 1.706095 1_555
H29 O45 1.003029 1_555
H29 O17 1.706095 1_555
H30 O46 1.003029 1_555
H30 O18 1.706095 1_555
H31 O47 1.003029 1_555
H31 O19 1.706095 1_555
H32 O44 0.982705 1_555
H33 O45 0.982705 1_555
H34 O46 0.982705 1_555
H35 O47 0.982705 1_555
O0 P4 1.514785 1_555
O1 P5 1.514785 1_555
O2 P6 1.514785 1_555
O3 P7 1.514785 1_555
O4 P4 1.558555 1_554
O5 P5 1.558555 1_555
O6 P6 1.558555 1_556
O7 P7 1.558555 1_555
O8 P0 1.550604 1_555
O9 P1 1.550604 1_555
O10 P2 1.550604 1_555
O11 P3 1.550604 1_555
O12 P2 1.567471 1_555
O13 P3 1.567471 1_455
O14 P0 1.567471 1_555
O15 P1 1.567471 1_655
O16 P0 1.572411 1_545
O17 P1 1.572411 1_565
O18 P2 1.572411 1_565
O19 P3 1.572411 1_545
O20 P6 1.570350 1_655
O21 P7 1.570350 1_555
O22 P4 1.570350 1_455
O23 P5 1.570350 1_555
O24 P0 1.540241 1_555
O25 P1 1.540241 1_555
O26 P2 1.540241 1_555
O27 P3 1.540241 1_555
O28 P4 1.606440 1_555
O29 P5 1.606440 1_555
O30 P6 1.606440 1_555
O31 P7 1.606440 1_555
