# generated using pymatgen
data_Li3Bi(BO3)2
_symmetry_space_group_name_H-M   'P 1'
_cell_length_a   8.39667000
_cell_length_b   6.37794400
_cell_length_c   11.50710348
_cell_angle_alpha   62.62190143
_cell_angle_beta   90.00000000
_cell_angle_gamma   90.00000000
_symmetry_Int_Tables_number   1
_chemical_formula_structural   Li3Bi(BO3)2
_chemical_formula_sum   'Li12 Bi4 B8 O24'
_cell_volume   547.22065709
_cell_formula_units_Z   4
loop_
 _symmetry_equiv_pos_site_id
 _symmetry_equiv_pos_as_xyz
  1  'x, y, z'
loop_
 _atom_site_type_symbol
 _atom_site_label
 _atom_site_symmetry_multiplicity
 _atom_site_fract_x
 _atom_site_fract_y
 _atom_site_fract_z
 _atom_site_occupancy
  Li  Li0  1  0.73193700  0.55979600  0.86868000  1
  Li  Li1  1  0.79507800  0.01412600  0.42756700  1
  Li  Li2  1  0.56105600  0.70582000  0.61806200  1
  Li  Li3  1  0.06105600  0.29418000  0.88193800  1
  Li  Li4  1  0.23193700  0.44020400  0.63132000  1
  Li  Li5  1  0.70492200  0.01412600  0.92756700  1
  Li  Li6  1  0.29507800  0.98587400  0.07243300  1
  Li  Li7  1  0.76806300  0.55979600  0.36868000  1
  Li  Li8  1  0.93894400  0.70582000  0.11806200  1
  Li  Li9  1  0.43894400  0.29418000  0.38193800  1
  Li  Li10  1  0.20492200  0.98587400  0.57243300  1
  Li  Li11  1  0.26806300  0.44020400  0.13132000  1
  Bi  Bi0  1  0.62327700  0.10092300  0.16728500  1
  Bi  Bi1  1  0.12327700  0.89907700  0.33271500  1
  Bi  Bi2  1  0.87672300  0.10092300  0.66728500  1
  Bi  Bi3  1  0.37672300  0.89907700  0.83271500  1
  B  B0  1  0.90387900  0.62740300  0.63708100  1
  B  B1  1  0.95008300  0.19765300  0.10166600  1
  B  B2  1  0.40387900  0.37259700  0.86291900  1
  B  B3  1  0.45008300  0.80234700  0.39833400  1
  B  B4  1  0.54991700  0.19765300  0.60166600  1
  B  B5  1  0.59612100  0.62740300  0.13708100  1
  B  B6  1  0.04991700  0.80234700  0.89833400  1
  B  B7  1  0.09612100  0.37259700  0.36291900  1
  O  O0  1  0.78215400  0.71354800  0.68582800  1
  O  O1  1  0.46659600  0.59872000  0.79044700  1
  O  O2  1  0.96089200  0.77383000  0.51368900  1
  O  O3  1  0.84197100  0.27829500  0.99874800  1
  O  O4  1  0.89405800  0.13790100  0.22924900  1
  O  O5  1  0.46089200  0.22617000  0.98631100  1
  O  O6  1  0.10781200  0.15468400  0.08625500  1
  O  O7  1  0.60781200  0.84531600  0.41374500  1
  O  O8  1  0.39405800  0.86209900  0.27075100  1
  O  O9  1  0.34197100  0.72170500  0.50125200  1
  O  O10  1  0.96659600  0.40128000  0.70955300  1
  O  O11  1  0.28215400  0.28645200  0.81417200  1
  O  O12  1  0.71784600  0.71354800  0.18582800  1
  O  O13  1  0.03340400  0.59872000  0.29044700  1
  O  O14  1  0.65802900  0.27829500  0.49874800  1
  O  O15  1  0.60594200  0.13790100  0.72924900  1
  O  O16  1  0.39218800  0.15468400  0.58625500  1
  O  O17  1  0.89218800  0.84531600  0.91374500  1
  O  O18  1  0.53910800  0.77383000  0.01368900  1
  O  O19  1  0.10594200  0.86209900  0.77075100  1
  O  O20  1  0.15802900  0.72170500  0.00125200  1
  O  O21  1  0.03910800  0.22617000  0.48631100  1
  O  O22  1  0.53340400  0.40128000  0.20955300  1
  O  O23  1  0.21784600  0.28645200  0.31417200  1
loop_
_geom_bond_atom_site_label_1
_geom_bond_atom_site_label_2
_geom_bond_distance
_geom_bond_site_symmetry_2
Li0 O0 1.915452 1_555
Li0 O3 1.961059 1_555
Li0 O1 2.372848 1_555
Li0 O17 2.502829 1_555
Li1 O7 1.953066 1_545
Li1 O2 1.967872 1_545
Li1 O4 2.205640 1_555
Li1 O14 2.470452 1_555
Li2 O1 1.945339 1_555
Li2 O0 2.022967 1_555
Li2 O7 2.132958 1_555
Li2 O9 2.252956 1_555
Li3 O10 1.945339 1_455
Li3 O11 2.022967 1_555
Li3 O6 2.132958 1_556
Li3 O3 2.252956 1_455
Li4 O11 1.915452 1_555
Li4 O9 1.961059 1_555
Li4 O10 2.372848 1_455
Li4 O16 2.502829 1_555
Li5 O17 1.953066 1_545
Li5 O18 1.967872 1_546
Li5 O15 2.205640 1_555
Li5 O3 2.470452 1_555
Li6 O6 1.953066 1_565
Li6 O5 1.967872 1_564
Li6 O8 2.205640 1_555
Li6 O20 2.470452 1_555
Li7 O12 1.915452 1_555
Li7 O14 1.961059 1_555
Li7 O13 2.372848 1_655
Li7 O7 2.502829 1_555
Li8 O13 1.945339 1_655
Li8 O12 2.022967 1_555
Li8 O17 2.132958 1_554
Li8 O20 2.252956 1_655
Li9 O22 1.945339 1_555
Li9 O23 2.022967 1_555
Li9 O16 2.132958 1_555
Li9 O14 2.252956 1_555
Li10 O16 1.953066 1_565
Li10 O21 1.967872 1_565
Li10 O19 2.205640 1_555
Li10 O9 2.470452 1_555
Li11 O23 1.915452 1_555
Li11 O20 1.961059 1_555
Li11 O22 2.372848 1_555
Li11 O6 2.502829 1_555
Bi0 O5 2.303040 1_554
Bi0 O22 2.309272 1_555
Bi0 O8 2.402939 1_545
Bi0 O4 2.426564 1_555
Bi0 O12 2.509054 1_545
Bi0 O3 2.528856 1_554
Bi0 O7 2.542718 1_545
Bi1 O2 2.303040 1_455
Bi1 O13 2.309272 1_555
Bi1 O4 2.402939 1_465
Bi1 O8 2.426564 1_555
Bi1 O23 2.509054 1_565
Bi1 O9 2.528856 1_555
Bi1 O6 2.542718 1_565
Bi2 O21 2.303040 1_655
Bi2 O10 2.309272 1_555
Bi2 O19 2.402939 1_645
Bi2 O15 2.426564 1_555
Bi2 O0 2.509054 1_545
Bi2 O14 2.528856 1_555
Bi2 O17 2.542718 1_545
Bi3 O18 2.303040 1_556
Bi3 O1 2.309272 1_555
Bi3 O15 2.402939 1_565
Bi3 O19 2.426564 1_555
Bi3 O11 2.509054 1_565
Bi3 O20 2.528856 1_556
Bi3 O16 2.542718 1_565
B0 O2 1.377620 1_555
B0 O0 1.394500 1_555
B0 O10 1.395193 1_555
B1 O6 1.380320 1_655
B1 O3 1.389577 1_554
B1 O4 1.416795 1_555
B2 O5 1.377620 1_555
B2 O11 1.394500 1_555
B2 O1 1.395193 1_555
B3 O7 1.380320 1_555
B3 O9 1.389577 1_555
B3 O8 1.416795 1_555
B4 O16 1.380320 1_555
B4 O14 1.389577 1_555
B4 O15 1.416795 1_555
B5 O18 1.377620 1_555
B5 O12 1.394500 1_555
B5 O22 1.395193 1_555
B6 O17 1.380320 1_455
B6 O20 1.389577 1_556
B6 O19 1.416795 1_555
B7 O21 1.377620 1_555
B7 O23 1.394500 1_555
B7 O13 1.395193 1_555
