# generated using pymatgen
data_Li4Mn2Fe3Co3O16
_symmetry_space_group_name_H-M   'P 1'
_cell_length_a   5.78383115
_cell_length_b   5.78911085
_cell_length_c   9.37990558
_cell_angle_alpha   89.73461807
_cell_angle_beta   90.71593118
_cell_angle_gamma   119.99930416
_symmetry_Int_Tables_number   1
_chemical_formula_structural   Li4Mn2Fe3Co3O16
_chemical_formula_sum   'Li4 Mn2 Fe3 Co3 O16'
_cell_volume   271.97247543
_cell_formula_units_Z   1
loop_
 _symmetry_equiv_pos_site_id
 _symmetry_equiv_pos_as_xyz
  1  'x, y, z'
loop_
 _atom_site_type_symbol
 _atom_site_label
 _atom_site_symmetry_multiplicity
 _atom_site_fract_x
 _atom_site_fract_y
 _atom_site_fract_z
 _atom_site_occupancy
  Li  Li0  1  0.33295900  0.67163100  0.90129900  1
  Li  Li1  1  0.00849500  0.00196200  0.99541300  1
  Li  Li2  1  0.00927800  0.00314900  0.49444900  1
  Li  Li3  1  0.66235900  0.32937700  0.39788700  1
  Mn  Mn0  1  0.32982200  0.65839700  0.48365400  1
  Mn  Mn1  1  0.66573500  0.33825700  0.98580900  1
  Fe  Fe0  1  0.66367300  0.83490000  0.21089400  1
  Fe  Fe1  1  0.83468600  0.66068500  0.71308600  1
  Fe  Fe2  1  0.83102400  0.16763500  0.71354000  1
  Co  Co0  1  0.17119600  0.83052900  0.21354700  1
  Co  Co1  1  0.17408300  0.34246800  0.21432600  1
  Co  Co2  1  0.34366700  0.17004400  0.71349500  1
  O  O0  1  0.16548700  0.83301600  0.60015500  1
  O  O1  1  0.03863800  0.51845600  0.33584900  1
  O  O2  1  0.31209300  0.65086600  0.11016200  1
  O  O3  1  0.01896200  0.01508000  0.30428800  1
  O  O4  1  0.01114000  0.99617300  0.80687500  1
  O  O5  1  0.17035500  0.33198400  0.59713600  1
  O  O6  1  0.47222600  0.95716800  0.34452800  1
  O  O7  1  0.46358000  0.50289800  0.34304600  1
  O  O8  1  0.32946300  0.16732300  0.10120900  1
  O  O9  1  0.66794900  0.82541000  0.59604100  1
  O  O10  1  0.51499600  0.47764600  0.83809100  1
  O  O11  1  0.51319900  0.04178200  0.84698700  1
  O  O12  1  0.66135600  0.33962200  0.60617700  1
  O  O13  1  0.83412500  0.66780200  0.09786300  1
  O  O14  1  0.95849600  0.49083600  0.84667300  1
  O  O15  1  0.84095800  0.17520500  0.09536000  1
loop_
_geom_bond_atom_site_label_1
_geom_bond_atom_site_label_2
_geom_bond_distance
_geom_bond_site_symmetry_2
Li0 O11 1.925465 1_565
Li0 O14 1.938880 1_455
Li0 O2 1.963764 1_556
Li0 O10 1.981237 1_555
Li1 O4 1.769343 1_545
Li1 O8 1.879668 1_556
Li1 O13 1.933623 1_446
Li1 O15 1.956259 1_456
Li2 O3 1.785204 1_555
Li2 O0 1.904694 1_545
Li2 O5 1.908061 1_555
Li2 O9 1.967449 1_445
Li3 O6 1.931198 1_545
Li3 O7 1.931538 1_555
Li3 O12 1.955084 1_555
Li3 O1 1.979086 1_655
Mn0 O5 1.953857 1_555
Mn0 O7 1.970089 1_555
Mn0 O9 1.984404 1_555
Mn0 O6 1.988556 1_555
Mn0 O1 2.000624 1_555
Mn0 O0 2.028908 1_555
Mn1 O13 1.956489 1_556
Mn1 O15 1.973732 1_556
Mn1 O11 1.974209 1_555
Mn1 O14 1.974730 1_555
Mn1 O10 1.998518 1_555
Mn1 O8 2.012907 1_556
Fe0 O3 1.974398 1_665
Fe0 O2 1.989411 1_555
Fe0 O13 2.005253 1_555
Fe0 O15 2.023592 1_565
Fe0 O6 2.031004 1_555
Fe0 O7 2.087931 1_555
Fe1 O12 1.895818 1_555
Fe1 O4 1.897063 1_655
Fe1 O14 1.928726 1_555
Fe1 O0 1.977419 1_655
Fe1 O9 1.981966 1_555
Fe1 O10 2.000000 1_555
Fe2 O4 1.959643 1_645
Fe2 O12 1.977764 1_555
Fe2 O5 2.031247 1_655
Fe2 O9 2.038388 1_545
Fe2 O11 2.046107 1_555
Fe2 O14 2.054998 1_555
Co0 O2 1.887579 1_555
Co0 O3 1.899738 1_565
Co0 O6 1.938252 1_555
Co0 O1 1.945616 1_555
Co0 O8 1.992506 1_565
Co0 O13 1.996437 1_455
Co1 O2 1.832351 1_555
Co1 O3 1.847383 1_555
Co1 O7 1.878501 1_555
Co1 O1 1.944784 1_555
Co1 O8 1.976481 1_555
Co1 O15 1.996446 1_455
Co2 O4 1.891411 1_545
Co2 O12 1.893825 1_555
Co2 O10 1.935104 1_555
Co2 O11 1.941503 1_555
Co2 O5 1.994454 1_555
Co2 O0 1.995043 1_545
