# generated using pymatgen
data_Mn2(SO4)3
_symmetry_space_group_name_H-M   'P 1'
_cell_length_a   8.92298375
_cell_length_b   8.92298406
_cell_length_c   8.92298404
_cell_angle_alpha   53.81474323
_cell_angle_beta   53.81473988
_cell_angle_gamma   53.81474146
_symmetry_Int_Tables_number   1
_chemical_formula_structural   Mn2(SO4)3
_chemical_formula_sum   'Mn4 S6 O24'
_cell_volume   429.73418420
_cell_formula_units_Z   2
loop_
 _symmetry_equiv_pos_site_id
 _symmetry_equiv_pos_as_xyz
  1  'x, y, z'
loop_
 _atom_site_type_symbol
 _atom_site_label
 _atom_site_symmetry_multiplicity
 _atom_site_fract_x
 _atom_site_fract_y
 _atom_site_fract_z
 _atom_site_occupancy
  Mn  Mn0  1  0.14399125  0.14399125  0.14399125  1
  Mn  Mn1  1  0.34256543  0.34256543  0.34256543  1
  Mn  Mn2  1  0.65743457  0.65743457  0.65743457  1
  Mn  Mn3  1  0.85600875  0.85600875  0.85600875  1
  S  S0  1  0.73531122  0.04760040  0.45845103  1
  S  S1  1  0.95239960  0.54154897  0.26468878  1
  S  S2  1  0.54154897  0.26468878  0.95239960  1
  S  S3  1  0.45845103  0.73531122  0.04760040  1
  S  S4  1  0.04760040  0.45845103  0.73531122  1
  S  S5  1  0.26468878  0.95239960  0.54154897  1
  O  O0  1  0.52186143  0.21307535  0.15628058  1
  O  O1  1  0.21307535  0.15628058  0.52186143  1
  O  O2  1  0.76150842  0.02862659  0.61533666  1
  O  O3  1  0.86383476  0.13465663  0.25957450  1
  O  O4  1  0.15628058  0.52186143  0.21307535  1
  O  O5  1  0.74042550  0.13616524  0.86534337  1
  O  O6  1  0.97137341  0.38466334  0.23849158  1
  O  O7  1  0.52094502  0.16961059  0.48634957  1
  O  O8  1  0.83038941  0.51365043  0.47905498  1
  O  O9  1  0.38466334  0.23849158  0.97137341  1
  O  O10  1  0.86534337  0.74042550  0.13616524  1
  O  O11  1  0.51365043  0.47905498  0.83038941  1
  O  O12  1  0.48634957  0.52094502  0.16961059  1
  O  O13  1  0.13465663  0.25957450  0.86383476  1
  O  O14  1  0.61533666  0.76150842  0.02862659  1
  O  O15  1  0.16961059  0.48634957  0.52094502  1
  O  O16  1  0.47905498  0.83038941  0.51365043  1
  O  O17  1  0.02862659  0.61533666  0.76150842  1
  O  O18  1  0.25957450  0.86383476  0.13465663  1
  O  O19  1  0.84371942  0.47813857  0.78692465  1
  O  O20  1  0.13616524  0.86534337  0.74042550  1
  O  O21  1  0.23849158  0.97137341  0.38466334  1
  O  O22  1  0.78692465  0.84371942  0.47813857  1
  O  O23  1  0.47813857  0.78692465  0.84371942  1
loop_
_geom_bond_atom_site_label_1
_geom_bond_atom_site_label_2
_geom_bond_distance
_geom_bond_site_symmetry_2
Mn0 O9 2.096214 1_554
Mn0 O6 2.096214 1_455
Mn0 O21 2.096214 1_545
Mn0 O3 2.102351 1_455
Mn0 O18 2.102351 1_545
Mn0 O13 2.102351 1_554
Mn1 O0 1.898031 1_555
Mn1 O1 1.898031 1_555
Mn1 O4 1.898031 1_555
Mn1 O15 1.932358 1_555
Mn1 O12 1.932358 1_555
Mn1 O7 1.932358 1_555
Mn2 O23 1.898031 1_555
Mn2 O22 1.898031 1_555
Mn2 O19 1.898031 1_555
Mn2 O8 1.932358 1_555
Mn2 O11 1.932358 1_555
Mn2 O16 1.932358 1_555
Mn3 O14 2.096214 1_556
Mn3 O17 2.096214 1_655
Mn3 O2 2.096214 1_565
Mn3 O20 2.102351 1_655
Mn3 O5 2.102351 1_565
Mn3 O10 2.102351 1_556
O0 S2 1.510430 1_554
O1 S5 1.510430 1_545
O2 S0 1.450104 1_555
O3 S0 1.445288 1_555
O4 S1 1.510430 1_455
O5 S2 1.445288 1_555
O6 S1 1.450104 1_555
O7 S0 1.484858 1_555
O8 S1 1.484858 1_555
O9 S2 1.450104 1_555
O10 S1 1.445288 1_555
O11 S2 1.484858 1_555
O12 S3 1.484858 1_555
O13 S4 1.445288 1_555
O14 S3 1.450104 1_555
O15 S4 1.484858 1_555
O16 S5 1.484858 1_555
O17 S4 1.450104 1_555
O18 S3 1.445288 1_555
O19 S4 1.510430 1_655
O20 S5 1.445288 1_555
O21 S5 1.450104 1_555
O22 S0 1.510430 1_565
O23 S3 1.510430 1_556
