# generated using pymatgen
data_LaAlO3
_symmetry_space_group_name_H-M   'P 1'
_cell_length_a   7.35280500
_cell_length_b   7.92599950
_cell_length_c   8.31854328
_cell_angle_alpha   103.82212119
_cell_angle_beta   96.34129759
_cell_angle_gamma   89.67373902
_symmetry_Int_Tables_number   1
_chemical_formula_structural   LaAlO3
_chemical_formula_sum   'La6 Al6 O18'
_cell_volume   467.76447101
_cell_formula_units_Z   6
loop_
 _symmetry_equiv_pos_site_id
 _symmetry_equiv_pos_as_xyz
  1  'x, y, z'
loop_
 _atom_site_type_symbol
 _atom_site_label
 _atom_site_symmetry_multiplicity
 _atom_site_fract_x
 _atom_site_fract_y
 _atom_site_fract_z
 _atom_site_occupancy
  La  La0  1  0.97234600  0.24510000  0.98465700  1
  La  La1  1  0.02765400  0.75490000  0.01534300  1
  La  La2  1  0.26944800  0.42326100  0.69770400  1
  La  La3  1  0.26284500  0.91785500  0.68219900  1
  La  La4  1  0.73715500  0.08214500  0.31780100  1
  La  La5  1  0.73055200  0.57673900  0.30229600  1
  Al  Al0  1  0.55327700  0.73098900  0.90610400  1
  Al  Al1  1  0.76810200  0.39519300  0.68793800  1
  Al  Al2  1  0.76559700  0.95103100  0.68636600  1
  Al  Al3  1  0.23440300  0.04896900  0.31363400  1
  Al  Al4  1  0.23189800  0.60480700  0.31206200  1
  Al  Al5  1  0.44672300  0.26901100  0.09389600  1
  O  O0  1  0.29322900  0.22081500  0.90758800  1
  O  O1  1  0.30942100  0.72895900  0.89666000  1
  O  O2  1  0.97912100  0.47190000  0.81384100  1
  O  O3  1  0.58821200  0.51643000  0.78224700  1
  O  O4  1  0.75319000  0.17748200  0.70529100  1
  O  O5  1  0.58259600  0.87641800  0.77446600  1
  O  O6  1  0.97848500  0.93262300  0.80833100  1
  O  O7  1  0.23221500  0.14175500  0.52777400  1
  O  O8  1  0.22791200  0.61864300  0.52536400  1
  O  O9  1  0.77208800  0.38135700  0.47463600  1
  O  O10  1  0.76778500  0.85824500  0.47222600  1
  O  O11  1  0.02151500  0.06737700  0.19166900  1
  O  O12  1  0.41740400  0.12358200  0.22553400  1
  O  O13  1  0.24681000  0.82251800  0.29470900  1
  O  O14  1  0.41178800  0.48357000  0.21775300  1
  O  O15  1  0.02087900  0.52810000  0.18615900  1
  O  O16  1  0.69057900  0.27104100  0.10334000  1
  O  O17  1  0.70677100  0.77918500  0.09241200  1
loop_
_geom_bond_atom_site_label_1
_geom_bond_atom_site_label_2
_geom_bond_distance
_geom_bond_site_symmetry_2
La0 O16 2.378913 1_556
La0 O15 2.459428 1_656
La0 O11 2.469026 1_656
La0 O0 2.506947 1_655
La0 O2 2.547572 1_555
La0 O6 2.562233 1_545
La0 O4 2.621444 1_555
La1 O1 2.378913 1_554
La1 O2 2.459428 1_454
La1 O6 2.469026 1_454
La1 O17 2.506947 1_455
La1 O15 2.547572 1_555
La1 O11 2.562233 1_565
La1 O13 2.621444 1_555
La2 O7 2.337927 1_555
La2 O8 2.346355 1_555
La2 O2 2.430476 1_455
La2 O3 2.437376 1_555
La2 O1 2.584728 1_555
La2 O0 2.630876 1_555
La3 O8 2.418029 1_555
La3 O7 2.423019 1_565
La3 O6 2.430918 1_455
La3 O5 2.436701 1_555
La3 O1 2.583983 1_555
La3 O0 2.663386 1_565
La4 O9 2.418029 1_555
La4 O10 2.423019 1_545
La4 O11 2.430918 1_655
La4 O12 2.436701 1_555
La4 O16 2.583983 1_555
La4 O17 2.663386 1_545
La5 O10 2.337927 1_555
La5 O9 2.346355 1_555
La5 O15 2.430476 1_655
La5 O14 2.437376 1_555
La5 O16 2.584728 1_555
La5 O17 2.630876 1_555
Al0 O17 1.776864 1_556
Al0 O1 1.786051 1_555
Al0 O5 1.797863 1_555
Al0 O3 1.798841 1_555
Al1 O9 1.754913 1_555
Al1 O4 1.770635 1_555
Al1 O3 1.772824 1_555
Al1 O2 1.794844 1_555
Al2 O10 1.759117 1_555
Al2 O4 1.766604 1_565
Al2 O5 1.769567 1_555
Al2 O6 1.793931 1_555
Al3 O7 1.759117 1_555
Al3 O13 1.766604 1_545
Al3 O12 1.769567 1_555
Al3 O11 1.793931 1_555
Al4 O8 1.754913 1_555
Al4 O13 1.770635 1_555
Al4 O14 1.772824 1_555
Al4 O15 1.794844 1_555
Al5 O0 1.776864 1_554
Al5 O16 1.786051 1_555
Al5 O12 1.797863 1_555
Al5 O14 1.798841 1_555
