# generated using pymatgen
data_Li2Fe2Si3O10
_symmetry_space_group_name_H-M   'P 1'
_cell_length_a   5.42851700
_cell_length_b   5.46281500
_cell_length_c   16.93056804
_cell_angle_alpha   93.90952973
_cell_angle_beta   90.82880671
_cell_angle_gamma   119.48513289
_symmetry_Int_Tables_number   1
_chemical_formula_structural   Li2Fe2Si3O10
_chemical_formula_sum   'Li4 Fe4 Si6 O20'
_cell_volume   435.36441059
_cell_formula_units_Z   2
loop_
 _symmetry_equiv_pos_site_id
 _symmetry_equiv_pos_as_xyz
  1  'x, y, z'
loop_
 _atom_site_type_symbol
 _atom_site_label
 _atom_site_symmetry_multiplicity
 _atom_site_fract_x
 _atom_site_fract_y
 _atom_site_fract_z
 _atom_site_occupancy
  Li  Li0  1  0.56788700  0.38480700  0.23288900  1
  Li  Li1  1  0.43218100  0.60787000  0.74953500  1
  Li  Li2  1  0.34646300  0.50787100  0.45151400  1
  Li  Li3  1  0.15634000  0.49533300  0.95227100  1
  Fe  Fe0  1  0.99290100  0.81745400  0.42136800  1
  Fe  Fe1  1  0.82160500  0.80967500  0.91917900  1
  Fe  Fe2  1  0.00092300  0.19931300  0.58691100  1
  Fe  Fe3  1  0.18628000  0.18385800  0.08898400  1
  Si  Si0  1  0.86311800  0.99646000  0.25151200  1
  Si  Si1  1  0.53395400  0.83879700  0.09855300  1
  Si  Si2  1  0.31588600  0.85334100  0.59699300  1
  Si  Si3  1  0.66602600  0.15430800  0.39840300  1
  Si  Si4  1  0.48198600  0.14799400  0.90194200  1
  Si  Si5  1  0.13558400  0.99923400  0.74997400  1
  O  O0  1  0.81047100  0.90757900  0.04453000  1
  O  O1  1  0.91045800  0.79746700  0.30881900  1
  O  O2  1  0.61199700  0.76656200  0.18567700  1
  O  O3  1  0.86091600  0.81510300  0.80193600  1
  O  O4  1  0.37043200  0.86660800  0.41297600  1
  O  O5  1  0.66374300  0.44420500  0.42801300  1
  O  O6  1  0.93938300  0.14918700  0.44169900  1
  O  O7  1  0.48424300  0.84832400  0.90677900  1
  O  O8  1  0.25884900  0.54848300  0.06190400  1
  O  O9  1  0.72478800  0.17197700  0.30078700  1
  O  O10  1  0.77532600  0.43729000  0.93209500  1
  O  O11  1  0.22667500  0.80175800  0.69207800  1
  O  O12  1  0.29546500  0.55856800  0.56240700  1
  O  O13  1  0.07778500  0.90142300  0.54897600  1
  O  O14  1  0.49077000  0.11384700  0.10758000  1
  O  O15  1  0.62856100  0.12011600  0.59276200  1
  O  O16  1  0.13405000  0.20510600  0.20305500  1
  O  O17  1  0.41989900  0.19209200  0.81031500  1
  O  O18  1  0.11389600  0.22690100  0.69861500  1
  O  O19  1  0.20659300  0.12457100  0.94939100  1
loop_
_geom_bond_atom_site_label_1
_geom_bond_atom_site_label_2
_geom_bond_distance
_geom_bond_site_symmetry_2
Li0 O16 2.094609 1_555
Li0 O9 2.127777 1_555
Li0 O2 2.187845 1_555
Li0 O1 2.366773 1_555
Li0 O14 2.409011 1_555
Li1 O18 2.057257 1_555
Li1 O11 2.141255 1_555
Li1 O3 2.166815 1_555
Li1 O17 2.528613 1_555
Li2 O12 1.922989 1_555
Li2 O5 1.958682 1_555
Li2 O4 2.051568 1_555
Li2 O6 2.105441 1_455
Li3 O8 1.891251 1_556
Li3 O10 1.953063 1_455
Li3 O7 2.084090 1_555
Li3 O19 2.170227 1_555
Fe0 O1 1.934444 1_555
Fe0 O4 1.940198 1_655
Fe0 O5 1.952827 1_555
Fe0 O6 1.980668 1_565
Fe0 O13 2.172185 1_655
Fe1 O10 1.951500 1_555
Fe1 O7 1.954005 1_555
Fe1 O19 1.974490 1_665
Fe1 O3 2.000165 1_555
Fe1 O0 2.162049 1_556
Fe2 O15 1.853024 1_455
Fe2 O12 1.903018 1_555
Fe2 O13 1.941233 1_545
Fe2 O18 1.952460 1_555
Fe2 O6 2.454649 1_455
Fe3 O14 1.897695 1_555
Fe3 O8 1.921013 1_555
Fe3 O0 1.943188 1_445
Fe3 O16 1.959949 1_555
Fe3 O19 2.375074 1_554
O0 Si1 1.662031 1_555
O1 Si0 1.612675 1_555
O2 Si1 1.654346 1_555
O2 Si0 1.660670 1_555
O3 Si5 1.640475 1_655
O4 Si3 1.639384 1_565
O5 Si3 1.634218 1_555
O6 Si3 1.659015 1_555
O7 Si4 1.650684 1_565
O8 Si1 1.624186 1_555
O9 Si0 1.672427 1_545
O9 Si3 1.687947 1_555
O10 Si4 1.638012 1_555
O11 Si5 1.662539 1_555
O11 Si2 1.689854 1_555
O12 Si2 1.625430 1_555
O13 Si2 1.653317 1_555
O14 Si1 1.628626 1_545
O15 Si2 1.610196 1_545
O16 Si0 1.627127 1_445
O17 Si4 1.641314 1_555
O17 Si5 1.656107 1_545
O18 Si5 1.614125 1_545
O19 Si4 1.660462 1_555
