# generated using pymatgen
data_Ba4Pb3O10
_symmetry_space_group_name_H-M   'P 1'
_cell_length_a   4.38305700
_cell_length_b   4.38255108
_cell_length_c   15.68890080
_cell_angle_alpha   97.94689718
_cell_angle_beta   97.95616456
_cell_angle_gamma   90.01111257
_symmetry_Int_Tables_number   1
_chemical_formula_structural   Ba4Pb3O10
_chemical_formula_sum   'Ba4 Pb3 O10'
_cell_volume   295.54305924
_cell_formula_units_Z   1
loop_
 _symmetry_equiv_pos_site_id
 _symmetry_equiv_pos_as_xyz
  1  'x, y, z'
loop_
 _atom_site_type_symbol
 _atom_site_label
 _atom_site_symmetry_multiplicity
 _atom_site_fract_x
 _atom_site_fract_y
 _atom_site_fract_z
 _atom_site_occupancy
  Ba  Ba0  1  0.70445100  0.70487000  0.40567300  1
  Ba  Ba1  1  0.57731200  0.55308400  0.13921500  1
  Ba  Ba2  1  0.29791500  0.29977900  0.59449600  1
  Ba  Ba3  1  0.45329500  0.43114300  0.86092800  1
  Pb  Pb0  1  0.00661700  0.99842200  0.00001500  1
  Pb  Pb1  1  0.86427600  0.85994000  0.71626400  1
  Pb  Pb2  1  0.14933900  0.14383900  0.28381400  1
  O  O0  1  0.14569300  0.64504600  0.28177900  1
  O  O1  1  0.36426000  0.85992200  0.71916900  1
  O  O2  1  0.89604400  0.93150500  0.85839100  1
  O  O3  1  0.80413600  0.78996200  0.57463900  1
  O  O4  1  0.07655600  0.11489100  0.14170000  1
  O  O5  1  0.50803300  0.00015100  0.00652200  1
  O  O6  1  0.64870100  0.14458700  0.28137300  1
  O  O7  1  0.85963900  0.36040400  0.71739600  1
  O  O8  1  0.99953800  0.49674300  0.99326500  1
  O  O9  1  0.23239300  0.21791100  0.42536300  1
loop_
_geom_bond_atom_site_label_1
_geom_bond_atom_site_label_2
_geom_bond_distance
_geom_bond_site_symmetry_2
Ba0 O3 2.600605 1_555
Ba0 O0 2.895840 1_555
Ba0 O6 2.904450 1_555
Ba0 O6 2.912692 1_565
Ba0 O0 2.913281 1_655
Ba0 O9 3.047692 1_555
Ba0 O9 3.068965 1_565
Ba0 O9 3.160827 1_655
Ba0 O9 3.180172 1_665
Ba1 O4 2.911438 1_655
Ba1 O4 2.923962 1_555
Ba1 O5 2.954334 1_555
Ba1 O6 3.031216 1_555
Ba1 O5 3.036123 1_565
Ba1 O0 3.095039 1_655
Ba1 O0 3.109098 1_555
Ba1 O8 3.121848 1_554
Ba1 O8 3.155221 1_454
Ba1 O6 3.162271 1_565
Ba1 O4 3.286294 1_665
Ba1 O4 3.298525 1_565
Ba2 O9 2.603473 1_555
Ba2 O7 2.891804 1_455
Ba2 O7 2.897256 1_555
Ba2 O1 2.907112 1_555
Ba2 O1 2.917498 1_545
Ba2 O3 3.064666 1_445
Ba2 O3 3.065335 1_455
Ba2 O3 3.163804 1_555
Ba2 O3 3.164334 1_545
Ba3 O2 2.925946 1_545
Ba3 O8 2.929879 1_555
Ba3 O2 2.935984 1_555
Ba3 O7 3.042448 1_555
Ba3 O8 3.054035 1_455
Ba3 O1 3.089577 1_555
Ba3 O1 3.096050 1_545
Ba3 O5 3.125182 1_566
Ba3 O5 3.143944 1_556
Ba3 O7 3.181528 1_455
Ba3 O2 3.272440 1_445
Ba3 O2 3.282553 1_455
O0 Pb2 2.181824 1_565
O0 Pb2 2.201235 1_555
O1 Pb1 2.185616 1_455
O1 Pb1 2.198371 1_555
O2 Pb0 2.186207 1_656
O2 Pb1 2.193283 1_555
O3 Pb1 2.179441 1_555
O4 Pb0 2.189356 1_545
O4 Pb2 2.194061 1_555
O5 Pb0 2.185907 1_545
O5 Pb0 2.201741 1_645
O6 Pb2 2.189364 1_655
O6 Pb2 2.194370 1_555
O7 Pb1 2.191045 1_545
O7 Pb1 2.191881 1_555
O8 Pb0 2.186516 1_656
O8 Pb0 2.201077 1_646
O9 Pb2 2.178633 1_555
