# generated using pymatgen
data_Ti3V2P6WO24
_symmetry_space_group_name_H-M   'P 1'
_cell_length_a   8.66316667
_cell_length_b   8.66316667
_cell_length_c   8.66316718
_cell_angle_alpha   60.50008230
_cell_angle_beta   60.50008230
_cell_angle_gamma   60.50007767
_symmetry_Int_Tables_number   1
_chemical_formula_structural   Ti3V2P6WO24
_chemical_formula_sum   'Ti3 V2 P6 W1 O24'
_cell_volume   464.93881288
_cell_formula_units_Z   1
loop_
 _symmetry_equiv_pos_site_id
 _symmetry_equiv_pos_as_xyz
  1  'x, y, z'
loop_
 _atom_site_type_symbol
 _atom_site_label
 _atom_site_symmetry_multiplicity
 _atom_site_fract_x
 _atom_site_fract_y
 _atom_site_fract_z
 _atom_site_occupancy
  Ti  Ti0  1  0.64550900  0.64550900  0.64550900  1
  Ti  Ti1  1  0.85577600  0.85577600  0.85577600  1
  Ti  Ti2  1  0.35509900  0.35509900  0.35509900  1
  V  V0  1  0.99666800  0.99666800  0.99666800  1
  V  V1  1  0.50122100  0.50122100  0.50122100  1
  P  P0  1  0.95399300  0.25196000  0.54728900  1
  P  P1  1  0.54728900  0.95399300  0.25196000  1
  P  P2  1  0.25196000  0.54728900  0.95399300  1
  P  P3  1  0.74407000  0.46052900  0.04372400  1
  P  P4  1  0.46052900  0.04372400  0.74407000  1
  P  P5  1  0.04372400  0.74407000  0.46052900  1
  W  W0  1  0.14080200  0.14080200  0.14080200  1
  O  O0  1  0.49953300  0.11661300  0.31408800  1
  O  O1  1  0.31408800  0.49953300  0.11661300  1
  O  O2  1  0.11661300  0.31408800  0.49953300  1
  O  O3  1  0.94069800  0.09001600  0.74074200  1
  O  O4  1  0.98222300  0.19089700  0.39730100  1
  O  O5  1  0.76035900  0.41415600  0.56915200  1
  O  O6  1  0.74074200  0.94069800  0.09001600  1
  O  O7  1  0.56915200  0.76035900  0.41415600  1
  O  O8  1  0.81505900  0.61448300  0.99974100  1
  O  O9  1  0.41415600  0.56915200  0.76035900  1
  O  O10  1  0.89801400  0.26420200  0.05321400  1
  O  O11  1  0.61448300  0.99974100  0.81505900  1
  O  O12  1  0.39730100  0.98222300  0.19089700  1
  O  O13  1  0.09001600  0.74074200  0.94069800  1
  O  O14  1  0.58536100  0.44614100  0.23826800  1
  O  O15  1  0.19089700  0.39730100  0.98222300  1
  O  O16  1  0.44614100  0.23826800  0.58536100  1
  O  O17  1  0.26420200  0.05321400  0.89801400  1
  O  O18  1  0.23826800  0.58536100  0.44614100  1
  O  O19  1  0.99974100  0.81505900  0.61448300  1
  O  O20  1  0.05321400  0.89801400  0.26420200  1
  O  O21  1  0.88674900  0.67431600  0.51202300  1
  O  O22  1  0.67431600  0.51202300  0.88674900  1
  O  O23  1  0.51202300  0.88674900  0.67431600  1
loop_
_geom_bond_atom_site_label_1
_geom_bond_atom_site_label_2
_geom_bond_distance
_geom_bond_site_symmetry_2
O0 P1 1.548879 1_545
O0 Ti2 1.923416 1_555
O1 P2 1.548879 1_554
O1 Ti2 1.923416 1_555
O2 P0 1.548879 1_455
O2 Ti2 1.923416 1_555
O3 P0 1.563224 1_555
O3 Ti1 2.099733 1_545
O3 V0 2.170604 1_545
O4 P0 1.504856 1_555
O4 W0 2.090331 1_655
O5 P0 1.565903 1_555
O5 Ti0 2.034238 1_555
O5 V1 2.269675 1_555
O6 P1 1.563224 1_555
O6 Ti1 2.099733 1_554
O6 V0 2.170604 1_554
O7 P1 1.565903 1_555
O7 Ti0 2.034239 1_555
O7 V1 2.269675 1_555
O8 P3 1.542322 1_556
O8 Ti1 1.942901 1_555
O9 P2 1.565903 1_555
O9 Ti0 2.034239 1_555
O9 V1 2.269675 1_555
O10 P3 1.553866 1_555
O10 W0 2.168177 1_655
O10 V0 2.257681 1_544
O11 P4 1.542322 1_565
O11 Ti1 1.942901 1_555
O12 P1 1.504856 1_555
O12 W0 2.090331 1_565
O13 P2 1.563224 1_555
O13 Ti1 2.099733 1_455
O13 V0 2.170604 1_455
O14 P3 1.557617 1_555
O14 Ti2 2.097760 1_555
O14 V1 2.245212 1_555
O15 P2 1.504856 1_555
O15 W0 2.090331 1_556
O16 P4 1.557617 1_555
O16 Ti2 2.097760 1_555
O16 V1 2.245212 1_555
O17 P4 1.553866 1_555
O17 W0 2.168177 1_556
O17 V0 2.257681 1_445
O18 P5 1.557617 1_555
O18 Ti2 2.097760 1_555
O18 V1 2.245212 1_555
O19 P5 1.542323 1_655
O19 Ti1 1.942901 1_555
O20 P5 1.553866 1_555
O20 W0 2.168177 1_565
O20 V0 2.257681 1_454
O21 P5 1.536189 1_655
O21 Ti0 1.901718 1_555
O22 P3 1.536189 1_556
O22 Ti0 1.901718 1_555
O23 P4 1.536189 1_565
O23 Ti0 1.901718 1_555
