# generated using pymatgen
data_Ti4VO8
_symmetry_space_group_name_H-M   'P 1'
_cell_length_a   5.84170109
_cell_length_b   5.84170109
_cell_length_c   5.84109160
_cell_angle_alpha   61.10493272
_cell_angle_beta   61.10493272
_cell_angle_gamma   60.97085204
_symmetry_Int_Tables_number   1
_chemical_formula_structural   Ti4VO8
_chemical_formula_sum   'Ti4 V1 O8'
_cell_volume   144.31178949
_cell_formula_units_Z   1
loop_
 _symmetry_equiv_pos_site_id
 _symmetry_equiv_pos_as_xyz
  1  'x, y, z'
loop_
 _atom_site_type_symbol
 _atom_site_label
 _atom_site_symmetry_multiplicity
 _atom_site_fract_x
 _atom_site_fract_y
 _atom_site_fract_z
 _atom_site_occupancy
  Ti  Ti0  1  0.50000000  0.50000000  0.50000000  1
  Ti  Ti1  1  0.00000000  0.00000000  0.00000000  1
  Ti  Ti2  1  0.00000000  0.50000000  0.50000000  1
  Ti  Ti3  1  0.50000000  0.00000000  0.50000000  1
  V  V0  1  0.50000000  0.50000000  0.00000000  1
  O  O0  1  0.26156500  0.26156500  0.27271800  1
  O  O1  1  0.25958100  0.75139300  0.74902100  1
  O  O2  1  0.75139300  0.25958100  0.74902100  1
  O  O3  1  0.74914100  0.74914100  0.26099900  1
  O  O4  1  0.25085900  0.25085900  0.73900100  1
  O  O5  1  0.24860700  0.74041900  0.25097900  1
  O  O6  1  0.74041900  0.24860700  0.25097900  1
  O  O7  1  0.73843500  0.73843500  0.72728200  1
loop_
_geom_bond_atom_site_label_1
_geom_bond_atom_site_label_2
_geom_bond_distance
_geom_bond_site_symmetry_2
O0 Ti3 1.948948 1_555
O0 Ti2 1.948948 1_555
O0 V0 2.003003 1_555
O1 Ti3 2.039891 1_565
O1 V0 2.045917 1_556
O1 Ti1 2.080770 1_566
O1 Ti0 2.081661 1_555
O2 Ti2 2.039891 1_655
O2 V0 2.045917 1_556
O2 Ti1 2.080770 1_656
O2 Ti0 2.081661 1_555
O3 Ti3 2.039178 1_565
O3 Ti2 2.039178 1_655
O3 Ti0 2.077007 1_555
O3 Ti1 2.094105 1_665
O4 Ti2 2.039178 1_555
O4 Ti3 2.039178 1_555
O4 Ti0 2.077007 1_555
O4 Ti1 2.094105 1_556
O5 Ti2 2.039891 1_555
O5 V0 2.045917 1_555
O5 Ti1 2.080770 1_565
O5 Ti0 2.081661 1_555
O6 Ti3 2.039891 1_555
O6 V0 2.045917 1_555
O6 Ti1 2.080770 1_655
O6 Ti0 2.081661 1_555
O7 Ti3 1.948948 1_565
O7 Ti2 1.948948 1_655
O7 V0 2.003003 1_556
