# generated using pymatgen
data_MnPH5CO4
_symmetry_space_group_name_H-M   'P 1'
_cell_length_a   4.93428600
_cell_length_b   5.88915100
_cell_length_c   17.70579000
_cell_angle_alpha   90.00000000
_cell_angle_beta   90.00000000
_cell_angle_gamma   90.00000000
_symmetry_Int_Tables_number   1
_chemical_formula_structural   MnPH5CO4
_chemical_formula_sum   'Mn4 P4 H20 C4 O16'
_cell_volume   514.50821956
_cell_formula_units_Z   4
loop_
 _symmetry_equiv_pos_site_id
 _symmetry_equiv_pos_as_xyz
  1  'x, y, z'
loop_
 _atom_site_type_symbol
 _atom_site_label
 _atom_site_symmetry_multiplicity
 _atom_site_fract_x
 _atom_site_fract_y
 _atom_site_fract_z
 _atom_site_occupancy
  Mn  Mn0  1  0.66730500  0.28227400  0.73669900  1
  Mn  Mn1  1  0.33269500  0.78227400  0.26330100  1
  Mn  Mn2  1  0.16730500  0.78227400  0.76330100  1
  Mn  Mn3  1  0.83269500  0.28227400  0.23669900  1
  P  P0  1  0.72569300  0.78277300  0.65242900  1
  P  P1  1  0.27430700  0.28277300  0.34757100  1
  P  P2  1  0.22569300  0.28277300  0.84757100  1
  P  P3  1  0.77430700  0.78277300  0.15242900  1
  H  H0  1  0.71776400  0.60645600  0.53109200  1
  H  H1  1  0.28223600  0.10645600  0.46890800  1
  H  H2  1  0.21776400  0.10645600  0.96890800  1
  H  H3  1  0.78223600  0.60645600  0.03109200  1
  H  H4  1  0.68759100  0.90718900  0.52181500  1
  H  H5  1  0.31240900  0.40718900  0.47818500  1
  H  H6  1  0.18759100  0.40718900  0.97818500  1
  H  H7  1  0.81240900  0.90718900  0.02181500  1
  H  H8  1  0.01074600  0.78214100  0.54254200  1
  H  H9  1  0.98925400  0.28214100  0.45745800  1
  H  H10  1  0.51074600  0.28214100  0.95745800  1
  H  H11  1  0.48925400  0.78214100  0.04254200  1
  H  H12  1  0.24049500  0.42015500  0.64497300  1
  H  H13  1  0.75950500  0.92015500  0.35502700  1
  H  H14  1  0.74049500  0.92015500  0.85502700  1
  H  H15  1  0.25950500  0.42015500  0.14497300  1
  H  H16  1  0.23089300  0.15339600  0.64691700  1
  H  H17  1  0.76910700  0.65339600  0.35308300  1
  H  H18  1  0.73089300  0.65339600  0.85308300  1
  H  H19  1  0.26910700  0.15339600  0.14691700  1
  C  C0  1  0.79143400  0.77041000  0.55242000  1
  C  C1  1  0.20856600  0.27041000  0.44758000  1
  C  C2  1  0.29143400  0.27041000  0.94758000  1
  C  C3  1  0.70856600  0.77041000  0.05242000  1
  O  O0  1  0.41902700  0.78411100  0.66499500  1
  O  O1  1  0.58097300  0.28411100  0.33500500  1
  O  O2  1  0.91902700  0.28411100  0.83500500  1
  O  O3  1  0.08097300  0.78411100  0.16499500  1
  O  O4  1  0.35504900  0.28338200  0.64308600  1
  O  O5  1  0.64495100  0.78338200  0.35691400  1
  O  O6  1  0.85504900  0.78338200  0.85691400  1
  O  O7  1  0.14495100  0.28338200  0.14308600  1
  O  O8  1  0.86873900  0.57254600  0.68905900  1
  O  O9  1  0.13126100  0.07254600  0.31094100  1
  O  O10  1  0.36873900  0.07254600  0.81094100  1
  O  O11  1  0.63126100  0.57254600  0.18905900  1
  O  O12  1  0.86984300  0.99536800  0.68704400  1
  O  O13  1  0.13015700  0.49536800  0.31295600  1
  O  O14  1  0.36984300  0.49536800  0.81295600  1
  O  O15  1  0.63015700  0.99536800  0.18704400  1
loop_
_geom_bond_atom_site_label_1
_geom_bond_atom_site_label_2
_geom_bond_distance
_geom_bond_site_symmetry_2
Mn0 O2 2.138338 1_555
Mn0 O8 2.149800 1_555
Mn0 O12 2.150948 1_545
Mn0 O4 2.263021 1_555
Mn0 O10 2.328908 1_555
Mn0 O14 2.356315 1_555
Mn1 O3 2.138338 1_555
Mn1 O9 2.149800 1_565
Mn1 O13 2.150948 1_555
Mn1 O5 2.263021 1_555
Mn1 O11 2.328908 1_555
Mn1 O15 2.356315 1_555
Mn2 O0 2.138338 1_555
Mn2 O10 2.149800 1_565
Mn2 O14 2.150948 1_555
Mn2 O6 2.263021 1_455
Mn2 O8 2.328908 1_455
Mn2 O12 2.356315 1_455
Mn3 O1 2.138338 1_555
Mn3 O11 2.149800 1_555
Mn3 O15 2.150948 1_545
Mn3 O7 2.263021 1_655
Mn3 O9 2.328908 1_655
Mn3 O13 2.356315 1_655
H12 O4 0.984585 1_555
H13 O5 0.984585 1_555
H14 O6 0.984585 1_555
H15 O7 0.984585 1_555
H16 O4 0.982806 1_555
H17 O5 0.982806 1_555
H18 O6 0.982806 1_555
H19 O7 0.982806 1_555
C0 H4 1.097741 1_555
C0 H8 1.098365 1_655
C0 H0 1.098649 1_555
C0 P0 1.801677 1_555
C1 H5 1.097741 1_555
C1 H9 1.098365 1_455
C1 H1 1.098649 1_555
C1 P1 1.801677 1_555
C2 H6 1.097741 1_555
C2 H10 1.098365 1_555
C2 H2 1.098649 1_555
C2 P2 1.801677 1_555
C3 H7 1.097741 1_555
C3 H11 1.098365 1_555
C3 H3 1.098649 1_555
C3 P3 1.801677 1_555
O0 P0 1.529468 1_555
O1 P1 1.529468 1_555
O2 P2 1.529468 1_655
O3 P3 1.529468 1_455
O8 P0 1.565765 1_555
O9 P1 1.565765 1_555
O10 P2 1.565765 1_555
O11 P3 1.565765 1_555
O12 P0 1.564947 1_555
O13 P1 1.564947 1_555
O14 P2 1.564947 1_555
O15 P3 1.564947 1_555
