# generated using pymatgen
data_NaCrPCO7
_symmetry_space_group_name_H-M   'P 1'
_cell_length_a   6.29847600
_cell_length_b   5.28253800
_cell_length_c   9.06650872
_cell_angle_alpha   87.83251472
_cell_angle_beta   90.00000000
_cell_angle_gamma   90.00000000
_symmetry_Int_Tables_number   1
_chemical_formula_structural   NaCrPCO7
_chemical_formula_sum   'Na2 Cr2 P2 C2 O14'
_cell_volume   301.44449762
_cell_formula_units_Z   2
loop_
 _symmetry_equiv_pos_site_id
 _symmetry_equiv_pos_as_xyz
  1  'x, y, z'
loop_
 _atom_site_type_symbol
 _atom_site_label
 _atom_site_symmetry_multiplicity
 _atom_site_fract_x
 _atom_site_fract_y
 _atom_site_fract_z
 _atom_site_occupancy
  Na  Na0  1  0.52271900  0.76244500  0.76787600  1
  Na  Na1  1  0.02271900  0.23755500  0.23212400  1
  Cr  Cr0  1  0.23577200  0.21373300  0.65988000  1
  Cr  Cr1  1  0.73577200  0.78626700  0.34012000  1
  P  P0  1  0.74296500  0.27983800  0.56638400  1
  P  P1  1  0.24296500  0.72016200  0.43361600  1
  C  C0  1  0.25610200  0.27158600  0.92082600  1
  C  C1  1  0.75610200  0.72841400  0.07917400  1
  O  O0  1  0.75705500  0.68819500  0.94681100  1
  O  O1  1  0.25021900  0.04920400  0.85932200  1
  O  O2  1  0.25880200  0.45582400  0.81233400  1
  O  O3  1  0.93886200  0.21904200  0.66700800  1
  O  O4  1  0.55014300  0.20453700  0.66367500  1
  O  O5  1  0.25439600  0.87992900  0.57258900  1
  O  O6  1  0.73511400  0.56521100  0.52451800  1
  O  O7  1  0.23511400  0.43478900  0.47548200  1
  O  O8  1  0.75439600  0.12007100  0.42741100  1
  O  O9  1  0.05014300  0.79546300  0.33632500  1
  O  O10  1  0.43886200  0.78095800  0.33299200  1
  O  O11  1  0.75880200  0.54417600  0.18766600  1
  O  O12  1  0.75021900  0.95079600  0.14067800  1
  O  O13  1  0.25705500  0.31180500  0.05318900  1
loop_
_geom_bond_atom_site_label_1
_geom_bond_atom_site_label_2
_geom_bond_distance
_geom_bond_site_symmetry_2
Na0 O0 2.217223 1_555
Na0 O2 2.345164 1_555
Na0 O1 2.454154 1_565
Na0 O4 2.491871 1_565
Na0 O5 2.508616 1_555
Na0 O6 2.813767 1_555
Na1 O13 2.217223 1_555
Na1 O11 2.345164 1_455
Na1 O12 2.454154 1_445
Na1 O9 2.491871 1_545
Na1 O8 2.508616 1_455
Na1 O7 2.813767 1_555
Cr0 O3 1.871444 1_455
Cr0 O2 1.923738 1_555
Cr0 O5 1.963419 1_545
Cr0 O1 1.978517 1_555
Cr0 O4 1.980921 1_555
Cr0 O7 2.002754 1_555
Cr1 O10 1.871444 1_555
Cr1 O11 1.923738 1_555
Cr1 O8 1.963419 1_565
Cr1 O12 1.978517 1_555
Cr1 O9 1.980921 1_655
Cr1 O6 2.002754 1_555
C0 O13 1.226633 1_556
C0 O1 1.319806 1_555
C0 O2 1.357437 1_555
C1 O0 1.226633 1_554
C1 O12 1.319806 1_555
C1 O11 1.357437 1_555
O3 P0 1.560666 1_555
O4 P0 1.544262 1_555
O5 P1 1.544511 1_555
O6 P0 1.541356 1_555
O7 P1 1.541356 1_555
O8 P0 1.544511 1_555
O9 P1 1.544262 1_555
O10 P1 1.560666 1_555
