# generated using pymatgen
data_Li4Cu2Si3O10
_symmetry_space_group_name_H-M   'P 1'
_cell_length_a   5.38706505
_cell_length_b   5.38706505
_cell_length_c   16.24746996
_cell_angle_alpha   82.87111342
_cell_angle_beta   82.87111342
_cell_angle_gamma   61.42741470
_symmetry_Int_Tables_number   1
_chemical_formula_structural   Li4Cu2Si3O10
_chemical_formula_sum   'Li8 Cu4 Si6 O20'
_cell_volume   409.74818929
_cell_formula_units_Z   2
loop_
 _symmetry_equiv_pos_site_id
 _symmetry_equiv_pos_as_xyz
  1  'x, y, z'
loop_
 _atom_site_type_symbol
 _atom_site_label
 _atom_site_symmetry_multiplicity
 _atom_site_fract_x
 _atom_site_fract_y
 _atom_site_fract_z
 _atom_site_occupancy
  Li  Li0  1  0.83528500  0.68244700  0.94687400  1
  Li  Li1  1  0.58414200  0.78752200  0.76560000  1
  Li  Li2  1  0.68244700  0.83528500  0.44687400  1
  Li  Li3  1  0.78752200  0.58414200  0.26560000  1
  Li  Li4  1  0.21247800  0.41585800  0.73440000  1
  Li  Li5  1  0.31755300  0.16471500  0.55312600  1
  Li  Li6  1  0.41585800  0.21247800  0.23440000  1
  Li  Li7  1  0.16471500  0.31755300  0.05312600  1
  Cu  Cu0  1  0.20058500  0.97975000  0.91795800  1
  Cu  Cu1  1  0.97975000  0.20058500  0.41795800  1
  Cu  Cu2  1  0.02025000  0.79941500  0.58204200  1
  Cu  Cu3  1  0.79941500  0.02025000  0.08204200  1
  Si  Si0  1  0.65605300  0.47087300  0.59688800  1
  Si  Si1  1  0.89103100  0.10896900  0.75000000  1
  Si  Si2  1  0.52912700  0.34394700  0.90311200  1
  Si  Si3  1  0.47087300  0.65605300  0.09688800  1
  Si  Si4  1  0.10896900  0.89103100  0.25000000  1
  Si  Si5  1  0.34394700  0.52912700  0.40311200  1
  O  O0  1  0.93277600  0.83771200  0.70497300  1
  O  O1  1  0.83771200  0.93277600  0.20497300  1
  O  O2  1  0.60711800  0.78463700  0.56574900  1
  O  O3  1  0.56756400  0.63197700  0.88656000  1
  O  O4  1  0.80210000  0.40259900  0.68828400  1
  O  O5  1  0.77840000  0.09038200  0.95922900  1
  O  O6  1  0.90961800  0.22160000  0.54077100  1
  O  O7  1  0.78463700  0.60711800  0.06574900  1
  O  O8  1  0.63197700  0.56756400  0.38656000  1
  O  O9  1  0.59740100  0.19790000  0.81171600  1
  O  O10  1  0.40259900  0.80210000  0.18828400  1
  O  O11  1  0.36802300  0.43243600  0.61344000  1
  O  O12  1  0.21536300  0.39288200  0.93425100  1
  O  O13  1  0.09038200  0.77840000  0.45922900  1
  O  O14  1  0.22160000  0.90961800  0.04077100  1
  O  O15  1  0.19790000  0.59740100  0.31171600  1
  O  O16  1  0.43243600  0.36802300  0.11344000  1
  O  O17  1  0.39288200  0.21536300  0.43425100  1
  O  O18  1  0.16228800  0.06722400  0.79502700  1
  O  O19  1  0.06722400  0.16228800  0.29502700  1
loop_
_geom_bond_atom_site_label_1
_geom_bond_atom_site_label_2
_geom_bond_distance
_geom_bond_site_symmetry_2
Li0 O12 1.894124 1_655
Li0 O7 1.936510 1_556
Li0 O3 1.976424 1_555
Li0 O5 2.100853 1_565
Li1 O3 2.047380 1_555
Li1 O18 2.072962 1_565
Li1 O0 2.128652 1_555
Li1 O4 2.282105 1_555
Li1 O9 2.455464 1_565
Li2 O17 1.894124 1_565
Li2 O2 1.936510 1_555
Li2 O8 1.976424 1_555
Li2 O13 2.100853 1_655
Li3 O8 2.047380 1_555
Li3 O19 2.072962 1_655
Li3 O1 2.128652 1_555
Li3 O10 2.282105 1_555
Li3 O15 2.455464 1_655
Li4 O11 2.047380 1_555
Li4 O0 2.072962 1_455
Li4 O18 2.128652 1_555
Li4 O9 2.282105 1_555
Li4 O4 2.455464 1_455
Li5 O2 1.894124 1_545
Li5 O17 1.936510 1_555
Li5 O11 1.976424 1_555
Li5 O6 2.100853 1_455
Li6 O16 2.047380 1_555
Li6 O1 2.072962 1_545
Li6 O19 2.128652 1_555
Li6 O15 2.282105 1_555
Li6 O10 2.455464 1_545
Li7 O7 1.894124 1_455
Li7 O12 1.936510 1_554
Li7 O16 1.976424 1_555
Li7 O14 2.100853 1_545
Cu0 O14 1.991286 1_556
Cu0 O18 2.007379 1_565
Cu0 O3 2.030405 1_555
Cu0 O5 2.097987 1_465
Cu0 O12 2.313117 1_565
Cu1 O6 1.991286 1_555
Cu1 O19 2.007379 1_655
Cu1 O8 2.030405 1_555
Cu1 O13 2.097987 1_645
Cu1 O17 2.313117 1_655
Cu2 O13 1.991286 1_555
Cu2 O0 2.007379 1_455
Cu2 O11 2.030405 1_555
Cu2 O6 2.097987 1_465
Cu2 O2 2.313117 1_455
Cu3 O5 1.991286 1_554
Cu3 O1 2.007379 1_545
Cu3 O16 2.030405 1_555
Cu3 O14 2.097987 1_645
Cu3 O7 2.313117 1_545
O0 Si1 1.622122 1_565
O1 Si4 1.622122 1_655
O2 Si0 1.605333 1_555
O3 Si2 1.647029 1_555
O4 Si1 1.654618 1_555
O4 Si0 1.684335 1_555
O5 Si2 1.655480 1_555
O6 Si0 1.655480 1_555
O7 Si3 1.605333 1_555
O8 Si5 1.647029 1_555
O9 Si1 1.654618 1_555
O9 Si2 1.684335 1_555
O10 Si4 1.654618 1_555
O10 Si3 1.684335 1_555
O11 Si0 1.647029 1_555
O12 Si2 1.605333 1_555
O13 Si5 1.655480 1_555
O14 Si3 1.655480 1_555
O15 Si4 1.654618 1_555
O15 Si5 1.684335 1_555
O16 Si3 1.647029 1_555
O17 Si5 1.605333 1_555
O18 Si1 1.622122 1_455
O19 Si4 1.622122 1_545
