# generated using pymatgen
data_HoBO3
_symmetry_space_group_name_H-M   'P 1'
_cell_length_a   6.50529908
_cell_length_b   6.50529908
_cell_length_c   8.78765674
_cell_angle_alpha   90.00000000
_cell_angle_beta   90.00000000
_cell_angle_gamma   120.06810456
_symmetry_Int_Tables_number   1
_chemical_formula_structural   HoBO3
_chemical_formula_sum   'Ho6 B6 O18'
_cell_volume   321.83983833
_cell_formula_units_Z   6
loop_
 _symmetry_equiv_pos_site_id
 _symmetry_equiv_pos_as_xyz
  1  'x, y, z'
loop_
 _atom_site_type_symbol
 _atom_site_label
 _atom_site_symmetry_multiplicity
 _atom_site_fract_x
 _atom_site_fract_y
 _atom_site_fract_z
 _atom_site_occupancy
  Ho  Ho0  1  0.82940143  0.17059857  0.00000000  1
  Ho  Ho1  1  0.82940143  0.17059857  0.50000000  1
  Ho  Ho2  1  0.50000000  0.50000000  0.00000000  1
  Ho  Ho3  1  0.50000000  0.50000000  0.50000000  1
  Ho  Ho4  1  0.17059857  0.82940143  0.50000000  1
  Ho  Ho5  1  0.17059857  0.82940143  0.00000000  1
  B  B0  1  0.83414940  0.59196262  0.25000000  1
  B  B1  1  0.40803738  0.16585060  0.75000000  1
  B  B2  1  0.92287485  0.92287485  0.75000000  1
  B  B3  1  0.07712515  0.07712515  0.25000000  1
  B  B4  1  0.59196262  0.83414940  0.25000000  1
  B  B5  1  0.16585060  0.40803738  0.75000000  1
  O  O0  1  0.83456655  0.05310260  0.25000000  1
  O  O1  1  0.94689740  0.16543345  0.75000000  1
  O  O2  1  0.83362755  0.48215476  0.39243217  1
  O  O3  1  0.83362755  0.48215476  0.10756783  1
  O  O4  1  0.51784524  0.16637245  0.89243217  1
  O  O5  1  0.51784524  0.16637245  0.60756783  1
  O  O6  1  0.81438143  0.81438143  0.60562515  1
  O  O7  1  0.38347483  0.38347483  0.75000000  1
  O  O8  1  0.81438143  0.81438143  0.89437485  1
  O  O9  1  0.18561857  0.18561857  0.10562515  1
  O  O10  1  0.18561857  0.18561857  0.39437485  1
  O  O11  1  0.61652517  0.61652517  0.25000000  1
  O  O12  1  0.48215476  0.83362755  0.10756783  1
  O  O13  1  0.16637245  0.51784524  0.60756783  1
  O  O14  1  0.48215476  0.83362755  0.39243217  1
  O  O15  1  0.16637245  0.51784524  0.89243217  1
  O  O16  1  0.05310260  0.83456655  0.25000000  1
  O  O17  1  0.16543345  0.94689740  0.75000000  1
loop_
_geom_bond_atom_site_label_1
_geom_bond_atom_site_label_2
_geom_bond_distance
_geom_bond_site_symmetry_2
Ho0 O4 2.224013 1_554
Ho0 O3 2.224013 1_555
Ho0 O0 2.331849 1_555
Ho0 O1 2.331849 1_554
Ho0 O12 2.416534 1_545
Ho0 O15 2.416534 1_654
Ho0 O9 2.452363 1_655
Ho0 O8 2.452363 1_544
Ho1 O5 2.224013 1_555
Ho1 O2 2.224013 1_555
Ho1 O0 2.331849 1_555
Ho1 O1 2.331849 1_555
Ho1 O14 2.416534 1_545
Ho1 O13 2.416534 1_655
Ho1 O10 2.452363 1_655
Ho1 O6 2.452363 1_545
Ho2 O8 2.244006 1_554
Ho2 O9 2.244006 1_555
Ho2 O11 2.323760 1_555
Ho2 O7 2.323760 1_554
Ho2 O3 2.422785 1_555
Ho2 O4 2.422785 1_554
Ho2 O12 2.422785 1_555
Ho2 O15 2.422785 1_554
Ho3 O6 2.244006 1_555
Ho3 O10 2.244006 1_555
Ho3 O11 2.323760 1_555
Ho3 O7 2.323760 1_555
Ho3 O14 2.422785 1_555
Ho3 O13 2.422785 1_555
Ho3 O2 2.422785 1_555
Ho3 O5 2.422785 1_555
Ho4 O13 2.224013 1_555
Ho4 O14 2.224013 1_555
Ho4 O16 2.331849 1_555
Ho4 O17 2.331849 1_555
Ho4 O2 2.416534 1_455
Ho4 O5 2.416534 1_565
Ho4 O10 2.452363 1_565
Ho4 O6 2.452363 1_455
Ho5 O12 2.224013 1_555
Ho5 O15 2.224013 1_554
Ho5 O16 2.331849 1_555
Ho5 O17 2.331849 1_554
Ho5 O4 2.416534 1_564
Ho5 O3 2.416534 1_455
Ho5 O9 2.452363 1_565
Ho5 O8 2.452363 1_454
B0 O2 1.440301 1_555
B0 O3 1.440301 1_555
B0 O11 1.502147 1_555
B0 O16 1.505649 1_655
B1 O4 1.440301 1_555
B1 O5 1.440301 1_555
B1 O7 1.502147 1_555
B1 O17 1.505649 1_545
B2 O6 1.451463 1_555
B2 O8 1.451463 1_555
B2 O17 1.505705 1_655
B2 O1 1.505705 1_565
B3 O10 1.451463 1_555
B3 O9 1.451463 1_555
B3 O16 1.505705 1_545
B3 O0 1.505705 1_455
B4 O12 1.440301 1_555
B4 O14 1.440301 1_555
B4 O11 1.502147 1_555
B4 O0 1.505649 1_565
B5 O15 1.440301 1_555
B5 O13 1.440301 1_555
B5 O7 1.502147 1_555
B5 O1 1.505649 1_455
