# generated using pymatgen
data_Co2OF3
_symmetry_space_group_name_H-M   'P 1'
_cell_length_a   4.67819900
_cell_length_b   5.61950881
_cell_length_c   13.40976939
_cell_angle_alpha   78.77183335
_cell_angle_beta   88.72444131
_cell_angle_gamma   88.35220188
_symmetry_Int_Tables_number   1
_chemical_formula_structural   Co2OF3
_chemical_formula_sum   'Co10 O5 F15'
_cell_volume   345.59132688
_cell_formula_units_Z   5
loop_
 _symmetry_equiv_pos_site_id
 _symmetry_equiv_pos_as_xyz
  1  'x, y, z'
loop_
 _atom_site_type_symbol
 _atom_site_label
 _atom_site_symmetry_multiplicity
 _atom_site_fract_x
 _atom_site_fract_y
 _atom_site_fract_z
 _atom_site_occupancy
  Co  Co0  1  0.45870800  0.50112300  0.01565600  1
  Co  Co1  1  0.49657500  0.70083300  0.40274600  1
  Co  Co2  1  0.50577100  0.29965900  0.60062600  1
  Co  Co3  1  0.49792000  0.09688700  0.19811600  1
  Co  Co4  1  0.55358200  0.90682800  0.79398700  1
  Co  Co5  1  0.00018500  0.20014800  0.39964800  1
  Co  Co6  1  0.99300500  0.38514600  0.80229500  1
  Co  Co7  1  0.97387800  0.61686500  0.20361100  1
  Co  Co8  1  0.01748100  0.79739300  0.60114500  1
  Co  Co9  1  0.98255300  0.99714300  0.99082500  1
  O  O0  1  0.80394700  0.07186200  0.85436200  1
  O  O1  1  0.71643500  0.99147400  0.65285800  1
  O  O2  1  0.69611400  0.77608800  0.26209300  1
  O  O3  1  0.28737500  0.43353900  0.13829000  1
  O  O4  1  0.30511700  0.61136400  0.54520800  1
  F  F0  1  0.80154100  0.28238900  0.25993300  1
  F  F1  1  0.79152300  0.68182500  0.06034400  1
  F  F2  1  0.81418100  0.87623600  0.46220100  1
  F  F3  1  0.80426200  0.48969100  0.66235800  1
  F  F4  1  0.69273200  0.19156500  0.05689400  1
  F  F5  1  0.69466900  0.37647700  0.46355900  1
  F  F6  1  0.68852500  0.56896300  0.86880700  1
  F  F7  1  0.31186000  0.21850300  0.73450500  1
  F  F8  1  0.30817300  0.81433400  0.93624700  1
  F  F9  1  0.30300500  0.01750700  0.33953100  1
  F  F10  1  0.18500900  0.92477100  0.13421700  1
  F  F11  1  0.20061900  0.31676500  0.93875800  1
  F  F12  1  0.20846700  0.11538100  0.53839400  1
  F  F13  1  0.21297900  0.71914500  0.74345700  1
  F  F14  1  0.19380900  0.52009900  0.33933000  1
loop_
_geom_bond_atom_site_label_1
_geom_bond_atom_site_label_2
_geom_bond_distance
_geom_bond_site_symmetry_2
Co0 O3 1.790711 1_555
Co0 F8 1.989974 1_554
Co0 F4 2.018241 1_555
Co0 F11 2.034168 1_554
Co0 F1 2.045452 1_555
Co0 F6 2.194536 1_554
Co1 F9 2.014812 1_565
Co1 F5 2.050316 1_555
Co1 F14 2.057567 1_555
Co1 O2 2.059463 1_555
Co1 F2 2.063467 1_555
Co1 O4 2.068877 1_555
Co2 F7 1.971397 1_555
Co2 O1 1.980236 1_545
Co2 O4 1.982722 1_555
Co2 F5 1.996569 1_555
Co2 F12 2.043109 1_555
Co2 F3 2.063268 1_555
Co3 O2 2.045126 1_545
Co3 F9 2.059988 1_555
Co3 F4 2.063647 1_555
Co3 F0 2.065297 1_555
Co3 F10 2.067034 1_545
Co3 O3 2.128315 1_555
Co4 O0 1.812320 1_565
Co4 O1 1.998588 1_555
Co4 F6 2.056068 1_555
Co4 F7 2.089212 1_565
Co4 F13 2.129197 1_555
Co4 F8 2.185890 1_555
Co5 F9 1.974320 1_555
Co5 F5 1.988436 1_455
Co5 F14 2.049907 1_555
Co5 F2 2.058645 1_445
Co5 F0 2.074360 1_455
Co5 F12 2.084913 1_555
Co6 O0 1.988085 1_555
Co6 F6 2.027088 1_555
Co6 F7 2.029579 1_655
Co6 F11 2.055115 1_655
Co6 F3 2.064157 1_555
Co6 F13 2.168538 1_655
Co7 O2 1.806976 1_555
Co7 O3 2.046177 1_655
Co7 F0 2.064097 1_555
Co7 F10 2.065361 1_655
Co7 F14 2.081426 1_655
Co7 F1 2.081800 1_555
Co8 O4 1.909377 1_555
Co8 O1 1.953600 1_455
Co8 F3 2.041731 1_455
Co8 F12 2.042617 1_565
Co8 F2 2.074987 1_455
Co8 F13 2.097492 1_555
Co9 O0 1.992937 1_565
Co9 F4 2.013755 1_566
Co9 F8 2.016094 1_655
Co9 F1 2.053814 1_556
Co9 F11 2.083158 1_665
Co9 F10 2.124667 1_656
