# generated using pymatgen
data_V2O5
_symmetry_space_group_name_H-M   'P 1'
_cell_length_a   7.79556712
_cell_length_b   6.49121173
_cell_length_c   7.52374000
_cell_angle_alpha   90.00000000
_cell_angle_beta   90.00000000
_cell_angle_gamma   90.00000000
_symmetry_Int_Tables_number   1
_chemical_formula_structural   V2O5
_chemical_formula_sum   'V8 O20'
_cell_volume   380.72138303
_cell_formula_units_Z   4
loop_
 _symmetry_equiv_pos_site_id
 _symmetry_equiv_pos_as_xyz
  1  'x, y, z'
loop_
 _atom_site_type_symbol
 _atom_site_label
 _atom_site_symmetry_multiplicity
 _atom_site_fract_x
 _atom_site_fract_y
 _atom_site_fract_z
 _atom_site_occupancy
  V  V0  1  0.16906841  0.25000000  0.74042822  1
  V  V1  1  0.33093159  0.75000000  0.24042822  1
  V  V2  1  0.66906841  0.25000000  0.75957178  1
  V  V3  1  0.83093159  0.75000000  0.25957178  1
  V  V4  1  0.11906606  0.75000000  0.62268976  1
  V  V5  1  0.38093394  0.25000000  0.12268976  1
  V  V6  1  0.61906606  0.75000000  0.87731024  1
  V  V7  1  0.88093394  0.25000000  0.37731024  1
  O  O0  1  0.05547848  0.25000000  0.51199651  1
  O  O1  1  0.13589718  0.75000000  0.17290805  1
  O  O2  1  0.12047906  0.53160155  0.75192919  1
  O  O3  1  0.12047906  0.96839845  0.75192919  1
  O  O4  1  0.20505564  0.25000000  0.98446600  1
  O  O5  1  0.29494436  0.75000000  0.48446600  1
  O  O6  1  0.37952094  0.03160155  0.25192919  1
  O  O7  1  0.37952094  0.46839845  0.25192919  1
  O  O8  1  0.36410282  0.25000000  0.67290805  1
  O  O9  1  0.44452152  0.75000000  0.01199651  1
  O  O10  1  0.55547848  0.25000000  0.98800349  1
  O  O11  1  0.63589718  0.75000000  0.32709195  1
  O  O12  1  0.62047906  0.53160155  0.74807081  1
  O  O13  1  0.62047906  0.96839845  0.74807081  1
  O  O14  1  0.70505564  0.25000000  0.51553400  1
  O  O15  1  0.79494436  0.75000000  0.01553400  1
  O  O16  1  0.87952094  0.03160155  0.24807081  1
  O  O17  1  0.87952094  0.46839845  0.24807081  1
  O  O18  1  0.86410282  0.25000000  0.82709195  1
  O  O19  1  0.94452152  0.75000000  0.48800349  1
loop_
_geom_bond_atom_site_label_1
_geom_bond_atom_site_label_2
_geom_bond_distance
_geom_bond_site_symmetry_2
O0 V7 1.696555 1_455
O0 V0 1.933365 1_555
O1 V1 1.603027 1_555
O2 V4 1.719128 1_555
O2 V0 1.868772 1_555
O3 V4 1.719128 1_555
O3 V0 1.868772 1_565
O4 V5 1.720858 1_556
O4 V0 1.857386 1_555
O5 V4 1.720858 1_555
O5 V1 1.857386 1_555
O6 V5 1.719128 1_555
O6 V1 1.868772 1_545
O7 V5 1.719128 1_555
O7 V1 1.868772 1_555
O8 V0 1.603027 1_555
O9 V6 1.696555 1_554
O9 V1 1.933365 1_555
O10 V5 1.696555 1_556
O10 V2 1.933365 1_555
O11 V3 1.603027 1_555
O12 V6 1.719128 1_555
O12 V2 1.868772 1_555
O13 V6 1.719128 1_555
O13 V2 1.868772 1_565
O14 V7 1.720858 1_555
O14 V2 1.857386 1_555
O15 V6 1.720858 1_554
O15 V3 1.857386 1_555
O16 V7 1.719128 1_555
O16 V3 1.868772 1_545
O17 V7 1.719128 1_555
O17 V3 1.868772 1_555
O18 V2 1.603027 1_555
O19 V4 1.696555 1_655
O19 V3 1.933365 1_555
