# generated using pymatgen
data_Nb5N6
_symmetry_space_group_name_H-M   'P 1'
_cell_length_a   5.25040736
_cell_length_b   5.25040612
_cell_length_c   10.48676556
_cell_angle_alpha   90.00000000
_cell_angle_beta   90.00000000
_cell_angle_gamma   119.99999495
_symmetry_Int_Tables_number   1
_chemical_formula_structural   Nb5N6
_chemical_formula_sum   'Nb10 N12'
_cell_volume   250.35606148
_cell_formula_units_Z   2
loop_
 _symmetry_equiv_pos_site_id
 _symmetry_equiv_pos_as_xyz
  1  'x, y, z'
loop_
 _atom_site_type_symbol
 _atom_site_label
 _atom_site_symmetry_multiplicity
 _atom_site_fract_x
 _atom_site_fract_y
 _atom_site_fract_z
 _atom_site_occupancy
  Nb  Nb0  1  0.33333300  0.66666700  0.50000000  1
  Nb  Nb1  1  0.66666700  0.33333300  -0.00000000  1
  Nb  Nb2  1  0.66666700  0.33333300  0.50000000  1
  Nb  Nb3  1  0.33333300  0.66666700  -0.00000000  1
  Nb  Nb4  1  0.67583928  0.00000000  0.75000000  1
  Nb  Nb5  1  0.67583928  0.67583928  0.25000000  1
  Nb  Nb6  1  0.00000000  0.32416072  0.25000000  1
  Nb  Nb7  1  -0.00000000  0.67583928  0.75000000  1
  Nb  Nb8  1  0.32416072  0.32416072  0.75000000  1
  Nb  Nb9  1  0.32416072  -0.00000000  0.25000000  1
  N  N0  1  0.34086608  0.34086608  0.37790654  1
  N  N1  1  0.65913392  -0.00000000  0.37790654  1
  N  N2  1  0.00000000  0.65913392  0.37790654  1
  N  N3  1  -0.00000000  0.34086608  0.87790554  1
  N  N4  1  0.65913392  -0.00000000  0.12209346  1
  N  N5  1  0.65913392  0.65913392  0.87790554  1
  N  N6  1  0.34086608  0.00000000  0.87790554  1
  N  N7  1  0.65913392  0.65913392  0.62209446  1
  N  N8  1  -0.00000000  0.34086608  0.62209446  1
  N  N9  1  0.00000000  0.65913392  0.12209346  1
  N  N10  1  0.34086608  0.00000000  0.62209446  1
  N  N11  1  0.34086608  0.34086608  0.12209346  1
loop_
_geom_bond_atom_site_label_1
_geom_bond_atom_site_label_2
_geom_bond_distance
_geom_bond_site_symmetry_2
N0 Nb0 2.152827 1_555
N0 Nb2 2.152828 1_555
N0 Nb9 2.202918 1_555
N0 Nb6 2.202919 1_555
N0 Nb5 2.211864 1_555
N1 Nb2 2.152823 1_555
N1 Nb0 2.152825 1_545
N1 Nb5 2.202918 1_545
N1 Nb6 2.202919 1_655
N1 Nb9 2.211864 1_555
N2 Nb0 2.152823 1_555
N2 Nb2 2.152825 1_455
N2 Nb9 2.202918 1_565
N2 Nb5 2.202919 1_455
N2 Nb6 2.211864 1_555
N3 Nb1 2.152830 1_456
N3 Nb3 2.152832 1_556
N3 Nb4 2.202912 1_455
N3 Nb8 2.202912 1_555
N3 Nb7 2.211857 1_555
N4 Nb1 2.152823 1_555
N4 Nb3 2.152825 1_545
N4 Nb5 2.202918 1_545
N4 Nb6 2.202919 1_655
N4 Nb9 2.211864 1_555
N5 Nb1 2.152833 1_556
N5 Nb3 2.152834 1_556
N5 Nb4 2.202912 1_565
N5 Nb7 2.202912 1_655
N5 Nb8 2.211857 1_555
N6 Nb3 2.152829 1_546
N6 Nb1 2.152832 1_556
N6 Nb8 2.202912 1_555
N6 Nb7 2.202912 1_545
N6 Nb4 2.211858 1_555
N7 Nb2 2.152833 1_555
N7 Nb0 2.152834 1_555
N7 Nb4 2.202912 1_565
N7 Nb7 2.202912 1_655
N7 Nb8 2.211857 1_555
N8 Nb2 2.152830 1_455
N8 Nb0 2.152832 1_555
N8 Nb4 2.202912 1_455
N8 Nb8 2.202912 1_555
N8 Nb7 2.211857 1_555
N9 Nb3 2.152823 1_555
N9 Nb1 2.152825 1_455
N9 Nb9 2.202918 1_565
N9 Nb5 2.202919 1_455
N9 Nb6 2.211864 1_555
N10 Nb0 2.152829 1_545
N10 Nb2 2.152832 1_555
N10 Nb8 2.202912 1_555
N10 Nb7 2.202912 1_545
N10 Nb4 2.211858 1_555
N11 Nb3 2.152827 1_555
N11 Nb1 2.152828 1_555
N11 Nb9 2.202918 1_555
N11 Nb6 2.202919 1_555
N11 Nb5 2.211864 1_555
