# generated using pymatgen
data_Mn4CuO8
_symmetry_space_group_name_H-M   'P 1'
_cell_length_a   6.01074186
_cell_length_b   6.01074212
_cell_length_c   6.10076881
_cell_angle_alpha   87.40305282
_cell_angle_beta   59.56257104
_cell_angle_gamma   57.87259955
_symmetry_Int_Tables_number   1
_chemical_formula_structural   Mn4CuO8
_chemical_formula_sum   'Mn4 Cu1 O8'
_cell_volume   153.16927053
_cell_formula_units_Z   1
loop_
 _symmetry_equiv_pos_site_id
 _symmetry_equiv_pos_as_xyz
  1  'x, y, z'
loop_
 _atom_site_type_symbol
 _atom_site_label
 _atom_site_symmetry_multiplicity
 _atom_site_fract_x
 _atom_site_fract_y
 _atom_site_fract_z
 _atom_site_occupancy
  Mn  Mn0  1  0.00000000  0.50000000  0.50000000  1
  Mn  Mn1  1  0.00000000  0.00000000  0.00000000  1
  Mn  Mn2  1  0.50000000  0.00000000  0.00000000  1
  Mn  Mn3  1  0.00000000  0.50000000  0.00000000  1
  Cu  Cu0  1  0.50000000  0.50000000  0.00000000  1
  O  O0  1  0.46107000  0.26258800  0.80151800  1
  O  O1  1  0.97586600  0.27977400  0.80200300  1
  O  O2  1  0.47777200  0.77786800  0.80200300  1
  O  O3  1  0.96303500  0.74249100  0.77945600  1
  O  O4  1  0.03696500  0.25750900  0.22054400  1
  O  O5  1  0.52222800  0.22213200  0.19799700  1
  O  O6  1  0.02413400  0.72022600  0.19799700  1
  O  O7  1  0.53893000  0.73741200  0.19848200  1
loop_
_geom_bond_atom_site_label_1
_geom_bond_atom_site_label_2
_geom_bond_distance
_geom_bond_site_symmetry_2
Mn0 O3 2.139493 1_455
Mn0 O4 2.139493 1_555
Mn0 O5 2.209144 1_555
Mn0 O2 2.209144 1_455
Mn0 O6 2.209148 1_555
Mn0 O1 2.209148 1_455
Mn1 O1 2.010495 1_454
Mn1 O6 2.010495 1_545
Mn1 O2 2.010500 1_544
Mn1 O5 2.010500 1_455
Mn1 O4 2.261161 1_555
Mn1 O3 2.261161 1_444
Mn2 O7 1.932167 1_545
Mn2 O0 1.932167 1_554
Mn2 O2 1.938830 1_544
Mn2 O5 1.938830 1_555
Mn2 O3 1.940333 1_544
Mn2 O4 1.940333 1_555
Mn3 O0 1.932167 1_554
Mn3 O7 1.932167 1_455
Mn3 O1 1.938830 1_454
Mn3 O6 1.938830 1_555
Mn3 O3 1.940333 1_454
Mn3 O4 1.940333 1_555
Cu0 O2 2.002461 1_554
Cu0 O5 2.002461 1_555
Cu0 O1 2.002465 1_554
Cu0 O6 2.002465 1_555
Cu0 O7 2.087161 1_555
Cu0 O0 2.087161 1_554
