# generated using pymatgen
data_Fe6O5F7
_symmetry_space_group_name_H-M   'P 1'
_cell_length_a   5.67947904
_cell_length_b   5.67947904
_cell_length_c   7.29677312
_cell_angle_alpha   72.78512291
_cell_angle_beta   72.78512291
_cell_angle_gamma   75.47435175
_symmetry_Int_Tables_number   1
_chemical_formula_structural   Fe6O5F7
_chemical_formula_sum   'Fe6 O5 F7'
_cell_volume   211.28807536
_cell_formula_units_Z   1
loop_
 _symmetry_equiv_pos_site_id
 _symmetry_equiv_pos_as_xyz
  1  'x, y, z'
loop_
 _atom_site_type_symbol
 _atom_site_label
 _atom_site_symmetry_multiplicity
 _atom_site_fract_x
 _atom_site_fract_y
 _atom_site_fract_z
 _atom_site_occupancy
  Fe  Fe0  1  0.33316700  0.66683300  0.00000000  1
  Fe  Fe1  1  0.00455800  0.33099400  0.85716500  1
  Fe  Fe2  1  0.31122400  0.68877600  0.50000000  1
  Fe  Fe3  1  0.98435400  0.30029100  0.34086400  1
  Fe  Fe4  1  0.69970900  0.01564600  0.65913600  1
  Fe  Fe5  1  0.66900600  0.99544200  0.14283500  1
  O  O0  1  0.88923500  0.21933800  0.13639500  1
  O  O1  1  0.23252800  0.56647700  0.80049300  1
  O  O2  1  0.43352300  0.76747200  0.19950700  1
  O  O3  1  0.78066200  0.11076500  0.86360500  1
  O  O4  1  0.03908200  0.96091800  0.50000000  1
  F  F0  1  0.31541600  0.02677800  0.82916800  1
  F  F1  1  0.61438900  0.38561100  0.50000000  1
  F  F2  1  0.56934500  0.90647900  0.46261100  1
  F  F3  1  0.09352100  0.43065500  0.53738900  1
  F  F4  1  0.69519100  0.63812700  0.83189100  1
  F  F5  1  0.36187300  0.30480900  0.16810900  1
  F  F6  1  0.97322200  0.68458400  0.17083200  1
loop_
_geom_bond_atom_site_label_1
_geom_bond_atom_site_label_2
_geom_bond_distance
_geom_bond_site_symmetry_2
Fe0 O2 1.979360 1_555
Fe0 O1 1.979360 1_554
Fe1 O0 1.906859 1_456
Fe1 O1 1.964798 1_555
Fe1 O3 1.977715 1_455
Fe2 O4 1.891969 1_555
Fe2 O1 2.040596 1_555
Fe2 O2 2.040596 1_555
Fe3 O0 1.933105 1_555
Fe3 O4 1.936077 1_645
Fe4 O3 1.933105 1_555
Fe4 O4 1.936077 1_645
Fe5 O3 1.906859 1_564
Fe5 O2 1.964798 1_555
Fe5 O0 1.977715 1_565
F0 Fe0 2.050804 1_546
F0 Fe1 2.146923 1_555
F0 Fe4 2.163641 1_555
F1 Fe4 2.091969 1_555
F1 Fe3 2.091969 1_555
F1 Fe2 2.107646 1_555
F2 Fe2 2.055529 1_555
F2 Fe4 2.091399 1_565
F2 Fe5 2.164253 1_555
F3 Fe2 2.055529 1_555
F3 Fe3 2.091399 1_455
F3 Fe1 2.164253 1_555
F4 Fe0 2.053333 1_556
F4 Fe4 2.143716 1_565
F4 Fe1 2.151263 1_655
F5 Fe0 2.053333 1_555
F5 Fe3 2.143716 1_455
F5 Fe5 2.151263 1_545
F6 Fe0 2.050804 1_655
F6 Fe5 2.146923 1_555
F6 Fe3 2.163641 1_555
