# generated using pymatgen
data_LiSn(PO3)4
_symmetry_space_group_name_H-M   'P 1'
_cell_length_a   13.31484600
_cell_length_b   7.43821000
_cell_length_c   11.93570808
_cell_angle_alpha   55.55895812
_cell_angle_beta   90.00000000
_cell_angle_gamma   90.00000000
_symmetry_Int_Tables_number   1
_chemical_formula_structural   LiSn(PO3)4
_chemical_formula_sum   'Li4 Sn4 P16 O48'
_cell_volume   974.88478079
_cell_formula_units_Z   4
loop_
 _symmetry_equiv_pos_site_id
 _symmetry_equiv_pos_as_xyz
  1  'x, y, z'
loop_
 _atom_site_type_symbol
 _atom_site_label
 _atom_site_symmetry_multiplicity
 _atom_site_fract_x
 _atom_site_fract_y
 _atom_site_fract_z
 _atom_site_occupancy
  Li  Li0  1  0.20505500  0.87526300  0.03501600  1
  Li  Li1  1  0.70505500  0.12473700  0.46498400  1
  Li  Li2  1  0.29494500  0.87526300  0.53501600  1
  Li  Li3  1  0.79494500  0.12473700  0.96498400  1
  Sn  Sn0  1  0.79241600  0.47421300  0.06659100  1
  Sn  Sn1  1  0.29241600  0.52578700  0.43340900  1
  Sn  Sn2  1  0.70758400  0.47421300  0.56659100  1
  Sn  Sn3  1  0.20758400  0.52578700  0.93340900  1
  P  P0  1  0.37196500  0.41725800  0.19938300  1
  P  P1  1  0.58808800  0.49023500  0.20390600  1
  P  P2  1  0.12166600  0.15671400  0.24788100  1
  P  P3  1  0.90714300  0.04905900  0.22840700  1
  P  P4  1  0.40714300  0.95094100  0.27159300  1
  P  P5  1  0.62166600  0.84328600  0.25211900  1
  P  P6  1  0.08808800  0.50976500  0.29609400  1
  P  P7  1  0.87196500  0.58274200  0.30061700  1
  P  P8  1  0.12803500  0.41725800  0.69938300  1
  P  P9  1  0.91191200  0.49023500  0.70390600  1
  P  P10  1  0.37833400  0.15671400  0.74788100  1
  P  P11  1  0.59285700  0.04905900  0.72840700  1
  P  P12  1  0.09285700  0.95094100  0.77159300  1
  P  P13  1  0.87833400  0.84328600  0.75211900  1
  P  P14  1  0.41191200  0.50976500  0.79609400  1
  P  P15  1  0.62803500  0.58274200  0.80061700  1
  O  O0  1  0.65698200  0.61410800  0.07965200  1
  O  O1  1  0.89864600  0.18137100  0.07461800  1
  O  O2  1  0.15295900  0.22954700  0.10439100  1
  O  O3  1  0.29120500  0.55678200  0.09704200  1
  O  O4  1  0.47820300  0.53144300  0.13563300  1
  O  O5  1  0.69360300  0.96427600  0.13870300  1
  O  O6  1  0.86159800  0.63418100  0.15913400  1
  O  O7  1  0.37971700  0.20040400  0.20406800  1
  O  O8  1  0.34384800  0.85963700  0.20929700  1
  O  O9  1  0.52101800  0.98439300  0.21808500  1
  O  O10  1  0.07963000  0.37781300  0.22702700  1
  O  O11  1  0.11153500  0.74137000  0.19207400  1
  O  O12  1  0.61153500  0.25863000  0.30792600  1
  O  O13  1  0.57963000  0.62218700  0.27297300  1
  O  O14  1  0.02101800  0.01560700  0.28191500  1
  O  O15  1  0.84384800  0.14036300  0.29070300  1
  O  O16  1  0.87971700  0.79959600  0.29593200  1
  O  O17  1  0.36159800  0.36581900  0.34086600  1
  O  O18  1  0.19360300  0.03572400  0.36129700  1
  O  O19  1  0.97820300  0.46855700  0.36436700  1
  O  O20  1  0.79120500  0.44321800  0.40295800  1
  O  O21  1  0.65295900  0.77045300  0.39560900  1
  O  O22  1  0.39864600  0.81862900  0.42538200  1
  O  O23  1  0.15698200  0.38589200  0.42034800  1
  O  O24  1  0.84301800  0.61410800  0.57965200  1
  O  O25  1  0.60135400  0.18137100  0.57461800  1
  O  O26  1  0.34704100  0.22954700  0.60439100  1
  O  O27  1  0.20879500  0.55678200  0.59704200  1
  O  O28  1  0.02179700  0.53144300  0.63563300  1
  O  O29  1  0.80639700  0.96427600  0.63870300  1
  O  O30  1  0.63840200  0.63418100  0.65913400  1
  O  O31  1  0.12028300  0.20040400  0.70406800  1
  O  O32  1  0.15615200  0.85963700  0.70929700  1
  O  O33  1  0.97898200  0.98439300  0.71808500  1
  O  O34  1  0.42037000  0.37781300  0.72702700  1
  O  O35  1  0.38846500  0.74137000  0.69207400  1
  O  O36  1  0.88846500  0.25863000  0.80792600  1
  O  O37  1  0.92037000  0.62218700  0.77297300  1
  O  O38  1  0.47898200  0.01560700  0.78191500  1
  O  O39  1  0.65615200  0.14036300  0.79070300  1
  O  O40  1  0.62028300  0.79959600  0.79593200  1
  O  O41  1  0.13840200  0.36581900  0.84086600  1
  O  O42  1  0.30639700  0.03572400  0.86129700  1
  O  O43  1  0.52179700  0.46855700  0.86436700  1
  O  O44  1  0.70879500  0.44321800  0.90295800  1
  O  O45  1  0.84704100  0.77045300  0.89560900  1
  O  O46  1  0.10135400  0.81862900  0.92538200  1
  O  O47  1  0.34301800  0.38589200  0.92034800  1
loop_
_geom_bond_atom_site_label_1
_geom_bond_atom_site_label_2
_geom_bond_distance
_geom_bond_site_symmetry_2
Li0 O11 1.986145 1_555
Li0 O46 2.102333 1_554
Li0 O42 2.178368 1_564
Li0 O3 2.343493 1_555
Li1 O12 1.986145 1_555
Li1 O25 2.102333 1_555
Li1 O29 2.178368 1_545
Li1 O20 2.343493 1_555
Li2 O35 1.986145 1_555
Li2 O22 2.102333 1_555
Li2 O18 2.178368 1_565
Li2 O27 2.343493 1_555
Li3 O36 1.986145 1_555
Li3 O1 2.102333 1_556
Li3 O5 2.178368 1_546
Li3 O44 2.343493 1_555
O0 P1 1.531093 1_555
O0 Sn0 2.131291 1_555
O1 P3 1.519000 1_555
O1 Sn0 2.553116 1_555
O2 P2 1.533233 1_555
O2 Sn3 2.112519 1_554
O3 P0 1.513775 1_555
O3 Sn3 2.369944 1_554
O4 P0 1.603207 1_555
O4 P1 1.617447 1_555
O5 P5 1.477111 1_555
O6 P7 1.512057 1_555
O6 Sn0 2.229575 1_555
O7 P0 1.585416 1_555
O7 P4 1.591989 1_545
O8 P4 1.515098 1_555
O8 Sn1 2.505452 1_555
O9 P5 1.606324 1_555
O9 P4 1.609035 1_555
O10 P6 1.603360 1_555
O10 P2 1.617667 1_555
O11 P6 1.478990 1_555
O12 P1 1.478990 1_555
O13 P1 1.603360 1_555
O13 P5 1.617667 1_555
O14 P2 1.606324 1_555
O14 P3 1.609035 1_455
O15 P3 1.515098 1_555
O15 Sn0 2.505452 1_555
O16 P7 1.585416 1_555
O16 P3 1.591989 1_565
O17 P0 1.512057 1_555
O17 Sn1 2.229575 1_555
O18 P2 1.477111 1_555
O19 P7 1.603207 1_555
O19 P6 1.617447 1_655
O20 P7 1.513775 1_555
O20 Sn2 2.369944 1_555
O21 P5 1.533233 1_555
O21 Sn2 2.112519 1_555
O22 P4 1.519000 1_555
O22 Sn1 2.553116 1_555
O23 P6 1.531093 1_555
O23 Sn1 2.131291 1_555
O24 P9 1.531093 1_555
O24 Sn2 2.131291 1_555
O25 P11 1.519000 1_555
O25 Sn2 2.553116 1_555
O26 P10 1.533233 1_555
O26 Sn1 2.112519 1_555
O27 P8 1.513775 1_555
O27 Sn1 2.369944 1_555
O28 P8 1.603207 1_555
O28 P9 1.617447 1_455
O29 P13 1.477111 1_555
O30 P15 1.512057 1_555
O30 Sn2 2.229575 1_555
O31 P8 1.585416 1_555
O31 P12 1.591989 1_545
O32 P12 1.515098 1_555
O32 Sn3 2.505452 1_555
O33 P13 1.606324 1_555
O33 P12 1.609035 1_655
O34 P14 1.603360 1_555
O34 P10 1.617667 1_555
O35 P14 1.478990 1_555
O36 P9 1.478990 1_555
O37 P9 1.603360 1_555
O37 P13 1.617667 1_555
O38 P10 1.606324 1_555
O38 P11 1.609035 1_555
O39 P11 1.515098 1_555
O39 Sn2 2.505452 1_555
O40 P15 1.585416 1_555
O40 P11 1.591989 1_565
O41 P8 1.512057 1_555
O41 Sn3 2.229575 1_555
O42 P10 1.477111 1_555
O43 P15 1.603207 1_555
O43 P14 1.617447 1_555
O44 P15 1.513775 1_555
O44 Sn0 2.369944 1_556
O45 P13 1.533233 1_555
O45 Sn0 2.112519 1_556
O46 P12 1.519000 1_555
O46 Sn3 2.553116 1_555
O47 P14 1.531093 1_555
O47 Sn3 2.131291 1_555
