# generated using pymatgen
data_LiCr4(PO4)3
_symmetry_space_group_name_H-M   'P 1'
_cell_length_a   6.46077700
_cell_length_b   9.97460300
_cell_length_c   16.34409200
_cell_angle_alpha   90.00000000
_cell_angle_beta   90.00000000
_cell_angle_gamma   90.00000000
_symmetry_Int_Tables_number   1
_chemical_formula_structural   LiCr4(PO4)3
_chemical_formula_sum   'Li4 Cr16 P12 O48'
_cell_volume   1053.27352703
_cell_formula_units_Z   4
loop_
 _symmetry_equiv_pos_site_id
 _symmetry_equiv_pos_as_xyz
  1  'x, y, z'
loop_
 _atom_site_type_symbol
 _atom_site_label
 _atom_site_symmetry_multiplicity
 _atom_site_fract_x
 _atom_site_fract_y
 _atom_site_fract_z
 _atom_site_occupancy
  Li  Li0  1  0.00000000  0.28290900  0.47156900  1
  Li  Li1  1  0.00000000  0.71709100  0.52843100  1
  Li  Li2  1  0.50000000  0.78290900  0.02843100  1
  Li  Li3  1  0.50000000  0.21709100  0.97156900  1
  Cr  Cr0  1  0.00000000  0.54212000  0.09830300  1
  Cr  Cr1  1  0.00000000  0.98118300  0.14405800  1
  Cr  Cr2  1  0.00000000  0.01881700  0.85594300  1
  Cr  Cr3  1  0.00000000  0.45788000  0.90169700  1
  Cr  Cr4  1  0.24894100  0.75398300  0.29538800  1
  Cr  Cr5  1  0.24894100  0.24601700  0.70461200  1
  Cr  Cr6  1  0.25105900  0.25398300  0.20461200  1
  Cr  Cr7  1  0.25105900  0.74601700  0.79538800  1
  Cr  Cr8  1  0.50000000  0.95788000  0.59830300  1
  Cr  Cr9  1  0.50000000  0.48118300  0.35594200  1
  Cr  Cr10  1  0.50000000  0.04212000  0.40169700  1
  Cr  Cr11  1  0.50000000  0.51881700  0.64405700  1
  Cr  Cr12  1  0.74894100  0.25398300  0.20461200  1
  Cr  Cr13  1  0.74894100  0.74601700  0.79538800  1
  Cr  Cr14  1  0.75105900  0.75398300  0.29538800  1
  Cr  Cr15  1  0.75105900  0.24601700  0.70461200  1
  P  P0  1  0.00000000  0.21492200  0.02743500  1
  P  P1  1  0.00000000  0.04574600  0.33546700  1
  P  P2  1  0.00000000  0.46562100  0.28987600  1
  P  P3  1  0.00000000  0.53437900  0.71012400  1
  P  P4  1  0.00000000  0.95425400  0.66453300  1
  P  P5  1  0.00000000  0.78507800  0.97256500  1
  P  P6  1  0.50000000  0.96562100  0.21012400  1
  P  P7  1  0.50000000  0.71492200  0.47256500  1
  P  P8  1  0.50000000  0.28507800  0.52743500  1
  P  P9  1  0.50000000  0.03437900  0.78987600  1
  P  P10  1  0.50000000  0.54574600  0.16453300  1
  P  P11  1  0.50000000  0.45425400  0.83546700  1
  O  O0  1  0.00000000  0.36922200  0.01367900  1
  O  O1  1  0.00000000  0.11674200  0.24539800  1
  O  O2  1  0.00000000  0.39859100  0.19925200  1
  O  O3  1  0.00000000  0.84866300  0.05687900  1
  O  O4  1  0.00000000  0.62129100  0.27631400  1
  O  O5  1  0.00000000  0.10962600  0.68213400  1
  O  O6  1  0.00000000  0.89037400  0.31786600  1
  O  O7  1  0.00000000  0.37870900  0.72368600  1
  O  O8  1  0.00000000  0.15133700  0.94312100  1
  O  O9  1  0.00000000  0.60140900  0.80074800  1
  O  O10  1  0.00000000  0.88325800  0.75460200  1
  O  O11  1  0.00000000  0.63077800  0.98632100  1
  O  O12  1  0.19256500  0.09104900  0.38090500  1
  O  O13  1  0.19256500  0.90895100  0.61909500  1
  O  O14  1  0.19537300  0.41474800  0.33117600  1
  O  O15  1  0.19537300  0.58525200  0.66882400  1
  O  O16  1  0.19828500  0.17496100  0.07642800  1
  O  O17  1  0.19828500  0.82503900  0.92357200  1
  O  O18  1  0.30171500  0.32503900  0.57642800  1
  O  O19  1  0.30171500  0.67496100  0.42357200  1
  O  O20  1  0.30462700  0.91474800  0.16882400  1
  O  O21  1  0.30462700  0.08525200  0.83117600  1
  O  O22  1  0.30743500  0.40895100  0.88090500  1
  O  O23  1  0.30743500  0.59104900  0.11909500  1
  O  O24  1  0.50000000  0.34866300  0.44312100  1
  O  O25  1  0.50000000  0.86922200  0.48632100  1
  O  O26  1  0.50000000  0.13077800  0.51367900  1
  O  O27  1  0.50000000  0.65133700  0.55687900  1
  O  O28  1  0.50000000  0.87870900  0.77631400  1
  O  O29  1  0.50000000  0.60962600  0.81786600  1
  O  O30  1  0.50000000  0.61674200  0.25460200  1
  O  O31  1  0.50000000  0.89859100  0.30074800  1
  O  O32  1  0.50000000  0.10140900  0.69925200  1
  O  O33  1  0.50000000  0.39037400  0.18213400  1
  O  O34  1  0.50000000  0.12129100  0.22368600  1
  O  O35  1  0.50000000  0.38325800  0.74539800  1
  O  O36  1  0.69256500  0.59104900  0.11909500  1
  O  O37  1  0.69256500  0.40895100  0.88090500  1
  O  O38  1  0.69537300  0.91474800  0.16882400  1
  O  O39  1  0.69537300  0.08525200  0.83117600  1
  O  O40  1  0.69828500  0.67496100  0.42357200  1
  O  O41  1  0.69828500  0.32503900  0.57642800  1
  O  O42  1  0.80171500  0.17496100  0.07642800  1
  O  O43  1  0.80171500  0.82503900  0.92357200  1
  O  O44  1  0.80462700  0.41474800  0.33117600  1
  O  O45  1  0.80462700  0.58525200  0.66882400  1
  O  O46  1  0.80743500  0.09104900  0.38090500  1
  O  O47  1  0.80743500  0.90895100  0.61909500  1
loop_
_geom_bond_atom_site_label_1
_geom_bond_atom_site_label_2
_geom_bond_distance
_geom_bond_site_symmetry_2
Li0 O18 2.629375 1_555
Li0 O41 2.629375 1_455
Li0 O46 2.721393 1_455
Li0 O12 2.721393 1_555
Li1 O19 2.629375 1_555
Li1 O40 2.629375 1_455
Li1 O47 2.721393 1_455
Li1 O13 2.721393 1_555
Li2 O17 2.629375 1_554
Li2 O43 2.629375 1_554
Li2 O23 2.721393 1_555
Li2 O36 2.721393 1_555
Li3 O42 2.629375 1_556
Li3 O16 2.629375 1_556
Li3 O22 2.721393 1_555
Li3 O37 2.721393 1_555
Cr0 O11 2.032690 1_554
Cr0 O36 2.073388 1_455
Cr0 O23 2.073388 1_555
Cr0 O2 2.184455 1_555
Cr0 O0 2.210697 1_555
Cr1 O3 1.943573 1_555
Cr1 O20 2.115772 1_555
Cr1 O38 2.115772 1_455
Cr1 O1 2.138145 1_565
Cr1 O42 2.568832 1_465
Cr1 O16 2.568832 1_565
Cr2 O8 1.943561 1_555
Cr2 O39 2.115775 1_455
Cr2 O21 2.115775 1_555
Cr2 O10 2.138158 1_545
Cr2 O17 2.568825 1_545
Cr2 O43 2.568825 1_445
Cr3 O0 2.032690 1_556
Cr3 O37 2.073388 1_455
Cr3 O22 2.073388 1_555
Cr3 O9 2.184455 1_555
Cr3 O11 2.210697 1_555
Cr4 O4 2.106126 1_555
Cr4 O6 2.138359 1_555
Cr4 O31 2.172375 1_555
Cr4 O30 2.224708 1_555
Cr4 O19 2.264238 1_555
Cr4 O20 2.641943 1_555
Cr5 O7 2.106126 1_555
Cr5 O5 2.138359 1_555
Cr5 O32 2.172375 1_555
Cr5 O35 2.224708 1_555
Cr5 O18 2.264238 1_555
Cr5 O21 2.641943 1_555
Cr6 O34 2.106126 1_555
Cr6 O33 2.138359 1_555
Cr6 O2 2.172375 1_555
Cr6 O1 2.224708 1_555
Cr6 O16 2.264238 1_555
Cr6 O14 2.641943 1_555
Cr7 O28 2.106126 1_555
Cr7 O29 2.138359 1_555
Cr7 O9 2.172375 1_555
Cr7 O10 2.224708 1_555
Cr7 O17 2.264238 1_555
Cr7 O15 2.641943 1_555
Cr8 O25 2.032690 1_555
Cr8 O13 2.073388 1_555
Cr8 O47 2.073388 1_555
Cr8 O32 2.184455 1_565
Cr8 O26 2.210697 1_565
Cr9 O24 1.943573 1_555
Cr9 O14 2.115772 1_555
Cr9 O44 2.115772 1_555
Cr9 O30 2.138145 1_555
Cr9 O40 2.568832 1_555
Cr9 O19 2.568832 1_555
Cr10 O26 2.032690 1_555
Cr10 O46 2.073388 1_555
Cr10 O12 2.073388 1_555
Cr10 O31 2.184455 1_545
Cr10 O25 2.210697 1_545
Cr11 O27 1.943561 1_555
Cr11 O15 2.115775 1_555
Cr11 O45 2.115775 1_555
Cr11 O35 2.138158 1_555
Cr11 O41 2.568825 1_555
Cr11 O18 2.568825 1_555
Cr12 O34 2.106126 1_555
Cr12 O33 2.138359 1_555
Cr12 O2 2.172375 1_655
Cr12 O1 2.224708 1_655
Cr12 O42 2.264238 1_555
Cr12 O44 2.641943 1_555
Cr13 O28 2.106126 1_555
Cr13 O29 2.138359 1_555
Cr13 O9 2.172375 1_655
Cr13 O10 2.224708 1_655
Cr13 O43 2.264238 1_555
Cr13 O45 2.641943 1_555
Cr14 O4 2.106126 1_655
Cr14 O6 2.138359 1_655
Cr14 O31 2.172375 1_555
Cr14 O30 2.224708 1_555
Cr14 O40 2.264238 1_555
Cr14 O38 2.641943 1_555
Cr15 O7 2.106126 1_655
Cr15 O5 2.138359 1_655
Cr15 O32 2.172375 1_555
Cr15 O35 2.224708 1_555
Cr15 O41 2.264238 1_555
Cr15 O39 2.641943 1_555
O0 P0 1.555416 1_555
O1 P1 1.633571 1_555
O2 P2 1.625078 1_555
O3 P5 1.516983 1_554
O4 P2 1.568488 1_555
O5 P4 1.576247 1_545
O6 P1 1.576247 1_565
O7 P3 1.568488 1_555
O8 P0 1.516983 1_556
O9 P3 1.625078 1_555
O10 P4 1.633571 1_555
O11 P5 1.555416 1_555
O12 P1 1.517744 1_555
O13 P4 1.517744 1_555
O14 P2 1.518696 1_555
O15 P3 1.518696 1_555
O16 P0 1.562442 1_555
O17 P5 1.562442 1_555
O18 P8 1.562442 1_555
O19 P7 1.562442 1_555
O20 P6 1.518696 1_555
O21 P9 1.518696 1_555
O22 P11 1.517744 1_555
O23 P10 1.517744 1_555
O24 P8 1.516983 1_555
O25 P7 1.555416 1_555
O26 P8 1.555416 1_555
O27 P7 1.516983 1_555
O28 P9 1.568488 1_565
O29 P11 1.576247 1_555
O30 P10 1.633571 1_555
O31 P6 1.625078 1_555
O32 P9 1.625078 1_555
O33 P10 1.576247 1_555
O34 P6 1.568488 1_545
O35 P11 1.633571 1_555
O36 P10 1.517744 1_555
O37 P11 1.517744 1_555
O38 P6 1.518696 1_555
O39 P9 1.518696 1_555
O40 P7 1.562442 1_555
O41 P8 1.562442 1_555
O42 P0 1.562442 1_655
O43 P5 1.562442 1_655
O44 P2 1.518696 1_655
O45 P3 1.518696 1_655
O46 P1 1.517744 1_655
O47 P4 1.517744 1_655
