# generated using pymatgen
data_Li7V6Ni5O24
_symmetry_space_group_name_H-M   'P 1'
_cell_length_a   5.83460100
_cell_length_b   5.89768187
_cell_length_c   13.05197951
_cell_angle_alpha   102.56328388
_cell_angle_beta   102.74999370
_cell_angle_gamma   89.74182390
_symmetry_Int_Tables_number   1
_chemical_formula_structural   Li7V6Ni5O24
_chemical_formula_sum   'Li7 V6 Ni5 O24'
_cell_volume   427.11714740
_cell_formula_units_Z   1
loop_
 _symmetry_equiv_pos_site_id
 _symmetry_equiv_pos_as_xyz
  1  'x, y, z'
loop_
 _atom_site_type_symbol
 _atom_site_label
 _atom_site_symmetry_multiplicity
 _atom_site_fract_x
 _atom_site_fract_y
 _atom_site_fract_z
 _atom_site_occupancy
  Li  Li0  1  0.66657300  0.66944900  0.83222300  1
  Li  Li1  1  0.16584700  0.66940500  0.83161500  1
  Li  Li2  1  0.83767600  0.83385700  0.66799300  1
  Li  Li3  1  0.00000000  0.00000000  0.50000000  1
  Li  Li4  1  0.16232400  0.16614300  0.33200700  1
  Li  Li5  1  0.83415300  0.33059500  0.16838500  1
  Li  Li6  1  0.33342700  0.33055100  0.16777700  1
  V  V0  1  0.37597800  0.12829500  0.75164500  1
  V  V1  1  0.29405300  0.53814000  0.58247900  1
  V  V2  1  0.70594700  0.46186000  0.41752100  1
  V  V3  1  0.62402200  0.87170500  0.24835500  1
  V  V4  1  0.04194700  0.79106700  0.08371100  1
  V  V5  1  0.95805300  0.20893300  0.91628900  1
  Ni  Ni0  1  0.83711900  0.33472400  0.66784900  1
  Ni  Ni1  1  0.50000000  0.00000000  0.50000000  1
  Ni  Ni2  1  0.16288100  0.66527600  0.33215100  1
  Ni  Ni3  1  0.50000000  0.00000000  0.00000000  1
  Ni  Ni4  1  0.50000000  0.50000000  0.00000000  1
  O  O0  1  0.41766600  0.40545000  0.83454900  1
  O  O1  1  0.41713800  0.92696200  0.83401000  1
  O  O2  1  0.09170400  0.09124500  0.67134400  1
  O  O3  1  0.58101400  0.08772600  0.66621300  1
  O  O4  1  0.57618800  0.57592200  0.66436700  1
  O  O5  1  0.08710600  0.57618900  0.66246900  1
  O  O6  1  0.25917200  0.25670900  0.50365600  1
  O  O7  1  0.25419100  0.74687400  0.49908500  1
  O  O8  1  0.74082800  0.74329100  0.49634400  1
  O  O9  1  0.74580900  0.25312600  0.50091500  1
  O  O10  1  0.42381200  0.42407800  0.33563300  1
  O  O11  1  0.91289400  0.42381100  0.33753100  1
  O  O12  1  0.90829600  0.90875500  0.32865600  1
  O  O13  1  0.41898600  0.91227400  0.33378700  1
  O  O14  1  0.58286200  0.07303800  0.16599000  1
  O  O15  1  0.58233400  0.59455000  0.16545100  1
  O  O16  1  0.08074000  0.06562700  0.16010800  1
  O  O17  1  0.08409900  0.59344700  0.16674800  1
  O  O18  1  0.74865500  0.75001500  0.00180400  1
  O  O19  1  0.25534000  0.75030500  0.00145700  1
  O  O20  1  0.25134500  0.24998500  0.99819600  1
  O  O21  1  0.74466000  0.24969500  0.99854300  1
  O  O22  1  0.91590100  0.40655300  0.83325200  1
  O  O23  1  0.91926000  0.93437300  0.83989200  1
loop_
_geom_bond_atom_site_label_1
_geom_bond_atom_site_label_2
_geom_bond_distance
_geom_bond_site_symmetry_2
Li0 O4 2.085456 1_555
Li0 O1 2.098760 1_555
Li0 O18 2.104940 1_556
Li0 O22 2.121439 1_555
Li0 O23 2.124255 1_555
Li0 O0 2.143505 1_555
Li1 O5 2.100901 1_555
Li1 O1 2.106462 1_555
Li1 O19 2.108456 1_556
Li1 O23 2.120980 1_455
Li1 O0 2.136369 1_555
Li1 O22 2.139838 1_455
Li2 O5 2.100287 1_655
Li2 O3 2.112913 1_565
Li2 O2 2.113236 1_665
Li2 O8 2.132407 1_555
Li2 O23 2.136440 1_555
Li2 O4 2.145172 1_555
Li3 O7 2.099635 1_545
Li3 O9 2.099635 1_455
Li3 O12 2.127942 1_445
Li3 O2 2.127942 1_555
Li3 O8 2.130360 1_445
Li3 O6 2.130360 1_555
Li4 O11 2.100287 1_455
Li4 O13 2.112913 1_545
Li4 O12 2.113236 1_445
Li4 O6 2.132407 1_555
Li4 O16 2.136440 1_555
Li4 O10 2.145172 1_555
Li5 O11 2.100901 1_555
Li5 O14 2.106462 1_555
Li5 O21 2.108456 1_554
Li5 O16 2.120980 1_655
Li5 O15 2.136369 1_555
Li5 O17 2.139838 1_655
Li6 O10 2.085456 1_555
Li6 O14 2.098760 1_555
Li6 O20 2.104940 1_554
Li6 O17 2.121439 1_555
Li6 O16 2.124255 1_555
Li6 O15 2.143505 1_555
Ni0 O22 2.053585 1_555
Ni0 O2 2.061517 1_655
Ni0 O5 2.065869 1_655
Ni0 O9 2.072793 1_555
Ni0 O4 2.078810 1_555
Ni0 O3 2.085023 1_555
Ni1 O6 2.061028 1_555
Ni1 O8 2.061028 1_545
Ni1 O13 2.063671 1_545
Ni1 O3 2.063671 1_555
Ni1 O7 2.071151 1_545
Ni1 O9 2.071151 1_555
Ni2 O17 2.053585 1_555
Ni2 O12 2.061517 1_455
Ni2 O11 2.065869 1_455
Ni2 O7 2.072793 1_555
Ni2 O10 2.078810 1_555
Ni2 O13 2.085023 1_555
Ni3 O1 2.060719 1_544
Ni3 O14 2.060719 1_555
Ni3 O19 2.061510 1_545
Ni3 O21 2.061510 1_554
Ni3 O18 2.063925 1_545
Ni3 O20 2.063925 1_554
Ni4 O21 2.048927 1_554
Ni4 O19 2.048927 1_555
Ni4 O15 2.055642 1_555
Ni4 O0 2.055642 1_554
Ni4 O18 2.066073 1_555
Ni4 O20 2.066073 1_554
O0 V0 1.737759 1_555
O1 V0 1.749874 1_565
O2 V0 1.741721 1_555
O3 V0 1.789383 1_555
O4 V1 1.739221 1_555
O5 V1 1.746528 1_555
O6 V1 1.738537 1_555
O7 V1 1.795246 1_555
O8 V2 1.738537 1_555
O9 V2 1.795246 1_555
O10 V2 1.739221 1_555
O11 V2 1.746528 1_555
O12 V3 1.741721 1_555
O13 V3 1.789383 1_555
O14 V3 1.749874 1_545
O15 V3 1.737759 1_555
O16 V4 1.693752 1_545
O17 V4 1.738614 1_555
O18 V4 1.792618 1_655
O19 V4 1.798768 1_555
O20 V5 1.792618 1_455
O21 V5 1.798768 1_555
O22 V5 1.738614 1_555
O23 V5 1.693752 1_565
