# generated using pymatgen
data_Li4Mn5Cr3O16
_symmetry_space_group_name_H-M   'P 1'
_cell_length_a   5.87809177
_cell_length_b   5.87809177
_cell_length_c   9.50199010
_cell_angle_alpha   89.04898388
_cell_angle_beta   89.04898388
_cell_angle_gamma   59.70672667
_symmetry_Int_Tables_number   1
_chemical_formula_structural   Li4Mn5Cr3O16
_chemical_formula_sum   'Li4 Mn5 Cr3 O16'
_cell_volume   283.43100413
_cell_formula_units_Z   1
loop_
 _symmetry_equiv_pos_site_id
 _symmetry_equiv_pos_as_xyz
  1  'x, y, z'
loop_
 _atom_site_type_symbol
 _atom_site_label
 _atom_site_symmetry_multiplicity
 _atom_site_fract_x
 _atom_site_fract_y
 _atom_site_fract_z
 _atom_site_occupancy
  Li  Li0  1  0.67034100  0.67034100  0.89855300  1
  Li  Li1  1  0.99933600  0.99933600  0.99650500  1
  Li  Li2  1  0.99910700  0.99910700  0.49435000  1
  Li  Li3  1  0.33505600  0.33505600  0.39427000  1
  Mn  Mn0  1  0.66356200  0.66356200  0.48558300  1
  Mn  Mn1  1  0.82912900  0.82912900  0.21376700  1
  Mn  Mn2  1  0.33138800  0.33138800  0.98969500  1
  Mn  Mn3  1  0.66466200  0.17133900  0.71505400  1
  Mn  Mn4  1  0.17133900  0.66466200  0.71505400  1
  Cr  Cr0  1  0.82692800  0.33876100  0.21255500  1
  Cr  Cr1  1  0.33876100  0.82692800  0.21255500  1
  Cr  Cr2  1  0.17106000  0.17106000  0.71441000  1
  O  O0  1  0.83504000  0.32488700  0.59981700  1
  O  O1  1  0.51430400  0.51430400  0.33481400  1
  O  O2  1  0.67337200  0.67337200  0.10575500  1
  O  O3  1  0.99206200  0.99206200  0.30840100  1
  O  O4  1  0.99661600  0.99661600  0.80981800  1
  O  O5  1  0.32488700  0.83504000  0.59981700  1
  O  O6  1  0.95835600  0.52241800  0.33969300  1
  O  O7  1  0.52241800  0.95835600  0.33969300  1
  O  O8  1  0.16220300  0.16220300  0.09399200  1
  O  O9  1  0.83894400  0.83894400  0.60829600  1
  O  O10  1  0.48542900  0.04335900  0.84093400  1
  O  O11  1  0.04335900  0.48542900  0.84093400  1
  O  O12  1  0.34091400  0.34091400  0.60941000  1
  O  O13  1  0.67004900  0.15914900  0.09757200  1
  O  O14  1  0.48214100  0.48214100  0.83911300  1
  O  O15  1  0.15914900  0.67004900  0.09757200  1
loop_
_geom_bond_atom_site_label_1
_geom_bond_atom_site_label_2
_geom_bond_distance
_geom_bond_site_symmetry_2
Li0 O10 1.965802 1_565
Li0 O11 1.965802 1_655
Li0 O2 1.969665 1_556
Li0 O14 2.010653 1_555
Li1 O4 1.774645 1_555
Li1 O8 1.916925 1_666
Li1 O13 1.919649 1_566
Li1 O15 1.919649 1_656
Li2 O3 1.769718 1_555
Li2 O5 1.941632 1_655
Li2 O0 1.941632 1_565
Li2 O9 1.942020 1_555
Li3 O1 1.902610 1_555
Li3 O6 1.985902 1_455
Li3 O7 1.985902 1_545
Li3 O12 2.046273 1_555
Mn0 O5 2.024237 1_555
Mn0 O0 2.024237 1_555
Mn0 O6 2.029964 1_555
Mn0 O7 2.029964 1_555
Mn0 O1 2.109943 1_555
Mn0 O9 2.153403 1_555
Mn1 O3 1.904113 1_555
Mn1 O2 1.907321 1_555
Mn1 O6 1.958584 1_555
Mn1 O7 1.958584 1_555
Mn1 O13 1.997425 1_565
Mn1 O15 1.997425 1_655
Mn2 O8 1.972933 1_556
Mn2 O15 2.009618 1_556
Mn2 O13 2.009618 1_556
Mn2 O10 2.043221 1_555
Mn2 O11 2.043221 1_555
Mn2 O14 2.079850 1_555
Mn3 O4 1.918041 1_545
Mn3 O12 1.933712 1_555
Mn3 O10 1.958173 1_555
Mn3 O0 1.964517 1_555
Mn3 O9 1.976869 1_545
Mn3 O14 1.982521 1_555
Mn4 O4 1.918041 1_455
Mn4 O12 1.933712 1_555
Mn4 O11 1.958173 1_555
Mn4 O5 1.964517 1_555
Mn4 O9 1.976869 1_455
Mn4 O14 1.982521 1_555
Cr0 O1 1.961414 1_555
Cr0 O2 1.971358 1_555
Cr0 O3 1.974043 1_545
Cr0 O8 2.032712 1_655
Cr0 O6 2.034045 1_555
Cr0 O13 2.052477 1_555
Cr1 O1 1.961414 1_555
Cr1 O2 1.971358 1_555
Cr1 O3 1.974043 1_455
Cr1 O8 2.032712 1_565
Cr1 O7 2.034045 1_555
Cr1 O15 2.052477 1_555
Cr2 O4 1.980852 1_445
Cr2 O12 1.982076 1_555
Cr2 O11 2.016910 1_555
Cr2 O10 2.016910 1_555
Cr2 O5 2.035043 1_545
Cr2 O0 2.035043 1_455
