# generated using pymatgen
data_LiVP2O7
_symmetry_space_group_name_H-M   'P 1'
_cell_length_a   8.23185600
_cell_length_b   5.22759400
_cell_length_c   13.94990368
_cell_angle_alpha   71.05356228
_cell_angle_beta   90.00000000
_cell_angle_gamma   90.00000000
_symmetry_Int_Tables_number   1
_chemical_formula_structural   LiVP2O7
_chemical_formula_sum   'Li4 V4 P8 O28'
_cell_volume   567.78050021
_cell_formula_units_Z   4
loop_
 _symmetry_equiv_pos_site_id
 _symmetry_equiv_pos_as_xyz
  1  'x, y, z'
loop_
 _atom_site_type_symbol
 _atom_site_label
 _atom_site_symmetry_multiplicity
 _atom_site_fract_x
 _atom_site_fract_y
 _atom_site_fract_z
 _atom_site_occupancy
  Li  Li0  1  0.74221800  0.07157300  0.73226000  1
  Li  Li1  1  0.24221800  0.92842700  0.76774000  1
  Li  Li2  1  0.75778200  0.07157300  0.23226000  1
  Li  Li3  1  0.25778200  0.92842700  0.26774000  1
  V  V0  1  0.64817700  0.65394600  0.12902600  1
  V  V1  1  0.14817700  0.34605400  0.37097400  1
  V  V2  1  0.85182300  0.65394600  0.62902600  1
  V  V3  1  0.35182300  0.34605400  0.87097400  1
  P  P0  1  0.79544100  0.29347000  0.48195900  1
  P  P1  1  0.54444700  0.45752000  0.32060500  1
  P  P2  1  0.04444700  0.54248000  0.17939500  1
  P  P3  1  0.29544100  0.70653000  0.01804100  1
  P  P4  1  0.70455900  0.29347000  0.98195900  1
  P  P5  1  0.95555300  0.45752000  0.82060500  1
  P  P6  1  0.45555300  0.54248000  0.67939500  1
  P  P7  1  0.20455900  0.70653000  0.51804100  1
  O  O0  1  0.93469500  0.28011100  0.75240500  1
  O  O1  1  0.64147700  0.71887400  0.26602100  1
  O  O2  1  0.17573500  0.43914300  0.49805900  1
  O  O3  1  0.41345700  0.74997700  0.09585000  1
  O  O4  1  0.36801900  0.52789300  0.33424300  1
  O  O5  1  0.27968300  0.94654700  0.92023700  1
  O  O6  1  0.61467800  0.31277200  0.43162300  1
  O  O7  1  0.11467800  0.68722800  0.06837700  1
  O  O8  1  0.77968300  0.05345300  0.57976300  1
  O  O9  1  0.86801900  0.47210700  0.16575700  1
  O  O10  1  0.91345700  0.25002300  0.40415000  1
  O  O11  1  0.67573500  0.56085700  0.00194100  1
  O  O12  1  0.14147700  0.28112600  0.23397900  1
  O  O13  1  0.43469500  0.71988900  0.74759500  1
  O  O14  1  0.56530500  0.28011100  0.25240500  1
  O  O15  1  0.85852300  0.71887400  0.76602100  1
  O  O16  1  0.32426500  0.43914300  0.99805900  1
  O  O17  1  0.08654300  0.74997700  0.59585000  1
  O  O18  1  0.13198100  0.52789300  0.83424300  1
  O  O19  1  0.22031700  0.94654700  0.42023700  1
  O  O20  1  0.88532200  0.31277200  0.93162300  1
  O  O21  1  0.38532200  0.68722800  0.56837700  1
  O  O22  1  0.72031700  0.05345300  0.07976300  1
  O  O23  1  0.63198100  0.47210700  0.66575700  1
  O  O24  1  0.58654300  0.25002300  0.90415000  1
  O  O25  1  0.82426500  0.56085700  0.50194100  1
  O  O26  1  0.35852300  0.28112600  0.73397900  1
  O  O27  1  0.06530500  0.71988900  0.24759500  1
loop_
_geom_bond_atom_site_label_1
_geom_bond_atom_site_label_2
_geom_bond_distance
_geom_bond_site_symmetry_2
Li0 O15 1.993498 1_545
Li0 O0 1.994192 1_555
Li0 O8 2.181840 1_555
Li0 O23 2.192456 1_555
Li1 O26 1.993498 1_565
Li1 O13 1.994192 1_555
Li1 O5 2.181840 1_555
Li1 O18 2.192456 1_555
Li2 O1 1.993498 1_545
Li2 O14 1.994192 1_555
Li2 O22 2.181840 1_555
Li2 O9 2.192456 1_555
Li3 O12 1.993498 1_565
Li3 O27 1.994192 1_555
Li3 O19 2.181840 1_555
Li3 O4 2.192456 1_555
O0 P5 1.538728 1_555
O0 V2 2.250025 1_555
O1 P1 1.552053 1_555
O1 V0 2.047348 1_555
O2 P7 1.529978 1_555
O2 V1 1.997847 1_555
O3 P3 1.527619 1_555
O3 V0 2.012127 1_555
O4 P1 1.525202 1_555
O4 V1 2.030986 1_555
O5 P3 1.530019 1_556
O5 V3 2.062668 1_565
O6 P1 1.595078 1_555
O6 P0 1.634448 1_555
O7 P2 1.595078 1_555
O7 P3 1.634448 1_555
O8 P0 1.530019 1_555
O8 V2 2.062668 1_545
O9 P2 1.525202 1_655
O9 V0 2.030986 1_555
O10 P0 1.527619 1_555
O10 V1 2.012127 1_655
O11 P4 1.529978 1_554
O11 V0 1.997847 1_555
O12 P2 1.552053 1_555
O12 V1 2.047348 1_555
O13 P6 1.538728 1_555
O13 V3 2.250025 1_555
O14 P1 1.538728 1_555
O14 V0 2.250025 1_555
O15 P5 1.552053 1_555
O15 V2 2.047348 1_555
O16 P3 1.529978 1_556
O16 V3 1.997847 1_555
O17 P7 1.527619 1_555
O17 V2 2.012127 1_455
O18 P5 1.525202 1_455
O18 V3 2.030986 1_555
O19 P7 1.530019 1_555
O19 V1 2.062668 1_565
O20 P5 1.595078 1_555
O20 P4 1.634448 1_555
O21 P6 1.595078 1_555
O21 P7 1.634448 1_555
O22 P4 1.530019 1_554
O22 V0 2.062668 1_545
O23 P6 1.525202 1_555
O23 V2 2.030986 1_555
O24 P4 1.527619 1_555
O24 V3 2.012127 1_555
O25 P0 1.529978 1_555
O25 V2 1.997847 1_555
O26 P6 1.552053 1_555
O26 V3 2.047348 1_555
O27 P2 1.538728 1_555
O27 V1 2.250025 1_555
