# generated using pymatgen
data_Ti5NbO12
_symmetry_space_group_name_H-M   'P 1'
_cell_length_a   5.57277535
_cell_length_b   5.57277535
_cell_length_c   7.27697450
_cell_angle_alpha   71.21733811
_cell_angle_beta   71.21733811
_cell_angle_gamma   73.49857355
_symmetry_Int_Tables_number   1
_chemical_formula_structural   Ti5NbO12
_chemical_formula_sum   'Ti5 Nb1 O12'
_cell_volume   198.42002134
_cell_formula_units_Z   1
loop_
 _symmetry_equiv_pos_site_id
 _symmetry_equiv_pos_as_xyz
  1  'x, y, z'
loop_
 _atom_site_type_symbol
 _atom_site_label
 _atom_site_symmetry_multiplicity
 _atom_site_fract_x
 _atom_site_fract_y
 _atom_site_fract_z
 _atom_site_occupancy
  Ti  Ti0  1  0.66222800  0.66222800  0.83956700  1
  Ti  Ti1  1  0.33780700  0.33780700  0.67080900  1
  Ti  Ti2  1  0.66219300  0.66219300  0.32919100  1
  Ti  Ti3  1  0.33777200  0.33777200  0.16043300  1
  Ti  Ti4  1  0.00000000  0.00000000  0.00000000  1
  Nb  Nb0  1  0.00000000  0.00000000  0.50000000  1
  O  O0  1  0.63232500  0.02829300  0.66929400  1
  O  O1  1  0.97170700  0.36767500  0.33070600  1
  O  O2  1  0.23114000  0.23114000  0.96478200  1
  O  O3  1  0.89799200  0.89799200  0.29500300  1
  O  O4  1  0.56533800  0.56533800  0.62919100  1
  O  O5  1  0.10200800  0.10200800  0.70499700  1
  O  O6  1  0.76886000  0.76886000  0.03521800  1
  O  O7  1  0.43466200  0.43466200  0.37080900  1
  O  O8  1  0.69571200  0.30428800  0.00000000  1
  O  O9  1  0.02829300  0.63232500  0.66929400  1
  O  O10  1  0.36767500  0.97170700  0.33070600  1
  O  O11  1  0.30428800  0.69571200  0.00000000  1
loop_
_geom_bond_atom_site_label_1
_geom_bond_atom_site_label_2
_geom_bond_distance
_geom_bond_site_symmetry_2
Nb0 O1 2.014174 1_455
Nb0 O9 2.014174 1_545
Nb0 O10 2.014174 1_545
Nb0 O0 2.014174 1_455
Nb0 O3 2.036518 1_445
Nb0 O5 2.036518 1_555
O0 Ti0 2.009172 1_545
O0 Ti1 2.015298 1_555
O1 Ti3 2.009172 1_655
O1 Ti2 2.015298 1_555
O2 Ti1 1.961122 1_555
O2 Ti4 1.975202 1_556
O2 Ti3 2.005871 1_556
O3 Ti4 1.966375 1_665
O3 Ti2 2.018726 1_555
O4 Ti1 1.930292 1_555
O4 Ti2 1.999117 1_555
O4 Ti0 2.038862 1_555
O5 Ti4 1.966375 1_556
O5 Ti1 2.018726 1_555
O6 Ti2 1.961122 1_555
O6 Ti4 1.975202 1_665
O6 Ti0 2.005871 1_554
O7 Ti2 1.930292 1_555
O7 Ti1 1.999117 1_555
O7 Ti3 2.038862 1_555
O8 Ti3 1.950875 1_555
O8 Ti0 1.950875 1_554
O8 Ti4 2.029159 1_655
O9 Ti0 2.009172 1_455
O9 Ti1 2.015298 1_555
O10 Ti3 2.009172 1_565
O10 Ti2 2.015298 1_555
O11 Ti3 1.950875 1_555
O11 Ti0 1.950875 1_554
O11 Ti4 2.029159 1_565
