# generated using pymatgen
data_Li3V3O5F3
_symmetry_space_group_name_H-M   'P 1'
_cell_length_a   5.98889059
_cell_length_b   6.08884021
_cell_length_c   8.42776966
_cell_angle_alpha   88.89836696
_cell_angle_beta   89.30807889
_cell_angle_gamma   91.80119630
_symmetry_Int_Tables_number   1
_chemical_formula_structural   Li3V3O5F3
_chemical_formula_sum   'Li6 V6 O10 F6'
_cell_volume   307.08862597
_cell_formula_units_Z   2
loop_
 _symmetry_equiv_pos_site_id
 _symmetry_equiv_pos_as_xyz
  1  'x, y, z'
loop_
 _atom_site_type_symbol
 _atom_site_label
 _atom_site_symmetry_multiplicity
 _atom_site_fract_x
 _atom_site_fract_y
 _atom_site_fract_z
 _atom_site_occupancy
  Li  Li0  1  0.48811000  0.51936300  0.50521900  1
  Li  Li1  1  0.98782600  0.01974500  0.00539900  1
  Li  Li2  1  0.51152400  0.99136700  0.24286300  1
  Li  Li3  1  0.01105100  0.49179600  0.74287900  1
  Li  Li4  1  0.24626300  0.99641300  0.62653900  1
  Li  Li5  1  0.74665400  0.49658800  0.12650800  1
  V  V0  1  0.26778600  0.47997900  0.12331400  1
  V  V1  1  0.00602100  0.74685400  0.38259000  1
  V  V2  1  0.50510800  0.24703000  0.88277400  1
  V  V3  1  0.76730000  0.98050000  0.62334700  1
  V  V4  1  0.99833900  0.25100400  0.37480500  1
  V  V5  1  0.49836600  0.75090600  0.87455700  1
  O  O0  1  0.98914900  0.76509200  0.61176400  1
  O  O1  1  0.48911100  0.26531500  0.11183300  1
  O  O2  1  0.78416900  0.98683600  0.38263200  1
  O  O3  1  0.28362500  0.48694400  0.88269700  1
  O  O4  1  0.97010900  0.21966000  0.61024300  1
  O  O5  1  0.46989700  0.71979900  0.11047900  1
  O  O6  1  0.51600200  0.79111900  0.63843800  1
  O  O7  1  0.01586400  0.29134700  0.13797200  1
  O  O8  1  0.72306400  0.00561900  0.86324000  1
  O  O9  1  0.22377600  0.50468200  0.36283500  1
  F  F0  1  0.24055700  0.00670200  0.37871600  1
  F  F1  1  0.74006900  0.50700300  0.87901700  1
  F  F2  1  0.25993300  0.99716600  0.87285100  1
  F  F3  1  0.76041400  0.49755800  0.37281600  1
  F  F4  1  0.49997000  0.24178900  0.63680100  1
  F  F5  1  0.99993800  0.74182400  0.13687200  1
loop_
_geom_bond_atom_site_label_1
_geom_bond_atom_site_label_2
_geom_bond_distance
_geom_bond_site_symmetry_2
Li0 O9 1.998788 1_555
Li0 O6 2.021138 1_555
Li1 O8 1.999574 1_554
Li1 O7 2.017307 1_655
Li2 O1 1.991635 1_565
Li2 O5 2.023081 1_555
Li2 O2 2.025466 1_555
Li3 O0 1.988427 1_455
Li3 O3 2.025419 1_555
Li3 O4 2.026717 1_455
Li4 O0 2.060441 1_455
Li4 O6 2.075628 1_555
Li4 O4 2.177492 1_465
Li5 O1 2.062046 1_555
Li5 O7 2.072733 1_655
Li5 O5 2.180034 1_555
O0 V3 1.899046 1_555
O0 V1 1.938346 1_655
O1 V0 1.893504 1_555
O1 V2 1.937190 1_554
O2 V1 2.005617 1_655
O2 V4 2.025068 1_565
O2 V3 2.029551 1_555
O3 V2 2.003786 1_555
O3 V5 2.026207 1_555
O3 V0 2.028503 1_556
O4 V3 1.867453 1_545
O4 V4 1.994350 1_555
O5 V0 1.867815 1_555
O5 V5 1.998391 1_554
O6 V3 1.868555 1_555
O6 V5 2.001399 1_555
O7 V0 1.868640 1_555
O7 V4 2.007420 1_455
O8 V2 2.004077 1_555
O8 V5 2.021215 1_545
O8 V3 2.045142 1_545
O9 V1 2.006936 1_555
O9 V4 2.019510 1_455
O9 V0 2.041634 1_555
F0 Li2 1.980357 1_545
F0 V1 2.081939 1_545
F0 Li4 2.089055 1_545
F0 V4 2.110212 1_455
F1 Li3 1.981733 1_655
F1 V2 2.084165 1_555
F1 Li5 2.086429 1_556
F1 V5 2.106312 1_555
F2 Li1 1.974451 1_466
F2 Li4 2.078550 1_555
F2 V2 2.084468 1_565
F2 V5 2.102813 1_555
F3 Li0 1.974243 1_555
F3 Li5 2.078571 1_555
F3 V1 2.083708 1_655
F3 V4 2.102001 1_555
F4 Li0 2.007145 1_555
F4 V2 2.074448 1_555
F4 Li4 2.100896 1_545
F4 V3 2.295621 1_545
F5 Li1 2.008516 1_565
F5 V1 2.072413 1_655
F5 Li5 2.098587 1_555
F5 V0 2.300321 1_655
