# generated using pymatgen
data_LiSn(PO3)4
_symmetry_space_group_name_H-M   'P 1'
_cell_length_a   10.63247039
_cell_length_b   10.63247039
_cell_length_c   5.48844264
_cell_angle_alpha   80.28742413
_cell_angle_beta   80.28742413
_cell_angle_gamma   69.48290032
_symmetry_Int_Tables_number   1
_chemical_formula_structural   LiSn(PO3)4
_chemical_formula_sum   'Li2 Sn2 P8 O24'
_cell_volume   568.72896978
_cell_formula_units_Z   2
loop_
 _symmetry_equiv_pos_site_id
 _symmetry_equiv_pos_as_xyz
  1  'x, y, z'
loop_
 _atom_site_type_symbol
 _atom_site_label
 _atom_site_symmetry_multiplicity
 _atom_site_fract_x
 _atom_site_fract_y
 _atom_site_fract_z
 _atom_site_occupancy
  Li  Li0  1  0.43592100  0.43592100  0.61396400  1
  Li  Li1  1  0.56407900  0.56407900  0.38603600  1
  Sn  Sn0  1  0.50000000  0.00000000  0.00000000  1
  Sn  Sn1  1  0.00000000  0.50000000  0.00000000  1
  P  P0  1  0.37175300  0.77554100  0.82570100  1
  P  P1  1  0.77554100  0.37175300  0.82570100  1
  P  P2  1  0.93921900  0.70369300  0.45076200  1
  P  P3  1  0.70369300  0.93921900  0.45076200  1
  P  P4  1  0.06078100  0.29630700  0.54923800  1
  P  P5  1  0.29630700  0.06078100  0.54923800  1
  P  P6  1  0.22445900  0.62824700  0.17429900  1
  P  P7  1  0.62824700  0.22445900  0.17429900  1
  O  O0  1  0.23604200  0.76395800  0.00000000  1
  O  O1  1  0.76395800  0.23604200  0.00000000  1
  O  O2  1  0.67883900  0.91991800  0.73084300  1
  O  O3  1  0.91991800  0.67883900  0.73084300  1
  O  O4  1  0.19099200  0.54473700  0.01077200  1
  O  O5  1  0.54473700  0.19099200  0.01077200  1
  O  O6  1  0.43550800  0.65977300  0.67726300  1
  O  O7  1  0.65977300  0.43550800  0.67726300  1
  O  O8  1  0.30131000  0.90944000  0.64159800  1
  O  O9  1  0.90944000  0.30131000  0.64159800  1
  O  O10  1  0.86146400  0.86146400  0.36438300  1
  O  O11  1  0.38376300  0.10595000  0.68341700  1
  O  O12  1  0.10595000  0.38376300  0.68341700  1
  O  O13  1  0.61623700  0.89405000  0.31658300  1
  O  O14  1  0.89405000  0.61623700  0.31658300  1
  O  O15  1  0.13853600  0.13853600  0.63561700  1
  O  O16  1  0.69869000  0.09056000  0.35840200  1
  O  O17  1  0.09056000  0.69869000  0.35840200  1
  O  O18  1  0.34022700  0.56449200  0.32273700  1
  O  O19  1  0.56449200  0.34022700  0.32273700  1
  O  O20  1  0.45526300  0.80900800  0.98922800  1
  O  O21  1  0.80900800  0.45526300  0.98922800  1
  O  O22  1  0.08008200  0.32116100  0.26915700  1
  O  O23  1  0.32116100  0.08008200  0.26915700  1
loop_
_geom_bond_atom_site_label_1
_geom_bond_atom_site_label_2
_geom_bond_distance
_geom_bond_site_symmetry_2
Li0 O19 2.072514 1_555
Li0 O18 2.072514 1_555
Li0 O7 2.461046 1_555
Li0 O6 2.461046 1_555
Li1 O6 2.072514 1_555
Li1 O7 2.072514 1_555
Li1 O19 2.461046 1_555
Li1 O18 2.461046 1_555
O0 P6 1.622177 1_555
O0 P0 1.622177 1_554
O1 P7 1.622177 1_555
O1 P1 1.622177 1_554
O2 P3 1.506475 1_555
O2 Sn0 2.205601 1_566
O3 P2 1.506475 1_555
O3 Sn1 2.205601 1_656
O4 P6 1.522715 1_555
O4 Sn1 2.254032 1_555
O5 P7 1.522715 1_555
O5 Sn0 2.254032 1_555
O6 P0 1.485087 1_555
O7 P1 1.485087 1_555
O8 P5 1.588383 1_565
O8 P0 1.622140 1_555
O9 P4 1.588383 1_655
O9 P1 1.622140 1_555
O10 P3 1.616788 1_555
O10 P2 1.616788 1_555
O11 P5 1.516931 1_555
O11 Sn0 2.214433 1_556
O12 P4 1.516931 1_555
O12 Sn1 2.214433 1_556
O13 P3 1.516931 1_555
O13 Sn0 2.214433 1_565
O14 P2 1.516931 1_555
O14 Sn1 2.214433 1_655
O15 P4 1.616788 1_555
O15 P5 1.616788 1_555
O16 P3 1.588383 1_545
O16 P7 1.622140 1_555
O17 P2 1.588383 1_455
O17 P6 1.622140 1_555
O18 P6 1.485087 1_555
O19 P7 1.485087 1_555
O20 P0 1.522715 1_555
O20 Sn0 2.254032 1_566
O21 P1 1.522715 1_555
O21 Sn1 2.254032 1_656
O22 P4 1.506475 1_555
O22 Sn1 2.205601 1_555
O23 P5 1.506475 1_555
O23 Sn0 2.205601 1_555
