# generated using pymatgen
data_RbB3Te2O9
_symmetry_space_group_name_H-M   'P 1'
_cell_length_a   5.69515600
_cell_length_b   6.24648700
_cell_length_c   13.56357822
_cell_angle_alpha   75.69709855
_cell_angle_beta   90.00000000
_cell_angle_gamma   90.00000000
_symmetry_Int_Tables_number   1
_chemical_formula_structural   RbB3Te2O9
_chemical_formula_sum   'Rb2 B6 Te4 O18'
_cell_volume   467.56388937
_cell_formula_units_Z   2
loop_
 _symmetry_equiv_pos_site_id
 _symmetry_equiv_pos_as_xyz
  1  'x, y, z'
loop_
 _atom_site_type_symbol
 _atom_site_label
 _atom_site_symmetry_multiplicity
 _atom_site_fract_x
 _atom_site_fract_y
 _atom_site_fract_z
 _atom_site_occupancy
  Rb  Rb0  1  0.67585300  0.00000000  0.75000000  1
  Rb  Rb1  1  0.32414700  0.00000000  0.25000000  1
  B  B0  1  0.15686800  0.80085100  0.94226900  1
  B  B1  1  0.84313200  0.80085100  0.44226900  1
  B  B2  1  0.16069100  0.50000000  0.75000000  1
  B  B3  1  0.83930900  0.50000000  0.25000000  1
  B  B4  1  0.15686800  0.19914900  0.55773100  1
  B  B5  1  0.84313200  0.19914900  0.05773100  1
  Te  Te0  1  0.29476200  0.70268600  0.56463100  1
  Te  Te1  1  0.70523800  0.70268600  0.06463100  1
  Te  Te2  1  0.29476200  0.29731400  0.93536900  1
  Te  Te3  1  0.70523800  0.29731400  0.43536900  1
  O  O0  1  0.30019600  0.97936900  0.90468900  1
  O  O1  1  0.69980400  0.97936900  0.40468900  1
  O  O2  1  0.91368300  0.83604400  0.94983000  1
  O  O3  1  0.08631700  0.83604400  0.44983000  1
  O  O4  1  0.74199500  0.59564700  0.47021000  1
  O  O5  1  0.25800500  0.59564700  0.97021000  1
  O  O6  1  0.03615600  0.61978200  0.66475400  1
  O  O7  1  0.96384400  0.61978200  0.16475400  1
  O  O8  1  0.39845700  0.50000000  0.75000000  1
  O  O9  1  0.60154300  0.50000000  0.25000000  1
  O  O10  1  0.03615600  0.38021800  0.83524600  1
  O  O11  1  0.96384400  0.38021800  0.33524600  1
  O  O12  1  0.74199500  0.40435300  0.02979000  1
  O  O13  1  0.25800500  0.40435300  0.52979000  1
  O  O14  1  0.91368300  0.16395600  0.55017000  1
  O  O15  1  0.08631700  0.16395600  0.05017000  1
  O  O16  1  0.30019600  0.02063100  0.59531100  1
  O  O17  1  0.69980400  0.02063100  0.09531100  1
loop_
_geom_bond_atom_site_label_1
_geom_bond_atom_site_label_2
_geom_bond_distance
_geom_bond_site_symmetry_2
B0 O5 1.370544 1_555
B0 O0 1.374318 1_555
B0 O2 1.410015 1_455
B1 O4 1.370544 1_555
B1 O1 1.374318 1_555
B1 O3 1.410015 1_655
B2 O8 1.354114 1_555
B2 O6 1.404386 1_555
B2 O10 1.404386 1_555
B3 O9 1.354114 1_555
B3 O11 1.404386 1_555
B3 O7 1.404386 1_555
B4 O13 1.370544 1_555
B4 O16 1.374318 1_555
B4 O14 1.410015 1_455
B5 O12 1.370544 1_555
B5 O17 1.374318 1_555
B5 O15 1.410015 1_655
O0 Te2 2.127633 1_565
O0 Rb0 2.976966 1_565
O1 Te3 2.127633 1_565
O1 Rb1 2.976966 1_565
O2 Te1 1.971521 1_556
O2 Rb0 2.976285 1_565
O3 Te0 1.971521 1_555
O3 Rb1 2.976285 1_565
O4 Te3 2.043287 1_555
O5 Te2 2.043287 1_555
O6 Te0 1.983451 1_555
O6 Rb0 3.541908 1_465
O7 Te1 1.983451 1_555
O7 Rb1 3.541908 1_665
O8 Te0 2.588516 1_555
O8 Te2 2.588516 1_555
O8 Rb0 3.500066 1_555
O8 Rb0 3.500066 1_565
O9 Te3 2.588516 1_555
O9 Te1 2.588516 1_555
O9 Rb1 3.500066 1_555
O9 Rb1 3.500066 1_565
O10 Te2 1.983451 1_555
O10 Rb0 3.541908 1_455
O11 Te3 1.983451 1_555
O11 Rb1 3.541908 1_655
O12 Te1 2.043287 1_555
O13 Te0 2.043287 1_555
O14 Te3 1.971521 1_555
O14 Rb0 2.976285 1_555
O15 Te2 1.971521 1_554
O15 Rb1 2.976285 1_555
O16 Te0 2.127633 1_545
O16 Rb0 2.976966 1_555
O17 Te1 2.127633 1_545
O17 Rb1 2.976966 1_555
