# generated using pymatgen
data_Li2AgF5
_symmetry_space_group_name_H-M   'P 1'
_cell_length_a   10.00859500
_cell_length_b   6.12254700
_cell_length_c   8.05305101
_cell_angle_alpha   70.97044735
_cell_angle_beta   90.00000000
_cell_angle_gamma   90.00000000
_symmetry_Int_Tables_number   1
_chemical_formula_structural   Li2AgF5
_chemical_formula_sum   'Li8 Ag4 F20'
_cell_volume   466.50742799
_cell_formula_units_Z   4
loop_
 _symmetry_equiv_pos_site_id
 _symmetry_equiv_pos_as_xyz
  1  'x, y, z'
loop_
 _atom_site_type_symbol
 _atom_site_label
 _atom_site_symmetry_multiplicity
 _atom_site_fract_x
 _atom_site_fract_y
 _atom_site_fract_z
 _atom_site_occupancy
  Li  Li0  1  0.72961700  0.89721800  0.53700800  1
  Li  Li1  1  0.32114300  0.61569300  0.98094700  1
  Li  Li2  1  0.77038300  0.89721800  0.03700800  1
  Li  Li3  1  0.17885700  0.61569300  0.48094700  1
  Li  Li4  1  0.82114300  0.38430700  0.51905300  1
  Li  Li5  1  0.22961700  0.10278200  0.96299200  1
  Li  Li6  1  0.67885700  0.38430700  0.01905300  1
  Li  Li7  1  0.27038300  0.10278200  0.46299200  1
  Ag  Ag0  1  0.98932600  0.66200100  0.77303600  1
  Ag  Ag1  1  0.51067400  0.66200100  0.27303600  1
  Ag  Ag2  1  0.48932600  0.33799900  0.72696400  1
  Ag  Ag3  1  0.01067400  0.33799900  0.22696400  1
  F  F0  1  0.87868200  0.88180700  0.84676100  1
  F  F1  1  0.15049400  0.87359900  0.53836300  1
  F  F2  1  0.12763000  0.68043700  0.94475000  1
  F  F3  1  0.62131800  0.88180700  0.34676100  1
  F  F4  1  0.58661200  0.57766600  0.79324800  1
  F  F5  1  0.83886600  0.62437300  0.62215500  1
  F  F6  1  0.34950600  0.87359900  0.03836300  1
  F  F7  1  0.37237000  0.68043700  0.44475000  1
  F  F8  1  0.33886600  0.37562700  0.87784500  1
  F  F9  1  0.08661200  0.42233400  0.70675200  1
  F  F10  1  0.91338800  0.57766600  0.29324800  1
  F  F11  1  0.66113400  0.62437300  0.12215500  1
  F  F12  1  0.62763000  0.31956300  0.55525000  1
  F  F13  1  0.65049400  0.12640100  0.96163700  1
  F  F14  1  0.16113400  0.37562700  0.37784500  1
  F  F15  1  0.41338800  0.42233400  0.20675200  1
  F  F16  1  0.37868200  0.11819300  0.65323900  1
  F  F17  1  0.87237000  0.31956300  0.05525000  1
  F  F18  1  0.84950600  0.12640100  0.46163700  1
  F  F19  1  0.12131800  0.11819300  0.15323900  1
loop_
_geom_bond_atom_site_label_1
_geom_bond_atom_site_label_2
_geom_bond_distance
_geom_bond_site_symmetry_2
Ag0 F9 1.974075 1_655
Ag0 F0 1.977612 1_555
Ag0 F2 1.985651 1_655
Ag0 F5 1.994914 1_555
Ag0 F1 2.501049 1_655
Ag1 F15 1.974075 1_555
Ag1 F3 1.977612 1_555
Ag1 F7 1.985651 1_555
Ag1 F11 1.994914 1_555
Ag1 F6 2.501049 1_555
Ag2 F4 1.974075 1_555
Ag2 F16 1.977612 1_555
Ag2 F12 1.985651 1_555
Ag2 F8 1.994914 1_555
Ag2 F13 2.501049 1_555
Ag3 F10 1.974075 1_455
Ag3 F19 1.977612 1_555
Ag3 F17 1.985651 1_455
Ag3 F14 1.994914 1_555
Ag3 F18 2.501049 1_455
F0 Li2 1.904019 1_556
F1 Li7 1.794923 1_565
F1 Li3 1.806615 1_555
F2 Li1 1.979373 1_555
F3 Li0 1.904019 1_555
F4 Li6 2.038799 1_556
F5 Li4 1.917553 1_555
F5 Li0 1.925977 1_555
F6 Li5 1.794923 1_564
F6 Li1 1.806615 1_554
F7 Li3 1.979373 1_555
F8 Li1 1.917553 1_555
F8 Li5 1.925977 1_555
F9 Li3 2.038799 1_555
F10 Li4 2.038799 1_555
F11 Li6 1.917553 1_555
F11 Li2 1.925977 1_555
F12 Li4 1.979373 1_555
F13 Li2 1.794923 1_546
F13 Li6 1.806615 1_556
F14 Li3 1.917553 1_555
F14 Li7 1.925977 1_555
F15 Li1 2.038799 1_554
F16 Li7 1.904019 1_555
F17 Li6 1.979373 1_555
F18 Li0 1.794923 1_545
F18 Li4 1.806615 1_555
F19 Li5 1.904019 1_554
