# generated using pymatgen
data_Li4V2Fe3Sb3O16
_symmetry_space_group_name_H-M   'P 1'
_cell_length_a   6.08588419
_cell_length_b   6.14159838
_cell_length_c   9.73031457
_cell_angle_alpha   90.07168240
_cell_angle_beta   91.02592136
_cell_angle_gamma   119.67294276
_symmetry_Int_Tables_number   1
_chemical_formula_structural   Li4V2Fe3Sb3O16
_chemical_formula_sum   'Li4 V2 Fe3 Sb3 O16'
_cell_volume   315.92603160
_cell_formula_units_Z   1
loop_
 _symmetry_equiv_pos_site_id
 _symmetry_equiv_pos_as_xyz
  1  'x, y, z'
loop_
 _atom_site_type_symbol
 _atom_site_label
 _atom_site_symmetry_multiplicity
 _atom_site_fract_x
 _atom_site_fract_y
 _atom_site_fract_z
 _atom_site_occupancy
  Li  Li0  1  0.33225200  0.66329400  0.88038700  1
  Li  Li1  1  0.95855400  0.98014500  0.98792600  1
  Li  Li2  1  0.97669000  0.98577700  0.50178700  1
  Li  Li3  1  0.65364600  0.32666400  0.40147700  1
  V  V0  1  0.34796300  0.67806300  0.49842100  1
  V  V1  1  0.69366900  0.34525600  0.97710100  1
  Fe  Fe0  1  0.66490100  0.83173700  0.21493000  1
  Fe  Fe1  1  0.83529800  0.66362700  0.71388500  1
  Fe  Fe2  1  0.83360000  0.17210700  0.71356000  1
  Sb  Sb0  1  0.17149600  0.83357800  0.21350200  1
  Sb  Sb1  1  0.17234800  0.33978800  0.21422800  1
  Sb  Sb2  1  0.34259800  0.17050700  0.71430700  1
  O  O0  1  0.17783000  0.85290400  0.59653900  1
  O  O1  1  0.03393000  0.51945500  0.33660000  1
  O  O2  1  0.32720000  0.66273100  0.10187200  1
  O  O3  1  0.01081000  0.00766700  0.31596700  1
  O  O4  1  0.01413600  0.01636700  0.80908600  1
  O  O5  1  0.17068600  0.32968800  0.59791600  1
  O  O6  1  0.47277500  0.95955900  0.33676900  1
  O  O7  1  0.47258600  0.51070100  0.33784400  1
  O  O8  1  0.32051700  0.15964200  0.10200100  1
  O  O9  1  0.66606000  0.84052600  0.59864700  1
  O  O10  1  0.50669700  0.46296000  0.84963000  1
  O  O11  1  0.52003100  0.03630500  0.84199200  1
  O  O12  1  0.65565800  0.31886600  0.60230400  1
  O  O13  1  0.85462600  0.68540600  0.10179900  1
  O  O14  1  0.96028400  0.47089600  0.84535700  1
  O  O15  1  0.85315900  0.17608500  0.10200400  1
loop_
_geom_bond_atom_site_label_1
_geom_bond_atom_site_label_2
_geom_bond_distance
_geom_bond_site_symmetry_2
Li0 O14 1.989961 1_455
Li0 O10 2.008539 1_555
Li0 O11 2.029544 1_565
Li0 O2 2.155871 1_556
Li1 O4 1.771904 1_665
Li1 O13 1.949615 1_556
Li1 O15 1.969283 1_566
Li1 O8 2.192021 1_666
Li2 O3 1.821204 1_665
Li2 O9 1.911563 1_555
Li2 O0 1.991215 1_655
Li2 O5 2.053425 1_665
Li3 O12 1.954724 1_555
Li3 O7 2.021278 1_555
Li3 O6 2.050805 1_545
Li3 O1 2.120794 1_655
Fe0 O3 2.058359 1_665
Fe0 O2 2.077384 1_555
Fe0 O6 2.084477 1_555
Fe0 O13 2.103114 1_555
Fe0 O7 2.111627 1_555
Fe0 O15 2.155109 1_565
Fe1 O4 2.088127 1_665
Fe1 O14 2.115794 1_555
Fe1 O12 2.125354 1_555
Fe1 O9 2.137313 1_555
Fe1 O0 2.165625 1_655
Fe1 O10 2.218385 1_555
Fe2 O4 1.998048 1_655
Fe2 O12 2.020881 1_555
Fe2 O14 2.040672 1_555
Fe2 O9 2.081967 1_545
Fe2 O11 2.100296 1_555
Fe2 O5 2.128611 1_655
O0 Sb2 2.034728 1_565
O0 V0 2.066462 1_555
O1 Sb1 2.073159 1_555
O1 Sb0 2.073646 1_555
O1 V0 2.264039 1_555
O2 Sb0 2.048702 1_555
O2 Sb1 2.051546 1_555
O3 Sb0 2.039849 1_545
O3 Sb1 2.039992 1_555
O4 Sb2 1.984234 1_555
O5 Sb2 2.075092 1_555
O5 V0 2.106212 1_555
O6 Sb0 1.978254 1_555
O6 V0 2.188453 1_555
O7 Sb1 1.976477 1_555
O7 V0 2.209824 1_555
O8 Sb1 2.061485 1_555
O8 Sb0 2.062116 1_545
O8 V1 2.339422 1_554
O9 V0 1.926613 1_555
O10 V1 2.030251 1_555
O10 Sb2 2.031805 1_555
O11 Sb2 2.055407 1_555
O11 V1 2.098593 1_555
O12 Sb2 2.001485 1_555
O13 Sb0 1.978204 1_655
O13 V1 2.172774 1_554
O14 V1 1.925830 1_555
O15 Sb1 1.991061 1_655
O15 V1 2.111418 1_554
