# generated using pymatgen
data_Li2MnF5
_symmetry_space_group_name_H-M   'P 1'
_cell_length_a   6.56444600
_cell_length_b   7.66188300
_cell_length_c   8.12597500
_cell_angle_alpha   90.00000000
_cell_angle_beta   90.00000000
_cell_angle_gamma   90.00000000
_symmetry_Int_Tables_number   1
_chemical_formula_structural   Li2MnF5
_chemical_formula_sum   'Li8 Mn4 F20'
_cell_volume   408.70417846
_cell_formula_units_Z   4
loop_
 _symmetry_equiv_pos_site_id
 _symmetry_equiv_pos_as_xyz
  1  'x, y, z'
loop_
 _atom_site_type_symbol
 _atom_site_label
 _atom_site_symmetry_multiplicity
 _atom_site_fract_x
 _atom_site_fract_y
 _atom_site_fract_z
 _atom_site_occupancy
  Li  Li0  1  0.02301800  0.76813700  0.91928800  1
  Li  Li1  1  0.02301800  0.76813700  0.58071200  1
  Li  Li2  1  0.47698200  0.26813700  0.41928800  1
  Li  Li3  1  0.47698200  0.26813700  0.08071200  1
  Li  Li4  1  0.52301800  0.73186300  0.91928800  1
  Li  Li5  1  0.52301800  0.73186300  0.58071200  1
  Li  Li6  1  0.97698200  0.23186300  0.41928800  1
  Li  Li7  1  0.97698200  0.23186300  0.08071200  1
  Mn  Mn0  1  0.23517700  0.39333500  0.75000000  1
  Mn  Mn1  1  0.26482300  0.89333500  0.25000000  1
  Mn  Mn2  1  0.73517700  0.10666500  0.75000000  1
  Mn  Mn3  1  0.76482300  0.60666500  0.25000000  1
  F  F0  1  0.02553500  0.06354100  0.25000000  1
  F  F1  1  0.08186000  0.59985500  0.75000000  1
  F  F2  1  0.07734300  0.71014100  0.25000000  1
  F  F3  1  0.21831600  0.35261400  0.98441200  1
  F  F4  1  0.21831600  0.35261400  0.51558800  1
  F  F5  1  0.28168400  0.85261400  0.48441200  1
  F  F6  1  0.28168400  0.85261400  0.01558800  1
  F  F7  1  0.42265700  0.21014100  0.75000000  1
  F  F8  1  0.41814000  0.09985500  0.25000000  1
  F  F9  1  0.47446500  0.56354100  0.75000000  1
  F  F10  1  0.52553500  0.43645900  0.25000000  1
  F  F11  1  0.58186000  0.90014500  0.75000000  1
  F  F12  1  0.57734300  0.78985900  0.25000000  1
  F  F13  1  0.71831600  0.14738600  0.51558800  1
  F  F14  1  0.71831600  0.14738600  0.98441200  1
  F  F15  1  0.78168400  0.64738600  0.01558800  1
  F  F16  1  0.78168400  0.64738600  0.48441200  1
  F  F17  1  0.92265700  0.28985900  0.75000000  1
  F  F18  1  0.91814000  0.40014500  0.25000000  1
  F  F19  1  0.97446500  0.93645900  0.75000000  1
loop_
_geom_bond_atom_site_label_1
_geom_bond_atom_site_label_2
_geom_bond_distance
_geom_bond_site_symmetry_2
F0 Li6 1.912374 1_455
F0 Li7 1.912374 1_455
F0 Mn1 2.041584 1_545
F1 Mn0 1.875286 1_555
F1 Li0 1.924578 1_555
F1 Li1 1.924578 1_555
F2 Mn1 1.866749 1_555
F2 Mn3 2.199387 1_455
F3 Mn0 1.933380 1_555
F3 Li3 1.978508 1_556
F3 Li7 1.994512 1_456
F4 Mn0 1.933380 1_555
F4 Li2 1.978508 1_555
F4 Li6 1.994512 1_455
F5 Mn1 1.933380 1_555
F5 Li1 1.978508 1_555
F5 Li5 1.994512 1_555
F6 Mn1 1.933380 1_555
F6 Li0 1.978508 1_554
F6 Li4 1.994512 1_554
F7 Mn0 1.866749 1_555
F7 Mn2 2.199387 1_555
F8 Mn1 1.875286 1_545
F8 Li2 1.924578 1_555
F8 Li3 1.924578 1_555
F9 Li5 1.912374 1_555
F9 Li4 1.912374 1_555
F9 Mn0 2.041584 1_555
F10 Li2 1.912374 1_555
F10 Li3 1.912374 1_555
F10 Mn3 2.041584 1_555
F11 Mn2 1.875286 1_565
F11 Li4 1.924578 1_555
F11 Li5 1.924578 1_555
F12 Mn3 1.866749 1_555
F12 Mn1 2.199387 1_555
F13 Mn2 1.933380 1_555
F13 Li6 1.978508 1_555
F13 Li2 1.994512 1_555
F14 Mn2 1.933380 1_555
F14 Li7 1.978508 1_556
F14 Li3 1.994512 1_556
F15 Mn3 1.933380 1_555
F15 Li4 1.978508 1_554
F15 Li0 1.994512 1_654
F16 Mn3 1.933380 1_555
F16 Li5 1.978508 1_555
F16 Li1 1.994512 1_655
F17 Mn2 1.866749 1_555
F17 Mn0 2.199387 1_655
F18 Mn3 1.875286 1_555
F18 Li6 1.924578 1_555
F18 Li7 1.924578 1_555
F19 Li0 1.912374 1_655
F19 Li1 1.912374 1_655
F19 Mn2 2.041584 1_565
