# generated using pymatgen
data_LiV3P5O19
_symmetry_space_group_name_H-M   'P 1'
_cell_length_a   8.50341011
_cell_length_b   8.50341011
_cell_length_c   6.35293541
_cell_angle_alpha   81.58504730
_cell_angle_beta   81.58504730
_cell_angle_gamma   113.94571439
_symmetry_Int_Tables_number   1
_chemical_formula_structural   LiV3P5O19
_chemical_formula_sum   'Li1 V3 P5 O19'
_cell_volume   404.41426123
_cell_formula_units_Z   1
loop_
 _symmetry_equiv_pos_site_id
 _symmetry_equiv_pos_as_xyz
  1  'x, y, z'
loop_
 _atom_site_type_symbol
 _atom_site_label
 _atom_site_symmetry_multiplicity
 _atom_site_fract_x
 _atom_site_fract_y
 _atom_site_fract_z
 _atom_site_occupancy
  Li  Li0  1  0.09580100  0.09580100  0.47137300  1
  V  V0  1  0.76525300  0.76525300  0.15567000  1
  V  V1  1  0.48840200  0.24417200  0.82077500  1
  V  V2  1  0.24417200  0.48840200  0.82077500  1
  P  P0  1  0.67258100  0.67258100  0.69570500  1
  P  P1  1  0.60773900  0.31522500  0.27213300  1
  P  P2  1  0.31522500  0.60773900  0.27213300  1
  P  P3  1  0.81337000  0.18384700  0.99972100  1
  P  P4  1  0.18384700  0.81337000  0.99972100  1
  O  O0  1  0.78017600  0.78017600  0.84507800  1
  O  O1  1  0.77823100  0.77823100  0.46126300  1
  O  O2  1  0.99801900  0.32239500  0.88478600  1
  O  O3  1  0.32239500  0.99801900  0.88478600  1
  O  O4  1  0.66792900  0.48653700  0.73800000  1
  O  O5  1  0.48653700  0.66792900  0.73800000  1
  O  O6  1  0.51646900  0.70837100  0.22170200  1
  O  O7  1  0.70837100  0.51646900  0.22170200  1
  O  O8  1  0.68262400  0.16378000  0.85630900  1
  O  O9  1  0.16378000  0.68262400  0.85630900  1
  O  O10  1  0.24685700  0.75585100  0.21460200  1
  O  O11  1  0.75585100  0.24685700  0.21460200  1
  O  O12  1  0.51934100  0.23217400  0.51086800  1
  O  O13  1  0.23217400  0.51934100  0.51086800  1
  O  O14  1  0.32012200  0.32012200  0.81025200  1
  O  O15  1  0.01389000  0.82390600  0.09870000  1
  O  O16  1  0.82390600  0.01389000  0.09870000  1
  O  O17  1  0.46852000  0.24754100  0.13696500  1
  O  O18  1  0.24754100  0.46852000  0.13696500  1
loop_
_geom_bond_atom_site_label_1
_geom_bond_atom_site_label_2
_geom_bond_distance
_geom_bond_site_symmetry_2
O0 P0 1.550297 1_555
O0 V0 1.940611 1_556
O1 P0 1.547284 1_555
O1 V0 1.977111 1_555
O2 P3 1.515778 1_555
O2 V2 1.929682 1_655
O3 P4 1.515778 1_555
O3 V1 1.929682 1_565
O4 P0 1.548609 1_555
O4 V1 1.936074 1_555
O5 P0 1.548609 1_555
O5 V2 1.936074 1_555
O6 P2 1.527718 1_555
O6 V0 1.932765 1_555
O7 P1 1.527718 1_555
O7 V0 1.932765 1_555
O8 P3 1.511039 1_555
O8 V1 2.055799 1_555
O9 P4 1.511039 1_555
O9 V2 2.055799 1_555
O10 P2 1.606118 1_555
O10 P4 1.619030 1_554
O11 P1 1.606118 1_555
O11 P3 1.619030 1_554
O12 P1 1.511944 1_555
O12 V1 1.971002 1_555
O13 P2 1.511944 1_555
O13 V2 1.971002 1_555
O14 V1 1.798538 1_555
O14 V2 1.798538 1_555
O15 P4 1.532215 1_554
O15 V0 1.927973 1_455
O16 P3 1.532215 1_554
O16 V0 1.927973 1_545
O17 P1 1.535973 1_555
O17 V1 1.996446 1_554
O18 P2 1.535973 1_555
O18 V2 1.996446 1_554
