# generated using pymatgen
data_Li5FeS4
_symmetry_space_group_name_H-M   'P 1'
_cell_length_a   11.26626953
_cell_length_b   6.40299434
_cell_length_c   19.41057441
_cell_angle_alpha   90.00000000
_cell_angle_beta   90.00000000
_cell_angle_gamma   90.00000000
_symmetry_Int_Tables_number   1
_chemical_formula_structural   Li5FeS4
_chemical_formula_sum   'Li40 Fe8 S32'
_cell_volume   1400.23729996
_cell_formula_units_Z   8
loop_
 _symmetry_equiv_pos_site_id
 _symmetry_equiv_pos_as_xyz
  1  'x, y, z'
loop_
 _atom_site_type_symbol
 _atom_site_label
 _atom_site_symmetry_multiplicity
 _atom_site_fract_x
 _atom_site_fract_y
 _atom_site_fract_z
 _atom_site_occupancy
  Li  Li0  1  0.04674486  0.04110599  0.43469379  1
  Li  Li1  1  0.04674486  0.45889401  0.93469379  1
  Li  Li2  1  0.08641901  0.61567413  0.75354000  1
  Li  Li3  1  0.08641901  0.88432587  0.25354000  1
  Li  Li4  1  0.15756802  0.58947657  0.50555167  1
  Li  Li5  1  0.15756802  0.91052343  0.00555167  1
  Li  Li6  1  0.15662776  0.39154753  0.33954992  1
  Li  Li7  1  0.15662776  0.10845247  0.83954992  1
  Li  Li8  1  0.21198876  0.53263663  0.14033353  1
  Li  Li9  1  0.21198876  0.96736337  0.64033353  1
  Li  Li10  1  0.28801124  0.03263663  0.14033353  1
  Li  Li11  1  0.28801124  0.46736337  0.64033353  1
  Li  Li12  1  0.34337224  0.89154753  0.33954992  1
  Li  Li13  1  0.34337224  0.60845247  0.83954992  1
  Li  Li14  1  0.34243198  0.08947657  0.50555167  1
  Li  Li15  1  0.34243198  0.41052343  0.00555167  1
  Li  Li16  1  0.41358099  0.38432587  0.25354000  1
  Li  Li17  1  0.41358099  0.11567413  0.75354000  1
  Li  Li18  1  0.45325514  0.95889401  0.93469379  1
  Li  Li19  1  0.45325514  0.54110599  0.43469379  1
  Li  Li20  1  0.54674486  0.04110599  0.06530621  1
  Li  Li21  1  0.54674486  0.45889401  0.56530621  1
  Li  Li22  1  0.58641901  0.88432587  0.24646000  1
  Li  Li23  1  0.58641901  0.61567413  0.74646000  1
  Li  Li24  1  0.65756802  0.58947657  0.99444833  1
  Li  Li25  1  0.65756802  0.91052343  0.49444833  1
  Li  Li26  1  0.65662776  0.39154753  0.16045008  1
  Li  Li27  1  0.65662776  0.10845247  0.66045008  1
  Li  Li28  1  0.71198876  0.53263663  0.35966647  1
  Li  Li29  1  0.71198876  0.96736337  0.85966647  1
  Li  Li30  1  0.78801124  0.03263663  0.35966647  1
  Li  Li31  1  0.78801124  0.46736337  0.85966647  1
  Li  Li32  1  0.84337224  0.60845247  0.66045008  1
  Li  Li33  1  0.84337224  0.89154753  0.16045008  1
  Li  Li34  1  0.84243198  0.08947657  0.99444833  1
  Li  Li35  1  0.84243198  0.41052343  0.49444833  1
  Li  Li36  1  0.91358099  0.38432587  0.24646000  1
  Li  Li37  1  0.91358099  0.11567413  0.74646000  1
  Li  Li38  1  0.95325514  0.95889401  0.56530621  1
  Li  Li39  1  0.95325514  0.54110599  0.06530621  1
  Fe  Fe0  1  0.04283200  0.16282874  0.12630268  1
  Fe  Fe1  1  0.04283200  0.33717126  0.62630268  1
  Fe  Fe2  1  0.45716800  0.66282874  0.12630268  1
  Fe  Fe3  1  0.45716800  0.83717126  0.62630268  1
  Fe  Fe4  1  0.54283200  0.33717126  0.87369732  1
  Fe  Fe5  1  0.54283200  0.16282874  0.37369732  1
  Fe  Fe6  1  0.95716800  0.66282874  0.37369732  1
  Fe  Fe7  1  0.95716800  0.83717126  0.87369732  1
  S  S0  1  0.05950230  0.81182301  0.12390347  1
  S  S1  1  0.05950230  0.68817699  0.62390347  1
  S  S2  1  0.13785653  0.19426603  0.53456018  1
  S  S3  1  0.13785653  0.30573397  0.03456018  1
  S  S4  1  0.13844187  0.26383792  0.22272279  1
  S  S5  1  0.13844187  0.23616208  0.72272279  1
  S  S6  1  0.15051694  0.75734864  0.37779259  1
  S  S7  1  0.15051694  0.74265136  0.87779259  1
  S  S8  1  0.34948306  0.24265136  0.87779259  1
  S  S9  1  0.34948306  0.25734864  0.37779259  1
  S  S10  1  0.36155813  0.76383792  0.22272279  1
  S  S11  1  0.36155813  0.73616208  0.72272279  1
  S  S12  1  0.36214347  0.80573397  0.03456018  1
  S  S13  1  0.36214347  0.69426603  0.53456018  1
  S  S14  1  0.44049770  0.31182301  0.12390347  1
  S  S15  1  0.44049770  0.18817699  0.62390347  1
  S  S16  1  0.55950230  0.68817699  0.87609653  1
  S  S17  1  0.55950230  0.81182301  0.37609653  1
  S  S18  1  0.63785653  0.19426603  0.96543982  1
  S  S19  1  0.63785653  0.30573397  0.46543982  1
  S  S20  1  0.63844187  0.26383792  0.27727721  1
  S  S21  1  0.63844187  0.23616208  0.77727721  1
  S  S22  1  0.65051694  0.75734864  0.12220741  1
  S  S23  1  0.65051694  0.74265136  0.62220741  1
  S  S24  1  0.84948306  0.24265136  0.62220741  1
  S  S25  1  0.84948306  0.25734864  0.12220741  1
  S  S26  1  0.86155813  0.76383792  0.27727721  1
  S  S27  1  0.86155813  0.73616208  0.77727721  1
  S  S28  1  0.86214347  0.80573397  0.46543982  1
  S  S29  1  0.86214347  0.69426603  0.96543982  1
  S  S30  1  0.94049770  0.31182301  0.37609653  1
  S  S31  1  0.94049770  0.18817699  0.87609653  1
loop_
_geom_bond_atom_site_label_1
_geom_bond_atom_site_label_2
_geom_bond_distance
_geom_bond_site_symmetry_2
Li0 S30 2.393992 1_455
Li0 S2 2.402719 1_555
Li0 S6 2.426490 1_545
Li0 S28 2.636838 1_445
Li1 S31 2.393992 1_455
Li1 S3 2.402719 1_556
Li1 S7 2.426490 1_555
Li1 S29 2.636838 1_455
Li2 S5 2.570273 1_555
Li2 S1 2.576692 1_555
Li2 S7 2.645631 1_555
Li2 S27 2.687993 1_455
Li3 S4 2.570273 1_565
Li3 S0 2.576692 1_555
Li3 S6 2.645631 1_555
Li3 S26 2.687993 1_455
Li4 S13 2.465636 1_555
Li4 S2 2.601913 1_555
Li4 S1 2.626316 1_555
Li4 S6 2.703974 1_555
Li5 S12 2.465636 1_555
Li5 S3 2.601913 1_565
Li5 S0 2.626316 1_555
Li5 S7 2.703974 1_554
Li6 S4 2.419304 1_555
Li6 S9 2.451584 1_555
Li6 S6 2.458002 1_555
Li6 S30 2.587073 1_455
Li7 S5 2.419304 1_555
Li7 S8 2.451584 1_555
Li7 S7 2.458002 1_545
Li7 S31 2.587073 1_455
Li8 S4 2.491251 1_555
Li8 S0 2.499738 1_555
Li8 S3 2.650217 1_555
Li8 S10 2.754735 1_555
Li8 S14 2.954402 1_555
Li9 S5 2.491251 1_565
Li9 S1 2.499738 1_555
Li9 S2 2.650217 1_565
Li9 S11 2.754735 1_555
Li9 S15 2.954402 1_565
Li10 S10 2.491251 1_545
Li10 S14 2.499738 1_555
Li10 S12 2.650217 1_545
Li10 S4 2.754735 1_555
Li10 S0 2.954402 1_545
Li11 S11 2.491251 1_555
Li11 S15 2.499738 1_555
Li11 S13 2.650217 1_555
Li11 S5 2.754735 1_555
Li11 S1 2.954402 1_555
Li12 S10 2.419304 1_555
Li12 S6 2.451584 1_555
Li12 S9 2.458002 1_565
Li12 S17 2.587073 1_555
Li13 S11 2.419304 1_555
Li13 S7 2.451584 1_555
Li13 S8 2.458002 1_555
Li13 S16 2.587073 1_555
Li14 S2 2.465636 1_555
Li14 S13 2.601913 1_545
Li14 S15 2.626316 1_555
Li14 S9 2.703974 1_555
Li15 S3 2.465636 1_555
Li15 S12 2.601913 1_555
Li15 S14 2.626316 1_555
Li15 S8 2.703974 1_554
Li16 S10 2.570273 1_555
Li16 S14 2.576692 1_555
Li16 S9 2.645631 1_555
Li16 S20 2.687993 1_555
Li17 S11 2.570273 1_545
Li17 S15 2.576692 1_555
Li17 S8 2.645631 1_555
Li17 S21 2.687993 1_555
Li18 S16 2.393992 1_555
Li18 S12 2.402719 1_556
Li18 S8 2.426490 1_565
Li18 S18 2.636838 1_565
Li19 S17 2.393992 1_555
Li19 S13 2.402719 1_555
Li19 S9 2.426490 1_555
Li19 S19 2.636838 1_555
Li20 S14 2.393992 1_555
Li20 S18 2.402719 1_554
Li20 S22 2.426490 1_545
Li20 S12 2.636838 1_545
Li21 S15 2.393992 1_555
Li21 S19 2.402719 1_555
Li21 S23 2.426490 1_555
Li21 S13 2.636838 1_555
Li22 S20 2.570273 1_565
Li22 S17 2.576692 1_555
Li22 S22 2.645631 1_555
Li22 S10 2.687993 1_555
Li23 S21 2.570273 1_555
Li23 S16 2.576692 1_555
Li23 S23 2.645631 1_555
Li23 S11 2.687993 1_555
Li24 S29 2.465636 1_555
Li24 S18 2.601913 1_555
Li24 S16 2.626316 1_555
Li24 S22 2.703974 1_556
Li25 S28 2.465636 1_555
Li25 S19 2.601913 1_565
Li25 S17 2.626316 1_555
Li25 S23 2.703974 1_555
Li26 S20 2.419304 1_555
Li26 S25 2.451584 1_555
Li26 S22 2.458002 1_555
Li26 S14 2.587073 1_555
Li27 S21 2.419304 1_555
Li27 S24 2.451584 1_555
Li27 S23 2.458002 1_545
Li27 S15 2.587073 1_555
Li28 S20 2.491251 1_555
Li28 S17 2.499738 1_555
Li28 S19 2.650217 1_555
Li28 S26 2.754735 1_555
Li28 S30 2.954402 1_555
Li29 S21 2.491251 1_565
Li29 S16 2.499738 1_555
Li29 S18 2.650217 1_565
Li29 S27 2.754735 1_555
Li29 S31 2.954402 1_565
Li30 S26 2.491251 1_545
Li30 S30 2.499738 1_555
Li30 S28 2.650217 1_545
Li30 S20 2.754735 1_555
Li30 S17 2.954402 1_545
Li31 S27 2.491251 1_555
Li31 S31 2.499738 1_555
Li31 S29 2.650217 1_555
Li31 S21 2.754735 1_555
Li31 S16 2.954402 1_555
Li32 S27 2.419304 1_555
Li32 S23 2.451584 1_555
Li32 S24 2.458002 1_555
Li32 S1 2.587073 1_655
Li33 S26 2.419304 1_555
Li33 S22 2.451584 1_555
Li33 S25 2.458002 1_565
Li33 S0 2.587073 1_655
Li34 S18 2.465636 1_555
Li34 S29 2.601913 1_545
Li34 S31 2.626316 1_555
Li34 S25 2.703974 1_556
Li35 S19 2.465636 1_555
Li35 S28 2.601913 1_555
Li35 S30 2.626316 1_555
Li35 S24 2.703974 1_555
Li36 S26 2.570273 1_555
Li36 S30 2.576692 1_555
Li36 S25 2.645631 1_555
Li36 S4 2.687993 1_655
Li37 S27 2.570273 1_545
Li37 S31 2.576692 1_555
Li37 S24 2.645631 1_555
Li37 S5 2.687993 1_655
Li38 S1 2.393992 1_655
Li38 S28 2.402719 1_555
Li38 S24 2.426490 1_565
Li38 S2 2.636838 1_665
Li39 S0 2.393992 1_655
Li39 S29 2.402719 1_554
Li39 S25 2.426490 1_555
Li39 S3 2.636838 1_655
Fe0 S4 2.254187 1_555
Fe0 S0 2.255802 1_545
Fe0 S25 2.262229 1_455
Fe0 S3 2.270363 1_555
Fe1 S5 2.254187 1_555
Fe1 S1 2.255802 1_555
Fe1 S24 2.262229 1_455
Fe1 S2 2.270363 1_555
Fe2 S10 2.254187 1_555
Fe2 S14 2.255802 1_555
Fe2 S22 2.262229 1_555
Fe2 S12 2.270363 1_555
Fe3 S11 2.254187 1_555
Fe3 S15 2.255802 1_565
Fe3 S23 2.262229 1_555
Fe3 S13 2.270363 1_555
Fe4 S21 2.254187 1_555
Fe4 S16 2.255802 1_555
Fe4 S8 2.262229 1_555
Fe4 S18 2.270363 1_555
Fe5 S20 2.254187 1_555
Fe5 S17 2.255802 1_545
Fe5 S9 2.262229 1_555
Fe5 S19 2.270363 1_555
Fe6 S26 2.254187 1_555
Fe6 S30 2.255802 1_555
Fe6 S6 2.262229 1_655
Fe6 S28 2.270363 1_555
Fe7 S27 2.254187 1_555
Fe7 S31 2.255802 1_565
Fe7 S7 2.262229 1_655
Fe7 S29 2.270363 1_555
