# generated using pymatgen
data_Li2Fe2(Si2O5)3
_symmetry_space_group_name_H-M   'P 1'
_cell_length_a   11.51126893
_cell_length_b   11.51126893
_cell_length_c   10.27003900
_cell_angle_alpha   90.00000000
_cell_angle_beta   90.00000000
_cell_angle_gamma   100.46605102
_symmetry_Int_Tables_number   1
_chemical_formula_structural   Li2Fe2(Si2O5)3
_chemical_formula_sum   'Li8 Fe8 Si24 O60'
_cell_volume   1338.23452428
_cell_formula_units_Z   4
loop_
 _symmetry_equiv_pos_site_id
 _symmetry_equiv_pos_as_xyz
  1  'x, y, z'
loop_
 _atom_site_type_symbol
 _atom_site_label
 _atom_site_symmetry_multiplicity
 _atom_site_fract_x
 _atom_site_fract_y
 _atom_site_fract_z
 _atom_site_occupancy
  Li  Li0  1  0.99199700  0.50800300  0.25000000  1
  Li  Li1  1  0.50800300  0.99199700  0.75000000  1
  Li  Li2  1  0.39453700  0.60546300  0.74599500  1
  Li  Li3  1  0.89453700  0.10546300  0.75400500  1
  Li  Li4  1  0.10546300  0.89453700  0.24599500  1
  Li  Li5  1  0.60546300  0.39453700  0.25400500  1
  Li  Li6  1  0.49199700  0.00800300  0.25000000  1
  Li  Li7  1  0.00800300  0.49199700  0.75000000  1
  Fe  Fe0  1  0.24723500  0.24723500  0.00000000  1
  Fe  Fe1  1  0.33731100  0.16268900  0.25000000  1
  Fe  Fe2  1  0.16268900  0.33731100  0.75000000  1
  Fe  Fe3  1  0.25276500  0.25276500  0.50000000  1
  Fe  Fe4  1  0.74723500  0.74723500  0.50000000  1
  Fe  Fe5  1  0.66268900  0.83731100  0.75000000  1
  Fe  Fe6  1  0.83731100  0.66268900  0.25000000  1
  Fe  Fe7  1  0.75276500  0.75276500  0.00000000  1
  Si  Si0  1  0.03314700  0.18085400  0.18910100  1
  Si  Si1  1  0.18085400  0.03314700  0.81089900  1
  Si  Si2  1  0.58260600  0.19996100  0.45523300  1
  Si  Si3  1  0.69996100  0.08260600  0.95523300  1
  Si  Si4  1  0.19996100  0.58260600  0.54476700  1
  Si  Si5  1  0.08260600  0.69996100  0.04476700  1
  Si  Si6  1  0.46685300  0.31914600  0.68910100  1
  Si  Si7  1  0.31914600  0.46685300  0.31089900  1
  Si  Si8  1  0.26195200  0.52540100  0.01351900  1
  Si  Si9  1  0.02540100  0.76195200  0.51351900  1
  Si  Si10  1  0.76195200  0.02540100  0.48648100  1
  Si  Si11  1  0.52540100  0.26195200  0.98648100  1
  Si  Si12  1  0.23804800  0.97459900  0.51351900  1
  Si  Si13  1  0.47459900  0.73804800  0.01351900  1
  Si  Si14  1  0.97459900  0.23804800  0.48648100  1
  Si  Si15  1  0.73804800  0.47459900  0.98648100  1
  Si  Si16  1  0.53314700  0.68085400  0.31089900  1
  Si  Si17  1  0.68085400  0.53314700  0.68910100  1
  Si  Si18  1  0.80003900  0.41739400  0.45523300  1
  Si  Si19  1  0.41739400  0.80003900  0.54476700  1
  Si  Si20  1  0.30003900  0.91739400  0.04476700  1
  Si  Si21  1  0.91739400  0.30003900  0.95523300  1
  Si  Si22  1  0.81914600  0.96685300  0.18910100  1
  Si  Si23  1  0.96685300  0.81914600  0.81089900  1
  O  O0  1  0.23613500  0.00789600  0.66862300  1
  O  O1  1  0.00789600  0.23613500  0.33137700  1
  O  O2  1  0.16727600  0.16710800  0.16136500  1
  O  O3  1  0.16710800  0.16727600  0.83863500  1
  O  O4  1  0.25006900  0.09070600  0.42555800  1
  O  O5  1  0.09070600  0.25006900  0.57444200  1
  O  O6  1  0.40929400  0.24993100  0.07444200  1
  O  O7  1  0.24993100  0.40929400  0.92555800  1
  O  O8  1  0.33272400  0.33289200  0.66136500  1
  O  O9  1  0.33289200  0.33272400  0.33863500  1
  O  O10  1  0.50831500  0.16050700  0.32639500  1
  O  O11  1  0.00831500  0.66050700  0.17360500  1
  O  O12  1  0.66050700  0.00831500  0.82639500  1
  O  O13  1  0.16050700  0.50831500  0.67360500  1
  O  O14  1  0.72717000  0.00526200  0.08208200  1
  O  O15  1  0.50526200  0.22717000  0.58208200  1
  O  O16  1  0.22717000  0.50526200  0.41791800  1
  O  O17  1  0.00526200  0.72717000  0.91791800  1
  O  O18  1  0.59802300  0.15369800  0.00850600  1
  O  O19  1  0.65369800  0.09802300  0.50850600  1
  O  O20  1  0.09802300  0.65369800  0.49149400  1
  O  O21  1  0.15369800  0.59802300  0.99149400  1
  O  O22  1  0.26386500  0.49210400  0.16862300  1
  O  O23  1  0.49210400  0.26386500  0.83137700  1
  O  O24  1  0.04806600  0.95193400  0.82213700  1
  O  O25  1  0.38528200  0.61471800  0.96565500  1
  O  O26  1  0.82452900  0.17547100  0.91700800  1
  O  O27  1  0.67547100  0.32452900  0.41700800  1
  O  O28  1  0.95193400  0.04806600  0.17786300  1
  O  O29  1  0.54806600  0.45193400  0.67786300  1
  O  O30  1  0.88528200  0.11471800  0.53434500  1
  O  O31  1  0.61471800  0.38528200  0.03434500  1
  O  O32  1  0.17547100  0.82452900  0.08299200  1
  O  O33  1  0.45193400  0.54806600  0.32213700  1
  O  O34  1  0.11471800  0.88528200  0.46565500  1
  O  O35  1  0.32452900  0.67547100  0.58299200  1
  O  O36  1  0.50789600  0.73613500  0.16862300  1
  O  O37  1  0.73613500  0.50789600  0.83137700  1
  O  O38  1  0.84630200  0.40197700  0.00850600  1
  O  O39  1  0.40197700  0.84630200  0.99149400  1
  O  O40  1  0.34630200  0.90197700  0.49149400  1
  O  O41  1  0.90197700  0.34630200  0.50850600  1
  O  O42  1  0.27283000  0.99473800  0.91791800  1
  O  O43  1  0.99473800  0.27283000  0.08208200  1
  O  O44  1  0.49473800  0.77283000  0.41791800  1
  O  O45  1  0.77283000  0.49473800  0.58208200  1
  O  O46  1  0.49168500  0.83949300  0.67360500  1
  O  O47  1  0.83949300  0.49168500  0.32639500  1
  O  O48  1  0.99168500  0.33949300  0.82639500  1
  O  O49  1  0.33949300  0.99168500  0.17360500  1
  O  O50  1  0.66727600  0.66710800  0.33863500  1
  O  O51  1  0.66710800  0.66727600  0.66136500  1
  O  O52  1  0.75006900  0.59070600  0.07444200  1
  O  O53  1  0.59070600  0.75006900  0.92555800  1
  O  O54  1  0.90929400  0.74993100  0.42555800  1
  O  O55  1  0.74993100  0.90929400  0.57444200  1
  O  O56  1  0.83289200  0.83272400  0.16136500  1
  O  O57  1  0.83272400  0.83289200  0.83863500  1
  O  O58  1  0.76386500  0.99210400  0.33137700  1
  O  O59  1  0.99210400  0.76386500  0.66862300  1
loop_
_geom_bond_atom_site_label_1
_geom_bond_atom_site_label_2
_geom_bond_distance
_geom_bond_site_symmetry_2
Li0 O47 1.900757 1_555
Li0 O11 1.900757 1_655
Li1 O12 1.900757 1_565
Li1 O46 1.900757 1_555
Li2 O35 2.082611 1_555
Li2 O25 2.261854 1_555
Li3 O26 2.082611 1_555
Li3 O30 2.261854 1_555
Li4 O32 2.082611 1_555
Li4 O34 2.261854 1_555
Li5 O27 2.082611 1_555
Li5 O31 2.261854 1_555
Li6 O10 1.900757 1_555
Li6 O49 1.900757 1_545
Li7 O13 1.900757 1_555
Li7 O48 1.900757 1_455
Fe0 O6 2.011102 1_555
Fe0 O7 2.011102 1_554
Fe0 O2 2.033692 1_555
Fe0 O3 2.033692 1_554
Fe1 O10 2.123451 1_555
Fe1 O49 2.123451 1_545
Fe1 O4 2.154900 1_555
Fe1 O6 2.154900 1_555
Fe1 O9 2.167597 1_555
Fe1 O2 2.167597 1_555
Fe2 O48 2.123451 1_455
Fe2 O13 2.123451 1_555
Fe2 O5 2.154900 1_555
Fe2 O7 2.154900 1_555
Fe2 O8 2.167597 1_555
Fe2 O3 2.167597 1_555
Fe3 O5 2.011102 1_555
Fe3 O4 2.011102 1_555
Fe3 O8 2.033692 1_555
Fe3 O9 2.033692 1_555
Fe4 O54 2.011102 1_555
Fe4 O55 2.011102 1_555
Fe4 O51 2.033692 1_555
Fe4 O50 2.033692 1_555
Fe5 O46 2.123451 1_555
Fe5 O12 2.123451 1_565
Fe5 O53 2.154900 1_555
Fe5 O55 2.154900 1_555
Fe5 O57 2.167597 1_555
Fe5 O51 2.167597 1_555
Fe6 O47 2.123451 1_555
Fe6 O11 2.123451 1_655
Fe6 O52 2.154900 1_555
Fe6 O54 2.154900 1_555
Fe6 O50 2.167597 1_555
Fe6 O56 2.167597 1_555
Fe7 O52 2.011102 1_555
Fe7 O53 2.011102 1_554
Fe7 O56 2.033692 1_555
Fe7 O57 2.033692 1_554
O0 Si12 1.639473 1_545
O0 Si1 1.640635 1_555
O1 Si14 1.639473 1_455
O1 Si0 1.640635 1_555
O2 Si0 1.605882 1_555
O3 Si1 1.605882 1_555
O4 Si12 1.598236 1_545
O5 Si14 1.598236 1_455
O6 Si11 1.598236 1_554
O7 Si8 1.598236 1_556
O8 Si6 1.605882 1_555
O9 Si7 1.605882 1_555
O10 Si2 1.596021 1_555
O11 Si5 1.596021 1_555
O12 Si3 1.596021 1_555
O13 Si4 1.596021 1_555
O14 Si3 1.639889 1_554
O14 Si22 1.641501 1_545
O15 Si2 1.639889 1_555
O15 Si6 1.641501 1_555
O16 Si4 1.639889 1_555
O16 Si7 1.641501 1_555
O17 Si5 1.639889 1_556
O17 Si23 1.641501 1_455
O18 Si11 1.637483 1_554
O18 Si3 1.641608 1_554
O19 Si10 1.637483 1_555
O19 Si2 1.641608 1_555
O20 Si9 1.637483 1_555
O20 Si4 1.641608 1_555
O21 Si8 1.637483 1_556
O21 Si5 1.641608 1_556
O22 Si8 1.639473 1_555
O22 Si7 1.640635 1_555
O23 Si11 1.639473 1_555
O23 Si6 1.640635 1_555
O24 Si1 1.644573 1_565
O24 Si23 1.644573 1_455
O25 Si13 1.668514 1_556
O25 Si8 1.668514 1_556
O26 Si21 1.672164 1_555
O26 Si3 1.672164 1_555
O27 Si2 1.672164 1_555
O27 Si18 1.672164 1_555
O28 Si0 1.644573 1_655
O28 Si22 1.644573 1_545
O29 Si6 1.644573 1_555
O29 Si17 1.644573 1_555
O30 Si14 1.668514 1_555
O30 Si10 1.668514 1_555
O31 Si15 1.668514 1_554
O31 Si11 1.668514 1_554
O32 Si20 1.672164 1_555
O32 Si5 1.672164 1_555
O33 Si7 1.644573 1_555
O33 Si16 1.644573 1_555
O34 Si12 1.668514 1_555
O34 Si9 1.668514 1_555
O35 Si4 1.672164 1_555
O35 Si19 1.672164 1_555
O36 Si13 1.639473 1_555
O36 Si16 1.640635 1_555
O37 Si15 1.639473 1_555
O37 Si17 1.640635 1_555
O38 Si15 1.637483 1_554
O38 Si21 1.641608 1_554
O39 Si13 1.637483 1_556
O39 Si20 1.641608 1_556
O40 Si12 1.637483 1_555
O40 Si19 1.641608 1_555
O41 Si14 1.637483 1_555
O41 Si18 1.641608 1_555
O42 Si20 1.639889 1_556
O42 Si1 1.641501 1_565
O43 Si21 1.639889 1_554
O43 Si0 1.641501 1_655
O44 Si19 1.639889 1_555
O44 Si16 1.641501 1_555
O45 Si18 1.639889 1_555
O45 Si17 1.641501 1_555
O46 Si19 1.596021 1_555
O47 Si18 1.596021 1_555
O48 Si21 1.596021 1_555
O49 Si20 1.596021 1_555
O50 Si16 1.605882 1_555
O51 Si17 1.605882 1_555
O52 Si15 1.598236 1_554
O53 Si13 1.598236 1_556
O54 Si9 1.598236 1_655
O55 Si10 1.598236 1_565
O56 Si22 1.605882 1_555
O57 Si23 1.605882 1_555
O58 Si10 1.639473 1_565
O58 Si22 1.640635 1_555
O59 Si9 1.639473 1_655
O59 Si23 1.640635 1_555
