# generated using pymatgen
data_Cr10Fe5O24
_symmetry_space_group_name_H-M   'P 1'
_cell_length_a   5.98933238
_cell_length_b   5.98933238
_cell_length_c   14.66931046
_cell_angle_alpha   89.97782326
_cell_angle_beta   89.97782326
_cell_angle_gamma   59.96279559
_symmetry_Int_Tables_number   1
_chemical_formula_structural   Cr10Fe5O24
_chemical_formula_sum   'Cr10 Fe5 O24'
_cell_volume   455.54803921
_cell_formula_units_Z   1
loop_
 _symmetry_equiv_pos_site_id
 _symmetry_equiv_pos_as_xyz
  1  'x, y, z'
loop_
 _atom_site_type_symbol
 _atom_site_label
 _atom_site_symmetry_multiplicity
 _atom_site_fract_x
 _atom_site_fract_y
 _atom_site_fract_z
 _atom_site_occupancy
  Cr  Cr0  1  0.17171700  0.17171700  0.20741500  1
  Cr  Cr1  1  0.65756100  0.17139100  0.20768200  1
  Cr  Cr2  1  0.83798700  0.32403700  0.54076800  1
  Cr  Cr3  1  0.32403700  0.83798700  0.54076800  1
  Cr  Cr4  1  0.17139100  0.65756100  0.20768200  1
  Cr  Cr5  1  0.83775500  0.83775500  0.54097300  1
  Cr  Cr6  1  0.66523000  0.66523000  0.71428600  1
  Cr  Cr7  1  0.00020000  0.00020000  0.37803300  1
  Cr  Cr8  1  0.99319900  0.50555400  0.87392600  1
  Cr  Cr9  1  0.50555400  0.99319900  0.87392600  1
  Fe  Fe0  1  0.33326700  0.33326700  0.04521100  1
  Fe  Fe1  1  0.66663500  0.66663500  0.33285800  1
  Fe  Fe2  1  0.00083600  0.00083600  0.00092800  1
  Fe  Fe3  1  0.50499500  0.50499500  0.87396000  1
  Fe  Fe4  1  0.33305800  0.33305800  0.66676600  1
  O  O0  1  0.31299000  0.84368000  0.28850900  1
  O  O1  1  0.84368000  0.31299000  0.28850900  1
  O  O2  1  0.47959900  0.04105400  0.12931600  1
  O  O3  1  0.04105400  0.47959900  0.12931600  1
  O  O4  1  0.14434800  0.14434800  0.46495400  1
  O  O5  1  0.33338000  0.33338000  0.27567800  1
  O  O6  1  0.47942900  0.47942900  0.12930200  1
  O  O7  1  0.66649600  0.66649600  0.46532600  1
  O  O8  1  0.50929900  0.50929900  0.62213800  1
  O  O9  1  0.00025900  0.00025900  0.13238100  1
  O  O10  1  0.84340800  0.84340800  0.28872400  1
  O  O11  1  0.97787200  0.51020700  0.62296100  1
  O  O12  1  0.51020700  0.97787200  0.62296100  1
  O  O13  1  0.81311100  0.37475500  0.79520000  1
  O  O14  1  0.71217300  0.14508200  0.46459500  1
  O  O15  1  0.37475500  0.81311100  0.79520000  1
  O  O16  1  0.14508200  0.71217300  0.46459500  1
  O  O17  1  0.81205600  0.81205600  0.79669500  1
  O  O18  1  0.66382600  0.66382600  0.94290500  1
  O  O19  1  0.00065400  0.00065400  0.60778900  1
  O  O20  1  0.17724600  0.17724600  0.95614700  1
  O  O21  1  0.33388600  0.33388600  0.79953100  1
  O  O22  1  0.64595100  0.17583900  0.95604200  1
  O  O23  1  0.17583900  0.64595100  0.95604200  1
loop_
_geom_bond_atom_site_label_1
_geom_bond_atom_site_label_2
_geom_bond_distance
_geom_bond_site_symmetry_2
Cr0 O5 1.953930 1_555
Cr0 O3 1.969690 1_555
Cr0 O2 1.969690 1_555
Cr0 O1 2.079878 1_455
Cr0 O0 2.079878 1_545
Cr0 O9 2.092405 1_555
Cr1 O5 1.954351 1_555
Cr1 O6 1.973019 1_555
Cr1 O2 1.975254 1_555
Cr1 O1 2.077484 1_555
Cr1 O10 2.078788 1_545
Cr1 O9 2.092031 1_655
Cr2 O14 1.943031 1_555
Cr2 O19 1.943529 1_655
Cr2 O4 1.945334 1_655
Cr2 O11 2.082320 1_555
Cr2 O8 2.084186 1_555
Cr2 O7 2.092071 1_555
Cr3 O16 1.943031 1_555
Cr3 O19 1.943529 1_565
Cr3 O4 1.945334 1_565
Cr3 O12 2.082320 1_555
Cr3 O8 2.084186 1_555
Cr3 O7 2.092071 1_555
Cr4 O5 1.954351 1_555
Cr4 O6 1.973019 1_555
Cr4 O3 1.975254 1_555
Cr4 O0 2.077484 1_555
Cr4 O10 2.078788 1_455
Cr4 O9 2.092031 1_565
Cr5 O19 1.954213 1_665
Cr5 O14 1.955044 1_565
Cr5 O16 1.955044 1_655
Cr5 O11 2.085704 1_555
Cr5 O12 2.085704 1_555
Cr5 O7 2.095401 1_555
Cr6 O15 1.917457 1_555
Cr6 O13 1.917457 1_555
Cr6 O17 1.945223 1_555
Cr6 O12 2.102759 1_555
Cr6 O11 2.102759 1_555
Cr6 O8 2.108742 1_555
Cr7 O14 1.960065 1_455
Cr7 O16 1.960065 1_545
Cr7 O4 1.965826 1_555
Cr7 O1 2.086611 1_455
Cr7 O0 2.086611 1_545
Cr7 O10 2.089228 1_445
Cr8 O17 1.958569 1_555
Cr8 O18 1.985243 1_555
Cr8 O13 1.989571 1_555
Cr8 O23 2.068184 1_655
Cr8 O21 2.076181 1_655
Cr8 O20 2.089396 1_655
Cr9 O17 1.958569 1_555
Cr9 O18 1.985243 1_555
Cr9 O15 1.989571 1_555
Cr9 O22 2.068184 1_565
Cr9 O21 2.076181 1_565
Cr9 O20 2.089396 1_565
Fe0 O3 1.953691 1_555
Fe0 O2 1.953691 1_555
Fe0 O6 1.955311 1_555
Fe0 O20 2.080743 1_554
Fe0 O23 2.082919 1_554
Fe0 O22 2.082919 1_554
Fe1 O7 1.943214 1_555
Fe1 O10 1.944792 1_555
Fe1 O1 1.945765 1_555
Fe1 O0 1.945765 1_555
Fe2 O9 1.928331 1_555
Fe2 O20 1.944422 1_554
Fe2 O23 1.954533 1_544
Fe2 O22 1.954533 1_454
Fe3 O18 1.933974 1_555
Fe3 O15 1.976556 1_555
Fe3 O13 1.976556 1_555
Fe3 O21 2.084661 1_555
Fe3 O22 2.093276 1_555
Fe3 O23 2.093276 1_555
Fe4 O8 1.942015 1_555
Fe4 O21 1.947594 1_555
Fe4 O11 1.950656 1_455
Fe4 O12 1.950656 1_545
