# generated using pymatgen
data_Li6Fe3Ni(PO4)6
_symmetry_space_group_name_H-M   'P 1'
_cell_length_a   8.56982600
_cell_length_b   8.61649862
_cell_length_c   8.62246275
_cell_angle_alpha   61.70081561
_cell_angle_beta   61.67502352
_cell_angle_gamma   61.84759922
_symmetry_Int_Tables_number   1
_chemical_formula_structural   Li6Fe3Ni(PO4)6
_chemical_formula_sum   'Li6 Fe3 Ni1 P6 O24'
_cell_volume   467.77815086
_cell_formula_units_Z   1
loop_
 _symmetry_equiv_pos_site_id
 _symmetry_equiv_pos_as_xyz
  1  'x, y, z'
loop_
 _atom_site_type_symbol
 _atom_site_label
 _atom_site_symmetry_multiplicity
 _atom_site_fract_x
 _atom_site_fract_y
 _atom_site_fract_z
 _atom_site_occupancy
  Li  Li0  1  0.98013300  0.01120800  0.99889800  1
  Li  Li1  1  0.24584800  0.65078100  0.85223500  1
  Li  Li2  1  0.51949200  0.50492700  0.48948300  1
  Li  Li3  1  0.78023700  0.34168100  0.15308500  1
  Li  Li4  1  0.33786800  0.15511800  0.77895700  1
  Li  Li5  1  0.15721400  0.78207100  0.34028000  1
  Fe  Fe0  1  0.85498000  0.86074200  0.85315400  1
  Fe  Fe1  1  0.64538600  0.64706000  0.63985200  1
  Fe  Fe2  1  0.35408600  0.35218100  0.35455100  1
  Ni  Ni0  1  0.14490200  0.14638500  0.14697100  1
  P  P0  1  0.94914100  0.54691400  0.24969400  1
  P  P1  1  0.54766700  0.25040700  0.94940600  1
  P  P2  1  0.25050800  0.95073500  0.54359400  1
  P  P3  1  0.74948900  0.04271200  0.45619700  1
  P  P4  1  0.45424500  0.74882900  0.03761600  1
  P  P5  1  0.04518700  0.46128300  0.75097100  1
  O  O0  1  0.87626800  0.51523900  0.69659100  1
  O  O1  1  0.68411600  0.88643800  0.49543200  1
  O  O2  1  0.95124200  0.73083800  0.08140200  1
  O  O3  1  0.47090900  0.69213200  0.88397600  1
  O  O4  1  0.75738900  0.57532600  0.40572800  1
  O  O5  1  0.96917500  0.38988700  0.19656200  1
  O  O6  1  0.73841700  0.09260700  0.93199000  1
  O  O7  1  0.55839600  0.41727100  0.76349800  1
  O  O8  1  0.40452400  0.75534500  0.57433500  1
  O  O9  1  0.80401500  0.00670900  0.61796000  1
  O  O10  1  0.91304400  0.05317200  0.26756100  1
  O  O11  1  0.62892500  0.78972500  0.99266800  1
  O  O12  1  0.38805300  0.19736400  0.97239700  1
  O  O13  1  0.09519200  0.93145000  0.73917900  1
  O  O14  1  0.19452600  0.97275900  0.38899600  1
  O  O15  1  0.59584400  0.23883800  0.42733100  1
  O  O16  1  0.42732100  0.59496800  0.23371300  1
  O  O17  1  0.27061700  0.91676300  0.05333300  1
  O  O18  1  0.03408200  0.61847700  0.79886000  1
  O  O19  1  0.23766400  0.42500100  0.59342400  1
  O  O20  1  0.50946500  0.30763300  0.11216000  1
  O  O21  1  0.05083100  0.27358500  0.91409600  1
  O  O22  1  0.31131600  0.11100000  0.50455900  1
  O  O23  1  0.11228400  0.50343800  0.31030700  1
loop_
_geom_bond_atom_site_label_1
_geom_bond_atom_site_label_2
_geom_bond_distance
_geom_bond_site_symmetry_2
Li0 O6 2.120170 1_555
Li0 O10 2.271957 1_556
Li0 O2 2.274051 1_546
Li0 O13 2.276820 1_645
Li0 O21 2.305989 1_655
Li0 O17 2.431998 1_646
Li1 O8 2.102307 1_555
Li1 O13 2.116241 1_555
Li1 O18 2.230130 1_555
Li1 O3 2.272382 1_555
Li1 O2 2.381057 1_456
Li1 O7 2.497485 1_555
Li2 O4 2.097715 1_555
Li2 O8 2.229009 1_555
Li2 O7 2.254283 1_555
Li2 O15 2.321347 1_555
Li2 O16 2.354139 1_555
Li2 O19 2.457858 1_555
Li3 O5 2.071966 1_555
Li3 O10 2.125834 1_555
Li3 O15 2.159326 1_555
Li3 O21 2.301304 1_654
Li4 O21 2.118729 1_555
Li4 O12 2.122161 1_555
Li4 O19 2.143901 1_555
Li4 O17 2.315890 1_546
Li5 O14 2.062997 1_555
Li5 O17 2.114945 1_555
Li5 O16 2.160163 1_555
Li5 O10 2.339267 1_465
Fe0 O11 1.945180 1_555
Fe0 O9 1.946537 1_565
Fe0 O18 2.038099 1_655
Fe0 O6 2.052182 1_565
Fe0 O13 2.066580 1_655
Fe0 O2 2.094594 1_556
Fe1 O0 1.927534 1_555
Fe1 O1 1.932266 1_555
Fe1 O3 2.014399 1_555
Fe1 O4 2.040367 1_555
Fe1 O8 2.059075 1_555
Fe1 O7 2.061523 1_555
Fe2 O22 1.961196 1_555
Fe2 O23 1.966828 1_555
Fe2 O20 1.981410 1_555
Fe2 O19 2.077486 1_555
Fe2 O15 2.093656 1_555
Fe2 O16 2.099429 1_555
Ni0 O14 2.013853 1_545
Ni0 O12 2.015233 1_554
Ni0 O5 2.027529 1_455
Ni0 O17 2.098793 1_545
Ni0 O10 2.104257 1_455
Ni0 O21 2.121023 1_554
O0 P5 1.527714 1_655
O1 P3 1.530214 1_565
O2 P0 1.561802 1_555
O3 P4 1.543470 1_556
O4 P0 1.550833 1_555
O5 P0 1.537500 1_555
O6 P1 1.551378 1_555
O7 P1 1.563609 1_555
O8 P2 1.568052 1_555
O9 P3 1.526916 1_555
O10 P3 1.560472 1_555
O11 P4 1.527433 1_556
O12 P1 1.538166 1_555
O13 P2 1.567231 1_555
O14 P2 1.524538 1_555
O15 P3 1.569704 1_555
O16 P4 1.569335 1_555
O17 P4 1.556727 1_555
O18 P5 1.544503 1_555
O19 P5 1.566413 1_555
O20 P1 1.545143 1_554
O21 P5 1.558923 1_555
O22 P2 1.537440 1_545
O23 P0 1.543280 1_455
