# generated using pymatgen
data_Li5Mn4P4O16F
_symmetry_space_group_name_H-M   'P 1'
_cell_length_a   8.32109457
_cell_length_b   8.32109457
_cell_length_c   8.32109457
_cell_angle_alpha   95.77711880
_cell_angle_beta   95.77711880
_cell_angle_gamma   143.00442986
_symmetry_Int_Tables_number   1
_chemical_formula_structural   Li5Mn4P4O16F
_chemical_formula_sum   'Li5 Mn4 P4 O16 F1'
_cell_volume   328.79260192
_cell_formula_units_Z   1
loop_
 _symmetry_equiv_pos_site_id
 _symmetry_equiv_pos_as_xyz
  1  'x, y, z'
loop_
 _atom_site_type_symbol
 _atom_site_label
 _atom_site_symmetry_multiplicity
 _atom_site_fract_x
 _atom_site_fract_y
 _atom_site_fract_z
 _atom_site_occupancy
  Li  Li0  1  0.50000000  0.50000000  0.00000000  1
  Li  Li1  1  0.11460800  0.44391600  0.45476900  1
  Li  Li2  1  0.34016100  0.88539200  0.32930800  1
  Li  Li3  1  0.55608400  0.01085300  0.67069200  1
  Li  Li4  1  0.98914700  0.65983900  0.54523100  1
  Mn  Mn0  1  0.88264400  0.16656900  0.04784500  1
  Mn  Mn1  1  0.83343100  0.88127600  0.71607400  1
  Mn  Mn2  1  0.16520100  0.11735600  0.28392600  1
  Mn  Mn3  1  0.11872400  0.83479900  0.95215500  1
  P  P0  1  0.62021400  0.78504500  0.34537500  1
  P  P1  1  0.72516100  0.37978600  0.16483100  1
  P  P2  1  0.21495500  0.56033000  0.83516900  1
  P  P3  1  0.43967000  0.27483900  0.65462500  1
  O  O0  1  0.37227300  0.50131800  0.19994200  1
  O  O1  1  0.83746800  0.04167500  0.27273600  1
  O  O2  1  0.20712800  0.66365200  0.99489900  1
  O  O3  1  0.33634800  0.33124800  0.54347600  1
  O  O4  1  0.50387200  0.82340200  0.44927400  1
  O  O5  1  0.94540200  0.49612700  0.31952900  1
  O  O6  1  0.82766900  0.62772700  0.12904600  1
  O  O7  1  0.43526800  0.16253200  0.20420700  1
  O  O8  1  0.95832500  0.23106200  0.79579300  1
  O  O9  1  0.49868200  0.69862300  0.87095400  1
  O  O10  1  0.17659800  0.62587300  0.68047100  1
  O  O11  1  0.37412700  0.05459800  0.55072600  1
  O  O12  1  0.78777100  0.79287200  0.45652400  1
  O  O13  1  0.66875200  0.21222900  0.00510100  1
  O  O14  1  0.76893800  0.56473200  0.72726400  1
  O  O15  1  0.30137700  0.17233100  0.80005800  1
  F  F0  1  0.00000000  0.00000000  0.00000000  1
loop_
_geom_bond_atom_site_label_1
_geom_bond_atom_site_label_2
_geom_bond_distance
_geom_bond_site_symmetry_2
Li0 O9 2.066075 1_554
Li0 O0 2.066077 1_555
Li0 O6 2.066079 1_555
Li0 O15 2.066079 1_554
Li1 O10 2.017597 1_555
Li1 O4 2.045935 1_555
Li1 O5 2.047952 1_455
Li1 O1 2.182190 1_455
Li2 O4 2.017586 1_555
Li2 O5 2.045936 1_455
Li2 O11 2.047959 1_565
Li2 O7 2.182190 1_565
Li3 O11 2.017593 1_555
Li3 O10 2.045936 1_545
Li3 O4 2.047955 1_545
Li3 O8 2.182187 1_555
Li4 O5 2.017597 1_555
Li4 O11 2.045933 1_665
Li4 O10 2.047952 1_655
Li4 O14 2.182195 1_555
Mn0 O13 2.102034 1_555
Mn0 O1 2.152295 1_555
Mn0 O8 2.244127 1_554
Mn0 O9 2.358691 1_544
Mn0 O0 2.466642 1_655
Mn0 O2 2.712908 1_654
Mn1 O12 2.102018 1_555
Mn1 O8 2.152303 1_565
Mn1 O14 2.244122 1_555
Mn1 O15 2.358691 1_665
Mn1 O9 2.466640 1_555
Mn1 O3 2.712903 1_555
Mn2 O3 2.102020 1_555
Mn2 O7 2.152298 1_555
Mn2 O1 2.244125 1_455
Mn2 O0 2.358689 1_555
Mn2 O6 2.466642 1_445
Mn2 O12 2.712902 1_445
Mn3 O2 2.102026 1_555
Mn3 O14 2.152298 1_455
Mn3 O7 2.244126 1_566
Mn3 O6 2.358691 1_456
Mn3 O15 2.466640 1_565
Mn3 O13 2.712902 1_566
O0 P0 1.560943 1_555
O1 P0 1.583312 1_545
O2 P2 1.544933 1_555
O3 P3 1.544940 1_555
O4 P0 1.546945 1_555
O5 P1 1.546943 1_555
O6 P1 1.560940 1_555
O7 P1 1.583312 1_555
O8 P2 1.583306 1_655
O9 P2 1.560948 1_555
O10 P2 1.546943 1_555
O11 P3 1.546940 1_555
O12 P0 1.544933 1_555
O13 P1 1.544929 1_555
O14 P3 1.583308 1_555
O15 P3 1.560940 1_555
F0 Mn3 2.272098 1_544
F0 Mn0 2.272098 1_455
F0 Mn1 2.272106 1_444
F0 Mn2 2.272106 1_555
