# generated using pymatgen
data_La9Mn10O30
_symmetry_space_group_name_H-M   'P 1'
_cell_length_a   7.86049500
_cell_length_b   9.53795650
_cell_length_c   9.63317755
_cell_angle_alpha   80.99561165
_cell_angle_beta   113.81817367
_cell_angle_gamma   113.56143588
_symmetry_Int_Tables_number   1
_chemical_formula_structural   La9Mn10O30
_chemical_formula_sum   'La9 Mn10 O30'
_cell_volume   605.62460386
_cell_formula_units_Z   1
loop_
 _symmetry_equiv_pos_site_id
 _symmetry_equiv_pos_as_xyz
  1  'x, y, z'
loop_
 _atom_site_type_symbol
 _atom_site_label
 _atom_site_symmetry_multiplicity
 _atom_site_fract_x
 _atom_site_fract_y
 _atom_site_fract_z
 _atom_site_occupancy
  La  La0  1  0.55244500  0.70059400  0.89956600  1
  La  La1  1  0.65684100  0.10820600  0.70839700  1
  La  La2  1  0.14825400  0.09837700  0.70180700  1
  La  La3  1  0.04934100  0.68959700  0.90513200  1
  La  La4  1  0.74538500  0.49745700  0.49956600  1
  La  La5  1  0.24341800  0.49421500  0.49084700  1
  La  La6  1  0.45077200  0.30007600  0.10159000  1
  La  La7  1  0.84962100  0.90778900  0.29346100  1
  La  La8  1  0.35354100  0.90282200  0.29813900  1
  Mn  Mn0  1  0.60274200  0.39969200  0.80334100  1
  Mn  Mn1  1  0.09876700  0.39837000  0.80147600  1
  Mn  Mn2  1  0.80036200  0.20088000  0.39649000  1
  Mn  Mn3  1  0.19990500  0.80032000  0.59940300  1
  Mn  Mn4  1  0.70014000  0.80107500  0.60001500  1
  Mn  Mn5  1  0.29763300  0.20065700  0.39755100  1
  Mn  Mn6  1  0.90018500  0.59770700  0.19944800  1
  Mn  Mn7  1  0.39615800  0.59636100  0.19975000  1
  Mn  Mn8  1  0.50313700  0.00170000  0.00109300  1
  Mn  Mn9  1  0.00081000  0.00328900  0.00109800  1
  O  O0  1  0.72585100  0.99338300  0.96031600  1
  O  O1  1  0.10536400  0.20682400  0.91177400  1
  O  O2  1  0.49840700  0.18597600  0.87456700  1
  O  O3  1  0.28706400  0.52525900  0.98523800  1
  O  O4  1  0.85421800  0.39529800  0.81298100  1
  O  O5  1  0.33586000  0.41196700  0.75974800  1
  O  O6  1  0.30647100  0.87364100  0.81023600  1
  O  O7  1  0.91859100  0.27458600  0.61326300  1
  O  O8  1  0.30200900  0.01270200  0.52927000  1
  O  O9  1  0.69618500  0.61323800  0.72344200  1
  O  O10  1  0.88334500  0.92124200  0.78867500  1
  O  O11  1  0.48032600  0.32038100  0.59007500  1
  O  O12  1  0.10436900  0.58955600  0.67453800  1
  O  O13  1  0.46103200  0.78883500  0.63480800  1
  O  O14  1  0.06195900  0.18615000  0.43693200  1
  O  O15  1  0.93693600  0.81365400  0.56015300  1
  O  O16  1  0.54122000  0.21276800  0.36950500  1
  O  O17  1  0.13091400  0.06511900  0.21933400  1
  O  O18  1  0.51615100  0.67905500  0.41226700  1
  O  O19  1  0.88865700  0.41777900  0.33597100  1
  O  O20  1  0.08772200  0.72647300  0.38981300  1
  O  O21  1  0.70708100  0.99017400  0.48041500  1
  O  O22  1  0.33326200  0.39580400  0.29223100  1
  O  O23  1  0.66177000  0.10748000  0.19587000  1
  O  O24  1  0.66334400  0.59339800  0.23374900  1
  O  O25  1  0.15176000  0.62814600  0.17355000  1
  O  O26  1  0.49534500  0.80988100  0.11966900  1
  O  O27  1  0.70036300  0.48763700  0.00491600  1
  O  O28  1  0.90579700  0.78810900  0.07754200  1
  O  O29  1  0.25916900  0.98630500  0.03098500  1
loop_
_geom_bond_atom_site_label_1
_geom_bond_atom_site_label_2
_geom_bond_distance
_geom_bond_site_symmetry_2
La0 O3 2.449248 1_555
La0 O13 2.461894 1_555
La0 O28 2.469642 1_556
La0 O27 2.607159 1_556
La0 O0 2.612128 1_555
La0 O9 2.755500 1_555
La0 O26 2.760092 1_556
La0 O5 2.802279 1_555
La0 O6 2.822396 1_555
La1 O0 2.441868 1_545
La1 O7 2.459434 1_555
La1 O8 2.482004 1_555
La1 O4 2.669250 1_555
La1 O2 2.717325 1_555
La1 O11 2.750492 1_555
La1 O10 2.818249 1_545
La1 O21 2.841909 1_545
La1 O13 2.863031 1_545
La1 O1 3.082185 1_655
La1 O16 3.128482 1_555
La1 O6 3.181501 1_545
La2 O2 2.437308 1_555
La2 O10 2.458246 1_445
La2 O14 2.461506 1_555
La2 O1 2.599829 1_555
La2 O7 2.746710 1_455
La2 O6 2.759277 1_545
La2 O15 2.778319 1_445
La2 O8 2.779944 1_555
La2 O5 2.786371 1_555
La3 O25 2.428815 1_556
La3 O6 2.481079 1_555
La3 O9 2.481605 1_455
La3 O4 2.694096 1_455
La3 O3 2.709700 1_555
La3 O28 2.786403 1_456
La3 O12 2.793109 1_555
La3 O29 2.815375 1_556
La3 O10 2.861684 1_455
La4 O11 2.479251 1_555
La4 O24 2.492953 1_555
La4 O12 2.493092 1_655
La4 O19 2.611899 1_555
La4 O16 2.734136 1_555
La4 O18 2.787368 1_555
La4 O9 2.789394 1_555
La4 O15 2.813201 1_555
La4 O7 2.820033 1_555
La4 O22 2.879734 1_555
La4 O4 2.907954 1_555
La4 O20 3.163241 1_655
La5 O19 2.426638 1_455
La5 O18 2.479611 1_555
La5 O5 2.480487 1_555
La5 O22 2.687742 1_555
La5 O14 2.732518 1_555
La5 O11 2.768611 1_555
La5 O20 2.807668 1_555
La5 O12 2.830759 1_555
La5 O13 2.864744 1_555
La5 O25 3.037848 1_555
La5 O7 3.111394 1_455
La5 O9 3.178204 1_555
La6 O27 2.462715 1_555
La6 O1 2.464745 1_554
La6 O16 2.485640 1_555
La6 O22 2.762011 1_555
La6 O23 2.765321 1_555
La6 O3 2.795765 1_554
La6 O2 2.799905 1_554
La6 O29 2.809578 1_545
La6 O24 2.810582 1_555
La7 O17 2.436780 1_665
La7 O26 2.464698 1_555
La7 O15 2.494778 1_555
La7 O23 2.694174 1_565
La7 O14 2.736365 1_665
La7 O28 2.777112 1_555
La7 O24 2.795742 1_555
La7 O21 2.809431 1_555
La7 O20 2.835005 1_655
La7 O0 3.034038 1_554
La7 O18 3.163844 1_555
La7 O8 3.185768 1_665
La8 O29 2.469068 1_555
La8 O21 2.483126 1_555
La8 O20 2.488088 1_555
La8 O17 2.599955 1_565
La8 O25 2.635233 1_555
La8 O18 2.776531 1_555
La8 O16 2.778275 1_565
La8 O26 2.792635 1_555
La8 O8 2.831627 1_565
La8 O23 2.862856 1_565
La8 O28 3.115824 1_455
La8 O13 3.135548 1_555
Mn0 O4 1.958208 1_555
Mn0 O27 1.963378 1_556
Mn0 O2 1.994667 1_555
Mn0 O11 2.006666 1_555
Mn0 O9 2.012534 1_555
Mn0 O5 2.015035 1_555
Mn1 O4 1.958140 1_455
Mn1 O1 1.973074 1_555
Mn1 O3 1.977738 1_555
Mn1 O7 1.986541 1_455
Mn1 O5 2.011760 1_555
Mn1 O12 2.025776 1_555
Mn2 O23 1.943697 1_555
Mn2 O19 1.975547 1_555
Mn2 O14 1.991637 1_655
Mn2 O16 1.994364 1_555
Mn2 O21 2.005562 1_545
Mn2 O7 2.021958 1_555
Mn3 O20 1.964880 1_555
Mn3 O12 1.976262 1_555
Mn3 O8 1.978333 1_565
Mn3 O6 1.979358 1_555
Mn3 O13 1.985971 1_555
Mn3 O15 1.998943 1_455
Mn4 O21 1.976122 1_555
Mn4 O10 1.977132 1_555
Mn4 O18 1.979342 1_555
Mn4 O9 1.985692 1_555
Mn4 O13 1.994903 1_555
Mn4 O15 2.002682 1_555
Mn5 O22 1.947785 1_555
Mn5 O17 1.964476 1_555
Mn5 O14 1.985228 1_555
Mn5 O16 1.995917 1_555
Mn5 O11 2.001665 1_555
Mn5 O8 2.031510 1_555
Mn6 O19 1.987066 1_555
Mn6 O25 1.993453 1_655
Mn6 O28 1.997318 1_555
Mn6 O27 2.000298 1_555
Mn6 O24 2.002042 1_555
Mn6 O20 2.029424 1_655
Mn7 O22 1.939980 1_555
Mn7 O25 1.973891 1_555
Mn7 O3 2.001981 1_554
Mn7 O24 2.001988 1_555
Mn7 O18 2.013439 1_555
Mn7 O26 2.018688 1_555
Mn8 O23 1.946916 1_555
Mn8 O0 1.975230 1_544
Mn8 O2 1.980216 1_554
Mn8 O26 1.992127 1_545
Mn8 O29 1.997433 1_545
Mn8 O6 2.039553 1_544
Mn9 O1 1.989295 1_554
Mn9 O17 1.995692 1_555
Mn9 O0 1.999279 1_444
Mn9 O29 2.002392 1_545
Mn9 O10 2.012432 1_444
Mn9 O28 2.014448 1_445
