# generated using pymatgen
data_MnH6(OF)3
_symmetry_space_group_name_H-M   'P 1'
_cell_length_a   8.45010996
_cell_length_b   9.23911177
_cell_length_c   6.39880545
_cell_angle_alpha   90.00000000
_cell_angle_beta   100.80680501
_cell_angle_gamma   90.00000000
_symmetry_Int_Tables_number   1
_chemical_formula_structural   MnH6(OF)3
_chemical_formula_sum   'Mn4 H24 O12 F12'
_cell_volume   490.70462580
_cell_formula_units_Z   4
loop_
 _symmetry_equiv_pos_site_id
 _symmetry_equiv_pos_as_xyz
  1  'x, y, z'
loop_
 _atom_site_type_symbol
 _atom_site_label
 _atom_site_symmetry_multiplicity
 _atom_site_fract_x
 _atom_site_fract_y
 _atom_site_fract_z
 _atom_site_occupancy
  Mn  Mn0  1  -0.00000000  0.50000000  -0.00000000  1
  Mn  Mn1  1  0.50000000  0.00000000  -0.00000000  1
  Mn  Mn2  1  0.50000000  0.50000000  0.50000000  1
  Mn  Mn3  1  -0.00000000  0.00000000  0.50000000  1
  H  H0  1  0.04235016  0.25259875  0.23840609  1
  H  H1  1  0.45764984  0.75259875  0.76159391  1
  H  H2  1  0.95764984  0.74740125  0.76159391  1
  H  H3  1  0.54235016  0.24740125  0.23840609  1
  H  H4  1  0.21681777  0.31631361  0.23750119  1
  H  H5  1  0.28318223  0.81631361  0.76249881  1
  H  H6  1  0.78318223  0.68368639  0.76249881  1
  H  H7  1  0.71681777  0.18368639  0.23750119  1
  H  H8  1  0.63939488  0.39821878  0.87181948  1
  H  H9  1  0.86060512  0.89821878  0.12818052  1
  H  H10  1  0.36060512  0.60178122  0.12818052  1
  H  H11  1  0.13939488  0.10178122  0.87181948  1
  H  H12  1  0.51947707  0.27398431  0.75494939  1
  H  H13  1  0.98052293  0.77398431  0.24505061  1
  H  H14  1  0.48052293  0.72601569  0.24505061  1
  H  H15  1  0.01947707  0.22601569  0.75494939  1
  H  H16  1  0.76104778  0.46228669  0.29388274  1
  H  H17  1  0.73895222  0.96228569  0.70611726  1
  H  H18  1  0.23895222  0.53771431  0.70611726  1
  H  H19  1  0.26104778  0.03771331  0.29388274  1
  H  H20  1  0.82605728  0.42780045  0.54054228  1
  H  H21  1  0.67394272  0.92780045  0.45945772  1
  H  H22  1  0.17394272  0.57219955  0.45945772  1
  H  H23  1  0.32605728  0.07219955  0.54054228  1
  O  O0  1  0.10590414  0.31288329  0.15937550  1
  O  O1  1  0.39409586  0.81288329  0.84062450  1
  O  O2  1  0.89409586  0.68711671  0.84062450  1
  O  O3  1  0.60590414  0.18711671  0.15937550  1
  O  O4  1  0.54470024  0.37896664  0.76013183  1
  O  O5  1  0.95529976  0.87896664  0.23986817  1
  O  O6  1  0.45529976  0.62103336  0.23986817  1
  O  O7  1  0.04470024  0.12103336  0.76013183  1
  O  O8  1  0.73003072  0.44864974  0.43209056  1
  O  O9  1  0.76996928  0.94864974  0.56790944  1
  O  O10  1  0.26996928  0.55135026  0.56790944  1
  O  O11  1  0.23003072  0.05135026  0.43209056  1
  F  F0  1  0.79967209  0.44673151  0.04353246  1
  F  F1  1  0.70032791  0.94673151  0.95646754  1
  F  F2  1  0.20032791  0.55326849  0.95646754  1
  F  F3  1  0.29967209  0.05326849  0.04353246  1
  F  F4  1  0.03136323  0.60852015  0.25845937  1
  F  F5  1  0.46863677  0.10852015  0.74154063  1
  F  F6  1  0.96863677  0.39147985  0.74154063  1
  F  F7  1  0.53136323  0.89147985  0.25845937  1
  F  F8  1  0.41324712  0.34419218  0.34510135  1
  F  F9  1  0.08675288  0.84419218  0.65489865  1
  F  F10  1  0.58675288  0.65580782  0.65489865  1
  F  F11  1  0.91324712  0.15580782  0.34510135  1
loop_
_geom_bond_atom_site_label_1
_geom_bond_atom_site_label_2
_geom_bond_distance
_geom_bond_site_symmetry_2
Mn0 O2 2.118338 1_454
Mn0 O0 2.118338 1_555
Mn1 O1 2.118338 1_544
Mn1 O3 2.118338 1_555
Mn2 O4 1.981927 1_555
Mn2 O6 1.981927 1_555
Mn2 O10 2.123429 1_555
Mn2 O8 2.123429 1_555
Mn3 O5 1.981927 1_445
Mn3 O7 1.981927 1_555
Mn3 O11 2.123429 1_555
Mn3 O9 2.123429 1_445
H0 O0 0.977859 1_555
H1 O1 0.977859 1_555
H2 O2 0.977859 1_555
H3 O3 0.977859 1_555
H4 O0 0.976536 1_555
H5 O1 0.976536 1_555
H6 O2 0.976536 1_555
H7 O3 0.976536 1_555
H8 O4 0.983987 1_555
H9 O5 0.983987 1_555
H10 O6 0.983987 1_555
H11 O7 0.983987 1_555
H12 O4 0.992304 1_555
H13 O5 0.992304 1_555
H14 O6 0.992304 1_555
H15 O7 0.992304 1_555
H16 O8 0.976520 1_555
H17 O9 0.976519 1_555
H18 O10 0.976519 1_555
H19 O11 0.976520 1_555
H20 O8 0.982829 1_555
H21 O9 0.982829 1_555
H22 O10 0.982829 1_555
H23 O11 0.982829 1_555
F0 Mn0 1.833625 1_655
F1 Mn1 1.833625 1_566
F2 Mn0 1.833625 1_556
F3 Mn1 1.833625 1_555
F4 H13 1.585923 1_455
F4 H22 1.623970 1_555
F4 Mn0 1.909529 1_555
F5 H12 1.585923 1_555
F5 H23 1.623970 1_555
F5 Mn1 1.909529 1_556
F6 H15 1.585923 1_655
F6 H20 1.623970 1_555
F6 Mn0 1.909529 1_656
F7 H14 1.585923 1_555
F7 H21 1.623970 1_555
F7 Mn1 1.909529 1_565
F8 Mn2 1.821968 1_555
F9 Mn3 1.821968 1_565
F10 Mn2 1.821968 1_555
F11 Mn3 1.821968 1_655
