# generated using pymatgen
data_Na3GaB4O9
_symmetry_space_group_name_H-M   'P 1'
_cell_length_a   8.78197800
_cell_length_b   6.28100600
_cell_length_c   6.88167887
_cell_angle_alpha   80.98282636
_cell_angle_beta   90.00000000
_cell_angle_gamma   90.00000000
_symmetry_Int_Tables_number   1
_chemical_formula_structural   Na3GaB4O9
_chemical_formula_sum   'Na6 Ga2 B8 O18'
_cell_volume   374.89983138
_cell_formula_units_Z   2
loop_
 _symmetry_equiv_pos_site_id
 _symmetry_equiv_pos_as_xyz
  1  'x, y, z'
loop_
 _atom_site_type_symbol
 _atom_site_label
 _atom_site_symmetry_multiplicity
 _atom_site_fract_x
 _atom_site_fract_y
 _atom_site_fract_z
 _atom_site_occupancy
  Na  Na0  1  0.46571400  0.74637400  0.17701600  1
  Na  Na1  1  0.03428600  0.74637400  0.17701600  1
  Na  Na2  1  0.75000000  0.57697800  0.49278800  1
  Na  Na3  1  0.25000000  0.42302200  0.50721200  1
  Na  Na4  1  0.96571400  0.25362600  0.82298400  1
  Na  Na5  1  0.53428600  0.25362600  0.82298400  1
  Ga  Ga0  1  0.75000000  0.79342400  0.86417500  1
  Ga  Ga1  1  0.25000000  0.20657600  0.13582500  1
  B  B0  1  0.75000000  0.98481500  0.21859800  1
  B  B1  1  0.25000000  0.87784600  0.47442500  1
  B  B2  1  0.45472900  0.75436700  0.72017900  1
  B  B3  1  0.04527100  0.75436700  0.72017900  1
  B  B4  1  0.95472900  0.24563300  0.27982100  1
  B  B5  1  0.54527100  0.24563300  0.27982100  1
  B  B6  1  0.75000000  0.12215400  0.52557500  1
  B  B7  1  0.25000000  0.01518500  0.78140200  1
  O  O0  1  0.39151100  0.88281100  0.84551700  1
  O  O1  1  0.10848900  0.88281100  0.84551700  1
  O  O2  1  0.75000000  0.93374100  0.43136100  1
  O  O3  1  0.25000000  0.92394200  0.26191100  1
  O  O4  1  0.38882700  0.73521000  0.54129800  1
  O  O5  1  0.11117300  0.73521000  0.54129800  1
  O  O6  1  0.75000000  0.78358200  0.13452800  1
  O  O7  1  0.91389400  0.63719600  0.77847700  1
  O  O8  1  0.58610600  0.63719600  0.77847700  1
  O  O9  1  0.08610600  0.36280400  0.22152300  1
  O  O10  1  0.41389400  0.36280400  0.22152300  1
  O  O11  1  0.25000000  0.21641800  0.86547200  1
  O  O12  1  0.88882700  0.26479000  0.45870200  1
  O  O13  1  0.61117300  0.26479000  0.45870200  1
  O  O14  1  0.75000000  0.07605800  0.73808900  1
  O  O15  1  0.25000000  0.06625900  0.56863900  1
  O  O16  1  0.89151100  0.11718900  0.15448300  1
  O  O17  1  0.60848900  0.11718900  0.15448300  1
loop_
_geom_bond_atom_site_label_1
_geom_bond_atom_site_label_2
_geom_bond_distance
_geom_bond_site_symmetry_2
Na0 O3 2.319095 1_555
Na0 O0 2.398003 1_554
Na0 O10 2.423608 1_555
Na0 O6 2.520252 1_555
Na0 O4 2.586531 1_555
Na0 O17 2.628238 1_565
Na1 O3 2.319095 1_555
Na1 O1 2.398003 1_554
Na1 O9 2.423608 1_555
Na1 O6 2.520252 1_455
Na1 O5 2.586531 1_555
Na1 O16 2.628238 1_465
Na2 O2 2.214292 1_555
Na2 O12 2.351710 1_555
Na2 O13 2.351710 1_555
Na2 O7 2.512570 1_555
Na2 O8 2.512570 1_555
Na2 O6 2.599895 1_555
Na3 O15 2.214292 1_555
Na3 O4 2.351710 1_555
Na3 O5 2.351710 1_555
Na3 O10 2.512570 1_555
Na3 O9 2.512570 1_555
Na3 O11 2.599895 1_555
Na4 O14 2.319095 1_555
Na4 O16 2.398003 1_556
Na4 O7 2.423608 1_555
Na4 O11 2.520252 1_655
Na4 O12 2.586531 1_555
Na4 O1 2.628238 1_645
Na5 O14 2.319095 1_555
Na5 O17 2.398003 1_556
Na5 O8 2.423608 1_555
Na5 O11 2.520252 1_555
Na5 O13 2.586531 1_555
Na5 O0 2.628238 1_545
Ga0 O14 1.849721 1_565
Ga0 O6 1.851801 1_556
Ga0 O7 1.887780 1_555
Ga0 O8 1.887780 1_555
Ga1 O3 1.849721 1_545
Ga1 O11 1.851801 1_554
Ga1 O9 1.887780 1_555
Ga1 O10 1.887780 1_555
B0 O2 1.448952 1_555
B0 O6 1.470200 1_555
B0 O16 1.521643 1_565
B0 O17 1.521643 1_565
B1 O15 1.435743 1_565
B1 O3 1.445638 1_555
B1 O4 1.539989 1_555
B1 O5 1.539989 1_555
B2 O4 1.382470 1_555
B2 O0 1.386064 1_555
B2 O8 1.393257 1_555
B3 O5 1.382470 1_555
B3 O1 1.386064 1_555
B3 O7 1.393257 1_455
B4 O12 1.382470 1_555
B4 O16 1.386064 1_555
B4 O9 1.393257 1_655
B5 O13 1.382470 1_555
B5 O17 1.386064 1_555
B5 O10 1.393257 1_555
B6 O2 1.435743 1_545
B6 O14 1.445638 1_555
B6 O12 1.539989 1_555
B6 O13 1.539989 1_555
B7 O15 1.448952 1_555
B7 O11 1.470200 1_555
B7 O0 1.521643 1_545
B7 O1 1.521643 1_545
