# generated using pymatgen
data_Li2MgCr3(SO4)6
_symmetry_space_group_name_H-M   'P 1'
_cell_length_a   9.03371459
_cell_length_b   9.05692422
_cell_length_c   8.97672337
_cell_angle_alpha   56.15010644
_cell_angle_beta   55.79668569
_cell_angle_gamma   54.91501017
_symmetry_Int_Tables_number   1
_chemical_formula_structural   Li2MgCr3(SO4)6
_chemical_formula_sum   'Li2 Mg1 Cr3 S6 O24'
_cell_volume   466.42678274
_cell_formula_units_Z   1
loop_
 _symmetry_equiv_pos_site_id
 _symmetry_equiv_pos_as_xyz
  1  'x, y, z'
loop_
 _atom_site_type_symbol
 _atom_site_label
 _atom_site_symmetry_multiplicity
 _atom_site_fract_x
 _atom_site_fract_y
 _atom_site_fract_z
 _atom_site_occupancy
  Li  Li0  1  0.18173700  0.42661200  0.76224800  1
  Li  Li1  1  0.76434700  0.17955400  0.42794500  1
  Mg  Mg0  1  0.35500500  0.35449100  0.34761600  1
  Cr  Cr0  1  0.16311700  0.14363400  0.15580900  1
  Cr  Cr1  1  0.64262900  0.64429700  0.64569800  1
  Cr  Cr2  1  0.84718800  0.84799300  0.85517500  1
  S  S0  1  0.03197400  0.74342500  0.47164400  1
  S  S1  1  0.54567700  0.95210400  0.25618000  1
  S  S2  1  0.25251200  0.55222400  0.94708700  1
  S  S3  1  0.75306700  0.46655300  0.03598800  1
  S  S4  1  0.46383800  0.03657700  0.75014600  1
  S  S5  1  0.95295100  0.24670000  0.55044000  1
  O  O0  1  0.99281700  0.94832500  0.35421300  1
  O  O1  1  0.02249800  0.70537700  0.66533600  1
  O  O2  1  0.35853200  0.96470800  0.29019700  1
  O  O3  1  0.04641900  0.68963800  0.97625300  1
  O  O4  1  0.49222500  0.89669700  0.69279500  1
  O  O5  1  0.22652700  0.61511100  0.38782900  1
  O  O6  1  0.67560200  0.97502100  0.05113500  1
  O  O7  1  0.37952900  0.64348500  0.75760700  1
  O  O8  1  0.29666200  0.50763700  0.10397200  1
  O  O9  1  0.10817600  0.28709600  0.51165200  1
  O  O10  1  0.63840300  0.75745100  0.38134300  1
  O  O11  1  0.27909800  0.37780400  0.93973100  1
  O  O12  1  0.71909500  0.65433800  0.02396900  1
  O  O13  1  0.37754600  0.23528700  0.62450500  1
  O  O14  1  0.88648900  0.69188000  0.50303900  1
  O  O15  1  0.69387600  0.49461400  0.89614200  1
  O  O16  1  0.63617000  0.37365200  0.23281800  1
  O  O17  1  0.34142500  0.00779500  0.95266200  1
  O  O18  1  0.75835300  0.38119900  0.63570800  1
  O  O19  1  0.52045400  0.10267300  0.29674600  1
  O  O20  1  0.96303300  0.33748200  0.99890700  1
  O  O21  1  0.65876800  0.02220000  0.70996200  1
  O  O22  1  0.95573200  0.27014100  0.36854000  1
  O  O23  1  0.97303100  0.04622400  0.68526500  1
loop_
_geom_bond_atom_site_label_1
_geom_bond_atom_site_label_2
_geom_bond_distance
_geom_bond_site_symmetry_2
Li0 O11 1.962442 1_555
Li0 O1 1.996352 1_555
Li0 O13 2.016135 1_555
Li0 O20 2.066976 1_455
Li1 O16 2.002268 1_555
Li1 O22 2.013296 1_555
Li1 O0 2.030555 1_545
Li1 O21 2.044096 1_555
Mg0 O8 2.015238 1_555
Mg0 O19 2.029345 1_555
Mg0 O5 2.092313 1_555
Mg0 O9 2.093977 1_555
Mg0 O13 2.170681 1_555
Mg0 O16 2.215461 1_555
Cr0 O2 2.031130 1_545
Cr0 O17 2.086271 1_554
Cr0 O22 2.101666 1_455
Cr0 O20 2.189182 1_454
Cr0 O11 2.246090 1_554
Cr0 O0 2.281679 1_445
Cr1 O14 1.995895 1_555
Cr1 O7 1.996443 1_555
Cr1 O10 2.007645 1_555
Cr1 O18 2.011942 1_555
Cr1 O4 2.027505 1_555
Cr1 O15 2.039539 1_555
Cr2 O6 1.989890 1_556
Cr2 O3 1.993190 1_655
Cr2 O12 2.027909 1_556
Cr2 O1 2.036407 1_655
Cr2 O23 2.046546 1_565
Cr2 O21 2.049833 1_565
O0 S0 1.471551 1_655
O1 S0 1.532420 1_555
O2 S1 1.483587 1_555
O3 S2 1.494993 1_555
O4 S4 1.463043 1_565
O5 S0 1.464574 1_555
O6 S1 1.494733 1_555
O7 S2 1.490886 1_555
O8 S2 1.455426 1_554
O9 S5 1.456144 1_455
O10 S1 1.491930 1_555
O11 S2 1.489882 1_555
O12 S3 1.493710 1_555
O13 S4 1.494336 1_555
O14 S0 1.472076 1_655
O15 S3 1.472907 1_556
O16 S3 1.487461 1_555
O17 S4 1.462535 1_555
O18 S5 1.491416 1_555
O19 S1 1.465233 1_545
O20 S3 1.499923 1_556
O21 S4 1.524003 1_555
O22 S5 1.511877 1_555
O23 S5 1.488131 1_555
