# generated using pymatgen
data_BaV2H2(Se2O7)2
_symmetry_space_group_name_H-M   'P 1'
_cell_length_a   7.20611900
_cell_length_b   9.88786900
_cell_length_c   10.01289928
_cell_angle_alpha   63.47486736
_cell_angle_beta   90.00000000
_cell_angle_gamma   90.00000000
_symmetry_Int_Tables_number   1
_chemical_formula_structural   BaV2H2(Se2O7)2
_chemical_formula_sum   'Ba2 V4 H4 Se8 O28'
_cell_volume   638.35186497
_cell_formula_units_Z   2
loop_
 _symmetry_equiv_pos_site_id
 _symmetry_equiv_pos_as_xyz
  1  'x, y, z'
loop_
 _atom_site_type_symbol
 _atom_site_label
 _atom_site_symmetry_multiplicity
 _atom_site_fract_x
 _atom_site_fract_y
 _atom_site_fract_z
 _atom_site_occupancy
  Ba  Ba0  1  0.50000000  0.50000000  0.00000000  1
  Ba  Ba1  1  0.00000000  0.50000000  0.50000000  1
  V  V0  1  0.52596400  0.29452900  0.44526900  1
  V  V1  1  0.02596400  0.70547100  0.05473100  1
  V  V2  1  0.47403600  0.70547100  0.55473100  1
  V  V3  1  0.97403600  0.29452900  0.94526900  1
  H  H0  1  0.43130300  0.86913400  0.94552300  1
  H  H1  1  0.93130300  0.13086600  0.55447700  1
  H  H2  1  0.56869700  0.13086600  0.05447700  1
  H  H3  1  0.06869700  0.86913400  0.44552300  1
  Se  Se0  1  0.42612100  0.94459700  0.68879600  1
  Se  Se1  1  0.92612100  0.05540300  0.81120400  1
  Se  Se2  1  0.57387900  0.05540300  0.31120400  1
  Se  Se3  1  0.07387900  0.94459700  0.18879600  1
  Se  Se4  1  0.50518200  0.31516100  0.75108700  1
  Se  Se5  1  0.00518200  0.68483900  0.74891300  1
  Se  Se6  1  0.49481800  0.68483900  0.24891300  1
  Se  Se7  1  0.99481800  0.31516100  0.25108700  1
  O  O0  1  0.59021100  0.07331500  0.58067900  1
  O  O1  1  0.09021100  0.92668500  0.91932100  1
  O  O2  1  0.40978900  0.92668500  0.41932100  1
  O  O3  1  0.90978900  0.07331500  0.08067900  1
  O  O4  1  0.65270600  0.34785200  0.60115000  1
  O  O5  1  0.15270600  0.65214800  0.89885000  1
  O  O6  1  0.34729400  0.65214800  0.39885000  1
  O  O7  1  0.84729400  0.34785200  0.10115000  1
  O  O8  1  0.56599200  0.50397100  0.28143800  1
  O  O9  1  0.06599200  0.49602900  0.21856200  1
  O  O10  1  0.43400800  0.49602900  0.71856200  1
  O  O11  1  0.93400800  0.50397100  0.78143800  1
  O  O12  1  0.84609500  0.27733000  0.39967500  1
  O  O13  1  0.34609500  0.72267000  0.10032500  1
  O  O14  1  0.15390500  0.72267000  0.60032500  1
  O  O15  1  0.65390500  0.27733000  0.89967500  1
  O  O16  1  0.47991800  0.22876200  0.28236600  1
  O  O17  1  0.97991800  0.77123800  0.21763400  1
  O  O18  1  0.52008200  0.77123800  0.71763400  1
  O  O19  1  0.02008200  0.22876200  0.78236600  1
  O  O20  1  0.31042900  0.30429100  0.49623700  1
  O  O21  1  0.81042900  0.69570900  0.00376300  1
  O  O22  1  0.68957100  0.69570900  0.50376300  1
  O  O23  1  0.18957100  0.30429100  0.99623700  1
  O  O24  1  0.50294500  0.94603900  0.85715400  1
  O  O25  1  0.00294500  0.05396100  0.64284600  1
  O  O26  1  0.49705500  0.05396100  0.14284600  1
  O  O27  1  0.99705500  0.94603900  0.35715400  1
loop_
_geom_bond_atom_site_label_1
_geom_bond_atom_site_label_2
_geom_bond_distance
_geom_bond_site_symmetry_2
Ba0 O5 2.862052 1_554
Ba0 O7 2.862052 1_555
Ba0 O10 2.875360 1_554
Ba0 O8 2.875360 1_555
Ba0 O18 2.904268 1_554
Ba0 O16 2.904268 1_555
Ba0 O21 2.969082 1_555
Ba0 O23 2.969082 1_554
Ba0 O15 3.010352 1_554
Ba0 O13 3.010352 1_555
Ba1 O4 2.862052 1_455
Ba1 O6 2.862052 1_555
Ba1 O11 2.875360 1_455
Ba1 O9 2.875360 1_555
Ba1 O19 2.904268 1_555
Ba1 O17 2.904268 1_455
Ba1 O22 2.969082 1_455
Ba1 O20 2.969082 1_555
Ba1 O12 3.010352 1_455
Ba1 O14 3.010352 1_555
H0 O24 1.013273 1_555
H0 O13 1.694676 1_556
H1 O25 1.013273 1_655
H1 O12 1.694676 1_555
H2 O26 1.013273 1_555
H2 O15 1.694676 1_554
H3 O27 1.013273 1_455
H3 O14 1.694676 1_555
O0 Se0 1.720282 1_545
O0 V0 2.046509 1_555
O1 Se1 1.720282 1_465
O1 V1 2.046509 1_556
O2 Se2 1.720282 1_565
O2 V2 2.046509 1_555
O3 Se3 1.720282 1_645
O3 V3 2.046509 1_554
O4 Se4 1.747879 1_555
O4 V0 2.069624 1_555
O5 Se5 1.747879 1_555
O5 V1 2.069624 1_556
O6 Se6 1.747879 1_555
O6 V2 2.069624 1_555
O7 Se7 1.747879 1_555
O7 V3 2.069624 1_554
O8 Se6 1.745644 1_555
O8 V0 2.007147 1_555
O9 Se7 1.745644 1_455
O9 V1 2.007147 1_555
O10 Se4 1.745644 1_555
O10 V2 2.007147 1_555
O11 Se5 1.745644 1_655
O11 V3 2.007147 1_555
O12 Se7 1.733480 1_555
O12 V0 2.372442 1_555
O13 Se6 1.733480 1_555
O13 V1 2.372442 1_555
O14 Se5 1.733480 1_555
O14 V2 2.372442 1_555
O15 Se4 1.733480 1_555
O15 V3 2.372442 1_555
O16 Se2 1.743002 1_555
O16 V0 2.034941 1_555
O17 Se3 1.743002 1_655
O17 V1 2.034941 1_655
O18 Se0 1.743002 1_555
O18 V2 2.034941 1_555
O19 Se1 1.743002 1_455
O19 V3 2.034941 1_455
O20 V0 1.651090 1_555
O21 V1 1.651090 1_655
O22 V2 1.651090 1_555
O23 V3 1.651090 1_455
O24 Se0 1.780423 1_555
O25 Se1 1.780423 1_455
O26 Se2 1.780423 1_555
O27 Se3 1.780423 1_655
