# generated using pymatgen
data_NbNO
_symmetry_space_group_name_H-M   'P 1'
_cell_length_a   5.03671500
_cell_length_b   5.26313955
_cell_length_c   10.23434804
_cell_angle_alpha   90.23964382
_cell_angle_beta   89.97689548
_cell_angle_gamma   99.87317146
_symmetry_Int_Tables_number   1
_chemical_formula_structural   NbNO
_chemical_formula_sum   'Nb8 N8 O8'
_cell_volume   267.28125194
_cell_formula_units_Z   8
loop_
 _symmetry_equiv_pos_site_id
 _symmetry_equiv_pos_as_xyz
  1  'x, y, z'
loop_
 _atom_site_type_symbol
 _atom_site_label
 _atom_site_symmetry_multiplicity
 _atom_site_fract_x
 _atom_site_fract_y
 _atom_site_fract_z
 _atom_site_occupancy
  Nb  Nb0  1  0.79528600  0.96682600  0.50828300  1
  Nb  Nb1  1  0.20121800  0.03500600  0.75698500  1
  Nb  Nb2  1  0.21082200  0.02618000  0.26353000  1
  Nb  Nb3  1  0.78911600  0.96023500  0.00887200  1
  Nb  Nb4  1  0.21515100  0.54068700  0.95861700  1
  Nb  Nb5  1  0.20154200  0.52694200  0.46059300  1
  Nb  Nb6  1  0.79290600  0.46946400  0.71011500  1
  Nb  Nb7  1  0.78173300  0.47531800  0.20486400  1
  N  N0  1  0.05667200  0.27190400  0.60764100  1
  N  N1  1  0.94348500  0.23259800  0.86676000  1
  N  N2  1  0.94658200  0.22161900  0.36289900  1
  N  N3  1  0.56084700  0.59090000  0.06876000  1
  N  N4  1  0.05857500  0.77211000  0.61117300  1
  N  N5  1  0.06459500  0.77806400  0.11257700  1
  N  N6  1  0.94005800  0.73253900  0.85417500  1
  N  N7  1  0.94162100  0.72522700  0.35666300  1
  O  O0  1  0.56324200  0.09124100  0.64925500  1
  O  O1  1  0.43535600  0.90907700  0.89642900  1
  O  O2  1  0.57048300  0.09244900  0.15024700  1
  O  O3  1  0.43715600  0.90238400  0.39903300  1
  O  O4  1  0.06002300  0.27344800  0.10806600  1
  O  O5  1  0.43464200  0.41086600  0.81606900  1
  O  O6  1  0.43444000  0.40471100  0.31990300  1
  O  O7  1  0.56444700  0.59020600  0.56839000  1
loop_
_geom_bond_atom_site_label_1
_geom_bond_atom_site_label_2
_geom_bond_distance
_geom_bond_site_symmetry_2
Nb0 O0 2.032109 1_565
Nb0 O3 2.099411 1_555
Nb0 O7 2.208761 1_555
Nb1 O1 2.035675 1_545
Nb1 O0 2.108097 1_555
Nb1 O5 2.203217 1_555
Nb2 O3 1.977575 1_545
Nb2 O2 2.128941 1_555
Nb2 O6 2.189045 1_555
Nb2 O4 2.271416 1_555
Nb3 O2 2.010817 1_565
Nb3 O1 2.099071 1_554
Nb3 O4 2.196737 1_665
Nb4 O5 2.016621 1_555
Nb4 O4 2.137368 1_556
Nb4 O1 2.160272 1_555
Nb5 O6 2.028002 1_555
Nb5 O7 2.111601 1_555
Nb5 O3 2.217086 1_555
Nb6 O7 2.022764 1_555
Nb6 O5 2.082659 1_555
Nb6 O0 2.211158 1_555
Nb7 O6 2.088800 1_555
Nb7 O4 2.139092 1_655
Nb7 O2 2.181957 1_555
N0 Nb5 2.068614 1_555
N0 Nb6 2.099873 1_455
N0 Nb0 2.146605 1_445
N0 Nb1 2.179191 1_555
N1 Nb3 2.099776 1_546
N1 Nb1 2.116802 1_655
N1 Nb4 2.147733 1_655
N1 Nb6 2.245312 1_555
N2 Nb0 2.063545 1_545
N2 Nb2 2.079240 1_655
N2 Nb5 2.123904 1_655
N2 Nb7 2.342558 1_555
N3 Nb7 1.946408 1_555
N3 Nb4 2.052678 1_554
N3 Nb3 2.172349 1_555
N4 Nb1 2.073716 1_565
N4 Nb0 2.096156 1_455
N4 Nb6 2.152806 1_455
N4 Nb5 2.204450 1_555
N5 Nb2 2.070913 1_565
N5 Nb3 2.106383 1_455
N5 Nb7 2.166505 1_455
N5 Nb4 2.219489 1_554
N6 Nb6 2.066896 1_555
N6 Nb1 2.132590 1_665
N6 Nb4 2.138206 1_655
N6 Nb3 2.194614 1_556
N7 Nb7 2.100663 1_555
N7 Nb5 2.100779 1_655
N7 Nb2 2.128600 1_665
N7 Nb0 2.207255 1_555
