# generated using pymatgen
data_Li4Ti2Nb3Co3O16
_symmetry_space_group_name_H-M   'P 1'
_cell_length_a   6.02069315
_cell_length_b   6.02069315
_cell_length_c   9.85171273
_cell_angle_alpha   89.56727140
_cell_angle_beta   89.56727140
_cell_angle_gamma   60.80906926
_symmetry_Int_Tables_number   1
_chemical_formula_structural   Li4Ti2Nb3Co3O16
_chemical_formula_sum   'Li4 Ti2 Nb3 Co3 O16'
_cell_volume   311.74677205
_cell_formula_units_Z   1
loop_
 _symmetry_equiv_pos_site_id
 _symmetry_equiv_pos_as_xyz
  1  'x, y, z'
loop_
 _atom_site_type_symbol
 _atom_site_label
 _atom_site_symmetry_multiplicity
 _atom_site_fract_x
 _atom_site_fract_y
 _atom_site_fract_z
 _atom_site_occupancy
  Li  Li0  1  0.66641200  0.66641200  0.90336400  1
  Li  Li1  1  0.00327300  0.00327300  0.99875200  1
  Li  Li2  1  0.02019300  0.02019300  0.48538600  1
  Li  Li3  1  0.33077100  0.33077100  0.39094100  1
  Ti  Ti0  1  0.63697100  0.63697100  0.48459600  1
  Ti  Ti1  1  0.32687000  0.32687000  0.01090800  1
  Nb  Nb0  1  0.82053000  0.82053000  0.22885800  1
  Nb  Nb1  1  0.65169900  0.15811200  0.71567600  1
  Nb  Nb2  1  0.15811200  0.65169900  0.71567600  1
  Co  Co0  1  0.82614100  0.34186200  0.20858600  1
  Co  Co1  1  0.34186200  0.82614100  0.20858600  1
  Co  Co2  1  0.18767600  0.18767600  0.71140800  1
  O  O0  1  0.81973700  0.33887100  0.59306500  1
  O  O1  1  0.51764300  0.51764300  0.35009400  1
  O  O2  1  0.67485900  0.67485900  0.09965900  1
  O  O3  1  0.99711900  0.99711900  0.30023300  1
  O  O4  1  0.99830500  0.99830500  0.80717200  1
  O  O5  1  0.33887100  0.81973700  0.59306500  1
  O  O6  1  0.96331800  0.52887300  0.35087100  1
  O  O7  1  0.52887300  0.96331800  0.35087100  1
  O  O8  1  0.17021900  0.17021900  0.09290800  1
  O  O9  1  0.83545600  0.83545600  0.60070800  1
  O  O10  1  0.49747700  0.03771200  0.85000000  1
  O  O11  1  0.03771200  0.49747700  0.85000000  1
  O  O12  1  0.34892400  0.34892400  0.58950900  1
  O  O13  1  0.65154500  0.16342300  0.09422300  1
  O  O14  1  0.48463400  0.48463400  0.82856200  1
  O  O15  1  0.16342300  0.65154500  0.09422300  1
loop_
_geom_bond_atom_site_label_1
_geom_bond_atom_site_label_2
_geom_bond_distance
_geom_bond_site_symmetry_2
Li0 O2 1.936598 1_556
Li0 O10 2.020078 1_565
Li0 O11 2.020078 1_655
Li0 O14 2.032570 1_555
Li1 O4 1.888548 1_445
Li1 O8 1.973489 1_556
Li1 O13 2.071392 1_456
Li1 O15 2.071392 1_546
Li2 O3 1.841827 1_445
Li2 O0 2.003958 1_455
Li2 O5 2.003958 1_545
Li2 O9 2.221144 1_445
Li3 O12 1.966941 1_555
Li3 O6 1.976102 1_455
Li3 O7 1.976102 1_545
Li3 O1 1.978564 1_555
Nb0 O7 1.943867 1_555
Nb0 O6 1.943867 1_555
Nb0 O3 1.969867 1_555
Nb0 O2 1.985582 1_555
Nb0 O15 2.233069 1_655
Nb0 O13 2.233069 1_565
Nb1 O10 1.939666 1_555
Nb1 O4 2.037107 1_545
Nb1 O12 2.039030 1_555
Nb1 O9 2.049020 1_545
Nb1 O14 2.049527 1_555
Nb1 O0 2.168572 1_555
Nb2 O11 1.939666 1_555
Nb2 O4 2.037107 1_455
Nb2 O12 2.039030 1_555
Nb2 O9 2.049020 1_455
Nb2 O14 2.049527 1_555
Nb2 O5 2.168572 1_555
Co0 O3 2.021021 1_545
Co0 O2 2.049810 1_555
Co0 O8 2.133556 1_655
Co0 O1 2.139890 1_555
Co0 O13 2.160168 1_555
Co0 O6 2.205255 1_555
Co1 O3 2.021021 1_455
Co1 O2 2.049810 1_555
Co1 O8 2.133556 1_565
Co1 O1 2.139890 1_555
Co1 O15 2.160168 1_555
Co1 O7 2.205255 1_555
Co2 O12 2.052153 1_555
Co2 O10 2.129693 1_555
Co2 O11 2.129693 1_555
Co2 O4 2.173810 1_445
Co2 O0 2.269628 1_455
Co2 O5 2.269628 1_545
O0 Ti0 1.906911 1_555
O1 Ti0 1.822187 1_555
O5 Ti0 1.906911 1_555
O6 Ti0 2.178586 1_555
O7 Ti0 2.178586 1_555
O8 Ti1 1.810063 1_555
O9 Ti0 2.366208 1_555
O10 Ti1 2.207173 1_556
O11 Ti1 2.207173 1_556
O13 Ti1 1.897067 1_555
O14 Ti1 2.420756 1_556
O15 Ti1 1.897067 1_555
