# generated using pymatgen
data_Li3Fe4SbO8
_symmetry_space_group_name_H-M   'P 1'
_cell_length_a   6.07940303
_cell_length_b   6.07940303
_cell_length_c   6.28245700
_cell_angle_alpha   59.88876491
_cell_angle_beta   59.88876491
_cell_angle_gamma   62.39312540
_symmetry_Int_Tables_number   1
_chemical_formula_structural   Li3Fe4SbO8
_chemical_formula_sum   'Li3 Fe4 Sb1 O8'
_cell_volume   166.65545206
_cell_formula_units_Z   1
loop_
 _symmetry_equiv_pos_site_id
 _symmetry_equiv_pos_as_xyz
  1  'x, y, z'
loop_
 _atom_site_type_symbol
 _atom_site_label
 _atom_site_symmetry_multiplicity
 _atom_site_fract_x
 _atom_site_fract_y
 _atom_site_fract_z
 _atom_site_occupancy
  Li  Li0  1  0.00000000  0.50000000  0.00000000  1
  Li  Li1  1  0.50000000  0.00000000  0.00000000  1
  Li  Li2  1  0.00000000  0.00000000  0.50000000  1
  Fe  Fe0  1  0.00000000  0.00000000  0.00000000  1
  Fe  Fe1  1  0.50000000  0.00000000  0.50000000  1
  Fe  Fe2  1  0.00000000  0.50000000  0.50000000  1
  Fe  Fe3  1  0.50000000  0.50000000  0.50000000  1
  Sb  Sb0  1  0.50000000  0.50000000  0.00000000  1
  O  O0  1  0.73917400  0.73917400  0.75412400  1
  O  O1  1  0.27750200  0.73531800  0.22375700  1
  O  O2  1  0.73531800  0.27750200  0.22375700  1
  O  O3  1  0.26082600  0.26082600  0.24587600  1
  O  O4  1  0.24921000  0.24921000  0.72872900  1
  O  O5  1  0.72249800  0.26468200  0.77624300  1
  O  O6  1  0.26468200  0.72249800  0.77624300  1
  O  O7  1  0.75079000  0.75079000  0.27127100  1
loop_
_geom_bond_atom_site_label_1
_geom_bond_atom_site_label_2
_geom_bond_distance
_geom_bond_site_symmetry_2
Li0 O2 2.057864 1_455
Li0 O6 2.057864 1_554
Li0 O3 2.254292 1_555
Li0 O0 2.254292 1_454
Li0 O7 2.323785 1_455
Li0 O4 2.323785 1_554
Li1 O5 2.057864 1_554
Li1 O1 2.057864 1_545
Li1 O0 2.254292 1_544
Li1 O3 2.254292 1_555
Li1 O7 2.323785 1_545
Li1 O4 2.323785 1_554
Li2 O3 2.197212 1_555
Li2 O0 2.197212 1_445
Li2 O2 2.407407 1_455
Li2 O6 2.407407 1_545
Li2 O1 2.407407 1_545
Li2 O5 2.407407 1_455
Fe0 O4 2.107409 1_554
Fe0 O7 2.107409 1_445
Fe0 O5 2.237288 1_454
Fe0 O2 2.237288 1_455
Fe0 O6 2.237288 1_544
Fe0 O1 2.237288 1_545
Fe1 O4 2.128416 1_555
Fe1 O7 2.128416 1_545
Fe1 O6 2.170864 1_545
Fe1 O2 2.170864 1_555
Fe1 O3 2.197664 1_555
Fe1 O0 2.197664 1_545
Fe2 O4 2.128416 1_555
Fe2 O7 2.128416 1_455
Fe2 O5 2.170864 1_455
Fe2 O1 2.170864 1_555
Fe2 O3 2.197664 1_555
Fe2 O0 2.197664 1_455
Fe3 O7 2.114698 1_555
Fe3 O4 2.114698 1_555
Fe3 O1 2.226883 1_555
Fe3 O6 2.226883 1_555
Fe3 O5 2.226883 1_555
Fe3 O2 2.226883 1_555
O0 Sb0 2.016633 1_556
O1 Sb0 2.041778 1_555
O2 Sb0 2.041778 1_555
O3 Sb0 2.016633 1_555
O5 Sb0 2.041778 1_556
O6 Sb0 2.041778 1_556
