# generated using pymatgen
data_Li4Fe3Co2Sb3O16
_symmetry_space_group_name_H-M   'P 1'
_cell_length_a   5.99185676
_cell_length_b   5.99185676
_cell_length_c   9.82326218
_cell_angle_alpha   89.91025578
_cell_angle_beta   89.91025578
_cell_angle_gamma   60.68903709
_symmetry_Int_Tables_number   1
_chemical_formula_structural   Li4Fe3Co2Sb3O16
_chemical_formula_sum   'Li4 Fe3 Co2 Sb3 O16'
_cell_volume   307.52625989
_cell_formula_units_Z   1
loop_
 _symmetry_equiv_pos_site_id
 _symmetry_equiv_pos_as_xyz
  1  'x, y, z'
loop_
 _atom_site_type_symbol
 _atom_site_label
 _atom_site_symmetry_multiplicity
 _atom_site_fract_x
 _atom_site_fract_y
 _atom_site_fract_z
 _atom_site_occupancy
  Li  Li0  1  0.66659700  0.66659700  0.87472100  1
  Li  Li1  1  0.98548100  0.98548100  0.98939400  1
  Li  Li2  1  0.99007400  0.99007400  0.50636100  1
  Li  Li3  1  0.33124300  0.33124300  0.40136800  1
  Fe  Fe0  1  0.83304800  0.83304800  0.21539700  1
  Fe  Fe1  1  0.66261800  0.17245200  0.71529100  1
  Fe  Fe2  1  0.17245200  0.66261800  0.71529100  1
  Co  Co0  1  0.67479800  0.67479800  0.51901700  1
  Co  Co1  1  0.34321300  0.34321300  0.97566700  1
  Sb  Sb0  1  0.83217300  0.33934200  0.21569600  1
  Sb  Sb1  1  0.33934200  0.83217300  0.21569600  1
  Sb  Sb2  1  0.17149600  0.17149600  0.71513000  1
  O  O0  1  0.84351800  0.31475000  0.60136700  1
  O  O1  1  0.51274800  0.51274800  0.33207700  1
  O  O2  1  0.66855800  0.66855800  0.10201900  1
  O  O3  1  0.99933900  0.99933900  0.31950900  1
  O  O4  1  0.00142600  0.00142600  0.81169300  1
  O  O5  1  0.31475000  0.84351800  0.60136700  1
  O  O6  1  0.96824100  0.52102900  0.32586200  1
  O  O7  1  0.52102900  0.96824100  0.32586200  1
  O  O8  1  0.15752400  0.15752400  0.10009600  1
  O  O9  1  0.84275100  0.84275100  0.61297000  1
  O  O10  1  0.48662100  0.03590700  0.83347300  1
  O  O11  1  0.03590700  0.48662100  0.83347300  1
  O  O12  1  0.33607700  0.33607700  0.60615100  1
  O  O13  1  0.68845800  0.15544500  0.10849000  1
  O  O14  1  0.48306600  0.48306600  0.82600400  1
  O  O15  1  0.15544500  0.68845800  0.10849000  1
loop_
_geom_bond_atom_site_label_1
_geom_bond_atom_site_label_2
_geom_bond_distance
_geom_bond_site_symmetry_2
Li0 O14 1.958317 1_555
Li0 O10 1.971279 1_565
Li0 O11 1.971279 1_655
Li0 O2 2.232937 1_556
Li1 O4 1.753077 1_665
Li1 O15 1.948296 1_656
Li1 O13 1.948296 1_566
Li1 O8 2.086952 1_666
Li2 O3 1.837822 1_555
Li2 O9 1.847249 1_555
Li2 O5 1.938358 1_655
Li2 O0 1.938358 1_565
Li3 O1 1.995558 1_555
Li3 O12 2.012349 1_555
Li3 O6 2.038349 1_455
Li3 O7 2.038349 1_545
Fe0 O7 1.960252 1_555
Fe0 O6 1.960252 1_555
Fe0 O13 1.985701 1_565
Fe0 O15 1.985701 1_655
Fe0 O3 2.002493 1_555
Fe0 O2 2.034999 1_555
Fe1 O14 1.961210 1_555
Fe1 O10 1.991774 1_555
Fe1 O9 1.998266 1_545
Fe1 O4 2.008552 1_655
Fe1 O0 2.013046 1_555
Fe1 O12 2.015930 1_555
Fe2 O14 1.961210 1_555
Fe2 O11 1.991774 1_555
Fe2 O9 1.998266 1_455
Fe2 O4 2.008552 1_565
Fe2 O5 2.013046 1_555
Fe2 O12 2.015930 1_555
Co0 O9 1.968417 1_555
Co0 O0 2.047511 1_555
Co0 O5 2.047511 1_555
Co0 O7 2.439154 1_555
Co0 O6 2.439154 1_555
Co0 O1 2.488392 1_555
Co1 O14 2.060499 1_555
Co1 O10 2.129576 1_555
Co1 O11 2.129576 1_555
Co1 O13 2.229941 1_556
Co1 O15 2.229941 1_556
Co1 O8 2.274511 1_556
O0 Sb2 2.049372 1_655
O1 Sb0 2.024738 1_555
O1 Sb1 2.024738 1_555
O2 Sb0 2.049967 1_555
O2 Sb1 2.049967 1_555
O3 Sb1 2.047529 1_655
O3 Sb0 2.047529 1_565
O4 Sb2 1.996825 1_555
O5 Sb2 2.049372 1_565
O6 Sb0 1.973946 1_555
O7 Sb1 1.973946 1_555
O8 Sb0 2.047996 1_455
O8 Sb1 2.047996 1_545
O10 Sb2 2.019575 1_555
O11 Sb2 2.019575 1_555
O12 Sb2 2.009115 1_555
O13 Sb0 2.000055 1_555
O15 Sb1 2.000055 1_555
