# generated using pymatgen
data_Fe6H12Pb(SO7)4
_symmetry_space_group_name_H-M   'P 1'
_cell_length_a   12.33334244
_cell_length_b   12.33334244
_cell_length_c   12.33334236
_cell_angle_alpha   34.82015460
_cell_angle_beta   34.82015460
_cell_angle_gamma   34.82015081
_symmetry_Int_Tables_number   1
_chemical_formula_structural   Fe6H12Pb(SO7)4
_chemical_formula_sum   'Fe6 H12 Pb1 S4 O28'
_cell_volume   545.98217640
_cell_formula_units_Z   1
loop_
 _symmetry_equiv_pos_site_id
 _symmetry_equiv_pos_as_xyz
  1  'x, y, z'
loop_
 _atom_site_type_symbol
 _atom_site_label
 _atom_site_symmetry_multiplicity
 _atom_site_fract_x
 _atom_site_fract_y
 _atom_site_fract_z
 _atom_site_occupancy
  Fe  Fe0  1  0.24668200  0.75247800  0.75247800  1
  Fe  Fe1  1  0.75247800  0.75247800  0.24668200  1
  Fe  Fe2  1  0.75247800  0.24668200  0.75247800  1
  Fe  Fe3  1  0.24752200  0.75331800  0.24752200  1
  Fe  Fe4  1  0.24752200  0.24752200  0.75331800  1
  Fe  Fe5  1  0.75331800  0.24752200  0.24752200  1
  H  H0  1  0.35779600  0.35779600  0.95527400  1
  H  H1  1  0.95527400  0.35779600  0.35779600  1
  H  H2  1  0.35779600  0.95527400  0.35779600  1
  H  H3  1  0.13698700  0.57741100  0.13698700  1
  H  H4  1  0.13698700  0.13698700  0.57741100  1
  H  H5  1  0.57741100  0.13698700  0.13698700  1
  H  H6  1  0.42258900  0.86301300  0.86301300  1
  H  H7  1  0.86301300  0.86301300  0.42258900  1
  H  H8  1  0.86301300  0.42258900  0.86301300  1
  H  H9  1  0.64220400  0.04472600  0.64220400  1
  H  H10  1  0.04472600  0.64220400  0.64220400  1
  H  H11  1  0.64220400  0.64220400  0.04472600  1
  Pb  Pb0  1  0.50000000  0.50000000  0.50000000  1
  S  S0  1  0.34747200  0.34747200  0.34747200  1
  S  S1  1  0.84471600  0.84471600  0.84471600  1
  S  S2  1  0.15528400  0.15528400  0.15528400  1
  S  S3  1  0.65252800  0.65252800  0.65252800  1
  O  O0  1  0.30511000  0.30511000  0.30511000  1
  O  O1  1  0.92003700  0.25075500  0.25075500  1
  O  O2  1  0.25075500  0.25075500  0.92003700  1
  O  O3  1  0.25075500  0.92003700  0.25075500  1
  O  O4  1  0.43989000  0.43989000  0.81347200  1
  O  O5  1  0.81347200  0.43989000  0.43989000  1
  O  O6  1  0.43989000  0.81347200  0.43989000  1
  O  O7  1  0.80223300  0.80223300  0.80223300  1
  O  O8  1  0.06290200  0.66462400  0.06290200  1
  O  O9  1  0.66462400  0.06290200  0.06290200  1
  O  O10  1  0.06290200  0.06290200  0.66462400  1
  O  O11  1  0.41733200  0.74862000  0.74862000  1
  O  O12  1  0.74862000  0.74862000  0.41733200  1
  O  O13  1  0.25138000  0.58266800  0.25138000  1
  O  O14  1  0.74862000  0.41733200  0.74862000  1
  O  O15  1  0.25138000  0.25138000  0.58266800  1
  O  O16  1  0.58266800  0.25138000  0.25138000  1
  O  O17  1  0.93709800  0.93709800  0.33537600  1
  O  O18  1  0.33537600  0.93709800  0.93709800  1
  O  O19  1  0.93709800  0.33537600  0.93709800  1
  O  O20  1  0.19776700  0.19776700  0.19776700  1
  O  O21  1  0.56011000  0.18652800  0.56011000  1
  O  O22  1  0.18652800  0.56011000  0.56011000  1
  O  O23  1  0.56011000  0.56011000  0.18652800  1
  O  O24  1  0.74924500  0.07996300  0.74924500  1
  O  O25  1  0.74924500  0.74924500  0.07996300  1
  O  O26  1  0.07996300  0.74924500  0.74924500  1
  O  O27  1  0.69489000  0.69489000  0.69489000  1
loop_
_geom_bond_atom_site_label_1
_geom_bond_atom_site_label_2
_geom_bond_distance
_geom_bond_site_symmetry_2
Fe0 O10 1.985579 1_565
Fe0 O8 1.985579 1_556
Fe0 O11 2.027088 1_555
Fe0 O4 2.050598 1_555
Fe0 O6 2.050598 1_555
Fe0 O26 2.122025 1_555
Fe1 O8 1.985579 1_655
Fe1 O9 1.985579 1_565
Fe1 O12 2.027088 1_555
Fe1 O5 2.050598 1_555
Fe1 O6 2.050598 1_555
Fe1 O25 2.122025 1_555
Fe2 O10 1.985579 1_655
Fe2 O9 1.985579 1_556
Fe2 O14 2.027088 1_555
Fe2 O4 2.050598 1_555
Fe2 O5 2.050598 1_555
Fe2 O24 2.122025 1_555
Fe3 O17 1.985579 1_455
Fe3 O18 1.985579 1_554
Fe3 O13 2.027088 1_555
Fe3 O23 2.050598 1_555
Fe3 O22 2.050598 1_555
Fe3 O3 2.122025 1_555
Fe4 O18 1.985579 1_545
Fe4 O19 1.985579 1_455
Fe4 O15 2.027088 1_555
Fe4 O22 2.050598 1_555
Fe4 O21 2.050598 1_555
Fe4 O2 2.122025 1_555
Fe5 O17 1.985579 1_545
Fe5 O19 1.985579 1_554
Fe5 O16 2.027088 1_555
Fe5 O23 2.050598 1_555
Fe5 O21 2.050598 1_555
Fe5 O1 2.122025 1_555
H0 O4 0.988604 1_555
H1 O5 0.988604 1_555
H2 O6 0.988604 1_555
H3 O8 0.984955 1_555
H4 O10 0.984955 1_555
H5 O9 0.984955 1_555
H6 O18 0.984955 1_555
H7 O17 0.984955 1_555
H8 O19 0.984955 1_555
H9 O21 0.988604 1_555
H10 O22 0.988604 1_555
H11 O23 0.988604 1_555
O0 S0 1.470875 1_555
O1 S2 1.499625 1_655
O2 S2 1.499625 1_556
O3 S2 1.499625 1_565
O4 Pb0 2.745319 1_555
O5 Pb0 2.745319 1_555
O6 Pb0 2.745319 1_555
O7 S1 1.475076 1_555
O11 S3 1.496864 1_555
O12 S3 1.496864 1_555
O13 S0 1.496864 1_555
O14 S3 1.496864 1_555
O15 S0 1.496864 1_555
O16 S0 1.496864 1_555
O20 S2 1.475076 1_555
O21 Pb0 2.745319 1_555
O22 Pb0 2.745319 1_555
O23 Pb0 2.745319 1_555
O24 S1 1.499625 1_545
O25 S1 1.499625 1_554
O26 S1 1.499625 1_455
O27 S3 1.470875 1_555
