# generated using pymatgen
data_NaGe4(PbO4)3
_symmetry_space_group_name_H-M   'P 1'
_cell_length_a   7.55713400
_cell_length_b   10.42843400
_cell_length_c   15.70893800
_cell_angle_alpha   90.00000000
_cell_angle_beta   90.00000000
_cell_angle_gamma   90.00000000
_symmetry_Int_Tables_number   1
_chemical_formula_structural   NaGe4(PbO4)3
_chemical_formula_sum   'Na4 Ge16 Pb12 O48'
_cell_volume   1238.00684392
_cell_formula_units_Z   4
loop_
 _symmetry_equiv_pos_site_id
 _symmetry_equiv_pos_as_xyz
  1  'x, y, z'
loop_
 _atom_site_type_symbol
 _atom_site_label
 _atom_site_symmetry_multiplicity
 _atom_site_fract_x
 _atom_site_fract_y
 _atom_site_fract_z
 _atom_site_occupancy
  Na  Na0  1  0.50000000  0.00000000  0.50000000  1
  Na  Na1  1  0.00000000  0.50000000  0.00000000  1
  Na  Na2  1  0.50000000  0.50000000  0.00000000  1
  Na  Na3  1  0.00000000  0.00000000  0.50000000  1
  Ge  Ge0  1  0.79583100  0.29401100  0.12282500  1
  Ge  Ge1  1  0.20416900  0.29401100  0.87717500  1
  Ge  Ge2  1  0.29583100  0.20598900  0.37717500  1
  Ge  Ge3  1  0.70416900  0.20598900  0.62282500  1
  Ge  Ge4  1  0.20416900  0.70598900  0.87717500  1
  Ge  Ge5  1  0.79583100  0.70598900  0.12282500  1
  Ge  Ge6  1  0.70416900  0.79401100  0.62282500  1
  Ge  Ge7  1  0.29583100  0.79401100  0.37717500  1
  Ge  Ge8  1  0.87199900  0.00000000  0.07251600  1
  Ge  Ge9  1  0.12800100  0.00000000  0.92748400  1
  Ge  Ge10  1  0.37199900  0.50000000  0.42748400  1
  Ge  Ge11  1  0.62800100  0.50000000  0.57251600  1
  Ge  Ge12  1  0.55301600  0.50000000  0.23562900  1
  Ge  Ge13  1  0.44698400  0.50000000  0.76437100  1
  Ge  Ge14  1  0.05301600  0.00000000  0.26437100  1
  Ge  Ge15  1  0.94698400  0.00000000  0.73562900  1
  Pb  Pb0  1  0.75382400  0.29329100  0.41001100  1
  Pb  Pb1  1  0.24617600  0.29329100  0.58998900  1
  Pb  Pb2  1  0.25382400  0.20670900  0.08998900  1
  Pb  Pb3  1  0.74617600  0.20670900  0.91001100  1
  Pb  Pb4  1  0.24617600  0.70670900  0.58998900  1
  Pb  Pb5  1  0.75382400  0.70670900  0.41001100  1
  Pb  Pb6  1  0.74617600  0.79329100  0.91001100  1
  Pb  Pb7  1  0.25382400  0.79329100  0.08998900  1
  Pb  Pb8  1  0.58570700  0.00000000  0.25699500  1
  Pb  Pb9  1  0.41429300  0.00000000  0.74300500  1
  Pb  Pb10  1  0.08570700  0.50000000  0.24300500  1
  Pb  Pb11  1  0.91429300  0.50000000  0.75699500  1
  O  O0  1  0.57242500  0.50000000  0.34924500  1
  O  O1  1  0.42757500  0.50000000  0.65075500  1
  O  O2  1  0.07242400  0.00000000  0.15075500  1
  O  O3  1  0.92757500  0.00000000  0.84924500  1
  O  O4  1  0.69072500  0.00000000  0.98957000  1
  O  O5  1  0.30927500  0.00000000  0.01043000  1
  O  O6  1  0.19072500  0.50000000  0.51043000  1
  O  O7  1  0.80927500  0.50000000  0.48957000  1
  O  O8  1  0.76495000  0.12750800  0.14047300  1
  O  O9  1  0.23505000  0.12750800  0.85952700  1
  O  O10  1  0.26495000  0.37249200  0.35952700  1
  O  O11  1  0.73505000  0.37249200  0.64047300  1
  O  O12  1  0.23505000  0.87249200  0.85952700  1
  O  O13  1  0.76495000  0.87249200  0.14047300  1
  O  O14  1  0.73505000  0.62750800  0.64047300  1
  O  O15  1  0.26495000  0.62750800  0.35952700  1
  O  O16  1  0.50000000  0.37678400  0.50000000  1
  O  O17  1  0.00000000  0.12321600  0.00000000  1
  O  O18  1  0.50000000  0.62321600  0.50000000  1
  O  O19  1  0.00000000  0.87678400  0.00000000  1
  O  O20  1  0.68022600  0.35914200  0.21272300  1
  O  O21  1  0.31977400  0.35914200  0.78727700  1
  O  O22  1  0.18022600  0.14085800  0.28727700  1
  O  O23  1  0.81977400  0.14085800  0.71272300  1
  O  O24  1  0.31977400  0.64085800  0.78727700  1
  O  O25  1  0.68022600  0.64085800  0.21272300  1
  O  O26  1  0.81977400  0.85914200  0.71272300  1
  O  O27  1  0.18022600  0.85914200  0.28727700  1
  O  O28  1  0.85584000  0.00000000  0.32110000  1
  O  O29  1  0.14416000  0.00000000  0.67890000  1
  O  O30  1  0.35584000  0.50000000  0.17890000  1
  O  O31  1  0.64416000  0.50000000  0.82110000  1
  O  O32  1  0.51936900  0.15512400  0.36810600  1
  O  O33  1  0.48063100  0.15512400  0.63189400  1
  O  O34  1  0.01936900  0.34487600  0.13189400  1
  O  O35  1  0.98063100  0.34487600  0.86810600  1
  O  O36  1  0.48063100  0.84487600  0.63189400  1
  O  O37  1  0.51936900  0.84487600  0.36810600  1
  O  O38  1  0.98063100  0.65512400  0.86810600  1
  O  O39  1  0.01936900  0.65512400  0.13189400  1
  O  O40  1  0.71341800  0.34467300  0.02489400  1
  O  O41  1  0.28658200  0.34467300  0.97510600  1
  O  O42  1  0.21341800  0.15532700  0.47510600  1
  O  O43  1  0.78658200  0.15532700  0.52489400  1
  O  O44  1  0.28658200  0.65532700  0.97510600  1
  O  O45  1  0.71341800  0.65532700  0.02489400  1
  O  O46  1  0.78658200  0.84467300  0.52489400  1
  O  O47  1  0.21341800  0.84467300  0.47510600  1
loop_
_geom_bond_atom_site_label_1
_geom_bond_atom_site_label_2
_geom_bond_distance
_geom_bond_site_symmetry_2
Na0 O33 2.632719 1_555
Na0 O32 2.632719 1_555
Na0 O36 2.632719 1_545
Na0 O37 2.632719 1_545
Na0 O42 2.732610 1_555
Na0 O46 2.732610 1_545
Na0 O47 2.732610 1_545
Na0 O43 2.732610 1_555
Na1 O39 2.632719 1_555
Na1 O34 2.632719 1_555
Na1 O38 2.632719 1_454
Na1 O35 2.632719 1_454
Na1 O40 2.732610 1_455
Na1 O45 2.732610 1_455
Na1 O41 2.732610 1_554
Na1 O44 2.732610 1_554
Na2 O45 2.319041 1_555
Na2 O40 2.319041 1_555
Na2 O44 2.319041 1_554
Na2 O41 2.319041 1_554
Na3 O47 2.319041 1_545
Na3 O46 2.319041 1_445
Na3 O42 2.319041 1_555
Na3 O43 2.319041 1_455
Ge0 O40 1.741742 1_555
Ge0 O8 1.773777 1_555
Ge0 O34 1.776351 1_655
Ge0 O20 1.794129 1_555
Ge1 O41 1.741742 1_555
Ge1 O9 1.773777 1_555
Ge1 O35 1.776351 1_455
Ge1 O21 1.794129 1_555
Ge2 O42 1.741742 1_555
Ge2 O10 1.773777 1_555
Ge2 O32 1.776351 1_555
Ge2 O22 1.794129 1_555
Ge3 O43 1.741742 1_555
Ge3 O11 1.773777 1_555
Ge3 O33 1.776351 1_555
Ge3 O23 1.794129 1_555
Ge4 O44 1.741742 1_555
Ge4 O12 1.773777 1_555
Ge4 O38 1.776351 1_455
Ge4 O24 1.794129 1_555
Ge5 O45 1.741742 1_555
Ge5 O13 1.773777 1_555
Ge5 O39 1.776351 1_655
Ge5 O25 1.794129 1_555
Ge6 O46 1.741742 1_555
Ge6 O14 1.773777 1_555
Ge6 O36 1.776351 1_555
Ge6 O26 1.794129 1_555
Ge7 O47 1.741742 1_555
Ge7 O15 1.773777 1_555
Ge7 O37 1.776351 1_555
Ge7 O27 1.794129 1_555
Ge8 O8 1.887380 1_555
Ge8 O13 1.887380 1_545
Ge8 O4 1.890622 1_554
Ge8 O2 1.950563 1_655
Ge8 O17 1.970905 1_655
Ge8 O19 1.970905 1_645
Ge9 O9 1.887380 1_555
Ge9 O12 1.887380 1_545
Ge9 O5 1.890622 1_556
Ge9 O3 1.950569 1_455
Ge9 O17 1.970905 1_556
Ge9 O19 1.970905 1_546
Ge10 O15 1.887380 1_555
Ge10 O10 1.887380 1_555
Ge10 O6 1.890622 1_555
Ge10 O0 1.950569 1_555
Ge10 O18 1.970905 1_555
Ge10 O16 1.970905 1_555
Ge11 O14 1.887380 1_555
Ge11 O11 1.887380 1_555
Ge11 O7 1.890622 1_555
Ge11 O1 1.950569 1_555
Ge11 O16 1.970905 1_555
Ge11 O18 1.970905 1_555
Ge12 O30 1.736234 1_555
Ge12 O0 1.790804 1_555
Ge12 O25 1.792040 1_555
Ge12 O20 1.792040 1_555
Ge13 O31 1.736234 1_555
Ge13 O1 1.790804 1_555
Ge13 O24 1.792040 1_555
Ge13 O21 1.792040 1_555
Ge14 O28 1.736234 1_455
Ge14 O2 1.790803 1_555
Ge14 O22 1.792040 1_555
Ge14 O27 1.792040 1_545
Ge15 O29 1.736234 1_655
Ge15 O3 1.790804 1_555
Ge15 O23 1.792040 1_555
Ge15 O26 1.792040 1_545
O0 Pb5 2.727138 1_555
O0 Pb0 2.727138 1_555
O1 Pb4 2.727138 1_555
O1 Pb1 2.727138 1_555
O2 Pb2 2.727142 1_555
O2 Pb7 2.727142 1_545
O3 Pb6 2.727138 1_545
O3 Pb3 2.727138 1_555
O4 Pb3 2.526738 1_555
O4 Pb6 2.526738 1_545
O5 Pb2 2.526738 1_555
O5 Pb7 2.526738 1_545
O6 Pb4 2.526738 1_555
O6 Pb1 2.526738 1_555
O7 Pb5 2.526738 1_555
O7 Pb0 2.526738 1_555
O8 Pb8 2.636943 1_555
O9 Pb9 2.636943 1_555
O10 Pb10 2.636943 1_555
O11 Pb11 2.636943 1_555
O12 Pb9 2.636943 1_565
O13 Pb8 2.636943 1_565
O14 Pb11 2.636943 1_555
O15 Pb10 2.636943 1_555
O16 Pb0 2.536907 1_555
O16 Pb1 2.536907 1_555
O17 Pb2 2.536907 1_555
O17 Pb3 2.536907 1_454
O18 Pb5 2.536907 1_555
O18 Pb4 2.536907 1_555
O19 Pb7 2.536907 1_555
O19 Pb6 2.536907 1_454
O28 Pb8 2.276298 1_555
O29 Pb9 2.276298 1_555
O30 Pb10 2.276298 1_555
O31 Pb11 2.276298 1_555
O32 Pb0 2.376706 1_555
O32 Pb8 2.432042 1_555
O33 Pb1 2.376706 1_555
O33 Pb9 2.432042 1_555
O34 Pb2 2.376706 1_555
O34 Pb10 2.432042 1_555
O35 Pb3 2.376706 1_555
O35 Pb11 2.432042 1_555
O36 Pb4 2.376706 1_555
O36 Pb9 2.432042 1_565
O37 Pb5 2.376706 1_555
O37 Pb8 2.432042 1_565
O38 Pb6 2.376706 1_555
O38 Pb11 2.432042 1_555
O39 Pb7 2.376706 1_555
O39 Pb10 2.432042 1_555
O40 Pb3 2.321247 1_554
O41 Pb2 2.321247 1_556
O42 Pb1 2.321247 1_555
O43 Pb0 2.321247 1_555
O44 Pb7 2.321247 1_556
O45 Pb6 2.321247 1_554
O46 Pb5 2.321247 1_555
O47 Pb4 2.321247 1_555
