# generated using pymatgen
data_Cs6Co2O7
_symmetry_space_group_name_H-M   'P 1'
_cell_length_a   9.82555627
_cell_length_b   7.25438748
_cell_length_c   12.13057928
_cell_angle_alpha   54.37015417
_cell_angle_beta   90.00000000
_cell_angle_gamma   90.00000000
_symmetry_Int_Tables_number   1
_chemical_formula_structural   Cs6Co2O7
_chemical_formula_sum   'Cs12 Co4 O14'
_cell_volume   702.78381632
_cell_formula_units_Z   2
loop_
 _symmetry_equiv_pos_site_id
 _symmetry_equiv_pos_as_xyz
  1  'x, y, z'
loop_
 _atom_site_type_symbol
 _atom_site_label
 _atom_site_symmetry_multiplicity
 _atom_site_fract_x
 _atom_site_fract_y
 _atom_site_fract_z
 _atom_site_occupancy
  Cs  Cs0  1  0.29046867  0.91274506  0.71584934  1
  Cs  Cs1  1  0.85489227  0.44808215  0.91870230  1
  Cs  Cs2  1  0.97301764  0.69719840  0.55563492  1
  Cs  Cs3  1  0.47301764  0.30280160  0.94436508  1
  Cs  Cs4  1  0.20953133  0.91274506  0.21584934  1
  Cs  Cs5  1  0.35489227  0.55191785  0.58129770  1
  Cs  Cs6  1  0.64510773  0.44808215  0.41870230  1
  Cs  Cs7  1  0.79046867  0.08725494  0.78415066  1
  Cs  Cs8  1  0.52698236  0.69719840  0.05563492  1
  Cs  Cs9  1  0.02698236  0.30280160  0.44436508  1
  Cs  Cs10  1  0.14510773  0.55191785  0.08129770  1
  Cs  Cs11  1  0.70953133  0.08725494  0.28415066  1
  Co  Co0  1  0.63516135  0.82500485  0.62953068  1
  Co  Co1  1  0.13516135  0.17499515  0.87046932  1
  Co  Co2  1  0.86483865  0.82500485  0.12953068  1
  Co  Co3  1  0.36483865  0.17499515  0.37046932  1
  O  O0  1  0.28617050  0.00509422  0.92907104  1
  O  O1  1  0.58700269  0.76593061  0.78910221  1
  O  O2  1  0.50000000  0.00000000  0.50000000  1
  O  O3  1  0.21382950  0.00509422  0.42907104  1
  O  O4  1  0.16069123  0.43240200  0.85710215  1
  O  O5  1  0.66069123  0.56759800  0.64289785  1
  O  O6  1  0.91299731  0.76593061  0.28910221  1
  O  O7  1  -0.00000000  0.00000000  -0.00000000  1
  O  O8  1  0.08700269  0.23406939  0.71089779  1
  O  O9  1  0.33930877  0.43240200  0.35710215  1
  O  O10  1  0.83930877  0.56759800  0.14289785  1
  O  O11  1  0.78617050  0.99490578  0.57092896  1
  O  O12  1  0.41299731  0.23406939  0.21089779  1
  O  O13  1  0.71382950  0.99490578  0.07092896  1
loop_
_geom_bond_atom_site_label_1
_geom_bond_atom_site_label_2
_geom_bond_distance
_geom_bond_site_symmetry_2
Cs0 O0 3.026460 1_565
Cs0 O8 3.044792 1_565
Cs0 O1 3.051299 1_555
Cs0 O2 3.092582 1_565
Cs0 O4 3.122158 1_555
Cs0 O3 3.225289 1_565
Cs1 O13 3.010945 1_546
Cs1 O4 3.114199 1_655
Cs1 O7 3.136339 1_656
Cs1 O1 3.239305 1_555
Cs1 O10 3.304351 1_556
Cs1 O5 3.493787 1_555
Cs2 O11 2.921631 1_555
Cs2 O8 2.952434 1_655
Cs2 O3 2.991519 1_665
Cs2 O6 3.028482 1_555
Cs2 O5 3.203489 1_555
Cs2 O4 3.504171 1_655
Cs3 O0 2.921631 1_555
Cs3 O1 2.952434 1_555
Cs3 O13 2.991519 1_546
Cs3 O12 3.028482 1_556
Cs3 O4 3.203489 1_555
Cs3 O5 3.504171 1_555
Cs4 O3 3.026460 1_565
Cs4 O12 3.044792 1_565
Cs4 O6 3.051299 1_455
Cs4 O7 3.092582 1_565
Cs4 O9 3.122158 1_555
Cs4 O0 3.225289 1_564
Cs5 O3 3.010945 1_565
Cs5 O5 3.114199 1_555
Cs5 O2 3.136339 1_565
Cs5 O8 3.239305 1_555
Cs5 O9 3.304351 1_555
Cs5 O4 3.493787 1_555
Cs6 O11 3.010945 1_545
Cs6 O9 3.114199 1_555
Cs6 O2 3.136339 1_555
Cs6 O6 3.239305 1_555
Cs6 O5 3.304351 1_555
Cs6 O10 3.493787 1_555
Cs7 O11 3.026460 1_545
Cs7 O1 3.044792 1_545
Cs7 O8 3.051299 1_655
Cs7 O7 3.092582 1_656
Cs7 O5 3.122158 1_555
Cs7 O13 3.225289 1_546
Cs8 O13 2.921631 1_555
Cs8 O12 2.952434 1_555
Cs8 O0 2.991519 1_564
Cs8 O1 3.028482 1_554
Cs8 O10 3.203489 1_555
Cs8 O9 3.504171 1_555
Cs9 O3 2.921631 1_555
Cs9 O6 2.952434 1_455
Cs9 O11 2.991519 1_445
Cs9 O8 3.028482 1_555
Cs9 O9 3.203489 1_555
Cs9 O10 3.504171 1_455
Cs10 O0 3.010945 1_564
Cs10 O10 3.114199 1_455
Cs10 O7 3.136339 1_565
Cs10 O12 3.239305 1_555
Cs10 O4 3.304351 1_554
Cs10 O9 3.493787 1_555
Cs11 O13 3.026460 1_545
Cs11 O6 3.044792 1_545
Cs11 O12 3.051299 1_555
Cs11 O2 3.092582 1_555
Cs11 O10 3.122158 1_555
Cs11 O11 3.225289 1_545
Co0 O1 1.785493 1_555
Co0 O11 1.790295 1_555
Co0 O5 1.795371 1_555
Co0 O2 1.876210 1_565
Co1 O8 1.785493 1_555
Co1 O0 1.790295 1_555
Co1 O4 1.795371 1_555
Co1 O7 1.876210 1_556
Co2 O6 1.785493 1_555
Co2 O13 1.790295 1_555
Co2 O10 1.795371 1_555
Co2 O7 1.876210 1_665
Co3 O12 1.785493 1_555
Co3 O3 1.790295 1_555
Co3 O9 1.795371 1_555
Co3 O2 1.876210 1_555
