# generated using pymatgen
data_Zr2N2O
_symmetry_space_group_name_H-M   'P 1'
_cell_length_a   8.85381900
_cell_length_b   8.87996651
_cell_length_c   8.88360714
_cell_angle_alpha   109.53115587
_cell_angle_beta   109.26607430
_cell_angle_gamma   109.51897006
_symmetry_Int_Tables_number   1
_chemical_formula_structural   Zr2N2O
_chemical_formula_sum   'Zr16 N16 O8'
_cell_volume   538.30507586
_cell_formula_units_Z   8
loop_
 _symmetry_equiv_pos_site_id
 _symmetry_equiv_pos_as_xyz
  1  'x, y, z'
loop_
 _atom_site_type_symbol
 _atom_site_label
 _atom_site_symmetry_multiplicity
 _atom_site_fract_x
 _atom_site_fract_y
 _atom_site_fract_z
 _atom_site_occupancy
  Zr  Zr0  1  0.51017900  0.49741200  0.50073200  1
  Zr  Zr1  1  0.28392500  0.83091100  0.46392800  1
  Zr  Zr2  1  0.97220200  0.22206200  0.24929700  1
  Zr  Zr3  1  0.46529100  0.70894700  0.24964600  1
  Zr  Zr4  1  0.22448500  0.17658000  0.03456500  1
  Zr  Zr5  1  0.68228400  0.45688200  0.28548900  1
  Zr  Zr6  1  0.67255900  0.96237800  0.78493100  1
  Zr  Zr7  1  0.32036600  0.53701900  0.71343400  1
  Zr  Zr8  1  0.00029300  0.51255900  0.99527900  1
  Zr  Zr9  1  0.50015500  0.99905200  0.00031800  1
  Zr  Zr10  1  0.32119400  0.04580400  0.21210700  1
  Zr  Zr11  1  0.01782800  0.01729500  0.49091300  1
  Zr  Zr12  1  0.78075100  0.82081000  0.96869100  1
  Zr  Zr13  1  0.03829000  0.78311300  0.75060500  1
  Zr  Zr14  1  0.52815300  0.28132000  0.75016500  1
  Zr  Zr15  1  0.70150400  0.16357200  0.54230800  1
  N  N0  1  0.30140600  0.25941900  0.73370900  1
  N  N1  1  0.99544500  0.96582100  0.27208500  1
  N  N2  1  0.80264000  0.07880300  0.96833000  1
  N  N3  1  0.42556000  0.68849600  0.03965100  1
  N  N4  1  0.01811600  0.78688000  0.46996900  1
  N  N5  1  0.78053100  0.30792400  0.22985600  1
  N  N6  1  0.98074900  0.20776800  0.53347800  1
  N  N7  1  0.51223500  0.50000500  0.22830400  1
  N  N8  1  0.45945000  0.00198500  0.76842900  1
  N  N9  1  0.19738800  0.92789000  0.03062800  1
  N  N10  1  0.57650800  0.31479900  0.95586700  1
  N  N11  1  0.74526000  0.51847700  0.01453100  1
  N  N12  1  0.21436500  0.68092500  0.77416700  1
  N  N13  1  0.81180100  0.04913600  0.45732100  1
  N  N14  1  0.17776900  0.93652100  0.54840900  1
  N  N15  1  0.56437900  0.29431600  0.48540100  1
  O  O0  1  0.69817000  0.75125700  0.26357400  1
  O  O1  1  0.82581100  0.30799500  0.72642500  1
  O  O2  1  0.42542500  0.70078100  0.51835900  1
  O  O3  1  0.48060600  0.49843100  0.77645900  1
  O  O4  1  0.26043000  0.48324900  0.98055700  1
  O  O5  1  0.18680200  0.69598900  0.27055600  1
  O  O6  1  0.53570200  0.98780800  0.23662100  1
  O  O7  1  0.00399500  0.03961300  0.72490500  1
loop_
_geom_bond_atom_site_label_1
_geom_bond_atom_site_label_2
_geom_bond_distance
_geom_bond_site_symmetry_2
N0 Zr14 1.901571 1_555
N0 Zr11 2.301525 1_555
N1 Zr11 1.765892 1_665
N1 Zr12 2.280032 1_554
N1 Zr2 2.419554 1_565
N1 Zr10 3.000800 1_665
N2 Zr6 1.374603 1_545
N2 Zr2 2.056709 1_556
N2 Zr12 2.234891 1_545
N3 O4 1.675727 1_554
N3 Zr3 1.713065 1_555
N4 Zr11 1.992564 1_565
N4 Zr1 2.275268 1_555
N4 Zr13 2.452400 1_555
N4 Zr5 2.804411 1_455
N5 Zr5 1.834673 1_555
N5 Zr2 2.061627 1_555
N5 Zr9 2.492653 1_545
N6 Zr11 1.771130 1_655
N6 Zr2 2.547511 1_555
N7 Zr5 1.637709 1_555
N7 Zr3 1.995824 1_555
N7 Zr0 2.433928 1_555
N7 Zr4 2.571603 1_555
N8 Zr9 1.981521 1_546
N8 Zr6 2.000176 1_545
N8 Zr1 2.222798 1_545
N8 Zr14 2.423862 1_555
N9 Zr10 1.354688 1_565
N9 Zr13 2.040667 1_554
N9 Zr4 2.127066 1_565
N10 Zr14 1.626775 1_555
N10 N11 1.680860 1_556
N11 Zr14 2.157391 1_554
N11 Zr8 2.336403 1_654
N11 Zr12 2.779198 1_554
N11 Zr5 2.822469 1_555
N12 Zr7 1.865330 1_555
N12 Zr13 2.038255 1_555
N12 Zr9 2.548152 1_556
N13 N6 1.402292 1_555
N13 Zr15 1.786893 1_555
N13 Zr11 1.881032 1_655
N14 N4 1.313427 1_555
N14 Zr1 1.705877 1_555
N14 Zr11 1.796403 1_565
N15 Zr0 1.989627 1_555
N15 Zr15 2.001703 1_555
N15 Zr10 2.278833 1_555
N15 Zr14 2.510571 1_555
N15 Zr5 2.873716 1_555
O0 Zr3 1.921112 1_555
O0 Zr11 2.497949 1_665
O1 Zr15 1.413362 1_555
O1 Zr8 2.044424 1_655
O1 Zr14 2.651226 1_555
O2 Zr1 2.019876 1_555
O2 Zr0 2.154750 1_555
O2 Zr6 2.301670 1_555
O2 Zr3 2.546164 1_555
O2 Zr7 2.797854 1_555
O3 Zr7 1.540342 1_555
O3 Zr14 2.062729 1_555
O3 Zr0 2.545279 1_555
O3 Zr12 2.612705 1_555
O4 Zr3 2.127712 1_556
O4 Zr8 2.442582 1_555
O4 Zr7 2.749561 1_555
O4 Zr4 2.853523 1_556
O5 Zr1 1.444452 1_555
O5 Zr8 2.057817 1_554
O5 Zr3 2.500866 1_555
O6 Zr9 2.059348 1_555
O6 Zr10 2.091728 1_565
O6 Zr15 2.229291 1_565
O6 Zr3 2.396159 1_555
O7 Zr11 2.069786 1_555
O7 Zr4 2.343090 1_556
O7 Zr13 2.469091 1_545
