# generated using pymatgen
data_Li2MnF6
_symmetry_space_group_name_H-M   'P 1'
_cell_length_a   5.22130200
_cell_length_b   5.08279000
_cell_length_c   9.07257907
_cell_angle_alpha   55.87741170
_cell_angle_beta   90.00000000
_cell_angle_gamma   90.00000000
_symmetry_Int_Tables_number   1
_chemical_formula_structural   Li2MnF6
_chemical_formula_sum   'Li4 Mn2 F12'
_cell_volume   199.32315496
_cell_formula_units_Z   2
loop_
 _symmetry_equiv_pos_site_id
 _symmetry_equiv_pos_as_xyz
  1  'x, y, z'
loop_
 _atom_site_type_symbol
 _atom_site_label
 _atom_site_symmetry_multiplicity
 _atom_site_fract_x
 _atom_site_fract_y
 _atom_site_fract_z
 _atom_site_occupancy
  Li  Li0  1  0.26192900  0.50510400  0.49997200  1
  Li  Li1  1  0.20577700  0.74380400  0.75817600  1
  Li  Li2  1  0.73807100  0.50510400  0.99997200  1
  Li  Li3  1  0.79422300  0.74380400  0.25817600  1
  Mn  Mn0  1  0.24963500  0.00155200  0.99990300  1
  Mn  Mn1  1  0.75036500  0.00155200  0.49990300  1
  F  F0  1  0.30268200  0.10453500  0.77011500  1
  F  F1  1  0.55667300  0.77797200  0.07264500  1
  F  F2  1  0.58031300  0.36960200  0.44135900  1
  F  F3  1  0.06915000  0.65300800  0.04615500  1
  F  F4  1  0.04365100  0.23908300  0.43208100  1
  F  F5  1  0.82007400  0.87291600  0.73017800  1
  F  F6  1  0.69731800  0.10453500  0.27011500  1
  F  F7  1  0.44332700  0.77797200  0.57264500  1
  F  F8  1  0.41968700  0.36960200  0.94135900  1
  F  F9  1  0.93085000  0.65300800  0.54615500  1
  F  F10  1  0.95634900  0.23908300  0.93208100  1
  F  F11  1  0.17992600  0.87291600  0.23017800  1
loop_
_geom_bond_atom_site_label_1
_geom_bond_atom_site_label_2
_geom_bond_distance
_geom_bond_site_symmetry_2
F0 Mn0 1.863507 1_555
F0 Li1 1.962741 1_545
F0 Li0 2.144530 1_555
F1 Mn0 1.858923 1_564
F1 Li3 2.018390 1_555
F1 Li2 2.069131 1_554
F2 Mn1 1.858840 1_555
F2 Li0 1.982809 1_555
F2 Li3 2.020059 1_555
F3 Mn0 1.835369 1_564
F3 Li2 2.020491 1_454
F4 Mn1 1.829688 1_455
F4 Li0 2.107353 1_555
F5 Mn1 1.841779 1_565
F5 Li1 2.088982 1_655
F5 Li2 2.129730 1_555
F6 Mn1 1.863507 1_555
F6 Li3 1.962741 1_545
F6 Li2 2.144530 1_554
F7 Mn1 1.858923 1_565
F7 Li1 2.018390 1_555
F7 Li0 2.069131 1_555
F8 Mn0 1.858840 1_555
F8 Li2 1.982809 1_555
F8 Li1 2.020059 1_555
F9 Mn1 1.835369 1_565
F9 Li0 2.020491 1_655
F10 Mn0 1.829688 1_655
F10 Li2 2.107353 1_555
F11 Mn0 1.841779 1_564
F11 Li3 2.088982 1_455
F11 Li0 2.129730 1_555
