# generated using pymatgen
data_Li2Ti(BO3)2
_symmetry_space_group_name_H-M   'P 1'
_cell_length_a   8.90888100
_cell_length_b   5.15840700
_cell_length_c   11.37252004
_cell_angle_alpha   64.62519744
_cell_angle_beta   90.00000000
_cell_angle_gamma   90.00000000
_symmetry_Int_Tables_number   1
_chemical_formula_structural   Li2Ti(BO3)2
_chemical_formula_sum   'Li8 Ti4 B8 O24'
_cell_volume   472.20990329
_cell_formula_units_Z   4
loop_
 _symmetry_equiv_pos_site_id
 _symmetry_equiv_pos_as_xyz
  1  'x, y, z'
loop_
 _atom_site_type_symbol
 _atom_site_label
 _atom_site_symmetry_multiplicity
 _atom_site_fract_x
 _atom_site_fract_y
 _atom_site_fract_z
 _atom_site_occupancy
  Li  Li0  1  0.66463800  0.45039700  0.36559600  1
  Li  Li1  1  0.98671400  0.92718100  0.90239700  1
  Li  Li2  1  0.16463800  0.54960300  0.13440400  1
  Li  Li3  1  0.48671400  0.07281900  0.59760300  1
  Li  Li4  1  0.51328600  0.92718100  0.40239700  1
  Li  Li5  1  0.83536200  0.45039700  0.86559600  1
  Li  Li6  1  0.01328600  0.07281900  0.09760300  1
  Li  Li7  1  0.33536200  0.54960300  0.63440400  1
  Ti  Ti0  1  0.32559200  0.98349400  0.86818800  1
  Ti  Ti1  1  0.82559200  0.01650600  0.63181200  1
  Ti  Ti2  1  0.17440800  0.98349400  0.36818800  1
  Ti  Ti3  1  0.67440800  0.01650600  0.13181200  1
  B  B0  1  0.33650700  0.45269900  0.37634000  1
  B  B1  1  0.66736600  0.96720700  0.87538600  1
  B  B2  1  0.83650700  0.54730100  0.12366000  1
  B  B3  1  0.16736600  0.03279300  0.62461400  1
  B  B4  1  0.83263400  0.96720700  0.37538600  1
  B  B5  1  0.16349300  0.45269900  0.87634000  1
  B  B6  1  0.33263400  0.03279300  0.12461400  1
  B  B7  1  0.66349300  0.54730100  0.62366000  1
  O  O0  1  0.31192800  0.87415800  0.05380200  1
  O  O1  1  0.67178900  0.29152500  0.60817200  1
  O  O2  1  0.96215600  0.70697500  0.09664700  1
  O  O3  1  0.29057800  0.12268900  0.67120600  1
  O  O4  1  0.02277300  0.09678100  0.64983800  1
  O  O5  1  0.70347300  0.62862400  0.16622800  1
  O  O6  1  0.20347300  0.37137600  0.33377200  1
  O  O7  1  0.52277300  0.90321900  0.85016200  1
  O  O8  1  0.79057800  0.87731100  0.82879400  1
  O  O9  1  0.46215600  0.29302500  0.40335300  1
  O  O10  1  0.81192800  0.12584200  0.44619800  1
  O  O11  1  0.17178900  0.70847500  0.89182800  1
  O  O12  1  0.82821100  0.29152500  0.10817200  1
  O  O13  1  0.18807200  0.87415800  0.55380200  1
  O  O14  1  0.53784400  0.70697500  0.59664700  1
  O  O15  1  0.20942200  0.12268900  0.17120600  1
  O  O16  1  0.47722700  0.09678100  0.14983800  1
  O  O17  1  0.79652700  0.62862400  0.66622800  1
  O  O18  1  0.29652700  0.37137600  0.83377200  1
  O  O19  1  0.97722700  0.90321900  0.35016200  1
  O  O20  1  0.70942200  0.87731100  0.32879400  1
  O  O21  1  0.03784400  0.29302500  0.90335300  1
  O  O22  1  0.32821100  0.70847500  0.39182800  1
  O  O23  1  0.68807200  0.12584200  0.94619800  1
loop_
_geom_bond_atom_site_label_1
_geom_bond_atom_site_label_2
_geom_bond_distance
_geom_bond_site_symmetry_2
Li0 O9 1.949009 1_555
Li0 O10 2.012382 1_555
Li0 O5 2.078242 1_555
Li0 O20 2.096202 1_555
Li0 O1 2.519605 1_555
Li1 O21 1.945922 1_665
Li1 O8 2.001157 1_555
Li1 O2 2.016837 1_556
Li1 O11 2.030277 1_655
Li2 O2 1.949009 1_455
Li2 O0 2.012382 1_555
Li2 O6 2.078242 1_555
Li2 O15 2.096202 1_555
Li2 O11 2.519605 1_554
Li3 O14 1.945922 1_545
Li3 O3 2.001157 1_555
Li3 O9 2.016837 1_555
Li3 O1 2.030277 1_555
Li4 O9 1.945922 1_565
Li4 O20 2.001157 1_555
Li4 O14 2.016837 1_555
Li4 O22 2.030277 1_555
Li5 O21 1.949009 1_655
Li5 O23 2.012382 1_555
Li5 O17 2.078242 1_555
Li5 O8 2.096202 1_555
Li5 O12 2.519605 1_556
Li6 O2 1.945922 1_445
Li6 O15 2.001157 1_555
Li6 O21 2.016837 1_554
Li6 O12 2.030277 1_455
Li7 O14 1.949009 1_555
Li7 O13 2.012382 1_555
Li7 O18 2.078242 1_555
Li7 O3 2.096202 1_555
Li7 O22 2.519605 1_555
B0 O9 1.344978 1_555
B0 O22 1.405872 1_555
B0 O6 1.410338 1_555
B1 O8 1.382495 1_555
B1 O23 1.384550 1_565
B1 O7 1.389875 1_555
B2 O2 1.344978 1_555
B2 O12 1.405872 1_555
B2 O5 1.410338 1_555
B3 O3 1.382495 1_555
B3 O13 1.384550 1_545
B3 O4 1.389875 1_555
B4 O20 1.382495 1_555
B4 O10 1.384550 1_565
B4 O19 1.389875 1_555
B5 O21 1.344978 1_555
B5 O11 1.405872 1_555
B5 O18 1.410338 1_555
B6 O15 1.382495 1_555
B6 O0 1.384550 1_545
B6 O16 1.389875 1_555
B7 O14 1.344978 1_555
B7 O1 1.405872 1_555
B7 O17 1.410338 1_555
O0 Ti0 1.941242 1_554
O1 Ti1 1.906690 1_555
O3 Ti0 2.062199 1_545
O4 Ti1 1.836332 1_455
O5 Ti3 1.884795 1_565
O6 Ti2 1.884795 1_545
O7 Ti0 1.836332 1_555
O8 Ti1 2.062199 1_565
O10 Ti1 1.941242 1_555
O11 Ti0 1.906690 1_555
O12 Ti3 1.906690 1_555
O13 Ti2 1.941242 1_555
O15 Ti2 2.062199 1_545
O16 Ti3 1.836332 1_555
O17 Ti1 1.884795 1_565
O18 Ti0 1.884795 1_545
O19 Ti2 1.836332 1_655
O20 Ti3 2.062199 1_565
O22 Ti2 1.906690 1_555
O23 Ti3 1.941242 1_556
