# generated using pymatgen
data_Na2B4H20O17
_symmetry_space_group_name_H-M   'P 1'
_cell_length_a   8.01163714
_cell_length_b   8.01163714
_cell_length_c   12.24834275
_cell_angle_alpha   77.68762397
_cell_angle_beta   77.68762397
_cell_angle_gamma   83.70992305
_symmetry_Int_Tables_number   1
_chemical_formula_structural   Na2B4H20O17
_chemical_formula_sum   'Na4 B8 H40 O34'
_cell_volume   748.73377552
_cell_formula_units_Z   2
loop_
 _symmetry_equiv_pos_site_id
 _symmetry_equiv_pos_as_xyz
  1  'x, y, z'
loop_
 _atom_site_type_symbol
 _atom_site_label
 _atom_site_symmetry_multiplicity
 _atom_site_fract_x
 _atom_site_fract_y
 _atom_site_fract_z
 _atom_site_occupancy
  Na  Na0  1  0.00000000  0.00000000  0.50000000  1
  Na  Na1  1  0.00000000  0.00000000  0.00000000  1
  Na  Na2  1  0.84700800  0.15299200  0.75000000  1
  Na  Na3  1  0.15299200  0.84700800  0.25000000  1
  B  B0  1  0.25947900  0.56949300  0.71501000  1
  B  B1  1  0.43050700  0.74052100  0.78499000  1
  B  B2  1  0.74052100  0.43050700  0.28499000  1
  B  B3  1  0.56949300  0.25947900  0.21501000  1
  B  B4  1  0.35849000  0.44503800  0.89202200  1
  B  B5  1  0.55496200  0.64151000  0.60797800  1
  B  B6  1  0.64151000  0.55496200  0.10797800  1
  B  B7  1  0.44503800  0.35849000  0.39202200  1
  H  H0  1  0.49888700  0.98055800  0.77994700  1
  H  H1  1  0.01944200  0.50111300  0.72005300  1
  H  H2  1  0.50111300  0.01944200  0.22005300  1
  H  H3  1  0.98055800  0.49888700  0.27994700  1
  H  H4  1  0.34646700  0.42894400  0.53842400  1
  H  H5  1  0.57105600  0.65353300  0.96157600  1
  H  H6  1  0.65353300  0.57105600  0.46157600  1
  H  H7  1  0.42894400  0.34646700  0.03842400  1
  H  H8  1  0.08717100  0.31412400  0.53655600  1
  H  H9  1  0.68587600  0.91282900  0.96344400  1
  H  H10  1  0.91282900  0.68587600  0.46344400  1
  H  H11  1  0.31412400  0.08717100  0.03655600  1
  H  H12  1  0.34538000  0.92226800  0.98646800  1
  H  H13  1  0.07773200  0.65462000  0.51353200  1
  H  H14  1  0.65462000  0.07773200  0.01353200  1
  H  H15  1  0.92226800  0.34538000  0.48646800  1
  H  H16  1  0.17725000  0.22730600  0.80655800  1
  H  H17  1  0.77269400  0.82275000  0.69344200  1
  H  H18  1  0.82275000  0.77269400  0.19344200  1
  H  H19  1  0.22730600  0.17725000  0.30655800  1
  H  H20  1  0.96472400  0.78032000  0.70195800  1
  H  H21  1  0.21968000  0.03527600  0.79804200  1
  H  H22  1  0.03527600  0.21968000  0.29804200  1
  H  H23  1  0.78032000  0.96472400  0.20195800  1
  H  H24  1  0.27957000  0.88720000  0.61675100  1
  H  H25  1  0.11280000  0.72043000  0.88324900  1
  H  H26  1  0.72043000  0.11280000  0.38324900  1
  H  H27  1  0.88720000  0.27957000  0.11675100  1
  H  H28  1  0.32308500  0.06621200  0.53625100  1
  H  H29  1  0.93378800  0.67691500  0.96374900  1
  H  H30  1  0.67691500  0.93378800  0.46374900  1
  H  H31  1  0.06621200  0.32308500  0.03625100  1
  H  H32  1  0.71565200  0.48295100  0.83621500  1
  H  H33  1  0.51704900  0.28434800  0.66378500  1
  H  H34  1  0.28434800  0.51704900  0.16378500  1
  H  H35  1  0.48295100  0.71565200  0.33621500  1
  H  H36  1  0.62126500  0.14806300  0.59590000  1
  H  H37  1  0.85193700  0.37873500  0.90410000  1
  H  H38  1  0.37873500  0.85193700  0.40410000  1
  H  H39  1  0.14806300  0.62126500  0.09590000  1
  O  O0  1  0.26661100  0.73338900  0.75000000  1
  O  O1  1  0.73338900  0.26661100  0.25000000  1
  O  O2  1  0.26458100  0.42528200  0.81465900  1
  O  O3  1  0.57471800  0.73541900  0.68534100  1
  O  O4  1  0.73541900  0.57471800  0.18534100  1
  O  O5  1  0.42528200  0.26458100  0.31465900  1
  O  O6  1  0.41554800  0.54493800  0.62388700  1
  O  O7  1  0.45506200  0.58445200  0.87611300  1
  O  O8  1  0.58445200  0.45506200  0.37611300  1
  O  O9  1  0.54493800  0.41554800  0.12388700  1
  O  O10  1  0.10920300  0.56859700  0.66705800  1
  O  O11  1  0.43140300  0.89079700  0.83294200  1
  O  O12  1  0.89079700  0.43140300  0.33294200  1
  O  O13  1  0.56859700  0.10920300  0.16705800  1
  O  O14  1  0.35354500  0.32045100  0.99001400  1
  O  O15  1  0.67954900  0.64645500  0.50998600  1
  O  O16  1  0.64645500  0.67954900  0.00998600  1
  O  O17  1  0.32045100  0.35354500  0.49001400  1
  O  O18  1  0.72281700  0.03029900  0.94864000  1
  O  O19  1  0.96970100  0.27718300  0.55136000  1
  O  O20  1  0.27718300  0.96970100  0.05136000  1
  O  O21  1  0.03029900  0.72281700  0.44864000  1
  O  O22  1  0.87725100  0.87636300  0.69571100  1
  O  O23  1  0.12363700  0.12274900  0.80428900  1
  O  O24  1  0.12274900  0.12363700  0.30428900  1
  O  O25  1  0.87636300  0.87725100  0.19571100  1
  O  O26  1  0.04615200  0.71566500  0.96232000  1
  O  O27  1  0.28433500  0.95384800  0.53768000  1
  O  O28  1  0.95384800  0.28433500  0.03768000  1
  O  O29  1  0.71566500  0.04615200  0.46232000  1
  O  O30  1  0.58829900  0.17644800  0.67243400  1
  O  O31  1  0.82355200  0.41170100  0.82756600  1
  O  O32  1  0.41170100  0.82355200  0.32756600  1
  O  O33  1  0.17644800  0.58829900  0.17243400  1
loop_
_geom_bond_atom_site_label_1
_geom_bond_atom_site_label_2
_geom_bond_distance
_geom_bond_site_symmetry_2
Na0 O29 2.393737 1_455
Na0 O27 2.393737 1_545
Na0 O19 2.408041 1_455
Na0 O21 2.408041 1_545
Na0 O22 2.426919 1_445
Na0 O24 2.426919 1_555
Na1 O26 2.393737 1_544
Na1 O28 2.393737 1_455
Na1 O20 2.408041 1_545
Na1 O18 2.408041 1_454
Na1 O25 2.426919 1_445
Na1 O23 2.426919 1_554
Na2 O23 2.419662 1_655
Na2 O22 2.419662 1_545
Na2 O31 2.431513 1_555
Na2 O30 2.431513 1_555
Na2 O19 2.457167 1_555
Na2 O18 2.457167 1_555
Na3 O25 2.419662 1_455
Na3 O24 2.419662 1_565
Na3 O32 2.431513 1_555
Na3 O33 2.431513 1_555
Na3 O20 2.457167 1_555
Na3 O21 2.457167 1_555
B0 O10 1.449065 1_555
B0 O0 1.475801 1_555
B0 O2 1.495248 1_555
B0 O6 1.514061 1_555
B1 O11 1.449065 1_555
B1 O0 1.475801 1_555
B1 O3 1.495248 1_555
B1 O7 1.514061 1_555
B2 O12 1.449065 1_555
B2 O1 1.475801 1_555
B2 O4 1.495248 1_555
B2 O8 1.514061 1_555
B3 O13 1.449065 1_555
B3 O1 1.475801 1_555
B3 O5 1.495248 1_555
B3 O9 1.514061 1_555
B4 O2 1.372259 1_555
B4 O14 1.384158 1_555
B4 O7 1.384329 1_555
B5 O3 1.372259 1_555
B5 O15 1.384158 1_555
B5 O6 1.384329 1_555
B6 O4 1.372259 1_555
B6 O16 1.384158 1_555
B6 O9 1.384329 1_555
B7 O5 1.372259 1_555
B7 O17 1.384158 1_555
B7 O8 1.384329 1_555
H0 O11 0.983485 1_555
H1 O10 0.983485 1_555
H2 O13 0.983485 1_555
H3 O12 0.983485 1_555
H4 O17 0.996483 1_555
H5 O16 0.996483 1_556
H6 O15 0.996483 1_555
H7 O14 0.996483 1_554
H8 O19 0.985676 1_455
H9 O18 0.985676 1_565
H10 O21 0.985676 1_655
H11 O20 0.985676 1_545
H12 O20 0.986298 1_556
H13 O21 0.986298 1_555
H14 O18 0.986298 1_554
H15 O19 0.986298 1_555
H16 O23 0.990365 1_555
H17 O22 0.990365 1_555
H18 O25 0.990365 1_555
H19 O24 0.990365 1_555
H20 O22 0.984199 1_555
H21 O23 0.984199 1_555
H22 O24 0.984199 1_555
H23 O25 0.984199 1_555
H24 O27 0.996339 1_555
H25 O26 0.996339 1_555
H26 O29 0.996339 1_555
H27 O28 0.996339 1_555
H28 O27 0.979430 1_545
H29 O26 0.979430 1_655
H30 O29 0.979430 1_565
H31 O28 0.979430 1_455
H32 O31 0.981304 1_555
H33 O30 0.981304 1_555
H34 O33 0.981304 1_555
H35 O32 0.981304 1_555
H36 O30 0.986095 1_555
H37 O31 0.986095 1_555
H38 O32 0.986095 1_555
H39 O33 0.986095 1_555
