# generated using pymatgen
data_Zn9Fe15O32
_symmetry_space_group_name_H-M   'P 1'
_cell_length_a   6.01002220
_cell_length_b   6.04621260
_cell_length_c   19.98380881
_cell_angle_alpha   98.96968667
_cell_angle_beta   89.47745340
_cell_angle_gamma   119.81501358
_symmetry_Int_Tables_number   1
_chemical_formula_structural   Zn9Fe15O32
_chemical_formula_sum   'Zn9 Fe15 O32'
_cell_volume   620.35971206
_cell_formula_units_Z   1
loop_
 _symmetry_equiv_pos_site_id
 _symmetry_equiv_pos_as_xyz
  1  'x, y, z'
loop_
 _atom_site_type_symbol
 _atom_site_label
 _atom_site_symmetry_multiplicity
 _atom_site_fract_x
 _atom_site_fract_y
 _atom_site_fract_z
 _atom_site_occupancy
  Zn  Zn0  1  0.21676600  0.93671600  0.15565800  1
  Zn  Zn1  1  0.99846200  0.00530700  0.00036000  1
  Zn  Zn2  1  0.71922100  0.93598000  0.15551900  1
  Zn  Zn3  1  0.47055800  0.44198600  0.40795600  1
  Zn  Zn4  1  0.97139800  0.44173000  0.40784200  1
  Zn  Zn5  1  0.84303000  0.68896800  0.53063700  1
  Zn  Zn6  1  0.71806800  0.93672500  0.65587700  1
  Zn  Zn7  1  0.59476000  0.18731400  0.78130900  1
  Zn  Zn8  1  0.46928300  0.43814200  0.90583100  1
  Fe  Fe0  1  0.34410700  0.68727800  0.03031800  1
  Fe  Fe1  1  0.21702400  0.43410800  0.15564700  1
  Fe  Fe2  1  0.68503800  0.36704500  0.06145500  1
  Fe  Fe3  1  0.43381100  0.86743100  0.31158400  1
  Fe  Fe4  1  0.09276900  0.18574300  0.28146300  1
  Fe  Fe5  1  0.75322000  0.50739300  0.25240100  1
  Fe  Fe6  1  0.96900900  0.93993400  0.40814000  1
  Fe  Fe7  1  0.21882200  0.93741000  0.65623500  1
  Fe  Fe8  1  0.18998800  0.37008700  0.56360700  1
  Fe  Fe9  1  0.24562500  0.50307400  0.74758500  1
  Fe  Fe10  1  0.50242800  0.00978000  0.49925600  1
  Fe  Fe11  1  0.46837000  0.93464400  0.90533100  1
  Fe  Fe12  1  0.71879100  0.43790100  0.65617400  1
  Fe  Fe13  1  0.94253400  0.87150200  0.81418400  1
  Fe  Fe14  1  0.97048000  0.43724300  0.90620600  1
  O  O0  1  0.04460200  0.55772900  0.09365000  1
  O  O1  1  0.51192500  0.55645800  0.09259000  1
  O  O2  1  0.39912500  0.79774800  0.21415700  1
  O  O3  1  0.03866500  0.07714800  0.10179300  1
  O  O4  1  0.39163700  0.31614800  0.21953700  1
  O  O5  1  0.14925400  0.82100000  0.46563600  1
  O  O6  1  0.91623100  0.83278100  0.21998100  1
  O  O7  1  0.26889000  0.53877300  0.34366300  1
  O  O8  1  0.51918700  0.04071600  0.09243300  1
  O  O9  1  0.26340100  0.06127300  0.34349500  1
  O  O10  1  0.15135000  0.30112500  0.46621100  1
  O  O11  1  0.02800200  0.57078400  0.59863100  1
  O  O12  1  0.67047600  0.82250500  0.46656800  1
  O  O13  1  0.78903200  0.57989700  0.34862300  1
  O  O14  1  0.92391900  0.31540100  0.21981700  1
  O  O15  1  0.66652500  0.33158600  0.46730800  1
  O  O16  1  0.40796100  0.82950100  0.71554300  1
  O  O17  1  0.79705900  0.06121300  0.34384500  1
  O  O18  1  0.54388700  0.56050000  0.59659900  1
  O  O19  1  0.03003400  0.04490100  0.59710800  1
  O  O20  1  0.90928900  0.80164400  0.71531000  1
  O  O21  1  0.40966300  0.30412600  0.71413200  1
  O  O22  1  0.16556000  0.79434700  0.96529800  1
  O  O23  1  0.52819500  0.07390700  0.59831200  1
  O  O24  1  0.27977000  0.57257400  0.84560600  1
  O  O25  1  0.89199700  0.31272800  0.71557800  1
  O  O26  1  0.62643400  0.80432000  0.96709800  1
  O  O27  1  0.16209600  0.34264000  0.96616000  1
  O  O28  1  0.29532900  0.06079600  0.84688300  1
  O  O29  1  0.78150100  0.54607300  0.84648300  1
  O  O30  1  0.77888300  0.06779300  0.84818200  1
  O  O31  1  0.65655300  0.29843000  0.96319400  1
loop_
_geom_bond_atom_site_label_1
_geom_bond_atom_site_label_2
_geom_bond_distance
_geom_bond_site_symmetry_2
Fe0 O26 2.005407 1_554
Fe0 O27 2.026901 1_554
Fe0 O8 2.043354 1_565
Fe0 O22 2.058485 1_554
Fe0 O1 2.077163 1_555
Fe0 O0 2.078690 1_555
Fe1 O3 1.990361 1_555
Fe1 O1 2.054889 1_555
Fe1 O2 2.056183 1_555
Fe1 O0 2.061515 1_555
Fe1 O14 2.061856 1_455
Fe1 O4 2.071898 1_555
Fe2 O8 1.919289 1_555
Fe2 O0 1.931214 1_655
Fe2 O1 1.931835 1_555
Fe2 O31 1.933583 1_554
Fe3 O2 1.917266 1_555
Fe3 O7 1.941431 1_555
Fe3 O9 1.943667 1_565
Fe3 O17 1.949625 1_565
Fe4 O6 2.035725 1_445
Fe4 O7 2.042421 1_555
Fe4 O17 2.049672 1_455
Fe4 O4 2.057880 1_555
Fe4 O9 2.058216 1_555
Fe4 O14 2.068097 1_455
Fe5 O13 1.893897 1_555
Fe5 O6 1.928553 1_555
Fe5 O14 1.939159 1_555
Fe5 O4 1.944563 1_555
Fe6 O12 2.009997 1_555
Fe6 O5 2.016367 1_655
Fe6 O10 2.042040 1_665
Fe6 O13 2.048903 1_555
Fe6 O9 2.073794 1_665
Fe6 O17 2.080403 1_565
Fe7 O19 2.025605 1_565
Fe7 O16 2.031189 1_555
Fe7 O23 2.052029 1_565
Fe7 O11 2.062656 1_555
Fe7 O21 2.065369 1_565
Fe7 O20 2.066841 1_455
Fe8 O18 1.907328 1_555
Fe8 O10 1.917011 1_555
Fe8 O19 1.938364 1_555
Fe8 O11 1.951309 1_555
Fe9 O25 1.900936 1_455
Fe9 O24 1.928893 1_555
Fe9 O16 1.930040 1_555
Fe9 O21 1.944804 1_555
Fe10 O12 1.903519 1_545
Fe10 O15 1.906235 1_555
Fe10 O5 1.907164 1_545
Fe10 O23 1.949193 1_555
Fe11 O26 2.028781 1_555
Fe11 O28 2.028878 1_565
Fe11 O30 2.046683 1_565
Fe11 O22 2.051767 1_555
Fe11 O31 2.052120 1_565
Fe11 O24 2.060134 1_555
Fe12 O18 2.035843 1_555
Fe12 O25 2.037589 1_555
Fe12 O11 2.045913 1_655
Fe12 O21 2.050837 1_555
Fe12 O23 2.053390 1_555
Fe12 O20 2.062652 1_555
Fe13 O28 1.900404 1_665
Fe13 O29 1.927636 1_555
Fe13 O30 1.932519 1_565
Fe13 O20 1.945627 1_555
Fe14 O27 1.995682 1_655
Fe14 O22 2.035646 1_655
Fe14 O29 2.039643 1_555
Fe14 O31 2.060400 1_555
Fe14 O30 2.078249 1_555
Fe14 O24 2.084906 1_655
O0 Zn0 2.153390 1_555
O1 Zn2 2.164499 1_555
O2 Zn2 2.106662 1_555
O2 Zn0 2.125837 1_555
O3 Zn1 1.996465 1_455
O3 Zn2 2.045920 1_445
O3 Zn0 2.057948 1_545
O4 Zn0 2.170446 1_545
O5 Zn4 2.119954 1_455
O5 Zn5 2.128494 1_455
O6 Zn0 2.095346 1_655
O6 Zn2 2.112779 1_555
O7 Zn4 2.082193 1_455
O7 Zn3 2.104848 1_555
O8 Zn0 2.089172 1_545
O8 Zn2 2.114075 1_545
O9 Zn3 2.182402 1_555
O10 Zn3 2.098746 1_555
O10 Zn4 2.121194 1_455
O11 Zn5 2.170937 1_455
O12 Zn3 2.131970 1_555
O12 Zn5 2.132095 1_555
O13 Zn3 2.108207 1_555
O13 Zn4 2.131205 1_555
O14 Zn2 2.174959 1_545
O15 Zn4 2.051012 1_555
O15 Zn5 2.070852 1_555
O15 Zn3 2.072098 1_555
O16 Zn6 2.077153 1_555
O16 Zn7 2.095977 1_565
O17 Zn4 2.176332 1_555
O18 Zn5 2.112009 1_555
O18 Zn6 2.118486 1_555
O19 Zn6 2.074205 1_445
O19 Zn5 2.095147 1_445
O20 Zn6 2.158511 1_555
O21 Zn7 2.154689 1_555
O22 Zn1 2.026985 1_466
O23 Zn6 2.139200 1_545
O24 Zn8 2.158012 1_555
O25 Zn7 2.100577 1_555
O25 Zn6 2.120911 1_545
O26 Zn1 1.997787 1_566
O26 Zn8 2.095063 1_555
O27 Zn1 2.005490 1_456
O27 Zn8 2.076477 1_555
O28 Zn7 2.107494 1_555
O28 Zn8 2.120968 1_555
O29 Zn8 2.082438 1_555
O29 Zn7 2.094262 1_555
O30 Zn7 2.157767 1_555
O31 Zn8 2.136653 1_555
