# generated using pymatgen
data_Li(NiO2)2
_symmetry_space_group_name_H-M   'P 1'
_cell_length_a   5.58469063
_cell_length_b   5.86498228
_cell_length_c   5.69223270
_cell_angle_alpha   87.96741432
_cell_angle_beta   61.60499575
_cell_angle_gamma   118.25828997
_symmetry_Int_Tables_number   1
_chemical_formula_structural   Li(NiO2)2
_chemical_formula_sum   'Li2 Ni4 O8'
_cell_volume   136.04966053
_cell_formula_units_Z   2
loop_
 _symmetry_equiv_pos_site_id
 _symmetry_equiv_pos_as_xyz
  1  'x, y, z'
loop_
 _atom_site_type_symbol
 _atom_site_label
 _atom_site_symmetry_multiplicity
 _atom_site_fract_x
 _atom_site_fract_y
 _atom_site_fract_z
 _atom_site_occupancy
  Li  Li0  1  0.50000000  0.50000000  0.00000000  1
  Li  Li1  1  0.50000000  0.50000000  0.50000000  1
  Ni  Ni0  1  0.50000000  0.00000000  0.00000000  1
  Ni  Ni1  1  0.50000000  0.00000000  0.50000000  1
  Ni  Ni2  1  0.00000000  0.00000000  0.50000000  1
  Ni  Ni3  1  0.00000000  0.00000000  0.00000000  1
  O  O0  1  0.02125700  0.79951600  0.74721400  1
  O  O1  1  0.02125400  0.79951800  0.24721500  1
  O  O2  1  0.97874300  0.20048400  0.25278700  1
  O  O3  1  0.97874600  0.20048200  0.75278500  1
  O  O4  1  0.54157000  0.78590400  0.21290500  1
  O  O5  1  0.54156700  0.78589700  0.71291500  1
  O  O6  1  0.45843000  0.21409600  0.78709500  1
  O  O7  1  0.45843200  0.21410300  0.28708500  1
loop_
_geom_bond_atom_site_label_1
_geom_bond_atom_site_label_2
_geom_bond_distance
_geom_bond_site_symmetry_2
Li0 O4 2.092241 1_555
Li0 O6 2.092241 1_554
Li0 O7 2.147599 1_555
Li0 O5 2.147603 1_554
Li0 O2 2.150628 1_455
Li0 O0 2.150629 1_654
Li1 O5 2.092247 1_555
Li1 O7 2.092247 1_555
Li1 O4 2.147660 1_555
Li1 O6 2.147660 1_555
Li1 O1 2.150619 1_655
Li1 O3 2.150619 1_455
Ni0 O6 1.880157 1_554
Ni0 O4 1.880157 1_545
Ni0 O1 1.959247 1_545
Ni0 O3 1.959247 1_554
Ni0 O5 2.088526 1_544
Ni0 O7 2.088526 1_555
Ni1 O5 1.880212 1_545
Ni1 O7 1.880216 1_555
Ni1 O2 1.959233 1_555
Ni1 O0 1.959234 1_545
Ni1 O6 2.088541 1_555
Ni1 O4 2.088541 1_545
Ni2 O7 1.870046 1_555
Ni2 O5 1.870050 1_445
Ni2 O2 1.884294 1_455
Ni2 O0 1.884298 1_545
Ni2 O3 1.885960 1_455
Ni2 O1 1.885960 1_545
Ni3 O4 1.870039 1_445
Ni3 O6 1.870039 1_554
Ni3 O1 1.884283 1_545
Ni3 O3 1.884283 1_454
Ni3 O0 1.885972 1_544
Ni3 O2 1.885976 1_455
