# generated using pymatgen
data_BaLaBr5
_symmetry_space_group_name_H-M   'P 1'
_cell_length_a   4.69248600
_cell_length_b   8.35173200
_cell_length_c   13.83565174
_cell_angle_alpha   88.58857981
_cell_angle_beta   90.00000000
_cell_angle_gamma   90.00000000
_symmetry_Int_Tables_number   1
_chemical_formula_structural   BaLaBr5
_chemical_formula_sum   'Ba2 La2 Br10'
_cell_volume   542.06001409
_cell_formula_units_Z   2
loop_
 _symmetry_equiv_pos_site_id
 _symmetry_equiv_pos_as_xyz
  1  'x, y, z'
loop_
 _atom_site_type_symbol
 _atom_site_label
 _atom_site_symmetry_multiplicity
 _atom_site_fract_x
 _atom_site_fract_y
 _atom_site_fract_z
 _atom_site_occupancy
  Ba  Ba0  1  0.25000000  0.93790700  0.84497300  1
  Ba  Ba1  1  0.75000000  0.06209300  0.15502700  1
  La  La0  1  0.75000000  0.56791000  0.65237900  1
  La  La1  1  0.25000000  0.43209000  0.34762100  1
  Br  Br0  1  0.75000000  0.92204900  0.66167600  1
  Br  Br1  1  0.25000000  0.84113200  0.07420800  1
  Br  Br2  1  0.25000000  0.67581200  0.51749900  1
  Br  Br3  1  0.75000000  0.63778800  0.85915200  1
  Br  Br4  1  0.75000000  0.63694800  0.28646300  1
  Br  Br5  1  0.25000000  0.36305200  0.71353700  1
  Br  Br6  1  0.25000000  0.36221200  0.14084800  1
  Br  Br7  1  0.75000000  0.32418800  0.48250100  1
  Br  Br8  1  0.75000000  0.15886800  0.92579200  1
  Br  Br9  1  0.25000000  0.07795100  0.33832400  1
loop_
_geom_bond_atom_site_label_1
_geom_bond_atom_site_label_2
_geom_bond_distance
_geom_bond_site_symmetry_2
Ba0 Br8 3.203494 1_465
Ba0 Br8 3.203494 1_565
Ba0 Br1 3.253631 1_556
Ba0 Br3 3.435364 1_455
Ba0 Br3 3.435364 1_555
Ba0 Br0 3.459828 1_555
Ba0 Br0 3.459828 1_455
Ba0 Br5 3.949217 1_565
Ba1 Br1 3.203494 1_645
Ba1 Br1 3.203494 1_545
Ba1 Br8 3.253631 1_554
Ba1 Br6 3.435364 1_555
Ba1 Br6 3.435364 1_655
Ba1 Br9 3.459828 1_655
Ba1 Br9 3.459828 1_555
Ba1 Br4 3.949217 1_545
Br0 La0 2.963633 1_555
Br2 La0 3.117153 1_455
Br2 La0 3.117153 1_555
Br2 La1 3.146935 1_555
Br3 La0 2.933810 1_555
Br4 La1 3.012768 1_655
Br4 La1 3.012768 1_555
Br5 La0 3.012768 1_555
Br5 La0 3.012768 1_455
Br6 La1 2.933810 1_555
Br7 La1 3.117153 1_655
Br7 La1 3.117153 1_555
Br7 La0 3.146935 1_555
Br9 La1 2.963633 1_555
