# generated using pymatgen
data_La3Ga5O12
_symmetry_space_group_name_H-M   'P 1'
_cell_length_a   11.06682432
_cell_length_b   11.06682432
_cell_length_c   11.06682432
_cell_angle_alpha   109.47122063
_cell_angle_beta   109.47122063
_cell_angle_gamma   109.47122063
_symmetry_Int_Tables_number   1
_chemical_formula_structural   La3Ga5O12
_chemical_formula_sum   'La12 Ga20 O48'
_cell_volume   1043.39116894
_cell_formula_units_Z   4
loop_
 _symmetry_equiv_pos_site_id
 _symmetry_equiv_pos_as_xyz
  1  'x, y, z'
loop_
 _atom_site_type_symbol
 _atom_site_label
 _atom_site_symmetry_multiplicity
 _atom_site_fract_x
 _atom_site_fract_y
 _atom_site_fract_z
 _atom_site_occupancy
  La  La0  1  0.75000000  0.12500000  0.37500000  1
  La  La1  1  0.87500000  0.62500000  0.25000000  1
  La  La2  1  0.37500000  0.12500000  0.25000000  1
  La  La3  1  0.25000000  0.37500000  0.12500000  1
  La  La4  1  0.12500000  0.25000000  0.37500000  1
  La  La5  1  0.62500000  0.25000000  0.87500000  1
  La  La6  1  0.37500000  0.75000000  0.12500000  1
  La  La7  1  0.87500000  0.75000000  0.62500000  1
  La  La8  1  0.75000000  0.62500000  0.87500000  1
  La  La9  1  0.12500000  0.37500000  0.75000000  1
  La  La10  1  0.62500000  0.87500000  0.75000000  1
  La  La11  1  0.25000000  0.87500000  0.62500000  1
  Ga  Ga0  1  0.87500000  0.25000000  0.12500000  1
  Ga  Ga1  1  0.50000000  0.00000000  0.00000000  1
  Ga  Ga2  1  0.00000000  0.00000000  0.00000000  1
  Ga  Ga3  1  0.87500000  0.12500000  0.75000000  1
  Ga  Ga4  1  0.50000000  0.50000000  0.00000000  1
  Ga  Ga5  1  0.50000000  0.00000000  0.50000000  1
  Ga  Ga6  1  0.62500000  0.37500000  0.25000000  1
  Ga  Ga7  1  0.75000000  0.87500000  0.12500000  1
  Ga  Ga8  1  0.75000000  0.37500000  0.62500000  1
  Ga  Ga9  1  0.37500000  0.25000000  0.62500000  1
  Ga  Ga10  1  0.00000000  0.50000000  0.00000000  1
  Ga  Ga11  1  0.00000000  0.00000000  0.50000000  1
  Ga  Ga12  1  0.50000000  0.50000000  0.50000000  1
  Ga  Ga13  1  0.62500000  0.75000000  0.37500000  1
  Ga  Ga14  1  0.25000000  0.62500000  0.37500000  1
  Ga  Ga15  1  0.25000000  0.12500000  0.87500000  1
  Ga  Ga16  1  0.00000000  0.50000000  0.50000000  1
  Ga  Ga17  1  0.37500000  0.62500000  0.75000000  1
  Ga  Ga18  1  0.12500000  0.87500000  0.25000000  1
  Ga  Ga19  1  0.12500000  0.75000000  0.87500000  1
  O  O0  1  0.90326100  0.02100600  0.32090300  1
  O  O1  1  0.88225500  0.40326100  0.08235900  1
  O  O2  1  0.91764100  0.29989700  0.32090300  1
  O  O3  1  0.97899400  0.67909700  0.09673900  1
  O  O4  1  0.91764100  0.11774500  0.59673900  1
  O  O5  1  0.58235900  0.17909700  0.20010300  1
  O  O6  1  0.61774500  0.41764100  0.09673900  1
  O  O7  1  0.20010300  0.11774500  0.02100600  1
  O  O8  1  0.59673900  0.17909700  0.47899400  1
  O  O9  1  0.70010300  0.67909700  0.08235900  1
  O  O10  1  0.90326100  0.38225500  0.58235900  1
  O  O11  1  0.67909700  0.08235900  0.70010300  1
  O  O12  1  0.11774500  0.02100600  0.20010300  1
  O  O13  1  0.82090300  0.52100600  0.40326100  1
  O  O14  1  0.47899400  0.38225500  0.29989700  1
  O  O15  1  0.47899400  0.59673900  0.17909700  1
  O  O16  1  0.02100600  0.20010300  0.11774500  1
  O  O17  1  0.41764100  0.09673900  0.61774500  1
  O  O18  1  0.82090300  0.79989700  0.41764100  1
  O  O19  1  0.38225500  0.29989700  0.47899400  1
  O  O20  1  0.67909700  0.09673900  0.97899400  1
  O  O21  1  0.79989700  0.41764100  0.82090300  1
  O  O22  1  0.70010300  0.52100600  0.61774500  1
  O  O23  1  0.59673900  0.91764100  0.11774500  1
  O  O24  1  0.29989700  0.47899400  0.38225500  1
  O  O25  1  0.20010300  0.58235900  0.17909700  1
  O  O26  1  0.40326100  0.08235900  0.88225500  1
  O  O27  1  0.61774500  0.70010300  0.52100600  1
  O  O28  1  0.32090300  0.90326100  0.02100600  1
  O  O29  1  0.17909700  0.20010300  0.58235900  1
  O  O30  1  0.52100600  0.40326100  0.82090300  1
  O  O31  1  0.58235900  0.90326100  0.38225500  1
  O  O32  1  0.97899400  0.79989700  0.88225500  1
  O  O33  1  0.52100600  0.61774500  0.70010300  1
  O  O34  1  0.88225500  0.97899400  0.79989700  1
  O  O35  1  0.32090300  0.91764100  0.29989700  1
  O  O36  1  0.17909700  0.47899400  0.59673900  1
  O  O37  1  0.40326100  0.82090300  0.52100600  1
  O  O38  1  0.29989700  0.32090300  0.91764100  1
  O  O39  1  0.09673900  0.61774500  0.41764100  1
  O  O40  1  0.79989700  0.88225500  0.97899400  1
  O  O41  1  0.38225500  0.58235900  0.90326100  1
  O  O42  1  0.41764100  0.82090300  0.79989700  1
  O  O43  1  0.08235900  0.88225500  0.40326100  1
  O  O44  1  0.02100600  0.32090300  0.90326100  1
  O  O45  1  0.08235900  0.70010300  0.67909700  1
  O  O46  1  0.11774500  0.59673900  0.91764100  1
  O  O47  1  0.09673900  0.97899400  0.67909700  1
loop_
_geom_bond_atom_site_label_1
_geom_bond_atom_site_label_2
_geom_bond_distance
_geom_bond_site_symmetry_2
La0 O8 2.465505 1_555
La0 O0 2.465505 1_555
La0 O23 2.465508 1_545
La0 O10 2.465508 1_555
La0 O5 2.581818 1_555
La0 O2 2.581818 1_555
La0 O4 2.581820 1_555
La0 O31 2.581820 1_545
La1 O3 2.465505 1_555
La1 O13 2.465505 1_555
La1 O6 2.465508 1_555
La1 O43 2.465508 1_655
La1 O18 2.581818 1_555
La1 O9 2.581818 1_555
La1 O39 2.581820 1_655
La1 O1 2.581820 1_555
La2 O14 2.465505 1_555
La2 O12 2.465505 1_555
La2 O5 2.465515 1_555
La2 O35 2.465515 1_545
La2 O19 2.581824 1_555
La2 O7 2.581824 1_555
La2 O8 2.581824 1_555
La2 O28 2.581824 1_545
La3 O7 2.465505 1_555
La3 O24 2.465505 1_555
La3 O25 2.465515 1_555
La3 O38 2.465515 1_554
La3 O15 2.581824 1_555
La3 O14 2.581824 1_555
La3 O44 2.581824 1_554
La3 O16 2.581824 1_555
La4 O16 2.465505 1_555
La4 O19 2.465505 1_555
La4 O29 2.465515 1_555
La4 O2 2.465515 1_455
La4 O12 2.581824 1_555
La4 O36 2.581824 1_555
La4 O24 2.581824 1_555
La4 O0 2.581824 1_455
La5 O20 2.465505 1_555
La5 O30 2.465505 1_555
La5 O17 2.465508 1_555
La5 O1 2.465508 1_556
La5 O11 2.581818 1_555
La5 O21 2.581818 1_555
La5 O6 2.581820 1_556
La5 O26 2.581820 1_555
La6 O28 2.465505 1_555
La6 O15 2.465505 1_555
La6 O31 2.465508 1_555
La6 O46 2.465508 1_554
La6 O25 2.581818 1_555
La6 O35 2.581818 1_555
La6 O41 2.581820 1_554
La6 O23 2.581820 1_555
La7 O32 2.465505 1_555
La7 O27 2.465505 1_555
La7 O18 2.465515 1_555
La7 O45 2.465515 1_655
La7 O47 2.581824 1_655
La7 O22 2.581824 1_555
La7 O34 2.581824 1_555
La7 O13 2.581824 1_555
La8 O40 2.465505 1_555
La8 O22 2.465505 1_555
La8 O21 2.465515 1_555
La8 O9 2.465515 1_556
La8 O3 2.581824 1_556
La8 O32 2.581824 1_555
La8 O33 2.581824 1_555
La8 O30 2.581824 1_555
La9 O44 2.465505 1_555
La9 O36 2.465505 1_555
La9 O4 2.465508 1_455
La9 O41 2.465508 1_555
La9 O38 2.581818 1_555
La9 O29 2.581818 1_555
La9 O10 2.581820 1_455
La9 O46 2.581820 1_555
La10 O33 2.465505 1_555
La10 O34 2.465505 1_555
La10 O42 2.465515 1_555
La10 O11 2.465515 1_565
La10 O27 2.581824 1_555
La10 O20 2.581824 1_565
La10 O40 2.581824 1_555
La10 O37 2.581824 1_555
La11 O37 2.465505 1_555
La11 O47 2.465505 1_555
La11 O39 2.465508 1_555
La11 O26 2.465508 1_565
La11 O45 2.581818 1_555
La11 O42 2.581818 1_555
La11 O17 2.581820 1_565
La11 O43 2.581820 1_555
Ga0 O1 1.890504 1_555
Ga0 O20 1.890510 1_554
Ga0 O16 1.890510 1_655
Ga0 O2 1.890512 1_555
Ga1 O42 2.046246 1_544
Ga1 O5 2.046246 1_555
Ga1 O20 2.046249 1_554
Ga1 O28 2.046249 1_545
Ga1 O23 2.046258 1_545
Ga1 O26 2.046258 1_554
Ga2 O16 2.046249 1_555
Ga2 O12 2.046249 1_555
Ga2 O7 2.046249 1_555
Ga2 O32 2.046249 1_444
Ga2 O40 2.046249 1_444
Ga2 O34 2.046249 1_444
Ga3 O4 1.890504 1_555
Ga3 O34 1.890510 1_545
Ga3 O44 1.890510 1_655
Ga3 O11 1.890512 1_555
Ga4 O38 2.046246 1_554
Ga4 O9 2.046246 1_555
Ga4 O30 2.046249 1_554
Ga4 O15 2.046249 1_555
Ga4 O41 2.046258 1_554
Ga4 O6 2.046258 1_555
Ga5 O11 2.046246 1_555
Ga5 O35 2.046246 1_545
Ga5 O37 2.046249 1_545
Ga5 O8 2.046249 1_555
Ga5 O31 2.046258 1_545
Ga5 O17 2.046258 1_555
Ga6 O6 1.890504 1_555
Ga6 O13 1.890510 1_555
Ga6 O14 1.890510 1_555
Ga6 O5 1.890512 1_555
Ga7 O23 1.890504 1_555
Ga7 O40 1.890510 1_554
Ga7 O0 1.890510 1_565
Ga7 O9 1.890512 1_555
Ga8 O10 1.890504 1_555
Ga8 O22 1.890510 1_555
Ga8 O8 1.890510 1_555
Ga8 O21 1.890512 1_555
Ga9 O17 1.890504 1_555
Ga9 O30 1.890510 1_555
Ga9 O19 1.890510 1_555
Ga9 O29 1.890512 1_555
Ga10 O21 2.046246 1_454
Ga10 O25 2.046246 1_555
Ga10 O3 2.046249 1_455
Ga10 O44 2.046249 1_554
Ga10 O46 2.046258 1_554
Ga10 O1 2.046258 1_455
Ga11 O18 2.046246 1_445
Ga11 O29 2.046246 1_555
Ga11 O47 2.046249 1_545
Ga11 O0 2.046249 1_455
Ga11 O4 2.046258 1_455
Ga11 O43 2.046258 1_545
Ga12 O14 2.046249 1_555
Ga12 O24 2.046249 1_555
Ga12 O19 2.046249 1_555
Ga12 O22 2.046249 1_555
Ga12 O27 2.046249 1_555
Ga12 O33 2.046249 1_555
Ga13 O31 1.890504 1_555
Ga13 O27 1.890510 1_555
Ga13 O15 1.890510 1_555
Ga13 O18 1.890512 1_555
Ga14 O39 1.890504 1_555
Ga14 O37 1.890510 1_555
Ga14 O24 1.890510 1_555
Ga14 O25 1.890512 1_555
Ga15 O26 1.890504 1_555
Ga15 O47 1.890510 1_545
Ga15 O7 1.890510 1_556
Ga15 O38 1.890512 1_555
Ga16 O45 2.046246 1_555
Ga16 O2 2.046246 1_455
Ga16 O13 2.046249 1_455
Ga16 O36 2.046249 1_555
Ga16 O10 2.046258 1_455
Ga16 O39 2.046258 1_555
Ga17 O41 1.890504 1_555
Ga17 O33 1.890510 1_555
Ga17 O36 1.890510 1_555
Ga17 O42 1.890512 1_555
Ga18 O43 1.890504 1_555
Ga18 O3 1.890510 1_455
Ga18 O12 1.890510 1_565
Ga18 O35 1.890512 1_555
Ga19 O46 1.890504 1_555
Ga19 O32 1.890510 1_455
Ga19 O28 1.890510 1_556
Ga19 O45 1.890512 1_555
