# generated using pymatgen
data_Li4Mn5(FeO6)2
_symmetry_space_group_name_H-M   'P 1'
_cell_length_a   9.21855800
_cell_length_b   5.15396200
_cell_length_c   10.04089034
_cell_angle_alpha   77.34489350
_cell_angle_beta   90.00000000
_cell_angle_gamma   90.00000000
_symmetry_Int_Tables_number   1
_chemical_formula_structural   Li4Mn5(FeO6)2
_chemical_formula_sum   'Li8 Mn10 Fe4 O24'
_cell_volume   465.47421499
_cell_formula_units_Z   2
loop_
 _symmetry_equiv_pos_site_id
 _symmetry_equiv_pos_as_xyz
  1  'x, y, z'
loop_
 _atom_site_type_symbol
 _atom_site_label
 _atom_site_symmetry_multiplicity
 _atom_site_fract_x
 _atom_site_fract_y
 _atom_site_fract_z
 _atom_site_occupancy
  Li  Li0  1  0.91413700  0.00311200  0.73833600  1
  Li  Li1  1  0.93102900  0.49544100  0.25810500  1
  Li  Li2  1  0.58038700  0.76118800  0.50732000  1
  Li  Li3  1  0.58068100  0.50443700  0.26381700  1
  Li  Li4  1  0.41413700  0.99688800  0.26166400  1
  Li  Li5  1  0.43102900  0.50455900  0.74189500  1
  Li  Li6  1  0.08038700  0.23881200  0.49268000  1
  Li  Li7  1  0.08068100  0.49556300  0.73618300  1
  Mn  Mn0  1  0.91573400  0.25757400  0.99310400  1
  Mn  Mn1  1  0.92343000  0.74565600  0.48979400  1
  Mn  Mn2  1  0.74672400  0.00014500  0.25852600  1
  Mn  Mn3  1  0.58029400  0.24055900  0.00949200  1
  Mn  Mn4  1  0.74813800  0.51272900  0.74286000  1
  Mn  Mn5  1  0.42343000  0.25434400  0.51020600  1
  Mn  Mn6  1  0.41573400  0.74242600  0.00689600  1
  Mn  Mn7  1  0.24672400  0.99985500  0.74147400  1
  Mn  Mn8  1  0.24813800  0.48727100  0.25714000  1
  Mn  Mn9  1  0.08029400  0.75944100  0.99050800  1
  Fe  Fe0  1  0.74497900  0.23470700  0.51519100  1
  Fe  Fe1  1  0.74536500  0.75552600  0.99470300  1
  Fe  Fe2  1  0.24536500  0.24447400  0.00529700  1
  Fe  Fe3  1  0.24497900  0.76529300  0.48480900  1
  O  O0  1  0.88756600  0.11431500  0.37930400  1
  O  O1  1  0.92139900  0.88166800  0.09444400  1
  O  O2  1  0.76472200  0.16120300  0.87815100  1
  O  O3  1  0.76011900  0.86928300  0.62510400  1
  O  O4  1  0.90395200  0.60875400  0.86788200  1
  O  O5  1  0.91235100  0.38283200  0.60647300  1
  O  O6  1  0.58110900  0.14839100  0.39946800  1
  O  O7  1  0.76966700  0.64336500  0.37235700  1
  O  O8  1  0.59569300  0.89185200  0.13686600  1
  O  O9  1  0.73456700  0.34770800  0.12736200  1
  O  O10  1  0.56985900  0.60488200  0.90157800  1
  O  O11  1  0.42139900  0.11833200  0.90555600  1
  O  O12  1  0.60246300  0.39821400  0.62590100  1
  O  O13  1  0.38756600  0.88568500  0.62069600  1
  O  O14  1  0.26011900  0.13071700  0.37489600  1
  O  O15  1  0.41235100  0.61716800  0.39352700  1
  O  O16  1  0.26472200  0.83879700  0.12184900  1
  O  O17  1  0.40395200  0.39124600  0.13211800  1
  O  O18  1  0.09569300  0.10814800  0.86313400  1
  O  O19  1  0.23456700  0.65229200  0.87263800  1
  O  O20  1  0.26966700  0.35663500  0.62764300  1
  O  O21  1  0.08110900  0.85160900  0.60053200  1
  O  O22  1  0.10246300  0.60178600  0.37409900  1
  O  O23  1  0.06985900  0.39511800  0.09842200  1
loop_
_geom_bond_atom_site_label_1
_geom_bond_atom_site_label_2
_geom_bond_distance
_geom_bond_site_symmetry_2
Li0 O3 2.031729 1_545
Li0 O5 2.109036 1_555
Li0 O4 2.161816 1_545
Li0 O18 2.227494 1_655
Li0 O2 2.243466 1_555
Li0 O21 2.316665 1_645
Li1 O22 2.105751 1_655
Li1 O0 2.110116 1_555
Li1 O7 2.119728 1_555
Li1 O23 2.199838 1_655
Li1 O1 2.288560 1_555
Li1 O9 2.453807 1_555
Li2 O12 1.995702 1_555
Li2 O6 2.051437 1_565
Li2 O15 2.151193 1_555
Li2 O3 2.177836 1_555
Li2 O13 2.277573 1_555
Li2 O7 2.368628 1_555
Li3 O6 2.031613 1_555
Li3 O8 2.125015 1_555
Li3 O15 2.184800 1_555
Li3 O9 2.242129 1_555
Li3 O7 2.253343 1_555
Li3 O17 2.254170 1_555
Li4 O14 2.031729 1_565
Li4 O15 2.109036 1_555
Li4 O17 2.161816 1_565
Li4 O8 2.227494 1_555
Li4 O16 2.243466 1_555
Li4 O6 2.316665 1_565
Li5 O12 2.105751 1_555
Li5 O13 2.110116 1_555
Li5 O20 2.119728 1_555
Li5 O10 2.199838 1_555
Li5 O11 2.288560 1_555
Li5 O19 2.453807 1_555
Li6 O22 1.995702 1_555
Li6 O21 2.051437 1_545
Li6 O5 2.151193 1_455
Li6 O14 2.177836 1_555
Li6 O0 2.277573 1_455
Li6 O20 2.368628 1_555
Li7 O21 2.031613 1_555
Li7 O18 2.125015 1_555
Li7 O5 2.184800 1_455
Li7 O19 2.242129 1_555
Li7 O20 2.253343 1_555
Li7 O4 2.254170 1_455
Mn0 O2 1.941167 1_555
Mn0 O4 1.967622 1_555
Mn0 O1 1.981885 1_546
Mn0 O23 1.991980 1_656
Mn0 O9 2.257592 1_556
Mn0 O18 2.342797 1_655
Mn1 O21 1.978247 1_655
Mn1 O5 1.979871 1_555
Mn1 O7 1.987464 1_555
Mn1 O0 2.006662 1_565
Mn1 O3 2.213071 1_555
Mn1 O22 2.236216 1_655
Mn2 O7 1.952307 1_545
Mn2 O0 1.953291 1_555
Mn2 O9 1.980455 1_555
Mn2 O8 2.010217 1_545
Mn2 O6 2.321897 1_555
Mn2 O1 2.474051 1_545
Mn3 O10 1.953878 1_554
Mn3 O8 1.969448 1_545
Mn3 O11 1.979801 1_554
Mn3 O9 2.003659 1_555
Mn3 O2 2.243511 1_554
Mn3 O17 2.276144 1_555
Mn4 O12 1.958216 1_555
Mn4 O3 1.958361 1_555
Mn4 O2 2.018116 1_555
Mn4 O4 2.038677 1_555
Mn4 O5 2.239849 1_555
Mn4 O10 2.407910 1_555
Mn5 O6 1.978247 1_555
Mn5 O15 1.979871 1_555
Mn5 O20 1.987464 1_555
Mn5 O13 2.006662 1_545
Mn5 O14 2.213071 1_555
Mn5 O12 2.236216 1_555
Mn6 O16 1.941167 1_555
Mn6 O17 1.967622 1_555
Mn6 O11 1.981885 1_564
Mn6 O10 1.991980 1_554
Mn6 O19 2.257592 1_554
Mn6 O8 2.342797 1_555
Mn7 O20 1.952307 1_565
Mn7 O13 1.953291 1_555
Mn7 O19 1.980455 1_555
Mn7 O18 2.010217 1_565
Mn7 O21 2.321897 1_555
Mn7 O11 2.474051 1_565
Mn8 O22 1.958216 1_555
Mn8 O14 1.958361 1_555
Mn8 O16 2.018116 1_555
Mn8 O17 2.038677 1_555
Mn8 O15 2.239849 1_555
Mn8 O23 2.407910 1_555
Mn9 O23 1.953878 1_556
Mn9 O18 1.969448 1_565
Mn9 O1 1.979801 1_456
Mn9 O19 2.003659 1_555
Mn9 O16 2.243511 1_556
Mn9 O4 2.276144 1_455
Fe0 O3 1.968210 1_545
Fe0 O6 2.014103 1_555
Fe0 O12 2.020491 1_555
Fe0 O5 2.027342 1_555
Fe0 O0 2.084563 1_555
Fe0 O7 2.285001 1_555
Fe1 O1 2.084311 1_556
Fe1 O10 2.100689 1_555
Fe1 O2 2.168157 1_565
Fe1 O4 2.180163 1_555
Fe1 O8 2.207818 1_556
Fe1 O9 2.230543 1_556
Fe2 O11 2.084311 1_554
Fe2 O23 2.100689 1_555
Fe2 O16 2.168157 1_545
Fe2 O17 2.180163 1_555
Fe2 O18 2.207818 1_554
Fe2 O19 2.230543 1_554
Fe3 O14 1.968210 1_565
Fe3 O21 2.014103 1_555
Fe3 O22 2.020491 1_555
Fe3 O15 2.027342 1_555
Fe3 O13 2.084563 1_555
Fe3 O20 2.285001 1_555
