# generated using pymatgen
data_Li2MnP2O7
_symmetry_space_group_name_H-M   'P 1'
_cell_length_a   6.81645035
_cell_length_b   7.25517216
_cell_length_c   8.21263243
_cell_angle_alpha   63.78424938
_cell_angle_beta   114.47999260
_cell_angle_gamma   89.98160823
_symmetry_Int_Tables_number   1
_chemical_formula_structural   Li2MnP2O7
_chemical_formula_sum   'Li4 Mn2 P4 O14'
_cell_volume   323.14732125
_cell_formula_units_Z   2
loop_
 _symmetry_equiv_pos_site_id
 _symmetry_equiv_pos_as_xyz
  1  'x, y, z'
loop_
 _atom_site_type_symbol
 _atom_site_label
 _atom_site_symmetry_multiplicity
 _atom_site_fract_x
 _atom_site_fract_y
 _atom_site_fract_z
 _atom_site_occupancy
  Li  Li0  1  0.23489100  0.76559500  0.46852200  1
  Li  Li1  1  0.76608200  0.73362300  0.53143000  1
  Li  Li2  1  0.23541400  0.26434100  0.47076200  1
  Li  Li3  1  0.76490500  0.23494900  0.52939900  1
  Mn  Mn0  1  0.99862000  0.50197600  0.00096800  1
  Mn  Mn1  1  0.00007000  0.00221700  0.99832000  1
  P  P0  1  0.20816800  0.86192600  0.77540200  1
  P  P1  1  0.56758200  0.36228200  0.77567800  1
  P  P2  1  0.43173700  0.63769300  0.22440500  1
  P  P3  1  0.79256200  0.13716400  0.22475400  1
  O  O0  1  0.42567200  0.74961800  0.00007600  1
  O  O1  1  0.57481300  0.24969900  0.00037600  1
  O  O2  1  0.32711100  0.44205400  0.61702100  1
  O  O3  1  0.29020400  0.94019400  0.61670900  1
  O  O4  1  0.71110300  0.05693400  0.38382300  1
  O  O5  1  0.67194500  0.55890900  0.38372400  1
  O  O6  1  0.30513200  0.80897600  0.23165100  1
  O  O7  1  0.92746400  0.95929000  0.23190900  1
  O  O8  1  0.07316800  0.69144200  0.76770200  1
  O  O9  1  0.69394900  0.54122600  0.76758800  1
  O  O10  1  0.30646900  0.45786500  0.23382500  1
  O  O11  1  0.92650300  0.30807100  0.23379100  1
  O  O12  1  0.69239000  0.19163000  0.76611900  1
  O  O13  1  0.07404500  0.04232600  0.76604500  1
loop_
_geom_bond_atom_site_label_1
_geom_bond_atom_site_label_2
_geom_bond_distance
_geom_bond_site_symmetry_2
Li0 O3 2.051823 1_555
Li0 O2 2.055963 1_555
Li0 O6 2.084153 1_555
Li0 O7 2.086378 1_455
Li1 O5 2.050356 1_555
Li1 O4 2.054955 1_565
Li1 O8 2.085490 1_655
Li1 O9 2.085827 1_555
Li2 O2 2.059730 1_555
Li2 O3 2.060302 1_545
Li2 O10 2.088076 1_555
Li2 O11 2.092822 1_455
Li3 O4 2.057442 1_555
Li3 O5 2.059989 1_555
Li3 O13 2.091661 1_655
Li3 O12 2.092672 1_555
Mn0 O11 2.068745 1_555
Mn0 O9 2.070329 1_554
Mn0 O10 2.072702 1_655
Mn0 O8 2.073259 1_654
Mn1 O7 2.069107 1_446
Mn1 O6 2.069751 1_546
Mn1 O13 2.069945 1_555
Mn1 O12 2.071695 1_455
O0 P2 1.634134 1_555
O0 P0 1.634137 1_554
O1 P1 1.633354 1_554
O1 P3 1.633580 1_555
O2 P1 1.510847 1_555
O3 P0 1.511305 1_555
O4 P3 1.511054 1_555
O5 P2 1.510897 1_555
O6 P2 1.549124 1_555
O7 P3 1.549805 1_565
O8 P0 1.549940 1_555
O9 P1 1.550427 1_555
O10 P2 1.550350 1_555
O11 P3 1.549986 1_555
O12 P1 1.550290 1_555
O13 P0 1.551430 1_545
