# generated using pymatgen
data_Li2CoSiO4
_symmetry_space_group_name_H-M   'P 1'
_cell_length_a   5.23491300
_cell_length_b   10.25565200
_cell_length_c   13.39567200
_cell_angle_alpha   90.00000000
_cell_angle_beta   90.00000000
_cell_angle_gamma   90.00000000
_symmetry_Int_Tables_number   1
_chemical_formula_structural   Li2CoSiO4
_chemical_formula_sum   'Li16 Co8 Si8 O32'
_cell_volume   719.17941684
_cell_formula_units_Z   8
loop_
 _symmetry_equiv_pos_site_id
 _symmetry_equiv_pos_as_xyz
  1  'x, y, z'
loop_
 _atom_site_type_symbol
 _atom_site_label
 _atom_site_symmetry_multiplicity
 _atom_site_fract_x
 _atom_site_fract_y
 _atom_site_fract_z
 _atom_site_occupancy
  Li  Li0  1  0.99999900  0.98651500  0.55325100  1
  Li  Li1  1  0.50044800  0.96890500  0.94687000  1
  Li  Li2  1  0.40676500  0.21358200  0.29922200  1
  Li  Li3  1  0.88666600  0.20681900  0.20540500  1
  Li  Li4  1  0.88666600  0.29318100  0.70540500  1
  Li  Li5  1  0.40676500  0.28641800  0.79922200  1
  Li  Li6  1  0.50044800  0.53109500  0.44687000  1
  Li  Li7  1  0.99999900  0.51348500  0.05325100  1
  Li  Li8  1  0.49955200  0.46890500  0.94687000  1
  Li  Li9  1  0.00000100  0.48651500  0.55325100  1
  Li  Li10  1  0.59323500  0.71358200  0.29922200  1
  Li  Li11  1  0.11333400  0.70681900  0.20540500  1
  Li  Li12  1  0.11333400  0.79318100  0.70540500  1
  Li  Li13  1  0.59323500  0.78641800  0.79922200  1
  Li  Li14  1  0.49955200  0.03109500  0.44687000  1
  Li  Li15  1  0.00000100  0.01348500  0.05325100  1
  Co  Co0  1  0.99960500  0.03139000  0.81218000  1
  Co  Co1  1  0.50887900  0.21352100  0.06234200  1
  Co  Co2  1  0.50887900  0.28647900  0.56234200  1
  Co  Co3  1  0.99960500  0.46861000  0.31218000  1
  Co  Co4  1  0.00039500  0.53139000  0.81218000  1
  Co  Co5  1  0.49112100  0.71352100  0.06234200  1
  Co  Co6  1  0.49112100  0.78647900  0.56234200  1
  Co  Co7  1  0.00039500  0.96861000  0.31218000  1
  Si  Si0  1  0.50709200  0.03018800  0.69135500  1
  Si  Si1  1  0.00382200  0.21763200  0.43372100  1
  Si  Si2  1  0.00382200  0.28236800  0.93372100  1
  Si  Si3  1  0.50709200  0.46981200  0.19135500  1
  Si  Si4  1  0.49290800  0.53018800  0.69135500  1
  Si  Si5  1  0.99617800  0.71763200  0.43372100  1
  Si  Si6  1  0.99617800  0.78236800  0.93372100  1
  Si  Si7  1  0.49290800  0.96981200  0.19135500  1
  O  O0  1  0.36502000  0.02317600  0.29732600  1
  O  O1  1  0.79825500  0.01341400  0.18981700  1
  O  O2  1  0.84963300  0.07995200  0.41922600  1
  O  O3  1  0.36162900  0.03955700  0.09312600  1
  O  O4  1  0.56539000  0.18950600  0.68995000  1
  O  O5  1  0.06624300  0.22043500  0.82147800  1
  O  O6  1  0.27620200  0.17777800  0.48618400  1
  O  O7  1  0.84056400  0.17494800  0.99862700  1
  O  O8  1  0.84056400  0.32505200  0.49862700  1
  O  O9  1  0.27620200  0.32222200  0.98618400  1
  O  O10  1  0.06624300  0.27956500  0.32147800  1
  O  O11  1  0.56539000  0.31049400  0.18995000  1
  O  O12  1  0.36162900  0.46044300  0.59312600  1
  O  O13  1  0.84963300  0.42004800  0.91922600  1
  O  O14  1  0.79825500  0.48658600  0.68981700  1
  O  O15  1  0.36502000  0.47682400  0.79732600  1
  O  O16  1  0.63498000  0.52317600  0.29732600  1
  O  O17  1  0.20174500  0.51341400  0.18981700  1
  O  O18  1  0.15036700  0.57995200  0.41922600  1
  O  O19  1  0.63837100  0.53955700  0.09312600  1
  O  O20  1  0.43461000  0.68950600  0.68995000  1
  O  O21  1  0.93375700  0.72043500  0.82147800  1
  O  O22  1  0.72379800  0.67777800  0.48618400  1
  O  O23  1  0.15943600  0.67494800  0.99862700  1
  O  O24  1  0.15943600  0.82505200  0.49862700  1
  O  O25  1  0.72379800  0.82222200  0.98618400  1
  O  O26  1  0.93375700  0.77956500  0.32147800  1
  O  O27  1  0.43461000  0.81049400  0.18995000  1
  O  O28  1  0.63837100  0.96044300  0.59312600  1
  O  O29  1  0.15036700  0.92004800  0.91922600  1
  O  O30  1  0.20174500  0.98658600  0.68981700  1
  O  O31  1  0.63498000  0.97682400  0.79732600  1
loop_
_geom_bond_atom_site_label_1
_geom_bond_atom_site_label_2
_geom_bond_distance
_geom_bond_site_symmetry_2
Li0 O28 1.985096 1_555
Li0 O24 1.993509 1_655
Li0 O30 2.112363 1_655
Li0 O2 2.182010 1_565
Li1 O29 1.935658 1_555
Li1 O25 1.976721 1_555
Li1 O31 2.124985 1_555
Li1 O3 2.211690 1_566
Li2 O10 1.929891 1_555
Li2 O11 1.954482 1_555
Li2 O0 1.965092 1_555
Li3 O10 1.964172 1_655
Li3 O11 2.000499 1_555
Li3 O1 2.047452 1_555
Li4 O5 1.964172 1_655
Li4 O4 2.000499 1_555
Li4 O14 2.047452 1_555
Li5 O5 1.929891 1_555
Li5 O4 1.954482 1_555
Li5 O15 1.965092 1_555
Li6 O18 1.935658 1_555
Li6 O22 1.976721 1_555
Li6 O16 2.124985 1_555
Li6 O12 2.211690 1_555
Li7 O19 1.985096 1_555
Li7 O23 1.993509 1_654
Li7 O17 2.112363 1_655
Li7 O13 2.182010 1_554
Li8 O13 1.935658 1_555
Li8 O9 1.976721 1_555
Li8 O15 2.124985 1_555
Li8 O19 2.211690 1_556
Li9 O12 1.985096 1_555
Li9 O8 1.993509 1_455
Li9 O14 2.112363 1_455
Li9 O18 2.182010 1_555
Li10 O26 1.929891 1_555
Li10 O27 1.954482 1_555
Li10 O16 1.965092 1_555
Li11 O26 1.964172 1_455
Li11 O27 2.000499 1_555
Li11 O17 2.047452 1_555
Li12 O21 1.964172 1_455
Li12 O20 2.000499 1_555
Li12 O30 2.047452 1_555
Li13 O21 1.929891 1_555
Li13 O20 1.954482 1_555
Li13 O31 1.965092 1_555
Li14 O2 1.935658 1_555
Li14 O6 1.976721 1_555
Li14 O0 2.124985 1_555
Li14 O28 2.211690 1_545
Li15 O3 1.985096 1_555
Li15 O7 1.993509 1_454
Li15 O1 2.112363 1_455
Li15 O29 2.182010 1_544
Co0 O5 1.973847 1_655
Co0 O29 1.995745 1_645
Co0 O31 1.999049 1_545
Co0 O30 2.004408 1_645
Co1 O9 1.940925 1_554
Co1 O7 1.974803 1_554
Co1 O3 1.986784 1_555
Co1 O11 1.999655 1_555
Co2 O6 1.940925 1_555
Co2 O8 1.974803 1_555
Co2 O12 1.986784 1_555
Co2 O4 1.999655 1_555
Co3 O10 1.973847 1_655
Co3 O18 1.995745 1_655
Co3 O16 1.999049 1_555
Co3 O17 2.004408 1_655
Co4 O21 1.973847 1_455
Co4 O13 1.995745 1_455
Co4 O15 1.999049 1_555
Co4 O14 2.004408 1_455
Co5 O25 1.940925 1_554
Co5 O23 1.974803 1_554
Co5 O19 1.986784 1_555
Co5 O27 1.999655 1_555
Co6 O22 1.940925 1_555
Co6 O24 1.974803 1_555
Co6 O28 1.986784 1_555
Co6 O20 1.999655 1_555
Co7 O26 1.973847 1_455
Co7 O2 1.995745 1_465
Co7 O0 1.999049 1_565
Co7 O1 2.004408 1_465
O0 Si7 1.662184 1_545
O1 Si7 1.659962 1_545
O2 Si1 1.637974 1_655
O3 Si7 1.647835 1_545
O4 Si0 1.662274 1_555
O5 Si2 1.664612 1_555
O6 Si1 1.641373 1_555
O7 Si2 1.643177 1_655
O8 Si1 1.643177 1_655
O9 Si2 1.641373 1_555
O10 Si1 1.664612 1_555
O11 Si3 1.662274 1_555
O12 Si4 1.647835 1_555
O13 Si2 1.637974 1_655
O14 Si4 1.659962 1_555
O15 Si4 1.662184 1_555
O16 Si3 1.662184 1_555
O17 Si3 1.659962 1_555
O18 Si5 1.637974 1_455
O19 Si3 1.647835 1_555
O20 Si4 1.662274 1_555
O21 Si6 1.664612 1_555
O22 Si5 1.641373 1_555
O23 Si6 1.643177 1_455
O24 Si5 1.643177 1_455
O25 Si6 1.641373 1_555
O26 Si5 1.664612 1_555
O27 Si7 1.662274 1_555
O28 Si0 1.647835 1_565
O29 Si6 1.637974 1_455
O30 Si0 1.659962 1_565
O31 Si0 1.662184 1_565
