# generated using pymatgen
data_Sr(SiAu)2
_symmetry_space_group_name_H-M   'P 1'
_cell_length_a   4.43280680
_cell_length_b   4.43280696
_cell_length_c   5.94547480
_cell_angle_alpha   111.88769807
_cell_angle_beta   111.88769277
_cell_angle_gamma   89.99998128
_symmetry_Int_Tables_number   1
_chemical_formula_structural   Sr(SiAu)2
_chemical_formula_sum   'Sr1 Si2 Au2'
_cell_volume   99.27275359
_cell_formula_units_Z   1
loop_
 _symmetry_equiv_pos_site_id
 _symmetry_equiv_pos_as_xyz
  1  'x, y, z'
loop_
 _atom_site_type_symbol
 _atom_site_label
 _atom_site_symmetry_multiplicity
 _atom_site_fract_x
 _atom_site_fract_y
 _atom_site_fract_z
 _atom_site_occupancy
  Sr  Sr0  1  -0.00000000  -0.00000000  0.00000000  1
  Si  Si0  1  0.61754920  0.61754920  0.23509740  1
  Si  Si1  1  0.38245080  0.38245080  0.76490260  1
  Au  Au0  1  0.25000000  0.75000000  0.50000000  1
  Au  Au1  1  0.75000000  0.25000000  0.50000000  1
loop_
_geom_bond_atom_site_label_1
_geom_bond_atom_site_label_2
_geom_bond_distance
_geom_bond_site_symmetry_2
Si0 Si1 2.375474 1_554
Si0 Sr0 3.351953 1_665
Si0 Sr0 3.351955 1_655
Si0 Sr0 3.351955 1_565
Si0 Sr0 3.351959 1_555
Si1 Sr0 3.351953 1_556
Si1 Sr0 3.351955 1_566
Si1 Sr0 3.351955 1_656
Si1 Sr0 3.351959 1_666
Au0 Si1 2.589116 1_565
Au0 Si0 2.589116 1_455
Au0 Si0 2.589120 1_555
Au0 Si1 2.589120 1_555
Au0 Sr0 3.360563 1_555
Au0 Sr0 3.360563 1_666
Au0 Sr0 3.360564 1_566
Au0 Sr0 3.360564 1_565
Au1 Si0 2.589116 1_545
Au1 Si1 2.589116 1_655
Au1 Si1 2.589120 1_555
Au1 Si0 2.589120 1_555
Au1 Sr0 3.360563 1_666
Au1 Sr0 3.360563 1_555
Au1 Sr0 3.360564 1_655
Au1 Sr0 3.360564 1_656
