# generated using pymatgen
data_Li5AlO4
_symmetry_space_group_name_H-M   'P 1'
_cell_length_a   4.57360415
_cell_length_b   6.24659526
_cell_length_c   6.36120716
_cell_angle_alpha   90.00000000
_cell_angle_beta   90.00000000
_cell_angle_gamma   90.00000000
_symmetry_Int_Tables_number   1
_chemical_formula_structural   Li5AlO4
_chemical_formula_sum   'Li10 Al2 O8'
_cell_volume   181.73621537
_cell_formula_units_Z   2
loop_
 _symmetry_equiv_pos_site_id
 _symmetry_equiv_pos_as_xyz
  1  'x, y, z'
loop_
 _atom_site_type_symbol
 _atom_site_label
 _atom_site_symmetry_multiplicity
 _atom_site_fract_x
 _atom_site_fract_y
 _atom_site_fract_z
 _atom_site_occupancy
  Li  Li0  1  0.74577658  0.48903098  0.44753464  1
  Li  Li1  1  0.74577658  0.01096902  0.05246536  1
  Li  Li2  1  0.25422342  0.98903098  0.55246536  1
  Li  Li3  1  0.25422342  0.51096902  0.94753464  1
  Li  Li4  1  0.25422342  0.51096902  0.55246536  1
  Li  Li5  1  0.25422342  0.98903098  0.94753464  1
  Li  Li6  1  0.74577658  0.01096902  0.44753464  1
  Li  Li7  1  0.74577658  0.48903098  0.05246536  1
  Li  Li8  1  0.79485573  0.25000000  0.75000000  1
  Li  Li9  1  0.20514427  0.75000000  0.25000000  1
  Al  Al0  1  0.22476311  0.25000000  0.25000000  1
  Al  Al1  1  0.77523689  0.75000000  0.75000000  1
  O  O0  1  0.01470284  0.25000000  0.48319543  1
  O  O1  1  0.01470284  0.25000000  0.01680457  1
  O  O2  1  0.56905736  0.98722511  0.75000000  1
  O  O3  1  0.56905736  0.51277489  0.75000000  1
  O  O4  1  0.43094264  0.48722511  0.25000000  1
  O  O5  1  0.43094264  0.01277489  0.25000000  1
  O  O6  1  0.98529716  0.75000000  0.98319543  1
  O  O7  1  0.98529716  0.75000000  0.51680457  1
loop_
_geom_bond_atom_site_label_1
_geom_bond_atom_site_label_2
_geom_bond_distance
_geom_bond_site_symmetry_2
Li0 O4 1.911139 1_555
Li0 O0 1.947743 1_655
Li0 O7 2.012876 1_555
Li0 O3 2.092177 1_555
Li1 O5 1.911139 1_555
Li1 O1 1.947743 1_655
Li1 O6 2.012876 1_544
Li1 O2 2.092177 1_544
Li2 O2 1.911139 1_555
Li2 O7 1.947743 1_455
Li2 O0 2.012876 1_565
Li2 O5 2.092177 1_565
Li3 O3 1.911139 1_555
Li3 O6 1.947743 1_455
Li3 O1 2.012876 1_556
Li3 O4 2.092177 1_556
Li4 O3 1.911139 1_555
Li4 O7 1.947743 1_455
Li4 O0 2.012876 1_555
Li4 O4 2.092177 1_555
Li5 O2 1.911139 1_555
Li5 O6 1.947743 1_455
Li5 O1 2.012876 1_566
Li5 O5 2.092177 1_566
Li6 O5 1.911139 1_555
Li6 O0 1.947743 1_655
Li6 O7 2.012876 1_545
Li6 O2 2.092177 1_545
Li7 O4 1.911139 1_555
Li7 O1 1.947743 1_655
Li7 O6 2.012876 1_554
Li7 O3 2.092177 1_554
Li8 O2 1.939290 1_545
Li8 O3 1.939290 1_555
Li8 O1 1.972689 1_656
Li8 O0 1.972689 1_655
Li9 O5 1.939290 1_565
Li9 O4 1.939290 1_555
Li9 O7 1.972689 1_455
Li9 O6 1.972689 1_454
Al0 O5 1.756444 1_555
Al0 O4 1.756444 1_555
Al0 O1 1.767341 1_555
Al0 O0 1.767341 1_555
Al1 O2 1.756444 1_555
Al1 O3 1.756444 1_555
Al1 O6 1.767341 1_555
Al1 O7 1.767341 1_555
