# generated using pymatgen
data_K3SbPCO7
_symmetry_space_group_name_H-M   'P 1'
_cell_length_a   7.14307100
_cell_length_b   6.03502500
_cell_length_c   10.32556260
_cell_angle_alpha   84.47996078
_cell_angle_beta   90.00000000
_cell_angle_gamma   90.00000000
_symmetry_Int_Tables_number   1
_chemical_formula_structural   K3SbPCO7
_chemical_formula_sum   'K6 Sb2 P2 C2 O14'
_cell_volume   443.05647691
_cell_formula_units_Z   2
loop_
 _symmetry_equiv_pos_site_id
 _symmetry_equiv_pos_as_xyz
  1  'x, y, z'
loop_
 _atom_site_type_symbol
 _atom_site_label
 _atom_site_symmetry_multiplicity
 _atom_site_fract_x
 _atom_site_fract_y
 _atom_site_fract_z
 _atom_site_occupancy
  K  K0  1  0.75000000  0.24012500  0.92173200  1
  K  K1  1  0.00085200  0.77936800  0.73018100  1
  K  K2  1  0.49914800  0.77936800  0.73018100  1
  K  K3  1  0.50085200  0.22063200  0.26981900  1
  K  K4  1  0.99914800  0.22063200  0.26981900  1
  K  K5  1  0.25000000  0.75987500  0.07826800  1
  Sb  Sb0  1  0.25000000  0.28019300  0.64679900  1
  Sb  Sb1  1  0.75000000  0.71980700  0.35320100  1
  P  P0  1  0.75000000  0.32768700  0.59259500  1
  P  P1  1  0.25000000  0.67231300  0.40740500  1
  C  C0  1  0.25000000  0.27630600  0.94423000  1
  C  C1  1  0.75000000  0.72369400  0.05577000  1
  O  O0  1  0.75000000  0.77256600  0.93093800  1
  O  O1  1  0.25000000  0.11110100  0.86763500  1
  O  O2  1  0.25000000  0.48022800  0.89238000  1
  O  O3  1  0.92483800  0.25616500  0.67988000  1
  O  O4  1  0.57516200  0.25616500  0.67988000  1
  O  O5  1  0.75000000  0.59157700  0.56993300  1
  O  O6  1  0.25000000  0.77404700  0.53660200  1
  O  O7  1  0.75000000  0.22595300  0.46339800  1
  O  O8  1  0.25000000  0.40842300  0.43006700  1
  O  O9  1  0.42483800  0.74383500  0.32012000  1
  O  O10  1  0.07516200  0.74383500  0.32012000  1
  O  O11  1  0.75000000  0.51977200  0.10762000  1
  O  O12  1  0.75000000  0.88889900  0.13236500  1
  O  O13  1  0.25000000  0.22743400  0.06906200  1
loop_
_geom_bond_atom_site_label_1
_geom_bond_atom_site_label_2
_geom_bond_distance
_geom_bond_site_symmetry_2
K0 O11 2.674986 1_556
K0 O3 2.785473 1_555
K0 O4 2.785473 1_555
K0 O0 2.814177 1_545
K0 O12 2.887255 1_546
K0 O0 3.223827 1_555
K1 O6 2.678787 1_555
K1 O0 2.737351 1_455
K1 O5 2.755686 1_455
K1 O3 2.925227 1_465
K1 O2 2.941035 1_555
K1 O1 3.120318 1_565
K2 O6 2.678787 1_555
K2 O0 2.737351 1_555
K2 O5 2.755686 1_555
K2 O4 2.925227 1_565
K2 O2 2.941035 1_555
K2 O1 3.120318 1_565
K3 O7 2.678787 1_555
K3 O13 2.737351 1_555
K3 O8 2.755686 1_555
K3 O9 2.925227 1_545
K3 O11 2.941035 1_555
K3 O12 3.120318 1_545
K4 O7 2.678787 1_555
K4 O13 2.737351 1_655
K4 O8 2.755686 1_655
K4 O10 2.925227 1_645
K4 O11 2.941035 1_555
K4 O12 3.120318 1_545
K5 O2 2.674986 1_554
K5 O9 2.785473 1_555
K5 O10 2.785473 1_555
K5 O13 2.814177 1_565
K5 O1 2.887255 1_564
K5 O13 3.223827 1_555
C0 O2 1.293998 1_555
C0 O13 1.294323 1_556
C0 O1 1.330882 1_555
C1 O11 1.293998 1_555
C1 O0 1.294323 1_554
C1 O12 1.330882 1_555
O1 Sb0 2.406919 1_555
O3 P0 1.575897 1_555
O3 Sb0 2.350086 1_655
O4 P0 1.575897 1_555
O4 Sb0 2.350086 1_555
O5 P0 1.587255 1_555
O5 Sb1 2.296476 1_555
O6 P1 1.521240 1_555
O7 P0 1.521240 1_555
O8 P1 1.587255 1_555
O8 Sb0 2.296476 1_555
O9 P1 1.575897 1_555
O9 Sb1 2.350086 1_555
O10 P1 1.575897 1_555
O10 Sb1 2.350086 1_455
O12 Sb1 2.406919 1_555
