# generated using pymatgen
data_Ca3Y9Al18CrSiO48
_symmetry_space_group_name_H-M   'P 1'
_cell_length_a   10.49929600
_cell_length_b   10.50177627
_cell_length_c   10.50375461
_cell_angle_alpha   109.32770414
_cell_angle_beta   109.31432781
_cell_angle_gamma   109.55634273
_symmetry_Int_Tables_number   1
_chemical_formula_structural   Ca3Y9Al18CrSiO48
_chemical_formula_sum   'Ca3 Y9 Al18 Cr1 Si1 O48'
_cell_volume   893.90697907
_cell_formula_units_Z   1
loop_
 _symmetry_equiv_pos_site_id
 _symmetry_equiv_pos_as_xyz
  1  'x, y, z'
loop_
 _atom_site_type_symbol
 _atom_site_label
 _atom_site_symmetry_multiplicity
 _atom_site_fract_x
 _atom_site_fract_y
 _atom_site_fract_z
 _atom_site_occupancy
  Ca  Ca0  1  0.11797400  0.87094300  0.24229100  1
  Ca  Ca1  1  0.62792300  0.25241000  0.87803000  1
  Ca  Ca2  1  0.24505300  0.61779200  0.37306500  1
  Y  Y0  1  0.36853600  0.74292000  0.11929200  1
  Y  Y1  1  0.75458100  0.38077500  0.62785000  1
  Y  Y2  1  0.88144900  0.13057500  0.75858500  1
  Y  Y3  1  0.74808200  0.87543500  0.12106200  1
  Y  Y4  1  0.62474900  0.37233500  0.24795400  1
  Y  Y5  1  0.87492800  0.75411400  0.62929800  1
  Y  Y6  1  0.12665200  0.24875600  0.37161200  1
  Y  Y7  1  0.37380300  0.62451300  0.74719700  1
  Y  Y8  1  0.25359800  0.12734500  0.87658000  1
  Al  Al0  1  0.37344700  0.12804700  0.25109300  1
  Al  Al1  1  0.25129500  0.37749800  0.12705300  1
  Al  Al2  1  0.49896100  0.49953900  0.49875400  1
  Al  Al3  1  0.12373100  0.74850400  0.87361100  1
  Al  Al4  1  0.75052000  0.12569700  0.37195200  1
  Al  Al5  1  0.62949900  0.75081900  0.37406100  1
  Al  Al6  1  0.00185300  0.00074600  0.00257300  1
  Al  Al7  1  0.12545800  0.37479700  0.74974400  1
  Al  Al8  1  0.00123000  0.00103800  0.50284000  1
  Al  Al9  1  0.49924400  0.50144100  0.99898600  1
  Al  Al10  1  0.00412500  0.49836400  0.49897300  1
  Al  Al11  1  0.37117200  0.24975400  0.62797000  1
  Al  Al12  1  0.87320500  0.25029000  0.12421800  1
  Al  Al13  1  0.24897300  0.87213000  0.62985300  1
  Al  Al14  1  0.50033100  0.00181500  0.00053100  1
  Al  Al15  1  0.74996000  0.62531600  0.87473600  1
  Al  Al16  1  0.62617400  0.87107000  0.74977500  1
  Al  Al17  1  0.99739700  0.49783400  0.99817500  1
  Cr  Cr0  1  0.49568900  0.99866300  0.49924000  1
  Si  Si0  1  0.87485300  0.62651800  0.24991900  1
  O  O0  1  0.11622000  0.69440300  0.01570200  1
  O  O1  1  0.52267900  0.32080600  0.40275100  1
  O  O2  1  0.70006900  0.58135500  0.67895800  1
  O  O3  1  0.38742200  0.98287600  0.30374900  1
  O  O4  1  0.19875100  0.52035900  0.11612900  1
  O  O5  1  0.48757900  0.80953800  0.38338800  1
  O  O6  1  0.69766800  0.11918000  0.51855600  1
  O  O7  1  0.59749400  0.98110800  0.17957600  1
  O  O8  1  0.97919400  0.60022500  0.67516100  1
  O  O9  1  0.80249900  0.32272800  0.42120100  1
  O  O10  1  0.82232200  0.92157200  0.80125500  1
  O  O11  1  0.40441600  0.38353100  0.08220900  1
  O  O12  1  0.97868000  0.38068800  0.79696900  1
  O  O13  1  0.62102200  0.59997100  0.41900900  1
  O  O14  1  0.57778400  0.69941800  0.17817800  1
  O  O15  1  0.41825500  0.11918800  0.10017100  1
  O  O16  1  0.82135000  0.90350900  0.52159400  1
  O  O17  1  0.10155600  0.18055500  0.98103000  1
  O  O18  1  0.89830500  0.07547700  0.37932100  1
  O  O19  1  0.32027500  0.79991200  0.92025900  1
  O  O20  1  0.11926400  0.41822300  0.59891100  1
  O  O21  1  0.08063400  0.17979700  0.70123700  1
  O  O22  1  0.69106800  0.49747800  0.11200100  1
  O  O23  1  0.08040400  0.90060700  0.88191800  1
  O  O24  1  0.91822300  0.09844900  0.11715100  1
  O  O25  1  0.31996200  0.51967400  0.90037200  1
  O  O26  1  0.91103300  0.80754600  0.30156500  1
  O  O27  1  0.88543600  0.58450800  0.39217600  1
  O  O28  1  0.67954000  0.20178700  0.08586300  1
  O  O29  1  0.09859400  0.91859800  0.61889100  1
  O  O30  1  0.89594300  0.82128700  0.01593800  1
  O  O31  1  0.17732200  0.09936700  0.48451400  1
  O  O32  1  0.58156000  0.88289600  0.90122900  1
  O  O33  1  0.42078300  0.30339000  0.82361800  1
  O  O34  1  0.38254200  0.39987400  0.58134400  1
  O  O35  1  0.00204400  0.61092100  0.19628300  1
  O  O36  1  0.59829100  0.61866800  0.91938000  1
  O  O37  1  0.17997600  0.08255700  0.19980200  1
  O  O38  1  0.19897800  0.67875900  0.58313500  1
  O  O39  1  0.01554600  0.39500200  0.32073500  1
  O  O40  1  0.39822600  0.01531700  0.82174400  1
  O  O41  1  0.31088400  0.89025200  0.49044200  1
  O  O42  1  0.51389400  0.19383800  0.60962900  1
  O  O43  1  0.80264500  0.48224800  0.87900800  1
  O  O44  1  0.61647200  0.01265800  0.69048000  1
  O  O45  1  0.30261700  0.41503000  0.31981100  1
  O  O46  1  0.48488300  0.67848600  0.60142500  1
  O  O47  1  0.88525000  0.29858900  0.97935400  1
loop_
_geom_bond_atom_site_label_1
_geom_bond_atom_site_label_2
_geom_bond_distance
_geom_bond_site_symmetry_2
Ca0 O37 2.332781 1_565
Ca0 O35 2.384113 1_555
Ca0 O26 2.398430 1_455
Ca0 O3 2.421810 1_555
Ca0 O30 2.461334 1_455
Ca0 O0 2.475775 1_555
Ca0 O31 2.554716 1_565
Ca0 O41 2.611569 1_555
Ca1 O33 2.345837 1_555
Ca1 O28 2.349562 1_556
Ca1 O47 2.355087 1_555
Ca1 O42 2.426123 1_555
Ca1 O43 2.489608 1_555
Ca1 O40 2.535275 1_555
Ca1 O44 2.567509 1_555
Ca1 O22 2.587674 1_556
Ca2 O38 2.343287 1_555
Ca2 O45 2.347151 1_555
Ca2 O4 2.353291 1_555
Ca2 O41 2.441732 1_555
Ca2 O39 2.465958 1_555
Ca2 O46 2.533454 1_555
Ca2 O35 2.572359 1_555
Ca2 O5 2.605891 1_555
Al0 O37 1.760893 1_555
Al0 O15 1.779889 1_555
Al0 O1 1.783643 1_555
Al0 O3 1.818220 1_545
Al1 O45 1.775647 1_555
Al1 O4 1.787337 1_555
Al1 O17 1.797229 1_554
Al1 O11 1.806365 1_555
Al2 O46 1.914775 1_555
Al2 O45 1.917809 1_555
Al2 O34 1.946305 1_555
Al2 O1 1.956574 1_555
Al2 O2 1.960741 1_555
Al2 O13 1.961224 1_555
Al3 O0 1.779244 1_556
Al3 O23 1.785089 1_555
Al3 O19 1.788881 1_555
Al3 O8 1.802681 1_455
Al4 O7 1.777158 1_545
Al4 O18 1.785258 1_555
Al4 O9 1.787639 1_555
Al4 O6 1.814791 1_555
Al5 O14 1.774579 1_555
Al5 O16 1.777085 1_555
Al5 O13 1.780143 1_555
Al5 O5 1.811589 1_555
Al6 O30 1.919237 1_445
Al6 O37 1.926310 1_555
Al6 O24 1.938288 1_455
Al6 O23 1.944756 1_544
Al6 O17 1.956768 1_554
Al6 O10 1.966247 1_444
Al7 O20 1.775451 1_555
Al7 O12 1.781558 1_455
Al7 O25 1.782599 1_555
Al7 O21 1.783331 1_555
Al8 O31 1.900122 1_555
Al8 O16 1.933743 1_445
Al8 O29 1.935775 1_545
Al8 O18 1.942076 1_455
Al8 O21 1.943024 1_555
Al8 O26 2.009762 1_445
Al9 O36 1.922425 1_555
Al9 O33 1.926327 1_555
Al9 O25 1.932766 1_555
Al9 O11 1.937936 1_556
Al9 O14 1.944346 1_556
Al9 O22 1.993605 1_556
Al10 O39 1.894231 1_555
Al10 O38 1.912135 1_555
Al10 O20 1.923054 1_555
Al10 O9 1.948202 1_455
Al10 O8 1.958354 1_455
Al10 O27 2.032596 1_455
Al11 O33 1.772297 1_555
Al11 O31 1.775190 1_555
Al11 O34 1.778568 1_555
Al11 O42 1.825527 1_555
Al12 O39 1.779384 1_655
Al12 O47 1.784327 1_554
Al12 O28 1.784700 1_555
Al12 O24 1.794742 1_555
Al13 O38 1.759712 1_555
Al13 O40 1.762448 1_565
Al13 O29 1.782412 1_555
Al13 O41 1.826018 1_555
Al14 O40 1.908478 1_554
Al14 O28 1.935721 1_555
Al14 O7 1.942917 1_545
Al14 O15 1.952201 1_555
Al14 O32 1.952990 1_544
Al14 O19 1.964506 1_544
Al15 O30 1.774395 1_556
Al15 O43 1.774826 1_555
Al15 O36 1.789349 1_555
Al15 O2 1.792605 1_555
Al16 O46 1.759363 1_555
Al16 O10 1.776845 1_555
Al16 O32 1.779520 1_555
Al16 O44 1.811540 1_565
Al17 O43 1.929208 1_555
Al17 O0 1.929795 1_656
Al17 O47 1.930428 1_555
Al17 O4 1.949066 1_656
Al17 O12 1.964944 1_555
Al17 O35 2.000267 1_656
Cr0 O41 1.844568 1_555
Cr0 O42 1.897397 1_565
Cr0 O3 1.908007 1_555
Cr0 O5 1.910817 1_555
Cr0 O44 1.912988 1_565
Cr0 O6 1.971978 1_565
O0 Y0 2.298717 1_555
O1 Y4 2.330632 1_555
O1 Y1 2.468778 1_555
O2 Y1 2.305363 1_555
O2 Y5 2.442177 1_555
O3 Y0 2.514534 1_555
O4 Y0 2.400383 1_555
O5 Y0 2.362870 1_555
O6 Y1 2.362571 1_555
O6 Y2 2.553751 1_555
O7 Y3 2.339883 1_555
O7 Y0 2.521056 1_555
O8 Y5 2.322324 1_555
O8 Y1 2.438821 1_555
O9 Y1 2.321210 1_555
O9 Y4 2.469343 1_555
O10 Y2 2.308006 1_565
O10 Y5 2.422335 1_555
O11 Y8 2.334476 1_554
O11 Y4 2.459619 1_555
O12 Y2 2.309873 1_555
O12 Y1 2.435012 1_555
O13 Y5 2.335597 1_555
O13 Y4 2.492103 1_555
O14 Y0 2.319047 1_555
O14 Y3 2.490944 1_555
O15 Y4 2.315398 1_555
O15 Y8 2.461347 1_554
O16 Y5 2.324332 1_555
O16 Y2 2.511058 1_565
O17 Y8 2.326823 1_555
O17 Y2 2.424801 1_455
O18 Y3 2.332148 1_545
O18 Y6 2.524111 1_655
O19 Y0 2.305668 1_556
O19 Y7 2.483067 1_555
O20 Y7 2.323434 1_555
O20 Y6 2.505155 1_555
O21 Y2 2.306363 1_455
O21 Y8 2.474290 1_555
O22 Si0 1.661093 1_555
O22 Y4 2.353437 1_555
O23 Y5 2.313219 1_455
O23 Y8 2.497346 1_565
O24 Y6 2.334519 1_655
O24 Y3 2.447304 1_545
O25 Y7 2.340489 1_555
O25 Y0 2.428887 1_556
O26 Si0 1.658424 1_555
O26 Y3 2.568205 1_555
O27 Si0 1.673043 1_555
O27 Y4 2.385602 1_555
O27 Y5 2.600947 1_555
O28 Y4 2.399311 1_555
O29 Y8 2.355949 1_565
O29 Y5 2.467709 1_455
O30 Y3 2.293901 1_555
O31 Y6 2.350237 1_555
O32 Y7 2.352784 1_555
O32 Y3 2.436320 1_556
O33 Y8 2.441887 1_555
O34 Y6 2.346482 1_555
O34 Y7 2.477677 1_555
O35 Si0 1.646387 1_455
O36 Y3 2.325523 1_556
O36 Y7 2.486064 1_555
O37 Y6 2.419531 1_555
O38 Y7 2.433281 1_555
O39 Y6 2.309879 1_555
O40 Y8 2.312514 1_555
O42 Y1 2.527199 1_555
O43 Y1 2.290911 1_555
O44 Y2 2.361322 1_555
O45 Y6 2.427465 1_555
O46 Y7 2.310641 1_555
O47 Y2 2.382316 1_555
