# generated using pymatgen
data_Sr(ZnAs)2
_symmetry_space_group_name_H-M   'P 1'
_cell_length_a   4.21587802
_cell_length_b   4.21587697
_cell_length_c   7.27099062
_cell_angle_alpha   90.00000000
_cell_angle_beta   90.00000000
_cell_angle_gamma   120.00000021
_symmetry_Int_Tables_number   1
_chemical_formula_structural   Sr(ZnAs)2
_chemical_formula_sum   'Sr1 Zn2 As2'
_cell_volume   111.91806189
_cell_formula_units_Z   1
loop_
 _symmetry_equiv_pos_site_id
 _symmetry_equiv_pos_as_xyz
  1  'x, y, z'
loop_
 _atom_site_type_symbol
 _atom_site_label
 _atom_site_symmetry_multiplicity
 _atom_site_fract_x
 _atom_site_fract_y
 _atom_site_fract_z
 _atom_site_occupancy
  Sr  Sr0  1  -0.00000000  -0.00000000  -0.00000000  1
  Zn  Zn0  1  0.66666700  0.33333300  0.37131616  1
  Zn  Zn1  1  0.33333300  0.66666700  0.62868384  1
  As  As0  1  0.66666700  0.33333300  0.72789612  1
  As  As1  1  0.33333300  0.66666700  0.27210388  1
loop_
_geom_bond_atom_site_label_1
_geom_bond_atom_site_label_2
_geom_bond_distance
_geom_bond_site_symmetry_2
As0 Zn1 2.538682 1_545
As0 Zn1 2.538682 1_655
As0 Zn1 2.538689 1_555
As0 Zn0 2.592690 1_555
As0 Sr0 3.136694 1_656
As0 Sr0 3.136697 1_666
As0 Sr0 3.136697 1_556
As1 Zn0 2.538682 1_565
As1 Zn0 2.538682 1_455
As1 Zn0 2.538689 1_555
As1 Zn1 2.592690 1_555
As1 Sr0 3.136694 1_565
As1 Sr0 3.136697 1_555
As1 Sr0 3.136697 1_665
