# generated using pymatgen
data_Li2Ti(BO3)2
_symmetry_space_group_name_H-M   'P 1'
_cell_length_a   4.99227200
_cell_length_b   6.87139992
_cell_length_c   8.07506008
_cell_angle_alpha   110.12188489
_cell_angle_beta   92.48470791
_cell_angle_gamma   89.55643147
_symmetry_Int_Tables_number   1
_chemical_formula_structural   Li2Ti(BO3)2
_chemical_formula_sum   'Li4 Ti2 B4 O12'
_cell_volume   259.84625967
_cell_formula_units_Z   2
loop_
 _symmetry_equiv_pos_site_id
 _symmetry_equiv_pos_as_xyz
  1  'x, y, z'
loop_
 _atom_site_type_symbol
 _atom_site_label
 _atom_site_symmetry_multiplicity
 _atom_site_fract_x
 _atom_site_fract_y
 _atom_site_fract_z
 _atom_site_occupancy
  Li  Li0  1  0.82672500  0.92164100  0.09982400  1
  Li  Li1  1  0.62814400  0.77555800  0.39808500  1
  Li  Li2  1  0.37185600  0.22444200  0.60191500  1
  Li  Li3  1  0.17327500  0.07835900  0.90017600  1
  Ti  Ti0  1  0.87760200  0.58968100  0.74984200  1
  Ti  Ti1  1  0.12239800  0.41031900  0.25015800  1
  B  B0  1  0.85478300  0.19053800  0.44756300  1
  B  B1  1  0.67337600  0.34554200  0.11317600  1
  B  B2  1  0.32662400  0.65445800  0.88682400  1
  B  B3  1  0.14521700  0.80946200  0.55243700  1
  O  O0  1  0.90089900  0.73368600  0.59890400  1
  O  O1  1  0.78502900  0.53582100  0.21822200  1
  O  O2  1  0.86608700  0.19704900  0.05472500  1
  O  O3  1  0.74297900  0.32912100  0.60046700  1
  O  O4  1  0.74527600  0.01130600  0.34818700  1
  O  O5  1  0.60019900  0.68727500  0.90941000  1
  O  O6  1  0.39980100  0.31272500  0.09059000  1
  O  O7  1  0.25472400  0.98869400  0.65181300  1
  O  O8  1  0.25702100  0.67087900  0.39953300  1
  O  O9  1  0.13391300  0.80295100  0.94527500  1
  O  O10  1  0.21497100  0.46417900  0.78177800  1
  O  O11  1  0.09910100  0.26631400  0.40109600  1
loop_
_geom_bond_atom_site_label_1
_geom_bond_atom_site_label_2
_geom_bond_distance
_geom_bond_site_symmetry_2
Li0 O4 1.945201 1_565
Li0 O9 2.005178 1_654
Li0 O2 2.058812 1_565
Li0 O5 2.100070 1_554
Li1 O4 1.900688 1_565
Li1 O1 1.966992 1_555
Li1 O8 1.994615 1_555
Li1 O0 2.165661 1_555
Li2 O7 1.900688 1_545
Li2 O10 1.966992 1_555
Li2 O3 1.994615 1_555
Li2 O11 2.165661 1_555
Li3 O7 1.945201 1_545
Li3 O2 2.005178 1_456
Li3 O9 2.058812 1_545
Li3 O6 2.100070 1_556
B0 O4 1.323631 1_555
B0 O3 1.409042 1_555
B0 O11 1.443440 1_655
B1 O2 1.371964 1_555
B1 O6 1.379960 1_555
B1 O1 1.395330 1_555
B2 O9 1.371964 1_555
B2 O5 1.379960 1_555
B2 O10 1.395330 1_555
B3 O7 1.323631 1_555
B3 O8 1.409042 1_555
B3 O0 1.443440 1_455
O0 Ti0 1.822665 1_555
O1 Ti1 1.933835 1_655
O2 Ti1 2.130287 1_655
O3 Ti0 1.890675 1_555
O5 Ti0 1.890419 1_555
O6 Ti1 1.890419 1_555
O8 Ti1 1.890675 1_555
O9 Ti0 2.130287 1_455
O10 Ti0 1.933835 1_455
O11 Ti1 1.822665 1_555
