# generated using pymatgen
data_Li2FeF4
_symmetry_space_group_name_H-M   'P 1'
_cell_length_a   8.90051345
_cell_length_b   8.90051345
_cell_length_c   8.90051347
_cell_angle_alpha   107.73372666
_cell_angle_beta   107.73372666
_cell_angle_gamma   107.73373308
_symmetry_Int_Tables_number   1
_chemical_formula_structural   Li2FeF4
_chemical_formula_sum   'Li12 Fe6 F24'
_cell_volume   575.04872676
_cell_formula_units_Z   6
loop_
 _symmetry_equiv_pos_site_id
 _symmetry_equiv_pos_as_xyz
  1  'x, y, z'
loop_
 _atom_site_type_symbol
 _atom_site_label
 _atom_site_symmetry_multiplicity
 _atom_site_fract_x
 _atom_site_fract_y
 _atom_site_fract_z
 _atom_site_occupancy
  Li  Li0  1  0.08140700  0.70289400  0.95113100  1
  Li  Li1  1  0.29710600  0.04886900  0.91859300  1
  Li  Li2  1  0.36133900  0.63477100  0.76955200  1
  Li  Li3  1  0.04886900  0.91859300  0.29710600  1
  Li  Li4  1  0.36522900  0.23044800  0.63866100  1
  Li  Li5  1  0.23044800  0.63866100  0.36522900  1
  Li  Li6  1  0.76955200  0.36133900  0.63477100  1
  Li  Li7  1  0.63477100  0.76955200  0.36133900  1
  Li  Li8  1  0.95113100  0.08140700  0.70289400  1
  Li  Li9  1  0.63866100  0.36522900  0.23044800  1
  Li  Li10  1  0.70289400  0.95113100  0.08140700  1
  Li  Li11  1  0.91859300  0.29710600  0.04886900  1
  Fe  Fe0  1  0.29098300  0.44526900  0.99411700  1
  Fe  Fe1  1  0.00588300  0.70901700  0.55473100  1
  Fe  Fe2  1  0.55473100  0.00588300  0.70901700  1
  Fe  Fe3  1  0.44526900  0.99411700  0.29098300  1
  Fe  Fe4  1  0.99411700  0.29098300  0.44526900  1
  Fe  Fe5  1  0.70901700  0.55473100  0.00588300  1
  F  F0  1  0.18013500  0.19037300  0.88977500  1
  F  F1  1  0.26069400  0.62990000  0.93123500  1
  F  F2  1  0.11022500  0.81986500  0.80962700  1
  F  F3  1  0.06876500  0.73930600  0.37010000  1
  F  F4  1  0.17884800  0.54948500  0.53541400  1
  F  F5  1  0.53235500  0.85915000  0.84810300  1
  F  F6  1  0.14085000  0.15189700  0.46764500  1
  F  F7  1  0.37010000  0.06876500  0.73930600  1
  F  F8  1  0.45051500  0.46458600  0.82115200  1
  F  F9  1  0.46458600  0.82115200  0.45051500  1
  F  F10  1  0.80962700  0.11022500  0.81986500  1
  F  F11  1  0.15189700  0.46764500  0.14085000  1
  F  F12  1  0.84810300  0.53235500  0.85915000  1
  F  F13  1  0.19037300  0.88977500  0.18013500  1
  F  F14  1  0.53541400  0.17884800  0.54948500  1
  F  F15  1  0.54948500  0.53541400  0.17884800  1
  F  F16  1  0.62990000  0.93123500  0.26069400  1
  F  F17  1  0.85915000  0.84810300  0.53235500  1
  F  F18  1  0.46764500  0.14085000  0.15189700  1
  F  F19  1  0.82115200  0.45051500  0.46458600  1
  F  F20  1  0.93123500  0.26069400  0.62990000  1
  F  F21  1  0.88977500  0.18013500  0.19037300  1
  F  F22  1  0.73930600  0.37010000  0.06876500  1
  F  F23  1  0.81986500  0.80962700  0.11022500  1
loop_
_geom_bond_atom_site_label_1
_geom_bond_atom_site_label_2
_geom_bond_distance
_geom_bond_site_symmetry_2
F0 Li1 1.889132 1_555
F0 Li8 1.899860 1_455
F0 Fe0 1.943616 1_555
F1 Li2 1.916996 1_555
F1 Li0 1.932221 1_555
F1 Fe0 1.955670 1_555
F2 Li0 1.889132 1_555
F2 Li1 1.899860 1_565
F2 Fe1 1.943616 1_555
F3 Li5 1.916996 1_555
F3 Li3 1.932221 1_555
F3 Fe1 1.955670 1_555
F4 Li2 1.944346 1_555
F4 Li5 2.017289 1_555
F4 Fe4 2.099540 1_455
F4 Fe1 2.399975 1_555
F5 Li2 1.855626 1_555
F5 Li10 1.890348 1_556
F5 Fe2 2.062626 1_565
F6 Li4 1.855626 1_555
F6 Li3 1.890348 1_545
F6 Fe4 2.062627 1_455
F7 Li4 1.916996 1_555
F7 Li1 1.932221 1_555
F7 Fe2 1.955670 1_555
F8 Li4 1.944346 1_555
F8 Li2 2.017289 1_555
F8 Fe5 2.099540 1_556
F8 Fe0 2.399975 1_555
F9 Li5 1.944346 1_555
F9 Li7 2.017289 1_555
F9 Fe2 2.099540 1_565
F9 Fe3 2.399975 1_555
F10 Li8 1.889132 1_555
F10 Li11 1.899860 1_556
F10 Fe2 1.943616 1_555
F11 Li5 1.855626 1_555
F11 Li11 1.890348 1_455
F11 Fe0 2.062626 1_554
F12 Li6 1.855626 1_555
F12 Li0 1.890348 1_655
F12 Fe5 2.062626 1_556
F13 Li3 1.889132 1_555
F13 Li0 1.899860 1_554
F13 Fe3 1.943616 1_555
F14 Li6 1.944346 1_555
F14 Li4 2.017289 1_555
F14 Fe3 2.099540 1_545
F14 Fe2 2.399975 1_555
F15 Li7 1.944346 1_555
F15 Li9 2.017289 1_555
F15 Fe0 2.099540 1_554
F15 Fe5 2.399975 1_555
F16 Li7 1.916996 1_555
F16 Li10 1.932221 1_555
F16 Fe3 1.955670 1_555
F17 Li7 1.855626 1_555
F17 Li8 1.890348 1_565
F17 Fe1 2.062627 1_655
F18 Li9 1.855626 1_555
F18 Li1 1.890348 1_554
F18 Fe3 2.062626 1_545
F19 Li9 1.944346 1_555
F19 Li6 2.017289 1_555
F19 Fe1 2.099540 1_655
F19 Fe4 2.399975 1_555
F20 Li6 1.916996 1_555
F20 Li8 1.932221 1_555
F20 Fe4 1.955670 1_555
F21 Li11 1.889132 1_555
F21 Li10 1.899860 1_545
F21 Fe4 1.943616 1_555
F22 Li9 1.916996 1_555
F22 Li11 1.932221 1_555
F22 Fe5 1.955670 1_555
F23 Li10 1.889132 1_555
F23 Li3 1.899860 1_655
F23 Fe5 1.943616 1_555
