# generated using pymatgen
data_Na2ZrSe3
_symmetry_space_group_name_H-M   'P 1'
_cell_length_a   6.95576935
_cell_length_b   6.95576935
_cell_length_c   7.23648284
_cell_angle_alpha   80.66324469
_cell_angle_beta   80.66324469
_cell_angle_gamma   120.06880033
_symmetry_Int_Tables_number   1
_chemical_formula_structural   Na2ZrSe3
_chemical_formula_sum   'Na4 Zr2 Se6'
_cell_volume   286.57385366
_cell_formula_units_Z   2
loop_
 _symmetry_equiv_pos_site_id
 _symmetry_equiv_pos_as_xyz
  1  'x, y, z'
loop_
 _atom_site_type_symbol
 _atom_site_label
 _atom_site_symmetry_multiplicity
 _atom_site_fract_x
 _atom_site_fract_y
 _atom_site_fract_z
 _atom_site_occupancy
  Na  Na0  1  0.00000000  0.00000000  0.00000000  1
  Na  Na1  1  0.50000000  0.50000000  0.50000000  1
  Na  Na2  1  0.84268641  0.15731359  0.50000000  1
  Na  Na3  1  0.15731359  0.84268641  0.50000000  1
  Zr  Zr0  1  0.33144047  0.66855953  0.00000000  1
  Zr  Zr1  1  0.66855953  0.33144047  0.00000000  1
  Se  Se0  1  0.56389202  0.92395894  0.22546383  1
  Se  Se1  1  0.71637491  0.71637491  0.77539826  1
  Se  Se2  1  0.43610798  0.07604106  0.77453617  1
  Se  Se3  1  0.07604106  0.43610798  0.77453617  1
  Se  Se4  1  0.92395894  0.56389202  0.22546383  1
  Se  Se5  1  0.28362509  0.28362509  0.22460174  1
loop_
_geom_bond_atom_site_label_1
_geom_bond_atom_site_label_2
_geom_bond_distance
_geom_bond_site_symmetry_2
Na0 Se5 2.933684 1_555
Na0 Se1 2.933684 1_444
Na0 Se0 2.941079 1_445
Na0 Se4 2.941079 1_445
Na0 Se3 2.941079 1_554
Na0 Se2 2.941079 1_554
Na1 Se1 2.859837 1_555
Na1 Se5 2.859837 1_555
Na1 Se4 3.056143 1_555
Na1 Se0 3.056143 1_555
Na1 Se2 3.056143 1_555
Na1 Se3 3.056143 1_555
Na2 Se2 2.911168 1_555
Na2 Se4 2.911168 1_555
Na2 Se1 2.983082 1_545
Na2 Se5 2.983082 1_655
Na2 Se0 3.079663 1_545
Na2 Se3 3.079663 1_655
Na3 Se3 2.911168 1_555
Na3 Se0 2.911168 1_555
Na3 Se1 2.983082 1_455
Na3 Se5 2.983082 1_565
Na3 Se4 3.079663 1_455
Na3 Se2 3.079663 1_565
Se0 Zr1 2.696633 1_565
Se0 Zr0 2.711153 1_555
Se1 Zr0 2.727922 1_556
Se1 Zr1 2.727922 1_556
Se2 Zr0 2.696633 1_546
Se2 Zr1 2.711153 1_556
Se3 Zr1 2.696633 1_456
Se3 Zr0 2.711153 1_556
Se4 Zr0 2.696633 1_655
Se4 Zr1 2.711153 1_555
Se5 Zr1 2.727922 1_555
Se5 Zr0 2.727922 1_555
