# generated using pymatgen
data_Ba(BRh)2
_symmetry_space_group_name_H-M   'P 1'
_cell_length_a   3.91519340
_cell_length_b   3.91519339
_cell_length_c   6.37432079
_cell_angle_alpha   107.88494079
_cell_angle_beta   107.88494582
_cell_angle_gamma   90.00000648
_symmetry_Int_Tables_number   1
_chemical_formula_structural   Ba(BRh)2
_chemical_formula_sum   'Ba1 B2 Rh2'
_cell_volume   88.01366958
_cell_formula_units_Z   1
loop_
 _symmetry_equiv_pos_site_id
 _symmetry_equiv_pos_as_xyz
  1  'x, y, z'
loop_
 _atom_site_type_symbol
 _atom_site_label
 _atom_site_symmetry_multiplicity
 _atom_site_fract_x
 _atom_site_fract_y
 _atom_site_fract_z
 _atom_site_occupancy
  Ba  Ba0  1  -0.00000000  0.00000000  0.00000000  1
  B  B0  1  0.68320127  0.68320127  0.36640155  1
  B  B1  1  0.31679873  0.31679873  0.63359845  1
  Rh  Rh0  1  0.25000000  0.75000000  0.50000000  1
  Rh  Rh1  1  0.75000000  0.25000000  0.50000000  1
loop_
_geom_bond_atom_site_label_1
_geom_bond_atom_site_label_2
_geom_bond_distance
_geom_bond_site_symmetry_2
Ba0 Rh0 3.474778 1_545
Ba0 Rh1 3.474778 1_454
Ba0 Rh1 3.474778 1_455
Ba0 Rh0 3.474778 1_544
Ba0 Rh0 3.474779 1_444
Ba0 Rh1 3.474779 1_555
Ba0 Rh0 3.474779 1_555
Ba0 Rh1 3.474779 1_444
B0 Rh0 2.102523 1_655
B0 Rh1 2.102523 1_565
B0 Rh1 2.102526 1_555
B0 Rh0 2.102526 1_555
B0 Ba0 3.477104 1_665
B0 Ba0 3.477107 1_565
B0 Ba0 3.477107 1_655
B0 Ba0 3.477109 1_555
B1 Rh1 2.102523 1_455
B1 Rh0 2.102523 1_545
B1 Rh0 2.102526 1_555
B1 Rh1 2.102526 1_555
B1 Ba0 3.477104 1_556
B1 Ba0 3.477107 1_656
B1 Ba0 3.477107 1_566
B1 Ba0 3.477109 1_666
