# generated using pymatgen
data_V3Co2P6WO24
_symmetry_space_group_name_H-M   'P 1'
_cell_length_a   8.66742339
_cell_length_b   8.66742339
_cell_length_c   8.66742337
_cell_angle_alpha   60.29782885
_cell_angle_beta   60.29782885
_cell_angle_gamma   60.29782843
_symmetry_Int_Tables_number   1
_chemical_formula_structural   V3Co2P6WO24
_chemical_formula_sum   'V3 Co2 P6 W1 O24'
_cell_volume   463.52401825
_cell_formula_units_Z   1
loop_
 _symmetry_equiv_pos_site_id
 _symmetry_equiv_pos_as_xyz
  1  'x, y, z'
loop_
 _atom_site_type_symbol
 _atom_site_label
 _atom_site_symmetry_multiplicity
 _atom_site_fract_x
 _atom_site_fract_y
 _atom_site_fract_z
 _atom_site_occupancy
  V  V0  1  0.64208700  0.64208700  0.64208700  1
  V  V1  1  0.85683500  0.85683500  0.85683500  1
  V  V2  1  0.35791400  0.35791400  0.35791400  1
  Co  Co0  1  0.99506100  0.99506100  0.99506100  1
  Co  Co1  1  0.49981500  0.49981500  0.49981500  1
  P  P0  1  0.95615500  0.25218800  0.54586600  1
  P  P1  1  0.54586600  0.95615500  0.25218800  1
  P  P2  1  0.25218800  0.54586600  0.95615500  1
  P  P3  1  0.74489700  0.46396300  0.04188200  1
  P  P4  1  0.46396300  0.04188200  0.74489700  1
  P  P5  1  0.04188200  0.74489700  0.46396300  1
  W  W0  1  0.14230400  0.14230400  0.14230400  1
  O  O0  1  0.50284500  0.11748900  0.30893100  1
  O  O1  1  0.30893100  0.50284500  0.11748900  1
  O  O2  1  0.11748900  0.30893100  0.50284500  1
  O  O3  1  0.94164700  0.08583400  0.73456400  1
  O  O4  1  0.99611000  0.18989000  0.38336700  1
  O  O5  1  0.76447900  0.41327500  0.55507000  1
  O  O6  1  0.73456400  0.94164700  0.08583400  1
  O  O7  1  0.55507000  0.76447900  0.41327500  1
  O  O8  1  0.80772100  0.61929200  0.00472500  1
  O  O9  1  0.41327500  0.55507000  0.76447900  1
  O  O10  1  0.91320800  0.26732800  0.06161900  1
  O  O11  1  0.61929200  0.00472500  0.80772100  1
  O  O12  1  0.38336700  0.99611000  0.18989000  1
  O  O13  1  0.08583400  0.73456400  0.94164700  1
  O  O14  1  0.58651600  0.44085400  0.23663300  1
  O  O15  1  0.18989000  0.38336700  0.99611000  1
  O  O16  1  0.44085400  0.23663300  0.58651600  1
  O  O17  1  0.26732800  0.06161900  0.91320800  1
  O  O18  1  0.23663300  0.58651600  0.44085400  1
  O  O19  1  0.00472500  0.80772100  0.61929200  1
  O  O20  1  0.06161900  0.91320800  0.26732800  1
  O  O21  1  0.88210500  0.69420400  0.49334100  1
  O  O22  1  0.69420400  0.49334100  0.88210500  1
  O  O23  1  0.49334100  0.88210500  0.69420400  1
loop_
_geom_bond_atom_site_label_1
_geom_bond_atom_site_label_2
_geom_bond_distance
_geom_bond_site_symmetry_2
Co0 O3 2.201295 1_565
Co0 O13 2.201295 1_655
Co0 O6 2.201295 1_556
Co0 O20 2.385252 1_656
Co0 O10 2.385252 1_566
Co0 O17 2.385252 1_665
Co1 O9 2.254285 1_555
Co1 O5 2.254285 1_555
Co1 O7 2.254285 1_555
Co1 O14 2.259481 1_555
Co1 O18 2.259481 1_555
Co1 O16 2.259481 1_555
O0 P1 1.522952 1_545
O0 V2 1.963378 1_555
O1 P2 1.522952 1_554
O1 V2 1.963378 1_555
O2 P0 1.522952 1_455
O2 V2 1.963378 1_555
O3 P0 1.551982 1_555
O3 V1 2.047541 1_545
O4 P0 1.574866 1_555
O4 W0 1.963090 1_655
O5 P0 1.547962 1_555
O5 V0 2.057145 1_555
O6 P1 1.551982 1_555
O6 V1 2.047541 1_554
O7 P1 1.547962 1_555
O7 V0 2.057145 1_555
O8 P3 1.528324 1_555
O8 V1 1.943134 1_554
O9 P2 1.547962 1_555
O9 V0 2.057145 1_555
O10 P3 1.598947 1_555
O10 W0 2.024602 1_655
O11 P4 1.528324 1_555
O11 V1 1.943134 1_545
O12 P1 1.574866 1_555
O12 W0 1.963090 1_565
O13 P2 1.551982 1_555
O13 V1 2.047541 1_455
O14 P3 1.554030 1_555
O14 V2 2.036252 1_555
O15 P2 1.574866 1_555
O15 W0 1.963090 1_556
O16 P4 1.554030 1_555
O16 V2 2.036252 1_555
O17 P4 1.598947 1_555
O17 W0 2.024602 1_556
O18 P5 1.554030 1_555
O18 V2 2.036252 1_555
O19 P5 1.528324 1_555
O19 V1 1.943134 1_455
O20 P5 1.598947 1_555
O20 W0 2.024602 1_565
O21 P5 1.522623 1_655
O21 V0 1.972374 1_555
O22 P3 1.522623 1_556
O22 V0 1.972374 1_555
O23 P4 1.522623 1_565
O23 V0 1.972374 1_555
