# generated using pymatgen
data_Li4TiCu2Ni3(PO4)6
_symmetry_space_group_name_H-M   'P 1'
_cell_length_a   8.35162600
_cell_length_b   8.53981405
_cell_length_c   8.75384980
_cell_angle_alpha   61.23394391
_cell_angle_beta   61.95957387
_cell_angle_gamma   62.08375718
_symmetry_Int_Tables_number   1
_chemical_formula_structural   Li4TiCu2Ni3(PO4)6
_chemical_formula_sum   'Li4 Ti1 Cu2 Ni3 P6 O24'
_cell_volume   458.81730516
_cell_formula_units_Z   1
loop_
 _symmetry_equiv_pos_site_id
 _symmetry_equiv_pos_as_xyz
  1  'x, y, z'
loop_
 _atom_site_type_symbol
 _atom_site_label
 _atom_site_symmetry_multiplicity
 _atom_site_fract_x
 _atom_site_fract_y
 _atom_site_fract_z
 _atom_site_occupancy
  Li  Li0  1  0.25525600  0.64086600  0.84638400  1
  Li  Li1  1  0.71839200  0.35675700  0.15735600  1
  Li  Li2  1  0.35110500  0.14672100  0.70339400  1
  Li  Li3  1  0.14481800  0.70506800  0.35660300  1
  Ti  Ti0  1  0.14879000  0.14584500  0.15322300  1
  Cu  Cu0  1  0.98727200  0.99345200  0.00864000  1
  Cu  Cu1  1  0.50753800  0.49632000  0.49908100  1
  Ni  Ni0  1  0.85724700  0.85777200  0.85266900  1
  Ni  Ni1  1  0.64038600  0.64395600  0.64538900  1
  Ni  Ni2  1  0.35758100  0.35202800  0.34827600  1
  P  P0  1  0.25325700  0.94955300  0.54854000  1
  P  P1  1  0.94537700  0.54857300  0.25675700  1
  P  P2  1  0.56294300  0.24790200  0.96097200  1
  P  P3  1  0.75204200  0.04440300  0.46267600  1
  P  P4  1  0.44179200  0.75403900  0.03111300  1
  P  P5  1  0.05397900  0.46347500  0.75411100  1
  O  O0  1  0.88441700  0.50614000  0.70531500  1
  O  O1  1  0.69723600  0.88732000  0.48614500  1
  O  O2  1  0.93727900  0.73494300  0.09165000  1
  O  O3  1  0.43894900  0.70613600  0.88559300  1
  O  O4  1  0.00401300  0.38301700  0.18808200  1
  O  O5  1  0.75187500  0.54881300  0.41219600  1
  O  O6  1  0.75813100  0.09287500  0.92823000  1
  O  O7  1  0.53963000  0.41255200  0.78243000  1
  O  O8  1  0.82569500  0.00939600  0.60685800  1
  O  O9  1  0.40637500  0.75173700  0.55758900  1
  O  O10  1  0.90210100  0.08901400  0.25960800  1
  O  O11  1  0.59939600  0.83140400  0.96747000  1
  O  O12  1  0.39072300  0.17419900  0.02925200  1
  O  O13  1  0.10182700  0.92253400  0.73971400  1
  O  O14  1  0.58568800  0.24135800  0.44728700  1
  O  O15  1  0.18645100  0.00339200  0.38366200  1
  O  O16  1  0.44142000  0.59144900  0.21989000  1
  O  O17  1  0.23274100  0.90795800  0.08356700  1
  O  O18  1  0.24665500  0.44852500  0.58428000  1
  O  O19  1  0.04013300  0.60427800  0.82193500  1
  O  O20  1  0.54292000  0.30540100  0.11088700  1
  O  O21  1  0.08995200  0.25736800  0.90375400  1
  O  O22  1  0.31972200  0.10442600  0.51618100  1
  O  O23  1  0.09890000  0.51603800  0.32623700  1
loop_
_geom_bond_atom_site_label_1
_geom_bond_atom_site_label_2
_geom_bond_distance
_geom_bond_site_symmetry_2
Li0 O3 2.064452 1_555
Li0 O19 2.079140 1_555
Li0 O13 2.092097 1_555
Li0 O9 2.166976 1_555
Li0 O7 2.284750 1_555
Li0 O2 2.570849 1_456
Li1 O20 1.959447 1_555
Li1 O10 2.102310 1_555
Li1 O14 2.147505 1_555
Li1 O16 2.278529 1_555
Li2 O22 1.986741 1_555
Li2 O18 2.157390 1_555
Li2 O21 2.189712 1_555
Li2 O14 2.264242 1_555
Li3 O23 1.977912 1_555
Li3 O16 2.142344 1_555
Li3 O17 2.193019 1_555
Li3 O18 2.267546 1_555
Cu0 O6 2.012074 1_564
Cu0 O17 2.137248 1_655
Cu0 O2 2.147041 1_555
Cu0 O13 2.352913 1_654
Cu0 O10 2.389829 1_565
Cu0 O21 2.394948 1_664
Cu1 O5 2.003175 1_555
Cu1 O18 2.117054 1_555
Cu1 O9 2.162553 1_555
Cu1 O14 2.171077 1_555
Cu1 O7 2.339584 1_555
Cu1 O16 2.424015 1_555
Ni0 O11 1.974752 1_555
Ni0 O8 1.976922 1_565
Ni0 O13 2.022000 1_655
Ni0 O19 2.042003 1_655
Ni0 O6 2.088284 1_565
Ni0 O2 2.114154 1_556
Ni1 O0 1.994738 1_555
Ni1 O1 2.000302 1_555
Ni1 O9 2.074726 1_555
Ni1 O7 2.092523 1_555
Ni1 O3 2.108526 1_555
Ni1 O5 2.189775 1_555
Ni2 O22 1.982213 1_555
Ni2 O23 1.991172 1_555
Ni2 O20 2.016909 1_555
Ni2 O16 2.079136 1_555
Ni2 O14 2.086101 1_555
Ni2 O18 2.220303 1_555
O0 P5 1.502132 1_655
O1 P3 1.507482 1_565
O2 P1 1.550397 1_555
O3 P4 1.526342 1_556
O4 P1 1.578943 1_455
O4 Ti0 1.900581 1_555
O5 P1 1.547667 1_555
O6 P2 1.548336 1_555
O7 P2 1.540245 1_555
O8 P3 1.501783 1_555
O9 P0 1.561728 1_555
O10 P3 1.605121 1_555
O10 Ti0 2.011171 1_655
O11 P4 1.499988 1_556
O12 P2 1.580976 1_554
O12 Ti0 1.860784 1_555
O13 P0 1.537862 1_555
O14 P3 1.595986 1_555
O15 P0 1.576095 1_545
O15 Ti0 1.877342 1_555
O16 P4 1.565109 1_555
O17 P4 1.632524 1_555
O17 Ti0 2.108793 1_565
O18 P5 1.599061 1_555
O19 P5 1.517922 1_555
O20 P2 1.525873 1_554
O21 P5 1.599993 1_555
O21 Ti0 2.118133 1_556
O22 P0 1.522044 1_545
O23 P1 1.525796 1_455
