# generated using pymatgen
data_Ba3SrTa2O9
_symmetry_space_group_name_H-M   'P 1'
_cell_length_a   5.97167483
_cell_length_b   5.97167452
_cell_length_c   7.55186502
_cell_angle_alpha   90.00000000
_cell_angle_beta   90.00000000
_cell_angle_gamma   119.99999625
_symmetry_Int_Tables_number   1
_chemical_formula_structural   Ba3SrTa2O9
_chemical_formula_sum   'Ba3 Sr1 Ta2 O9'
_cell_volume   233.22609843
_cell_formula_units_Z   1
loop_
 _symmetry_equiv_pos_site_id
 _symmetry_equiv_pos_as_xyz
  1  'x, y, z'
loop_
 _atom_site_type_symbol
 _atom_site_label
 _atom_site_symmetry_multiplicity
 _atom_site_fract_x
 _atom_site_fract_y
 _atom_site_fract_z
 _atom_site_occupancy
  Ba  Ba0  1  0.33333300  0.66666700  0.68624803  1
  Ba  Ba1  1  0.00000000  0.00000000  0.00000000  1
  Ba  Ba2  1  0.66666700  0.33333300  0.31375197  1
  Sr  Sr0  1  0.00000000  0.00000000  0.50000000  1
  Ta  Ta0  1  0.33333300  0.66666700  0.16457386  1
  Ta  Ta1  1  0.66666700  0.33333300  0.83542614  1
  O  O0  1  0.50000000  0.50000000  0.00000000  1
  O  O1  1  0.00000000  0.50000000  0.00000000  1
  O  O2  1  0.50000000  0.00000000  0.00000000  1
  O  O3  1  0.82111422  0.17888578  0.69917189  1
  O  O4  1  0.82111422  0.64222744  0.69917189  1
  O  O5  1  0.35777256  0.17888578  0.69917189  1
  O  O6  1  0.17888578  0.82111422  0.30082811  1
  O  O7  1  0.17888578  0.35777256  0.30082811  1
  O  O8  1  0.64222744  0.82111422  0.30082811  1
loop_
_geom_bond_atom_site_label_1
_geom_bond_atom_site_label_2
_geom_bond_distance
_geom_bond_site_symmetry_2
Ba0 O2 2.930162 1_566
Ba0 O1 2.930162 1_556
Ba0 O0 2.930165 1_556
Ba0 O5 2.990099 1_565
Ba0 O4 2.990099 1_455
Ba0 O3 2.990104 1_565
Ba0 O3 2.990104 1_455
Ba0 O5 2.990110 1_555
Ba0 O4 2.990111 1_555
Ba0 O6 3.320208 1_555
Ba0 O7 3.320208 1_555
Ba0 O8 3.320208 1_555
Ba1 O3 2.929948 1_454
Ba1 O6 2.929948 1_545
Ba1 O4 2.929951 1_444
Ba1 O7 2.929951 1_555
Ba1 O8 2.929951 1_445
Ba1 O5 2.929951 1_554
Ba1 O1 2.985837 1_555
Ba1 O1 2.985837 1_545
Ba1 O2 2.985837 1_455
Ba1 O2 2.985837 1_555
Ba1 O0 2.985838 1_555
Ba1 O0 2.985838 1_445
Ba2 O2 2.930162 1_555
Ba2 O1 2.930162 1_655
Ba2 O0 2.930165 1_555
Ba2 O8 2.990099 1_545
Ba2 O7 2.990099 1_655
Ba2 O6 2.990104 1_545
Ba2 O6 2.990104 1_655
Ba2 O8 2.990110 1_555
Ba2 O7 2.990111 1_555
Ba2 O3 3.320208 1_555
Ba2 O4 3.320208 1_555
Ba2 O5 3.320208 1_555
O0 Ta1 2.125183 1_554
O0 Ta0 2.125183 1_555
O1 Ta1 2.125179 1_454
O1 Ta0 2.125179 1_555
O2 Ta1 2.125179 1_554
O2 Ta0 2.125179 1_545
O3 Ta1 1.900196 1_555
O3 Sr0 2.384499 1_655
O4 Ta1 1.900196 1_555
O4 Sr0 2.384503 1_665
O5 Ta1 1.900196 1_555
O5 Sr0 2.384503 1_555
O6 Ta0 1.900196 1_555
O6 Sr0 2.384499 1_565
O7 Ta0 1.900196 1_555
O7 Sr0 2.384503 1_555
O8 Ta0 1.900196 1_555
O8 Sr0 2.384503 1_665
