# generated using pymatgen
data_Li2Mn2F7
_symmetry_space_group_name_H-M   'P 1'
_cell_length_a   5.03052000
_cell_length_b   7.81065800
_cell_length_c   12.93632808
_cell_angle_alpha   78.39355220
_cell_angle_beta   90.00000000
_cell_angle_gamma   90.00000000
_symmetry_Int_Tables_number   1
_chemical_formula_structural   Li2Mn2F7
_chemical_formula_sum   'Li8 Mn8 F28'
_cell_volume   497.89675024
_cell_formula_units_Z   4
loop_
 _symmetry_equiv_pos_site_id
 _symmetry_equiv_pos_as_xyz
  1  'x, y, z'
loop_
 _atom_site_type_symbol
 _atom_site_label
 _atom_site_symmetry_multiplicity
 _atom_site_fract_x
 _atom_site_fract_y
 _atom_site_fract_z
 _atom_site_occupancy
  Li  Li0  1  0.24033800  0.97060200  0.30554400  1
  Li  Li1  1  0.75529400  0.99671600  0.11752300  1
  Li  Li2  1  0.78118700  0.60534300  0.68744800  1
  Li  Li3  1  0.28313800  0.56793800  0.84901700  1
  Li  Li4  1  0.78313800  0.43206200  0.15098300  1
  Li  Li5  1  0.28118700  0.39465700  0.31255200  1
  Li  Li6  1  0.25529400  0.00328400  0.88247700  1
  Li  Li7  1  0.74033800  0.02939800  0.69445600  1
  Mn  Mn0  1  0.34486300  0.81640400  0.53995300  1
  Mn  Mn1  1  0.77320200  0.73096900  0.94380700  1
  Mn  Mn2  1  0.22203800  0.74708600  0.15421000  1
  Mn  Mn3  1  0.80457200  0.63425500  0.37381900  1
  Mn  Mn4  1  0.30457200  0.36574500  0.62618100  1
  Mn  Mn5  1  0.72203800  0.25291400  0.84579000  1
  Mn  Mn6  1  0.27320200  0.26903100  0.05619300  1
  Mn  Mn7  1  0.84486300  0.18359600  0.46004700  1
  F  F0  1  0.55712200  0.95307700  0.43281000  1
  F  F1  1  0.40032400  0.02185700  0.16973800  1
  F  F2  1  0.59535600  0.83465300  0.64501800  1
  F  F3  1  0.43895300  0.78182500  0.87281100  1
  F  F4  1  0.09182600  0.79940900  0.43593100  1
  F  F5  1  0.03275100  0.90308700  0.02701100  1
  F  F6  1  0.93737200  0.85805500  0.24444000  1
  F  F7  1  0.13045500  0.66684100  0.63516000  1
  F  F8  1  0.91246200  0.62610600  0.83269000  1
  F  F9  1  0.57739500  0.73354400  0.07151700  1
  F  F10  1  0.44070600  0.66520000  0.29382500  1
  F  F11  1  0.56910000  0.58745000  0.52410700  1
  F  F12  1  0.51940000  0.42692800  0.96488300  1
  F  F13  1  0.48463900  0.47107600  0.75170800  1
  F  F14  1  0.98463900  0.52892400  0.24829200  1
  F  F15  1  0.01940000  0.57307200  0.03511700  1
  F  F16  1  0.06910000  0.41255000  0.47589300  1
  F  F17  1  0.94070600  0.33480000  0.70617500  1
  F  F18  1  0.07739500  0.26645600  0.92848300  1
  F  F19  1  0.41246200  0.37389400  0.16731000  1
  F  F20  1  0.63045500  0.33315900  0.36484000  1
  F  F21  1  0.43737200  0.14194500  0.75556000  1
  F  F22  1  0.53275100  0.09691300  0.97298900  1
  F  F23  1  0.59182600  0.20059100  0.56406900  1
  F  F24  1  0.93895300  0.21817500  0.12718900  1
  F  F25  1  0.09535600  0.16534700  0.35498200  1
  F  F26  1  0.90032400  0.97814300  0.83026200  1
  F  F27  1  0.05712200  0.04692300  0.56719000  1
loop_
_geom_bond_atom_site_label_1
_geom_bond_atom_site_label_2
_geom_bond_distance
_geom_bond_site_symmetry_2
F0 Mn0 1.898802 1_555
F0 Li0 2.275536 1_555
F0 Mn7 2.390911 1_565
F1 Li0 1.900381 1_545
F1 Li1 1.933095 1_545
F1 Mn6 2.269939 1_555
F1 Mn2 2.371523 1_545
F2 Mn0 1.879747 1_555
F2 Li7 1.909473 1_565
F2 Li2 1.996875 1_555
F3 Mn1 1.918791 1_555
F3 Li3 1.925343 1_555
F3 Li6 1.987023 1_565
F4 Mn0 1.876326 1_555
F4 Li0 2.069688 1_555
F4 Mn3 2.194266 1_455
F5 Li1 2.049017 1_455
F5 Mn2 2.071775 1_555
F5 Li6 2.184698 1_564
F5 Mn1 2.291906 1_454
F6 Li1 1.998016 1_555
F6 Li0 1.999999 1_655
F6 Mn2 2.138097 1_655
F6 Mn3 2.264047 1_555
F7 Mn0 1.861715 1_555
F7 Li2 1.909077 1_455
F7 Mn4 2.534043 1_555
F8 Li3 1.920806 1_655
F8 Mn1 1.923953 1_555
F8 Li2 2.028612 1_555
F9 Mn1 1.927032 1_554
F9 Mn2 2.096829 1_555
F9 Li1 2.423347 1_555
F10 Mn3 2.092640 1_555
F10 Mn2 2.101501 1_555
F10 Li5 2.227537 1_555
F11 Mn0 2.158685 1_555
F11 Mn3 2.242906 1_555
F11 Mn4 2.364953 1_555
F11 Li2 2.396155 1_555
F12 Mn6 1.965699 1_556
F12 Li3 2.051343 1_555
F12 Mn5 2.470332 1_555
F12 Mn1 2.661466 1_555
F13 Li3 1.888839 1_555
F13 Li2 1.914548 1_555
F13 Mn4 2.161445 1_555
F13 Mn5 2.230825 1_555
F14 Li4 1.888839 1_555
F14 Li5 1.914548 1_655
F14 Mn3 2.161445 1_555
F14 Mn2 2.230825 1_655
F15 Mn1 1.965699 1_454
F15 Li4 2.051343 1_455
F15 Mn2 2.470332 1_555
F15 Mn6 2.661466 1_555
F16 Mn7 2.158685 1_455
F16 Mn4 2.242906 1_555
F16 Mn3 2.364953 1_455
F16 Li5 2.396155 1_555
F17 Mn4 2.092640 1_655
F17 Mn5 2.101501 1_555
F17 Li2 2.227537 1_555
F18 Mn6 1.927032 1_556
F18 Mn5 2.096829 1_455
F18 Li6 2.423347 1_555
F19 Li4 1.920806 1_555
F19 Mn6 1.923953 1_555
F19 Li5 2.028612 1_555
F20 Mn7 1.861715 1_555
F20 Li5 1.909077 1_555
F20 Mn3 2.534043 1_555
F21 Li6 1.998016 1_555
F21 Li7 1.999999 1_555
F21 Mn5 2.138097 1_555
F21 Mn4 2.264047 1_555
F22 Li6 2.049017 1_555
F22 Mn5 2.071775 1_555
F22 Li1 2.184698 1_546
F22 Mn6 2.291906 1_556
F23 Mn7 1.876326 1_555
F23 Li7 2.069688 1_555
F23 Mn4 2.194266 1_555
F24 Mn6 1.918791 1_655
F24 Li4 1.925343 1_555
F24 Li1 1.987023 1_545
F25 Mn7 1.879747 1_455
F25 Li0 1.909473 1_545
F25 Li5 1.996875 1_555
F26 Li7 1.900381 1_565
F26 Li6 1.933095 1_665
F26 Mn1 2.269939 1_555
F26 Mn5 2.371523 1_565
F27 Mn7 1.898802 1_455
F27 Li7 2.275536 1_455
F27 Mn0 2.390911 1_545
