# generated using pymatgen
data_NaVO2
_symmetry_space_group_name_H-M   'P 1'
_cell_length_a   3.01120801
_cell_length_b   6.37013388
_cell_length_c   5.28505802
_cell_angle_alpha   66.47338267
_cell_angle_beta   90.00090626
_cell_angle_gamma   76.32244714
_symmetry_Int_Tables_number   1
_chemical_formula_structural   NaVO2
_chemical_formula_sum   'Na2 V2 O4'
_cell_volume   89.80553747
_cell_formula_units_Z   2
loop_
 _symmetry_equiv_pos_site_id
 _symmetry_equiv_pos_as_xyz
  1  'x, y, z'
loop_
 _atom_site_type_symbol
 _atom_site_label
 _atom_site_symmetry_multiplicity
 _atom_site_fract_x
 _atom_site_fract_y
 _atom_site_fract_z
 _atom_site_occupancy
  Na  Na0  1  0.25000000  0.50000300  0.25001300  1
  Na  Na1  1  0.75000200  0.49999700  0.74998600  1
  V  V0  1  0.49999700  0.00000000  0.50000000  1
  V  V1  1  0.99999600  0.00000000  0.00000000  1
  O  O0  1  0.40055700  0.19895800  0.06584400  1
  O  O1  1  0.90053400  0.19903500  0.56581200  1
  O  O2  1  0.59943600  0.80104200  0.93415600  1
  O  O3  1  0.09945900  0.80096500  0.43418800  1
loop_
_geom_bond_atom_site_label_1
_geom_bond_atom_site_label_2
_geom_bond_distance
_geom_bond_site_symmetry_2
Na0 O3 2.430498 1_555
Na0 O0 2.430954 1_555
Na0 O1 2.442903 1_555
Na0 O1 2.442995 1_455
Na0 O2 2.443218 1_454
Na0 O2 2.443331 1_554
Na1 O1 2.430494 1_555
Na1 O2 2.430958 1_555
Na1 O3 2.442918 1_555
Na1 O3 2.442977 1_655
Na1 O0 2.443203 1_656
Na1 O0 2.443349 1_556
O0 V1 2.062951 1_555
O0 V1 2.063311 1_455
O0 V0 2.111799 1_555
O1 V0 2.063167 1_655
O1 V0 2.063591 1_555
O1 V1 2.112007 1_556
O2 V1 2.062954 1_466
O2 V1 2.063309 1_566
O2 V0 2.111799 1_565
O3 V0 2.063165 1_465
O3 V0 2.063593 1_565
O3 V1 2.112007 1_465
