# generated using pymatgen
data_Li2VO2F
_symmetry_space_group_name_H-M   'P 1'
_cell_length_a   6.02360890
_cell_length_b   6.02360890
_cell_length_c   8.98532133
_cell_angle_alpha   59.94896220
_cell_angle_beta   59.94896220
_cell_angle_gamma   59.82716526
_symmetry_Int_Tables_number   1
_chemical_formula_structural   Li2VO2F
_chemical_formula_sum   'Li8 V4 O8 F4'
_cell_volume   230.05256112
_cell_formula_units_Z   4
loop_
 _symmetry_equiv_pos_site_id
 _symmetry_equiv_pos_as_xyz
  1  'x, y, z'
loop_
 _atom_site_type_symbol
 _atom_site_label
 _atom_site_symmetry_multiplicity
 _atom_site_fract_x
 _atom_site_fract_y
 _atom_site_fract_z
 _atom_site_occupancy
  Li  Li0  1  0.24625500  0.76562200  0.13554300  1
  Li  Li1  1  0.77342000  0.77342000  0.14559900  1
  Li  Li2  1  0.76562200  0.24625500  0.13554300  1
  Li  Li3  1  0.26719600  0.26719600  0.14386800  1
  Li  Li4  1  0.74327700  0.74327700  0.84754700  1
  Li  Li5  1  0.22472300  0.76194500  0.85541000  1
  Li  Li6  1  0.22442400  0.22442400  0.85983900  1
  Li  Li7  1  0.76194500  0.22472300  0.85541000  1
  V  V0  1  0.74041300  0.25347000  0.50842900  1
  V  V1  1  0.24984300  0.24984300  0.49934000  1
  V  V2  1  0.25347000  0.74041300  0.50842900  1
  V  V3  1  0.74276200  0.74276200  0.50574100  1
  O  O0  1  0.48977100  0.48977100  0.35496000  1
  O  O1  1  0.99930200  0.99930200  0.00063600  1
  O  O2  1  0.98605700  0.48965600  0.35343100  1
  O  O3  1  0.51641900  0.00478800  0.64679900  1
  O  O4  1  0.00809700  0.00809700  0.64566300  1
  O  O5  1  0.00478800  0.51641900  0.64679900  1
  O  O6  1  0.48965600  0.98605700  0.35343100  1
  O  O7  1  0.50431500  0.50431500  0.65803900  1
  F  F0  1  0.49837700  0.99712300  0.00232800  1
  F  F1  1  0.99712300  0.49837700  0.00232800  1
  F  F2  1  0.00050400  0.00050400  0.33630100  1
  F  F3  1  0.50069700  0.50069700  0.99963900  1
loop_
_geom_bond_atom_site_label_1
_geom_bond_atom_site_label_2
_geom_bond_distance
_geom_bond_site_symmetry_2
Li0 O1 1.912010 1_455
Li0 O2 2.310634 1_455
Li0 O0 2.442314 1_555
Li1 O1 1.926180 1_555
Li1 O6 2.246654 1_555
Li1 O2 2.246654 1_555
Li1 O0 2.423566 1_555
Li2 O1 1.912010 1_545
Li2 O6 2.310634 1_545
Li2 O0 2.442314 1_555
Li3 O2 2.293780 1_455
Li3 O6 2.293780 1_545
Li4 O3 2.249767 1_565
Li4 O5 2.249767 1_655
Li4 O4 2.267463 1_665
Li5 O1 1.932135 1_456
Li5 O4 2.274307 1_565
Li5 O3 2.297706 1_565
Li5 O7 2.351075 1_555
Li6 O1 1.921016 1_446
Li6 O3 2.309430 1_555
Li6 O5 2.309430 1_555
Li6 O7 2.388826 1_555
Li7 O1 1.932135 1_546
Li7 O4 2.274307 1_655
Li7 O5 2.297706 1_655
Li7 O7 2.351075 1_555
O0 V2 2.041099 1_555
O0 V0 2.041099 1_555
O0 V1 2.050463 1_555
O2 V3 2.044532 1_555
O2 V1 2.052461 1_655
O2 V0 2.054463 1_555
O3 V3 2.016472 1_545
O3 V0 2.023968 1_555
O3 V1 2.074190 1_555
O4 V0 2.018743 1_455
O4 V2 2.018743 1_545
O4 V1 2.065455 1_555
O5 V3 2.016472 1_455
O5 V2 2.023968 1_555
O5 V1 2.074190 1_555
O6 V3 2.044532 1_555
O6 V1 2.052461 1_565
O6 V2 2.054463 1_555
O7 V0 2.017987 1_555
O7 V2 2.017987 1_555
O7 V3 2.033542 1_555
F0 Li3 2.055310 1_565
F0 Li4 2.063019 1_554
F0 Li0 2.078500 1_555
F0 Li6 2.079926 1_564
F0 Li1 2.091032 1_555
F0 Li7 2.102162 1_564
F1 Li3 2.055310 1_655
F1 Li4 2.063019 1_554
F1 Li2 2.078500 1_555
F1 Li6 2.079926 1_654
F1 Li1 2.091032 1_555
F1 Li5 2.102162 1_654
F2 V2 2.168459 1_545
F2 V0 2.168459 1_455
F2 V3 2.197029 1_445
F2 Li3 2.276245 1_555
F2 Li2 2.285483 1_455
F2 Li0 2.285483 1_545
F3 Li3 1.993369 1_556
F3 Li0 2.001364 1_556
F3 Li2 2.001364 1_556
F3 Li4 2.069828 1_555
F3 Li7 2.098761 1_555
F3 Li5 2.098761 1_555
