# generated using pymatgen
data_Li4Cr3NiO8
_symmetry_space_group_name_H-M   'P 1'
_cell_length_a   5.11049798
_cell_length_b   5.92952671
_cell_length_c   5.92546063
_cell_angle_alpha   60.02214482
_cell_angle_beta   89.99984795
_cell_angle_gamma   73.15694417
_symmetry_Int_Tables_number   1
_chemical_formula_structural   Li4Cr3NiO8
_chemical_formula_sum   'Li4 Cr3 Ni1 O8'
_cell_volume   146.57714198
_cell_formula_units_Z   1
loop_
 _symmetry_equiv_pos_site_id
 _symmetry_equiv_pos_as_xyz
  1  'x, y, z'
loop_
 _atom_site_type_symbol
 _atom_site_label
 _atom_site_symmetry_multiplicity
 _atom_site_fract_x
 _atom_site_fract_y
 _atom_site_fract_z
 _atom_site_occupancy
  Li  Li0  1  0.00060700  0.99739300  0.00127600  1
  Li  Li1  1  0.99940000  0.00261800  0.49871800  1
  Li  Li2  1  0.50000700  0.99999900  0.25000600  1
  Li  Li3  1  0.50000900  0.00000200  0.74999500  1
  Cr  Cr0  1  0.99996900  0.49999400  0.00125900  1
  Cr  Cr1  1  0.00000800  0.50000500  0.49874000  1
  Cr  Cr2  1  0.50002700  0.49999100  0.75000200  1
  Ni  Ni0  1  0.50000200  0.50000400  0.25000200  1
  O  O0  1  0.23401300  0.27088500  0.36456300  1
  O  O1  1  0.24720300  0.27349600  0.86325700  1
  O  O2  1  0.74038400  0.27563600  0.09584000  1
  O  O3  1  0.25960800  0.72435900  0.40415900  1
  O  O4  1  0.25960400  0.72435400  0.87148400  1
  O  O5  1  0.76598300  0.72913400  0.13543000  1
  O  O6  1  0.74039900  0.27563600  0.62851900  1
  O  O7  1  0.75277600  0.72649500  0.63675100  1
loop_
_geom_bond_atom_site_label_1
_geom_bond_atom_site_label_2
_geom_bond_distance
_geom_bond_site_symmetry_2
Li0 O5 2.107472 1_455
Li0 O6 2.110899 1_464
Li0 O2 2.111137 1_465
Li0 O1 2.189729 1_564
Li0 O4 2.228680 1_554
Li0 O3 2.228892 1_555
Li1 O0 2.107462 1_655
Li1 O4 2.110935 1_645
Li1 O3 2.111156 1_645
Li1 O7 2.189929 1_545
Li1 O6 2.228635 1_555
Li1 O2 2.228899 1_555
Li2 O7 2.149975 1_555
Li2 O1 2.150058 1_564
Li2 O2 2.164785 1_565
Li2 O3 2.164883 1_555
Li2 O5 2.170864 1_555
Li2 O0 2.170914 1_565
Li3 O7 2.150010 1_545
Li3 O1 2.150103 1_555
Li3 O6 2.164824 1_555
Li3 O4 2.164944 1_545
Li3 O5 2.170823 1_546
Li3 O0 2.170860 1_555
Cr0 O5 2.011456 1_555
Cr0 O0 2.011538 1_655
Cr0 O2 2.030130 1_555
Cr0 O4 2.030351 1_654
Cr0 O7 2.045154 1_554
Cr0 O1 2.045221 1_654
Cr1 O0 2.011438 1_555
Cr1 O5 2.011522 1_455
Cr1 O3 2.030178 1_555
Cr1 O6 2.030275 1_455
Cr1 O1 2.045194 1_555
Cr1 O7 2.045223 1_455
Cr2 O2 1.951083 1_556
Cr2 O6 1.951127 1_555
Cr2 O3 1.951239 1_555
Cr2 O4 1.951268 1_555
Cr2 O7 2.006788 1_555
Cr2 O1 2.007072 1_555
Ni0 O0 2.074339 1_555
Ni0 O5 2.074349 1_555
Ni0 O3 2.093011 1_555
Ni0 O6 2.093022 1_555
Ni0 O4 2.093036 1_554
Ni0 O2 2.093061 1_555
