# generated using pymatgen
data_Sr3W2O9
_symmetry_space_group_name_H-M   'P 1'
_cell_length_a   8.16003400
_cell_length_b   9.14778100
_cell_length_c   16.58608400
_cell_angle_alpha   90.00000000
_cell_angle_beta   90.00000000
_cell_angle_gamma   90.00000000
_symmetry_Int_Tables_number   1
_chemical_formula_structural   Sr3W2O9
_chemical_formula_sum   'Sr12 W8 O36'
_cell_volume   1238.08820957
_cell_formula_units_Z   4
loop_
 _symmetry_equiv_pos_site_id
 _symmetry_equiv_pos_as_xyz
  1  'x, y, z'
loop_
 _atom_site_type_symbol
 _atom_site_label
 _atom_site_symmetry_multiplicity
 _atom_site_fract_x
 _atom_site_fract_y
 _atom_site_fract_z
 _atom_site_occupancy
  Sr  Sr0  1  0.00000000  0.00000000  0.00000000  1
  Sr  Sr1  1  0.50000000  0.00000000  0.00000000  1
  Sr  Sr2  1  0.75000000  0.22017300  0.85543600  1
  Sr  Sr3  1  0.25000000  0.18395400  0.58120800  1
  Sr  Sr4  1  0.75000000  0.31604600  0.08120800  1
  Sr  Sr5  1  0.25000000  0.27982700  0.35543600  1
  Sr  Sr6  1  0.00000000  0.50000000  0.50000000  1
  Sr  Sr7  1  0.50000000  0.50000000  0.50000000  1
  Sr  Sr8  1  0.75000000  0.72017300  0.64456400  1
  Sr  Sr9  1  0.25000000  0.68395400  0.91879200  1
  Sr  Sr10  1  0.75000000  0.81604600  0.41879200  1
  Sr  Sr11  1  0.25000000  0.77982700  0.14456400  1
  W  W0  1  0.75000000  0.15486400  0.60245800  1
  W  W1  1  0.75000000  0.25545300  0.33338100  1
  W  W2  1  0.25000000  0.24454700  0.83338100  1
  W  W3  1  0.25000000  0.34513600  0.10245800  1
  W  W4  1  0.75000000  0.65486400  0.89754200  1
  W  W5  1  0.75000000  0.75545300  0.16661900  1
  W  W6  1  0.25000000  0.74454700  0.66661900  1
  W  W7  1  0.25000000  0.84513600  0.39754200  1
  O  O0  1  0.75000000  0.12378300  0.98419100  1
  O  O1  1  0.75000000  0.07812800  0.38061600  1
  O  O2  1  0.25000000  0.04022700  0.42007600  1
  O  O3  1  0.06388600  0.14742500  0.86484700  1
  O  O4  1  0.43611400  0.14742500  0.86484700  1
  O  O5  1  0.75000000  0.17714300  0.71020600  1
  O  O6  1  0.75000000  0.23153500  0.22497000  1
  O  O7  1  0.93460000  0.24210800  0.56386500  1
  O  O8  1  0.56540000  0.24210800  0.56386500  1
  O  O9  1  0.06540000  0.25789200  0.06386500  1
  O  O10  1  0.43460000  0.25789200  0.06386500  1
  O  O11  1  0.25000000  0.26846500  0.72497000  1
  O  O12  1  0.25000000  0.32285700  0.21020600  1
  O  O13  1  0.56388600  0.35257500  0.36484700  1
  O  O14  1  0.93611400  0.35257500  0.36484700  1
  O  O15  1  0.75000000  0.45977300  0.92007600  1
  O  O16  1  0.25000000  0.42187200  0.88061600  1
  O  O17  1  0.25000000  0.37621700  0.48419100  1
  O  O18  1  0.75000000  0.62378300  0.51580900  1
  O  O19  1  0.75000000  0.57812800  0.11938400  1
  O  O20  1  0.25000000  0.54022700  0.07992400  1
  O  O21  1  0.06388600  0.64742500  0.63515300  1
  O  O22  1  0.43611400  0.64742500  0.63515300  1
  O  O23  1  0.75000000  0.67714300  0.78979400  1
  O  O24  1  0.75000000  0.73153500  0.27503000  1
  O  O25  1  0.56540000  0.74210800  0.93613500  1
  O  O26  1  0.93460000  0.74210800  0.93613500  1
  O  O27  1  0.06540000  0.75789200  0.43613500  1
  O  O28  1  0.43460000  0.75789200  0.43613500  1
  O  O29  1  0.25000000  0.76846500  0.77503000  1
  O  O30  1  0.25000000  0.82285700  0.28979400  1
  O  O31  1  0.56388600  0.85257500  0.13515300  1
  O  O32  1  0.93611400  0.85257500  0.13515300  1
  O  O33  1  0.75000000  0.95977300  0.57992400  1
  O  O34  1  0.25000000  0.92187200  0.61938400  1
  O  O35  1  0.25000000  0.87621700  0.01580900  1
loop_
_geom_bond_atom_site_label_1
_geom_bond_atom_site_label_2
_geom_bond_distance
_geom_bond_site_symmetry_2
O0 Sr2 2.310417 1_555
O0 Sr0 2.347889 1_656
O0 Sr1 2.347889 1_556
O0 Sr4 2.383823 1_556
O1 W1 1.801413 1_555
O1 Sr10 2.479675 1_545
O2 W7 1.823366 1_545
O2 Sr5 2.439974 1_555
O2 Sr3 2.978451 1_555
O3 W2 1.835255 1_555
O3 Sr2 2.650961 1_455
O3 Sr0 2.667500 1_556
O4 W2 1.835255 1_555
O4 Sr2 2.650961 1_555
O4 Sr1 2.667500 1_556
O5 W0 1.798701 1_555
O5 Sr2 2.440747 1_555
O6 W1 1.811377 1_555
O6 Sr4 2.506643 1_555
O7 W0 1.820920 1_555
O7 Sr6 2.640529 1_655
O7 Sr3 2.643775 1_655
O8 W0 1.820920 1_555
O8 Sr7 2.640529 1_555
O8 Sr3 2.643775 1_555
O9 W3 1.820920 1_555
O9 Sr0 2.640529 1_555
O9 Sr4 2.643775 1_455
O10 W3 1.820920 1_555
O10 Sr1 2.640529 1_555
O10 Sr4 2.643775 1_555
O11 W2 1.811377 1_555
O11 Sr3 2.506643 1_555
O12 W3 1.798701 1_555
O12 Sr5 2.440747 1_555
O13 W1 1.835255 1_555
O13 Sr5 2.650961 1_555
O13 Sr7 2.667500 1_555
O14 W1 1.835255 1_555
O14 Sr5 2.650961 1_655
O14 Sr6 2.667500 1_655
O15 W4 1.823366 1_555
O15 Sr2 2.439974 1_555
O15 Sr4 2.978451 1_556
O16 W2 1.801413 1_555
O16 Sr9 2.479675 1_555
O17 Sr5 2.310417 1_555
O17 Sr7 2.347889 1_555
O17 Sr6 2.347889 1_555
O17 Sr3 2.383823 1_555
O18 Sr8 2.310417 1_555
O18 Sr6 2.347889 1_655
O18 Sr7 2.347889 1_555
O18 Sr10 2.383823 1_555
O19 W5 1.801413 1_555
O19 Sr4 2.479675 1_555
O20 W3 1.823366 1_555
O20 Sr11 2.439974 1_555
O20 Sr9 2.978451 1_554
O21 W6 1.835255 1_555
O21 Sr8 2.650961 1_455
O21 Sr6 2.667500 1_555
O22 W6 1.835255 1_555
O22 Sr8 2.650961 1_555
O22 Sr7 2.667500 1_555
O23 W4 1.798701 1_555
O23 Sr8 2.440747 1_555
O24 W5 1.811377 1_555
O24 Sr10 2.506643 1_555
O25 W4 1.820920 1_555
O25 Sr1 2.640529 1_566
O25 Sr9 2.643775 1_555
O26 W4 1.820920 1_555
O26 Sr0 2.640529 1_666
O26 Sr9 2.643775 1_655
O27 W7 1.820920 1_555
O27 Sr6 2.640529 1_555
O27 Sr10 2.643775 1_455
O28 W7 1.820920 1_555
O28 Sr7 2.640529 1_555
O28 Sr10 2.643775 1_555
O29 W6 1.811377 1_555
O29 Sr9 2.506643 1_555
O30 W7 1.798701 1_555
O30 Sr11 2.440747 1_555
O31 W5 1.835255 1_555
O31 Sr11 2.650961 1_555
O31 Sr1 2.667500 1_565
O32 W5 1.835255 1_555
O32 Sr11 2.650961 1_655
O32 Sr0 2.667500 1_665
O33 W0 1.823366 1_565
O33 Sr8 2.439974 1_555
O33 Sr10 2.978451 1_555
O34 W6 1.801413 1_555
O34 Sr3 2.479675 1_565
O35 Sr11 2.310417 1_555
O35 Sr0 2.347889 1_565
O35 Sr1 2.347889 1_565
O35 Sr9 2.383823 1_554
