# generated using pymatgen
data_Cr(ClO2)2
_symmetry_space_group_name_H-M   'P 1'
_cell_length_a   6.95038400
_cell_length_b   4.22508700
_cell_length_c   8.47976751
_cell_angle_alpha   78.69051011
_cell_angle_beta   90.00000000
_cell_angle_gamma   90.00000000
_symmetry_Int_Tables_number   1
_chemical_formula_structural   Cr(ClO2)2
_chemical_formula_sum   'Cr2 Cl4 O8'
_cell_volume   244.18130034
_cell_formula_units_Z   2
loop_
 _symmetry_equiv_pos_site_id
 _symmetry_equiv_pos_as_xyz
  1  'x, y, z'
loop_
 _atom_site_type_symbol
 _atom_site_label
 _atom_site_symmetry_multiplicity
 _atom_site_fract_x
 _atom_site_fract_y
 _atom_site_fract_z
 _atom_site_occupancy
  Cr  Cr0  1  0.50000000  0.00000000  0.50000000  1
  Cr  Cr1  1  0.00000000  0.00000000  0.00000000  1
  Cl  Cl0  1  0.74754300  0.57407400  0.56910900  1
  Cl  Cl1  1  0.24754300  0.42592600  0.93089100  1
  Cl  Cl2  1  0.25245700  0.42592600  0.43089100  1
  Cl  Cl3  1  0.75245700  0.57407400  0.06910900  1
  O  O0  1  0.48652900  0.03467200  0.69306000  1
  O  O1  1  0.98652900  0.96532800  0.80694000  1
  O  O2  1  0.51347100  0.96532800  0.30694000  1
  O  O3  1  0.01347100  0.03467200  0.19306000  1
  O  O4  1  0.68814200  0.32849100  0.44616900  1
  O  O5  1  0.18814200  0.67150900  0.05383100  1
  O  O6  1  0.31185800  0.67150900  0.55383100  1
  O  O7  1  0.81185800  0.32849100  0.94616900  1
loop_
_geom_bond_atom_site_label_1
_geom_bond_atom_site_label_2
_geom_bond_distance
_geom_bond_site_symmetry_2
Cr0 O2 1.674634 1_545
Cr0 O0 1.674634 1_555
Cr0 O6 1.896347 1_545
Cr0 O4 1.896347 1_555
Cr1 O1 1.674634 1_444
Cr1 O3 1.674634 1_555
Cr1 O5 1.896347 1_545
Cr1 O7 1.896347 1_454
Cl0 O4 1.660772 1_555
Cl0 Cr0 2.475571 1_565
Cl1 O5 1.660772 1_556
Cl1 Cr1 2.475571 1_556
Cl2 O6 1.660772 1_555
Cl2 Cr0 2.475571 1_555
Cl3 O7 1.660772 1_554
Cl3 Cr1 2.475571 1_665
