# generated using pymatgen
data_LiSnPO4
_symmetry_space_group_name_H-M   'P 1'
_cell_length_a   5.39616900
_cell_length_b   7.43551600
_cell_length_c   10.51321500
_cell_angle_alpha   90.00000000
_cell_angle_beta   90.00000000
_cell_angle_gamma   90.00000000
_symmetry_Int_Tables_number   1
_chemical_formula_structural   LiSnPO4
_chemical_formula_sum   'Li4 Sn4 P4 O16'
_cell_volume   421.82488927
_cell_formula_units_Z   4
loop_
 _symmetry_equiv_pos_site_id
 _symmetry_equiv_pos_as_xyz
  1  'x, y, z'
loop_
 _atom_site_type_symbol
 _atom_site_label
 _atom_site_symmetry_multiplicity
 _atom_site_fract_x
 _atom_site_fract_y
 _atom_site_fract_z
 _atom_site_occupancy
  Li  Li0  1  0.68550000  0.28763600  0.14564000  1
  Li  Li1  1  0.18550000  0.78763600  0.35436000  1
  Li  Li2  1  0.81450000  0.28763600  0.64564000  1
  Li  Li3  1  0.31450000  0.78763600  0.85436000  1
  Sn  Sn0  1  0.69129000  0.78525800  0.15196800  1
  Sn  Sn1  1  0.19129000  0.28525800  0.34803200  1
  Sn  Sn2  1  0.80871000  0.78525800  0.65196800  1
  Sn  Sn3  1  0.30871000  0.28525800  0.84803200  1
  P  P0  1  0.17698200  0.53799900  0.09625700  1
  P  P1  1  0.67698200  0.03799900  0.40374300  1
  P  P2  1  0.32301800  0.53799900  0.59625700  1
  P  P3  1  0.82301800  0.03799900  0.90374300  1
  O  O0  1  0.75609500  0.07080500  0.04522200  1
  O  O1  1  0.89685900  0.49516400  0.11547100  1
  O  O2  1  0.33055400  0.37148500  0.14510600  1
  O  O3  1  0.23738000  0.70982900  0.17569600  1
  O  O4  1  0.73738000  0.20982900  0.32430400  1
  O  O5  1  0.83055400  0.87148500  0.35489400  1
  O  O6  1  0.39685900  0.99516400  0.38452900  1
  O  O7  1  0.25609500  0.57080500  0.45477800  1
  O  O8  1  0.74390500  0.07080500  0.54522200  1
  O  O9  1  0.60314100  0.49516400  0.61547100  1
  O  O10  1  0.16944600  0.37148500  0.64510600  1
  O  O11  1  0.26262000  0.70982900  0.67569600  1
  O  O12  1  0.76262000  0.20982900  0.82430400  1
  O  O13  1  0.66944600  0.87148500  0.85489400  1
  O  O14  1  0.10314100  0.99516400  0.88452900  1
  O  O15  1  0.24390500  0.57080500  0.95477800  1
loop_
_geom_bond_atom_site_label_1
_geom_bond_atom_site_label_2
_geom_bond_distance
_geom_bond_site_symmetry_2
Li0 O1 1.944863 1_555
Li0 O0 1.964435 1_555
Li0 O4 1.985249 1_555
Li0 O2 2.014273 1_555
Li1 O6 1.944863 1_555
Li1 O7 1.964435 1_555
Li1 O3 1.985249 1_555
Li1 O5 2.014273 1_455
Li2 O9 1.944863 1_555
Li2 O8 1.964435 1_555
Li2 O12 1.985249 1_555
Li2 O10 2.014273 1_655
Li3 O14 1.944863 1_555
Li3 O15 1.964435 1_555
Li3 O11 1.985249 1_555
Li3 O13 2.014273 1_555
O0 P3 1.549926 1_554
O0 Sn0 2.426861 1_545
O1 P0 1.557933 1_655
O1 Sn0 2.455684 1_555
O2 P0 1.575888 1_555
O2 Sn1 2.351004 1_555
O3 P0 1.560798 1_555
O3 Sn0 2.525119 1_555
O4 P1 1.560798 1_555
O4 Sn1 2.525119 1_655
O5 P1 1.575888 1_565
O5 Sn0 2.351004 1_555
O6 P1 1.557933 1_565
O6 Sn1 2.455684 1_565
O7 P2 1.549926 1_555
O7 Sn1 2.426861 1_555
O8 P1 1.549926 1_555
O8 Sn2 2.426861 1_545
O9 P2 1.557933 1_555
O9 Sn2 2.455684 1_555
O10 P2 1.575888 1_555
O10 Sn3 2.351004 1_555
O11 P2 1.560798 1_555
O11 Sn2 2.525119 1_455
O12 P3 1.560798 1_555
O12 Sn3 2.525119 1_555
O13 P3 1.575888 1_565
O13 Sn2 2.351004 1_555
O14 P3 1.557933 1_465
O14 Sn3 2.455684 1_565
O15 P0 1.549926 1_556
O15 Sn3 2.426861 1_555
