# generated using pymatgen
data_Eu2Al4O9
_symmetry_space_group_name_H-M   'P 1'
_cell_length_a   7.53177204
_cell_length_b   8.43920304
_cell_length_c   5.75232800
_cell_angle_alpha   89.99926483
_cell_angle_beta   90.00019854
_cell_angle_gamma   90.01174628
_symmetry_Int_Tables_number   1
_chemical_formula_structural   Eu2Al4O9
_chemical_formula_sum   'Eu4 Al8 O18'
_cell_volume   365.63034777
_cell_formula_units_Z   2
loop_
 _symmetry_equiv_pos_site_id
 _symmetry_equiv_pos_as_xyz
  1  'x, y, z'
loop_
 _atom_site_type_symbol
 _atom_site_label
 _atom_site_symmetry_multiplicity
 _atom_site_fract_x
 _atom_site_fract_y
 _atom_site_fract_z
 _atom_site_occupancy
  Eu  Eu0  1  0.15656100  0.18413500  0.99999800  1
  Eu  Eu1  1  0.34369200  0.68391300  0.00000100  1
  Eu  Eu2  1  0.65670400  0.31590800  0.99999900  1
  Eu  Eu3  1  0.84326100  0.81583100  0.99999000  1
  Al  Al0  1  0.00019400  0.50013200  0.25658500  1
  Al  Al1  1  0.00019500  0.50013200  0.74341700  1
  Al  Al2  1  0.13822000  0.83572700  0.50000100  1
  Al  Al3  1  0.36168300  0.33591900  0.50000100  1
  Al  Al4  1  0.49984800  0.99981500  0.25637100  1
  Al  Al5  1  0.49984700  0.99982000  0.74363300  1
  Al  Al6  1  0.63836700  0.66419200  0.49999900  1
  Al  Al7  1  0.86166000  0.16410900  0.50000000  1
  O  O0  1  0.00002000  0.00005100  0.50000000  1
  O  O1  1  0.09960900  0.71693500  0.75149000  1
  O  O2  1  0.09961100  0.71693800  0.24851300  1
  O  O3  1  0.14863100  0.42686900  0.50000200  1
  O  O4  1  0.15839200  0.45113700  0.00000100  1
  O  O5  1  0.34144200  0.95142700  0.00000000  1
  O  O6  1  0.35139200  0.92696700  0.50000200  1
  O  O7  1  0.40038300  0.21692800  0.24851600  1
  O  O8  1  0.40038000  0.21692600  0.75148600  1
  O  O9  1  0.50000000  0.50001500  0.50000000  1
  O  O10  1  0.59967100  0.78308000  0.24850900  1
  O  O11  1  0.59967600  0.78308000  0.75149500  1
  O  O12  1  0.64857600  0.07310900  0.49999900  1
  O  O13  1  0.65885800  0.04887000  0.99999600  1
  O  O14  1  0.84113200  0.54883600  0.99999300  1
  O  O15  1  0.85133300  0.57299700  0.50000100  1
  O  O16  1  0.90033000  0.28310400  0.24845100  1
  O  O17  1  0.90033200  0.28309800  0.75155000  1
loop_
_geom_bond_atom_site_label_1
_geom_bond_atom_site_label_2
_geom_bond_distance
_geom_bond_site_symmetry_2
Eu0 O4 2.253323 1_556
Eu0 O8 2.343553 1_555
Eu0 O7 2.343590 1_556
Eu0 O5 2.407678 1_546
Eu0 O17 2.542627 1_455
Eu0 O16 2.542691 1_456
Eu1 O5 2.257672 1_555
Eu1 O1 2.345420 1_554
Eu1 O2 2.345427 1_555
Eu1 O4 2.409506 1_555
Eu1 O10 2.541711 1_555
Eu1 O11 2.541728 1_554
Eu2 O13 2.253650 1_555
Eu2 O16 2.342297 1_556
Eu2 O17 2.342317 1_555
Eu2 O14 2.406756 1_555
Eu2 O7 2.543171 1_556
Eu2 O8 2.543185 1_555
Eu3 O14 2.253279 1_555
Eu3 O11 2.342069 1_555
Eu3 O10 2.342186 1_556
Eu3 O13 2.407878 1_565
Eu3 O1 2.543310 1_655
Eu3 O2 2.543368 1_656
Al0 O3 1.895530 1_555
Al0 O15 1.896336 1_455
Al0 O4 1.941478 1_555
Al0 O14 1.944979 1_454
Al0 O2 1.977363 1_555
Al0 O16 1.980382 1_455
Al1 O3 1.895534 1_555
Al1 O15 1.896323 1_455
Al1 O4 1.941459 1_556
Al1 O14 1.944928 1_455
Al1 O1 1.977332 1_555
Al1 O17 1.980424 1_455
Al2 O0 1.734116 1_565
Al2 O6 1.780510 1_555
Al2 O2 1.783879 1_555
Al2 O1 1.783881 1_555
Al3 O9 1.732766 1_555
Al3 O3 1.778922 1_555
Al3 O8 1.784987 1_555
Al3 O7 1.785004 1_555
Al4 O6 1.895241 1_555
Al4 O12 1.897667 1_565
Al4 O5 1.940315 1_555
Al4 O13 1.944321 1_564
Al4 O10 1.978227 1_555
Al4 O7 1.980152 1_565
Al5 O6 1.895256 1_555
Al5 O12 1.897677 1_565
Al5 O5 1.940300 1_556
Al5 O13 1.944266 1_565
Al5 O11 1.978282 1_555
Al5 O8 1.980104 1_565
Al6 O9 1.733539 1_555
Al6 O15 1.779231 1_555
Al6 O10 1.784511 1_555
Al6 O11 1.784555 1_555
Al7 O0 1.733046 1_655
Al7 O12 1.779037 1_555
Al7 O17 1.785194 1_555
Al7 O16 1.785196 1_555
