# generated using pymatgen
data_Ba7Cu3H17
_symmetry_space_group_name_H-M   'P 1'
_cell_length_a   11.81455285
_cell_length_b   11.81459862
_cell_length_c   7.50843461
_cell_angle_alpha   89.99946355
_cell_angle_beta   89.99944538
_cell_angle_gamma   119.99604158
_symmetry_Int_Tables_number   1
_chemical_formula_structural   Ba7Cu3H17
_chemical_formula_sum   'Ba14 Cu6 H34'
_cell_volume   907.68177873
_cell_formula_units_Z   2
loop_
 _symmetry_equiv_pos_site_id
 _symmetry_equiv_pos_as_xyz
  1  'x, y, z'
loop_
 _atom_site_type_symbol
 _atom_site_label
 _atom_site_symmetry_multiplicity
 _atom_site_fract_x
 _atom_site_fract_y
 _atom_site_fract_z
 _atom_site_occupancy
  Ba  Ba0  1  0.87823493  0.14946194  0.67362031  1
  Ba  Ba1  1  0.85053577  0.72877154  0.67361328  1
  Ba  Ba2  1  0.27122888  0.12176625  0.67361152  1
  Ba  Ba3  1  0.14946028  0.87823134  0.17361846  1
  Ba  Ba4  1  0.72877047  0.85053496  0.17361431  1
  Ba  Ba5  1  0.12176470  0.27122710  0.17361326  1
  Ba  Ba6  1  0.45533187  0.55933145  0.53100724  1
  Ba  Ba7  1  0.44066836  0.89600234  0.53100138  1
  Ba  Ba8  1  0.10399996  0.54466885  0.53101863  1
  Ba  Ba9  1  0.55933209  0.45533280  0.03100533  1
  Ba  Ba10  1  0.89600314  0.44066736  0.03100349  1
  Ba  Ba11  1  0.54466864  0.10399910  0.03101735  1
  Ba  Ba12  1  0.66666835  0.33333342  0.51193383  1
  Ba  Ba13  1  0.33333234  0.66667055  0.01193359  1
  Cu  Cu0  1  0.65852946  0.84148751  0.76097007  1
  Cu  Cu1  1  0.15851547  0.81705082  0.76097098  1
  Cu  Cu2  1  0.18295405  0.34146198  0.76096879  1
  Cu  Cu3  1  0.84148791  0.65852880  0.26096989  1
  Cu  Cu4  1  0.81704992  0.15851471  0.26096904  1
  Cu  Cu5  1  0.34146137  0.18295178  0.26096982  1
  H  H0  1  0.59331659  0.92132866  0.84860413  1
  H  H1  1  0.07867360  0.67200823  0.84859592  1
  H  H2  1  0.32800353  0.40666455  0.84859753  1
  H  H3  1  0.92133046  0.59331952  0.34860193  1
  H  H4  1  0.67200570  0.07866894  0.34859774  1
  H  H5  1  0.40666846  0.32800213  0.34860349  1
  H  H6  1  0.65019477  0.82967144  0.54425877  1
  H  H7  1  0.17031693  0.82052399  0.54425357  1
  H  H8  1  0.17947845  0.34979611  0.54425942  1
  H  H9  1  0.82966925  0.65019433  0.04425919  1
  H  H10  1  0.82052436  0.17031759  0.04425601  1
  H  H11  1  0.34979488  0.17947765  0.04425580  1
  H  H12  1  0.59962141  0.69656238  0.84840661  1
  H  H13  1  0.30344192  0.90306739  0.84841202  1
  H  H14  1  0.09693580  0.40037345  0.84841086  1
  H  H15  1  0.69656331  0.59962216  0.34840890  1
  H  H16  1  0.90306587  0.30344135  0.34841066  1
  H  H17  1  0.40037119  0.09693546  0.34840995  1
  H  H18  1  0.81307921  0.91503689  0.82478317  1
  H  H19  1  0.08495314  0.89804655  0.82479179  1
  H  H20  1  0.10195443  0.18691154  0.82479470  1
  H  H21  1  0.91503524  0.81307853  0.32478304  1
  H  H22  1  0.89804859  0.08495314  0.32479037  1
  H  H23  1  0.18691228  0.10195428  0.32479687  1
  H  H24  1  0.87665501  0.37419973  0.68910349  1
  H  H25  1  0.62582884  0.50247159  0.68912018  1
  H  H26  1  0.49754254  0.12335474  0.68911559  1
  H  H27  1  0.37419942  0.87665554  0.18910370  1
  H  H28  1  0.50246770  0.62582545  0.18911822  1
  H  H29  1  0.12335360  0.49753977  0.18911682  1
  H  H30  1  0.66666955  0.33333324  0.17904510  1
  H  H31  1  0.33333154  0.66666782  0.67904650  1
  H  H32  1  0.66667138  0.33332580  0.86834544  1
  H  H33  1  0.33332510  0.66667146  0.36834596  1
loop_
_geom_bond_atom_site_label_1
_geom_bond_atom_site_label_2
_geom_bond_distance
_geom_bond_site_symmetry_2
Ba0 H24 2.667104 1_555
Ba0 H20 2.702062 1_655
Ba0 H18 2.723937 1_545
Ba0 H22 2.770219 1_555
Ba0 H10 2.904833 1_556
Ba1 H25 2.666977 1_555
Ba1 H18 2.702002 1_555
Ba1 H19 2.724042 1_655
Ba1 H21 2.770170 1_555
Ba1 H9 2.904935 1_556
Ba2 H26 2.667005 1_555
Ba2 H19 2.702182 1_545
Ba2 H20 2.723894 1_555
Ba2 H23 2.770105 1_555
Ba2 H11 2.904930 1_556
Ba3 H27 2.667086 1_555
Ba3 H23 2.702111 1_565
Ba3 H21 2.723940 1_455
Ba3 H19 2.770193 1_554
Ba3 H7 2.904821 1_555
Ba4 H28 2.667008 1_555
Ba4 H21 2.701985 1_555
Ba4 H22 2.724054 1_565
Ba4 H18 2.770183 1_554
Ba4 H6 2.904921 1_555
Ba5 H29 2.667001 1_555
Ba5 H22 2.702138 1_455
Ba5 H23 2.723901 1_555
Ba5 H20 2.770132 1_554
Ba5 H8 2.904954 1_555
Ba6 H31 2.597867 1_555
Ba6 H33 2.646797 1_555
Ba6 H28 2.660741 1_555
Ba6 H25 2.696540 1_555
Ba6 H5 2.846899 1_555
Ba6 H6 2.856428 1_555
Ba6 H12 2.907035 1_555
Ba6 H2 2.913674 1_555
Ba6 H8 2.948365 1_555
Ba6 H15 2.978666 1_555
Ba7 H31 2.597976 1_555
Ba7 H33 2.646768 1_555
Ba7 H27 2.660752 1_555
Ba7 H26 2.696542 1_565
Ba7 H4 2.847003 1_565
Ba7 H7 2.856447 1_555
Ba7 H13 2.906998 1_555
Ba7 H0 2.913650 1_555
Ba7 H6 2.948166 1_555
Ba7 H17 2.978571 1_565
Ba8 H31 2.597930 1_555
Ba8 H33 2.646749 1_555
Ba8 H29 2.660805 1_555
Ba8 H24 2.696403 1_455
Ba8 H3 2.846820 1_455
Ba8 H8 2.856349 1_555
Ba8 H14 2.906922 1_555
Ba8 H1 2.913587 1_555
Ba8 H7 2.948284 1_555
Ba8 H16 2.978801 1_455
Ba9 H30 2.597872 1_555
Ba9 H32 2.646788 1_554
Ba9 H25 2.660720 1_554
Ba9 H28 2.696534 1_555
Ba9 H2 2.846881 1_554
Ba9 H9 2.856394 1_555
Ba9 H15 2.907061 1_555
Ba9 H5 2.913713 1_555
Ba9 H11 2.948390 1_555
Ba9 H12 2.978664 1_554
Ba10 H30 2.597948 1_555
Ba10 H32 2.646778 1_554
Ba10 H24 2.660765 1_554
Ba10 H29 2.696515 1_655
Ba10 H1 2.847058 1_654
Ba10 H10 2.856440 1_555
Ba10 H16 2.906969 1_555
Ba10 H3 2.913651 1_555
Ba10 H9 2.948203 1_555
Ba10 H14 2.978541 1_654
Ba11 H30 2.597961 1_555
Ba11 H32 2.646768 1_554
Ba11 H26 2.660800 1_554
Ba11 H27 2.696402 1_545
Ba11 H0 2.846804 1_544
Ba11 H11 2.856354 1_555
Ba11 H17 2.906935 1_555
Ba11 H4 2.913604 1_555
Ba11 H10 2.948274 1_555
Ba11 H13 2.978775 1_544
Ba12 H30 2.499473 1_555
Ba12 H24 2.638177 1_555
Ba12 H25 2.638191 1_555
Ba12 H26 2.638243 1_555
Ba12 H32 2.676093 1_555
Ba13 H31 2.499461 1_554
Ba13 H27 2.638167 1_555
Ba13 H28 2.638189 1_555
Ba13 H29 2.638263 1_555
Ba13 H33 2.676099 1_555
Cu0 H0 1.625746 1_555
Cu0 H12 1.629592 1_555
Cu0 H6 1.631902 1_555
Cu0 H18 1.652954 1_555
Cu1 H1 1.625693 1_555
Cu1 H13 1.629651 1_555
Cu1 H7 1.631933 1_555
Cu1 H19 1.652957 1_555
Cu2 H2 1.625773 1_555
Cu2 H14 1.629585 1_555
Cu2 H8 1.631880 1_555
Cu2 H20 1.652984 1_555
Cu3 H3 1.625720 1_555
Cu3 H15 1.629590 1_555
Cu3 H9 1.631900 1_555
Cu3 H21 1.652960 1_555
Cu4 H4 1.625716 1_555
Cu4 H16 1.629658 1_555
Cu4 H10 1.631901 1_555
Cu4 H22 1.652980 1_555
Cu5 H5 1.625799 1_555
Cu5 H17 1.629547 1_555
Cu5 H11 1.631914 1_555
Cu5 H23 1.652968 1_555
