# generated using pymatgen
data_Li4Cr3NiO8
_symmetry_space_group_name_H-M   'P 1'
_cell_length_a   5.13729986
_cell_length_b   5.88591028
_cell_length_c   5.88590474
_cell_angle_alpha   60.39121935
_cell_angle_beta   73.19441116
_cell_angle_gamma   73.19461923
_symmetry_Int_Tables_number   1
_chemical_formula_structural   Li4Cr3NiO8
_chemical_formula_sum   'Li4 Cr3 Ni1 O8'
_cell_volume   145.82175775
_cell_formula_units_Z   1
loop_
 _symmetry_equiv_pos_site_id
 _symmetry_equiv_pos_as_xyz
  1  'x, y, z'
loop_
 _atom_site_type_symbol
 _atom_site_label
 _atom_site_symmetry_multiplicity
 _atom_site_fract_x
 _atom_site_fract_y
 _atom_site_fract_z
 _atom_site_occupancy
  Li  Li0  1  0.00129000  0.50106200  0.50101600  1
  Li  Li1  1  0.99871700  0.99902100  0.99896100  1
  Li  Li2  1  0.00002300  0.99363300  0.50644400  1
  Li  Li3  1  0.00001900  0.50649000  0.99358600  1
  Cr  Cr0  1  0.50001700  0.24996100  0.25001300  1
  Cr  Cr1  1  0.49995400  0.24999700  0.75003800  1
  Cr  Cr2  1  0.50001100  0.74999100  0.24997800  1
  Ni  Ni0  1  0.49998700  0.74997800  0.74998100  1
  O  O0  1  0.27187100  0.61905400  0.61901000  1
  O  O1  1  0.72813900  0.88091800  0.88087100  1
  O  O2  1  0.27281800  0.12208000  0.12215800  1
  O  O3  1  0.72701100  0.37794300  0.37801900  1
  O  O4  1  0.72567400  0.36377900  0.89637800  1
  O  O5  1  0.72568700  0.89634800  0.36377600  1
  O  O6  1  0.27438300  0.13605600  0.60372500  1
  O  O7  1  0.27440000  0.60368800  0.13604900  1
loop_
_geom_bond_atom_site_label_1
_geom_bond_atom_site_label_2
_geom_bond_distance
_geom_bond_site_symmetry_2
Li0 O7 2.100722 1_555
Li0 O6 2.100836 1_555
Li0 O0 2.118957 1_555
Li0 O3 2.175635 1_455
Li0 O5 2.229283 1_455
Li0 O4 2.229616 1_455
Li1 O4 2.099734 1_565
Li1 O5 2.099913 1_556
Li1 O1 2.119772 1_555
Li1 O2 2.175431 1_666
Li1 O6 2.229180 1_665
Li1 O7 2.229624 1_656
Li2 O1 2.135192 1_455
Li2 O0 2.135744 1_555
Li2 O6 2.154388 1_565
Li2 O5 2.155323 1_455
Li2 O2 2.177513 1_565
Li2 O3 2.178109 1_465
Li3 O1 2.135195 1_455
Li3 O0 2.135733 1_555
Li3 O7 2.154330 1_556
Li3 O4 2.155248 1_455
Li3 O2 2.178042 1_556
Li3 O3 2.178599 1_456
Cr0 O5 1.949574 1_545
Cr0 O4 1.949631 1_554
Cr0 O6 1.949908 1_555
Cr0 O7 1.949942 1_555
Cr0 O2 2.017634 1_555
Cr0 O3 2.017873 1_555
Cr1 O0 2.020316 1_555
Cr1 O1 2.020588 1_545
Cr1 O3 2.030753 1_555
Cr1 O2 2.031336 1_556
Cr1 O6 2.032597 1_555
Cr1 O4 2.032661 1_555
Cr2 O0 2.020304 1_555
Cr2 O1 2.020597 1_554
Cr2 O3 2.030779 1_555
Cr2 O2 2.031316 1_565
Cr2 O5 2.032624 1_555
Cr2 O7 2.032665 1_555
Ni0 O1 2.047559 1_555
Ni0 O0 2.047692 1_555
Ni0 O7 2.090187 1_556
Ni0 O6 2.090262 1_565
Ni0 O4 2.090959 1_555
Ni0 O5 2.090996 1_555
