# generated using pymatgen
data_CdSnO3
_symmetry_space_group_name_H-M   'P 1'
_cell_length_a   5.93337217
_cell_length_b   5.93337229
_cell_length_c   5.93337328
_cell_angle_alpha   55.14847345
_cell_angle_beta   55.14848066
_cell_angle_gamma   55.14848451
_symmetry_Int_Tables_number   1
_chemical_formula_structural   CdSnO3
_chemical_formula_sum   'Cd2 Sn2 O6'
_cell_volume   131.04061486
_cell_formula_units_Z   2
loop_
 _symmetry_equiv_pos_site_id
 _symmetry_equiv_pos_as_xyz
  1  'x, y, z'
loop_
 _atom_site_type_symbol
 _atom_site_label
 _atom_site_symmetry_multiplicity
 _atom_site_fract_x
 _atom_site_fract_y
 _atom_site_fract_z
 _atom_site_occupancy
  Cd  Cd0  1  0.36573640  0.36573640  0.36573640  1
  Cd  Cd1  1  0.63426360  0.63426360  0.63426360  1
  Sn  Sn0  1  0.15405739  0.15405739  0.15405739  1
  Sn  Sn1  1  0.84594261  0.84594261  0.84594261  1
  O  O0  1  0.03836702  0.78842522  0.44379762  1
  O  O1  1  0.55620238  0.96163298  0.21157478  1
  O  O2  1  0.21157478  0.55620238  0.96163298  1
  O  O3  1  0.78842522  0.44379762  0.03836702  1
  O  O4  1  0.44379762  0.03836702  0.78842522  1
  O  O5  1  0.96163298  0.21157478  0.55620238  1
loop_
_geom_bond_atom_site_label_1
_geom_bond_atom_site_label_2
_geom_bond_distance
_geom_bond_site_symmetry_2
Cd0 O3 2.238104 1_555
Cd0 O4 2.238105 1_555
Cd0 O0 2.238105 1_555
Cd0 O5 2.468004 1_455
Cd0 O1 2.468004 1_545
Cd0 O2 2.468004 1_554
Cd1 O2 2.238104 1_555
Cd1 O1 2.238105 1_555
Cd1 O5 2.238105 1_555
Cd1 O0 2.468004 1_655
Cd1 O4 2.468004 1_565
Cd1 O3 2.468004 1_556
O0 Sn0 2.055191 1_565
O0 Sn1 2.117821 1_455
O1 Sn1 2.055192 1_554
O1 Sn0 2.117820 1_565
O2 Sn1 2.055191 1_455
O2 Sn0 2.117820 1_556
O3 Sn0 2.055191 1_655
O3 Sn1 2.117820 1_554
O4 Sn0 2.055192 1_556
O4 Sn1 2.117820 1_545
O5 Sn1 2.055191 1_545
O5 Sn0 2.117821 1_655
