# generated using pymatgen
data_Nb3Co(PO4)6
_symmetry_space_group_name_H-M   'P 1'
_cell_length_a   8.91444380
_cell_length_b   8.91444380
_cell_length_c   8.91444444
_cell_angle_alpha   58.46254635
_cell_angle_beta   58.46254635
_cell_angle_gamma   58.46254301
_symmetry_Int_Tables_number   1
_chemical_formula_structural   Nb3Co(PO4)6
_chemical_formula_sum   'Nb3 Co1 P6 O24'
_cell_volume   483.29799576
_cell_formula_units_Z   1
loop_
 _symmetry_equiv_pos_site_id
 _symmetry_equiv_pos_as_xyz
  1  'x, y, z'
loop_
 _atom_site_type_symbol
 _atom_site_label
 _atom_site_symmetry_multiplicity
 _atom_site_fract_x
 _atom_site_fract_y
 _atom_site_fract_z
 _atom_site_occupancy
  Nb  Nb0  1  0.14006000  0.14006000  0.14006000  1
  Nb  Nb1  1  0.35833000  0.35833000  0.35833000  1
  Nb  Nb2  1  0.63862700  0.63862700  0.63862700  1
  Co  Co0  1  0.85576900  0.85576900  0.85576900  1
  P  P0  1  0.02974900  0.47700300  0.75048400  1
  P  P1  1  0.47700300  0.75048400  0.02974900  1
  P  P2  1  0.75048400  0.02974900  0.47700300  1
  P  P3  1  0.23534100  0.96474100  0.54476300  1
  P  P4  1  0.54476300  0.23534100  0.96474100  1
  P  P5  1  0.96474100  0.54476300  0.23534100  1
  O  O0  1  0.13335100  0.50439600  0.27786000  1
  O  O1  1  0.27786000  0.13335100  0.50439600  1
  O  O2  1  0.06011700  0.29251700  0.91979600  1
  O  O3  1  0.50439600  0.27786000  0.13335100  1
  O  O4  1  0.20913000  0.43919100  0.57940800  1
  O  O5  1  0.00993000  0.64217700  0.77570600  1
  O  O6  1  0.29251700  0.91979600  0.06011700  1
  O  O7  1  0.43919100  0.57940800  0.20913000  1
  O  O8  1  0.57940800  0.20913000  0.43919100  1
  O  O9  1  0.21769200  0.99551300  0.36608800  1
  O  O10  1  0.06855600  0.94029500  0.72090500  1
  O  O11  1  0.36608800  0.21769200  0.99551300  1
  O  O12  1  0.64217700  0.77570600  0.00993000  1
  O  O13  1  0.91979600  0.06011700  0.29251700  1
  O  O14  1  0.77570600  0.00993000  0.64217700  1
  O  O15  1  0.41676600  0.78983200  0.56341400  1
  O  O16  1  0.56341400  0.41676600  0.78983200  1
  O  O17  1  0.72090500  0.06855600  0.94029500  1
  O  O18  1  0.99551300  0.36608800  0.21769200  1
  O  O19  1  0.78983200  0.56341400  0.41676600  1
  O  O20  1  0.49907000  0.71998100  0.86344100  1
  O  O21  1  0.94029500  0.72090500  0.06855600  1
  O  O22  1  0.71998100  0.86344100  0.49907000  1
  O  O23  1  0.86344100  0.49907000  0.71998100  1
loop_
_geom_bond_atom_site_label_1
_geom_bond_atom_site_label_2
_geom_bond_distance
_geom_bond_site_symmetry_2
Nb0 O6 1.967078 1_545
Nb0 O13 1.967078 1_455
Nb0 O2 1.967078 1_554
Nb0 O18 2.002245 1_455
Nb0 O11 2.002245 1_554
Nb0 O9 2.002245 1_545
Nb1 O8 1.978302 1_555
Nb1 O7 1.978302 1_555
Nb1 O4 1.978302 1_555
Nb1 O0 2.007079 1_555
Nb1 O1 2.007079 1_555
Nb1 O3 2.007079 1_555
Nb2 O15 1.957287 1_555
Nb2 O16 1.957287 1_555
Nb2 O19 1.957287 1_555
Nb2 O23 2.014560 1_555
Nb2 O22 2.014560 1_555
Nb2 O20 2.014560 1_555
Co0 O5 1.918760 1_655
Co0 O12 1.918760 1_556
Co0 O14 1.918760 1_565
Co0 O17 1.942467 1_565
Co0 O10 1.942467 1_655
Co0 O21 1.942467 1_556
O0 P5 1.555584 1_455
O1 P3 1.555584 1_545
O2 P0 1.555967 1_555
O3 P4 1.555584 1_554
O4 P0 1.555384 1_555
O5 P0 1.510783 1_555
O6 P1 1.555967 1_555
O7 P1 1.555384 1_555
O8 P2 1.555383 1_555
O9 P3 1.548194 1_555
O10 P3 1.504114 1_555
O11 P4 1.548194 1_555
O12 P1 1.510783 1_555
O13 P2 1.555967 1_555
O14 P2 1.510783 1_555
O15 P3 1.564150 1_555
O16 P4 1.564150 1_555
O17 P4 1.504114 1_555
O18 P5 1.548194 1_555
O19 P5 1.564150 1_555
O20 P1 1.539885 1_556
O21 P5 1.504114 1_555
O22 P2 1.539885 1_565
O23 P0 1.539885 1_655
