# generated using pymatgen
data_LiVOF4
_symmetry_space_group_name_H-M   'P 1'
_cell_length_a   5.40186900
_cell_length_b   5.69685013
_cell_length_c   7.03443399
_cell_angle_alpha   104.48111898
_cell_angle_beta   96.25876046
_cell_angle_gamma   112.17030088
_symmetry_Int_Tables_number   1
_chemical_formula_structural   LiVOF4
_chemical_formula_sum   'Li2 V2 O2 F8'
_cell_volume   189.04222394
_cell_formula_units_Z   2
loop_
 _symmetry_equiv_pos_site_id
 _symmetry_equiv_pos_as_xyz
  1  'x, y, z'
loop_
 _atom_site_type_symbol
 _atom_site_label
 _atom_site_symmetry_multiplicity
 _atom_site_fract_x
 _atom_site_fract_y
 _atom_site_fract_z
 _atom_site_occupancy
  Li  Li0  1  0.66756200  0.31083100  0.74728200  1
  Li  Li1  1  0.33243800  0.68916900  0.25271800  1
  V  V0  1  0.00000000  0.00000000  0.00000000  1
  V  V1  1  0.00000000  0.00000000  0.50000000  1
  O  O0  1  0.91662400  0.01812800  0.24674700  1
  O  O1  1  0.08337600  0.98187200  0.75325300  1
  F  F0  1  0.76610500  0.15122100  0.94081500  1
  F  F1  1  0.03669300  0.69034200  0.38821500  1
  F  F2  1  0.71650800  0.66323200  0.89132600  1
  F  F3  1  0.36898400  0.18973000  0.51691300  1
  F  F4  1  0.63101600  0.81027000  0.48308700  1
  F  F5  1  0.28349200  0.33676800  0.10867400  1
  F  F6  1  0.96330700  0.30965800  0.61178500  1
  F  F7  1  0.23389500  0.84877900  0.05918500  1
loop_
_geom_bond_atom_site_label_1
_geom_bond_atom_site_label_2
_geom_bond_distance
_geom_bond_site_symmetry_2
O0 V1 1.827402 1_655
O0 V0 1.828158 1_655
O1 V1 1.827402 1_565
O1 V0 1.828158 1_566
F0 V0 1.843369 1_656
F0 Li0 1.946772 1_555
F1 V1 1.836766 1_565
F1 Li1 1.948759 1_555
F2 V0 1.845031 1_666
F2 Li0 1.910655 1_555
F3 V1 1.847513 1_555
F3 Li0 1.932511 1_555
F4 V1 1.847513 1_665
F4 Li1 1.932511 1_555
F5 V0 1.845031 1_555
F5 Li1 1.910655 1_555
F6 V1 1.836766 1_655
F6 Li0 1.948759 1_555
F7 V0 1.843369 1_565
F7 Li1 1.946772 1_555
