# generated using pymatgen
data_K2NdPCO7
_symmetry_space_group_name_H-M   'P 1'
_cell_length_a   7.33579500
_cell_length_b   5.78147100
_cell_length_c   10.10280105
_cell_angle_alpha   86.85954061
_cell_angle_beta   90.00000000
_cell_angle_gamma   90.00000000
_symmetry_Int_Tables_number   1
_chemical_formula_structural   K2NdPCO7
_chemical_formula_sum   'K4 Nd2 P2 C2 O14'
_cell_volume   427.83335418
_cell_formula_units_Z   2
loop_
 _symmetry_equiv_pos_site_id
 _symmetry_equiv_pos_as_xyz
  1  'x, y, z'
loop_
 _atom_site_type_symbol
 _atom_site_label
 _atom_site_symmetry_multiplicity
 _atom_site_fract_x
 _atom_site_fract_y
 _atom_site_fract_z
 _atom_site_occupancy
  K  K0  1  0.01264500  0.24428200  0.78636700  1
  K  K1  1  0.48735500  0.24428200  0.78636700  1
  K  K2  1  0.51264500  0.75571800  0.21363300  1
  K  K3  1  0.98735500  0.75571800  0.21363300  1
  Nd  Nd0  1  0.75000000  0.78249400  0.62261200  1
  Nd  Nd1  1  0.25000000  0.21750600  0.37738800  1
  P  P0  1  0.25000000  0.70869400  0.57334600  1
  P  P1  1  0.75000000  0.29130600  0.42665400  1
  C  C0  1  0.75000000  0.73182600  0.90647100  1
  C  C1  1  0.25000000  0.26817400  0.09352900  1
  O  O0  1  0.25000000  0.30394600  0.96892700  1
  O  O1  1  0.75000000  0.93904300  0.84629300  1
  O  O2  1  0.75000000  0.55771900  0.82560700  1
  O  O3  1  0.07506400  0.78943500  0.64386300  1
  O  O4  1  0.42493600  0.78943500  0.64386300  1
  O  O5  1  0.75000000  0.18361900  0.57312300  1
  O  O6  1  0.25000000  0.43840600  0.56860400  1
  O  O7  1  0.75000000  0.56159400  0.43139600  1
  O  O8  1  0.25000000  0.81638100  0.42687700  1
  O  O9  1  0.57506400  0.21056500  0.35613700  1
  O  O10  1  0.92493600  0.21056500  0.35613700  1
  O  O11  1  0.25000000  0.44228100  0.17439300  1
  O  O12  1  0.25000000  0.06095700  0.15370700  1
  O  O13  1  0.75000000  0.69605400  0.03107300  1
loop_
_geom_bond_atom_site_label_1
_geom_bond_atom_site_label_2
_geom_bond_distance
_geom_bond_site_symmetry_2
K0 O0 2.573348 1_555
K0 O1 2.660067 1_445
K0 O2 2.689217 1_455
K0 O5 2.925624 1_455
K0 O6 2.976722 1_555
K0 O3 3.100392 1_545
K1 O0 2.573348 1_555
K1 O1 2.660067 1_545
K1 O2 2.689217 1_555
K1 O5 2.925624 1_555
K1 O6 2.976722 1_555
K1 O4 3.100392 1_545
K2 O13 2.573348 1_555
K2 O12 2.660067 1_565
K2 O11 2.689217 1_555
K2 O8 2.925624 1_555
K2 O7 2.976722 1_555
K2 O9 3.100392 1_565
K3 O13 2.573348 1_555
K3 O12 2.660067 1_665
K3 O11 2.689217 1_655
K3 O8 2.925624 1_655
K3 O7 2.976722 1_555
K3 O10 3.100392 1_565
Nd0 O5 2.345448 1_565
Nd0 O2 2.366986 1_555
Nd0 O7 2.373456 1_555
Nd0 O3 2.394782 1_655
Nd0 O4 2.394782 1_555
Nd0 O1 2.479918 1_555
Nd1 O8 2.345448 1_545
Nd1 O11 2.366986 1_555
Nd1 O6 2.373456 1_555
Nd1 O9 2.394782 1_555
Nd1 O10 2.394782 1_455
Nd1 O12 2.479918 1_555
C0 O13 1.264475 1_556
C0 O1 1.313419 1_555
C0 O2 1.330694 1_555
C1 O0 1.264475 1_554
C1 O12 1.313419 1_555
C1 O11 1.330694 1_555
O3 P0 1.552008 1_555
O4 P0 1.552008 1_555
O5 P1 1.573635 1_555
O6 P0 1.566018 1_555
O7 P1 1.566018 1_555
O8 P0 1.573635 1_555
O9 P1 1.552008 1_555
O10 P1 1.552008 1_555
