# generated using pymatgen
data_Na4Sn2C4SO16
_symmetry_space_group_name_H-M   'P 1'
_cell_length_a   9.91268800
_cell_length_b   10.06055696
_cell_length_c   10.14440890
_cell_angle_alpha   90.28001877
_cell_angle_beta   119.10757627
_cell_angle_gamma   117.59821250
_symmetry_Int_Tables_number   1
_chemical_formula_structural   Na4Sn2C4SO16
_chemical_formula_sum   'Na8 Sn4 C8 S2 O32'
_cell_volume   747.90036446
_cell_formula_units_Z   2
loop_
 _symmetry_equiv_pos_site_id
 _symmetry_equiv_pos_as_xyz
  1  'x, y, z'
loop_
 _atom_site_type_symbol
 _atom_site_label
 _atom_site_symmetry_multiplicity
 _atom_site_fract_x
 _atom_site_fract_y
 _atom_site_fract_z
 _atom_site_occupancy
  Na  Na0  1  0.75863100  0.83606800  0.07979400  1
  Na  Na1  1  0.16201300  0.83998600  0.07963000  1
  Na  Na2  1  0.75221500  0.42208400  0.08135800  1
  Na  Na3  1  0.24873300  0.56202700  0.33046600  1
  Na  Na4  1  0.75355200  0.83153200  0.67271900  1
  Na  Na5  1  0.73569300  0.41894600  0.66064400  1
  Na  Na6  1  0.25510000  0.57430000  0.92052600  1
  Na  Na7  1  0.25836600  0.18594000  0.92248900  1
  Sn  Sn0  1  0.49784500  0.00140700  0.49982700  1
  Sn  Sn1  1  0.00086200  0.00184800  0.49807800  1
  Sn  Sn2  1  0.99668400  0.49505800  0.49979700  1
  Sn  Sn3  1  0.51407600  0.00898000  0.99784400  1
  C  C0  1  0.56858900  0.84327700  0.29272900  1
  C  C1  1  0.06859200  0.78949700  0.33904100  1
  C  C2  1  0.05768800  0.79315100  0.72684600  1
  C  C3  1  0.43738400  0.77455400  0.70297300  1
  C  C4  1  0.55714300  0.21614000  0.29058900  1
  C  C5  1  0.93755300  0.20784200  0.27828400  1
  C  C6  1  0.92645700  0.20555100  0.65932600  1
  C  C7  1  0.43080600  0.15886200  0.71013100  1
  S  S0  1  0.25370000  0.37686700  0.12424200  1
  S  S1  1  0.75684900  0.63020900  0.87933200  1
  O  O0  1  0.43674100  0.81344600  0.15506300  1
  O  O1  1  0.05129700  0.90996800  0.35245700  1
  O  O2  1  0.71904100  0.86367100  0.31349300  1
  O  O3  1  0.21851400  0.81751900  0.34847700  1
  O  O4  1  0.55787000  0.85178500  0.41762100  1
  O  O5  1  0.37155200  0.43498600  0.05816500  1
  O  O6  1  0.13721900  0.44747800  0.06834200  1
  O  O7  1  0.94671200  0.65007100  0.30835600  1
  O  O8  1  0.95234000  0.81150500  0.59059300  1
  O  O9  1  0.55085300  0.90854200  0.69035400  1
  O  O10  1  0.13861000  0.20196500  0.06172200  1
  O  O11  1  0.36785700  0.43090500  0.29977100  1
  O  O12  1  0.95795800  0.34337400  0.27578200  1
  O  O13  1  0.53843300  0.21440300  0.15503500  1
  O  O14  1  0.31431400  0.65441400  0.58176400  1
  O  O15  1  0.16687500  0.90636900  0.85541300  1
  O  O16  1  0.81729100  0.08645300  0.15565700  1
  O  O17  1  0.67204500  0.33641100  0.41041900  1
  O  O18  1  0.03838700  0.65735100  0.72062200  1
  O  O19  1  0.46387800  0.77841700  0.84039100  1
  O  O20  1  0.64612100  0.57942800  0.70333900  1
  O  O21  1  0.87102600  0.80814500  0.93557300  1
  O  O22  1  0.04359400  0.19603800  0.41657300  1
  O  O23  1  0.44864300  0.07759400  0.30010900  1
  O  O24  1  0.05569200  0.34262800  0.69436400  1
  O  O25  1  0.64215200  0.57464600  0.94510500  1
  O  O26  1  0.88281300  0.57043200  0.93909100  1
  O  O27  1  0.44137500  0.14464300  0.58704200  1
  O  O28  1  0.77507900  0.18302500  0.63889300  1
  O  O29  1  0.27668200  0.13175900  0.68740400  1
  O  O30  1  0.93924300  0.08098900  0.64559800  1
  O  O31  1  0.56481000  0.20106600  0.85075000  1
loop_
_geom_bond_atom_site_label_1
_geom_bond_atom_site_label_2
_geom_bond_distance
_geom_bond_site_symmetry_2
Na0 O21 2.309225 1_554
Na0 O16 2.337592 1_565
Na0 O25 2.394494 1_554
Na0 O19 2.506767 1_554
Na0 O1 2.606604 1_655
Na0 O2 2.617487 1_555
Na1 O21 2.365715 1_454
Na1 O15 2.390313 1_554
Na1 O26 2.493160 1_454
Na1 O23 2.502347 1_565
Na1 O3 2.537740 1_555
Na1 O0 2.592575 1_555
Na2 O25 2.358334 1_554
Na2 O31 2.400374 1_554
Na2 O7 2.410906 1_555
Na2 O26 2.456594 1_554
Na2 O12 2.504924 1_555
Na2 O13 2.620827 1_555
Na3 O11 2.242436 1_555
Na3 O6 2.356013 1_555
Na3 O14 2.364309 1_555
Na3 O12 2.452029 1_455
Na3 O3 2.737168 1_555
Na3 O4 2.780679 1_555
Na4 O20 2.343155 1_555
Na4 O21 2.400132 1_555
Na4 O30 2.445731 1_565
Na4 O4 2.447159 1_555
Na4 O9 2.541700 1_555
Na4 O8 2.565358 1_555
Na5 O20 2.297440 1_555
Na5 O17 2.338121 1_555
Na5 O26 2.513793 1_555
Na5 O18 2.582167 1_655
Na5 O28 2.602284 1_555
Na5 O27 2.661884 1_555
Na6 O5 2.279601 1_556
Na6 O6 2.363029 1_556
Na6 O24 2.422862 1_555
Na6 O0 2.540421 1_556
Na6 O18 2.620426 1_555
Na6 O19 2.622272 1_555
Na7 O10 2.288353 1_556
Na7 O5 2.300038 1_556
Na7 O15 2.492772 1_545
Na7 O13 2.497906 1_556
Na7 O29 2.552958 1_555
Na7 O30 2.691309 1_455
C0 O0 1.266990 1_555
C0 O2 1.311916 1_555
C0 O4 1.327453 1_555
C1 O7 1.258481 1_455
C1 O1 1.315477 1_555
C1 O3 1.330553 1_555
C2 O15 1.280525 1_555
C2 O18 1.285447 1_555
C2 O8 1.346095 1_455
C3 O14 1.273167 1_555
C3 O19 1.283594 1_555
C3 O9 1.354831 1_555
C4 O17 1.265200 1_555
C4 O13 1.293940 1_555
C4 O23 1.349918 1_555
C5 O12 1.284741 1_555
C5 O16 1.285890 1_555
C5 O22 1.330288 1_655
C6 O24 1.258815 1_655
C6 O28 1.314482 1_555
C6 O30 1.329851 1_555
C7 O31 1.267928 1_555
C7 O27 1.315302 1_555
C7 O29 1.316185 1_555
O0 Sn3 2.612295 1_564
O1 Sn1 2.102378 1_565
O2 Sn1 2.128392 1_665
O3 Sn0 2.129960 1_565
O4 Sn0 2.148415 1_565
O5 S0 1.512865 1_555
O6 S0 1.512055 1_555
O7 Sn2 2.501695 1_555
O8 Sn1 2.093454 1_665
O9 Sn0 2.090229 1_565
O10 S0 1.491703 1_555
O11 S0 1.485569 1_555
O12 Sn2 2.492986 1_555
O13 Sn3 2.450120 1_554
O14 Sn2 2.436808 1_455
O15 Sn3 2.618023 1_565
O16 Sn3 2.310907 1_554
O17 Sn2 2.472569 1_555
O18 Sn2 2.508571 1_455
O19 Sn3 2.510074 1_565
O20 S1 1.489370 1_555
O21 S1 1.515129 1_555
O22 Sn1 2.066306 1_555
O23 Sn0 2.080942 1_555
O24 Sn2 2.515369 1_455
O25 S1 1.484308 1_555
O26 S1 1.500386 1_555
O27 Sn0 2.095102 1_555
O28 Sn0 2.105118 1_555
O29 Sn1 2.104280 1_555
O30 Sn1 2.138881 1_655
O31 Sn3 2.464115 1_555
