# generated using pymatgen
data_Li7Cr3(WO8)2
_symmetry_space_group_name_H-M   'P 1'
_cell_length_a   5.91174858
_cell_length_b   5.91174858
_cell_length_c   9.68773513
_cell_angle_alpha   89.74245417
_cell_angle_beta   89.74245417
_cell_angle_gamma   59.71835422
_symmetry_Int_Tables_number   1
_chemical_formula_structural   Li7Cr3(WO8)2
_chemical_formula_sum   'Li7 Cr3 W2 O16'
_cell_volume   292.37444327
_cell_formula_units_Z   1
loop_
 _symmetry_equiv_pos_site_id
 _symmetry_equiv_pos_as_xyz
  1  'x, y, z'
loop_
 _atom_site_type_symbol
 _atom_site_label
 _atom_site_symmetry_multiplicity
 _atom_site_fract_x
 _atom_site_fract_y
 _atom_site_fract_z
 _atom_site_occupancy
  Li  Li0  1  0.33820800  0.83017800  0.78972400  1
  Li  Li1  1  0.66785900  0.66785900  0.09792700  1
  Li  Li2  1  0.99995700  0.99995700  0.00433600  1
  Li  Li3  1  0.99450600  0.99450600  0.51237800  1
  Li  Li4  1  0.83017800  0.33820800  0.78972400  1
  Li  Li5  1  0.16521600  0.16521600  0.29119100  1
  Li  Li6  1  0.33554700  0.33554700  0.59720900  1
  Cr  Cr0  1  0.82044300  0.82044300  0.76353300  1
  Cr  Cr1  1  0.15710600  0.65308600  0.28031300  1
  Cr  Cr2  1  0.65308600  0.15710600  0.28031300  1
  W  W0  1  0.64746700  0.64746700  0.51198000  1
  W  W1  1  0.33471500  0.33471500  0.00437300  1
  O  O0  1  0.33624600  0.82572500  0.41033000  1
  O  O1  1  0.51844200  0.51844200  0.64454500  1
  O  O2  1  0.70025300  0.70025300  0.88690000  1
  O  O3  1  0.98001300  0.98001300  0.70636000  1
  O  O4  1  0.99207900  0.99207900  0.20112900  1
  O  O5  1  0.82572500  0.33624600  0.41033000  1
  O  O6  1  0.53712100  0.96112800  0.64462300  1
  O  O7  1  0.96112800  0.53712100  0.64462300  1
  O  O8  1  0.17419100  0.17419100  0.92501700  1
  O  O9  1  0.82646600  0.82646600  0.39853200  1
  O  O10  1  0.04170800  0.49785500  0.15947200  1
  O  O11  1  0.49785500  0.04170800  0.15947200  1
  O  O12  1  0.35274400  0.35274400  0.39038600  1
  O  O13  1  0.17547800  0.65501300  0.91405100  1
  O  O14  1  0.48031300  0.48031300  0.15931100  1
  O  O15  1  0.65501300  0.17547800  0.91405100  1
loop_
_geom_bond_atom_site_label_1
_geom_bond_atom_site_label_2
_geom_bond_distance
_geom_bond_site_symmetry_2
Li0 O3 2.009526 1_455
Li0 O2 2.100208 1_555
Li0 O13 2.105122 1_555
Li0 O1 2.130546 1_555
Li0 O8 2.194972 1_565
Li0 O6 2.202616 1_555
Li1 O10 2.004117 1_655
Li1 O11 2.004117 1_565
Li1 O14 2.009986 1_555
Li1 O2 2.069483 1_554
Li2 O4 1.907771 1_555
Li2 O8 1.941168 1_664
Li2 O15 1.968262 1_564
Li2 O13 1.968262 1_654
Li3 O3 1.884345 1_555
Li3 O0 2.003106 1_655
Li3 O5 2.003106 1_565
Li3 O9 2.050632 1_555
Li4 O3 2.009526 1_545
Li4 O2 2.100208 1_555
Li4 O15 2.105122 1_555
Li4 O1 2.130546 1_555
Li4 O8 2.194972 1_655
Li4 O7 2.202616 1_555
Li5 O4 1.982204 1_445
Li5 O5 2.079811 1_455
Li5 O0 2.079811 1_545
Li5 O11 2.136883 1_555
Li5 O10 2.136883 1_555
Li5 O12 2.154108 1_555
Li6 O1 1.932956 1_555
Li6 O6 1.966251 1_545
Li6 O7 1.966251 1_455
Li6 O12 2.010480 1_555
Cr0 O2 1.712300 1_555
Cr0 O3 1.724706 1_555
Cr0 O7 1.851484 1_555
Cr0 O6 1.851484 1_555
Cr0 O15 2.330794 1_565
Cr0 O13 2.330794 1_655
Cr1 O10 1.823799 1_555
Cr1 O12 1.884250 1_555
Cr1 O4 1.891450 1_455
Cr1 O14 2.022539 1_555
Cr1 O9 2.037852 1_455
Cr1 O0 2.205282 1_555
Cr2 O11 1.823799 1_555
Cr2 O12 1.884250 1_555
Cr2 O4 1.891450 1_545
Cr2 O14 2.022539 1_555
Cr2 O9 2.037852 1_545
Cr2 O5 2.205282 1_555
O0 W0 1.875357 1_555
O1 W0 1.839040 1_555
O5 W0 1.875357 1_555
O6 W0 2.075849 1_555
O7 W0 2.075849 1_555
O8 W1 1.820294 1_556
O9 W0 2.134449 1_555
O10 W1 2.119699 1_555
O11 W1 2.119699 1_555
O13 W1 1.852594 1_556
O14 W1 2.122531 1_555
O15 W1 1.852594 1_556
