# generated using pymatgen
data_Li5Ti2Mn5O12
_symmetry_space_group_name_H-M   'P 1'
_cell_length_a   5.29735258
_cell_length_b   5.29735258
_cell_length_c   10.06315167
_cell_angle_alpha   85.12817603
_cell_angle_beta   85.12817603
_cell_angle_gamma   120.01809072
_symmetry_Int_Tables_number   1
_chemical_formula_structural   Li5Ti2Mn5O12
_chemical_formula_sum   'Li5 Ti2 Mn5 O12'
_cell_volume   240.95878338
_cell_formula_units_Z   1
loop_
 _symmetry_equiv_pos_site_id
 _symmetry_equiv_pos_as_xyz
  1  'x, y, z'
loop_
 _atom_site_type_symbol
 _atom_site_label
 _atom_site_symmetry_multiplicity
 _atom_site_fract_x
 _atom_site_fract_y
 _atom_site_fract_z
 _atom_site_occupancy
  Li  Li0  1  0.84336100  0.66309500  0.75662600  1
  Li  Li1  1  0.66441300  0.84436300  0.24274500  1
  Li  Li2  1  0.33690500  0.15663900  0.24337400  1
  Li  Li3  1  0.15563700  0.33558700  0.75725500  1
  Li  Li4  1  0.08475800  0.91524200  0.00000000  1
  Ti  Ti0  1  0.75720600  0.24279400  0.00000000  1
  Ti  Ti1  1  0.25271700  0.74728300  0.50000000  1
  Mn  Mn0  1  0.91971700  0.08028300  0.50000000  1
  Mn  Mn1  1  0.00372500  0.51475800  0.24205500  1
  Mn  Mn2  1  0.48524200  0.99627500  0.75794500  1
  Mn  Mn3  1  0.58153200  0.41846800  0.50000000  1
  Mn  Mn4  1  0.42468300  0.57531700  0.00000000  1
  O  O0  1  0.01222500  0.21256900  0.12082800  1
  O  O1  1  0.78743100  0.98777500  0.87917200  1
  O  O2  1  0.90244400  0.40336500  0.61519000  1
  O  O3  1  0.59663500  0.09755600  0.38481000  1
  O  O4  1  0.70024000  0.51795700  0.11648900  1
  O  O5  1  0.48204300  0.29976000  0.88351100  1
  O  O6  1  0.51519900  0.71174900  0.61984400  1
  O  O7  1  0.28825100  0.48480100  0.38015600  1
  O  O8  1  0.40239500  0.88902600  0.11171900  1
  O  O9  1  0.11097400  0.59760500  0.88828100  1
  O  O10  1  0.20889400  0.01662600  0.62096900  1
  O  O11  1  0.98337400  0.79110600  0.37903100  1
loop_
_geom_bond_atom_site_label_1
_geom_bond_atom_site_label_2
_geom_bond_distance
_geom_bond_site_symmetry_2
Li0 O5 2.116575 1_555
Li0 O10 2.146809 1_665
Li0 O9 2.149036 1_655
Li0 O2 2.169006 1_555
Li0 O1 2.318371 1_555
Li0 O6 2.403649 1_555
Li1 O8 2.075452 1_555
Li1 O0 2.078050 1_665
Li1 O3 2.166109 1_565
Li1 O7 2.190399 1_555
Li1 O4 2.302292 1_555
Li1 O11 2.370708 1_555
Li2 O4 2.116575 1_555
Li2 O11 2.146809 1_445
Li2 O8 2.149036 1_545
Li2 O3 2.169006 1_555
Li2 O0 2.318371 1_555
Li2 O7 2.403649 1_555
Li3 O9 2.075452 1_555
Li3 O1 2.078050 1_445
Li3 O2 2.166109 1_455
Li3 O6 2.190399 1_555
Li3 O5 2.302292 1_555
Li3 O10 2.370708 1_555
Li4 O8 2.154779 1_555
Li4 O9 2.154779 1_554
Li4 O4 2.199684 1_455
Li4 O5 2.199684 1_564
Li4 O0 2.226723 1_565
Li4 O1 2.226723 1_454
Mn0 O10 2.169356 1_655
Mn0 O11 2.169356 1_545
Mn0 O3 2.181024 1_555
Mn0 O2 2.181024 1_555
Mn0 O6 2.198425 1_545
Mn0 O7 2.198425 1_655
Mn1 O0 2.108863 1_555
Mn1 O11 2.128400 1_455
Mn1 O4 2.133122 1_455
Mn1 O7 2.187678 1_555
Mn1 O8 2.238219 1_555
Mn1 O3 2.400941 1_455
Mn2 O1 2.108863 1_555
Mn2 O10 2.128400 1_565
Mn2 O5 2.133122 1_565
Mn2 O6 2.187678 1_555
Mn2 O9 2.238219 1_555
Mn2 O2 2.400941 1_565
Mn3 O2 2.166812 1_555
Mn3 O3 2.166812 1_555
Mn3 O7 2.187266 1_555
Mn3 O6 2.187266 1_555
Mn3 O10 2.203919 1_555
Mn3 O11 2.203919 1_555
Mn4 O4 2.066692 1_555
Mn4 O5 2.066692 1_554
Mn4 O8 2.128531 1_555
Mn4 O9 2.128531 1_554
Mn4 O0 2.212680 1_555
Mn4 O1 2.212680 1_554
O0 Ti0 1.947159 1_455
O1 Ti0 1.947159 1_566
O2 Ti1 1.999855 1_655
O3 Ti1 1.999855 1_545
O4 Ti0 2.064021 1_555
O5 Ti0 2.064021 1_556
O6 Ti1 1.982780 1_555
O7 Ti1 1.982780 1_555
O8 Ti0 2.016832 1_565
O9 Ti0 2.016832 1_456
O10 Ti1 2.037150 1_545
O11 Ti1 2.037150 1_655
