# generated using pymatgen
data_V4OF11
_symmetry_space_group_name_H-M   'P 1'
_cell_length_a   5.24219600
_cell_length_b   5.45391984
_cell_length_c   9.11634698
_cell_angle_alpha   106.67793328
_cell_angle_beta   89.57596316
_cell_angle_gamma   118.35888534
_symmetry_Int_Tables_number   1
_chemical_formula_structural   V4OF11
_chemical_formula_sum   'V4 O1 F11'
_cell_volume   217.12833577
_cell_formula_units_Z   1
loop_
 _symmetry_equiv_pos_site_id
 _symmetry_equiv_pos_as_xyz
  1  'x, y, z'
loop_
 _atom_site_type_symbol
 _atom_site_label
 _atom_site_symmetry_multiplicity
 _atom_site_fract_x
 _atom_site_fract_y
 _atom_site_fract_z
 _atom_site_occupancy
  V  V0  1  0.24575600  0.00250400  0.75256100  1
  V  V1  1  0.49868700  0.00054000  0.50064200  1
  V  V2  1  0.75156600  0.00122200  0.24762500  1
  V  V3  1  0.00602800  0.00929800  0.98548900  1
  O  O0  1  0.07879600  0.07649300  0.84165700  1
  F  F0  1  0.07290800  0.89635100  0.42543500  1
  F  F1  1  0.01911400  0.49544700  0.87502100  1
  F  F2  1  0.47536700  0.50234800  0.62468900  1
  F  F3  1  0.57835400  0.89849400  0.92697800  1
  F  F4  1  0.57455500  0.09980200  0.32420600  1
  F  F5  1  0.42258300  0.89990300  0.67769400  1
  F  F6  1  0.42173300  0.10490900  0.07372300  1
  F  F7  1  0.52441200  0.49980700  0.37480200  1
  F  F8  1  0.97913100  0.50245000  0.12836200  1
  F  F9  1  0.92504900  0.90793400  0.16632600  1
  F  F10  1  0.92596400  0.10249800  0.57479000  1
loop_
_geom_bond_atom_site_label_1
_geom_bond_atom_site_label_2
_geom_bond_distance
_geom_bond_site_symmetry_2
O0 V0 1.313569 1_555
O0 V3 1.461072 1_555
F0 V1 2.090217 1_565
F1 V3 2.726639 1_565
F2 V1 2.706161 1_555
F3 V3 2.054668 1_665
F4 V2 1.373470 1_555
F4 V1 1.823230 1_555
F5 V0 1.379273 1_565
F5 V1 1.832096 1_565
F6 V3 2.091301 1_554
F7 V1 2.709556 1_565
F8 V3 2.701321 1_654
F9 V2 1.359551 1_565
F9 V3 1.869074 1_664
F10 V1 2.099186 1_555
