# generated using pymatgen
data_LiCuPO4
_symmetry_space_group_name_H-M   'P 1'
_cell_length_a   10.30477000
_cell_length_b   5.79886900
_cell_length_c   9.95879238
_cell_angle_alpha   88.23340381
_cell_angle_beta   90.00000000
_cell_angle_gamma   90.00000000
_symmetry_Int_Tables_number   1
_chemical_formula_structural   LiCuPO4
_chemical_formula_sum   'Li8 Cu8 P8 O32'
_cell_volume   594.81486214
_cell_formula_units_Z   8
loop_
 _symmetry_equiv_pos_site_id
 _symmetry_equiv_pos_as_xyz
  1  'x, y, z'
loop_
 _atom_site_type_symbol
 _atom_site_label
 _atom_site_symmetry_multiplicity
 _atom_site_fract_x
 _atom_site_fract_y
 _atom_site_fract_z
 _atom_site_occupancy
  Li  Li0  1  0.85627600  0.86880400  0.88786700  1
  Li  Li1  1  0.64372400  0.86880400  0.38786700  1
  Li  Li2  1  0.33853600  0.61239000  0.63892300  1
  Li  Li3  1  0.16146400  0.61239000  0.13892300  1
  Li  Li4  1  0.83853600  0.38761000  0.86107700  1
  Li  Li5  1  0.66146400  0.38761000  0.36107700  1
  Li  Li6  1  0.35627600  0.13119600  0.61213300  1
  Li  Li7  1  0.14372400  0.13119600  0.11213300  1
  Cu  Cu0  1  0.09231300  0.87755200  0.72882100  1
  Cu  Cu1  1  0.40768700  0.87755200  0.22882100  1
  Cu  Cu2  1  0.62323300  0.65541300  0.98543400  1
  Cu  Cu3  1  0.87676700  0.65541300  0.48543400  1
  Cu  Cu4  1  0.12323300  0.34458700  0.51456600  1
  Cu  Cu5  1  0.37676700  0.34458700  0.01456600  1
  Cu  Cu6  1  0.59231300  0.12244800  0.77117900  1
  Cu  Cu7  1  0.90768700  0.12244800  0.27117900  1
  P  P0  1  0.35480300  0.87409400  0.90957800  1
  P  P1  1  0.14519700  0.87409400  0.40957800  1
  P  P2  1  0.61116700  0.62607000  0.66540800  1
  P  P3  1  0.88883300  0.62607000  0.16540800  1
  P  P4  1  0.11116700  0.37393000  0.83459200  1
  P  P5  1  0.38883300  0.37393000  0.33459200  1
  P  P6  1  0.85480300  0.12590600  0.59042200  1
  P  P7  1  0.64519700  0.12590600  0.09042200  1
  O  O0  1  0.21798000  0.90714200  0.54341100  1
  O  O1  1  0.93305600  0.89771700  0.62436100  1
  O  O2  1  0.28202000  0.90714200  0.04341100  1
  O  O3  1  0.56694400  0.89771700  0.12436100  1
  O  O4  1  0.26546800  0.82962100  0.78968600  1
  O  O5  1  0.52780100  0.85007200  0.65101200  1
  O  O6  1  0.23453200  0.82962100  0.28968600  1
  O  O7  1  0.97219900  0.85007200  0.15101200  1
  O  O8  1  0.44705600  0.66248200  0.92060200  1
  O  O9  1  0.70001100  0.63074100  0.79347600  1
  O  O10  1  0.05294400  0.66248200  0.42060200  1
  O  O11  1  0.69655400  0.61111100  0.53495600  1
  O  O12  1  0.01763000  0.58499600  0.82998200  1
  O  O13  1  0.79998900  0.63074100  0.29347600  1
  O  O14  1  0.80344600  0.61111100  0.03495600  1
  O  O15  1  0.48237000  0.58499600  0.32998200  1
  O  O16  1  0.51763000  0.41500400  0.67001800  1
  O  O17  1  0.19655400  0.38888900  0.96504400  1
  O  O18  1  0.20001100  0.36925900  0.70652400  1
  O  O19  1  0.98237000  0.41500400  0.17001800  1
  O  O20  1  0.30344600  0.38888900  0.46504400  1
  O  O21  1  0.94705600  0.33751800  0.57939800  1
  O  O22  1  0.29998900  0.36925900  0.20652400  1
  O  O23  1  0.55294400  0.33751800  0.07939800  1
  O  O24  1  0.02780100  0.14992800  0.84898800  1
  O  O25  1  0.76546800  0.17037900  0.71031400  1
  O  O26  1  0.47219900  0.14992800  0.34898800  1
  O  O27  1  0.73453200  0.17037900  0.21031400  1
  O  O28  1  0.43305600  0.10228300  0.87563900  1
  O  O29  1  0.71798000  0.09285800  0.95658900  1
  O  O30  1  0.06694400  0.10228300  0.37563900  1
  O  O31  1  0.78202000  0.09285800  0.45658900  1
loop_
_geom_bond_atom_site_label_1
_geom_bond_atom_site_label_2
_geom_bond_distance
_geom_bond_site_symmetry_2
Li0 O29 2.059665 1_565
Li0 O14 2.130763 1_556
Li0 O9 2.337179 1_555
Li0 O12 2.421564 1_655
Li0 O24 2.427489 1_665
Li1 O31 2.059665 1_565
Li1 O11 2.130763 1_555
Li1 O13 2.337179 1_555
Li1 O15 2.421564 1_555
Li1 O26 2.427489 1_565
Li2 O18 2.102415 1_555
Li2 O4 2.127117 1_555
Li2 O16 2.188639 1_555
Li2 O20 2.224276 1_555
Li2 O0 2.295493 1_555
Li2 O5 2.393365 1_555
Li3 O22 2.102415 1_555
Li3 O6 2.127117 1_555
Li3 O19 2.188639 1_455
Li3 O17 2.224276 1_554
Li3 O2 2.295493 1_555
Li3 O7 2.393365 1_455
Li4 O9 2.102415 1_555
Li4 O25 2.127117 1_555
Li4 O12 2.188639 1_655
Li4 O14 2.224276 1_556
Li4 O29 2.295493 1_555
Li4 O24 2.393365 1_655
Li5 O13 2.102415 1_555
Li5 O27 2.127117 1_555
Li5 O15 2.188639 1_555
Li5 O11 2.224276 1_555
Li5 O31 2.295493 1_555
Li5 O26 2.393365 1_555
Li6 O0 2.059665 1_545
Li6 O20 2.130763 1_555
Li6 O18 2.337179 1_555
Li6 O16 2.421564 1_555
Li6 O5 2.427489 1_545
Li7 O2 2.059665 1_545
Li7 O17 2.130763 1_554
Li7 O22 2.337179 1_555
Li7 O19 2.421564 1_455
Li7 O7 2.427489 1_445
Cu0 O4 1.902125 1_555
Cu0 O1 1.944639 1_455
Cu0 O12 2.092827 1_555
Cu0 O24 2.117863 1_565
Cu0 O0 2.257491 1_555
Cu1 O6 1.902125 1_555
Cu1 O3 1.944639 1_555
Cu1 O15 2.092827 1_555
Cu1 O26 2.117863 1_565
Cu1 O2 2.257491 1_555
Cu2 O8 1.926867 1_555
Cu2 O14 1.936507 1_556
Cu2 O9 2.077927 1_555
Cu2 O3 2.084415 1_556
Cu2 O23 2.166142 1_556
Cu3 O10 1.926867 1_655
Cu3 O11 1.936507 1_555
Cu3 O13 2.077927 1_555
Cu3 O1 2.084415 1_555
Cu3 O21 2.166142 1_555
Cu4 O21 1.926867 1_455
Cu4 O20 1.936507 1_555
Cu4 O18 2.077927 1_555
Cu4 O30 2.084415 1_555
Cu4 O10 2.166142 1_555
Cu5 O23 1.926867 1_555
Cu5 O17 1.936507 1_554
Cu5 O22 2.077927 1_555
Cu5 O28 2.084415 1_554
Cu5 O8 2.166142 1_554
Cu6 O25 1.902125 1_555
Cu6 O28 1.944639 1_555
Cu6 O16 2.092827 1_555
Cu6 O5 2.117863 1_545
Cu6 O29 2.257491 1_555
Cu7 O27 1.902125 1_555
Cu7 O30 1.944639 1_655
Cu7 O19 2.092827 1_555
Cu7 O7 2.117863 1_545
Cu7 O31 2.257491 1_555
O0 P1 1.546412 1_555
O1 P6 1.577298 1_565
O2 P0 1.546412 1_554
O3 P7 1.577298 1_565
O4 P0 1.535755 1_555
O5 P2 1.560244 1_555
O6 P1 1.535755 1_555
O7 P3 1.560244 1_555
O8 P0 1.553472 1_555
O9 P2 1.570887 1_555
O10 P1 1.553472 1_555
O11 P2 1.573678 1_555
O12 P4 1.557479 1_555
O13 P3 1.570887 1_555
O14 P3 1.573678 1_555
O15 P5 1.557479 1_555
O16 P2 1.557479 1_555
O17 P4 1.573678 1_555
O18 P4 1.570887 1_555
O19 P3 1.557479 1_555
O20 P5 1.573678 1_555
O21 P6 1.553472 1_555
O22 P5 1.570887 1_555
O23 P7 1.553472 1_555
O24 P4 1.560244 1_555
O25 P6 1.535755 1_555
O26 P5 1.560244 1_555
O27 P7 1.535755 1_555
O28 P0 1.577298 1_545
O29 P7 1.546412 1_556
O30 P1 1.577298 1_545
O31 P6 1.546412 1_555
