# generated using pymatgen
data_Li3Fe5(CoO6)2
_symmetry_space_group_name_H-M   'P 1'
_cell_length_a   5.14601765
_cell_length_b   5.14601765
_cell_length_c   9.83422496
_cell_angle_alpha   84.76512365
_cell_angle_beta   84.76512365
_cell_angle_gamma   121.20187562
_symmetry_Int_Tables_number   1
_chemical_formula_structural   Li3Fe5(CoO6)2
_chemical_formula_sum   'Li3 Fe5 Co2 O12'
_cell_volume   218.87244027
_cell_formula_units_Z   1
loop_
 _symmetry_equiv_pos_site_id
 _symmetry_equiv_pos_as_xyz
  1  'x, y, z'
loop_
 _atom_site_type_symbol
 _atom_site_label
 _atom_site_symmetry_multiplicity
 _atom_site_fract_x
 _atom_site_fract_y
 _atom_site_fract_z
 _atom_site_occupancy
  Li  Li0  1  0.67283000  0.85019800  0.74141100  1
  Li  Li1  1  0.14980200  0.32717000  0.25858900  1
  Li  Li2  1  0.07941700  0.92058300  0.50000000  1
  Fe  Fe0  1  0.92121400  0.07878600  0.00000000  1
  Fe  Fe1  1  0.01308300  0.52554100  0.73453100  1
  Fe  Fe2  1  0.47445900  0.98691700  0.26546900  1
  Fe  Fe3  1  0.58397300  0.41602700  0.00000000  1
  Fe  Fe4  1  0.43212400  0.56787600  0.50000000  1
  Co  Co0  1  0.74551600  0.25448400  0.50000000  1
  Co  Co1  1  0.24845600  0.75154400  0.00000000  1
  O  O0  1  0.87906100  0.36967200  0.11195200  1
  O  O1  1  0.63032800  0.12093900  0.88804800  1
  O  O2  1  0.72688700  0.54668300  0.61883200  1
  O  O3  1  0.96125900  0.77411800  0.88709700  1
  O  O4  1  0.45331700  0.27311300  0.38116800  1
  O  O5  1  0.76620100  0.96750100  0.37660900  1
  O  O6  1  0.52036200  0.71885300  0.11134100  1
  O  O7  1  0.22588200  0.03874100  0.11290300  1
  O  O8  1  0.39210100  0.86032200  0.61728100  1
  O  O9  1  0.03249900  0.23379900  0.62339100  1
  O  O10  1  0.28114700  0.47963800  0.88865900  1
  O  O11  1  0.13967800  0.60789900  0.38271900  1
loop_
_geom_bond_atom_site_label_1
_geom_bond_atom_site_label_2
_geom_bond_distance
_geom_bond_site_symmetry_2
Li0 O8 1.991991 1_555
Li0 O9 2.018384 1_665
Li0 O1 2.166399 1_565
Li0 O2 2.168549 1_555
Li0 O10 2.185640 1_555
Li0 O3 2.301464 1_555
Li1 O11 1.991991 1_555
Li1 O5 2.018384 1_445
Li1 O0 2.166399 1_455
Li1 O4 2.168549 1_555
Li1 O6 2.185640 1_555
Li1 O7 2.301464 1_555
Li2 O4 1.986230 1_565
Li2 O2 1.986230 1_455
Li2 O8 2.192245 1_555
Li2 O11 2.192245 1_555
Li2 O5 2.198946 1_455
Li2 O9 2.198946 1_565
Fe0 O1 2.023234 1_554
Fe0 O0 2.023234 1_555
Fe0 O6 2.035634 1_545
Fe0 O10 2.035634 1_654
Fe0 O7 2.084226 1_655
Fe0 O3 2.084226 1_544
Fe1 O8 1.961466 1_555
Fe1 O9 1.973177 1_555
Fe1 O2 1.981089 1_455
Fe1 O3 2.142241 1_455
Fe1 O10 2.215847 1_555
Fe1 O1 2.264643 1_455
Fe2 O11 1.961466 1_555
Fe2 O5 1.973177 1_555
Fe2 O4 1.981089 1_565
Fe2 O7 2.142241 1_565
Fe2 O6 2.215847 1_555
Fe2 O0 2.264643 1_565
Fe3 O3 1.981001 1_554
Fe3 O7 1.981001 1_555
Fe3 O1 2.051198 1_554
Fe3 O0 2.051198 1_555
Fe3 O6 2.123445 1_555
Fe3 O10 2.123445 1_554
Fe4 O4 2.037162 1_555
Fe4 O2 2.037162 1_555
Fe4 O5 2.039112 1_555
Fe4 O9 2.039112 1_555
Fe4 O11 2.057190 1_555
Fe4 O8 2.057190 1_555
Co0 O4 2.021243 1_555
Co0 O2 2.021243 1_555
Co0 O8 2.029852 1_545
Co0 O11 2.029852 1_655
Co0 O5 2.032515 1_545
Co0 O9 2.032515 1_655
Co1 O6 1.917010 1_555
Co1 O10 1.917010 1_554
Co1 O7 1.970869 1_565
Co1 O3 1.970869 1_454
Co1 O0 2.010020 1_455
Co1 O1 2.010020 1_564
