# generated using pymatgen
data_LiFeSiO4
_symmetry_space_group_name_H-M   'P 1'
_cell_length_a   8.71254226
_cell_length_b   8.71254226
_cell_length_c   8.09886200
_cell_angle_alpha   90.00000000
_cell_angle_beta   90.00000000
_cell_angle_gamma   120.00000195
_symmetry_Int_Tables_number   1
_chemical_formula_structural   LiFeSiO4
_chemical_formula_sum   'Li6 Fe6 Si6 O24'
_cell_volume   532.40780930
_cell_formula_units_Z   6
loop_
 _symmetry_equiv_pos_site_id
 _symmetry_equiv_pos_as_xyz
  1  'x, y, z'
loop_
 _atom_site_type_symbol
 _atom_site_label
 _atom_site_symmetry_multiplicity
 _atom_site_fract_x
 _atom_site_fract_y
 _atom_site_fract_z
 _atom_site_occupancy
  Li  Li0  1  0.33333300  0.66666700  0.26364100  1
  Li  Li1  1  0.33333300  0.66666700  0.71546000  1
  Li  Li2  1  0.00000000  0.00000000  0.11301300  1
  Li  Li3  1  0.00000000  0.00000000  0.61301300  1
  Li  Li4  1  0.66666700  0.33333300  0.76364100  1
  Li  Li5  1  0.66666700  0.33333300  0.21546000  1
  Fe  Fe0  1  0.02934600  0.68815800  0.40325200  1
  Fe  Fe1  1  0.31184200  0.34118800  0.40325200  1
  Fe  Fe2  1  0.65881200  0.97065400  0.40325200  1
  Fe  Fe3  1  0.34118800  0.02934600  0.90325200  1
  Fe  Fe4  1  0.68815800  0.65881200  0.90325200  1
  Fe  Fe5  1  0.97065400  0.31184200  0.90325200  1
  Si  Si0  1  0.03990400  0.68525100  0.01765100  1
  Si  Si1  1  0.31474900  0.35465300  0.01765100  1
  Si  Si2  1  0.64534700  0.96009600  0.01765100  1
  Si  Si3  1  0.35465300  0.03990400  0.51765100  1
  Si  Si4  1  0.68525100  0.64534700  0.51765100  1
  Si  Si5  1  0.96009600  0.31474900  0.51765100  1
  O  O0  1  0.13656900  0.90962900  0.51596200  1
  O  O1  1  0.14608500  0.73097800  0.19573600  1
  O  O2  1  0.09255200  0.52931800  0.49730500  1
  O  O3  1  0.19496300  0.77906900  0.87401500  1
  O  O4  1  0.22093100  0.41589400  0.87401500  1
  O  O5  1  0.43676600  0.90744800  0.49730500  1
  O  O6  1  0.09037100  0.22694000  0.51596200  1
  O  O7  1  0.26902200  0.41510700  0.19573600  1
  O  O8  1  0.58489300  0.85391500  0.19573600  1
  O  O9  1  0.47068200  0.56323400  0.49730500  1
  O  O10  1  0.22694000  0.13656900  0.01596200  1
  O  O11  1  0.58410600  0.80503700  0.87401500  1
  O  O12  1  0.41589400  0.19496300  0.37401500  1
  O  O13  1  0.77306000  0.86343100  0.51596200  1
  O  O14  1  0.52931800  0.43676600  0.99730500  1
  O  O15  1  0.41510700  0.14608500  0.69573600  1
  O  O16  1  0.73097800  0.58489300  0.69573600  1
  O  O17  1  0.90962900  0.77306000  0.01596200  1
  O  O18  1  0.56323400  0.09255200  0.99730500  1
  O  O19  1  0.77906900  0.58410600  0.37401500  1
  O  O20  1  0.80503700  0.22093100  0.37401500  1
  O  O21  1  0.90744800  0.47068200  0.99730500  1
  O  O22  1  0.85391500  0.26902200  0.69573600  1
  O  O23  1  0.86343100  0.09037100  0.01596200  1
loop_
_geom_bond_atom_site_label_1
_geom_bond_atom_site_label_2
_geom_bond_distance
_geom_bond_site_symmetry_2
Li0 O1 2.047433 1_555
Li0 O8 2.047439 1_555
Li0 O7 2.047441 1_555
Li0 O5 2.627484 1_555
Li0 O2 2.627485 1_555
Li0 O9 2.627490 1_555
Li1 O3 2.289534 1_555
Li1 O11 2.289540 1_555
Li1 O4 2.289540 1_555
Li1 O5 2.538514 1_555
Li1 O2 2.538515 1_555
Li1 O9 2.538520 1_555
Li2 O10 1.894826 1_555
Li2 O17 1.894826 1_445
Li2 O23 1.894826 1_455
Li3 O13 1.894826 1_445
Li3 O6 1.894826 1_555
Li3 O0 1.894826 1_545
Li4 O22 2.047433 1_555
Li4 O15 2.047439 1_555
Li4 O16 2.047441 1_555
Li4 O18 2.627484 1_555
Li4 O21 2.627485 1_555
Li4 O14 2.627490 1_555
Li5 O20 2.289534 1_555
Li5 O12 2.289540 1_555
Li5 O19 2.289540 1_555
Li5 O18 2.538514 1_554
Li5 O21 2.538515 1_554
Li5 O14 2.538520 1_554
Fe0 O2 1.886994 1_555
Fe0 O1 1.902308 1_555
Fe0 O0 1.904371 1_555
Fe0 O19 1.912045 1_455
Fe1 O9 1.886994 1_555
Fe1 O7 1.902308 1_555
Fe1 O6 1.904371 1_555
Fe1 O12 1.912045 1_555
Fe2 O5 1.886994 1_555
Fe2 O8 1.902308 1_555
Fe2 O13 1.904371 1_555
Fe2 O20 1.912045 1_565
Fe3 O18 1.886994 1_555
Fe3 O15 1.902308 1_555
Fe3 O10 1.904371 1_556
Fe3 O3 1.912045 1_545
Fe4 O14 1.886994 1_555
Fe4 O16 1.902308 1_555
Fe4 O17 1.904371 1_556
Fe4 O11 1.912045 1_555
Fe5 O21 1.886994 1_555
Fe5 O22 1.902308 1_555
Fe5 O23 1.904371 1_556
Fe5 O4 1.912045 1_655
O0 Si3 1.655928 1_565
O1 Si0 1.651112 1_555
O2 Si5 1.642059 1_455
O3 Si0 1.655957 1_556
O4 Si1 1.655957 1_556
O5 Si3 1.642059 1_565
O6 Si5 1.655928 1_455
O7 Si1 1.651112 1_555
O8 Si2 1.651112 1_555
O9 Si4 1.642059 1_555
O10 Si1 1.655928 1_555
O11 Si2 1.655957 1_556
O12 Si3 1.655957 1_555
O13 Si4 1.655928 1_555
O14 Si1 1.642059 1_556
O15 Si3 1.651112 1_555
O16 Si4 1.651112 1_555
O17 Si0 1.655928 1_655
O18 Si2 1.642059 1_546
O19 Si4 1.655957 1_555
O20 Si5 1.655957 1_555
O21 Si0 1.642059 1_656
O22 Si5 1.651112 1_555
O23 Si2 1.655928 1_545
