# generated using pymatgen
data_Na3GePCO7
_symmetry_space_group_name_H-M   'P 1'
_cell_length_a   6.88353600
_cell_length_b   5.48709500
_cell_length_c   9.25902680
_cell_angle_alpha   84.55593165
_cell_angle_beta   90.00000000
_cell_angle_gamma   90.00000000
_symmetry_Int_Tables_number   1
_chemical_formula_structural   Na3GePCO7
_chemical_formula_sum   'Na6 Ge2 P2 C2 O14'
_cell_volume   348.14166328
_cell_formula_units_Z   2
loop_
 _symmetry_equiv_pos_site_id
 _symmetry_equiv_pos_as_xyz
  1  'x, y, z'
loop_
 _atom_site_type_symbol
 _atom_site_label
 _atom_site_symmetry_multiplicity
 _atom_site_fract_x
 _atom_site_fract_y
 _atom_site_fract_z
 _atom_site_occupancy
  Na  Na0  1  0.52855400  0.99943800  0.01512700  1
  Na  Na1  1  0.81609000  0.51488300  0.15788700  1
  Na  Na2  1  0.53218000  0.48492700  0.50036400  1
  Na  Na3  1  0.03218000  0.51507300  0.49963600  1
  Na  Na4  1  0.31609000  0.48511700  0.84211300  1
  Na  Na5  1  0.02855400  0.00056200  0.98487300  1
  Ge  Ge0  1  0.25379000  0.08062400  0.32714300  1
  Ge  Ge1  1  0.75379000  0.91937600  0.67285700  1
  P  P0  1  0.75031800  0.01388900  0.32990500  1
  P  P1  1  0.25031800  0.98611100  0.67009500  1
  C  C0  1  0.26776600  0.48581700  0.13665700  1
  C  C1  1  0.76776600  0.51418300  0.86334300  1
  O  O0  1  0.27828600  0.69628100  0.06657000  1
  O  O1  1  0.24390600  0.28845700  0.07163500  1
  O  O2  1  0.85299000  0.91879200  0.20004000  1
  O  O3  1  0.52948500  0.04575600  0.28464200  1
  O  O4  1  0.28005400  0.45557700  0.28152400  1
  O  O5  1  0.82331000  0.26238100  0.37401800  1
  O  O6  1  0.76867000  0.81192900  0.46339900  1
  O  O7  1  0.26867000  0.18807100  0.53660100  1
  O  O8  1  0.32331000  0.73761900  0.62598200  1
  O  O9  1  0.78005400  0.54442300  0.71847600  1
  O  O10  1  0.02948500  0.95424400  0.71535800  1
  O  O11  1  0.35299000  0.08120800  0.79996000  1
  O  O12  1  0.74390600  0.71154300  0.92836500  1
  O  O13  1  0.77828600  0.30371900  0.93343000  1
loop_
_geom_bond_atom_site_label_1
_geom_bond_atom_site_label_2
_geom_bond_distance
_geom_bond_site_symmetry_2
Na0 O11 2.336918 1_564
Na0 O12 2.362006 1_554
Na0 O0 2.410684 1_555
Na0 O13 2.464807 1_564
Na0 O3 2.532238 1_565
Na0 O1 2.604876 1_565
Na0 O2 2.823274 1_555
Na1 O2 2.300632 1_555
Na1 O5 2.323928 1_555
Na1 O12 2.343599 1_554
Na1 O13 2.487228 1_554
Na2 O8 2.376653 1_555
Na2 O6 2.422832 1_555
Na2 O7 2.439729 1_555
Na2 O5 2.673346 1_555
Na2 O4 2.684315 1_555
Na2 O9 2.687259 1_555
Na3 O5 2.376653 1_455
Na3 O7 2.422832 1_555
Na3 O6 2.439729 1_455
Na3 O8 2.673346 1_555
Na3 O9 2.684315 1_455
Na3 O4 2.687259 1_555
Na4 O11 2.300632 1_555
Na4 O8 2.323928 1_555
Na4 O1 2.343599 1_556
Na4 O0 2.487228 1_556
Na5 O2 2.336918 1_446
Na5 O1 2.362006 1_556
Na5 O13 2.410684 1_455
Na5 O0 2.464807 1_546
Na5 O10 2.532238 1_545
Na5 O12 2.604876 1_445
Na5 O11 2.823274 1_555
Ge0 O3 1.951212 1_555
Ge0 O4 2.068600 1_555
Ge0 O7 2.082361 1_555
Ge1 O10 1.951212 1_655
Ge1 O9 2.068600 1_555
Ge1 O6 2.082361 1_555
C0 O0 1.271931 1_555
C0 O1 1.298415 1_555
C0 O4 1.338512 1_555
C1 O13 1.271931 1_555
C1 O12 1.298415 1_555
C1 O9 1.338512 1_555
O2 P0 1.528610 1_565
O3 P0 1.582102 1_555
O5 P0 1.544046 1_555
O6 P0 1.584885 1_565
O7 P1 1.584885 1_545
O8 P1 1.544046 1_555
O10 P1 1.582102 1_555
O11 P1 1.528610 1_545
