# generated using pymatgen
data_Na4NiO4
_symmetry_space_group_name_H-M   'P 1'
_cell_length_a   6.04007000
_cell_length_b   10.12560300
_cell_length_c   17.54579160
_cell_angle_alpha   88.94672881
_cell_angle_beta   90.00000000
_cell_angle_gamma   90.00000000
_symmetry_Int_Tables_number   1
_chemical_formula_structural   Na4NiO4
_chemical_formula_sum   'Na32 Ni8 O32'
_cell_volume   1072.90791249
_cell_formula_units_Z   8
loop_
 _symmetry_equiv_pos_site_id
 _symmetry_equiv_pos_as_xyz
  1  'x, y, z'
loop_
 _atom_site_type_symbol
 _atom_site_label
 _atom_site_symmetry_multiplicity
 _atom_site_fract_x
 _atom_site_fract_y
 _atom_site_fract_z
 _atom_site_occupancy
  Na  Na0  1  0.90390500  0.85008000  0.35236800  1
  Na  Na1  1  0.09609500  0.85008000  0.85236800  1
  Na  Na2  1  0.61311800  0.80350000  0.14795900  1
  Na  Na3  1  0.38688200  0.80350000  0.64795900  1
  Na  Na4  1  0.67021600  0.71168100  0.80636600  1
  Na  Na5  1  0.32978400  0.71168100  0.30636600  1
  Na  Na6  1  0.16551200  0.67553300  0.49993700  1
  Na  Na7  1  0.83448800  0.67553300  0.99993700  1
  Na  Na8  1  0.90007100  0.60461500  0.24034100  1
  Na  Na9  1  0.09992900  0.60461500  0.74034100  1
  Na  Na10  1  0.34324700  0.60210200  0.92355100  1
  Na  Na11  1  0.65675300  0.60210200  0.42355100  1
  Na  Na12  1  0.18270900  0.45181200  0.06179400  1
  Na  Na13  1  0.81729100  0.45181200  0.56179400  1
  Na  Na14  1  0.37041400  0.40922200  0.25322600  1
  Na  Na15  1  0.62958600  0.40922200  0.75322600  1
  Na  Na16  1  0.66017100  0.35052700  0.00133900  1
  Na  Na17  1  0.33982900  0.35052700  0.50133900  1
  Na  Na18  1  0.85140700  0.31413400  0.17516600  1
  Na  Na19  1  0.14859300  0.31413400  0.67516600  1
  Na  Na20  1  0.30965400  0.30214400  0.86725900  1
  Na  Na21  1  0.69034600  0.30214400  0.36725900  1
  Na  Na22  1  0.16612800  0.19471600  0.36322400  1
  Na  Na23  1  0.83387200  0.19471600  0.86322400  1
  Na  Na24  1  0.66475200  0.15899800  0.67522500  1
  Na  Na25  1  0.33524800  0.15899800  0.17522500  1
  Na  Na26  1  0.84100600  0.13384100  0.50428500  1
  Na  Na27  1  0.15899400  0.13384100  0.00428500  1
  Na  Na28  1  0.18174200  0.06251200  0.74547100  1
  Na  Na29  1  0.81825800  0.06251200  0.24547100  1
  Na  Na30  1  0.33161900  0.03120600  0.54762400  1
  Na  Na31  1  0.66838100  0.03120600  0.04762400  1
  Ni  Ni0  1  0.07380400  0.93468700  0.12991100  1
  Ni  Ni1  1  0.92619600  0.93468700  0.62991100  1
  Ni  Ni2  1  0.41702400  0.52734900  0.62486600  1
  Ni  Ni3  1  0.58297600  0.52734900  0.12486600  1
  Ni  Ni4  1  0.08726400  0.46526300  0.37654400  1
  Ni  Ni5  1  0.91273600  0.46526300  0.87654400  1
  Ni  Ni6  1  0.55684000  0.04252100  0.37588000  1
  Ni  Ni7  1  0.44316000  0.04252100  0.87588000  1
  O  O0  1  0.63787600  0.96336400  0.61754800  1
  O  O1  1  0.36212400  0.96336400  0.11754800  1
  O  O2  1  0.96459500  0.85661300  0.21469000  1
  O  O3  1  0.03540500  0.85661300  0.71469000  1
  O  O4  1  0.91222700  0.86522400  0.05888500  1
  O  O5  1  0.08777300  0.86522400  0.55888500  1
  O  O6  1  0.51219400  0.87240900  0.36871300  1
  O  O7  1  0.48780600  0.87240900  0.86871300  1
  O  O8  1  0.99758200  0.64134600  0.87320100  1
  O  O9  1  0.00241800  0.64134600  0.37320100  1
  O  O10  1  0.47298100  0.60661600  0.04163300  1
  O  O11  1  0.52701900  0.60661600  0.54163300  1
  O  O12  1  0.48440600  0.61124800  0.71222800  1
  O  O13  1  0.51559400  0.61124800  0.21222800  1
  O  O14  1  0.87725000  0.52065500  0.11527900  1
  O  O15  1  0.12275000  0.52065500  0.61527900  1
  O  O16  1  0.39274000  0.45843300  0.38117700  1
  O  O17  1  0.60726000  0.45843300  0.88117700  1
  O  O18  1  0.00087700  0.37825300  0.78777700  1
  O  O19  1  0.99912300  0.37825300  0.28777700  1
  O  O20  1  0.03489200  0.36454400  0.95572000  1
  O  O21  1  0.96510800  0.36454400  0.45572000  1
  O  O22  1  0.51834600  0.35458100  0.62847700  1
  O  O23  1  0.48165400  0.35458100  0.12847700  1
  O  O24  1  0.02645000  0.11469200  0.62759500  1
  O  O25  1  0.97355000  0.11469200  0.12759500  1
  O  O26  1  0.46660900  0.14933300  0.45003900  1
  O  O27  1  0.53339100  0.14933300  0.95003900  1
  O  O28  1  0.51654700  0.14725800  0.79269400  1
  O  O29  1  0.48345300  0.14725800  0.29269400  1
  O  O30  1  0.85813700  0.06662900  0.37801700  1
  O  O31  1  0.14186300  0.06662900  0.87801700  1
loop_
_geom_bond_atom_site_label_1
_geom_bond_atom_site_label_2
_geom_bond_distance
_geom_bond_site_symmetry_2
Na0 O9 2.219548 1_655
Na0 O30 2.263429 1_565
Na0 O6 2.394478 1_555
Na0 O2 2.443018 1_555
Na1 O8 2.219548 1_455
Na1 O31 2.263429 1_565
Na1 O7 2.394478 1_555
Na1 O3 2.443018 1_555
Na2 O1 2.274100 1_555
Na2 O13 2.308114 1_555
Na2 O4 2.461956 1_555
Na2 O2 2.488004 1_555
Na3 O0 2.274100 1_555
Na3 O12 2.308114 1_555
Na3 O5 2.461956 1_555
Na3 O3 2.488004 1_555
Na4 O12 2.254705 1_555
Na4 O7 2.263775 1_555
Na4 O8 2.400299 1_555
Na5 O13 2.254705 1_555
Na5 O6 2.263775 1_555
Na5 O9 2.400299 1_555
Na6 O5 2.247775 1_555
Na6 O11 2.402334 1_555
Na6 O9 2.462380 1_555
Na6 O15 2.550494 1_555
Na7 O4 2.247775 1_556
Na7 O10 2.402334 1_556
Na7 O8 2.462380 1_555
Na7 O14 2.550494 1_556
Na8 O14 2.371779 1_555
Na8 O13 2.374770 1_555
Na8 O9 2.446740 1_655
Na8 O19 2.496805 1_555
Na8 O2 2.612098 1_555
Na9 O15 2.371779 1_555
Na9 O12 2.374770 1_555
Na9 O8 2.446740 1_455
Na9 O18 2.496805 1_555
Na9 O3 2.612098 1_555
Na10 O10 2.216333 1_556
Na10 O17 2.291663 1_555
Na10 O8 2.298810 1_455
Na11 O11 2.216333 1_555
Na11 O16 2.291663 1_555
Na11 O9 2.298810 1_655
Na12 O14 2.189665 1_455
Na12 O20 2.258829 1_554
Na12 O23 2.357163 1_555
Na12 O10 2.373960 1_555
Na13 O15 2.189665 1_655
Na13 O21 2.258829 1_555
Na13 O22 2.357163 1_555
Na13 O11 2.373960 1_555
Na14 O16 2.312496 1_555
Na14 O13 2.327429 1_555
Na14 O19 2.342693 1_455
Na14 O23 2.364955 1_555
Na14 O29 2.813214 1_555
Na15 O17 2.312496 1_555
Na15 O12 2.327429 1_555
Na15 O18 2.342693 1_655
Na15 O22 2.364955 1_555
Na15 O28 2.813214 1_555
Na16 O27 2.369432 1_554
Na16 O17 2.378305 1_554
Na16 O20 2.404029 1_654
Na16 O23 2.478684 1_555
Na17 O26 2.369432 1_555
Na17 O16 2.378305 1_555
Na17 O21 2.404029 1_455
Na17 O22 2.478684 1_555
Na18 O19 2.273479 1_555
Na18 O25 2.319738 1_555
Na18 O14 2.328218 1_555
Na18 O23 2.411277 1_555
Na19 O18 2.273479 1_555
Na19 O24 2.319738 1_555
Na19 O15 2.328218 1_555
Na19 O22 2.411277 1_555
Na20 O20 2.366127 1_555
Na20 O28 2.410045 1_555
Na20 O17 2.410278 1_555
Na20 O18 2.444909 1_555
Na20 O27 2.499471 1_555
Na20 O31 2.594830 1_555
Na21 O21 2.366127 1_555
Na21 O29 2.410045 1_555
Na21 O16 2.410278 1_555
Na21 O19 2.444909 1_555
Na21 O26 2.499471 1_555
Na21 O30 2.594830 1_555
Na22 O30 2.279860 1_455
Na22 O29 2.336195 1_555
Na22 O26 2.408245 1_555
Na22 O19 2.476529 1_455
Na22 O21 2.677263 1_455
Na23 O31 2.279860 1_655
Na23 O28 2.336195 1_555
Na23 O27 2.408245 1_555
Na23 O18 2.476529 1_655
Na23 O20 2.677263 1_655
Na24 O0 2.246817 1_545
Na24 O28 2.248228 1_555
Na24 O22 2.305866 1_555
Na24 O24 2.384593 1_655
Na25 O1 2.246817 1_545
Na25 O29 2.248228 1_555
Na25 O23 2.305866 1_555
Na25 O25 2.384593 1_455
Na26 O30 2.331870 1_555
Na26 O24 2.440866 1_655
Na26 O26 2.457413 1_555
Na26 O21 2.582967 1_555
Na26 O0 2.882401 1_545
Na27 O31 2.331870 1_554
Na27 O25 2.440866 1_455
Na27 O27 2.457413 1_554
Na27 O20 2.582967 1_554
Na27 O1 2.882401 1_545
Na28 O24 2.323004 1_555
Na28 O3 2.336865 1_545
Na28 O31 2.339199 1_555
Na28 O28 2.353397 1_555
Na29 O25 2.323004 1_555
Na29 O2 2.336865 1_545
Na29 O30 2.339199 1_555
Na29 O29 2.353397 1_555
Na30 O26 2.225269 1_555
Na30 O5 2.240704 1_545
Na30 O0 2.316879 1_545
Na30 O24 2.474793 1_555
Na31 O27 2.225269 1_554
Na31 O4 2.240704 1_545
Na31 O1 2.316879 1_545
Na31 O25 2.474793 1_555
Ni0 O4 1.741384 1_455
Ni0 O1 1.778140 1_555
Ni0 O2 1.797093 1_455
Ni0 O25 1.920337 1_465
Ni1 O5 1.741384 1_655
Ni1 O0 1.778140 1_555
Ni1 O3 1.797093 1_655
Ni1 O24 1.920337 1_665
Ni2 O11 1.781923 1_555
Ni2 O15 1.786781 1_555
Ni2 O12 1.812401 1_555
Ni2 O22 1.853323 1_555
Ni3 O10 1.781923 1_555
Ni3 O14 1.786781 1_555
Ni3 O13 1.812401 1_555
Ni3 O23 1.853323 1_555
Ni4 O16 1.848125 1_555
Ni4 O9 1.855027 1_555
Ni4 O21 1.860719 1_455
Ni4 O19 1.880386 1_455
Ni5 O17 1.848125 1_555
Ni5 O8 1.855027 1_555
Ni5 O20 1.860719 1_655
Ni5 O18 1.880386 1_655
Ni6 O6 1.750273 1_545
Ni6 O26 1.792079 1_555
Ni6 O30 1.836628 1_555
Ni6 O29 1.842448 1_555
Ni7 O7 1.750273 1_545
Ni7 O27 1.792079 1_555
Ni7 O31 1.836628 1_555
Ni7 O28 1.842448 1_555
