# generated using pymatgen
data_Rb3ErO3
_symmetry_space_group_name_H-M   'P 1'
_cell_length_a   7.18835359
_cell_length_b   7.18835359
_cell_length_c   7.17627961
_cell_angle_alpha   85.05540310
_cell_angle_beta   85.05540310
_cell_angle_gamma   115.92563924
_symmetry_Int_Tables_number   1
_chemical_formula_structural   Rb3ErO3
_chemical_formula_sum   'Rb6 Er2 O6'
_cell_volume   329.06595946
_cell_formula_units_Z   2
loop_
 _symmetry_equiv_pos_site_id
 _symmetry_equiv_pos_as_xyz
  1  'x, y, z'
loop_
 _atom_site_type_symbol
 _atom_site_label
 _atom_site_symmetry_multiplicity
 _atom_site_fract_x
 _atom_site_fract_y
 _atom_site_fract_z
 _atom_site_occupancy
  Rb  Rb0  1  0.79576374  0.20423626  0.50000000  1
  Rb  Rb1  1  0.74054164  0.25945836  -0.00000000  1
  Rb  Rb2  1  0.63869033  0.63869033  0.63997448  1
  Rb  Rb3  1  0.36130967  0.36130967  0.36002552  1
  Rb  Rb4  1  0.25945836  0.74054164  -0.00000000  1
  Rb  Rb5  1  0.20423626  0.79576374  0.50000000  1
  Er  Er0  1  0.82257543  0.82257543  0.14871754  1
  Er  Er1  1  0.17742457  0.17742457  0.85128246  1
  O  O0  1  0.83300077  0.55401338  0.26828456  1
  O  O1  1  0.89788747  0.89788747  0.84443313  1
  O  O2  1  0.44598662  0.16699923  0.73171544  1
  O  O3  1  0.55401338  0.83300077  0.26828456  1
  O  O4  1  0.10211253  0.10211253  0.15556687  1
  O  O5  1  0.16699923  0.44598662  0.73171544  1
loop_
_geom_bond_atom_site_label_1
_geom_bond_atom_site_label_2
_geom_bond_distance
_geom_bond_site_symmetry_2
Er0 O3 2.078654 1_555
Er0 O0 2.078654 1_555
Er0 O4 2.140399 1_665
Er0 O1 2.165770 1_554
Er1 O5 2.078654 1_555
Er1 O2 2.078654 1_555
Er1 O1 2.140399 1_445
Er1 O4 2.165770 1_556
O0 Rb0 2.787938 1_555
O0 Rb1 2.885218 1_555
O0 Rb3 3.033153 1_555
O0 Rb2 3.133255 1_555
O0 Rb4 3.137747 1_655
O0 Rb5 3.180309 1_655
O1 Rb2 2.646293 1_555
O1 Rb5 3.505129 1_655
O1 Rb0 3.505129 1_565
O2 Rb0 2.787938 1_555
O2 Rb1 2.885218 1_556
O2 Rb2 3.033153 1_555
O2 Rb3 3.133255 1_555
O2 Rb4 3.137747 1_546
O2 Rb5 3.180309 1_545
O3 Rb5 2.787938 1_555
O3 Rb4 2.885218 1_555
O3 Rb3 3.033153 1_555
O3 Rb2 3.133255 1_555
O3 Rb1 3.137747 1_565
O3 Rb0 3.180309 1_565
O4 Rb3 2.646293 1_555
O4 Rb0 3.505129 1_455
O4 Rb5 3.505129 1_545
O5 Rb5 2.787938 1_555
O5 Rb4 2.885218 1_556
O5 Rb2 3.033153 1_555
O5 Rb3 3.133255 1_555
O5 Rb1 3.137747 1_456
O5 Rb0 3.180309 1_455
