# generated using pymatgen
data_Li2CrS3
_symmetry_space_group_name_H-M   'P 1'
_cell_length_a   6.10232880
_cell_length_b   6.10232880
_cell_length_c   6.27679161
_cell_angle_alpha   80.56145410
_cell_angle_beta   80.56145410
_cell_angle_gamma   120.10765896
_symmetry_Int_Tables_number   1
_chemical_formula_structural   Li2CrS3
_chemical_formula_sum   'Li4 Cr2 S6'
_cell_volume   190.98045858
_cell_formula_units_Z   2
loop_
 _symmetry_equiv_pos_site_id
 _symmetry_equiv_pos_as_xyz
  1  'x, y, z'
loop_
 _atom_site_type_symbol
 _atom_site_label
 _atom_site_symmetry_multiplicity
 _atom_site_fract_x
 _atom_site_fract_y
 _atom_site_fract_z
 _atom_site_occupancy
  Li  Li0  1  0.15982100  0.84017900  0.50000000  1
  Li  Li1  1  0.84017900  0.15982100  0.50000000  1
  Li  Li2  1  0.50000000  0.50000000  0.50000000  1
  Li  Li3  1  0.00000000  0.00000000  0.00000000  1
  Cr  Cr0  1  0.66722100  0.33277900  0.00000000  1
  Cr  Cr1  1  0.33277900  0.66722100  0.00000000  1
  S  S0  1  0.71640600  0.71640600  0.77121600  1
  S  S1  1  0.56325000  0.92369000  0.22720200  1
  S  S2  1  0.92369000  0.56325000  0.22720200  1
  S  S3  1  0.43675000  0.07631000  0.77279800  1
  S  S4  1  0.07631000  0.43675000  0.77279800  1
  S  S5  1  0.28359400  0.28359400  0.22878400  1
loop_
_geom_bond_atom_site_label_1
_geom_bond_atom_site_label_2
_geom_bond_distance
_geom_bond_site_symmetry_2
Li0 S4 2.514947 1_555
Li0 S1 2.514947 1_555
Li0 S5 2.609085 1_565
Li0 S0 2.609085 1_455
Li0 S2 2.679437 1_455
Li0 S3 2.679437 1_565
Li1 S3 2.514947 1_555
Li1 S2 2.514947 1_555
Li1 S5 2.609085 1_655
Li1 S0 2.609085 1_545
Li1 S1 2.679437 1_545
Li1 S4 2.679437 1_655
Li2 S5 2.472040 1_555
Li2 S0 2.472040 1_555
Li2 S3 2.663790 1_555
Li2 S4 2.663790 1_555
Li2 S1 2.663790 1_555
Li2 S2 2.663790 1_555
Li3 S4 2.577658 1_554
Li3 S1 2.577658 1_445
Li3 S2 2.577658 1_445
Li3 S3 2.577658 1_554
Li3 S5 2.584091 1_555
Li3 S0 2.584091 1_444
Cr0 S1 2.369571 1_545
Cr0 S4 2.369571 1_654
Cr0 S3 2.375443 1_554
Cr0 S2 2.375443 1_555
Cr0 S5 2.384062 1_555
Cr0 S0 2.384062 1_554
Cr1 S2 2.369571 1_455
Cr1 S3 2.369571 1_564
Cr1 S4 2.375443 1_554
Cr1 S1 2.375443 1_555
Cr1 S0 2.384062 1_554
Cr1 S5 2.384062 1_555
