# generated using pymatgen
data_Li8TiS6
_symmetry_space_group_name_H-M   'P 1'
_cell_length_a   7.10013000
_cell_length_b   10.26034200
_cell_length_c   14.70064600
_cell_angle_alpha   90.00000000
_cell_angle_beta   90.00000000
_cell_angle_gamma   90.00000000
_symmetry_Int_Tables_number   1
_chemical_formula_structural   Li8TiS6
_chemical_formula_sum   'Li32 Ti4 S24'
_cell_volume   1070.93856300
_cell_formula_units_Z   4
loop_
 _symmetry_equiv_pos_site_id
 _symmetry_equiv_pos_as_xyz
  1  'x, y, z'
loop_
 _atom_site_type_symbol
 _atom_site_label
 _atom_site_symmetry_multiplicity
 _atom_site_fract_x
 _atom_site_fract_y
 _atom_site_fract_z
 _atom_site_occupancy
  Li  Li0  1  0.51147000  0.78107700  0.01989200  1
  Li  Li1  1  0.27945100  0.52935600  0.05944500  1
  Li  Li2  1  0.89866300  0.19259700  0.06715800  1
  Li  Li3  1  0.93392400  0.83204700  0.07554700  1
  Li  Li4  1  0.33876600  0.00057200  0.11526400  1
  Li  Li5  1  0.54263600  0.82142600  0.21499100  1
  Li  Li6  1  0.58317100  0.18598400  0.23089200  1
  Li  Li7  1  0.93594200  0.00795300  0.24371200  1
  Li  Li8  1  0.43594200  0.50795300  0.25628800  1
  Li  Li9  1  0.08317100  0.68598400  0.26910800  1
  Li  Li10  1  0.04263600  0.32142600  0.28500900  1
  Li  Li11  1  0.83876600  0.50057200  0.38473600  1
  Li  Li12  1  0.43392400  0.33204700  0.42445300  1
  Li  Li13  1  0.39866300  0.69259700  0.43284200  1
  Li  Li14  1  0.77945100  0.02935600  0.44055500  1
  Li  Li15  1  0.01147000  0.28107700  0.48010800  1
  Li  Li16  1  0.98853000  0.78107700  0.51989200  1
  Li  Li17  1  0.22054900  0.52935600  0.55944500  1
  Li  Li18  1  0.60133700  0.19259700  0.56715800  1
  Li  Li19  1  0.56607600  0.83204700  0.57554700  1
  Li  Li20  1  0.16123400  0.00057200  0.61526400  1
  Li  Li21  1  0.95736400  0.82142600  0.71499100  1
  Li  Li22  1  0.91682900  0.18598400  0.73089200  1
  Li  Li23  1  0.56405800  0.00795300  0.74371200  1
  Li  Li24  1  0.06405800  0.50795300  0.75628800  1
  Li  Li25  1  0.41682900  0.68598400  0.76910800  1
  Li  Li26  1  0.45736400  0.32142600  0.78500900  1
  Li  Li27  1  0.66123400  0.50057200  0.88473600  1
  Li  Li28  1  0.06607600  0.33204700  0.92445300  1
  Li  Li29  1  0.10133700  0.69259700  0.93284200  1
  Li  Li30  1  0.72054900  0.02935600  0.94055500  1
  Li  Li31  1  0.48853000  0.28107700  0.98010800  1
  Ti  Ti0  1  0.77183200  0.51296400  0.12443500  1
  Ti  Ti1  1  0.27183200  0.01296400  0.37556500  1
  Ti  Ti2  1  0.72816800  0.51296400  0.62443500  1
  Ti  Ti3  1  0.22816800  0.01296400  0.87556500  1
  S  S0  1  0.78214800  0.64415000  0.00083100  1
  S  S1  1  0.51881400  0.37758800  0.12576200  1
  S  S2  1  0.70965800  0.00405400  0.11892600  1
  S  S3  1  0.25239300  0.75974700  0.12281900  1
  S  S4  1  0.03349900  0.39271600  0.12658800  1
  S  S5  1  0.73898800  0.63245300  0.25331200  1
  S  S6  1  0.23898800  0.13245300  0.24668800  1
  S  S7  1  0.53349900  0.89271600  0.37341200  1
  S  S8  1  0.75239300  0.25974700  0.37718100  1
  S  S9  1  0.20965800  0.50405400  0.38107400  1
  S  S10  1  0.01881400  0.87758800  0.37423800  1
  S  S11  1  0.28214800  0.14415000  0.49916900  1
  S  S12  1  0.71785200  0.64415000  0.50083100  1
  S  S13  1  0.98118600  0.37758800  0.62576200  1
  S  S14  1  0.79034200  0.00405400  0.61892600  1
  S  S15  1  0.24760700  0.75974700  0.62281900  1
  S  S16  1  0.46650100  0.39271600  0.62658800  1
  S  S17  1  0.76101200  0.63245300  0.75331200  1
  S  S18  1  0.26101200  0.13245300  0.74668800  1
  S  S19  1  0.96650100  0.89271600  0.87341200  1
  S  S20  1  0.74760700  0.25974700  0.87718100  1
  S  S21  1  0.29034200  0.50405400  0.88107400  1
  S  S22  1  0.48118600  0.87758800  0.87423800  1
  S  S23  1  0.21785200  0.14415000  0.99916900  1
loop_
_geom_bond_atom_site_label_1
_geom_bond_atom_site_label_2
_geom_bond_distance
_geom_bond_site_symmetry_2
Li0 S22 2.368876 1_554
Li0 S3 2.391869 1_555
Li0 S0 2.397043 1_555
Li1 S4 2.447309 1_555
Li1 S1 2.502720 1_555
Li1 S3 2.548105 1_555
Li1 S21 2.636123 1_554
Li2 S4 2.428127 1_655
Li2 S2 2.474341 1_555
Li2 S23 2.526281 1_654
Li3 S2 2.461064 1_565
Li3 S0 2.466670 1_555
Li3 S3 2.479138 1_655
Li4 S23 2.412459 1_554
Li4 S6 2.462839 1_555
Li4 S3 2.548333 1_545
Li4 S2 2.634174 1_555
Li5 S7 2.441920 1_555
Li5 S5 2.453646 1_555
Li5 S3 2.546219 1_555
Li5 S2 2.629047 1_565
Li6 S6 2.515448 1_555
Li6 S1 2.542077 1_555
Li6 S8 2.577058 1_555
Li6 S2 2.645789 1_555
Li7 S10 2.411891 1_645
Li7 S2 2.438865 1_555
Li7 S6 2.502671 1_655
Li8 S1 2.411891 1_555
Li8 S9 2.438865 1_555
Li8 S5 2.502671 1_555
Li9 S5 2.515448 1_455
Li9 S10 2.542077 1_555
Li9 S3 2.577058 1_555
Li9 S9 2.645789 1_555
Li10 S4 2.441920 1_555
Li10 S6 2.453646 1_555
Li10 S8 2.546219 1_455
Li10 S9 2.629047 1_555
Li11 S12 2.412459 1_555
Li11 S5 2.462839 1_555
Li11 S8 2.548333 1_555
Li11 S9 2.634174 1_655
Li12 S9 2.461064 1_555
Li12 S11 2.466670 1_555
Li12 S8 2.479138 1_555
Li13 S7 2.428127 1_555
Li13 S9 2.474341 1_555
Li13 S12 2.526281 1_555
Li14 S7 2.447309 1_545
Li14 S10 2.502720 1_645
Li14 S8 2.548105 1_555
Li14 S14 2.636123 1_555
Li15 S13 2.368876 1_455
Li15 S8 2.391869 1_455
Li15 S11 2.397043 1_555
Li16 S10 2.368876 1_655
Li16 S15 2.391869 1_655
Li16 S12 2.397043 1_555
Li17 S16 2.447309 1_555
Li17 S13 2.502720 1_455
Li17 S15 2.548105 1_555
Li17 S9 2.636123 1_555
Li18 S16 2.428127 1_555
Li18 S14 2.474341 1_555
Li18 S11 2.526281 1_555
Li19 S14 2.461064 1_565
Li19 S12 2.466670 1_555
Li19 S15 2.479138 1_555
Li20 S11 2.412459 1_555
Li20 S18 2.462839 1_555
Li20 S15 2.548333 1_545
Li20 S14 2.634174 1_455
Li21 S19 2.441920 1_555
Li21 S17 2.453646 1_555
Li21 S15 2.546219 1_655
Li21 S14 2.629047 1_565
Li22 S18 2.515448 1_655
Li22 S13 2.542077 1_555
Li22 S20 2.577058 1_555
Li22 S14 2.645789 1_555
Li23 S22 2.411891 1_545
Li23 S14 2.438865 1_555
Li23 S18 2.502671 1_555
Li24 S13 2.411891 1_455
Li24 S21 2.438865 1_555
Li24 S17 2.502671 1_455
Li25 S17 2.515448 1_555
Li25 S22 2.542077 1_555
Li25 S15 2.577058 1_555
Li25 S21 2.645789 1_555
Li26 S16 2.441920 1_555
Li26 S18 2.453646 1_555
Li26 S20 2.546219 1_555
Li26 S21 2.629047 1_555
Li27 S0 2.412459 1_556
Li27 S17 2.462839 1_555
Li27 S20 2.548333 1_555
Li27 S21 2.634174 1_555
Li28 S21 2.461064 1_555
Li28 S23 2.466670 1_555
Li28 S20 2.479138 1_455
Li29 S19 2.428127 1_455
Li29 S21 2.474341 1_555
Li29 S0 2.526281 1_456
Li30 S19 2.447309 1_545
Li30 S22 2.502720 1_545
Li30 S20 2.548105 1_555
Li30 S2 2.636123 1_556
Li31 S1 2.368876 1_556
Li31 S20 2.391869 1_555
Li31 S23 2.397043 1_555
S0 Ti0 2.262481 1_555
S1 Ti0 2.270899 1_555
S4 Ti0 2.230450 1_455
S5 Ti0 2.268671 1_555
S6 Ti1 2.268671 1_555
S7 Ti1 2.230450 1_565
S10 Ti1 2.270899 1_565
S11 Ti1 2.262481 1_555
S12 Ti2 2.262481 1_555
S13 Ti2 2.270899 1_555
S16 Ti2 2.230450 1_555
S17 Ti2 2.268671 1_555
S18 Ti3 2.268671 1_555
S19 Ti3 2.230450 1_665
S22 Ti3 2.270899 1_565
S23 Ti3 2.262481 1_555
