# generated using pymatgen
data_Li4Co7O3F13
_symmetry_space_group_name_H-M   'P 1'
_cell_length_a   6.17185525
_cell_length_b   6.09317751
_cell_length_c   10.53983558
_cell_angle_alpha   105.48486365
_cell_angle_beta   73.19645649
_cell_angle_gamma   120.72935656
_symmetry_Int_Tables_number   1
_chemical_formula_structural   Li4Co7O3F13
_chemical_formula_sum   'Li4 Co7 O3 F13'
_cell_volume   322.71858813
_cell_formula_units_Z   1
loop_
 _symmetry_equiv_pos_site_id
 _symmetry_equiv_pos_as_xyz
  1  'x, y, z'
loop_
 _atom_site_type_symbol
 _atom_site_label
 _atom_site_symmetry_multiplicity
 _atom_site_fract_x
 _atom_site_fract_y
 _atom_site_fract_z
 _atom_site_occupancy
  Li  Li0  1  0.84033300  0.71809800  0.06116800  1
  Li  Li1  1  0.68946200  0.77967100  0.44100000  1
  Li  Li2  1  0.31376500  0.20812000  0.55949600  1
  Li  Li3  1  0.17384400  0.29515000  0.94241700  1
  Co  Co0  1  0.22824600  0.73722300  0.24984400  1
  Co  Co1  1  0.23442700  0.23537900  0.22884600  1
  Co  Co2  1  0.98111100  0.48829200  0.49956600  1
  Co  Co3  1  0.49785200  0.00878300  0.99870600  1
  Co  Co4  1  0.77039900  0.27308800  0.25298800  1
  Co  Co5  1  0.24643500  0.75315400  0.74851800  1
  Co  Co6  1  0.74157000  0.74466100  0.75086000  1
  O  O0  1  0.17272800  0.90916900  0.13297200  1
  O  O1  1  0.13226300  0.37825900  0.14165700  1
  O  O2  1  0.89481700  0.60303100  0.37378300  1
  F  F0  1  0.62200700  0.90268900  0.13569600  1
  F  F1  1  0.62227900  0.37318200  0.12692200  1
  F  F2  1  0.11344700  0.86968900  0.62902900  1
  F  F3  1  0.36014900  0.58910300  0.36606300  1
  F  F4  1  0.60396500  0.84874700  0.63647600  1
  F  F5  1  0.13817800  0.41763600  0.61601300  1
  F  F6  1  0.38569500  0.13332600  0.36005900  1
  F  F7  1  0.63468500  0.40314900  0.62463300  1
  F  F8  1  0.89324100  0.11944300  0.37231400  1
  F  F9  1  0.37036300  0.63272100  0.87279600  1
  F  F10  1  0.35729900  0.09248200  0.87742900  1
  F  F11  1  0.88959400  0.65208800  0.86626700  1
  F  F12  1  0.84184300  0.08366500  0.88448000  1
loop_
_geom_bond_atom_site_label_1
_geom_bond_atom_site_label_2
_geom_bond_distance
_geom_bond_site_symmetry_2
Li0 O0 2.030549 1_655
Li1 O2 1.932476 1_555
Li3 O1 1.996374 1_556
Co0 O2 1.976434 1_455
Co0 O0 2.008103 1_555
Co0 O1 2.042006 1_555
Co0 F0 2.196171 1_555
Co0 F6 2.208522 1_565
Co0 F3 2.212573 1_555
Co1 O1 1.822970 1_555
Co1 O0 1.869053 1_545
Co1 F8 2.104491 1_455
Co1 F1 2.128360 1_555
Co1 F3 2.148097 1_555
Co1 F6 2.229321 1_555
Co2 O2 1.952864 1_555
Co2 F5 2.006982 1_655
Co2 F7 2.044557 1_555
Co2 F8 2.170123 1_555
Co2 F3 2.218028 1_655
Co2 F2 2.222831 1_655
Co3 O0 1.992401 1_546
Co3 F12 1.997629 1_555
Co3 F10 2.021836 1_555
Co3 F1 2.145037 1_556
Co3 F0 2.175795 1_546
Co3 F9 2.183629 1_545
Co4 O2 1.968034 1_555
Co4 O1 2.049185 1_655
Co4 F0 2.124410 1_545
Co4 F6 2.129268 1_555
Co4 F1 2.162863 1_555
Co4 F8 2.222250 1_555
Co5 F4 2.037185 1_555
Co5 F10 2.044712 1_565
Co5 F5 2.048251 1_555
Co5 F11 2.052220 1_455
Co5 F2 2.105881 1_555
Co5 F9 2.122591 1_555
Co6 F4 2.031665 1_555
Co6 F7 2.039998 1_555
Co6 F11 2.041535 1_555
Co6 F12 2.068165 1_565
Co6 F2 2.128018 1_655
Co6 F9 2.129427 1_555
F0 Li0 2.040317 1_555
F1 Li0 2.014026 1_555
F2 Li2 1.998893 1_565
F3 Li1 2.032150 1_555
F4 Li1 1.958501 1_555
F5 Li2 1.947704 1_555
F6 Li2 1.994746 1_555
F7 Li2 1.936932 1_555
F8 Li1 2.001214 1_545
F9 Li3 1.995516 1_555
F10 Li3 1.950641 1_555
F11 Li0 1.948521 1_556
F12 Li3 1.958800 1_655
