# generated using pymatgen
data_LiVSnO4
_symmetry_space_group_name_H-M   'P 1'
_cell_length_a   6.11633400
_cell_length_b   6.11633400
_cell_length_c   8.67141400
_cell_angle_alpha   90.00000000
_cell_angle_beta   90.00000000
_cell_angle_gamma   90.00000000
_symmetry_Int_Tables_number   1
_chemical_formula_structural   LiVSnO4
_chemical_formula_sum   'Li4 V4 Sn4 O16'
_cell_volume   324.39362276
_cell_formula_units_Z   4
loop_
 _symmetry_equiv_pos_site_id
 _symmetry_equiv_pos_as_xyz
  1  'x, y, z'
loop_
 _atom_site_type_symbol
 _atom_site_label
 _atom_site_symmetry_multiplicity
 _atom_site_fract_x
 _atom_site_fract_y
 _atom_site_fract_z
 _atom_site_occupancy
  Li  Li0  1  0.00000000  0.23138400  0.00000000  1
  Li  Li1  1  0.00000000  0.76861600  0.50000000  1
  Li  Li2  1  0.23138400  0.00000000  0.25000000  1
  Li  Li3  1  0.76861600  0.00000000  0.75000000  1
  V  V0  1  0.24035200  0.50000000  0.25000000  1
  V  V1  1  0.50000000  0.24035200  0.00000000  1
  V  V2  1  0.50000000  0.75964800  0.50000000  1
  V  V3  1  0.75964800  0.50000000  0.75000000  1
  Sn  Sn0  1  0.25357800  0.25357800  0.62500000  1
  Sn  Sn1  1  0.25357800  0.74642200  0.87500000  1
  Sn  Sn2  1  0.74642200  0.25357800  0.37500000  1
  Sn  Sn3  1  0.74642200  0.74642200  0.12500000  1
  O  O0  1  0.01836200  0.26168800  0.25144800  1
  O  O1  1  0.01836200  0.73831200  0.24855200  1
  O  O2  1  0.26168800  0.01836200  0.99855200  1
  O  O3  1  0.26168800  0.98163800  0.50144800  1
  O  O4  1  0.26305300  0.48165600  0.01124400  1
  O  O5  1  0.26305300  0.51834400  0.48875600  1
  O  O6  1  0.48165600  0.26305300  0.23875600  1
  O  O7  1  0.48165600  0.73694700  0.26124400  1
  O  O8  1  0.51834400  0.26305300  0.76124400  1
  O  O9  1  0.51834400  0.73694700  0.73875600  1
  O  O10  1  0.73694700  0.51834400  0.51124400  1
  O  O11  1  0.73694700  0.48165600  0.98875600  1
  O  O12  1  0.73831200  0.01836200  0.00144800  1
  O  O13  1  0.73831200  0.98163800  0.49855200  1
  O  O14  1  0.98163800  0.26168800  0.74855200  1
  O  O15  1  0.98163800  0.73831200  0.75144800  1
loop_
_geom_bond_atom_site_label_1
_geom_bond_atom_site_label_2
_geom_bond_distance
_geom_bond_site_symmetry_2
Li0 O2 2.063873 1_554
Li0 O12 2.063873 1_455
Li0 O14 2.191154 1_454
Li0 O0 2.191154 1_555
Li0 O4 2.222907 1_555
Li0 O11 2.222907 1_454
Li1 O3 2.063873 1_555
Li1 O13 2.063873 1_455
Li1 O1 2.191154 1_555
Li1 O15 2.191154 1_455
Li1 O10 2.222907 1_455
Li1 O5 2.222907 1_555
Li2 O0 2.063873 1_555
Li2 O1 2.063873 1_545
Li2 O2 2.191154 1_554
Li2 O3 2.191154 1_545
Li2 O6 2.222907 1_555
Li2 O7 2.222907 1_545
Li3 O14 2.063873 1_555
Li3 O15 2.063873 1_545
Li3 O12 2.191154 1_556
Li3 O13 2.191154 1_545
Li3 O8 2.222907 1_555
Li3 O9 2.222907 1_545
O0 Sn2 1.979086 1_455
O0 V0 1.992051 1_555
O1 Sn3 1.979086 1_455
O1 V0 1.992051 1_555
O2 Sn1 1.979086 1_545
O2 V1 1.992051 1_556
O3 Sn0 1.979086 1_565
O3 V2 1.992051 1_555
O4 Sn1 2.005387 1_554
O4 V1 2.070771 1_555
O4 V0 2.078034 1_555
O5 Sn0 2.005387 1_555
O5 V2 2.070771 1_555
O5 V0 2.078034 1_555
O6 Sn2 2.005387 1_555
O6 V0 2.070771 1_555
O6 V1 2.078034 1_555
O7 Sn3 2.005387 1_555
O7 V0 2.070771 1_555
O7 V2 2.078034 1_555
O8 Sn0 2.005387 1_555
O8 V3 2.070771 1_555
O8 V1 2.078034 1_556
O9 Sn1 2.005387 1_555
O9 V3 2.070771 1_555
O9 V2 2.078034 1_555
O10 Sn2 2.005387 1_555
O10 V2 2.070771 1_555
O10 V3 2.078034 1_555
O11 Sn3 2.005387 1_556
O11 V1 2.070771 1_556
O11 V3 2.078034 1_555
O12 Sn3 1.979086 1_545
O12 V1 1.992051 1_555
O13 Sn2 1.979086 1_565
O13 V2 1.992051 1_555
O14 Sn0 1.979086 1_655
O14 V3 1.992051 1_555
O15 Sn1 1.979086 1_655
O15 V3 1.992051 1_555
