# generated using pymatgen
data_Na5Fe2P2(CO7)2
_symmetry_space_group_name_H-M   'P 1'
_cell_length_a   5.24329323
_cell_length_b   11.21216178
_cell_length_c   11.21263602
_cell_angle_alpha   107.30705660
_cell_angle_beta   89.33288610
_cell_angle_gamma   90.67149826
_symmetry_Int_Tables_number   1
_chemical_formula_structural   Na5Fe2P2(CO7)2
_chemical_formula_sum   'Na10 Fe4 P4 C4 O28'
_cell_volume   629.26483524
_cell_formula_units_Z   2
loop_
 _symmetry_equiv_pos_site_id
 _symmetry_equiv_pos_as_xyz
  1  'x, y, z'
loop_
 _atom_site_type_symbol
 _atom_site_label
 _atom_site_symmetry_multiplicity
 _atom_site_fract_x
 _atom_site_fract_y
 _atom_site_fract_z
 _atom_site_occupancy
  Na  Na0  1  0.23691600  0.91374800  0.83631300  1
  Na  Na1  1  0.23691900  0.41368700  0.33624500  1
  Na  Na2  1  0.24319900  0.87920100  0.12594200  1
  Na  Na3  1  0.24350000  0.37919600  0.62596200  1
  Na  Na4  1  0.24329800  0.12404100  0.37078300  1
  Na  Na5  1  0.24359000  0.62402100  0.87080000  1
  Na  Na6  1  0.75151300  0.87655600  0.62661500  1
  Na  Na7  1  0.75157300  0.37655700  0.12658500  1
  Na  Na8  1  0.75156200  0.12341100  0.87344800  1
  Na  Na9  1  0.75151100  0.62338400  0.37344600  1
  Fe  Fe0  1  0.78023500  0.19705700  0.55303600  1
  Fe  Fe1  1  0.78016700  0.69700500  0.05298800  1
  Fe  Fe2  1  0.21571100  0.30142500  0.94856800  1
  Fe  Fe3  1  0.21515200  0.80144400  0.44856400  1
  P  P0  1  0.71567100  0.91359000  0.33643900  1
  P  P1  1  0.71579100  0.41355800  0.83646400  1
  P  P2  1  0.29734500  0.08350500  0.66646500  1
  P  P3  1  0.29734300  0.58351400  0.16648200  1
  C  C0  1  0.72643800  0.34308700  0.40691400  1
  C  C1  1  0.72643600  0.84309000  0.90691800  1
  C  C2  1  0.26565700  0.66261900  0.58737900  1
  C  C3  1  0.26633700  0.16263900  0.08735900  1
  O  O0  1  0.29476800  0.09363100  0.15636800  1
  O  O1  1  0.29466600  0.59363000  0.65636700  1
  O  O2  1  0.94918600  0.31191700  0.43806900  1
  O  O3  1  0.94917700  0.81191300  0.93806500  1
  O  O4  1  0.52212600  0.30128500  0.44870700  1
  O  O5  1  0.52212400  0.80127400  0.94869900  1
  O  O6  1  0.17297900  0.16009200  0.58988000  1
  O  O7  1  0.17297200  0.66010200  0.08989100  1
  O  O8  1  0.41963900  0.89450200  0.35548900  1
  O  O9  1  0.41972300  0.39450200  0.85549100  1
  O  O10  1  0.59304300  0.09021500  0.65976900  1
  O  O11  1  0.59304500  0.59028300  0.15982500  1
  O  O12  1  0.85621000  0.83733000  0.41265100  1
  O  O13  1  0.85670600  0.33740400  0.91259200  1
  O  O14  1  0.45894400  0.71118500  0.53881300  1
  O  O15  1  0.46002400  0.21119800  0.03880200  1
  O  O16  1  0.04243500  0.69486000  0.55513800  1
  O  O17  1  0.04309700  0.19487500  0.05512400  1
  O  O18  1  0.70808000  0.91442500  0.83557900  1
  O  O19  1  0.70807300  0.41442400  0.33557300  1
  O  O20  1  0.78326900  0.86327000  0.19725100  1
  O  O21  1  0.78321200  0.36320600  0.69724500  1
  O  O22  1  0.78338600  0.05277700  0.38676100  1
  O  O23  1  0.78324200  0.55277300  0.88677400  1
  O  O24  1  0.21085100  0.94232900  0.61999400  1
  O  O25  1  0.21120300  0.44231500  0.11994000  1
  O  O26  1  0.21120200  0.13005900  0.80767000  1
  O  O27  1  0.21090300  0.62998000  0.30766700  1
loop_
_geom_bond_atom_site_label_1
_geom_bond_atom_site_label_2
_geom_bond_distance
_geom_bond_site_symmetry_2
Na0 O3 2.361387 1_455
Na0 O18 2.470299 1_555
Na0 O5 2.539327 1_555
Na0 O26 2.544718 1_565
Na0 O24 2.544731 1_555
Na0 O18 2.773056 1_455
Na1 O2 2.361416 1_455
Na1 O19 2.470247 1_555
Na1 O4 2.539353 1_555
Na1 O27 2.544324 1_555
Na1 O25 2.544671 1_555
Na1 O19 2.773108 1_455
Na2 O0 2.338522 1_565
Na2 O7 2.392734 1_555
Na2 O5 2.404371 1_554
Na2 O3 2.546831 1_454
Na2 O20 2.552792 1_455
Na2 O8 2.701644 1_555
Na3 O1 2.338382 1_555
Na3 O6 2.392964 1_555
Na3 O4 2.403500 1_555
Na3 O2 2.547897 1_455
Na3 O21 2.554563 1_455
Na3 O9 2.701041 1_555
Na4 O0 2.338457 1_555
Na4 O6 2.392919 1_555
Na4 O4 2.403880 1_555
Na4 O2 2.547177 1_455
Na4 O22 2.552566 1_455
Na4 O8 2.701363 1_545
Na5 O1 2.338473 1_555
Na5 O7 2.393034 1_556
Na5 O5 2.402988 1_555
Na5 O3 2.548267 1_455
Na5 O23 2.554651 1_455
Na5 O9 2.700731 1_555
Na6 O18 2.262718 1_555
Na6 O12 2.365938 1_555
Na6 O14 2.375457 1_555
Na6 O10 2.465157 1_565
Na6 O16 2.488426 1_655
Na6 O24 2.517288 1_655
Na7 O19 2.263016 1_555
Na7 O13 2.366851 1_554
Na7 O15 2.371902 1_555
Na7 O11 2.465825 1_555
Na7 O17 2.490253 1_655
Na7 O25 2.518726 1_655
Na8 O18 2.262862 1_545
Na8 O13 2.366726 1_555
Na8 O15 2.372020 1_556
Na8 O10 2.465413 1_555
Na8 O17 2.490170 1_656
Na8 O26 2.518902 1_655
Na9 O19 2.262551 1_555
Na9 O12 2.365625 1_555
Na9 O14 2.375602 1_555
Na9 O11 2.464863 1_555
Na9 O16 2.488326 1_655
Na9 O27 2.517605 1_655
Fe0 O21 2.071919 1_555
Fe0 O22 2.073295 1_555
Fe0 O10 2.151439 1_555
Fe0 O6 2.173645 1_655
Fe0 O2 2.244861 1_555
Fe0 O4 2.335158 1_555
Fe1 O23 2.072560 1_554
Fe1 O20 2.073101 1_555
Fe1 O11 2.151148 1_555
Fe1 O7 2.173940 1_655
Fe1 O3 2.245012 1_554
Fe1 O5 2.334960 1_554
Fe2 O9 1.979488 1_555
Fe2 O13 2.000266 1_455
Fe2 O15 2.087485 1_556
Fe2 O26 2.093300 1_555
Fe2 O25 2.093330 1_556
Fe2 O17 2.114842 1_556
Fe3 O8 1.980645 1_555
Fe3 O12 1.999477 1_455
Fe3 O14 2.086114 1_555
Fe3 O24 2.093744 1_555
Fe3 O27 2.094044 1_555
Fe3 O16 2.115490 1_555
C0 O19 1.293510 1_555
C0 O4 1.301576 1_555
C0 O2 1.303819 1_555
C1 O18 1.293470 1_555
C1 O5 1.301586 1_555
C1 O3 1.303782 1_555
C2 O1 1.257507 1_555
C2 O16 1.314825 1_555
C2 O14 1.330712 1_555
C3 O0 1.257460 1_555
C3 O17 1.314865 1_555
C3 O15 1.332196 1_555
O6 P2 1.537821 1_555
O7 P3 1.537889 1_555
O8 P0 1.585053 1_555
O9 P1 1.585136 1_555
O10 P2 1.553400 1_555
O11 P3 1.553432 1_555
O12 P0 1.571144 1_555
O13 P1 1.570581 1_555
O20 P0 1.532164 1_555
O21 P1 1.532296 1_555
O22 P0 1.532196 1_545
O23 P1 1.532162 1_555
O24 P2 1.575011 1_565
O25 P3 1.574753 1_555
O26 P2 1.574929 1_555
O27 P3 1.575126 1_555
