# generated using pymatgen
data_Ho3ReO7
_symmetry_space_group_name_H-M   'P 1'
_cell_length_a   6.42275216
_cell_length_b   6.42275216
_cell_length_c   7.39048900
_cell_angle_alpha   90.00000000
_cell_angle_beta   90.00000000
_cell_angle_gamma   110.22971624
_symmetry_Int_Tables_number   1
_chemical_formula_structural   Ho3ReO7
_chemical_formula_sum   'Ho6 Re2 O14'
_cell_volume   286.06426537
_cell_formula_units_Z   2
loop_
 _symmetry_equiv_pos_site_id
 _symmetry_equiv_pos_as_xyz
  1  'x, y, z'
loop_
 _atom_site_type_symbol
 _atom_site_label
 _atom_site_symmetry_multiplicity
 _atom_site_fract_x
 _atom_site_fract_y
 _atom_site_fract_z
 _atom_site_occupancy
  Ho  Ho0  1  0.56161000  0.02237400  0.25000000  1
  Ho  Ho1  1  0.97762600  0.43839000  0.75000000  1
  Ho  Ho2  1  0.50000000  0.50000000  0.00000000  1
  Ho  Ho3  1  0.50000000  0.50000000  0.50000000  1
  Ho  Ho4  1  0.02237400  0.56161000  0.25000000  1
  Ho  Ho5  1  0.43839000  0.97762600  0.75000000  1
  Re  Re0  1  0.00000000  0.00000000  0.00000000  1
  Re  Re1  1  0.00000000  0.00000000  0.50000000  1
  O  O0  1  0.93341900  0.67631400  0.53574300  1
  O  O1  1  0.32368600  0.06658100  0.46425700  1
  O  O2  1  0.32368600  0.06658100  0.03574300  1
  O  O3  1  0.93341900  0.67631400  0.96425700  1
  O  O4  1  0.65773600  0.39186000  0.25000000  1
  O  O5  1  0.60814000  0.34226400  0.75000000  1
  O  O6  1  0.93039500  0.93039500  0.25000000  1
  O  O7  1  0.06960500  0.06960500  0.75000000  1
  O  O8  1  0.34226400  0.60814000  0.75000000  1
  O  O9  1  0.39186000  0.65773600  0.25000000  1
  O  O10  1  0.06658100  0.32368600  0.03574300  1
  O  O11  1  0.06658100  0.32368600  0.46425700  1
  O  O12  1  0.67631400  0.93341900  0.53574300  1
  O  O13  1  0.67631400  0.93341900  0.96425700  1
loop_
_geom_bond_atom_site_label_1
_geom_bond_atom_site_label_2
_geom_bond_distance
_geom_bond_site_symmetry_2
Ho0 O9 2.215334 1_545
Ho0 O4 2.235980 1_555
Ho0 O1 2.285434 1_555
Ho0 O2 2.285434 1_555
Ho0 O12 2.370629 1_545
Ho0 O13 2.370629 1_544
Ho0 O6 2.631925 1_545
Ho1 O8 2.215334 1_655
Ho1 O5 2.235980 1_555
Ho1 O3 2.285434 1_555
Ho1 O0 2.285434 1_555
Ho1 O11 2.370629 1_655
Ho1 O10 2.370629 1_656
Ho1 O7 2.631925 1_655
Ho2 O5 2.325750 1_554
Ho2 O8 2.325750 1_554
Ho2 O9 2.325750 1_555
Ho2 O4 2.325750 1_555
Ho2 O2 2.630836 1_555
Ho2 O10 2.630836 1_555
Ho2 O13 2.630836 1_554
Ho2 O3 2.630836 1_554
Ho3 O8 2.325750 1_555
Ho3 O5 2.325750 1_555
Ho3 O9 2.325750 1_555
Ho3 O4 2.325750 1_555
Ho3 O11 2.630836 1_555
Ho3 O12 2.630836 1_555
Ho3 O0 2.630836 1_555
Ho3 O1 2.630836 1_555
Ho4 O4 2.215334 1_455
Ho4 O9 2.235980 1_555
Ho4 O11 2.285434 1_555
Ho4 O10 2.285434 1_555
Ho4 O0 2.370629 1_455
Ho4 O3 2.370629 1_454
Ho4 O6 2.631925 1_455
Ho5 O5 2.215334 1_565
Ho5 O8 2.235980 1_555
Ho5 O12 2.285434 1_555
Ho5 O13 2.285434 1_555
Ho5 O1 2.370629 1_565
Ho5 O2 2.370629 1_566
Ho5 O7 2.631925 1_565
O0 Re1 1.989944 1_665
O1 Re1 1.989944 1_555
O2 Re0 1.989944 1_555
O3 Re0 1.989944 1_666
O6 Re0 1.917084 1_665
O6 Re1 1.917084 1_665
O7 Re0 1.917084 1_556
O7 Re1 1.917084 1_555
O10 Re0 1.989944 1_555
O11 Re1 1.989944 1_555
O12 Re1 1.989944 1_665
O13 Re0 1.989944 1_666
