# generated using pymatgen
data_MgH12(NO6)2
_symmetry_space_group_name_H-M   'P 1'
_cell_length_a   12.69511100
_cell_length_b   6.23985900
_cell_length_c   6.60187951
_cell_angle_alpha   86.15404209
_cell_angle_beta   90.00000000
_cell_angle_gamma   90.00000000
_symmetry_Int_Tables_number   1
_chemical_formula_structural   MgH12(NO6)2
_chemical_formula_sum   'Mg2 H24 N4 O24'
_cell_volume   521.79478381
_cell_formula_units_Z   2
loop_
 _symmetry_equiv_pos_site_id
 _symmetry_equiv_pos_as_xyz
  1  'x, y, z'
loop_
 _atom_site_type_symbol
 _atom_site_label
 _atom_site_symmetry_multiplicity
 _atom_site_fract_x
 _atom_site_fract_y
 _atom_site_fract_z
 _atom_site_occupancy
  Mg  Mg0  1  0.50000000  0.00000000  0.50000000  1
  Mg  Mg1  1  0.00000000  0.00000000  0.00000000  1
  H  H0  1  0.71415300  0.92779000  0.50992500  1
  H  H1  1  0.21415300  0.07221000  0.99007500  1
  H  H2  1  0.28584700  0.07221000  0.49007500  1
  H  H3  1  0.78584700  0.92779000  0.00992500  1
  H  H4  1  0.69089300  0.18149400  0.48244600  1
  H  H5  1  0.19089300  0.81850600  0.01755400  1
  H  H6  1  0.30910700  0.81850600  0.51755400  1
  H  H7  1  0.80910700  0.18149400  0.98244600  1
  H  H8  1  0.48431800  0.63314500  0.76537200  1
  H  H9  1  0.98431800  0.36685500  0.73462800  1
  H  H10  1  0.51568200  0.36685500  0.23462800  1
  H  H11  1  0.01568200  0.63314500  0.26537200  1
  H  H12  1  0.57946400  0.59970400  0.61260600  1
  H  H13  1  0.07946400  0.40029600  0.88739400  1
  H  H14  1  0.42053600  0.40029600  0.38739400  1
  H  H15  1  0.92053600  0.59970400  0.11260600  1
  H  H16  1  0.56317800  0.80617700  0.15936500  1
  H  H17  1  0.06317800  0.19382300  0.34063500  1
  H  H18  1  0.43682200  0.19382300  0.84063500  1
  H  H19  1  0.93682200  0.80617700  0.65936500  1
  H  H20  1  0.43870200  0.80311100  0.14617800  1
  H  H21  1  0.93870200  0.19688900  0.35382200  1
  H  H22  1  0.56129800  0.19688900  0.85382200  1
  H  H23  1  0.06129800  0.80311100  0.64617800  1
  N  N0  1  0.79657900  0.52934400  0.54355100  1
  N  N1  1  0.29657900  0.47065600  0.95644900  1
  N  N2  1  0.20342100  0.47065600  0.45644900  1
  N  N3  1  0.70342100  0.52934400  0.04355100  1
  O  O0  1  0.66082400  0.03706700  0.46798100  1
  O  O1  1  0.16082400  0.96293300  0.03201900  1
  O  O2  1  0.33917600  0.96293300  0.53201900  1
  O  O3  1  0.83917600  0.03706700  0.96798100  1
  O  O4  1  0.52349600  0.69825600  0.64892000  1
  O  O5  1  0.02349600  0.30174400  0.85108000  1
  O  O6  1  0.47650400  0.30174400  0.35108000  1
  O  O7  1  0.97650400  0.69825600  0.14892000  1
  O  O8  1  0.49780500  0.85605600  0.22331000  1
  O  O9  1  0.99780500  0.14394400  0.27669000  1
  O  O10  1  0.50219500  0.14394400  0.77669000  1
  O  O11  1  0.00219500  0.85605600  0.72331000  1
  O  O12  1  0.70357700  0.46111400  0.51503900  1
  O  O13  1  0.20357700  0.53888600  0.98496100  1
  O  O14  1  0.29642300  0.53888600  0.48496100  1
  O  O15  1  0.79642300  0.46111400  0.01503900  1
  O  O16  1  0.81055200  0.72403500  0.58188200  1
  O  O17  1  0.31055200  0.27596500  0.91811800  1
  O  O18  1  0.18944800  0.27596500  0.41811800  1
  O  O19  1  0.68944800  0.72403500  0.08188200  1
  O  O20  1  0.87418600  0.40395800  0.53351600  1
  O  O21  1  0.37418600  0.59604200  0.96648400  1
  O  O22  1  0.12581400  0.59604200  0.46648400  1
  O  O23  1  0.62581400  0.40395800  0.03351600  1
loop_
_geom_bond_atom_site_label_1
_geom_bond_atom_site_label_2
_geom_bond_distance
_geom_bond_site_symmetry_2
Mg0 O0 2.063994 1_555
Mg0 O2 2.063994 1_545
Mg0 O6 2.086222 1_555
Mg0 O4 2.086222 1_545
Mg0 O8 2.089105 1_545
Mg0 O10 2.089105 1_555
Mg1 O3 2.063994 1_454
Mg1 O1 2.063994 1_545
Mg1 O7 2.086222 1_445
Mg1 O5 2.086222 1_554
Mg1 O11 2.089105 1_544
Mg1 O9 2.089105 1_455
H0 O0 0.987245 1_565
H1 O1 0.987245 1_546
H2 O2 0.987245 1_545
H3 O3 0.987245 1_564
H4 O0 0.989217 1_555
H5 O1 0.989217 1_555
H6 O2 0.989217 1_555
H7 O3 0.989217 1_555
H8 O4 0.980611 1_555
H9 O5 0.980611 1_655
H10 O6 0.980611 1_555
H11 O7 0.980611 1_455
H12 O4 0.979926 1_555
H13 O5 0.979926 1_555
H14 O6 0.979926 1_555
H15 O7 0.979926 1_555
H16 O8 0.990694 1_555
H17 O9 0.990694 1_455
H18 O10 0.990694 1_555
H19 O11 0.990694 1_655
H20 O8 0.976725 1_555
H21 O9 0.976725 1_555
H22 O10 0.976725 1_555
H23 O11 0.976725 1_555
N0 O20 1.262599 1_555
N0 O16 1.269879 1_555
N0 O12 1.273352 1_555
N1 O21 1.262599 1_555
N1 O17 1.269879 1_555
N1 O13 1.273352 1_555
N2 O22 1.262599 1_555
N2 O18 1.269879 1_555
N2 O14 1.273352 1_555
N3 O23 1.262599 1_555
N3 O19 1.269879 1_555
N3 O15 1.273352 1_555
