# generated using pymatgen
data_MnCrO4
_symmetry_space_group_name_H-M   'P 1'
_cell_length_a   5.13543736
_cell_length_b   5.13547911
_cell_length_c   6.68876600
_cell_angle_alpha   90.00152573
_cell_angle_beta   90.00115913
_cell_angle_gamma   66.59330572
_symmetry_Int_Tables_number   1
_chemical_formula_structural   MnCrO4
_chemical_formula_sum   'Mn2 Cr2 O8'
_cell_volume   161.88590099
_cell_formula_units_Z   2
loop_
 _symmetry_equiv_pos_site_id
 _symmetry_equiv_pos_as_xyz
  1  'x, y, z'
loop_
 _atom_site_type_symbol
 _atom_site_label
 _atom_site_symmetry_multiplicity
 _atom_site_fract_x
 _atom_site_fract_y
 _atom_site_fract_z
 _atom_site_occupancy
  Mn  Mn0  1  0.00000000  0.99999700  0.50000300  1
  Mn  Mn1  1  0.99999700  0.00000000  0.00000100  1
  Cr  Cr0  1  0.64365300  0.64364200  0.24998800  1
  Cr  Cr1  1  0.35626800  0.35627700  0.75000600  1
  O  O0  1  0.75564300  0.75564500  0.44951500  1
  O  O1  1  0.24437300  0.24437400  0.55045500  1
  O  O2  1  0.75565600  0.75565600  0.05046300  1
  O  O3  1  0.24437200  0.24436900  0.94955800  1
  O  O4  1  0.78276100  0.28104200  0.25000100  1
  O  O5  1  0.71894900  0.21728600  0.75000200  1
  O  O6  1  0.21728300  0.71895300  0.75000600  1
  O  O7  1  0.28104600  0.78276000  0.25000100  1
loop_
_geom_bond_atom_site_label_1
_geom_bond_atom_site_label_2
_geom_bond_distance
_geom_bond_site_symmetry_2
Mn0 O0 2.124743 1_455
Mn0 O1 2.124878 1_565
Mn0 O7 2.201062 1_555
Mn0 O4 2.201078 1_465
Mn0 O5 2.201124 1_465
Mn0 O6 2.201136 1_555
Mn1 O2 2.124632 1_545
Mn1 O3 2.124862 1_654
Mn1 O4 2.201033 1_555
Mn1 O7 2.201063 1_645
Mn1 O6 2.201082 1_644
Mn1 O5 2.201114 1_554
Cr0 O0 1.644836 1_555
Cr0 O2 1.644929 1_555
Cr0 O4 1.709075 1_555
Cr0 O7 1.709094 1_555
Cr1 O1 1.644477 1_555
Cr1 O3 1.644541 1_555
Cr1 O6 1.709445 1_555
Cr1 O5 1.709454 1_555
