# generated using pymatgen
data_LiNd6(CuO6)2
_symmetry_space_group_name_H-M   'P 1'
_cell_length_a   8.80931306
_cell_length_b   8.80931306
_cell_length_c   6.76235242
_cell_angle_alpha   68.35460284
_cell_angle_beta   68.35460284
_cell_angle_gamma   37.30400365
_symmetry_Int_Tables_number   1
_chemical_formula_structural   LiNd6(CuO6)2
_chemical_formula_sum   'Li1 Nd6 Cu2 O12'
_cell_volume   292.95194372
_cell_formula_units_Z   1
loop_
 _symmetry_equiv_pos_site_id
 _symmetry_equiv_pos_as_xyz
  1  'x, y, z'
loop_
 _atom_site_type_symbol
 _atom_site_label
 _atom_site_symmetry_multiplicity
 _atom_site_fract_x
 _atom_site_fract_y
 _atom_site_fract_z
 _atom_site_occupancy
  Li  Li0  1  0.00000000  0.00000000  0.00000000  1
  Nd  Nd0  1  0.78502400  0.78502400  0.13076500  1
  Nd  Nd1  1  0.88510900  0.88510900  0.52905400  1
  Nd  Nd2  1  0.45238700  0.45238700  0.79920200  1
  Nd  Nd3  1  0.54761300  0.54761300  0.20079800  1
  Nd  Nd4  1  0.21497600  0.21497600  0.86923500  1
  Nd  Nd5  1  0.11489100  0.11489100  0.47094600  1
  Cu  Cu0  1  0.66766600  0.66766600  0.66297900  1
  Cu  Cu1  1  0.33233400  0.33233400  0.33702100  1
  O  O0  1  0.91729800  0.41846700  0.16471000  1
  O  O1  1  0.00000000  0.50000000  0.50000000  1
  O  O2  1  0.74885900  0.25114100  0.50000000  1
  O  O3  1  0.83079500  0.34774200  0.82126200  1
  O  O4  1  0.58153300  0.08270200  0.83529000  1
  O  O5  1  0.65225800  0.16920500  0.17873800  1
  O  O6  1  0.50000000  0.00000000  0.50000000  1
  O  O7  1  0.34774200  0.83079500  0.82126200  1
  O  O8  1  0.41846700  0.91729800  0.16471000  1
  O  O9  1  0.25114100  0.74885900  0.50000000  1
  O  O10  1  0.08270200  0.58153300  0.83529000  1
  O  O11  1  0.16920500  0.65225800  0.17873800  1
loop_
_geom_bond_atom_site_label_1
_geom_bond_atom_site_label_2
_geom_bond_distance
_geom_bond_site_symmetry_2
Li0 O5 2.097707 1_455
Li0 O11 2.097707 1_545
Li0 O3 2.097707 1_454
Li0 O7 2.097707 1_544
Nd0 O10 2.319722 1_654
Nd0 O4 2.319722 1_564
Nd0 O8 2.345682 1_555
Nd0 O0 2.345682 1_555
Nd0 O11 2.675834 1_655
Nd0 O5 2.675834 1_565
Nd0 O1 2.724718 1_655
Nd0 O6 2.724718 1_565
Nd1 O9 2.329409 1_655
Nd1 O2 2.329409 1_565
Nd1 O10 2.374533 1_655
Nd1 O4 2.374533 1_565
Nd1 O5 2.669681 1_565
Nd1 O11 2.669681 1_655
Nd1 O1 2.730371 1_655
Nd1 O6 2.730371 1_565
Nd2 O9 2.332321 1_555
Nd2 O2 2.332321 1_555
Nd2 O4 2.384123 1_555
Nd2 O10 2.384123 1_555
Nd2 O3 2.713128 1_555
Nd2 O7 2.713128 1_555
Nd2 O11 2.744691 1_556
Nd2 O5 2.744691 1_556
Nd3 O9 2.332321 1_555
Nd3 O2 2.332321 1_555
Nd3 O8 2.384123 1_555
Nd3 O0 2.384123 1_555
Nd3 O11 2.713128 1_555
Nd3 O5 2.713128 1_555
Nd3 O7 2.744691 1_554
Nd3 O3 2.744691 1_554
Nd4 O8 2.319722 1_546
Nd4 O0 2.319722 1_456
Nd4 O4 2.345682 1_555
Nd4 O10 2.345682 1_555
Nd4 O7 2.675834 1_545
Nd4 O3 2.675834 1_455
Nd4 O6 2.724718 1_555
Nd4 O1 2.724718 1_555
Nd5 O2 2.329409 1_455
Nd5 O9 2.329409 1_545
Nd5 O0 2.374533 1_455
Nd5 O8 2.374533 1_545
Nd5 O7 2.669681 1_545
Nd5 O3 2.669681 1_455
Nd5 O6 2.730371 1_555
Nd5 O1 2.730371 1_555
Cu0 O3 1.902604 1_555
Cu0 O7 1.902604 1_555
Cu0 O6 1.977043 1_565
Cu0 O1 1.977043 1_655
Cu1 O5 1.902604 1_555
Cu1 O11 1.902604 1_555
Cu1 O6 1.977043 1_555
Cu1 O1 1.977043 1_555
