# generated using pymatgen
data_LiFeSbO4
_symmetry_space_group_name_H-M   'P 1'
_cell_length_a   6.21344701
_cell_length_b   6.21471001
_cell_length_c   8.59929400
_cell_angle_alpha   89.99679364
_cell_angle_beta   89.99975601
_cell_angle_gamma   89.99452313
_symmetry_Int_Tables_number   1
_chemical_formula_structural   LiFeSbO4
_chemical_formula_sum   'Li4 Fe4 Sb4 O16'
_cell_volume   332.05976932
_cell_formula_units_Z   4
loop_
 _symmetry_equiv_pos_site_id
 _symmetry_equiv_pos_as_xyz
  1  'x, y, z'
loop_
 _atom_site_type_symbol
 _atom_site_label
 _atom_site_symmetry_multiplicity
 _atom_site_fract_x
 _atom_site_fract_y
 _atom_site_fract_z
 _atom_site_occupancy
  Li  Li0  1  0.00000200  0.21337400  0.00003000  1
  Li  Li1  1  0.00000100  0.78661900  0.49999500  1
  Li  Li2  1  0.21333100  0.99999900  0.24997600  1
  Li  Li3  1  0.78665600  0.99999500  0.74998700  1
  Fe  Fe0  1  0.75749200  0.24246900  0.37506500  1
  Fe  Fe1  1  0.75735300  0.75740200  0.12496000  1
  Fe  Fe2  1  0.24263600  0.24260100  0.62496400  1
  Fe  Fe3  1  0.24246700  0.75750400  0.87505000  1
  Sb  Sb0  1  0.23396900  0.50002500  0.24998900  1
  Sb  Sb1  1  0.50001700  0.23413900  0.99999200  1
  Sb  Sb2  1  0.49996200  0.76586000  0.50003200  1
  Sb  Sb3  1  0.76602200  0.49997900  0.74999100  1
  O  O0  1  0.02539800  0.26482300  0.25169800  1
  O  O1  1  0.02536800  0.73521500  0.24820700  1
  O  O2  1  0.26491500  0.02551600  0.99813100  1
  O  O3  1  0.26485300  0.97450100  0.50193100  1
  O  O4  1  0.73517700  0.02550500  0.00191900  1
  O  O5  1  0.73514100  0.97446800  0.49817200  1
  O  O6  1  0.97459100  0.26479900  0.74813700  1
  O  O7  1  0.97455700  0.73516300  0.75178200  1
  O  O8  1  0.27095200  0.47861900  0.01443300  1
  O  O9  1  0.27084900  0.52145500  0.48555700  1
  O  O10  1  0.47858100  0.27113200  0.23553800  1
  O  O11  1  0.47848500  0.72896100  0.26446800  1
  O  O12  1  0.52154500  0.27100700  0.76441800  1
  O  O13  1  0.52145400  0.72894600  0.73558900  1
  O  O14  1  0.72906500  0.52143200  0.51446400  1
  O  O15  1  0.72916400  0.47849500  0.98552800  1
loop_
_geom_bond_atom_site_label_1
_geom_bond_atom_site_label_2
_geom_bond_distance
_geom_bond_site_symmetry_2
Li0 O4 2.017770 1_455
Li0 O2 2.017996 1_554
Li0 O0 2.193363 1_555
Li0 O6 2.195218 1_454
Li0 O15 2.358324 1_454
Li0 O8 2.359549 1_555
Li1 O5 2.017689 1_455
Li1 O3 2.017958 1_555
Li1 O1 2.194322 1_555
Li1 O7 2.194364 1_455
Li1 O9 2.358535 1_555
Li1 O14 2.359254 1_455
Li2 O0 2.017939 1_565
Li2 O1 2.018029 1_555
Li2 O2 2.195006 1_564
Li2 O3 2.195873 1_555
Li2 O11 2.359360 1_555
Li2 O10 2.360398 1_565
Li3 O7 2.017868 1_555
Li3 O6 2.018034 1_565
Li3 O5 2.194714 1_555
Li3 O4 2.195659 1_566
Li3 O12 2.359040 1_565
Li3 O13 2.359810 1_555
Fe0 O5 1.978355 1_545
Fe0 O0 1.978816 1_655
Fe0 O14 2.115173 1_555
Fe0 O10 2.115314 1_555
Fe1 O4 1.978488 1_565
Fe1 O1 1.978746 1_655
Fe1 O11 2.114906 1_555
Fe1 O15 2.114954 1_554
Fe2 O3 1.978552 1_545
Fe2 O6 1.978568 1_455
Fe2 O9 2.114464 1_555
Fe2 O12 2.114852 1_555
Fe3 O7 1.978391 1_455
Fe3 O2 1.978436 1_565
Fe3 O8 2.114619 1_556
Fe3 O13 2.115327 1_555
O0 Sb0 1.953625 1_555
O1 Sb0 1.953513 1_555
O2 Sb1 1.953339 1_555
O3 Sb2 1.953263 1_555
O4 Sb1 1.953472 1_554
O5 Sb2 1.953634 1_555
O6 Sb3 1.953340 1_555
O7 Sb3 1.953400 1_555
O8 Sb0 2.042949 1_555
O8 Sb1 2.085487 1_554
O9 Sb0 2.042994 1_555
O9 Sb2 2.085567 1_555
O10 Sb1 2.042892 1_554
O10 Sb0 2.085332 1_555
O11 Sb2 2.043000 1_555
O11 Sb0 2.085293 1_555
O12 Sb1 2.043058 1_555
O12 Sb3 2.085232 1_555
O13 Sb2 2.042929 1_555
O13 Sb3 2.085413 1_555
O14 Sb3 2.042690 1_555
O14 Sb2 2.085398 1_555
O15 Sb3 2.042719 1_555
O15 Sb1 2.085473 1_555
