# generated using pymatgen
data_LiCo2CuO6
_symmetry_space_group_name_H-M   'P 1'
_cell_length_a   6.49731906
_cell_length_b   6.49731906
_cell_length_c   5.87478476
_cell_angle_alpha   76.15282658
_cell_angle_beta   76.15282658
_cell_angle_gamma   25.28882713
_symmetry_Int_Tables_number   1
_chemical_formula_structural   LiCo2CuO6
_chemical_formula_sum   'Li1 Co2 Cu1 O6'
_cell_volume   102.70677397
_cell_formula_units_Z   1
loop_
 _symmetry_equiv_pos_site_id
 _symmetry_equiv_pos_as_xyz
  1  'x, y, z'
loop_
 _atom_site_type_symbol
 _atom_site_label
 _atom_site_symmetry_multiplicity
 _atom_site_fract_x
 _atom_site_fract_y
 _atom_site_fract_z
 _atom_site_occupancy
  Li  Li0  1  0.00000000  0.00000000  0.00000000  1
  Co  Co0  1  0.67289300  0.67289300  0.17239100  1
  Co  Co1  1  0.32710700  0.32710700  0.82760900  1
  Cu  Cu0  1  0.00000000  0.00000000  0.50000000  1
  O  O0  1  0.16453700  0.16453700  0.38023700  1
  O  O1  1  0.47930300  0.47930300  0.74466400  1
  O  O2  1  0.82534700  0.82534700  0.04646500  1
  O  O3  1  0.52069700  0.52069700  0.25533600  1
  O  O4  1  0.83546300  0.83546300  0.61976300  1
  O  O5  1  0.17465300  0.17465300  0.95353500  1
loop_
_geom_bond_atom_site_label_1
_geom_bond_atom_site_label_2
_geom_bond_distance
_geom_bond_site_symmetry_2
Li0 O3 2.129539 1_545
Li0 O1 2.129539 1_454
Li0 O1 2.129539 1_544
Li0 O3 2.129539 1_455
Li0 O2 2.163798 1_445
Li0 O5 2.163798 1_554
Co0 O0 1.860525 1_655
Co0 O0 1.860525 1_565
Co0 O3 1.870868 1_555
Co0 O2 1.892722 1_555
Co0 O5 1.913728 1_564
Co0 O5 1.913728 1_654
Co1 O4 1.860525 1_545
Co1 O4 1.860525 1_455
Co1 O1 1.870868 1_555
Co1 O5 1.892722 1_555
Co1 O2 1.913728 1_546
Co1 O2 1.913728 1_456
Cu0 O1 1.993144 1_455
Cu0 O3 1.993144 1_455
Cu0 O1 1.993144 1_545
Cu0 O3 1.993144 1_545
Cu0 O0 2.031594 1_555
Cu0 O4 2.031594 1_445
