# generated using pymatgen
data_Li4NbCo3O8
_symmetry_space_group_name_H-M   'P 1'
_cell_length_a   5.13303700
_cell_length_b   5.63832293
_cell_length_c   6.53820892
_cell_angle_alpha   89.92954125
_cell_angle_beta   89.58439177
_cell_angle_gamma   89.96704513
_symmetry_Int_Tables_number   1
_chemical_formula_structural   Li4NbCo3O8
_chemical_formula_sum   'Li4 Nb1 Co3 O8'
_cell_volume   189.22186171
_cell_formula_units_Z   1
loop_
 _symmetry_equiv_pos_site_id
 _symmetry_equiv_pos_as_xyz
  1  'x, y, z'
loop_
 _atom_site_type_symbol
 _atom_site_label
 _atom_site_symmetry_multiplicity
 _atom_site_fract_x
 _atom_site_fract_y
 _atom_site_fract_z
 _atom_site_occupancy
  Li  Li0  1  0.99259200  0.90755800  0.38970700  1
  Li  Li1  1  0.49914300  0.57903300  0.86268200  1
  Li  Li2  1  0.99346000  0.43971000  0.12526800  1
  Li  Li3  1  0.49925000  0.09312900  0.62378700  1
  Nb  Nb0  1  0.50470600  0.08384200  0.12399800  1
  Co  Co0  1  0.98932800  0.90831600  0.85519000  1
  Co  Co1  1  0.50440000  0.57444700  0.39030400  1
  Co  Co2  1  0.99379200  0.41442900  0.62769700  1
  O  O0  1  0.38236200  0.92768700  0.88958500  1
  O  O1  1  0.39012000  0.91890800  0.35918500  1
  O  O2  1  0.88395700  0.58214100  0.86379000  1
  O  O3  1  0.88166100  0.57548700  0.38854400  1
  O  O4  1  0.36295400  0.41745600  0.62597700  1
  O  O5  1  0.39059600  0.40169500  0.12883100  1
  O  O6  1  0.88630500  0.09665600  0.62330100  1
  O  O7  1  0.87177500  0.07950600  0.12215200  1
loop_
_geom_bond_atom_site_label_1
_geom_bond_atom_site_label_2
_geom_bond_distance
_geom_bond_site_symmetry_2
Li0 O6 1.938627 1_565
Li0 O3 1.957347 1_555
Li0 O1 2.049848 1_655
Li0 O7 2.096558 1_565
Li1 O4 1.932278 1_555
Li1 O2 1.975418 1_555
Li1 O0 2.062207 1_555
Li1 O5 2.078605 1_556
Li2 O3 1.966434 1_555
Li2 O2 1.973229 1_554
Li2 O5 2.049926 1_655
Li2 O7 2.125334 1_555
Li3 O4 1.957577 1_555
Li3 O6 1.986858 1_555
Li3 O0 2.057124 1_545
Li3 O1 2.071372 1_545
Nb0 O0 1.880554 1_544
Nb0 O7 1.884275 1_555
Nb0 O5 1.885357 1_555
Nb0 O1 1.886604 1_545
Co0 O2 1.917908 1_555
Co0 O6 1.926923 1_565
Co0 O0 2.034584 1_655
Co0 O7 2.080999 1_566
Co1 O4 1.914713 1_555
Co1 O3 1.936458 1_555
Co1 O1 2.038878 1_555
Co1 O5 2.057142 1_555
Co2 O6 1.875352 1_555
Co2 O2 1.893455 1_555
Co2 O4 1.894961 1_655
Co2 O3 1.899956 1_555
