# generated using pymatgen
data_Na3VSiCO7
_symmetry_space_group_name_H-M   'P 1'
_cell_length_a   6.66319400
_cell_length_b   10.59316499
_cell_length_c   8.96916424
_cell_angle_alpha   87.51667343
_cell_angle_beta   89.99981362
_cell_angle_gamma   90.00032690
_symmetry_Int_Tables_number   1
_chemical_formula_structural   Na3VSiCO7
_chemical_formula_sum   'Na12 V4 Si4 C4 O28'
_cell_volume   632.48775488
_cell_formula_units_Z   4
loop_
 _symmetry_equiv_pos_site_id
 _symmetry_equiv_pos_as_xyz
  1  'x, y, z'
loop_
 _atom_site_type_symbol
 _atom_site_label
 _atom_site_symmetry_multiplicity
 _atom_site_fract_x
 _atom_site_fract_y
 _atom_site_fract_z
 _atom_site_occupancy
  Na  Na0  1  0.24999300  0.38641700  0.08753400  1
  Na  Na1  1  0.24999200  0.88670700  0.08746900  1
  Na  Na2  1  0.74999400  0.11324700  0.91267700  1
  Na  Na3  1  0.74999400  0.61338200  0.91267800  1
  Na  Na4  1  0.01345900  0.12980600  0.27642000  1
  Na  Na5  1  0.01347600  0.63003400  0.27619900  1
  Na  Na6  1  0.48653200  0.12980200  0.27641400  1
  Na  Na7  1  0.48650400  0.63008200  0.27620100  1
  Na  Na8  1  0.51340800  0.36996100  0.72402400  1
  Na  Na9  1  0.51336400  0.87019400  0.72365600  1
  Na  Na10  1  0.98658600  0.36998400  0.72401300  1
  Na  Na11  1  0.98661500  0.87017800  0.72365200  1
  V  V0  1  0.75001500  0.89107300  0.34459100  1
  V  V1  1  0.24999300  0.60826700  0.65507200  1
  V  V2  1  0.74996200  0.39138400  0.34502900  1
  V  V3  1  0.24996600  0.10876400  0.65508200  1
  Si  Si0  1  0.25000600  0.35837000  0.41922800  1
  Si  Si1  1  0.24999400  0.85830500  0.41926200  1
  Si  Si2  1  0.74999500  0.14171500  0.58065300  1
  Si  Si3  1  0.74999900  0.64181600  0.58067200  1
  C  C0  1  0.75002500  0.35601000  0.05923100  1
  C  C1  1  0.74999000  0.85587400  0.05894900  1
  C  C2  1  0.25000000  0.14397600  0.94097100  1
  C  C3  1  0.24999900  0.64383300  0.94083200  1
  O  O0  1  0.25000300  0.15597200  0.08274700  1
  O  O1  1  0.24999500  0.65631600  0.08250900  1
  O  O2  1  0.74998400  0.34385700  0.91747300  1
  O  O3  1  0.74998800  0.84406600  0.91714200  1
  O  O4  1  0.75004600  0.46778400  0.11641800  1
  O  O5  1  0.74998400  0.96754700  0.11647900  1
  O  O6  1  0.25001700  0.03225900  0.88361800  1
  O  O7  1  0.25000500  0.53194000  0.88396400  1
  O  O8  1  0.75004900  0.25806800  0.15304600  1
  O  O9  1  0.74999800  0.75779600  0.15249800  1
  O  O10  1  0.24998100  0.24200700  0.84728500  1
  O  O11  1  0.24999900  0.74163400  0.84673000  1
  O  O12  1  0.25002100  0.20324000  0.46037700  1
  O  O13  1  0.24998400  0.70314700  0.45985000  1
  O  O14  1  0.75007500  0.29701100  0.54001600  1
  O  O15  1  0.74999500  0.79697900  0.53922800  1
  O  O16  1  0.74998800  0.06674100  0.42597600  1
  O  O17  1  0.74998900  0.56653500  0.42613700  1
  O  O18  1  0.25003300  0.43364700  0.57391500  1
  O  O19  1  0.24998900  0.93337800  0.57401800  1
  O  O20  1  0.05268600  0.39215200  0.31334000  1
  O  O21  1  0.05270600  0.89225500  0.31319700  1
  O  O22  1  0.44735900  0.39211200  0.31336100  1
  O  O23  1  0.44728900  0.89224200  0.31319200  1
  O  O24  1  0.55270100  0.10798500  0.68675800  1
  O  O25  1  0.55273000  0.60810300  0.68672900  1
  O  O26  1  0.94727800  0.10794100  0.68676000  1
  O  O27  1  0.94726800  0.60810600  0.68672600  1
loop_
_geom_bond_atom_site_label_1
_geom_bond_atom_site_label_2
_geom_bond_distance
_geom_bond_site_symmetry_2
Na0 O7 2.337991 1_554
Na0 O20 2.417553 1_555
Na0 O22 2.417906 1_555
Na0 O0 2.443379 1_555
Na0 O10 2.696131 1_554
Na0 O1 2.857487 1_555
Na1 O6 2.340080 1_564
Na1 O21 2.416769 1_555
Na1 O23 2.416770 1_555
Na1 O1 2.442902 1_555
Na1 O11 2.703981 1_554
Na1 O0 2.850848 1_565
Na2 O5 2.340730 1_546
Na2 O26 2.418030 1_555
Na2 O24 2.418057 1_555
Na2 O2 2.445131 1_555
Na2 O8 2.699640 1_556
Na2 O3 2.850024 1_545
Na3 O4 2.339635 1_556
Na3 O25 2.418188 1_555
Na3 O27 2.418238 1_555
Na3 O3 2.445736 1_555
Na3 O9 2.692987 1_556
Na3 O2 2.853583 1_555
Na4 O16 2.291274 1_455
Na4 O0 2.353032 1_555
Na4 O12 2.433772 1_555
Na4 O8 2.453743 1_455
Na4 O21 2.537248 1_545
Na4 O20 2.825061 1_555
Na4 O5 2.882365 1_445
Na5 O17 2.294546 1_455
Na5 O1 2.353138 1_555
Na5 O13 2.430456 1_555
Na5 O9 2.452498 1_455
Na5 O20 2.540966 1_555
Na5 O21 2.823865 1_555
Na5 O4 2.881373 1_455
Na6 O16 2.291229 1_555
Na6 O0 2.352939 1_555
Na6 O12 2.433603 1_555
Na6 O8 2.454237 1_555
Na6 O23 2.537337 1_545
Na6 O22 2.824692 1_555
Na6 O5 2.882224 1_545
Na7 O17 2.294675 1_555
Na7 O1 2.353072 1_555
Na7 O13 2.430317 1_555
Na7 O9 2.452295 1_555
Na7 O22 2.541852 1_555
Na7 O23 2.823210 1_555
Na7 O4 2.882157 1_555
Na8 O18 2.295399 1_555
Na8 O2 2.351656 1_555
Na8 O14 2.432756 1_555
Na8 O10 2.451634 1_555
Na8 O25 2.543877 1_555
Na8 O24 2.821727 1_555
Na8 O7 2.880243 1_555
Na9 O19 2.291554 1_555
Na9 O3 2.352135 1_555
Na9 O15 2.436185 1_555
Na9 O11 2.454054 1_555
Na9 O24 2.539908 1_565
Na9 O25 2.822488 1_555
Na9 O6 2.880681 1_565
Na10 O18 2.295631 1_655
Na10 O2 2.351855 1_555
Na10 O14 2.432100 1_555
Na10 O10 2.451669 1_655
Na10 O27 2.543662 1_555
Na10 O26 2.822416 1_555
Na10 O7 2.880203 1_655
Na11 O19 2.291561 1_655
Na11 O3 2.352150 1_555
Na11 O15 2.436055 1_555
Na11 O11 2.454085 1_655
Na11 O26 2.539614 1_565
Na11 O27 2.822273 1_555
Na11 O6 2.881022 1_665
C0 O2 1.283490 1_554
C0 O8 1.307215 1_555
C0 O4 1.310598 1_555
C1 O3 1.283409 1_554
C1 O9 1.306868 1_555
C1 O5 1.310941 1_555
C2 O0 1.283413 1_556
C2 O10 1.307233 1_555
C2 O6 1.310684 1_555
C3 O1 1.283272 1_556
C3 O11 1.307643 1_555
C3 O7 1.310530 1_555
O4 V2 2.171528 1_555
O5 V0 2.167636 1_555
O6 V3 2.171273 1_555
O7 V1 2.173611 1_555
O8 V2 2.273803 1_555
O9 V0 2.274307 1_555
O10 V3 2.274846 1_555
O11 V1 2.271872 1_555
O12 Si0 1.668577 1_555
O12 V3 1.974805 1_555
O13 Si1 1.667976 1_555
O13 V1 1.980809 1_555
O14 Si2 1.669480 1_555
O14 V2 1.976476 1_555
O15 Si3 1.669392 1_555
O15 V0 1.972386 1_555
O16 Si2 1.628165 1_555
O16 V0 2.028157 1_545
O17 Si3 1.628763 1_555
O17 V2 2.022054 1_555
O18 Si0 1.629929 1_555
O18 V1 2.016982 1_555
O19 Si1 1.629334 1_555
O19 V3 2.024220 1_565
O20 Si0 1.652046 1_555
O20 V2 2.037001 1_455
O21 Si1 1.653116 1_555
O21 V0 2.036412 1_455
O22 Si0 1.652025 1_555
O22 V2 2.036179 1_555
O23 Si1 1.653144 1_555
O23 V0 2.036651 1_555
O24 Si2 1.652896 1_555
O24 V3 2.037059 1_555
O25 Si3 1.652485 1_555
O25 V1 2.037072 1_555
O26 Si2 1.652945 1_555
O26 V3 2.036749 1_655
O27 Si3 1.652472 1_555
O27 V1 2.036987 1_655
