# generated using pymatgen
data_Li12CoNi3P4(CO7)4
_symmetry_space_group_name_H-M   'P 1'
_cell_length_a   6.41612200
_cell_length_b   8.35023300
_cell_length_c   9.95830210
_cell_angle_alpha   85.32533382
_cell_angle_beta   90.00000000
_cell_angle_gamma   90.00000000
_symmetry_Int_Tables_number   1
_chemical_formula_structural   Li12CoNi3P4(CO7)4
_chemical_formula_sum   'Li12 Co1 Ni3 P4 C4 O28'
_cell_volume   531.75235744
_cell_formula_units_Z   1
loop_
 _symmetry_equiv_pos_site_id
 _symmetry_equiv_pos_as_xyz
  1  'x, y, z'
loop_
 _atom_site_type_symbol
 _atom_site_label
 _atom_site_symmetry_multiplicity
 _atom_site_fract_x
 _atom_site_fract_y
 _atom_site_fract_z
 _atom_site_occupancy
  Li  Li0  1  0.00000000  0.90408500  0.61862900  1
  Li  Li1  1  0.00000000  0.90484000  0.11847600  1
  Li  Li2  1  0.22843500  0.72369900  0.87709400  1
  Li  Li3  1  0.77156500  0.72369900  0.87709400  1
  Li  Li4  1  0.22793900  0.72374900  0.37702300  1
  Li  Li5  1  0.77206100  0.72374900  0.37702300  1
  Li  Li6  1  0.72906600  0.27623300  0.62420600  1
  Li  Li7  1  0.27093400  0.27623300  0.62420600  1
  Li  Li8  1  0.72871800  0.27602200  0.12242900  1
  Li  Li9  1  0.27128200  0.27602200  0.12242900  1
  Li  Li10  1  0.50000000  0.09553800  0.88147400  1
  Li  Li11  1  0.50000000  0.09536500  0.38152300  1
  Co  Co0  1  0.00000000  0.33297900  0.39493400  1
  Ni  Ni0  1  0.50000000  0.66746000  0.60423000  1
  Ni  Ni1  1  0.50000000  0.66747500  0.10359200  1
  Ni  Ni2  1  0.00000000  0.33331900  0.89628400  1
  P  P0  1  0.00000000  0.58597600  0.64071200  1
  P  P1  1  0.00000000  0.58655700  0.13876300  1
  P  P2  1  0.50000000  0.41487100  0.86027000  1
  P  P3  1  0.50000000  0.41489100  0.36017100  1
  C  C0  1  0.50000000  0.96152100  0.64816100  1
  C  C1  1  0.50000000  0.96149100  0.14819500  1
  C  C2  1  0.00000000  0.03872200  0.85175300  1
  C  C3  1  0.00000000  0.03594700  0.35131200  1
  O  O0  1  0.50000000  0.92402100  0.52451800  1
  O  O1  1  0.00000000  0.89084400  0.82131100  1
  O  O2  1  0.50000000  0.92420000  0.02459800  1
  O  O3  1  0.50000000  0.84527800  0.74341400  1
  O  O4  1  0.00000000  0.88825200  0.32100300  1
  O  O5  1  0.50000000  0.84506600  0.24344000  1
  O  O6  1  0.18741400  0.69140000  0.58861000  1
  O  O7  1  0.81258600  0.69140000  0.58861000  1
  O  O8  1  0.18750000  0.69153800  0.08690500  1
  O  O9  1  0.81250000  0.69153800  0.08690500  1
  O  O10  1  0.50000000  0.58270500  0.91437100  1
  O  O11  1  0.00000000  0.56379900  0.79800400  1
  O  O12  1  0.50000000  0.58221200  0.41492600  1
  O  O13  1  0.00000000  0.56579300  0.29650800  1
  O  O14  1  0.50000000  0.43748900  0.70298300  1
  O  O15  1  0.00000000  0.41793100  0.58688200  1
  O  O16  1  0.50000000  0.43747100  0.20335200  1
  O  O17  1  0.00000000  0.41776100  0.08640200  1
  O  O18  1  0.31261400  0.30902600  0.91185100  1
  O  O19  1  0.68738600  0.30902600  0.91185100  1
  O  O20  1  0.68725700  0.30855400  0.41183400  1
  O  O21  1  0.31274300  0.30855400  0.41183400  1
  O  O22  1  0.00000000  0.15517700  0.75649300  1
  O  O23  1  0.50000000  0.10956100  0.67849400  1
  O  O24  1  0.00000000  0.15191000  0.25568000  1
  O  O25  1  0.00000000  0.07626600  0.97536600  1
  O  O26  1  0.50000000  0.10953000  0.17878100  1
  O  O27  1  0.00000000  0.07325000  0.47509000  1
loop_
_geom_bond_atom_site_label_1
_geom_bond_atom_site_label_2
_geom_bond_distance
_geom_bond_site_symmetry_2
Li0 O27 1.925989 1_565
Li0 O1 2.012377 1_555
Li0 O7 2.185384 1_455
Li0 O6 2.185384 1_555
Li1 O25 1.935854 1_564
Li1 O4 2.010282 1_555
Li1 O9 2.193120 1_455
Li1 O8 2.193120 1_555
Li2 O1 2.068422 1_555
Li2 O8 2.101208 1_556
Li2 O10 2.118635 1_555
Li2 O11 2.173170 1_555
Li2 O3 2.370332 1_555
Li3 O1 2.068422 1_655
Li3 O9 2.101208 1_556
Li3 O10 2.118635 1_555
Li3 O11 2.173170 1_655
Li3 O3 2.370332 1_555
Li4 O4 2.052328 1_555
Li4 O6 2.118360 1_555
Li4 O12 2.124524 1_555
Li4 O13 2.166515 1_555
Li4 O5 2.371328 1_555
Li5 O4 2.052328 1_655
Li5 O7 2.118360 1_555
Li5 O12 2.124524 1_555
Li5 O13 2.166515 1_655
Li5 O5 2.371328 1_555
Li6 O23 2.065589 1_555
Li6 O15 2.118561 1_655
Li6 O20 2.127068 1_555
Li6 O14 2.181923 1_555
Li6 O22 2.358394 1_655
Li7 O23 2.065589 1_555
Li7 O15 2.118561 1_555
Li7 O21 2.127068 1_555
Li7 O14 2.181923 1_555
Li7 O22 2.358394 1_555
Li8 O26 2.067375 1_555
Li8 O19 2.109380 1_554
Li8 O17 2.118942 1_655
Li8 O16 2.190311 1_555
Li8 O24 2.374935 1_655
Li9 O26 2.067375 1_555
Li9 O18 2.109380 1_554
Li9 O17 2.118942 1_555
Li9 O16 2.190311 1_555
Li9 O24 2.374935 1_555
Li10 O2 1.935449 1_546
Li10 O23 2.015175 1_555
Li10 O18 2.191538 1_555
Li10 O19 2.191538 1_555
Li11 O0 1.934615 1_545
Li11 O26 2.012782 1_555
Li11 O21 2.188891 1_555
Li11 O20 2.188891 1_555
Co0 O21 2.022562 1_555
Co0 O20 2.022562 1_455
Co0 O15 2.092357 1_555
Co0 O13 2.104627 1_555
Co0 O24 2.133268 1_555
Co0 O27 2.249147 1_555
Ni0 O6 2.020267 1_555
Ni0 O7 2.020267 1_555
Ni0 O12 2.068628 1_555
Ni0 O14 2.084919 1_555
Ni0 O3 2.112165 1_555
Ni0 O0 2.223188 1_555
Ni1 O9 2.020575 1_555
Ni1 O8 2.020575 1_555
Ni1 O10 2.066184 1_554
Ni1 O16 2.089159 1_555
Ni1 O5 2.115457 1_555
Ni1 O2 2.222488 1_555
Ni2 O19 2.020685 1_455
Ni2 O18 2.020685 1_555
Ni2 O17 2.073446 1_556
Ni2 O11 2.086811 1_555
Ni2 O22 2.118526 1_555
Ni2 O25 2.225292 1_555
C0 O0 1.294964 1_555
C0 O23 1.296233 1_565
C0 O3 1.300716 1_555
C1 O2 1.293964 1_555
C1 O26 1.297010 1_565
C1 O5 1.301707 1_555
C2 O25 1.294792 1_555
C2 O1 1.295255 1_545
C2 O22 1.301979 1_555
C3 O4 1.293356 1_545
C3 O27 1.295745 1_555
C3 O24 1.301641 1_555
O6 P0 1.554235 1_555
O7 P0 1.554235 1_655
O8 P1 1.551972 1_555
O9 P1 1.551972 1_655
O10 P2 1.541880 1_555
O11 P0 1.562210 1_555
O12 P3 1.540640 1_555
O13 P1 1.566304 1_555
O14 P2 1.562301 1_555
O15 P0 1.542392 1_555
O16 P3 1.557662 1_555
O17 P1 1.542183 1_555
O18 P2 1.554512 1_555
O19 P2 1.554512 1_555
O20 P3 1.556334 1_555
O21 P3 1.556334 1_555
