# generated using pymatgen
data_Li3Mn3TeO8
_symmetry_space_group_name_H-M   'P 1'
_cell_length_a   6.31056075
_cell_length_b   6.30980807
_cell_length_c   10.51529183
_cell_angle_alpha   107.40747068
_cell_angle_beta   107.38137911
_cell_angle_gamma   60.02089832
_symmetry_Int_Tables_number   1
_chemical_formula_structural   Li3Mn3TeO8
_chemical_formula_sum   'Li6 Mn6 Te2 O16'
_cell_volume   340.38452215
_cell_formula_units_Z   2
loop_
 _symmetry_equiv_pos_site_id
 _symmetry_equiv_pos_as_xyz
  1  'x, y, z'
loop_
 _atom_site_type_symbol
 _atom_site_label
 _atom_site_symmetry_multiplicity
 _atom_site_fract_x
 _atom_site_fract_y
 _atom_site_fract_z
 _atom_site_occupancy
  Li  Li0  1  0.25001300  0.75000400  0.75002000  1
  Li  Li1  1  0.74998800  0.24999300  0.24997900  1
  Li  Li2  1  0.75000000  0.75000500  0.75001700  1
  Li  Li3  1  0.24999800  0.24999600  0.24998300  1
  Li  Li4  1  0.24999400  0.74998800  0.24997700  1
  Li  Li5  1  0.75000200  0.25001400  0.75001900  1
  Mn  Mn0  1  0.99999800  0.50000700  0.00000000  1
  Mn  Mn1  1  0.50000000  0.50000200  0.00000300  1
  Mn  Mn2  1  0.50000600  0.99999600  0.00000800  1
  Mn  Mn3  1  0.49999700  0.00001500  0.50000100  1
  Mn  Mn4  1  0.00000600  0.99999300  0.49999500  1
  Mn  Mn5  1  0.00000400  0.50000000  0.50000900  1
  Te  Te0  1  0.49999900  0.49998500  0.49999900  1
  Te  Te1  1  0.99999900  0.99998500  0.99999900  1
  O  O0  1  0.63628100  0.63234300  0.90059100  1
  O  O1  1  0.13633800  0.13236000  0.40063200  1
  O  O2  1  0.86366300  0.86763800  0.59936900  1
  O  O3  1  0.36371800  0.36765500  0.09941000  1
  O  O4  1  0.16920100  0.60830500  0.38570200  1
  O  O5  1  0.66924300  0.10827600  0.88568400  1
  O  O6  1  0.60792700  0.60858500  0.38538700  1
  O  O7  1  0.10790300  0.10852700  0.88537400  1
  O  O8  1  0.10801500  0.66902100  0.88540800  1
  O  O9  1  0.60803500  0.16896500  0.38542700  1
  O  O10  1  0.33075000  0.89172600  0.11431200  1
  O  O11  1  0.83079400  0.39169700  0.61429500  1
  O  O12  1  0.89209900  0.89147500  0.11461900  1
  O  O13  1  0.39207500  0.39141800  0.61460600  1
  O  O14  1  0.39196300  0.83104200  0.61457300  1
  O  O15  1  0.89198400  0.33098500  0.11459400  1
loop_
_geom_bond_atom_site_label_1
_geom_bond_atom_site_label_2
_geom_bond_distance
_geom_bond_site_symmetry_2
Li0 O8 2.178507 1_555
Li0 O14 2.179034 1_555
Li0 O7 2.180880 1_565
Li0 O13 2.181400 1_555
Li0 O0 2.364039 1_555
Li0 O2 2.364772 1_455
Li1 O15 2.178507 1_555
Li1 O9 2.179016 1_555
Li1 O12 2.180889 1_545
Li1 O6 2.181394 1_555
Li1 O3 2.364038 1_555
Li1 O1 2.364781 1_655
Li2 O8 2.179933 1_655
Li2 O14 2.180234 1_555
Li2 O5 2.181442 1_565
Li2 O11 2.181830 1_555
Li2 O0 2.342600 1_555
Li2 O2 2.342912 1_555
Li3 O15 2.179917 1_455
Li3 O9 2.180238 1_555
Li3 O10 2.181458 1_545
Li3 O4 2.181820 1_555
Li3 O3 2.342582 1_555
Li3 O1 2.342921 1_555
Li4 O10 2.178948 1_555
Li4 O12 2.179090 1_455
Li4 O4 2.179380 1_555
Li4 O6 2.179451 1_555
Li4 O3 2.346261 1_555
Li4 O1 2.346854 1_565
Li5 O5 2.178960 1_555
Li5 O7 2.179099 1_655
Li5 O11 2.179367 1_555
Li5 O13 2.179442 1_555
Li5 O0 2.346268 1_555
Li5 O2 2.346846 1_545
Mn0 O0 2.057077 1_554
Mn0 O3 2.057094 1_655
Mn0 O8 2.244992 1_654
Mn0 O15 2.245035 1_555
Mn0 O12 2.246287 1_555
Mn0 O7 2.246365 1_654
Mn1 O3 2.075271 1_555
Mn1 O0 2.075277 1_554
Mn1 O10 2.246330 1_555
Mn1 O5 2.246371 1_554
Mn1 O15 2.249411 1_555
Mn1 O8 2.249431 1_554
Mn2 O3 2.075157 1_565
Mn2 O0 2.075174 1_554
Mn2 O10 2.244939 1_555
Mn2 O5 2.245051 1_564
Mn2 O12 2.250007 1_555
Mn2 O7 2.250123 1_564
Mn3 O1 2.056674 1_555
Mn3 O2 2.056704 1_545
Mn3 O9 2.244621 1_555
Mn3 O14 2.244702 1_545
Mn3 O13 2.245907 1_555
Mn3 O6 2.246065 1_545
Mn4 O1 2.075263 1_565
Mn4 O2 2.075345 1_455
Mn4 O4 2.246082 1_555
Mn4 O11 2.246187 1_465
Mn4 O14 2.249208 1_555
Mn4 O9 2.249244 1_465
Mn5 O2 2.074929 1_455
Mn5 O1 2.074991 1_555
Mn5 O11 2.244711 1_455
Mn5 O4 2.244825 1_555
Mn5 O13 2.249821 1_555
Mn5 O6 2.249927 1_455
O4 Te0 1.958573 1_555
O5 Te1 1.958461 1_545
O6 Te0 1.958788 1_555
O7 Te1 1.958535 1_445
O8 Te1 1.959636 1_455
O9 Te0 1.959806 1_555
O10 Te1 1.958431 1_454
O11 Te0 1.958556 1_555
O12 Te1 1.958331 1_554
O13 Te0 1.958580 1_555
O14 Te0 1.959980 1_555
O15 Te1 1.959814 1_544
