# generated using pymatgen
data_Li3MnO3
_symmetry_space_group_name_H-M   'P 1'
_cell_length_a   9.62571413
_cell_length_b   9.62571413
_cell_length_c   9.79392400
_cell_angle_alpha   90.00000000
_cell_angle_beta   90.00000000
_cell_angle_gamma   120.00000087
_symmetry_Int_Tables_number   1
_chemical_formula_structural   Li3MnO3
_chemical_formula_sum   'Li36 Mn12 O36'
_cell_volume   785.87464362
_cell_formula_units_Z   12
loop_
 _symmetry_equiv_pos_site_id
 _symmetry_equiv_pos_as_xyz
  1  'x, y, z'
loop_
 _atom_site_type_symbol
 _atom_site_label
 _atom_site_symmetry_multiplicity
 _atom_site_fract_x
 _atom_site_fract_y
 _atom_site_fract_z
 _atom_site_occupancy
  Li  Li0  1  0.41725700  0.19506100  0.17314400  1
  Li  Li1  1  0.47981300  0.24985000  0.67302700  1
  Li  Li2  1  0.42663300  0.85532900  0.67300300  1
  Li  Li3  1  0.51891600  0.08530000  0.83021200  1
  Li  Li4  1  0.43361700  0.91470000  0.16978800  1
  Li  Li5  1  0.57130400  0.14467100  0.32699700  1
  Li  Li6  1  0.52018700  0.77003600  0.32697300  1
  Li  Li7  1  0.80493900  0.22219700  0.17314400  1
  Li  Li8  1  0.42869600  0.57336700  0.67300300  1
  Li  Li9  1  0.48108400  0.56638300  0.16978800  1
  Li  Li10  1  0.58274300  0.77780300  0.82685600  1
  Li  Li11  1  0.75015000  0.22996400  0.67302700  1
  Li  Li12  1  0.89728400  0.14617200  0.82961400  1
  Li  Li13  1  0.56638300  0.48108400  0.83021200  1
  Li  Li14  1  0.81482100  0.91681600  0.67293100  1
  Li  Li15  1  0.89800500  0.08318400  0.32706900  1
  Li  Li16  1  0.57336700  0.42869600  0.32699700  1
  Li  Li17  1  0.75111200  0.85382800  0.17038600  1
  Li  Li18  1  0.91681600  0.81482100  0.32706900  1
  Li  Li19  1  0.10271600  0.24888800  0.17038600  1
  Li  Li20  1  0.77780300  0.58274300  0.17314400  1
  Li  Li21  1  0.85382800  0.75111200  0.82961400  1
  Li  Li22  1  0.10199500  0.18517900  0.67293100  1
  Li  Li23  1  0.77003600  0.52018700  0.67302700  1
  Li  Li24  1  0.91470000  0.43361700  0.83021200  1
  Li  Li25  1  0.08318400  0.89800500  0.67293100  1
  Li  Li26  1  0.18517900  0.10199500  0.32706900  1
  Li  Li27  1  0.24888800  0.10271600  0.82961400  1
  Li  Li28  1  0.85532900  0.42663300  0.32699700  1
  Li  Li29  1  0.14617200  0.89728400  0.17038600  1
  Li  Li30  1  0.08530000  0.51891600  0.16978800  1
  Li  Li31  1  0.22996400  0.75015000  0.32697300  1
  Li  Li32  1  0.14467100  0.57130400  0.67300300  1
  Li  Li33  1  0.22219700  0.80493900  0.82685600  1
  Li  Li34  1  0.19506100  0.41725700  0.82685600  1
  Li  Li35  1  0.24985000  0.47981300  0.32697300  1
  Mn  Mn0  1  0.33400400  0.00000000  0.50000000  1
  Mn  Mn1  1  0.33333300  0.66666700  0.99991500  1
  Mn  Mn2  1  0.66551800  0.00000000  0.00000000  1
  Mn  Mn3  1  0.33448200  0.33448200  0.00000000  1
  Mn  Mn4  1  0.33063000  0.33063000  0.50000000  1
  Mn  Mn5  1  0.66937000  0.00000000  0.50000000  1
  Mn  Mn6  1  0.66599600  0.66599600  0.50000000  1
  Mn  Mn7  1  0.66666700  0.33333300  0.00008500  1
  Mn  Mn8  1  0.00000000  0.00000000  0.00000000  1
  Mn  Mn9  1  0.00000000  0.66551800  0.00000000  1
  Mn  Mn10  1  0.00000000  0.66937000  0.50000000  1
  Mn  Mn11  1  0.00000000  0.33400400  0.50000000  1
  O  O0  1  0.41154600  0.22180400  0.37915700  1
  O  O1  1  0.47365600  0.25378600  0.88019900  1
  O  O2  1  0.52844700  0.08124400  0.62038000  1
  O  O3  1  0.57940100  0.14075900  0.12014500  1
  O  O4  1  0.44720300  0.91875600  0.37962000  1
  O  O5  1  0.43864100  0.85924100  0.87985500  1
  O  O6  1  0.42059900  0.56135900  0.87985500  1
  O  O7  1  0.52634400  0.78013100  0.11980100  1
  O  O8  1  0.74621400  0.21986900  0.88019900  1
  O  O9  1  0.77819600  0.18974200  0.37915700  1
  O  O10  1  0.58845400  0.81025800  0.62084300  1
  O  O11  1  0.47155300  0.55279700  0.37962000  1
  O  O12  1  0.55279700  0.47155300  0.62038000  1
  O  O13  1  0.74782500  0.86551500  0.37980400  1
  O  O14  1  0.80707200  0.91827200  0.88018200  1
  O  O15  1  0.88231000  0.13448500  0.62019600  1
  O  O16  1  0.56135900  0.42059900  0.12014500  1
  O  O17  1  0.88880000  0.08172800  0.11981800  1
  O  O18  1  0.81025800  0.58845400  0.37915700  1
  O  O19  1  0.11769000  0.25217500  0.37980400  1
  O  O20  1  0.78013100  0.52634400  0.88019900  1
  O  O21  1  0.86551500  0.74782500  0.62019600  1
  O  O22  1  0.91827200  0.80707200  0.11981800  1
  O  O23  1  0.11120000  0.19292800  0.88018200  1
  O  O24  1  0.19292800  0.11120000  0.11981800  1
  O  O25  1  0.08172800  0.88880000  0.88018200  1
  O  O26  1  0.85924100  0.43864100  0.12014500  1
  O  O27  1  0.91875600  0.44720300  0.62038000  1
  O  O28  1  0.13448500  0.88231000  0.37980400  1
  O  O29  1  0.25217500  0.11769000  0.62019600  1
  O  O30  1  0.18974200  0.77819600  0.62084300  1
  O  O31  1  0.21986900  0.74621400  0.11980100  1
  O  O32  1  0.08124400  0.52844700  0.37962000  1
  O  O33  1  0.14075900  0.57940100  0.87985500  1
  O  O34  1  0.22180400  0.41154600  0.62084300  1
  O  O35  1  0.25378600  0.47365600  0.11980100  1
loop_
_geom_bond_atom_site_label_1
_geom_bond_atom_site_label_2
_geom_bond_distance
_geom_bond_site_symmetry_2
Li0 O3 1.947919 1_555
Li0 O24 1.960615 1_555
Li0 O16 1.973629 1_555
Li0 O0 2.038248 1_555
Li1 O12 1.953037 1_555
Li1 O2 1.969456 1_555
Li1 O29 1.974802 1_555
Li1 O1 2.030799 1_555
Li2 O10 1.884464 1_555
Li2 O2 1.955446 1_565
Li2 O5 2.028464 1_555
Li2 O30 2.078158 1_555
Li3 O1 1.940685 1_555
Li3 O8 1.967340 1_555
Li3 O5 1.971537 1_545
Li3 O2 2.058366 1_555
Li4 O31 1.940697 1_555
Li4 O7 1.967325 1_555
Li4 O3 1.971537 1_565
Li4 O4 2.058366 1_555
Li5 O9 1.884464 1_555
Li5 O4 1.955446 1_545
Li5 O3 2.028465 1_555
Li5 O0 2.078158 1_555
Li6 O4 1.953045 1_555
Li6 O11 1.969447 1_555
Li6 O13 1.974801 1_555
Li6 O7 2.030799 1_555
Li7 O26 1.947900 1_555
Li7 O17 1.960623 1_555
Li7 O3 1.973626 1_555
Li7 O9 2.038248 1_555
Li8 O34 1.884464 1_555
Li8 O12 1.955446 1_555
Li8 O6 2.028464 1_555
Li8 O10 2.078158 1_555
Li9 O7 1.940703 1_555
Li9 O35 1.967342 1_555
Li9 O16 1.971537 1_555
Li9 O11 2.058366 1_555
Li10 O6 1.947906 1_555
Li10 O14 1.960616 1_555
Li10 O5 1.973643 1_555
Li10 O10 2.038249 1_555
Li11 O2 1.953038 1_555
Li11 O27 1.969450 1_555
Li11 O15 1.974809 1_555
Li11 O8 2.030799 1_555
Li12 O23 1.939327 1_655
Li12 O8 1.973526 1_555
Li12 O14 1.976546 1_545
Li12 O15 2.055217 1_555
Li13 O20 1.940703 1_555
Li13 O1 1.967342 1_555
Li13 O6 1.971537 1_555
Li13 O12 2.058366 1_555
Li14 O15 1.928108 1_565
Li14 O10 1.955803 1_555
Li14 O21 1.986112 1_555
Li14 O14 2.031476 1_555
Li15 O13 1.928108 1_545
Li15 O9 1.955803 1_555
Li15 O19 1.986111 1_655
Li15 O17 2.031476 1_555
Li16 O0 1.884464 1_555
Li16 O11 1.955446 1_555
Li16 O16 2.028464 1_555
Li16 O18 2.078158 1_555
Li17 O22 1.939327 1_555
Li17 O7 1.973535 1_555
Li17 O17 1.976546 1_565
Li17 O13 2.055217 1_555
Li18 O28 1.928108 1_655
Li18 O18 1.955803 1_555
Li18 O13 1.986112 1_555
Li18 O22 2.031476 1_555
Li19 O17 1.939327 1_455
Li19 O35 1.973533 1_555
Li19 O24 1.976546 1_555
Li19 O19 2.055217 1_555
Li20 O16 1.947906 1_555
Li20 O22 1.960616 1_555
Li20 O26 1.973643 1_555
Li20 O18 2.038249 1_555
Li21 O14 1.939327 1_555
Li21 O20 1.973535 1_555
Li21 O25 1.976546 1_655
Li21 O21 2.055217 1_555
Li22 O29 1.928108 1_555
Li22 O34 1.955803 1_555
Li22 O15 1.986112 1_455
Li22 O23 2.031476 1_555
Li23 O27 1.953045 1_555
Li23 O12 1.969447 1_555
Li23 O21 1.974801 1_555
Li23 O20 2.030799 1_555
Li24 O8 1.940697 1_555
Li24 O20 1.967325 1_555
Li24 O33 1.971537 1_655
Li24 O27 2.058366 1_555
Li25 O21 1.928108 1_455
Li25 O30 1.955803 1_555
Li25 O29 1.986111 1_565
Li25 O25 2.031476 1_555
Li26 O19 1.928108 1_555
Li26 O0 1.955803 1_555
Li26 O28 1.986112 1_545
Li26 O24 2.031476 1_555
Li27 O25 1.939327 1_545
Li27 O1 1.973533 1_555
Li27 O23 1.976546 1_555
Li27 O29 2.055217 1_555
Li28 O18 1.884464 1_555
Li28 O32 1.955446 1_655
Li28 O26 2.028464 1_555
Li28 O9 2.078158 1_555
Li29 O24 1.939327 1_565
Li29 O31 1.973526 1_555
Li29 O22 1.976546 1_455
Li29 O28 2.055217 1_555
Li30 O35 1.940685 1_555
Li30 O31 1.967340 1_555
Li30 O26 1.971537 1_455
Li30 O32 2.058366 1_555
Li31 O32 1.953038 1_555
Li31 O4 1.969450 1_555
Li31 O28 1.974809 1_555
Li31 O31 2.030799 1_555
Li32 O30 1.884464 1_555
Li32 O27 1.955446 1_455
Li32 O33 2.028465 1_555
Li32 O34 2.078158 1_555
Li33 O5 1.947900 1_555
Li33 O25 1.960623 1_555
Li33 O33 1.973626 1_555
Li33 O30 2.038248 1_555
Li34 O33 1.947919 1_555
Li34 O23 1.960615 1_555
Li34 O6 1.973629 1_555
Li34 O34 2.038248 1_555
Li35 O11 1.953037 1_555
Li35 O32 1.969456 1_555
Li35 O19 1.974802 1_555
Li35 O35 2.030799 1_555
Mn0 O2 2.010221 1_555
Mn0 O4 2.010221 1_545
Mn0 O28 2.044956 1_545
Mn0 O29 2.044956 1_555
Mn0 O30 2.218691 1_545
Mn0 O0 2.218691 1_555
Mn1 O5 1.991791 1_555
Mn1 O33 1.991791 1_555
Mn1 O6 1.991791 1_555
Mn1 O7 1.998510 1_556
Mn1 O35 1.998510 1_556
Mn1 O31 1.998510 1_556
Mn2 O8 2.194366 1_554
Mn2 O7 2.194367 1_545
Mn2 O17 2.219106 1_555
Mn2 O14 2.219106 1_544
Mn2 O3 2.242909 1_555
Mn2 O5 2.242916 1_544
Mn3 O35 2.194374 1_555
Mn3 O1 2.194374 1_554
Mn3 O24 2.219106 1_555
Mn3 O23 2.219106 1_554
Mn3 O16 2.242917 1_555
Mn3 O6 2.242917 1_554
Mn4 O34 1.980048 1_555
Mn4 O0 1.980048 1_555
Mn4 O29 2.146962 1_555
Mn4 O19 2.146962 1_555
Mn4 O11 2.214150 1_555
Mn4 O12 2.214150 1_555
Mn5 O9 1.980048 1_555
Mn5 O10 1.980048 1_545
Mn5 O15 2.146962 1_555
Mn5 O13 2.146962 1_545
Mn5 O4 2.214150 1_545
Mn5 O2 2.214150 1_555
Mn6 O11 2.010221 1_555
Mn6 O12 2.010221 1_555
Mn6 O21 2.044956 1_555
Mn6 O13 2.044956 1_555
Mn6 O10 2.218691 1_555
Mn6 O18 2.218691 1_555
Mn7 O26 1.991791 1_555
Mn7 O3 1.991791 1_555
Mn7 O16 1.991791 1_555
Mn7 O20 1.998510 1_554
Mn7 O1 1.998510 1_554
Mn7 O8 1.998510 1_554
Mn8 O24 1.995927 1_555
Mn8 O23 1.995927 1_554
Mn8 O22 1.995927 1_445
Mn8 O14 1.995927 1_444
Mn8 O17 1.995927 1_455
Mn8 O25 1.995927 1_544
Mn9 O31 2.194366 1_555
Mn9 O20 2.194367 1_454
Mn9 O25 2.219106 1_554
Mn9 O22 2.219106 1_455
Mn9 O33 2.242909 1_554
Mn9 O26 2.242916 1_455
Mn10 O30 1.980048 1_555
Mn10 O18 1.980048 1_455
Mn10 O28 2.146962 1_555
Mn10 O21 2.146962 1_455
Mn10 O27 2.214150 1_455
Mn10 O32 2.214150 1_555
Mn11 O32 2.010221 1_555
Mn11 O27 2.010221 1_455
Mn11 O15 2.044956 1_455
Mn11 O19 2.044956 1_555
Mn11 O9 2.218691 1_455
Mn11 O34 2.218691 1_555
