# generated using pymatgen
data_LiFeSi3O8
_symmetry_space_group_name_H-M   'P 1'
_cell_length_a   8.50190100
_cell_length_b   8.67025900
_cell_length_c   9.25977600
_cell_angle_alpha   90.00000000
_cell_angle_beta   90.00000000
_cell_angle_gamma   90.00000000
_symmetry_Int_Tables_number   1
_chemical_formula_structural   LiFeSi3O8
_chemical_formula_sum   'Li4 Fe4 Si12 O32'
_cell_volume   682.57219885
_cell_formula_units_Z   4
loop_
 _symmetry_equiv_pos_site_id
 _symmetry_equiv_pos_as_xyz
  1  'x, y, z'
loop_
 _atom_site_type_symbol
 _atom_site_label
 _atom_site_symmetry_multiplicity
 _atom_site_fract_x
 _atom_site_fract_y
 _atom_site_fract_z
 _atom_site_occupancy
  Li  Li0  1  0.54370200  0.66271600  0.11519100  1
  Li  Li1  1  0.95629800  0.33728400  0.61519100  1
  Li  Li2  1  0.45629800  0.16271600  0.38480900  1
  Li  Li3  1  0.04370200  0.83728400  0.88480900  1
  Fe  Fe0  1  0.68654100  0.71831900  0.73415600  1
  Fe  Fe1  1  0.81345900  0.28168100  0.23415600  1
  Fe  Fe2  1  0.31345900  0.21831900  0.76584400  1
  Fe  Fe3  1  0.18654100  0.78168100  0.26584400  1
  Si  Si0  1  0.31110500  0.70686600  0.67284500  1
  Si  Si1  1  0.69607700  0.49534600  0.46274900  1
  Si  Si2  1  0.34858600  0.50109300  0.39834500  1
  Si  Si3  1  0.15141400  0.49890700  0.89834500  1
  Si  Si4  1  0.80392300  0.50465400  0.96274900  1
  Si  Si5  1  0.18889500  0.29313400  0.17284500  1
  Si  Si6  1  0.68889500  0.20686600  0.82715500  1
  Si  Si7  1  0.65141400  0.00109300  0.10165500  1
  Si  Si8  1  0.30392300  0.99534600  0.03725100  1
  Si  Si9  1  0.19607700  0.00465400  0.53725100  1
  Si  Si10  1  0.84858600  0.99890700  0.60165500  1
  Si  Si11  1  0.81110500  0.79313400  0.32715500  1
  O  O0  1  0.48786500  0.77446300  0.67028200  1
  O  O1  1  0.68836600  0.65156200  0.36068100  1
  O  O2  1  0.35803200  0.63634900  0.27622900  1
  O  O3  1  0.67385400  0.63666400  0.92294000  1
  O  O4  1  0.26156500  0.64056200  0.83468000  1
  O  O5  1  0.74114100  0.54318900  0.62651000  1
  O  O6  1  0.28001800  0.56921100  0.55184800  1
  O  O7  1  0.98081700  0.58371500  0.93442700  1
  O  O8  1  0.51918300  0.41628500  0.43442700  1
  O  O9  1  0.21998200  0.43078900  0.05184800  1
  O  O10  1  0.75885900  0.45681100  0.12651000  1
  O  O11  1  0.23843500  0.35943800  0.33468000  1
  O  O12  1  0.82614600  0.36333600  0.42294000  1
  O  O13  1  0.14196800  0.36365100  0.77622900  1
  O  O14  1  0.81163400  0.34843800  0.86068100  1
  O  O15  1  0.01213500  0.22553700  0.17028200  1
  O  O16  1  0.51213500  0.27446300  0.82971800  1
  O  O17  1  0.64196800  0.13634900  0.22377100  1
  O  O18  1  0.31163400  0.15156200  0.13931900  1
  O  O19  1  0.73843500  0.14056200  0.66532000  1
  O  O20  1  0.32614600  0.13666400  0.57706000  1
  O  O21  1  0.71998200  0.06921100  0.94815200  1
  O  O22  1  0.25885900  0.04318900  0.87349000  1
  O  O23  1  0.01918300  0.08371500  0.56557300  1
  O  O24  1  0.48081700  0.91628500  0.06557300  1
  O  O25  1  0.24114100  0.95681100  0.37349000  1
  O  O26  1  0.78001800  0.93078900  0.44815200  1
  O  O27  1  0.17385400  0.86333600  0.07706000  1
  O  O28  1  0.76156500  0.85943800  0.16532000  1
  O  O29  1  0.85803200  0.86365100  0.72377100  1
  O  O30  1  0.18836600  0.84843800  0.63931900  1
  O  O31  1  0.98786500  0.72553700  0.32971800  1
loop_
_geom_bond_atom_site_label_1
_geom_bond_atom_site_label_2
_geom_bond_distance
_geom_bond_site_symmetry_2
Li0 O3 2.108214 1_554
Li0 O2 2.183502 1_555
Li0 O24 2.308761 1_555
Li0 O10 2.558170 1_555
Li0 O28 2.560365 1_555
Li0 O1 2.586390 1_555
Li1 O12 2.108214 1_555
Li1 O13 2.183502 1_655
Li1 O23 2.308761 1_655
Li1 O5 2.558170 1_555
Li1 O19 2.560365 1_555
Li1 O14 2.586390 1_555
Li2 O20 2.108214 1_555
Li2 O17 2.183502 1_555
Li2 O8 2.308761 1_555
Li2 O25 2.558170 1_545
Li2 O11 2.560365 1_555
Li2 O18 2.586390 1_555
Li3 O27 2.108214 1_556
Li3 O29 2.183502 1_455
Li3 O7 2.308761 1_455
Li3 O22 2.558170 1_565
Li3 O4 2.560365 1_555
Li3 O30 2.586390 1_555
Fe0 O0 1.854702 1_555
Fe0 O5 1.874742 1_555
Fe0 O3 1.889101 1_555
Fe0 O29 1.929450 1_555
Fe1 O15 1.854702 1_655
Fe1 O10 1.874742 1_555
Fe1 O12 1.889101 1_555
Fe1 O17 1.929450 1_555
Fe2 O16 1.854702 1_555
Fe2 O22 1.874742 1_555
Fe2 O20 1.889101 1_555
Fe2 O13 1.929450 1_555
Fe3 O31 1.854702 1_455
Fe3 O25 1.874742 1_555
Fe3 O27 1.889101 1_555
Fe3 O2 1.929450 1_555
O0 Si0 1.613212 1_555
O1 Si11 1.640723 1_555
O1 Si1 1.652892 1_555
O2 Si2 1.631048 1_555
O3 Si4 1.633637 1_555
O4 Si3 1.653178 1_555
O4 Si0 1.659381 1_555
O5 Si1 1.618115 1_555
O6 Si2 1.645915 1_555
O6 Si0 1.658196 1_555
O7 Si3 1.660110 1_655
O7 Si4 1.673464 1_555
O8 Si2 1.660110 1_555
O8 Si1 1.673464 1_555
O9 Si3 1.645915 1_554
O9 Si5 1.658196 1_555
O10 Si4 1.618115 1_554
O11 Si2 1.653178 1_555
O11 Si5 1.659381 1_555
O12 Si1 1.633637 1_555
O13 Si3 1.631048 1_555
O14 Si6 1.640723 1_555
O14 Si4 1.652892 1_555
O15 Si5 1.613212 1_555
O16 Si6 1.613212 1_555
O17 Si7 1.631048 1_555
O18 Si5 1.640723 1_555
O18 Si8 1.652892 1_545
O19 Si10 1.653178 1_545
O19 Si6 1.659381 1_555
O20 Si9 1.633637 1_555
O21 Si7 1.645915 1_556
O21 Si6 1.658196 1_555
O22 Si8 1.618115 1_546
O23 Si10 1.660110 1_445
O23 Si9 1.673464 1_555
O24 Si7 1.660110 1_565
O24 Si8 1.673464 1_555
O25 Si9 1.618115 1_565
O26 Si10 1.645915 1_555
O26 Si11 1.658196 1_555
O27 Si8 1.633637 1_555
O28 Si7 1.653178 1_565
O28 Si11 1.659381 1_555
O29 Si10 1.631048 1_555
O30 Si0 1.640723 1_555
O30 Si9 1.652892 1_565
O31 Si11 1.613212 1_555
