# generated using pymatgen
data_CsH24Ru(SO10)2
_symmetry_space_group_name_H-M   'P 1'
_cell_length_a   12.47467300
_cell_length_b   12.47467300
_cell_length_c   12.47467300
_cell_angle_alpha   90.00000000
_cell_angle_beta   90.00000000
_cell_angle_gamma   90.00000000
_symmetry_Int_Tables_number   1
_chemical_formula_structural   CsH24Ru(SO10)2
_chemical_formula_sum   'Cs4 H96 Ru4 S8 O80'
_cell_volume   1941.27700714
_cell_formula_units_Z   4
loop_
 _symmetry_equiv_pos_site_id
 _symmetry_equiv_pos_as_xyz
  1  'x, y, z'
loop_
 _atom_site_type_symbol
 _atom_site_label
 _atom_site_symmetry_multiplicity
 _atom_site_fract_x
 _atom_site_fract_y
 _atom_site_fract_z
 _atom_site_occupancy
  Cs  Cs0  1  0.00000000  0.00000000  0.50000000  1
  Cs  Cs1  1  0.00000000  0.50000000  0.00000000  1
  Cs  Cs2  1  0.50000000  0.00000000  0.00000000  1
  Cs  Cs3  1  0.50000000  0.50000000  0.50000000  1
  H  H0  1  0.21919500  0.50838800  0.22945900  1
  H  H1  1  0.78080500  0.00838800  0.27054100  1
  H  H2  1  0.28080500  0.49161200  0.72945900  1
  H  H3  1  0.71919500  0.99161200  0.77054100  1
  H  H4  1  0.22945900  0.21919500  0.50838800  1
  H  H5  1  0.27054100  0.78080500  0.00838800  1
  H  H6  1  0.72945900  0.28080500  0.49161200  1
  H  H7  1  0.77054100  0.71919500  0.99161200  1
  H  H8  1  0.50838800  0.22945900  0.21919500  1
  H  H9  1  0.00838800  0.27054100  0.78080500  1
  H  H10  1  0.49161200  0.72945900  0.28080500  1
  H  H11  1  0.99161200  0.77054100  0.71919500  1
  H  H12  1  0.78080500  0.49161200  0.77054100  1
  H  H13  1  0.21919500  0.99161200  0.72945900  1
  H  H14  1  0.71919500  0.50838800  0.27054100  1
  H  H15  1  0.28080500  0.00838800  0.22945900  1
  H  H16  1  0.77054100  0.78080500  0.49161200  1
  H  H17  1  0.72945900  0.21919500  0.99161200  1
  H  H18  1  0.27054100  0.71919500  0.50838800  1
  H  H19  1  0.22945900  0.28080500  0.00838800  1
  H  H20  1  0.49161200  0.77054100  0.78080500  1
  H  H21  1  0.99161200  0.72945900  0.21919500  1
  H  H22  1  0.50838800  0.27054100  0.71919500  1
  H  H23  1  0.00838800  0.22945900  0.28080500  1
  H  H24  1  0.18179200  0.62758500  0.22055500  1
  H  H25  1  0.81820800  0.12758500  0.27944500  1
  H  H26  1  0.31820800  0.37241500  0.72055500  1
  H  H27  1  0.68179200  0.87241500  0.77944500  1
  H  H28  1  0.22055500  0.18179200  0.62758500  1
  H  H29  1  0.27944500  0.81820800  0.12758500  1
  H  H30  1  0.72055500  0.31820800  0.37241500  1
  H  H31  1  0.77944500  0.68179200  0.87241500  1
  H  H32  1  0.62758500  0.22055500  0.18179200  1
  H  H33  1  0.12758500  0.27944500  0.81820800  1
  H  H34  1  0.37241500  0.72055500  0.31820800  1
  H  H35  1  0.87241500  0.77944500  0.68179200  1
  H  H36  1  0.81820800  0.37241500  0.77944500  1
  H  H37  1  0.18179200  0.87241500  0.72055500  1
  H  H38  1  0.68179200  0.62758500  0.27944500  1
  H  H39  1  0.31820800  0.12758500  0.22055500  1
  H  H40  1  0.77944500  0.81820800  0.37241500  1
  H  H41  1  0.72055500  0.18179200  0.87241500  1
  H  H42  1  0.27944500  0.68179200  0.62758500  1
  H  H43  1  0.22055500  0.31820800  0.12758500  1
  H  H44  1  0.37241500  0.77944500  0.81820800  1
  H  H45  1  0.87241500  0.72055500  0.18179200  1
  H  H46  1  0.62758500  0.27944500  0.68179200  1
  H  H47  1  0.12758500  0.22055500  0.31820800  1
  H  H48  1  0.47650500  0.71000600  0.93730400  1
  H  H49  1  0.52349500  0.21000600  0.56269600  1
  H  H50  1  0.02349500  0.28999400  0.43730400  1
  H  H51  1  0.97650500  0.78999400  0.06269600  1
  H  H52  1  0.93730400  0.47650500  0.71000600  1
  H  H53  1  0.56269600  0.52349500  0.21000600  1
  H  H54  1  0.43730400  0.02349500  0.28999400  1
  H  H55  1  0.06269600  0.97650500  0.78999400  1
  H  H56  1  0.71000600  0.93730400  0.47650500  1
  H  H57  1  0.21000600  0.56269600  0.52349500  1
  H  H58  1  0.28999400  0.43730400  0.02349500  1
  H  H59  1  0.78999400  0.06269600  0.97650500  1
  H  H60  1  0.52349500  0.28999400  0.06269600  1
  H  H61  1  0.47650500  0.78999400  0.43730400  1
  H  H62  1  0.97650500  0.71000600  0.56269600  1
  H  H63  1  0.02349500  0.21000600  0.93730400  1
  H  H64  1  0.06269600  0.52349500  0.28999400  1
  H  H65  1  0.43730400  0.47650500  0.78999400  1
  H  H66  1  0.56269600  0.97650500  0.71000600  1
  H  H67  1  0.93730400  0.02349500  0.21000600  1
  H  H68  1  0.28999400  0.06269600  0.52349500  1
  H  H69  1  0.78999400  0.43730400  0.47650500  1
  H  H70  1  0.71000600  0.56269600  0.97650500  1
  H  H71  1  0.21000600  0.93730400  0.02349500  1
  H  H72  1  0.52775100  0.70586500  0.06280500  1
  H  H73  1  0.47224900  0.20586500  0.43719500  1
  H  H74  1  0.97224900  0.29413500  0.56280500  1
  H  H75  1  0.02775100  0.79413500  0.93719500  1
  H  H76  1  0.06280500  0.52775100  0.70586500  1
  H  H77  1  0.43719500  0.47224900  0.20586500  1
  H  H78  1  0.56280500  0.97224900  0.29413500  1
  H  H79  1  0.93719500  0.02775100  0.79413500  1
  H  H80  1  0.70586500  0.06280500  0.52775100  1
  H  H81  1  0.20586500  0.43719500  0.47224900  1
  H  H82  1  0.29413500  0.56280500  0.97224900  1
  H  H83  1  0.79413500  0.93719500  0.02775100  1
  H  H84  1  0.47224900  0.29413500  0.93719500  1
  H  H85  1  0.52775100  0.79413500  0.56280500  1
  H  H86  1  0.02775100  0.70586500  0.43719500  1
  H  H87  1  0.97224900  0.20586500  0.06280500  1
  H  H88  1  0.93719500  0.47224900  0.29413500  1
  H  H89  1  0.56280500  0.52775100  0.79413500  1
  H  H90  1  0.43719500  0.02775100  0.70586500  1
  H  H91  1  0.06280500  0.97224900  0.20586500  1
  H  H92  1  0.29413500  0.93719500  0.47224900  1
  H  H93  1  0.79413500  0.56280500  0.52775100  1
  H  H94  1  0.70586500  0.43719500  0.02775100  1
  H  H95  1  0.20586500  0.06280500  0.97224900  1
  Ru  Ru0  1  0.50000000  0.50000000  0.00000000  1
  Ru  Ru1  1  0.50000000  0.00000000  0.50000000  1
  Ru  Ru2  1  0.00000000  0.50000000  0.50000000  1
  Ru  Ru3  1  0.00000000  0.00000000  0.00000000  1
  S  S0  1  0.17379400  0.82620600  0.32620600  1
  S  S1  1  0.82620600  0.32620600  0.17379400  1
  S  S2  1  0.32620600  0.17379400  0.82620600  1
  S  S3  1  0.67379400  0.67379400  0.67379400  1
  S  S4  1  0.82620600  0.17379400  0.67379400  1
  S  S5  1  0.17379400  0.67379400  0.82620600  1
  S  S6  1  0.67379400  0.82620600  0.17379400  1
  S  S7  1  0.32620600  0.32620600  0.32620600  1
  O  O0  1  0.24335300  0.75664700  0.25664700  1
  O  O1  1  0.75664700  0.25664700  0.24335300  1
  O  O2  1  0.25664700  0.24335300  0.75664700  1
  O  O3  1  0.74335300  0.74335300  0.74335300  1
  O  O4  1  0.75664700  0.24335300  0.74335300  1
  O  O5  1  0.24335300  0.74335300  0.75664700  1
  O  O6  1  0.74335300  0.75664700  0.24335300  1
  O  O7  1  0.25664700  0.25664700  0.25664700  1
  O  O8  1  0.06411100  0.77887500  0.33380100  1
  O  O9  1  0.93588900  0.27887500  0.16619900  1
  O  O10  1  0.43588900  0.22112500  0.83380100  1
  O  O11  1  0.56411100  0.72112500  0.66619900  1
  O  O12  1  0.33380100  0.06411100  0.77887500  1
  O  O13  1  0.16619900  0.93588900  0.27887500  1
  O  O14  1  0.83380100  0.43588900  0.22112500  1
  O  O15  1  0.66619900  0.56411100  0.72112500  1
  O  O16  1  0.77887500  0.33380100  0.06411100  1
  O  O17  1  0.27887500  0.16619900  0.93588900  1
  O  O18  1  0.22112500  0.83380100  0.43588900  1
  O  O19  1  0.72112500  0.66619900  0.56411100  1
  O  O20  1  0.93588900  0.22112500  0.66619900  1
  O  O21  1  0.06411100  0.72112500  0.83380100  1
  O  O22  1  0.56411100  0.77887500  0.16619900  1
  O  O23  1  0.43588900  0.27887500  0.33380100  1
  O  O24  1  0.66619900  0.93588900  0.22112500  1
  O  O25  1  0.83380100  0.06411100  0.72112500  1
  O  O26  1  0.16619900  0.56411100  0.77887500  1
  O  O27  1  0.33380100  0.43588900  0.27887500  1
  O  O28  1  0.22112500  0.66619900  0.93588900  1
  O  O29  1  0.72112500  0.83380100  0.06411100  1
  O  O30  1  0.77887500  0.16619900  0.56411100  1
  O  O31  1  0.27887500  0.33380100  0.43588900  1
  O  O32  1  0.15659800  0.55326800  0.20927700  1
  O  O33  1  0.84340200  0.05326800  0.29072300  1
  O  O34  1  0.34340200  0.44673200  0.70927700  1
  O  O35  1  0.65659800  0.94673200  0.79072300  1
  O  O36  1  0.20927700  0.15659800  0.55326800  1
  O  O37  1  0.29072300  0.84340200  0.05326800  1
  O  O38  1  0.70927700  0.34340200  0.44673200  1
  O  O39  1  0.79072300  0.65659800  0.94673200  1
  O  O40  1  0.55326800  0.20927700  0.15659800  1
  O  O41  1  0.05326800  0.29072300  0.84340200  1
  O  O42  1  0.44673200  0.70927700  0.34340200  1
  O  O43  1  0.94673200  0.79072300  0.65659800  1
  O  O44  1  0.84340200  0.44673200  0.79072300  1
  O  O45  1  0.15659800  0.94673200  0.70927700  1
  O  O46  1  0.65659800  0.55326800  0.29072300  1
  O  O47  1  0.34340200  0.05326800  0.20927700  1
  O  O48  1  0.79072300  0.84340200  0.44673200  1
  O  O49  1  0.70927700  0.15659800  0.94673200  1
  O  O50  1  0.29072300  0.65659800  0.55326800  1
  O  O51  1  0.20927700  0.34340200  0.05326800  1
  O  O52  1  0.44673200  0.79072300  0.84340200  1
  O  O53  1  0.94673200  0.70927700  0.15659800  1
  O  O54  1  0.55326800  0.29072300  0.65659800  1
  O  O55  1  0.05326800  0.20927700  0.34340200  1
  O  O56  1  0.50212700  0.66359400  0.99958700  1
  O  O57  1  0.49787300  0.16359400  0.50041300  1
  O  O58  1  0.99787300  0.33640600  0.49958700  1
  O  O59  1  0.00212700  0.83640600  0.00041300  1
  O  O60  1  0.99958700  0.50212700  0.66359400  1
  O  O61  1  0.50041300  0.49787300  0.16359400  1
  O  O62  1  0.49958700  0.99787300  0.33640600  1
  O  O63  1  0.00041300  0.00212700  0.83640600  1
  O  O64  1  0.66359400  0.99958700  0.50212700  1
  O  O65  1  0.16359400  0.50041300  0.49787300  1
  O  O66  1  0.33640600  0.49958700  0.99787300  1
  O  O67  1  0.83640600  0.00041300  0.00212700  1
  O  O68  1  0.49787300  0.33640600  0.00041300  1
  O  O69  1  0.50212700  0.83640600  0.49958700  1
  O  O70  1  0.00212700  0.66359400  0.50041300  1
  O  O71  1  0.99787300  0.16359400  0.99958700  1
  O  O72  1  0.00041300  0.49787300  0.33640600  1
  O  O73  1  0.49958700  0.50212700  0.83640600  1
  O  O74  1  0.50041300  0.00212700  0.66359400  1
  O  O75  1  0.99958700  0.99787300  0.16359400  1
  O  O76  1  0.33640600  0.00041300  0.49787300  1
  O  O77  1  0.83640600  0.49958700  0.50212700  1
  O  O78  1  0.66359400  0.50041300  0.00212700  1
  O  O79  1  0.16359400  0.99958700  0.99787300  1
loop_
_geom_bond_atom_site_label_1
_geom_bond_atom_site_label_2
_geom_bond_distance
_geom_bond_site_symmetry_2
Cs0 O36 3.327659 1_555
Cs0 O55 3.327659 1_555
Cs0 O45 3.327659 1_545
Cs0 O33 3.327659 1_455
Cs0 O48 3.327659 1_445
Cs0 O43 3.327659 1_445
Cs0 O18 3.542205 1_545
Cs0 O20 3.542205 1_455
Cs0 O8 3.542205 1_545
Cs0 O25 3.542205 1_455
Cs0 O30 3.542205 1_455
Cs0 O13 3.542205 1_545
Cs1 O51 3.327659 1_555
Cs1 O39 3.327659 1_454
Cs1 O41 3.327659 1_554
Cs1 O53 3.327659 1_455
Cs1 O32 3.327659 1_555
Cs1 O44 3.327659 1_454
Cs1 O14 3.542205 1_455
Cs1 O28 3.542205 1_554
Cs1 O16 3.542205 1_455
Cs1 O21 3.542205 1_554
Cs1 O26 3.542205 1_554
Cs1 O9 3.542205 1_455
Cs2 O40 3.327659 1_555
Cs2 O37 3.327659 1_545
Cs2 O49 3.327659 1_554
Cs2 O47 3.327659 1_555
Cs2 O35 3.327659 1_544
Cs2 O52 3.327659 1_544
Cs2 O10 3.542205 1_554
Cs2 O24 3.542205 1_545
Cs2 O12 3.542205 1_554
Cs2 O29 3.542205 1_545
Cs2 O22 3.542205 1_545
Cs2 O17 3.542205 1_554
Cs3 O54 3.327659 1_555
Cs3 O46 3.327659 1_555
Cs3 O50 3.327659 1_555
Cs3 O38 3.327659 1_555
Cs3 O34 3.327659 1_555
Cs3 O42 3.327659 1_555
Cs3 O23 3.542205 1_555
Cs3 O31 3.542205 1_555
Cs3 O27 3.542205 1_555
Cs3 O15 3.542205 1_555
Cs3 O11 3.542205 1_555
Cs3 O19 3.542205 1_555
H0 O32 0.993278 1_555
H1 O33 0.993278 1_555
H2 O34 0.993278 1_555
H3 O35 0.993278 1_555
H4 O36 0.993278 1_555
H5 O37 0.993278 1_555
H6 O38 0.993278 1_555
H7 O39 0.993278 1_555
H8 O40 0.993278 1_555
H9 O41 0.993278 1_555
H10 O42 0.993278 1_555
H11 O43 0.993278 1_555
H12 O44 0.993278 1_555
H13 O45 0.993278 1_555
H14 O46 0.993278 1_555
H15 O47 0.993278 1_555
H16 O48 0.993278 1_555
H17 O49 0.993278 1_555
H18 O50 0.993278 1_555
H19 O51 0.993278 1_555
H20 O52 0.993278 1_555
H21 O53 0.993278 1_555
H22 O54 0.993278 1_555
H23 O55 0.993278 1_555
H24 O32 0.988963 1_555
H25 O33 0.988963 1_555
H26 O34 0.988963 1_555
H27 O35 0.988963 1_555
H28 O36 0.988963 1_555
H29 O37 0.988963 1_555
H30 O38 0.988963 1_555
H31 O39 0.988963 1_555
H32 O40 0.988963 1_555
H33 O41 0.988963 1_555
H34 O42 0.988963 1_555
H35 O43 0.988963 1_555
H36 O44 0.988963 1_555
H37 O45 0.988963 1_555
H38 O46 0.988963 1_555
H39 O47 0.988963 1_555
H40 O48 0.988963 1_555
H41 O49 0.988963 1_555
H42 O50 0.988963 1_555
H43 O51 0.988963 1_555
H44 O52 0.988963 1_555
H45 O53 0.988963 1_555
H46 O54 0.988963 1_555
H47 O55 0.988963 1_555
H48 O56 1.020313 1_555
H48 O52 1.588710 1_555
H49 O57 1.020313 1_555
H49 O54 1.588710 1_555
H50 O58 1.020313 1_455
H50 O55 1.588710 1_555
H51 O59 1.020313 1_655
H51 O53 1.588710 1_555
H52 O60 1.020313 1_555
H52 O44 1.588710 1_555
H53 O61 1.020313 1_555
H53 O46 1.588710 1_555
H54 O62 1.020313 1_545
H54 O47 1.588710 1_555
H55 O63 1.020313 1_565
H55 O45 1.588710 1_555
H56 O64 1.020313 1_555
H56 O48 1.588710 1_555
H57 O65 1.020313 1_555
H57 O50 1.588710 1_555
H58 O66 1.020313 1_554
H58 O51 1.588710 1_555
H59 O67 1.020313 1_556
H59 O49 1.588710 1_555
H60 O68 1.020313 1_555
H60 O40 1.588710 1_555
H61 O69 1.020313 1_555
H61 O42 1.588710 1_555
H62 O70 1.020313 1_655
H62 O43 1.588710 1_555
H63 O71 1.020313 1_455
H63 O41 1.588710 1_555
H64 O72 1.020313 1_555
H64 O32 1.588710 1_555
H65 O73 1.020313 1_555
H65 O34 1.588710 1_555
H66 O74 1.020313 1_565
H66 O35 1.588710 1_555
H67 O75 1.020313 1_545
H67 O33 1.588710 1_555
H68 O76 1.020313 1_555
H68 O36 1.588710 1_555
H69 O77 1.020313 1_555
H69 O38 1.588710 1_555
H70 O78 1.020313 1_556
H70 O39 1.588710 1_555
H71 O79 1.020313 1_554
H71 O37 1.588710 1_555
H72 O56 1.001083 1_554
H72 O22 1.642817 1_555
H73 O57 1.001083 1_555
H73 O23 1.642817 1_555
H74 O58 1.001083 1_555
H74 O20 1.642817 1_555
H75 O59 1.001083 1_556
H75 O21 1.642817 1_555
H76 O60 1.001083 1_455
H76 O26 1.642817 1_555
H77 O61 1.001083 1_555
H77 O27 1.642817 1_555
H78 O62 1.001083 1_555
H78 O24 1.642817 1_555
H79 O63 1.001083 1_655
H79 O25 1.642817 1_555
H80 O64 1.001083 1_545
H80 O30 1.642817 1_555
H81 O65 1.001083 1_555
H81 O31 1.642817 1_555
H82 O66 1.001083 1_555
H82 O28 1.642817 1_555
H83 O67 1.001083 1_565
H83 O29 1.642817 1_555
H84 O68 1.001083 1_556
H84 O10 1.642817 1_555
H85 O69 1.001083 1_555
H85 O11 1.642817 1_555
H86 O70 1.001083 1_555
H86 O8 1.642817 1_555
H87 O71 1.001083 1_554
H87 O9 1.642817 1_555
H88 O72 1.001083 1_655
H88 O14 1.642817 1_555
H89 O73 1.001083 1_555
H89 O15 1.642817 1_555
H90 O74 1.001083 1_555
H90 O12 1.642817 1_555
H91 O75 1.001083 1_455
H91 O13 1.642817 1_555
H92 O76 1.001083 1_565
H92 O18 1.642817 1_555
H93 O77 1.001083 1_555
H93 O19 1.642817 1_555
H94 O78 1.001083 1_555
H94 O16 1.642817 1_555
H95 O79 1.001083 1_545
H95 O17 1.642817 1_555
O0 S0 1.502945 1_555
O1 S1 1.502945 1_555
O2 S2 1.502945 1_555
O3 S3 1.502945 1_555
O4 S4 1.502945 1_555
O5 S5 1.502945 1_555
O6 S6 1.502945 1_555
O7 S7 1.502945 1_555
O8 S0 1.493228 1_555
O9 S1 1.493228 1_555
O10 S2 1.493228 1_555
O11 S3 1.493228 1_555
O12 S2 1.493228 1_555
O13 S0 1.493228 1_555
O14 S1 1.493228 1_555
O15 S3 1.493228 1_555
O16 S1 1.493228 1_555
O17 S2 1.493228 1_555
O18 S0 1.493228 1_555
O19 S3 1.493228 1_555
O20 S4 1.493228 1_555
O21 S5 1.493228 1_555
O22 S6 1.493228 1_555
O23 S7 1.493228 1_555
O24 S6 1.493228 1_555
O25 S4 1.493228 1_555
O26 S5 1.493228 1_555
O27 S7 1.493228 1_555
O28 S5 1.493228 1_555
O29 S6 1.493228 1_555
O30 S4 1.493228 1_555
O31 S7 1.493228 1_555
O56 Ru0 2.040961 1_556
O57 Ru1 2.040961 1_555
O58 Ru2 2.040961 1_655
O59 Ru3 2.040961 1_565
O60 Ru2 2.040961 1_655
O61 Ru0 2.040961 1_555
O62 Ru1 2.040961 1_565
O63 Ru3 2.040961 1_556
O64 Ru1 2.040961 1_565
O65 Ru2 2.040961 1_555
O66 Ru0 2.040961 1_556
O67 Ru3 2.040961 1_655
O68 Ru0 2.040961 1_555
O69 Ru1 2.040961 1_565
O70 Ru2 2.040961 1_555
O71 Ru3 2.040961 1_656
O72 Ru2 2.040961 1_555
O73 Ru0 2.040961 1_556
O74 Ru1 2.040961 1_555
O75 Ru3 2.040961 1_665
O76 Ru1 2.040961 1_555
O77 Ru2 2.040961 1_655
O78 Ru0 2.040961 1_555
O79 Ru3 2.040961 1_566
