# generated using pymatgen
data_LiMn2OF3
_symmetry_space_group_name_H-M   'P 1'
_cell_length_a   8.43421683
_cell_length_b   8.43421683
_cell_length_c   8.43421683
_cell_angle_alpha   136.93557811
_cell_angle_beta   115.87701383
_cell_angle_gamma   80.38497624
_symmetry_Int_Tables_number   1
_chemical_formula_structural   LiMn2OF3
_chemical_formula_sum   'Li4 Mn8 O4 F12'
_cell_volume   357.16531535
_cell_formula_units_Z   4
loop_
 _symmetry_equiv_pos_site_id
 _symmetry_equiv_pos_as_xyz
  1  'x, y, z'
loop_
 _atom_site_type_symbol
 _atom_site_label
 _atom_site_symmetry_multiplicity
 _atom_site_fract_x
 _atom_site_fract_y
 _atom_site_fract_z
 _atom_site_occupancy
  Li  Li0  1  0.00661600  0.36163700  0.64497900  1
  Li  Li1  1  0.28334200  0.63836300  0.64497900  1
  Li  Li2  1  0.23550600  0.87058500  0.36492100  1
  Li  Li3  1  0.49433600  0.12941500  0.36492100  1
  Mn  Mn0  1  0.23448200  0.24934700  0.98513500  1
  Mn  Mn1  1  0.63072500  0.63978000  0.50676600  1
  Mn  Mn2  1  0.86698600  0.36022000  0.99094400  1
  Mn  Mn3  1  0.46984700  0.50000000  0.96984700  1
  Mn  Mn4  1  0.73578800  0.75065300  0.98513500  1
  Mn  Mn5  1  0.03303700  0.00000000  0.03303700  1
  Mn  Mn6  1  0.63072500  0.12395800  0.99094400  1
  Mn  Mn7  1  0.86698600  0.87604200  0.50676600  1
  O  O0  1  0.99016800  0.22953200  0.76063600  1
  O  O1  1  0.53110400  0.77046800  0.76063600  1
  O  O2  1  0.79286700  0.00000000  0.79286700  1
  O  O3  1  0.71154700  0.50000000  0.21154700  1
  F  F0  1  0.13703700  0.37090900  0.25537200  1
  F  F1  1  0.24255600  0.50000000  0.74255600  1
  F  F2  1  0.88446400  0.62909100  0.76612800  1
  F  F3  1  0.61889600  0.38311600  0.75063300  1
  F  F4  1  0.13703700  0.88166500  0.76612800  1
  F  F5  1  0.97330600  0.74101100  0.23229500  1
  F  F6  1  0.36751700  0.61688400  0.23578100  1
  F  F7  1  0.61889600  0.86826400  0.23578100  1
  F  F8  1  0.88446400  0.11833500  0.25537200  1
  F  F9  1  0.26250100  0.00000000  0.26250100  1
  F  F10  1  0.49128500  0.25898900  0.23229500  1
  F  F11  1  0.36751700  0.13173600  0.75063300  1
loop_
_geom_bond_atom_site_label_1
_geom_bond_atom_site_label_2
_geom_bond_distance
_geom_bond_site_symmetry_2
Li0 O0 1.992515 1_455
Li1 O1 1.992515 1_555
Mn0 O0 2.026372 1_455
Mn1 O1 2.078002 1_555
Mn1 O2 2.172261 1_565
Mn1 O3 2.231194 1_555
Mn2 O0 2.077996 1_555
Mn2 O2 2.172265 1_555
Mn2 O3 2.231199 1_556
Mn3 O3 2.164244 1_556
Mn4 O1 2.026372 1_555
Mn5 O2 2.150544 1_454
Mn6 O1 2.077998 1_545
Mn6 O2 2.172257 1_555
Mn6 O3 2.231198 1_556
Mn7 O0 2.077996 1_565
Mn7 O2 2.172265 1_565
Mn7 O3 2.231199 1_555
F0 Li1 1.992142 1_555
F0 Mn0 2.204693 1_554
F0 Mn5 2.231925 1_555
F0 Mn2 2.347481 1_454
F1 Li0 1.985456 1_555
F1 Li1 1.985456 1_555
F1 Mn3 2.035222 1_555
F2 Li0 1.992138 1_655
F2 Mn4 2.204701 1_555
F2 Mn5 2.231922 1_666
F2 Mn1 2.347481 1_555
F3 Li3 1.965169 1_555
F3 Mn4 2.203048 1_555
F3 Mn3 2.218595 1_555
F3 Mn2 2.293180 1_555
F4 Li1 1.992142 1_555
F4 Mn0 2.204693 1_565
F4 Mn5 2.231925 1_566
F4 Mn7 2.347481 1_455
F5 Li2 2.048891 1_655
F5 Mn4 2.216619 1_554
F5 Mn2 2.253592 1_554
F5 Mn7 2.253592 1_555
F6 Li2 1.965169 1_555
F6 Mn0 2.203046 1_554
F6 Mn3 2.218602 1_554
F6 Mn1 2.293180 1_555
F7 Li3 1.965164 1_565
F7 Mn4 2.203053 1_554
F7 Mn3 2.218599 1_554
F7 Mn7 2.293180 1_555
F8 Li0 1.992142 1_655
F8 Mn4 2.204696 1_544
F8 Mn5 2.231918 1_655
F8 Mn6 2.347481 1_554
F9 Li2 1.903119 1_545
F9 Li3 1.903119 1_555
F9 Mn5 2.054679 1_555
F10 Li3 2.048893 1_555
F10 Mn0 2.216623 1_554
F10 Mn6 2.253592 1_554
F10 Mn1 2.253592 1_555
F11 Li2 1.965169 1_545
F11 Mn0 2.203046 1_555
F11 Mn3 2.218602 1_555
F11 Mn6 2.293180 1_555
