# generated using pymatgen
data_SrSm2O4
_symmetry_space_group_name_H-M   'P 1'
_cell_length_a   6.02552848
_cell_length_b   6.02552848
_cell_length_c   11.39719600
_cell_angle_alpha   90.00000000
_cell_angle_beta   90.00000000
_cell_angle_gamma   146.52452316
_symmetry_Int_Tables_number   1
_chemical_formula_structural   SrSm2O4
_chemical_formula_sum   'Sr2 Sm4 O8'
_cell_volume   228.24266669
_cell_formula_units_Z   2
loop_
 _symmetry_equiv_pos_site_id
 _symmetry_equiv_pos_as_xyz
  1  'x, y, z'
loop_
 _atom_site_type_symbol
 _atom_site_label
 _atom_site_symmetry_multiplicity
 _atom_site_fract_x
 _atom_site_fract_y
 _atom_site_fract_z
 _atom_site_occupancy
  Sr  Sr0  1  0.88811200  0.11188800  0.25000000  1
  Sr  Sr1  1  0.11188800  0.88811200  0.75000000  1
  Sm  Sm0  1  0.63269000  0.36731000  0.42630800  1
  Sm  Sm1  1  0.63269000  0.36731000  0.07369200  1
  Sm  Sm2  1  0.36731000  0.63269000  0.57369200  1
  Sm  Sm3  1  0.36731000  0.63269000  0.92630800  1
  O  O0  1  0.00000000  0.00000000  0.00000000  1
  O  O1  1  0.00000000  0.00000000  0.50000000  1
  O  O2  1  0.53841800  0.46158200  0.25000000  1
  O  O3  1  0.73591100  0.26408900  0.61054500  1
  O  O4  1  0.73591100  0.26408900  0.88945500  1
  O  O5  1  0.46158200  0.53841800  0.75000000  1
  O  O6  1  0.26408900  0.73591100  0.38945500  1
  O  O7  1  0.26408900  0.73591100  0.11054500  1
loop_
_geom_bond_atom_site_label_1
_geom_bond_atom_site_label_2
_geom_bond_distance
_geom_bond_site_symmetry_2
O0 Sm1 2.462026 1_445
O0 Sm1 2.462026 1_555
O0 Sm3 2.462026 1_444
O0 Sm3 2.462026 1_554
O0 Sr1 3.128228 1_544
O0 Sr0 3.128228 1_455
O1 Sm2 2.462026 1_555
O1 Sm2 2.462026 1_445
O1 Sm0 2.462026 1_555
O1 Sm0 2.462026 1_445
O1 Sr1 3.128228 1_545
O1 Sr0 3.128228 1_455
O2 Sm0 2.285034 1_555
O2 Sm1 2.285034 1_555
O2 Sr0 2.453593 1_565
O2 Sr0 2.453593 1_455
O3 Sm2 2.342473 1_545
O3 Sm2 2.342473 1_655
O3 Sm0 2.414147 1_555
O3 Sr1 2.754274 1_545
O3 Sr1 2.754274 1_655
O4 Sm3 2.342473 1_545
O4 Sm3 2.342473 1_655
O4 Sm1 2.414147 1_556
O4 Sr1 2.754274 1_545
O4 Sr1 2.754274 1_655
O5 Sm3 2.285034 1_555
O5 Sm2 2.285034 1_555
O5 Sr1 2.453593 1_545
O5 Sr1 2.453593 1_655
O6 Sm0 2.342473 1_455
O6 Sm0 2.342473 1_565
O6 Sm2 2.414147 1_555
O6 Sr0 2.754274 1_455
O6 Sr0 2.754274 1_565
O7 Sm1 2.342473 1_455
O7 Sm1 2.342473 1_565
O7 Sm3 2.414147 1_554
O7 Sr0 2.754274 1_455
O7 Sr0 2.754274 1_565
