# generated using pymatgen
data_Li4TiS4
_symmetry_space_group_name_H-M   'P 1'
_cell_length_a   6.18577135
_cell_length_b   7.76591711
_cell_length_c   14.17916789
_cell_angle_alpha   90.00000000
_cell_angle_beta   90.00000000
_cell_angle_gamma   90.00000000
_symmetry_Int_Tables_number   1
_chemical_formula_structural   Li4TiS4
_chemical_formula_sum   'Li16 Ti4 S16'
_cell_volume   681.14152662
_cell_formula_units_Z   4
loop_
 _symmetry_equiv_pos_site_id
 _symmetry_equiv_pos_as_xyz
  1  'x, y, z'
loop_
 _atom_site_type_symbol
 _atom_site_label
 _atom_site_symmetry_multiplicity
 _atom_site_fract_x
 _atom_site_fract_y
 _atom_site_fract_z
 _atom_site_occupancy
  Li  Li0  1  0.50000000  -0.00000000  -0.00000000  1
  Li  Li1  1  0.50000000  0.50000000  -0.00000000  1
  Li  Li2  1  0.87003073  0.25000000  0.08849924  1
  Li  Li3  1  0.30868694  0.49832259  0.17805258  1
  Li  Li4  1  0.30868694  0.00167741  0.17805258  1
  Li  Li5  1  0.80868694  0.99832259  0.32194742  1
  Li  Li6  1  0.80868694  0.50167741  0.32194742  1
  Li  Li7  1  0.37003073  0.75000000  0.41150076  1
  Li  Li8  1  -0.00000000  -0.00000000  0.50000000  1
  Li  Li9  1  -0.00000000  0.50000000  0.50000000  1
  Li  Li10  1  0.62996927  0.25000000  0.58849924  1
  Li  Li11  1  0.19131306  0.49832259  0.67805258  1
  Li  Li12  1  0.19131306  0.00167741  0.67805258  1
  Li  Li13  1  0.69131306  0.99832259  0.82194742  1
  Li  Li14  1  0.69131306  0.50167741  0.82194742  1
  Li  Li15  1  0.12996927  0.75000000  0.91150076  1
  Ti  Ti0  1  0.85110520  0.75000000  0.08848878  1
  Ti  Ti1  1  0.35110520  0.25000000  0.41151122  1
  Ti  Ti2  1  0.64889480  0.75000000  0.58848878  1
  Ti  Ti3  1  0.14889480  0.25000000  0.91151122  1
  S  S0  1  0.26167575  0.25000000  0.06427426  1
  S  S1  1  0.21623580  0.75000000  0.08219854  1
  S  S2  1  0.71733192  0.50920687  0.15694224  1
  S  S3  1  0.71733192  0.99079313  0.15694224  1
  S  S4  1  0.21733192  0.00920687  0.34305776  1
  S  S5  1  0.21733192  0.49079313  0.34305776  1
  S  S6  1  0.71623580  0.25000000  0.41780146  1
  S  S7  1  0.76167575  0.75000000  0.43572574  1
  S  S8  1  0.23832425  0.25000000  0.56427426  1
  S  S9  1  0.28376420  0.75000000  0.58219854  1
  S  S10  1  0.78266808  0.50920687  0.65694224  1
  S  S11  1  0.78266808  0.99079313  0.65694224  1
  S  S12  1  0.28266808  0.00920687  0.84305776  1
  S  S13  1  0.28266808  0.49079313  0.84305776  1
  S  S14  1  0.78376420  0.25000000  0.91780146  1
  S  S15  1  0.73832425  0.75000000  0.93572574  1
loop_
_geom_bond_atom_site_label_1
_geom_bond_atom_site_label_2
_geom_bond_distance
_geom_bond_site_symmetry_2
Li0 S3 2.600853 1_545
Li0 S12 2.600853 1_554
Li0 S0 2.602544 1_555
Li0 S15 2.602544 1_544
Li0 S14 2.865105 1_554
Li0 S1 2.865105 1_545
Li1 S2 2.600853 1_555
Li1 S13 2.600853 1_554
Li1 S0 2.602544 1_555
Li1 S15 2.602544 1_554
Li1 S14 2.865105 1_554
Li1 S1 2.865105 1_555
Li2 S2 2.426124 1_555
Li2 S3 2.426124 1_545
Li2 S0 2.446856 1_655
Li2 S14 2.478480 1_554
Li3 S5 2.407625 1_555
Li3 S1 2.448342 1_555
Li3 S0 2.531042 1_555
Li3 S2 2.546848 1_555
Li4 S4 2.407625 1_555
Li4 S1 2.448342 1_545
Li4 S0 2.531042 1_555
Li4 S3 2.546848 1_545
Li5 S3 2.407625 1_555
Li5 S6 2.448342 1_565
Li5 S7 2.531042 1_555
Li5 S4 2.546848 1_665
Li6 S2 2.407625 1_555
Li6 S6 2.448342 1_555
Li6 S7 2.531042 1_555
Li6 S5 2.546848 1_655
Li7 S5 2.426124 1_555
Li7 S4 2.426124 1_565
Li7 S7 2.446856 1_555
Li7 S9 2.478480 1_555
Li8 S4 2.600853 1_555
Li8 S11 2.600853 1_445
Li8 S7 2.602544 1_445
Li8 S8 2.602544 1_555
Li8 S9 2.865105 1_545
Li8 S6 2.865105 1_455
Li9 S5 2.600853 1_555
Li9 S10 2.600853 1_455
Li9 S7 2.602544 1_455
Li9 S8 2.602544 1_555
Li9 S9 2.865105 1_555
Li9 S6 2.865105 1_455
Li10 S11 2.426124 1_545
Li10 S10 2.426124 1_555
Li10 S8 2.446856 1_555
Li10 S6 2.478480 1_555
Li11 S13 2.407625 1_555
Li11 S9 2.448342 1_555
Li11 S8 2.531042 1_555
Li11 S10 2.546848 1_455
Li12 S12 2.407625 1_555
Li12 S9 2.448342 1_545
Li12 S8 2.531042 1_555
Li12 S11 2.546848 1_445
Li13 S11 2.407625 1_555
Li13 S14 2.448342 1_565
Li13 S15 2.531042 1_555
Li13 S12 2.546848 1_565
Li14 S10 2.407625 1_555
Li14 S14 2.448342 1_555
Li14 S15 2.531042 1_555
Li14 S13 2.546848 1_555
Li15 S12 2.426124 1_565
Li15 S13 2.426124 1_555
Li15 S15 2.446856 1_455
Li15 S1 2.478480 1_556
S0 Ti3 2.275628 1_554
S1 Ti0 2.260375 1_455
S2 Ti0 2.263549 1_555
S3 Ti0 2.263549 1_555
S4 Ti1 2.263549 1_555
S5 Ti1 2.263549 1_555
S6 Ti1 2.260375 1_555
S7 Ti2 2.275628 1_555
S8 Ti1 2.275628 1_555
S9 Ti2 2.260375 1_555
S10 Ti2 2.263549 1_555
S11 Ti2 2.263549 1_555
S12 Ti3 2.263549 1_555
S13 Ti3 2.263549 1_555
S14 Ti3 2.260375 1_655
S15 Ti0 2.275628 1_556
