# generated using pymatgen
data_Cr(SbO3)2
_symmetry_space_group_name_H-M   'P 1'
_cell_length_a   4.76599516
_cell_length_b   19.17891723
_cell_length_c   4.78708273
_cell_angle_alpha   89.99954513
_cell_angle_beta   90.02949551
_cell_angle_gamma   89.99968061
_symmetry_Int_Tables_number   1
_chemical_formula_structural   Cr(SbO3)2
_chemical_formula_sum   'Cr4 Sb8 O24'
_cell_volume   437.57102542
_cell_formula_units_Z   4
loop_
 _symmetry_equiv_pos_site_id
 _symmetry_equiv_pos_as_xyz
  1  'x, y, z'
loop_
 _atom_site_type_symbol
 _atom_site_label
 _atom_site_symmetry_multiplicity
 _atom_site_fract_x
 _atom_site_fract_y
 _atom_site_fract_z
 _atom_site_occupancy
  Cr  Cr0  1  0.00000400  0.49995200  0.99995800  1
  Cr  Cr1  1  0.49999600  0.74996100  0.50004600  1
  Cr  Cr2  1  0.99998700  0.99995300  0.99997200  1
  Cr  Cr3  1  0.50007100  0.24999700  0.50002700  1
  Sb  Sb0  1  0.00019600  0.16657000  0.99999300  1
  Sb  Sb1  1  0.00014700  0.66655400  0.00006100  1
  Sb  Sb2  1  0.49983300  0.41646000  0.49997100  1
  Sb  Sb3  1  0.49978300  0.91644800  0.49996800  1
  Sb  Sb4  1  0.50015600  0.08349700  0.49995200  1
  Sb  Sb5  1  0.50016400  0.58352300  0.49999300  1
  Sb  Sb6  1  0.99986100  0.33342300  0.00001300  1
  Sb  Sb7  1  0.99979100  0.83341500  0.00006600  1
  O  O0  1  0.80190000  0.24992800  0.19104000  1
  O  O1  1  0.80190900  0.74991600  0.19102400  1
  O  O2  1  0.30187400  0.00014800  0.30891100  1
  O  O3  1  0.30196600  0.50016100  0.30898100  1
  O  O4  1  0.69805900  0.50013300  0.69098600  1
  O  O5  1  0.69810000  0.00011800  0.69100300  1
  O  O6  1  0.19813600  0.24995500  0.80892400  1
  O  O7  1  0.19800100  0.74994600  0.80909000  1
  O  O8  1  0.80416500  0.41744000  0.18799600  1
  O  O9  1  0.80421800  0.91742100  0.18788800  1
  O  O10  1  0.80438100  0.08287200  0.18836700  1
  O  O11  1  0.80437200  0.58289400  0.18841700  1
  O  O12  1  0.30416800  0.16700500  0.31132500  1
  O  O13  1  0.30413600  0.66698700  0.31137900  1
  O  O14  1  0.30387000  0.33268800  0.31169000  1
  O  O15  1  0.30370900  0.83266300  0.31162000  1
  O  O16  1  0.69636300  0.16699700  0.68852300  1
  O  O17  1  0.69633900  0.66698500  0.68858100  1
  O  O18  1  0.69573300  0.33269800  0.68845900  1
  O  O19  1  0.69580800  0.83268200  0.68858600  1
  O  O20  1  0.19538700  0.41743400  0.81182300  1
  O  O21  1  0.19524700  0.91740500  0.81195500  1
  O  O22  1  0.19608700  0.08287100  0.81169900  1
  O  O23  1  0.19608000  0.58289800  0.81171200  1
loop_
_geom_bond_atom_site_label_1
_geom_bond_atom_site_label_2
_geom_bond_distance
_geom_bond_site_symmetry_2
Cr0 O20 2.045421 1_555
Cr0 O8 2.046115 1_456
Cr0 O11 2.052940 1_456
Cr0 O23 2.053511 1_555
Cr0 O4 2.063104 1_455
Cr0 O3 2.063337 1_556
Cr1 O19 2.049804 1_555
Cr1 O15 2.050294 1_555
Cr1 O13 2.053933 1_555
Cr1 O17 2.054712 1_555
Cr1 O1 2.064229 1_555
Cr1 O7 2.064577 1_555
Cr2 O21 2.045350 1_655
Cr2 O9 2.046003 1_556
Cr2 O10 2.052407 1_566
Cr2 O22 2.053204 1_665
Cr2 O2 2.062799 1_666
Cr2 O5 2.062901 1_565
Cr3 O18 2.048954 1_555
Cr3 O14 2.049756 1_555
Cr3 O12 2.054367 1_555
Cr3 O16 2.054876 1_555
Cr3 O0 2.063830 1_555
Cr3 O6 2.063873 1_555
O0 Sb0 2.070357 1_654
O0 Sb6 2.071613 1_555
O1 Sb1 2.070112 1_655
O1 Sb7 2.071355 1_555
O2 Sb4 2.069759 1_555
O2 Sb3 2.074168 1_545
O3 Sb5 2.069707 1_555
O3 Sb2 2.073951 1_555
O4 Sb5 2.069404 1_555
O4 Sb2 2.074385 1_555
O5 Sb4 2.069470 1_555
O5 Sb3 2.074581 1_545
O6 Sb0 2.070026 1_555
O6 Sb6 2.072030 1_456
O7 Sb1 2.069736 1_556
O7 Sb7 2.071664 1_456
O8 Sb6 2.068101 1_555
O8 Sb2 2.082491 1_555
O9 Sb7 2.067337 1_555
O9 Sb3 2.083192 1_555
O10 Sb0 2.064408 1_654
O10 Sb4 2.080746 1_555
O11 Sb1 2.063718 1_655
O11 Sb5 2.080659 1_555
O12 Sb4 2.062051 1_555
O12 Sb0 2.077949 1_554
O13 Sb5 2.061455 1_555
O13 Sb1 2.077957 1_555
O14 Sb2 2.065228 1_555
O14 Sb6 2.079287 1_455
O15 Sb3 2.065801 1_555
O15 Sb7 2.078565 1_455
O16 Sb4 2.062306 1_555
O16 Sb0 2.077960 1_655
O17 Sb5 2.061707 1_555
O17 Sb1 2.077912 1_656
O18 Sb2 2.065357 1_555
O18 Sb6 2.079259 1_556
O19 Sb3 2.065957 1_555
O19 Sb7 2.078524 1_556
O20 Sb6 2.068074 1_456
O20 Sb2 2.082446 1_555
O21 Sb7 2.067445 1_456
O21 Sb3 2.083206 1_555
O22 Sb0 2.064423 1_555
O22 Sb4 2.080784 1_555
O23 Sb1 2.063987 1_556
O23 Sb5 2.080737 1_555
