# generated using pymatgen
data_Mn3CrNi2(PO4)6
_symmetry_space_group_name_H-M   'P 1'
_cell_length_a   8.43377652
_cell_length_b   8.43377652
_cell_length_c   8.43377641
_cell_angle_alpha   60.73739631
_cell_angle_beta   60.73739631
_cell_angle_gamma   60.73739675
_symmetry_Int_Tables_number   1
_chemical_formula_structural   Mn3CrNi2(PO4)6
_chemical_formula_sum   'Mn3 Cr1 Ni2 P6 O24'
_cell_volume   431.23901440
_cell_formula_units_Z   1
loop_
 _symmetry_equiv_pos_site_id
 _symmetry_equiv_pos_as_xyz
  1  'x, y, z'
loop_
 _atom_site_type_symbol
 _atom_site_label
 _atom_site_symmetry_multiplicity
 _atom_site_fract_x
 _atom_site_fract_y
 _atom_site_fract_z
 _atom_site_occupancy
  Mn  Mn0  1  0.14173900  0.14173900  0.14173900  1
  Mn  Mn1  1  0.35844400  0.35844400  0.35844400  1
  Mn  Mn2  1  0.64202700  0.64202700  0.64202700  1
  Cr  Cr0  1  0.85960200  0.85960200  0.85960200  1
  Ni  Ni0  1  0.99985900  0.99985900  0.99985900  1
  Ni  Ni1  1  0.50058500  0.50058500  0.50058500  1
  P  P0  1  0.45700000  0.74964900  0.04213100  1
  P  P1  1  0.74964900  0.04213100  0.45700000  1
  P  P2  1  0.04213100  0.45700000  0.74964900  1
  P  P3  1  0.96016500  0.54133800  0.25021400  1
  P  P4  1  0.25021400  0.96016500  0.54133800  1
  P  P5  1  0.54133800  0.25021400  0.96016500  1
  O  O0  1  0.50422000  0.31451700  0.11995800  1
  O  O1  1  0.11995800  0.50422000  0.31451700  1
  O  O2  1  0.25543400  0.90988100  0.06037100  1
  O  O3  1  0.31451700  0.11995800  0.50422000  1
  O  O4  1  0.61390800  0.81163300  0.00937400  1
  O  O5  1  0.44404200  0.58310900  0.24290700  1
  O  O6  1  0.90988100  0.06037100  0.25543400  1
  O  O7  1  0.58310900  0.24290700  0.44404200  1
  O  O8  1  0.99098700  0.38291200  0.18925600  1
  O  O9  1  0.24290700  0.44404200  0.58310900  1
  O  O10  1  0.94561500  0.74092000  0.08953800  1
  O  O11  1  0.18925600  0.99098700  0.38291200  1
  O  O12  1  0.81163300  0.00937400  0.61390800  1
  O  O13  1  0.06037100  0.25543400  0.90988100  1
  O  O14  1  0.76003000  0.55450500  0.41378200  1
  O  O15  1  0.00937400  0.61390800  0.81163300  1
  O  O16  1  0.41378200  0.76003000  0.55450500  1
  O  O17  1  0.08953800  0.94561500  0.74092000  1
  O  O18  1  0.55450500  0.41378200  0.76003000  1
  O  O19  1  0.38291200  0.18925600  0.99098700  1
  O  O20  1  0.68926800  0.88332800  0.48775600  1
  O  O21  1  0.74092000  0.08953800  0.94561500  1
  O  O22  1  0.88332800  0.48775600  0.68926800  1
  O  O23  1  0.48775600  0.68926800  0.88332800  1
loop_
_geom_bond_atom_site_label_1
_geom_bond_atom_site_label_2
_geom_bond_distance
_geom_bond_site_symmetry_2
Mn0 O11 1.919587 1_545
Mn0 O19 1.919587 1_554
Mn0 O8 1.919587 1_455
Mn0 O13 2.012365 1_554
Mn0 O6 2.012365 1_455
Mn0 O2 2.012365 1_545
Mn1 O0 1.886782 1_555
Mn1 O3 1.886782 1_555
Mn1 O1 1.886782 1_555
Mn1 O9 1.976204 1_555
Mn1 O5 1.976204 1_555
Mn1 O7 1.976204 1_555
Mn2 O23 1.921050 1_555
Mn2 O20 1.921050 1_555
Mn2 O22 1.921050 1_555
Mn2 O14 2.009688 1_555
Mn2 O18 2.009688 1_555
Mn2 O16 2.009688 1_555
Cr0 O12 1.952957 1_565
Cr0 O4 1.952957 1_556
Cr0 O15 1.952957 1_655
Cr0 O10 2.014079 1_556
Cr0 O17 2.014079 1_655
Cr0 O21 2.014079 1_565
Ni0 O17 2.138727 1_655
Ni0 O10 2.138727 1_556
Ni0 O21 2.138727 1_565
Ni0 O6 2.140105 1_566
Ni0 O13 2.140105 1_665
Ni0 O2 2.140105 1_656
Ni1 O18 2.147513 1_555
Ni1 O14 2.147513 1_555
Ni1 O16 2.147513 1_555
Ni1 O5 2.155132 1_555
Ni1 O9 2.155132 1_555
Ni1 O7 2.155132 1_555
O0 P5 1.531138 1_554
O1 P3 1.531138 1_455
O2 P0 1.562505 1_555
O3 P4 1.531138 1_545
O4 P0 1.509470 1_555
O5 P0 1.579880 1_555
O6 P1 1.562505 1_555
O7 P1 1.579880 1_555
O8 P3 1.522650 1_555
O9 P2 1.579880 1_555
O10 P3 1.554139 1_555
O11 P4 1.522650 1_555
O12 P1 1.509470 1_555
O13 P2 1.562505 1_555
O14 P3 1.566684 1_555
O15 P2 1.509470 1_555
O16 P4 1.566684 1_555
O17 P4 1.554139 1_555
O18 P5 1.566684 1_555
O19 P5 1.522650 1_555
O20 P1 1.522617 1_565
O21 P5 1.554139 1_555
O22 P2 1.522617 1_655
O23 P0 1.522616 1_556
