# generated using pymatgen
data_Li2FePCO7
_symmetry_space_group_name_H-M   'P 1'
_cell_length_a   6.49902000
_cell_length_b   9.37369800
_cell_length_c   10.19769850
_cell_angle_alpha   62.46891459
_cell_angle_beta   90.00000000
_cell_angle_gamma   90.00000000
_symmetry_Int_Tables_number   1
_chemical_formula_structural   Li2FePCO7
_chemical_formula_sum   'Li8 Fe4 P4 C4 O28'
_cell_volume   550.89291054
_cell_formula_units_Z   4
loop_
 _symmetry_equiv_pos_site_id
 _symmetry_equiv_pos_as_xyz
  1  'x, y, z'
loop_
 _atom_site_type_symbol
 _atom_site_label
 _atom_site_symmetry_multiplicity
 _atom_site_fract_x
 _atom_site_fract_y
 _atom_site_fract_z
 _atom_site_occupancy
  Li  Li0  1  0.25580900  0.09880500  0.31545600  1
  Li  Li1  1  0.24419100  0.09880500  0.81545600  1
  Li  Li2  1  0.03675400  0.27921800  0.48387700  1
  Li  Li3  1  0.46324600  0.27921800  0.98387700  1
  Li  Li4  1  0.96324600  0.72078200  0.51612300  1
  Li  Li5  1  0.53675400  0.72078200  0.01612300  1
  Li  Li6  1  0.74419100  0.90119500  0.68454400  1
  Li  Li7  1  0.75580900  0.90119500  0.18454400  1
  Fe  Fe0  1  0.74562400  0.32927600  0.68569300  1
  Fe  Fe1  1  0.75437600  0.32927600  0.18569300  1
  Fe  Fe2  1  0.25437600  0.67072400  0.31430700  1
  Fe  Fe3  1  0.24562400  0.67072400  0.81430700  1
  P  P0  1  0.24753700  0.41850500  0.67776300  1
  P  P1  1  0.25246300  0.41850500  0.17776300  1
  P  P2  1  0.75246300  0.58149500  0.32223700  1
  P  P3  1  0.74753700  0.58149500  0.82223700  1
  C  C0  1  0.76364300  0.04231000  0.38228800  1
  C  C1  1  0.73635700  0.04231000  0.88228800  1
  C  C2  1  0.23635700  0.95769000  0.61771200  1
  C  C3  1  0.26364300  0.95769000  0.11771200  1
  O  O0  1  0.74677800  0.07492900  0.74180600  1
  O  O1  1  0.75322200  0.07492900  0.24180600  1
  O  O2  1  0.21379200  0.10105400  0.51108400  1
  O  O3  1  0.76409700  0.16922400  0.40481700  1
  O  O4  1  0.28620800  0.10105400  0.01108400  1
  O  O5  1  0.73590300  0.16922400  0.90481700  1
  O  O6  1  0.06738400  0.29904100  0.69914600  1
  O  O7  1  0.44060400  0.32130300  0.68053600  1
  O  O8  1  0.05939600  0.32130300  0.18053600  1
  O  O9  1  0.43261600  0.29904100  0.19914600  1
  O  O10  1  0.78484200  0.42214400  0.46887800  1
  O  O11  1  0.23333900  0.46296600  0.30697700  1
  O  O12  1  0.71515800  0.42214400  0.96887800  1
  O  O13  1  0.26666100  0.46296600  0.80697700  1
  O  O14  1  0.76666100  0.53703400  0.69302300  1
  O  O15  1  0.21515800  0.57785600  0.53112200  1
  O  O16  1  0.73333900  0.53703400  0.19302300  1
  O  O17  1  0.28484200  0.57785600  0.03112200  1
  O  O18  1  0.55939600  0.67869700  0.31946400  1
  O  O19  1  0.93261600  0.70095900  0.30085400  1
  O  O20  1  0.94060400  0.67869700  0.81946400  1
  O  O21  1  0.56738400  0.70095900  0.80085400  1
  O  O22  1  0.23590300  0.83077600  0.59518300  1
  O  O23  1  0.78620800  0.89894600  0.48891600  1
  O  O24  1  0.26409700  0.83077600  0.09518300  1
  O  O25  1  0.71379200  0.89894600  0.98891600  1
  O  O26  1  0.25322200  0.92507100  0.25819400  1
  O  O27  1  0.24677800  0.92507100  0.75819400  1
loop_
_geom_bond_atom_site_label_1
_geom_bond_atom_site_label_2
_geom_bond_distance
_geom_bond_site_symmetry_2
Li0 O26 1.967869 1_545
Li0 O2 2.023299 1_555
Li0 O9 2.047453 1_555
Li0 O8 2.284626 1_555
Li1 O27 1.967869 1_545
Li1 O4 2.023299 1_556
Li1 O6 2.047453 1_555
Li1 O7 2.284626 1_555
Li2 O2 1.939466 1_555
Li2 O10 2.075869 1_455
Li2 O11 2.231774 1_555
Li2 O6 2.295728 1_555
Li2 O3 2.370978 1_455
Li3 O4 1.939466 1_556
Li3 O12 2.075869 1_555
Li3 O13 2.231774 1_555
Li3 O9 2.295728 1_556
Li3 O5 2.370978 1_555
Li4 O23 1.939466 1_555
Li4 O15 2.075869 1_655
Li4 O14 2.231774 1_555
Li4 O19 2.295728 1_555
Li4 O22 2.370978 1_655
Li5 O25 1.939466 1_554
Li5 O17 2.075869 1_555
Li5 O16 2.231774 1_555
Li5 O21 2.295728 1_554
Li5 O24 2.370978 1_555
Li6 O0 1.967869 1_565
Li6 O23 2.023299 1_555
Li6 O21 2.047453 1_555
Li6 O20 2.284626 1_555
Li7 O1 1.967869 1_565
Li7 O25 2.023299 1_554
Li7 O19 2.047453 1_555
Li7 O18 2.284626 1_555
Fe0 O10 1.982931 1_555
Fe0 O7 1.985352 1_555
Fe0 O14 1.987827 1_555
Fe0 O5 2.036878 1_555
Fe0 O6 2.106182 1_655
Fe0 O0 2.179576 1_555
Fe1 O12 1.982931 1_554
Fe1 O8 1.985352 1_655
Fe1 O16 1.987827 1_555
Fe1 O3 2.036878 1_555
Fe1 O9 2.106182 1_555
Fe1 O1 2.179576 1_555
Fe2 O15 1.982931 1_555
Fe2 O18 1.985352 1_555
Fe2 O11 1.987827 1_555
Fe2 O24 2.036878 1_555
Fe2 O19 2.106182 1_455
Fe2 O26 2.179576 1_555
Fe3 O17 1.982931 1_556
Fe3 O20 1.985352 1_455
Fe3 O13 1.987827 1_555
Fe3 O22 2.036878 1_555
Fe3 O21 2.106182 1_555
Fe3 O27 2.179576 1_555
C0 O23 1.287993 1_545
C0 O3 1.311768 1_555
C0 O1 1.321158 1_555
C1 O25 1.287993 1_545
C1 O5 1.311768 1_555
C1 O0 1.321158 1_555
C2 O2 1.287993 1_565
C2 O22 1.311768 1_555
C2 O27 1.321158 1_555
C3 O4 1.287993 1_565
C3 O24 1.311768 1_555
C3 O26 1.321158 1_555
O6 P0 1.564168 1_555
O7 P0 1.543227 1_555
O8 P1 1.543227 1_555
O9 P1 1.564168 1_555
O10 P2 1.564196 1_555
O11 P1 1.559844 1_555
O12 P3 1.564196 1_555
O13 P0 1.559844 1_555
O14 P3 1.559844 1_555
O15 P0 1.564196 1_555
O16 P2 1.559844 1_555
O17 P1 1.564196 1_555
O18 P2 1.543227 1_555
O19 P2 1.564168 1_555
O20 P3 1.543227 1_555
O21 P3 1.564168 1_555
