# generated using pymatgen
data_Ba3Nb2ZnO9
_symmetry_space_group_name_H-M   'P 1'
_cell_length_a   5.87142730
_cell_length_b   5.87142730
_cell_length_c   7.21180700
_cell_angle_alpha   90.00000000
_cell_angle_beta   90.00000000
_cell_angle_gamma   119.99999215
_symmetry_Int_Tables_number   1
_chemical_formula_structural   Ba3Nb2ZnO9
_chemical_formula_sum   'Ba3 Nb2 Zn1 O9'
_cell_volume   215.30897722
_cell_formula_units_Z   1
loop_
 _symmetry_equiv_pos_site_id
 _symmetry_equiv_pos_as_xyz
  1  'x, y, z'
loop_
 _atom_site_type_symbol
 _atom_site_label
 _atom_site_symmetry_multiplicity
 _atom_site_fract_x
 _atom_site_fract_y
 _atom_site_fract_z
 _atom_site_occupancy
  Ba  Ba0  1  0.66666700  0.33333300  0.33445300  1
  Ba  Ba1  1  0.33333300  0.66666700  0.66554700  1
  Ba  Ba2  1  0.00000000  0.00000000  0.00000000  1
  Nb  Nb0  1  0.33333300  0.66666700  0.17726500  1
  Nb  Nb1  1  0.66666700  0.33333300  0.82273500  1
  Zn  Zn0  1  0.00000000  0.00000000  0.50000000  1
  O  O0  1  0.82801000  0.17199000  0.67551000  1
  O  O1  1  0.82801000  0.65602000  0.67551000  1
  O  O2  1  0.34398000  0.17199000  0.67551000  1
  O  O3  1  0.65602000  0.82801000  0.32449000  1
  O  O4  1  0.17199000  0.34398000  0.32449000  1
  O  O5  1  0.17199000  0.82801000  0.32449000  1
  O  O6  1  0.50000000  0.00000000  0.00000000  1
  O  O7  1  0.00000000  0.50000000  0.00000000  1
  O  O8  1  0.50000000  0.50000000  0.00000000  1
loop_
_geom_bond_atom_site_label_1
_geom_bond_atom_site_label_2
_geom_bond_distance
_geom_bond_site_symmetry_2
Ba0 O4 2.937089 1_655
Ba0 O3 2.937089 1_545
Ba0 O5 2.937092 1_545
Ba0 O5 2.937092 1_655
Ba0 O4 2.937095 1_555
Ba0 O3 2.937095 1_555
Ba0 O7 2.947981 1_655
Ba0 O6 2.947981 1_555
Ba0 O8 2.947984 1_555
Ba0 O0 2.956692 1_555
Ba0 O2 2.956694 1_555
Ba0 O1 2.956694 1_555
Ba1 O1 2.937089 1_455
Ba1 O2 2.937089 1_565
Ba1 O0 2.937092 1_455
Ba1 O0 2.937092 1_565
Ba1 O1 2.937095 1_555
Ba1 O2 2.937095 1_555
Ba1 O6 2.947981 1_566
Ba1 O7 2.947981 1_556
Ba1 O8 2.947984 1_556
Ba1 O5 2.956692 1_555
Ba1 O4 2.956694 1_555
Ba1 O3 2.956694 1_555
Ba2 O0 2.921574 1_454
Ba2 O5 2.921574 1_545
Ba2 O1 2.921574 1_444
Ba2 O2 2.921574 1_554
Ba2 O3 2.921574 1_445
Ba2 O4 2.921574 1_555
Ba2 O7 2.935714 1_555
Ba2 O6 2.935714 1_555
Ba2 O6 2.935714 1_455
Ba2 O7 2.935714 1_545
Ba2 O8 2.935714 1_555
Ba2 O8 2.935714 1_445
Nb0 O5 1.954364 1_555
Nb0 O4 1.954369 1_555
Nb0 O3 1.954369 1_555
Nb0 O6 2.122995 1_565
Nb0 O7 2.122995 1_555
Nb0 O8 2.122999 1_555
Nb1 O0 1.954364 1_555
Nb1 O2 1.954369 1_555
Nb1 O1 1.954369 1_555
Nb1 O6 2.122995 1_556
Nb1 O7 2.122995 1_656
Nb1 O8 2.122999 1_556
O0 Zn0 2.159018 1_655
O1 Zn0 2.159018 1_665
O2 Zn0 2.159018 1_555
O3 Zn0 2.159018 1_665
O4 Zn0 2.159018 1_555
O5 Zn0 2.159018 1_565
