# generated using pymatgen
data_LiFeSiO4
_symmetry_space_group_name_H-M   'P 1'
_cell_length_a   5.26662300
_cell_length_b   5.97150900
_cell_length_c   11.35990600
_cell_angle_alpha   90.00000000
_cell_angle_beta   90.00000000
_cell_angle_gamma   90.00000000
_symmetry_Int_Tables_number   1
_chemical_formula_structural   LiFeSiO4
_chemical_formula_sum   'Li4 Fe4 Si4 O16'
_cell_volume   357.26548401
_cell_formula_units_Z   4
loop_
 _symmetry_equiv_pos_site_id
 _symmetry_equiv_pos_as_xyz
  1  'x, y, z'
loop_
 _atom_site_type_symbol
 _atom_site_label
 _atom_site_symmetry_multiplicity
 _atom_site_fract_x
 _atom_site_fract_y
 _atom_site_fract_z
 _atom_site_occupancy
  Li  Li0  1  0.69099100  0.01516600  0.83165800  1
  Li  Li1  1  0.80900900  0.01516600  0.33165800  1
  Li  Li2  1  0.30900900  0.51516600  0.16834200  1
  Li  Li3  1  0.19099100  0.51516600  0.66834200  1
  Fe  Fe0  1  0.68591000  0.24174200  0.07624100  1
  Fe  Fe1  1  0.31409000  0.74174200  0.92375900  1
  Fe  Fe2  1  0.18591000  0.74174200  0.42375900  1
  Fe  Fe3  1  0.81409000  0.24174200  0.57624100  1
  Si  Si0  1  0.18619600  0.24944500  0.91420400  1
  Si  Si1  1  0.81380400  0.74944500  0.08579600  1
  Si  Si2  1  0.68619600  0.74944500  0.58579600  1
  Si  Si3  1  0.31380400  0.24944500  0.41420400  1
  O  O0  1  0.87803700  0.22603100  0.93554900  1
  O  O1  1  0.12196300  0.72603100  0.06445100  1
  O  O2  1  0.37803700  0.72603100  0.56445100  1
  O  O3  1  0.62196300  0.22603100  0.43554900  1
  O  O4  1  0.33342300  0.27245300  0.04192600  1
  O  O5  1  0.66657700  0.77245300  0.95807400  1
  O  O6  1  0.83342300  0.77245300  0.45807400  1
  O  O7  1  0.16657700  0.27245300  0.54192600  1
  O  O8  1  0.28920200  0.02396700  0.84605600  1
  O  O9  1  0.75307600  0.97569200  0.16456200  1
  O  O10  1  0.74692400  0.97569200  0.66456200  1
  O  O11  1  0.21079800  0.02396700  0.34605600  1
  O  O12  1  0.71079800  0.52396700  0.15394400  1
  O  O13  1  0.24692400  0.47569200  0.83543800  1
  O  O14  1  0.25307600  0.47569200  0.33543800  1
  O  O15  1  0.78920200  0.52396700  0.65394400  1
loop_
_geom_bond_atom_site_label_1
_geom_bond_atom_site_label_2
_geom_bond_distance
_geom_bond_site_symmetry_2
Li0 O10 1.935325 1_545
Li0 O0 1.987163 1_555
Li0 O5 2.044381 1_545
Li0 O8 2.123033 1_555
Li1 O9 1.935325 1_545
Li1 O3 1.987163 1_555
Li1 O6 2.044381 1_545
Li1 O11 2.123033 1_655
Li2 O14 1.935325 1_555
Li2 O1 1.987163 1_555
Li2 O4 2.044381 1_555
Li2 O12 2.123033 1_555
Li3 O13 1.935325 1_555
Li3 O2 1.987163 1_555
Li3 O7 2.044381 1_555
Li3 O15 2.123033 1_455
Fe0 O0 1.893953 1_554
Fe0 O4 1.905746 1_555
Fe0 O12 1.906988 1_555
Fe0 O9 1.912017 1_545
Fe1 O1 1.893953 1_556
Fe1 O5 1.905746 1_555
Fe1 O8 1.906988 1_565
Fe1 O13 1.912017 1_555
Fe2 O2 1.893953 1_555
Fe2 O6 1.905746 1_455
Fe2 O11 1.906988 1_565
Fe2 O14 1.912017 1_555
Fe3 O3 1.893953 1_555
Fe3 O7 1.905746 1_655
Fe3 O15 1.906988 1_555
Fe3 O10 1.912017 1_545
O0 Si0 1.646917 1_655
O1 Si1 1.646917 1_455
O2 Si2 1.646917 1_555
O3 Si3 1.646917 1_555
O4 Si0 1.650831 1_554
O5 Si1 1.650831 1_556
O6 Si2 1.650831 1_555
O7 Si3 1.650831 1_555
O8 Si0 1.645152 1_555
O9 Si1 1.651730 1_555
O10 Si2 1.651730 1_555
O11 Si3 1.645152 1_555
O12 Si1 1.645152 1_555
O13 Si0 1.651730 1_555
O14 Si3 1.651730 1_555
O15 Si2 1.645152 1_555
