# generated using pymatgen
data_Li5CuF6
_symmetry_space_group_name_H-M   'P 1'
_cell_length_a   8.70261023
_cell_length_b   8.70261023
_cell_length_c   5.07502895
_cell_angle_alpha   85.01058734
_cell_angle_beta   85.01058734
_cell_angle_gamma   60.40334364
_symmetry_Int_Tables_number   1
_chemical_formula_structural   Li5CuF6
_chemical_formula_sum   'Li15 Cu3 F18'
_cell_volume   332.51317121
_cell_formula_units_Z   3
loop_
 _symmetry_equiv_pos_site_id
 _symmetry_equiv_pos_as_xyz
  1  'x, y, z'
loop_
 _atom_site_type_symbol
 _atom_site_label
 _atom_site_symmetry_multiplicity
 _atom_site_fract_x
 _atom_site_fract_y
 _atom_site_fract_z
 _atom_site_occupancy
  Li  Li0  1  0.66408400  0.99655400  0.06457500  1
  Li  Li1  1  0.83017700  0.83017700  0.56804200  1
  Li  Li2  1  0.99655400  0.66408400  0.06457500  1
  Li  Li3  1  0.50155000  0.83295800  0.44215100  1
  Li  Li4  1  0.83295800  0.50155000  0.44215100  1
  Li  Li5  1  0.16671300  0.83328700  0.00000000  1
  Li  Li6  1  0.33305600  0.66694400  0.50000000  1
  Li  Li7  1  0.50000000  0.50000000  0.00000000  1
  Li  Li8  1  0.66694400  0.33305600  0.50000000  1
  Li  Li9  1  0.83328700  0.16671300  0.00000000  1
  Li  Li10  1  0.16704200  0.49845000  0.55784900  1
  Li  Li11  1  0.49845000  0.16704200  0.55784900  1
  Li  Li12  1  0.00344600  0.33591600  0.93542500  1
  Li  Li13  1  0.16982300  0.16982300  0.43195800  1
  Li  Li14  1  0.33591600  0.00344600  0.93542500  1
  Cu  Cu0  1  0.00000000  0.00000000  0.50000000  1
  Cu  Cu1  1  0.66804300  0.66804300  0.94218100  1
  Cu  Cu2  1  0.33195700  0.33195700  0.05781900  1
  F  F0  1  0.91017700  0.91017700  0.88840700  1
  F  F1  1  0.58094300  0.93356600  0.74876500  1
  F  F2  1  0.75171700  0.75171700  0.27565100  1
  F  F3  1  0.93356600  0.58094300  0.74876500  1
  F  F4  1  0.26552900  0.91343000  0.64357100  1
  F  F5  1  0.40282800  0.75070500  0.15009600  1
  F  F6  1  0.58211900  0.58211900  0.62079800  1
  F  F7  1  0.08657000  0.73447100  0.35642900  1
  F  F8  1  0.75070500  0.40282800  0.15009600  1
  F  F9  1  0.24929500  0.59717200  0.84990400  1
  F  F10  1  0.91343000  0.26552900  0.64357100  1
  F  F11  1  0.41788100  0.41788100  0.37920200  1
  F  F12  1  0.59717200  0.24929500  0.84990400  1
  F  F13  1  0.73447100  0.08657000  0.35642900  1
  F  F14  1  0.06643400  0.41905700  0.25123500  1
  F  F15  1  0.24828300  0.24828300  0.72434900  1
  F  F16  1  0.41905700  0.06643400  0.25123500  1
  F  F17  1  0.08982300  0.08982300  0.11159300  1
loop_
_geom_bond_atom_site_label_1
_geom_bond_atom_site_label_2
_geom_bond_distance
_geom_bond_site_symmetry_2
Cu0 F13 2.217205 1_455
Cu0 F4 2.217205 1_545
Cu0 F10 2.217205 1_455
Cu0 F7 2.217205 1_545
Cu0 F0 2.274899 1_445
Cu0 F17 2.274899 1_555
Cu1 F6 2.180633 1_555
Cu1 F2 2.208417 1_556
Cu1 F1 2.209607 1_555
Cu1 F3 2.209607 1_555
Cu1 F8 2.241959 1_556
Cu1 F5 2.241959 1_556
Cu2 F11 2.180633 1_555
Cu2 F15 2.208417 1_554
Cu2 F16 2.209607 1_555
Cu2 F14 2.209607 1_555
Cu2 F9 2.241959 1_554
Cu2 F12 2.241959 1_554
F0 Li2 2.035852 1_556
F0 Li0 2.035852 1_556
F0 Li9 2.105011 1_566
F0 Li5 2.105011 1_656
F0 Li1 2.117879 1_555
F1 Li11 1.979970 1_565
F1 Li0 2.034476 1_556
F1 Li1 2.055497 1_555
F1 Li14 2.069334 1_565
F1 Li3 2.164922 1_555
F2 Li1 1.986806 1_555
F2 Li4 2.053573 1_555
F2 Li3 2.053573 1_555
F2 Li0 2.099777 1_555
F2 Li2 2.099777 1_555
F3 Li10 1.979970 1_655
F3 Li2 2.034476 1_556
F3 Li1 2.055497 1_555
F3 Li12 2.069334 1_655
F3 Li4 2.164922 1_555
F4 Li14 2.004093 1_565
F4 Li3 2.023043 1_555
F4 Li6 2.104706 1_555
F4 Li5 2.144869 1_556
F4 Li13 2.174572 1_565
F5 Li5 2.009316 1_555
F5 Li6 2.019382 1_555
F5 Li7 2.100029 1_555
F5 Li3 2.112087 1_555
F5 Li14 2.189116 1_564
F6 Li6 2.047130 1_555
F6 Li8 2.047130 1_555
F6 Li4 2.081664 1_555
F6 Li3 2.081664 1_555
F6 Li7 2.179686 1_556
F7 Li2 2.004093 1_455
F7 Li10 2.023043 1_555
F7 Li6 2.104706 1_555
F7 Li5 2.144869 1_555
F7 Li1 2.174572 1_455
F8 Li9 2.009316 1_555
F8 Li8 2.019382 1_555
F8 Li7 2.100029 1_555
F8 Li4 2.112087 1_555
F8 Li12 2.189116 1_654
F9 Li5 2.009316 1_556
F9 Li6 2.019382 1_555
F9 Li7 2.100029 1_556
F9 Li10 2.112087 1_555
F9 Li2 2.189116 1_456
F10 Li12 2.004093 1_655
F10 Li4 2.023043 1_555
F10 Li8 2.104706 1_555
F10 Li9 2.144869 1_556
F10 Li13 2.174572 1_655
F11 Li6 2.047130 1_555
F11 Li8 2.047130 1_555
F11 Li11 2.081664 1_555
F11 Li10 2.081664 1_555
F11 Li7 2.179686 1_555
F12 Li9 2.009316 1_556
F12 Li8 2.019382 1_555
F12 Li7 2.100029 1_556
F12 Li11 2.112087 1_555
F12 Li0 2.189116 1_546
F13 Li0 2.004093 1_545
F13 Li11 2.023043 1_555
F13 Li8 2.104706 1_555
F13 Li9 2.144869 1_555
F13 Li1 2.174572 1_545
F14 Li4 1.979970 1_455
F14 Li12 2.034476 1_554
F14 Li13 2.055497 1_555
F14 Li2 2.069334 1_455
F14 Li10 2.164922 1_555
F15 Li13 1.986806 1_555
F15 Li11 2.053573 1_555
F15 Li10 2.053573 1_555
F15 Li12 2.099777 1_555
F15 Li14 2.099777 1_555
F16 Li3 1.979970 1_545
F16 Li14 2.034476 1_554
F16 Li13 2.055497 1_555
F16 Li0 2.069334 1_545
F16 Li11 2.164922 1_555
F17 Li14 2.035852 1_554
F17 Li12 2.035852 1_554
F17 Li9 2.105011 1_455
F17 Li5 2.105011 1_545
F17 Li13 2.117879 1_555
