# generated using pymatgen
data_LiCuPO4
_symmetry_space_group_name_H-M   'P 1'
_cell_length_a   9.95316188
_cell_length_b   9.95316188
_cell_length_c   22.81292300
_cell_angle_alpha   90.00000000
_cell_angle_beta   90.00000000
_cell_angle_gamma   119.99999919
_symmetry_Int_Tables_number   1
_chemical_formula_structural   LiCuPO4
_chemical_formula_sum   'Li24 Cu24 P24 O96'
_cell_volume   1957.19323009
_cell_formula_units_Z   24
loop_
 _symmetry_equiv_pos_site_id
 _symmetry_equiv_pos_as_xyz
  1  'x, y, z'
loop_
 _atom_site_type_symbol
 _atom_site_label
 _atom_site_symmetry_multiplicity
 _atom_site_fract_x
 _atom_site_fract_y
 _atom_site_fract_z
 _atom_site_occupancy
  Li  Li0  1  0.02410900  0.94072100  0.41801200  1
  Li  Li1  1  0.06242400  0.55387200  0.91701200  1
  Li  Li2  1  0.06097700  0.51023800  0.25339500  1
  Li  Li3  1  0.01938000  0.48428600  0.58782200  1
  Li  Li4  1  0.46490600  0.98062000  0.92115600  1
  Li  Li5  1  0.44926100  0.93902300  0.58672800  1
  Li  Li6  1  0.05927900  0.08338700  0.08467900  1
  Li  Li7  1  0.49144800  0.93757600  0.25034600  1
  Li  Li8  1  0.08338700  0.02410900  0.25134500  1
  Li  Li9  1  0.44612800  0.50855200  0.58367900  1
  Li  Li10  1  0.48976200  0.55073900  0.92006200  1
  Li  Li11  1  0.51571400  0.53509400  0.25448900  1
  Li  Li12  1  0.48428600  0.46490600  0.75448900  1
  Li  Li13  1  0.51023800  0.44926100  0.42006200  1
  Li  Li14  1  0.55387200  0.49144800  0.08367900  1
  Li  Li15  1  0.91661300  0.97589100  0.75134500  1
  Li  Li16  1  0.50855200  0.06242400  0.75034600  1
  Li  Li17  1  0.94072100  0.91661300  0.58467900  1
  Li  Li18  1  0.55073900  0.06097700  0.08672800  1
  Li  Li19  1  0.53509400  0.01938000  0.42115600  1
  Li  Li20  1  0.98062000  0.51571400  0.08782200  1
  Li  Li21  1  0.93902300  0.48976200  0.75339500  1
  Li  Li22  1  0.93757600  0.44612800  0.41701200  1
  Li  Li23  1  0.97589100  0.05927900  0.91801200  1
  Cu  Cu0  1  0.14455600  0.83230900  0.68401300  1
  Cu  Cu1  1  0.19296900  0.89185300  0.00971400  1
  Cu  Cu2  1  0.18119300  0.78356900  0.37888000  1
  Cu  Cu3  1  0.10814700  0.30111500  0.67638100  1
  Cu  Cu4  1  0.32769300  0.67534800  0.81534100  1
  Cu  Cu5  1  0.32465200  0.65234500  0.48200800  1
  Cu  Cu6  1  0.34765500  0.67230700  0.14867500  1
  Cu  Cu7  1  0.16769100  0.31224700  0.35068000  1
  Cu  Cu8  1  0.21643100  0.39762300  0.04554700  1
  Cu  Cu9  1  0.60237700  0.81880700  0.71221400  1
  Cu  Cu10  1  0.30111500  0.19296900  0.84304800  1
  Cu  Cu11  1  0.31224700  0.14455600  0.51734700  1
  Cu  Cu12  1  0.68775300  0.85544400  0.01734700  1
  Cu  Cu13  1  0.69888500  0.80703100  0.34304800  1
  Cu  Cu14  1  0.39762300  0.18119300  0.21221400  1
  Cu  Cu15  1  0.78356900  0.60237700  0.54554700  1
  Cu  Cu16  1  0.83230900  0.68775300  0.85068000  1
  Cu  Cu17  1  0.65234500  0.32769300  0.64867500  1
  Cu  Cu18  1  0.67534800  0.34765500  0.98200800  1
  Cu  Cu19  1  0.67230700  0.32465200  0.31534100  1
  Cu  Cu20  1  0.89185300  0.69888500  0.17638100  1
  Cu  Cu21  1  0.81880700  0.21643100  0.87888000  1
  Cu  Cu22  1  0.80703100  0.10814700  0.50971400  1
  Cu  Cu23  1  0.85544400  0.16769100  0.18401300  1
  P  P0  1  0.17685400  0.85319700  0.81476400  1
  P  P1  1  0.12788700  0.77893400  0.50798100  1
  P  P2  1  0.22595900  0.88773700  0.14565800  1
  P  P3  1  0.11226300  0.33822200  0.81232400  1
  P  P4  1  0.32819700  0.68847100  0.00816200  1
  P  P5  1  0.14680300  0.32365700  0.48143100  1
  P  P6  1  0.31152900  0.63972600  0.67482800  1
  P  P7  1  0.36027400  0.67180300  0.34149500  1
  P  P8  1  0.22106600  0.34895300  0.17464800  1
  P  P9  1  0.65104700  0.87211300  0.84131500  1
  P  P10  1  0.33822200  0.22595900  0.97899100  1
  P  P11  1  0.32365700  0.17685400  0.64809700  1
  P  P12  1  0.67634300  0.82314600  0.14809700  1
  P  P13  1  0.66177800  0.77404100  0.47899100  1
  P  P14  1  0.34895300  0.12788700  0.34131500  1
  P  P15  1  0.77893400  0.65104700  0.67464800  1
  P  P16  1  0.63972600  0.32819700  0.84149500  1
  P  P17  1  0.68847100  0.36027400  0.17482800  1
  P  P18  1  0.85319700  0.67634300  0.98143100  1
  P  P19  1  0.67180300  0.31152900  0.50816200  1
  P  P20  1  0.88773700  0.66177800  0.31232400  1
  P  P21  1  0.77404100  0.11226300  0.64565800  1
  P  P22  1  0.87211300  0.22106600  0.00798100  1
  P  P23  1  0.82314600  0.14680300  0.31476400  1
  O  O0  1  0.01465800  0.71339900  0.80070200  1
  O  O1  1  0.15213100  0.97705700  0.84621100  1
  O  O2  1  0.01714200  0.68802200  0.55904400  1
  O  O3  1  0.13100700  0.93559000  0.49582500  1
  O  O4  1  0.19725400  0.99667900  0.18628400  1
  O  O5  1  0.07570000  0.72967200  0.13477700  1
  O  O6  1  0.06739100  0.67291300  0.45259100  1
  O  O7  1  0.26847700  0.91271800  0.75574300  1
  O  O8  1  0.28761900  0.97016500  0.08618800  1
  O  O9  1  0.15434000  0.63401400  0.68160800  1
  O  O10  1  0.20865900  0.71438100  0.97438000  1
  O  O11  1  0.27799300  0.81578000  0.85662700  1
  O  O12  1  0.21138200  0.65172700  0.31285100  1
  O  O13  1  0.29352600  0.81358300  0.52361600  1
  O  O14  1  0.02983500  0.31745400  0.75285500  1
  O  O15  1  0.35388000  0.86314700  0.17437700  1
  O  O16  1  0.13685300  0.49073300  0.84104300  1
  O  O17  1  0.00332100  0.20057400  0.85295000  1
  O  O18  1  0.08728200  0.35575900  0.42240900  1
  O  O19  1  0.02294300  0.17507300  0.51287800  1
  O  O20  1  0.25017900  0.61222500  0.06966000  1
  O  O21  1  0.06441000  0.19541700  0.16249200  1
  O  O22  1  0.18422000  0.46221300  0.52329300  1
  O  O23  1  0.18641700  0.47994300  0.19028200  1
  O  O24  1  0.36204600  0.74982100  0.40299300  1
  O  O25  1  0.28561900  0.49427700  0.64104700  1
  O  O26  1  0.38777500  0.63795400  0.73632700  1
  O  O27  1  0.34827300  0.55965400  0.97951800  1
  O  O28  1  0.44034600  0.78861800  0.64618500  1
  O  O29  1  0.47967400  0.84566000  0.01494200  1
  O  O30  1  0.36598600  0.52032600  0.34827500  1
  O  O31  1  0.17507300  0.15213100  0.67954400  1
  O  O32  1  0.20057400  0.19725400  0.01961700  1
  O  O33  1  0.27032800  0.34602800  0.80144400  1
  O  O34  1  0.32708700  0.39447800  0.11925800  1
  O  O35  1  0.50572300  0.79134100  0.30771400  1
  O  O36  1  0.19541700  0.13100700  0.32915800  1
  O  O37  1  0.28660100  0.30125900  0.46736900  1
  O  O38  1  0.31197800  0.32912000  0.22571100  1
  O  O39  1  0.52005700  0.70647400  0.85694900  1
  O  O40  1  0.60552200  0.93260900  0.78592500  1
  O  O41  1  0.53778700  0.72200700  0.18996000  1
  O  O42  1  0.31745400  0.28761900  0.91952200  1
  O  O43  1  0.67088000  0.98285800  0.89237700  1
  O  O44  1  0.50926700  0.64612000  0.50771000  1
  O  O45  1  0.35575900  0.26847700  0.58907600  1
  O  O46  1  0.65397200  0.92430000  0.46811000  1
  O  O47  1  0.69874100  0.98534200  0.13403500  1
  O  O48  1  0.30125900  0.01465800  0.63403500  1
  O  O49  1  0.34602800  0.07570000  0.96811000  1
  O  O50  1  0.64424100  0.73152300  0.08907600  1
  O  O51  1  0.49073300  0.35388000  0.00771000  1
  O  O52  1  0.32912000  0.01714200  0.39237700  1
  O  O53  1  0.68254600  0.71238100  0.41952200  1
  O  O54  1  0.46221300  0.27799300  0.68996000  1
  O  O55  1  0.39447800  0.06739100  0.28592500  1
  O  O56  1  0.47994300  0.29352600  0.35694900  1
  O  O57  1  0.68802200  0.67088000  0.72571100  1
  O  O58  1  0.71339900  0.69874100  0.96736900  1
  O  O59  1  0.80458300  0.86899300  0.82915800  1
  O  O60  1  0.49427700  0.20865900  0.80771400  1
  O  O61  1  0.67291300  0.60552200  0.61925800  1
  O  O62  1  0.72967200  0.65397200  0.30144400  1
  O  O63  1  0.79942600  0.80274600  0.51961700  1
  O  O64  1  0.82492700  0.84786900  0.17954400  1
  O  O65  1  0.63401400  0.47967400  0.84827500  1
  O  O66  1  0.52032600  0.15434000  0.51494200  1
  O  O67  1  0.55965400  0.21138200  0.14618500  1
  O  O68  1  0.65172700  0.44034600  0.47951800  1
  O  O69  1  0.61222500  0.36204600  0.23632700  1
  O  O70  1  0.71438100  0.50572300  0.14104700  1
  O  O71  1  0.63795400  0.25017900  0.90299300  1
  O  O72  1  0.81358300  0.52005700  0.69028200  1
  O  O73  1  0.81578000  0.53778700  0.02329300  1
  O  O74  1  0.93559000  0.80458300  0.66249200  1
  O  O75  1  0.74982100  0.38777500  0.56966000  1
  O  O76  1  0.97705700  0.82492700  0.01287800  1
  O  O77  1  0.91271800  0.64424100  0.92240900  1
  O  O78  1  0.99667900  0.79942600  0.35295000  1
  O  O79  1  0.86314700  0.50926700  0.34104300  1
  O  O80  1  0.64612000  0.13685300  0.67437700  1
  O  O81  1  0.97016500  0.68254600  0.25285500  1
  O  O82  1  0.70647400  0.18641700  0.02361600  1
  O  O83  1  0.78861800  0.34827300  0.81285100  1
  O  O84  1  0.72200700  0.18422000  0.35662700  1
  O  O85  1  0.79134100  0.28561900  0.47438000  1
  O  O86  1  0.84566000  0.36598600  0.18160800  1
  O  O87  1  0.71238100  0.02983500  0.58618800  1
  O  O88  1  0.73152300  0.08728200  0.25574300  1
  O  O89  1  0.93260900  0.32708700  0.95259100  1
  O  O90  1  0.92430000  0.27032800  0.63477700  1
  O  O91  1  0.80274600  0.00332100  0.68628400  1
  O  O92  1  0.86899300  0.06441000  0.99582500  1
  O  O93  1  0.98285800  0.31197800  0.05904400  1
  O  O94  1  0.84786900  0.02294300  0.34621100  1
  O  O95  1  0.98534200  0.28660100  0.30070200  1
loop_
_geom_bond_atom_site_label_1
_geom_bond_atom_site_label_2
_geom_bond_distance
_geom_bond_site_symmetry_2
Li0 O78 1.967579 1_455
Li0 O3 2.083294 1_555
Li1 O10 2.014505 1_555
Li1 O77 2.093958 1_455
Li1 O16 2.100669 1_555
Li1 O89 2.122927 1_455
Li2 O12 1.988914 1_555
Li2 O23 2.024649 1_555
Li2 O95 2.238382 1_455
Li2 O81 2.304023 1_455
Li2 O86 2.501846 1_455
Li3 O90 2.136052 1_455
Li3 O2 2.142129 1_555
Li3 O22 2.295127 1_555
Li3 O75 2.390705 1_455
Li3 O9 2.569251 1_555
Li4 O49 2.136041 1_565
Li4 O43 2.142136 1_555
Li4 O11 2.295127 1_555
Li4 O71 2.390709 1_565
Li4 O29 2.569251 1_556
Li5 O28 1.988933 1_555
Li5 O13 2.024633 1_555
Li5 O48 2.238382 1_565
Li5 O87 2.304023 1_565
Li5 O66 2.501831 1_565
Li6 O32 1.967584 1_555
Li6 O21 2.083299 1_555
Li7 O35 2.014509 1_555
Li7 O88 2.093958 1_565
Li7 O15 2.100669 1_555
Li7 O55 2.122927 1_565
Li8 O4 1.967575 1_545
Li8 O36 2.083296 1_555
Li9 O25 2.014502 1_555
Li9 O45 2.093958 1_555
Li9 O44 2.100669 1_555
Li9 O61 2.122927 1_555
Li10 O27 1.988910 1_555
Li10 O39 2.024649 1_555
Li10 O58 2.238382 1_555
Li10 O42 2.304023 1_555
Li10 O65 2.501846 1_555
Li11 O62 2.136052 1_555
Li11 O38 2.142129 1_555
Li11 O41 2.295127 1_555
Li11 O69 2.390705 1_555
Li11 O30 2.569251 1_555
Li12 O33 2.136052 1_555
Li12 O57 2.142129 1_555
Li12 O54 2.295127 1_555
Li12 O26 2.390705 1_555
Li12 O65 2.569251 1_555
Li13 O68 1.988910 1_555
Li13 O56 2.024649 1_555
Li13 O37 2.238382 1_555
Li13 O53 2.304023 1_555
Li13 O30 2.501846 1_555
Li14 O70 2.014502 1_555
Li14 O50 2.093958 1_555
Li14 O51 2.100669 1_555
Li14 O34 2.122927 1_555
Li15 O91 1.967575 1_565
Li15 O59 2.083296 1_555
Li16 O60 2.014509 1_555
Li16 O7 2.093958 1_545
Li16 O80 2.100669 1_555
Li16 O40 2.122927 1_545
Li17 O63 1.967584 1_555
Li17 O74 2.083299 1_555
Li18 O67 1.988933 1_555
Li18 O82 2.024633 1_555
Li18 O47 2.238382 1_545
Li18 O8 2.304023 1_545
Li18 O29 2.501831 1_545
Li19 O46 2.136041 1_545
Li19 O52 2.142136 1_555
Li19 O84 2.295127 1_555
Li19 O24 2.390709 1_545
Li19 O66 2.569251 1_555
Li20 O5 2.136052 1_655
Li20 O93 2.142129 1_555
Li20 O73 2.295127 1_555
Li20 O20 2.390705 1_655
Li20 O86 2.569251 1_555
Li21 O83 1.988914 1_555
Li21 O72 2.024649 1_555
Li21 O0 2.238382 1_655
Li21 O14 2.304023 1_655
Li21 O9 2.501846 1_655
Li22 O85 2.014505 1_555
Li22 O18 2.093958 1_655
Li22 O79 2.100669 1_555
Li22 O6 2.122927 1_655
Li23 O17 1.967579 1_655
Li23 O92 2.083294 1_555
Cu0 O7 1.962752 1_555
Cu0 O74 2.017201 1_455
Cu0 O9 2.024854 1_555
Cu0 O48 2.048376 1_565
Cu1 O76 1.906740 1_455
Cu1 O49 1.944828 1_564
Cu1 O8 1.950475 1_555
Cu1 O10 2.017470 1_554
Cu2 O78 2.009329 1_455
Cu2 O6 2.018949 1_555
Cu2 O52 2.060184 1_565
Cu2 O24 2.064044 1_555
Cu2 O12 2.115550 1_555
Cu3 O31 1.906720 1_555
Cu3 O90 1.944831 1_455
Cu3 O14 1.950478 1_555
Cu3 O25 2.017470 1_555
Cu4 O11 1.943424 1_555
Cu4 O16 1.959055 1_555
Cu4 O26 1.991948 1_555
Cu4 O39 2.017327 1_555
Cu5 O22 1.943413 1_555
Cu5 O44 1.959055 1_555
Cu5 O24 1.991969 1_555
Cu5 O13 2.017327 1_555
Cu6 O41 1.943413 1_555
Cu6 O15 1.959055 1_555
Cu6 O20 1.991969 1_555
Cu6 O23 2.017317 1_555
Cu7 O18 1.962733 1_555
Cu7 O36 2.017206 1_555
Cu7 O30 2.024854 1_555
Cu7 O95 2.048376 1_455
Cu8 O32 2.009310 1_555
Cu8 O34 2.018946 1_555
Cu8 O93 2.060186 1_455
Cu8 O20 2.064053 1_555
Cu8 O27 2.115550 1_554
Cu9 O91 2.009318 1_565
Cu9 O40 2.018951 1_555
Cu9 O57 2.060177 1_555
Cu9 O26 2.064050 1_555
Cu9 O28 2.115550 1_555
Cu10 O1 1.906735 1_545
Cu10 O33 1.944823 1_555
Cu10 O42 1.950473 1_555
Cu10 O60 2.017470 1_555
Cu11 O45 1.962733 1_555
Cu11 O3 2.017206 1_545
Cu11 O66 2.024854 1_555
Cu11 O37 2.048376 1_555
Cu12 O50 1.962733 1_555
Cu12 O92 2.017206 1_564
Cu12 O29 2.024854 1_555
Cu12 O58 2.048376 1_554
Cu13 O94 1.906735 1_565
Cu13 O62 1.944823 1_555
Cu13 O53 1.950473 1_555
Cu13 O35 2.017470 1_555
Cu14 O4 2.009318 1_545
Cu14 O55 2.018951 1_555
Cu14 O38 2.060177 1_555
Cu14 O69 2.064050 1_555
Cu14 O67 2.115550 1_555
Cu15 O63 2.009310 1_555
Cu15 O61 2.018946 1_555
Cu15 O2 2.060186 1_655
Cu15 O75 2.064053 1_555
Cu15 O68 2.115550 1_555
Cu16 O77 1.962733 1_555
Cu16 O59 2.017206 1_555
Cu16 O65 2.024854 1_555
Cu16 O0 2.048376 1_655
Cu17 O54 1.943413 1_555
Cu17 O80 1.959055 1_555
Cu17 O75 1.991969 1_555
Cu17 O72 2.017317 1_555
Cu18 O73 1.943413 1_556
Cu18 O51 1.959055 1_556
Cu18 O71 1.991969 1_555
Cu18 O82 2.017327 1_556
Cu19 O84 1.943424 1_555
Cu19 O79 1.959055 1_555
Cu19 O69 1.991948 1_555
Cu19 O56 2.017327 1_555
Cu20 O64 1.906720 1_555
Cu20 O5 1.944831 1_655
Cu20 O81 1.950478 1_555
Cu20 O70 2.017470 1_555
Cu21 O17 2.009329 1_655
Cu21 O89 2.018949 1_555
Cu21 O43 2.060184 1_545
Cu21 O71 2.064044 1_555
Cu21 O83 2.115550 1_555
Cu22 O19 1.906740 1_655
Cu22 O46 1.944828 1_545
Cu22 O87 1.950475 1_555
Cu22 O85 2.017470 1_555
Cu23 O88 1.962752 1_555
Cu23 O21 2.017201 1_655
Cu23 O86 2.024854 1_555
Cu23 O47 2.048376 1_545
O0 P0 1.548833 1_555
O1 P0 1.548664 1_555
O2 P1 1.547044 1_555
O3 P1 1.568637 1_555
O4 P2 1.557601 1_555
O5 P2 1.555804 1_555
O6 P1 1.561221 1_555
O7 P0 1.566923 1_555
O8 P2 1.544934 1_555
O9 P6 1.544654 1_555
O10 P4 1.543645 1_556
O11 P0 1.561729 1_555
O12 P7 1.538497 1_555
O13 P1 1.547767 1_555
O14 P3 1.544914 1_555
O15 P2 1.556228 1_555
O16 P3 1.556228 1_555
O17 P3 1.557606 1_555
O18 P5 1.566943 1_555
O19 P5 1.548670 1_555
O20 P4 1.599336 1_555
O21 P8 1.568637 1_555
O22 P5 1.561715 1_555
O23 P8 1.547761 1_555
O24 P7 1.599336 1_555
O25 P6 1.543642 1_555
O26 P6 1.599356 1_555
O27 P4 1.538506 1_556
O28 P6 1.538490 1_555
O29 P4 1.544654 1_555
O30 P7 1.544654 1_555
O31 P11 1.548673 1_555
O32 P10 1.557609 1_554
O33 P3 1.555800 1_555
O34 P8 1.561221 1_555
O35 P7 1.543639 1_555
O36 P14 1.568641 1_555
O37 P5 1.548833 1_555
O38 P8 1.547044 1_555
O39 P9 1.547761 1_555
O40 P9 1.561221 1_555
O41 P12 1.561729 1_555
O42 P10 1.544914 1_555
O43 P9 1.547027 1_555
O44 P13 1.556228 1_555
O45 P11 1.566923 1_555
O46 P13 1.555804 1_555
O47 P12 1.548833 1_555
O48 P11 1.548833 1_555
O49 P10 1.555804 1_555
O50 P12 1.566923 1_555
O51 P10 1.556228 1_554
O52 P14 1.547027 1_555
O53 P13 1.544914 1_555
O54 P11 1.561729 1_555
O55 P14 1.561221 1_555
O56 P14 1.547761 1_555
O57 P15 1.547044 1_555
O58 P18 1.548833 1_555
O59 P9 1.568641 1_555
O60 P16 1.543639 1_555
O61 P15 1.561221 1_555
O62 P20 1.555800 1_555
O63 P13 1.557609 1_555
O64 P12 1.548673 1_555
O65 P16 1.544654 1_555
O66 P19 1.544654 1_555
O67 P17 1.538490 1_555
O68 P19 1.538506 1_555
O69 P17 1.599356 1_555
O70 P17 1.543642 1_555
O71 P16 1.599336 1_555
O72 P15 1.547761 1_555
O73 P18 1.561715 1_554
O74 P15 1.568637 1_555
O75 P19 1.599336 1_555
O76 P18 1.548670 1_554
O77 P18 1.566943 1_555
O78 P20 1.557606 1_555
O79 P20 1.556228 1_555
O80 P21 1.556228 1_555
O81 P20 1.544914 1_555
O82 P22 1.547767 1_555
O83 P16 1.538497 1_555
O84 P23 1.561729 1_555
O85 P19 1.543645 1_555
O86 P17 1.544654 1_555
O87 P21 1.544934 1_555
O88 P23 1.566923 1_555
O89 P22 1.561221 1_556
O90 P21 1.555804 1_555
O91 P21 1.557601 1_555
O92 P22 1.568637 1_556
O93 P22 1.547044 1_555
O94 P23 1.548664 1_555
O95 P23 1.548833 1_555
