# generated using pymatgen
data_NaLi2MnPCO7
_symmetry_space_group_name_H-M   'P 1'
_cell_length_a   5.12942977
_cell_length_b   8.70916585
_cell_length_c   6.70098455
_cell_angle_alpha   88.28534649
_cell_angle_beta   90.62091200
_cell_angle_gamma   88.04294909
_symmetry_Int_Tables_number   1
_chemical_formula_structural   NaLi2MnPCO7
_chemical_formula_sum   'Na2 Li4 Mn2 P2 C2 O14'
_cell_volume   299.02380668
_cell_formula_units_Z   2
loop_
 _symmetry_equiv_pos_site_id
 _symmetry_equiv_pos_as_xyz
  1  'x, y, z'
loop_
 _atom_site_type_symbol
 _atom_site_label
 _atom_site_symmetry_multiplicity
 _atom_site_fract_x
 _atom_site_fract_y
 _atom_site_fract_z
 _atom_site_occupancy
  Na  Na0  1  0.74615800  0.08827400  0.24075200  1
  Na  Na1  1  0.75264100  0.75056300  0.49943100  1
  Li  Li0  1  0.22554200  0.28108600  0.03353400  1
  Li  Li1  1  0.22931300  0.27477200  0.46820400  1
  Li  Li2  1  0.77700300  0.71631800  0.95827100  1
  Li  Li3  1  0.24855200  0.90669300  0.78953300  1
  Mn  Mn0  1  0.22945200  0.65096900  0.23865000  1
  Mn  Mn1  1  0.78333500  0.34972600  0.74781400  1
  P  P0  1  0.72301700  0.41824100  0.24112100  1
  P  P1  1  0.29409200  0.58266000  0.74901500  1
  C  C0  1  0.71916900  0.03651700  0.76430900  1
  C  C1  1  0.26167100  0.95814500  0.25369900  1
  O  O0  1  0.27748000  0.10737200  0.25620600  1
  O  O1  1  0.96519300  0.06607000  0.76214500  1
  O  O2  1  0.54453300  0.14897500  0.74773900  1
  O  O3  1  0.82621500  0.32137000  0.06573200  1
  O  O4  1  0.83560300  0.33436800  0.43285400  1
  O  O5  1  0.41648700  0.41966800  0.24384600  1
  O  O6  1  0.19440200  0.41558600  0.75977900  1
  O  O7  1  0.80990400  0.58678300  0.22298900  1
  O  O8  1  0.59790600  0.57213300  0.76809300  1
  O  O9  1  0.21144400  0.66980400  0.55320700  1
  O  O10  1  0.18057300  0.68410300  0.91891100  1
  O  O11  1  0.47165600  0.87037900  0.24968200  1
  O  O12  1  0.03805400  0.89329600  0.25168900  1
  O  O13  1  0.64060400  0.89612900  0.78279400  1
loop_
_geom_bond_atom_site_label_1
_geom_bond_atom_site_label_2
_geom_bond_distance
_geom_bond_site_symmetry_2
Na0 O12 2.224232 1_645
Na0 O3 2.364359 1_555
Na0 O11 2.401018 1_545
Na0 O0 2.407689 1_555
Na0 O4 2.584697 1_555
Na0 O0 2.737143 1_655
Na1 O13 2.379266 1_555
Na1 O7 2.386141 1_555
Na1 O11 2.389041 1_555
Na1 O9 2.452840 1_655
Na1 O8 2.496733 1_555
Na1 O12 2.549124 1_655
Na1 O9 2.910459 1_555
Li0 O3 2.080932 1_455
Li0 O0 2.101200 1_555
Li0 O5 2.134179 1_555
Li0 O6 2.148268 1_554
Li1 O0 2.076438 1_555
Li1 O4 2.077161 1_455
Li1 O5 2.185178 1_555
Li1 O6 2.342973 1_555
Li2 O13 2.030193 1_555
Li2 O8 2.047934 1_555
Li2 O7 2.075706 1_556
Li2 O10 2.100029 1_655
Li3 O1 1.978407 1_465
Li3 O13 2.011024 1_555
Li3 O10 2.140892 1_555
Mn0 O9 2.121866 1_555
Mn0 O10 2.164056 1_554
Mn0 O5 2.200607 1_555
Mn0 O7 2.244007 1_455
Mn0 O12 2.301507 1_555
Mn0 O11 2.317112 1_555
Mn1 O8 2.137230 1_555
Mn1 O4 2.137959 1_555
Mn1 O3 2.145336 1_556
Mn1 O2 2.168767 1_555
Mn1 O6 2.205235 1_655
Mn1 O1 2.609361 1_555
C0 O1 1.296674 1_555
C0 O13 1.303197 1_545
C0 O2 1.305919 1_555
C1 O12 1.295839 1_555
C1 O11 1.300293 1_555
C1 O0 1.305528 1_565
O3 P0 1.554213 1_555
O4 P0 1.554587 1_555
O5 P0 1.572257 1_555
O6 P1 1.558610 1_555
O7 P0 1.550223 1_555
O8 P1 1.561588 1_555
O9 P1 1.543933 1_555
O10 P1 1.566889 1_555
