# generated using pymatgen
data_V3Bi2(PO4)6
_symmetry_space_group_name_H-M   'P 1'
_cell_length_a   8.81830767
_cell_length_b   8.81830767
_cell_length_c   8.81830796
_cell_angle_alpha   59.33321210
_cell_angle_beta   59.33321210
_cell_angle_gamma   59.33321502
_symmetry_Int_Tables_number   1
_chemical_formula_structural   V3Bi2(PO4)6
_chemical_formula_sum   'V3 Bi2 P6 O24'
_cell_volume   477.52676181
_cell_formula_units_Z   1
loop_
 _symmetry_equiv_pos_site_id
 _symmetry_equiv_pos_as_xyz
  1  'x, y, z'
loop_
 _atom_site_type_symbol
 _atom_site_label
 _atom_site_symmetry_multiplicity
 _atom_site_fract_x
 _atom_site_fract_y
 _atom_site_fract_z
 _atom_site_occupancy
  V  V0  1  0.64845000  0.64845000  0.64845000  1
  V  V1  1  0.85881000  0.85881000  0.85881000  1
  V  V2  1  0.34382400  0.34382400  0.34382400  1
  Bi  Bi0  1  0.02235600  0.02235600  0.02235600  1
  Bi  Bi1  1  0.49883500  0.49883500  0.49883500  1
  P  P0  1  0.24768800  0.53899500  0.94785000  1
  P  P1  1  0.94785000  0.24768800  0.53899500  1
  P  P2  1  0.53899500  0.94785000  0.24768800  1
  P  P3  1  0.47639200  0.03998000  0.73749300  1
  P  P4  1  0.03998000  0.73749300  0.47639200  1
  P  P5  1  0.73749300  0.47639200  0.03998000  1
  O  O0  1  0.12166200  0.29262000  0.49795800  1
  O  O1  1  0.49795800  0.12166200  0.29261900  1
  O  O2  1  0.29261900  0.49795800  0.12166200  1
  O  O3  1  0.07659700  0.72767800  0.94511500  1
  O  O4  1  0.41337300  0.59608700  0.76305900  1
  O  O5  1  0.22720800  0.38383900  0.94455400  1
  O  O6  1  0.94511500  0.07659700  0.72767800  1
  O  O7  1  0.76305900  0.41337300  0.59608700  1
  O  O8  1  0.59608700  0.76305900  0.41337300  1
  O  O9  1  0.63798700  0.01079500  0.78329100  1
  O  O10  1  0.29425800  0.05097100  0.90292000  1
  O  O11  1  0.01079500  0.78329100  0.63798700  1
  O  O12  1  0.94455400  0.22720800  0.38383900  1
  O  O13  1  0.72767800  0.94511500  0.07659700  1
  O  O14  1  0.38383900  0.94455400  0.22720800  1
  O  O15  1  0.45283300  0.22707900  0.56611400  1
  O  O16  1  0.22707900  0.56611400  0.45283300  1
  O  O17  1  0.05097100  0.90292000  0.29425800  1
  O  O18  1  0.78329100  0.63798700  0.01079500  1
  O  O19  1  0.56611400  0.45283300  0.22707900  1
  O  O20  1  0.90292000  0.29425800  0.05097100  1
  O  O21  1  0.67330300  0.51975600  0.88515900  1
  O  O22  1  0.51975600  0.88515900  0.67330300  1
  O  O23  1  0.88515900  0.67330300  0.51975600  1
loop_
_geom_bond_atom_site_label_1
_geom_bond_atom_site_label_2
_geom_bond_distance
_geom_bond_site_symmetry_2
Bi0 O10 2.166105 1_554
Bi0 O20 2.166105 1_455
Bi0 O17 2.166105 1_545
Bi0 O13 2.765961 1_445
Bi0 O3 2.765961 1_544
Bi0 O6 2.765961 1_454
Bi1 O15 2.356956 1_555
Bi1 O16 2.356956 1_555
Bi1 O19 2.356956 1_555
Bi1 O8 2.513999 1_555
Bi1 O7 2.513999 1_555
Bi1 O4 2.513999 1_555
O0 P1 1.595193 1_455
O0 V2 1.857249 1_555
O1 P2 1.595187 1_545
O1 V2 1.857252 1_555
O2 P0 1.595188 1_554
O2 V2 1.857252 1_555
O3 P0 1.575033 1_555
O3 V1 1.983076 1_455
O4 P0 1.590082 1_555
O4 V0 1.973606 1_555
O5 P0 1.484403 1_555
O6 P1 1.575033 1_555
O6 V1 1.983076 1_545
O7 P1 1.590082 1_555
O7 V0 1.973606 1_555
O8 P2 1.590082 1_555
O8 V0 1.973606 1_555
O9 P3 1.538465 1_555
O9 V1 1.944679 1_545
O10 P3 1.520672 1_555
O11 P4 1.538465 1_555
O11 V1 1.944679 1_455
O12 P1 1.484403 1_555
O13 P2 1.575033 1_555
O13 V1 1.983076 1_554
O14 P2 1.484403 1_555
O15 P3 1.573643 1_555
O15 V2 2.163437 1_555
O16 P4 1.573643 1_555
O16 V2 2.163437 1_555
O17 P4 1.520672 1_555
O18 P5 1.538465 1_555
O18 V1 1.944679 1_554
O19 P5 1.573643 1_555
O19 V2 2.163437 1_555
O20 P5 1.520672 1_555
O21 P5 1.538029 1_556
O21 V0 1.868033 1_555
O22 P3 1.538029 1_565
O22 V0 1.868033 1_555
O23 P4 1.538029 1_655
O23 V0 1.868033 1_555
