# generated using pymatgen
data_LiMnF3
_symmetry_space_group_name_H-M   'P 1'
_cell_length_a   5.25899800
_cell_length_b   5.41406700
_cell_length_c   8.44338600
_cell_angle_alpha   90.00000000
_cell_angle_beta   90.00000000
_cell_angle_gamma   90.00000000
_symmetry_Int_Tables_number   1
_chemical_formula_structural   LiMnF3
_chemical_formula_sum   'Li4 Mn4 F12'
_cell_volume   240.40487802
_cell_formula_units_Z   4
loop_
 _symmetry_equiv_pos_site_id
 _symmetry_equiv_pos_as_xyz
  1  'x, y, z'
loop_
 _atom_site_type_symbol
 _atom_site_label
 _atom_site_symmetry_multiplicity
 _atom_site_fract_x
 _atom_site_fract_y
 _atom_site_fract_z
 _atom_site_occupancy
  Li  Li0  1  0.51683100  0.13058000  0.00522800  1
  Li  Li1  1  0.01683100  0.63058000  0.49477200  1
  Li  Li2  1  0.51683100  0.36942000  0.50522800  1
  Li  Li3  1  0.01683100  0.86942000  0.99477200  1
  Mn  Mn0  1  0.55285600  0.64448400  0.17510500  1
  Mn  Mn1  1  0.05285600  0.14448400  0.32489500  1
  Mn  Mn2  1  0.55285600  0.85551600  0.67510500  1
  Mn  Mn3  1  0.05285600  0.35551600  0.82489500  1
  F  F0  1  0.34396700  0.43668700  0.00616700  1
  F  F1  1  0.27807500  0.94202100  0.15811900  1
  F  F2  1  0.77499900  0.99137000  0.15727100  1
  F  F3  1  0.27499900  0.49137000  0.34272900  1
  F  F4  1  0.77807500  0.44202100  0.34188100  1
  F  F5  1  0.84396700  0.93668700  0.49383300  1
  F  F6  1  0.34396700  0.06331300  0.50616700  1
  F  F7  1  0.27807500  0.55797900  0.65811900  1
  F  F8  1  0.77499900  0.50863000  0.65727100  1
  F  F9  1  0.27499900  0.00863000  0.84272900  1
  F  F10  1  0.77807500  0.05797900  0.84188100  1
  F  F11  1  0.84396700  0.56331300  0.99383300  1
loop_
_geom_bond_atom_site_label_1
_geom_bond_atom_site_label_2
_geom_bond_distance
_geom_bond_site_symmetry_2
F0 Li0 1.890264 1_555
F0 Mn0 2.123001 1_555
F0 Mn3 2.208965 1_554
F1 Li3 1.986014 1_554
F1 Li0 2.070078 1_565
F1 Mn1 2.141799 1_565
F1 Mn0 2.168814 1_555
F2 Li3 1.983906 1_654
F2 Li0 2.014807 1_565
F2 Mn1 2.196714 1_665
F2 Mn0 2.216891 1_555
F3 Li2 1.983906 1_555
F3 Li1 2.014807 1_555
F3 Mn0 2.196714 1_555
F3 Mn1 2.216891 1_555
F4 Li2 1.986014 1_555
F4 Li1 2.070078 1_655
F4 Mn0 2.141799 1_555
F4 Mn1 2.168814 1_655
F5 Li1 1.890264 1_655
F5 Mn1 2.123001 1_665
F5 Mn2 2.208965 1_555
F6 Li2 1.890264 1_555
F6 Mn2 2.123001 1_545
F6 Mn1 2.208965 1_555
F7 Li1 1.986014 1_555
F7 Li2 2.070078 1_555
F7 Mn3 2.141799 1_555
F7 Mn2 2.168814 1_555
F8 Li1 1.983906 1_655
F8 Li2 2.014807 1_555
F8 Mn3 2.196714 1_655
F8 Mn2 2.216891 1_555
F9 Li0 1.983906 1_556
F9 Li3 2.014807 1_545
F9 Mn2 2.196714 1_545
F9 Mn3 2.216891 1_555
F10 Li0 1.986014 1_556
F10 Li3 2.070078 1_645
F10 Mn2 2.141799 1_545
F10 Mn3 2.168814 1_655
F11 Li3 1.890264 1_655
F11 Mn3 2.123001 1_655
F11 Mn0 2.208965 1_556
