# generated using pymatgen
data_Li3Mn4(BO3)4
_symmetry_space_group_name_H-M   'P 1'
_cell_length_a   6.19275200
_cell_length_b   9.07713544
_cell_length_c   9.67224295
_cell_angle_alpha   78.03873525
_cell_angle_beta   80.14275177
_cell_angle_gamma   72.81904888
_symmetry_Int_Tables_number   1
_chemical_formula_structural   Li3Mn4(BO3)4
_chemical_formula_sum   'Li6 Mn8 B8 O24'
_cell_volume   504.63056954
_cell_formula_units_Z   2
loop_
 _symmetry_equiv_pos_site_id
 _symmetry_equiv_pos_as_xyz
  1  'x, y, z'
loop_
 _atom_site_type_symbol
 _atom_site_label
 _atom_site_symmetry_multiplicity
 _atom_site_fract_x
 _atom_site_fract_y
 _atom_site_fract_z
 _atom_site_occupancy
  Li  Li0  1  0.31921600  0.61873400  0.99885600  1
  Li  Li1  1  0.41387000  0.89270200  0.24251900  1
  Li  Li2  1  0.18577100  0.38216700  0.50012300  1
  Li  Li3  1  0.81422900  0.61783300  0.49987700  1
  Li  Li4  1  0.58613000  0.10729800  0.75748100  1
  Li  Li5  1  0.68078400  0.38126600  0.00114400  1
  Mn  Mn0  1  0.01205100  0.81218400  0.22331000  1
  Mn  Mn1  1  0.21830600  0.70743100  0.53338000  1
  Mn  Mn2  1  0.73522800  0.70888400  0.02072200  1
  Mn  Mn3  1  0.53532400  0.79555100  0.71630100  1
  Mn  Mn4  1  0.46467600  0.20444900  0.28369900  1
  Mn  Mn5  1  0.26477200  0.29111600  0.97927800  1
  Mn  Mn6  1  0.78169400  0.29256900  0.46662000  1
  Mn  Mn7  1  0.98794900  0.18781600  0.77669000  1
  B  B0  1  0.04739900  0.47038600  0.23232300  1
  B  B1  1  0.46609900  0.54074100  0.26926700  1
  B  B2  1  0.28656100  0.96054800  0.97037900  1
  B  B3  1  0.75759800  0.96670200  0.47733900  1
  B  B4  1  0.24240200  0.03329800  0.52266100  1
  B  B5  1  0.71343900  0.03945200  0.02962100  1
  B  B6  1  0.53390100  0.45925900  0.73073300  1
  B  B7  1  0.95260100  0.52961400  0.76767700  1
  O  O0  1  0.18667200  0.96568400  0.10678800  1
  O  O1  1  0.03876500  0.60585200  0.13151300  1
  O  O2  1  0.25462100  0.89414200  0.62241200  1
  O  O3  1  0.70337600  0.90011000  0.12368600  1
  O  O4  1  0.35507500  0.68012600  0.31988800  1
  O  O5  1  0.18637400  0.32838000  0.19280900  1
  O  O6  1  0.06661500  0.52601800  0.63283500  1
  O  O7  1  0.57056400  0.53559100  0.13219700  1
  O  O8  1  0.65275500  0.97707800  0.61333100  1
  O  O9  1  0.46134200  0.39884500  0.36336400  1
  O  O10  1  0.11376900  0.17614300  0.56059200  1
  O  O11  1  0.39606300  0.81839200  0.92259800  1
  O  O12  1  0.60393700  0.18160800  0.07740200  1
  O  O13  1  0.88623100  0.82385700  0.43940800  1
  O  O14  1  0.53865800  0.60115500  0.63663600  1
  O  O15  1  0.34724500  0.02292200  0.38666900  1
  O  O16  1  0.42943600  0.46440900  0.86780300  1
  O  O17  1  0.93338500  0.47398200  0.36716500  1
  O  O18  1  0.81362600  0.67162000  0.80719100  1
  O  O19  1  0.64492500  0.31987400  0.68011200  1
  O  O20  1  0.29662400  0.09989000  0.87631400  1
  O  O21  1  0.74537900  0.10585800  0.37758800  1
  O  O22  1  0.96123500  0.39414800  0.86848700  1
  O  O23  1  0.81332800  0.03431600  0.89321200  1
loop_
_geom_bond_atom_site_label_1
_geom_bond_atom_site_label_2
_geom_bond_distance
_geom_bond_site_symmetry_2
Li0 O11 1.972382 1_555
Li0 O16 1.977338 1_555
Li0 O1 1.992773 1_556
Li0 O7 2.060486 1_556
Li1 O15 1.925978 1_565
Li1 O0 1.965514 1_555
Li1 O3 1.968124 1_555
Li1 O4 2.034478 1_555
Li2 O6 1.923120 1_555
Li2 O9 1.995407 1_555
Li2 O10 1.997039 1_555
Li2 O17 2.065340 1_455
Li3 O17 1.923120 1_555
Li3 O14 1.995407 1_555
Li3 O13 1.997039 1_555
Li3 O6 2.065340 1_655
Li4 O8 1.925978 1_545
Li4 O23 1.965514 1_555
Li4 O20 1.968124 1_555
Li4 O19 2.034478 1_555
Li5 O12 1.972382 1_555
Li5 O7 1.977338 1_555
Li5 O22 1.992773 1_554
Li5 O16 2.060486 1_554
Mn0 O0 2.050108 1_555
Mn0 O13 2.114826 1_455
Mn0 O3 2.151761 1_455
Mn0 O1 2.186187 1_555
Mn0 O4 2.352214 1_555
Mn1 O6 2.113608 1_555
Mn1 O4 2.128873 1_555
Mn1 O2 2.135629 1_555
Mn1 O14 2.238782 1_555
Mn1 O13 2.264927 1_455
Mn2 O18 2.113035 1_554
Mn2 O3 2.119116 1_555
Mn2 O7 2.131876 1_555
Mn2 O1 2.189075 1_655
Mn2 O11 2.314822 1_554
Mn3 O2 1.982904 1_555
Mn3 O18 1.993003 1_555
Mn3 O8 2.003881 1_555
Mn3 O14 2.060203 1_555
Mn3 O11 2.060300 1_555
Mn4 O21 1.982904 1_555
Mn4 O5 1.993003 1_555
Mn4 O15 2.003881 1_555
Mn4 O9 2.060203 1_555
Mn4 O12 2.060300 1_555
Mn5 O5 2.113035 1_556
Mn5 O20 2.119116 1_555
Mn5 O16 2.131876 1_555
Mn5 O22 2.189075 1_455
Mn5 O12 2.314822 1_556
Mn6 O17 2.113608 1_555
Mn6 O19 2.128873 1_555
Mn6 O21 2.135629 1_555
Mn6 O9 2.238782 1_555
Mn6 O10 2.264927 1_655
Mn7 O23 2.050108 1_555
Mn7 O10 2.114826 1_655
Mn7 O20 2.151761 1_655
Mn7 O22 2.186187 1_555
Mn7 O19 2.352214 1_555
B0 O17 1.374528 1_455
B0 O1 1.395584 1_555
B0 O5 1.408721 1_555
B1 O7 1.375696 1_555
B1 O4 1.393131 1_555
B1 O9 1.419685 1_555
B2 O0 1.361840 1_556
B2 O11 1.400506 1_555
B2 O20 1.407694 1_565
B3 O8 1.372362 1_555
B3 O13 1.391869 1_555
B3 O21 1.412619 1_565
B4 O15 1.372362 1_555
B4 O10 1.391869 1_555
B4 O2 1.412619 1_545
B5 O23 1.361840 1_554
B5 O12 1.400506 1_555
B5 O3 1.407694 1_545
B6 O16 1.375696 1_555
B6 O19 1.393131 1_555
B6 O14 1.419685 1_555
B7 O6 1.374528 1_655
B7 O22 1.395584 1_555
B7 O18 1.408721 1_555
