# generated using pymatgen
data_Li4V(PO4)2
_symmetry_space_group_name_H-M   'P 1'
_cell_length_a   10.35666500
_cell_length_b   8.31851200
_cell_length_c   8.50604949
_cell_angle_alpha   72.12363790
_cell_angle_beta   90.00000000
_cell_angle_gamma   90.00000000
_symmetry_Int_Tables_number   1
_chemical_formula_structural   Li4V(PO4)2
_chemical_formula_sum   'Li16 V4 P8 O32'
_cell_volume   697.43412150
_cell_formula_units_Z   4
loop_
 _symmetry_equiv_pos_site_id
 _symmetry_equiv_pos_as_xyz
  1  'x, y, z'
loop_
 _atom_site_type_symbol
 _atom_site_label
 _atom_site_symmetry_multiplicity
 _atom_site_fract_x
 _atom_site_fract_y
 _atom_site_fract_z
 _atom_site_occupancy
  Li  Li0  1  0.65992400  0.39992600  0.10249500  1
  Li  Li1  1  0.16043600  0.34725700  0.15924700  1
  Li  Li2  1  0.33817000  0.84237300  0.14231400  1
  Li  Li3  1  0.42641100  0.51640500  0.24087700  1
  Li  Li4  1  0.92641100  0.48359500  0.25912300  1
  Li  Li5  1  0.83817000  0.15762700  0.35768600  1
  Li  Li6  1  0.66043600  0.65274300  0.34075300  1
  Li  Li7  1  0.15992400  0.60007400  0.39750500  1
  Li  Li8  1  0.84007600  0.39992600  0.60249500  1
  Li  Li9  1  0.33956400  0.34725700  0.65924700  1
  Li  Li10  1  0.16183000  0.84237300  0.64231400  1
  Li  Li11  1  0.07358900  0.51640500  0.74087700  1
  Li  Li12  1  0.57358900  0.48359500  0.75912300  1
  Li  Li13  1  0.66183000  0.15762700  0.85768600  1
  Li  Li14  1  0.83956400  0.65274300  0.84075300  1
  Li  Li15  1  0.34007600  0.60007400  0.89750500  1
  V  V0  1  0.85611800  0.88019900  0.12792700  1
  V  V1  1  0.35611800  0.11980100  0.37207300  1
  V  V2  1  0.64388200  0.88019900  0.62792700  1
  V  V3  1  0.14388200  0.11980100  0.87207300  1
  P  P0  1  0.41575800  0.22276900  0.03640900  1
  P  P1  1  0.09227200  0.71025200  0.01749200  1
  P  P2  1  0.59227200  0.28974800  0.48250800  1
  P  P3  1  0.08424200  0.22276900  0.53640900  1
  P  P4  1  0.91575800  0.77723100  0.46359100  1
  P  P5  1  0.40772800  0.71025200  0.51749200  1
  P  P6  1  0.90772800  0.28974800  0.98250800  1
  P  P7  1  0.58424200  0.77723100  0.96359100  1
  O  O0  1  0.05452800  0.25528000  0.01878000  1
  O  O1  1  0.35659100  0.34563800  0.12806200  1
  O  O2  1  0.41605900  0.04457200  0.16832600  1
  O  O3  1  0.44773600  0.71439500  0.02630900  1
  O  O4  1  0.84490000  0.34210900  0.12592300  1
  O  O5  1  0.16042000  0.86931800  0.03911800  1
  O  O6  1  0.67226600  0.78043000  0.10839800  1
  O  O7  1  0.10580300  0.56482600  0.18401400  1
  O  O8  1  0.60580300  0.43517400  0.31598600  1
  O  O9  1  0.17226600  0.21957000  0.39160200  1
  O  O10  1  0.66042000  0.13068200  0.46088200  1
  O  O11  1  0.34490000  0.65789100  0.37407700  1
  O  O12  1  0.94773600  0.28560500  0.47369100  1
  O  O13  1  0.91605900  0.95542800  0.33167400  1
  O  O14  1  0.44547200  0.25528000  0.51878000  1
  O  O15  1  0.85659100  0.65436200  0.37193800  1
  O  O16  1  0.14340900  0.34563800  0.62806200  1
  O  O17  1  0.55452800  0.74472000  0.48122000  1
  O  O18  1  0.08394100  0.04457200  0.66832600  1
  O  O19  1  0.05226400  0.71439500  0.52630900  1
  O  O20  1  0.65510000  0.34210900  0.62592300  1
  O  O21  1  0.33958000  0.86931800  0.53911800  1
  O  O22  1  0.82773400  0.78043000  0.60839800  1
  O  O23  1  0.39419700  0.56482600  0.68401400  1
  O  O24  1  0.89419700  0.43517400  0.81598600  1
  O  O25  1  0.32773400  0.21957000  0.89160200  1
  O  O26  1  0.83958000  0.13068200  0.96088200  1
  O  O27  1  0.15510000  0.65789100  0.87407700  1
  O  O28  1  0.55226400  0.28560500  0.97369100  1
  O  O29  1  0.58394100  0.95542800  0.83167400  1
  O  O30  1  0.64340900  0.65436200  0.87193800  1
  O  O31  1  0.94547200  0.74472000  0.98122000  1
loop_
_geom_bond_atom_site_label_1
_geom_bond_atom_site_label_2
_geom_bond_distance
_geom_bond_site_symmetry_2
Li0 O4 1.970336 1_555
Li0 O28 1.996900 1_554
Li0 O8 2.006183 1_555
Li0 O30 2.409708 1_554
Li1 O9 1.939238 1_555
Li1 O0 1.943531 1_555
Li1 O7 1.968290 1_555
Li1 O1 2.049336 1_555
Li2 O2 1.938364 1_565
Li2 O3 2.009865 1_555
Li2 O5 2.022095 1_555
Li2 O11 2.094980 1_555
Li3 O8 2.012842 1_555
Li3 O11 2.049447 1_555
Li3 O3 2.060819 1_555
Li3 O1 2.073283 1_555
Li4 O7 2.012842 1_655
Li4 O4 2.049447 1_555
Li4 O12 2.060819 1_555
Li4 O15 2.073283 1_555
Li5 O13 1.938364 1_545
Li5 O12 2.009865 1_555
Li5 O10 2.022095 1_555
Li5 O4 2.094980 1_555
Li6 O6 1.939238 1_555
Li6 O17 1.943531 1_555
Li6 O8 1.968290 1_555
Li6 O15 2.049336 1_555
Li7 O11 1.970336 1_555
Li7 O19 1.996900 1_555
Li7 O7 2.006183 1_555
Li7 O16 2.409708 1_555
Li8 O20 1.970336 1_555
Li8 O12 1.996900 1_555
Li8 O24 2.006183 1_555
Li8 O15 2.409708 1_555
Li9 O25 1.939238 1_555
Li9 O14 1.943531 1_555
Li9 O23 1.968290 1_555
Li9 O16 2.049336 1_555
Li10 O18 1.938364 1_565
Li10 O19 2.009865 1_555
Li10 O21 2.022095 1_555
Li10 O27 2.094980 1_555
Li11 O24 2.012842 1_455
Li11 O27 2.049447 1_555
Li11 O19 2.060819 1_555
Li11 O16 2.073283 1_555
Li12 O23 2.012842 1_555
Li12 O20 2.049447 1_555
Li12 O28 2.060819 1_555
Li12 O30 2.073283 1_555
Li13 O29 1.938364 1_545
Li13 O28 2.009865 1_555
Li13 O26 2.022095 1_555
Li13 O20 2.094980 1_555
Li14 O22 1.939238 1_555
Li14 O31 1.943531 1_555
Li14 O24 1.968290 1_555
Li14 O30 2.049336 1_555
Li15 O27 1.970336 1_555
Li15 O3 1.996900 1_556
Li15 O23 2.006183 1_555
Li15 O1 2.409708 1_556
O0 P6 1.560314 1_454
O0 V3 2.132399 1_554
O1 P0 1.586546 1_555
O1 V1 2.333112 1_555
O2 P0 1.560532 1_555
O2 V1 2.108650 1_555
O3 P7 1.544444 1_554
O4 P6 1.558032 1_554
O5 P1 1.559565 1_555
O5 V3 2.138278 1_564
O6 P7 1.539182 1_554
O6 V0 2.103946 1_555
O7 P1 1.561224 1_555
O8 P2 1.561224 1_555
O9 P3 1.539182 1_555
O9 V1 2.103946 1_555
O10 P2 1.559565 1_555
O10 V2 2.138278 1_545
O11 P5 1.558032 1_555
O12 P3 1.544444 1_655
O13 P4 1.560532 1_555
O13 V0 2.108650 1_555
O14 P2 1.560314 1_555
O14 V1 2.132399 1_555
O15 P4 1.586546 1_555
O15 V0 2.333112 1_555
O16 P3 1.586546 1_555
O16 V3 2.333112 1_555
O17 P5 1.560314 1_555
O17 V2 2.132399 1_555
O18 P3 1.560532 1_555
O18 V3 2.108650 1_555
O19 P4 1.544444 1_455
O20 P2 1.558032 1_555
O21 P5 1.559565 1_555
O21 V1 2.138278 1_565
O22 P4 1.539182 1_555
O22 V2 2.103946 1_555
O23 P5 1.561224 1_555
O24 P6 1.561224 1_555
O25 P0 1.539182 1_556
O25 V3 2.103946 1_555
O26 P6 1.559565 1_555
O26 V0 2.138278 1_546
O27 P1 1.558032 1_556
O28 P0 1.544444 1_556
O29 P7 1.560532 1_555
O29 V2 2.108650 1_555
O30 P7 1.586546 1_555
O30 V2 2.333112 1_555
O31 P1 1.560314 1_656
O31 V0 2.132399 1_556
