# generated using pymatgen
data_Mn3Ni2Sb(PO4)6
_symmetry_space_group_name_H-M   'P 1'
_cell_length_a   8.53986256
_cell_length_b   8.53986256
_cell_length_c   8.53986293
_cell_angle_alpha   61.02899166
_cell_angle_beta   61.02899166
_cell_angle_gamma   61.02898623
_symmetry_Int_Tables_number   1
_chemical_formula_structural   Mn3Ni2Sb(PO4)6
_chemical_formula_sum   'Mn3 Ni2 Sb1 P6 O24'
_cell_volume   450.59552027
_cell_formula_units_Z   1
loop_
 _symmetry_equiv_pos_site_id
 _symmetry_equiv_pos_as_xyz
  1  'x, y, z'
loop_
 _atom_site_type_symbol
 _atom_site_label
 _atom_site_symmetry_multiplicity
 _atom_site_fract_x
 _atom_site_fract_y
 _atom_site_fract_z
 _atom_site_occupancy
  Mn  Mn0  1  0.85525400  0.85525400  0.85525400  1
  Mn  Mn1  1  0.64425300  0.64425300  0.64425300  1
  Mn  Mn2  1  0.35736700  0.35736700  0.35736700  1
  Ni  Ni0  1  0.99476300  0.99476300  0.99476300  1
  Ni  Ni1  1  0.50066900  0.50066900  0.50066900  1
  Sb  Sb0  1  0.14284400  0.14284400  0.14284400  1
  P  P0  1  0.95220000  0.25241100  0.54874000  1
  P  P1  1  0.54874000  0.95220000  0.25241100  1
  P  P2  1  0.25241100  0.54874000  0.95220000  1
  P  P3  1  0.74608100  0.45729800  0.04896900  1
  P  P4  1  0.45729800  0.04896900  0.74608100  1
  P  P5  1  0.04896900  0.74608100  0.45729800  1
  O  O0  1  0.89525600  0.68634300  0.48467000  1
  O  O1  1  0.68634300  0.48467000  0.89525600  1
  O  O2  1  0.94125900  0.08867400  0.74211200  1
  O  O3  1  0.48467000  0.89525600  0.68634300  1
  O  O4  1  0.99278100  0.18162500  0.38917700  1
  O  O5  1  0.75589600  0.40627500  0.55702900  1
  O  O6  1  0.74211200  0.94125900  0.08867400  1
  O  O7  1  0.55702900  0.75589600  0.40627500  1
  O  O8  1  0.81512000  0.60910600  0.01341700  1
  O  O9  1  0.40627500  0.55702900  0.75589600  1
  O  O10  1  0.91293300  0.25327300  0.06306400  1
  O  O11  1  0.60910600  0.01341700  0.81512000  1
  O  O12  1  0.38917700  0.99278100  0.18162500  1
  O  O13  1  0.08867400  0.74211200  0.94125900  1
  O  O14  1  0.59416300  0.43497500  0.24916000  1
  O  O15  1  0.18162500  0.38917700  0.99278100  1
  O  O16  1  0.43497500  0.24916000  0.59416300  1
  O  O17  1  0.25327300  0.06306400  0.91293300  1
  O  O18  1  0.24916000  0.59416300  0.43497500  1
  O  O19  1  0.01341700  0.81512000  0.60910600  1
  O  O20  1  0.50721000  0.11014900  0.31547900  1
  O  O21  1  0.06306400  0.91293300  0.25327300  1
  O  O22  1  0.31547900  0.50721000  0.11014900  1
  O  O23  1  0.11014900  0.31547900  0.50721000  1
loop_
_geom_bond_atom_site_label_1
_geom_bond_atom_site_label_2
_geom_bond_distance
_geom_bond_site_symmetry_2
Mn0 O11 1.964570 1_565
Mn0 O8 1.964570 1_556
Mn0 O19 1.964570 1_655
Mn0 O13 2.076435 1_655
Mn0 O6 2.076435 1_556
Mn0 O2 2.076435 1_565
Mn1 O3 2.005776 1_555
Mn1 O0 2.005776 1_555
Mn1 O1 2.005776 1_555
Mn1 O5 2.120273 1_555
Mn1 O7 2.120273 1_555
Mn1 O9 2.120273 1_555
Mn2 O20 1.973242 1_555
Mn2 O23 1.973243 1_555
Mn2 O22 1.973243 1_555
Mn2 O18 2.068159 1_555
Mn2 O14 2.068159 1_555
Mn2 O16 2.068159 1_555
Ni0 O13 2.104990 1_655
Ni0 O6 2.104990 1_556
Ni0 O2 2.104990 1_565
Ni0 O10 2.249508 1_566
Ni0 O17 2.249508 1_665
Ni0 O21 2.249508 1_656
Ni1 O5 2.137867 1_555
Ni1 O7 2.137867 1_555
Ni1 O9 2.137867 1_555
Ni1 O18 2.153507 1_555
Ni1 O16 2.153507 1_555
Ni1 O14 2.153507 1_555
O0 P5 1.507982 1_655
O1 P3 1.507982 1_556
O2 P0 1.559219 1_555
O3 P4 1.507982 1_565
O4 P0 1.574765 1_555
O4 Sb0 1.956912 1_655
O5 P0 1.543745 1_555
O6 P1 1.559219 1_555
O7 P1 1.543745 1_555
O8 P3 1.518630 1_555
O9 P2 1.543745 1_555
O10 P3 1.624354 1_555
O10 Sb0 2.021941 1_655
O11 P4 1.518629 1_555
O12 P1 1.574765 1_555
O12 Sb0 1.956911 1_565
O13 P2 1.559219 1_555
O14 P3 1.554822 1_555
O15 P2 1.574765 1_555
O15 Sb0 1.956911 1_556
O16 P4 1.554822 1_555
O17 P4 1.624354 1_555
O17 Sb0 2.021941 1_556
O18 P5 1.554822 1_555
O19 P5 1.518630 1_555
O20 P1 1.513470 1_545
O21 P5 1.624354 1_555
O21 Sb0 2.021941 1_565
O22 P2 1.513470 1_554
O23 P0 1.513470 1_455
