# generated using pymatgen
data_LiSb(PO3)4
_symmetry_space_group_name_H-M   'P 1'
_cell_length_a   7.16813355
_cell_length_b   7.16813355
_cell_length_c   10.24129969
_cell_angle_alpha   85.66423556
_cell_angle_beta   85.66423556
_cell_angle_gamma   113.61015039
_symmetry_Int_Tables_number   1
_chemical_formula_structural   LiSb(PO3)4
_chemical_formula_sum   'Li2 Sb2 P8 O24'
_cell_volume   477.55180381
_cell_formula_units_Z   2
loop_
 _symmetry_equiv_pos_site_id
 _symmetry_equiv_pos_as_xyz
  1  'x, y, z'
loop_
 _atom_site_type_symbol
 _atom_site_label
 _atom_site_symmetry_multiplicity
 _atom_site_fract_x
 _atom_site_fract_y
 _atom_site_fract_z
 _atom_site_occupancy
  Li  Li0  1  0.32080800  0.67919200  0.75000000  1
  Li  Li1  1  0.67919200  0.32080800  0.25000000  1
  Sb  Sb0  1  0.60724800  0.39275200  0.75000000  1
  Sb  Sb1  1  0.39275200  0.60724800  0.25000000  1
  P  P0  1  0.15315700  0.78081700  0.01106700  1
  P  P1  1  0.78081700  0.15315700  0.51106700  1
  P  P2  1  0.74022200  0.78788600  0.94216000  1
  P  P3  1  0.21211400  0.25977800  0.55784000  1
  P  P4  1  0.78788600  0.74022200  0.44216000  1
  P  P5  1  0.25977800  0.21211400  0.05784000  1
  P  P6  1  0.21918300  0.84684300  0.48893300  1
  P  P7  1  0.84684300  0.21918300  0.98893300  1
  O  O0  1  0.31358400  0.80771200  0.90091900  1
  O  O1  1  0.60426000  0.08390900  0.61814500  1
  O  O2  1  0.65740100  0.68311500  0.82183800  1
  O  O3  1  0.80771200  0.31358400  0.40091900  1
  O  O4  1  0.37981100  0.30772400  0.92484300  1
  O  O5  1  0.08390900  0.60426000  0.11814500  1
  O  O6  1  0.19108300  0.03141900  0.55821000  1
  O  O7  1  0.76777200  0.01691500  0.90858900  1
  O  O8  1  0.98308500  0.23222800  0.59141100  1
  O  O9  1  0.96858100  0.80891700  0.94179000  1
  O  O10  1  0.68311500  0.65740100  0.32183800  1
  O  O11  1  0.69227600  0.62018900  0.57515700  1
  O  O12  1  0.30772400  0.37981100  0.42484300  1
  O  O13  1  0.31688500  0.34259900  0.67816200  1
  O  O14  1  0.03141900  0.19108300  0.05821000  1
  O  O15  1  0.01691500  0.76777200  0.40858900  1
  O  O16  1  0.23222800  0.98308500  0.09141100  1
  O  O17  1  0.80891700  0.96858100  0.44179000  1
  O  O18  1  0.91609100  0.39574000  0.88185500  1
  O  O19  1  0.62018900  0.69227600  0.07515700  1
  O  O20  1  0.19228800  0.68641600  0.59908100  1
  O  O21  1  0.34259900  0.31688500  0.17816200  1
  O  O22  1  0.39574000  0.91609100  0.38185500  1
  O  O23  1  0.68641600  0.19228800  0.09908100  1
loop_
_geom_bond_atom_site_label_1
_geom_bond_atom_site_label_2
_geom_bond_distance
_geom_bond_site_symmetry_2
Li0 O20 1.865928 1_555
Li0 O0 1.865928 1_555
Li0 O2 2.565263 1_555
Li0 O13 2.565263 1_555
Li1 O23 1.865928 1_555
Li1 O3 1.865928 1_555
Li1 O21 2.565263 1_555
Li1 O10 2.565263 1_555
O0 P0 1.491806 1_556
O1 P1 1.501767 1_555
O1 Sb0 2.672712 1_555
O2 P2 1.525882 1_555
O2 Sb0 2.162114 1_555
O3 P1 1.491806 1_555
O4 P5 1.508155 1_556
O4 Sb0 2.198481 1_555
O5 P0 1.501767 1_555
O5 Sb1 2.672712 1_555
O6 P3 1.582250 1_555
O6 P6 1.621185 1_545
O7 P2 1.580225 1_545
O7 P7 1.641065 1_555
O8 P3 1.580225 1_655
O8 P1 1.641065 1_555
O9 P2 1.582250 1_555
O9 P0 1.621185 1_656
O10 P4 1.525882 1_555
O10 Sb1 2.162114 1_555
O11 P4 1.508155 1_555
O11 Sb0 2.198481 1_555
O12 P3 1.508155 1_555
O12 Sb1 2.198481 1_555
O13 P3 1.525882 1_555
O13 Sb0 2.162114 1_555
O14 P5 1.582250 1_555
O14 P7 1.621185 1_454
O15 P4 1.580225 1_455
O15 P6 1.641065 1_555
O16 P5 1.580225 1_565
O16 P0 1.641065 1_555
O17 P4 1.582250 1_555
O17 P1 1.621185 1_565
O18 P7 1.501767 1_555
O18 Sb0 2.672712 1_555
O19 P2 1.508155 1_554
O19 Sb1 2.198481 1_555
O20 P6 1.491806 1_555
O21 P5 1.525882 1_555
O21 Sb1 2.162114 1_555
O22 P6 1.501767 1_555
O22 Sb1 2.672712 1_555
O23 P7 1.491806 1_554
