# generated using pymatgen
data_LiMn2F5
_symmetry_space_group_name_H-M   'P 1'
_cell_length_a   8.06431999
_cell_length_b   8.06431999
_cell_length_c   10.10624460
_cell_angle_alpha   63.00048251
_cell_angle_beta   63.00048251
_cell_angle_gamma   49.04633604
_symmetry_Int_Tables_number   1
_chemical_formula_structural   LiMn2F5
_chemical_formula_sum   'Li4 Mn8 F20'
_cell_volume   430.16113750
_cell_formula_units_Z   4
loop_
 _symmetry_equiv_pos_site_id
 _symmetry_equiv_pos_as_xyz
  1  'x, y, z'
loop_
 _atom_site_type_symbol
 _atom_site_label
 _atom_site_symmetry_multiplicity
 _atom_site_fract_x
 _atom_site_fract_y
 _atom_site_fract_z
 _atom_site_occupancy
  Li  Li0  1  0.69807600  0.92387500  0.31861100  1
  Li  Li1  1  0.07612500  0.30192400  0.18138900  1
  Li  Li2  1  0.92387500  0.69807600  0.81861100  1
  Li  Li3  1  0.30192400  0.07612500  0.68138900  1
  Mn  Mn0  1  0.77872300  0.50587600  0.64878400  1
  Mn  Mn1  1  0.17204500  0.72711800  0.98598500  1
  Mn  Mn2  1  0.27288200  0.82795500  0.51401500  1
  Mn  Mn3  1  0.50587600  0.77872300  0.14878400  1
  Mn  Mn4  1  0.49412400  0.22127700  0.85121600  1
  Mn  Mn5  1  0.72711800  0.17204500  0.48598500  1
  Mn  Mn6  1  0.82795500  0.27288200  0.01401500  1
  Mn  Mn7  1  0.22127700  0.49412400  0.35121600  1
  F  F0  1  0.89891100  0.95092800  0.13793100  1
  F  F1  1  0.11974900  0.27949200  0.53932500  1
  F  F2  1  0.43881300  0.79807600  0.64256700  1
  F  F3  1  0.15378400  0.47213700  0.18364900  1
  F  F4  1  0.52786300  0.84621600  0.31635100  1
  F  F5  1  0.61332900  0.35356700  0.89763600  1
  F  F6  1  0.64643300  0.38667100  0.60236400  1
  F  F7  1  0.04907200  0.10108900  0.36206900  1
  F  F8  1  0.27949200  0.11974900  0.03932500  1
  F  F9  1  0.20192400  0.56118700  0.85743300  1
  F  F10  1  0.79807600  0.43881300  0.14256700  1
  F  F11  1  0.72050800  0.88025100  0.96067500  1
  F  F12  1  0.95092800  0.89891100  0.63793100  1
  F  F13  1  0.35356700  0.61332900  0.39763600  1
  F  F14  1  0.38667100  0.64643300  0.10236400  1
  F  F15  1  0.47213700  0.15378400  0.68364900  1
  F  F16  1  0.84621600  0.52786300  0.81635100  1
  F  F17  1  0.56118700  0.20192400  0.35743300  1
  F  F18  1  0.88025100  0.72050800  0.46067500  1
  F  F19  1  0.10108900  0.04907200  0.86206900  1
loop_
_geom_bond_atom_site_label_1
_geom_bond_atom_site_label_2
_geom_bond_distance
_geom_bond_site_symmetry_2
F0 Li0 1.849660 1_555
F0 Mn6 2.094663 1_565
F0 Mn1 2.168231 1_654
F1 Li3 1.878314 1_555
F1 Mn0 2.147014 1_455
F1 Mn7 2.176498 1_555
F2 Li3 1.887074 1_565
F2 Mn2 2.099536 1_555
F2 Mn0 2.150580 1_555
F3 Li1 1.856143 1_555
F3 Mn7 2.105133 1_555
F3 Mn1 2.154218 1_554
F4 Li0 1.856143 1_555
F4 Mn3 2.105133 1_555
F4 Mn2 2.154218 1_555
F5 Mn6 2.116507 1_556
F5 Mn4 2.119105 1_555
F5 Mn0 2.431005 1_555
F6 Mn5 2.116507 1_555
F6 Mn0 2.119105 1_555
F6 Mn4 2.431005 1_555
F7 Li1 1.849660 1_555
F7 Mn5 2.094663 1_455
F7 Mn2 2.168231 1_545
F8 Li1 1.878314 1_555
F8 Mn3 2.147014 1_545
F8 Mn4 2.176498 1_554
F9 Li2 1.887074 1_455
F9 Mn1 2.099536 1_555
F9 Mn4 2.150580 1_555
F10 Li1 1.887074 1_655
F10 Mn6 2.099536 1_555
F10 Mn3 2.150580 1_555
F11 Li2 1.878314 1_555
F11 Mn4 2.147014 1_565
F11 Mn3 2.176498 1_556
F12 Li2 1.849660 1_555
F12 Mn2 2.094663 1_655
F12 Mn5 2.168231 1_565
F13 Mn2 2.116507 1_555
F13 Mn7 2.119105 1_555
F13 Mn3 2.431005 1_555
F14 Mn1 2.116507 1_554
F14 Mn3 2.119105 1_555
F14 Mn7 2.431005 1_555
F15 Li3 1.856143 1_555
F15 Mn4 2.105133 1_555
F15 Mn5 2.154218 1_555
F16 Li2 1.856143 1_555
F16 Mn0 2.105133 1_555
F16 Mn6 2.154218 1_556
F17 Li0 1.887074 1_545
F17 Mn5 2.099536 1_555
F17 Mn7 2.150580 1_555
F18 Li0 1.878314 1_555
F18 Mn7 2.147014 1_655
F18 Mn0 2.176498 1_555
F19 Li3 1.849660 1_555
F19 Mn1 2.094663 1_545
F19 Mn6 2.168231 1_456
