# generated using pymatgen
data_Li4MgCo3O8
_symmetry_space_group_name_H-M   'P 1'
_cell_length_a   5.77303683
_cell_length_b   5.77303683
_cell_length_c   5.77303643
_cell_angle_alpha   59.29252703
_cell_angle_beta   59.29252703
_cell_angle_gamma   59.29253252
_symmetry_Int_Tables_number   1
_chemical_formula_structural   Li4MgCo3O8
_chemical_formula_sum   'Li4 Mg1 Co3 O8'
_cell_volume   133.85806678
_cell_formula_units_Z   1
loop_
 _symmetry_equiv_pos_site_id
 _symmetry_equiv_pos_as_xyz
  1  'x, y, z'
loop_
 _atom_site_type_symbol
 _atom_site_label
 _atom_site_symmetry_multiplicity
 _atom_site_fract_x
 _atom_site_fract_y
 _atom_site_fract_z
 _atom_site_occupancy
  Li  Li0  1  0.50000000  0.50000000  0.50000000  1
  Li  Li1  1  0.50000000  0.00000000  0.00000000  1
  Li  Li2  1  0.00000000  0.50000000  0.00000000  1
  Li  Li3  1  0.00000000  0.00000000  0.50000000  1
  Mg  Mg0  1  0.00000000  0.00000000  0.00000000  1
  Co  Co0  1  0.50000000  0.00000000  0.50000000  1
  Co  Co1  1  0.50000000  0.50000000  0.00000000  1
  Co  Co2  1  0.00000000  0.50000000  0.50000000  1
  O  O0  1  0.26108100  0.26108100  0.26108100  1
  O  O1  1  0.27541900  0.75150500  0.75150500  1
  O  O2  1  0.75150500  0.27541900  0.75150500  1
  O  O3  1  0.75150500  0.75150500  0.27541900  1
  O  O4  1  0.24849500  0.24849500  0.72458100  1
  O  O5  1  0.24849500  0.72458100  0.24849500  1
  O  O6  1  0.72458100  0.24849500  0.24849500  1
  O  O7  1  0.73891900  0.73891900  0.73891900  1
loop_
_geom_bond_atom_site_label_1
_geom_bond_atom_site_label_2
_geom_bond_distance
_geom_bond_site_symmetry_2
Li0 O3 2.050648 1_555
Li0 O4 2.050648 1_555
Li0 O2 2.050648 1_555
Li0 O1 2.050648 1_555
Li0 O5 2.050648 1_555
Li0 O6 2.050648 1_555
Li1 O7 2.125950 1_544
Li1 O0 2.125950 1_555
Li1 O2 2.143634 1_554
Li1 O5 2.143634 1_545
Li1 O3 2.143634 1_545
Li1 O4 2.143634 1_554
Li2 O7 2.125950 1_454
Li2 O0 2.125950 1_555
Li2 O1 2.143634 1_554
Li2 O6 2.143634 1_455
Li2 O3 2.143634 1_455
Li2 O4 2.143634 1_554
Li3 O7 2.125950 1_445
Li3 O0 2.125950 1_555
Li3 O1 2.143634 1_545
Li3 O2 2.143634 1_455
Li3 O6 2.143634 1_455
Li3 O5 2.143634 1_545
Mg0 O3 2.021580 1_445
Mg0 O4 2.021580 1_554
Mg0 O2 2.021580 1_454
Mg0 O6 2.021580 1_455
Mg0 O1 2.021580 1_544
Mg0 O5 2.021580 1_545
Co0 O6 1.922700 1_555
Co0 O1 1.922700 1_545
Co0 O4 1.922700 1_555
Co0 O3 1.922700 1_545
Co0 O7 1.942467 1_545
Co0 O0 1.942467 1_555
Co1 O5 1.922700 1_555
Co1 O6 1.922700 1_555
Co1 O2 1.922700 1_554
Co1 O1 1.922700 1_554
Co1 O0 1.942467 1_555
Co1 O7 1.942467 1_554
Co2 O5 1.922700 1_555
Co2 O2 1.922700 1_455
Co2 O4 1.922700 1_555
Co2 O3 1.922700 1_455
Co2 O0 1.942467 1_555
Co2 O7 1.942467 1_455
