# generated using pymatgen
data_Na5GdO4
_symmetry_space_group_name_H-M   'P 1'
_cell_length_a   15.08398344
_cell_length_b   15.08398344
_cell_length_c   5.54635717
_cell_angle_alpha   90.00000000
_cell_angle_beta   90.00000000
_cell_angle_gamma   90.00000000
_symmetry_Int_Tables_number   1
_chemical_formula_structural   Na5GdO4
_chemical_formula_sum   'Na40 Gd8 O32'
_cell_volume   1261.94354756
_cell_formula_units_Z   8
loop_
 _symmetry_equiv_pos_site_id
 _symmetry_equiv_pos_as_xyz
  1  'x, y, z'
loop_
 _atom_site_type_symbol
 _atom_site_label
 _atom_site_symmetry_multiplicity
 _atom_site_fract_x
 _atom_site_fract_y
 _atom_site_fract_z
 _atom_site_occupancy
  Na  Na0  1  0.98618607  0.01381393  0.25000000  1
  Na  Na1  1  0.01381393  0.98618607  0.75000000  1
  Na  Na2  1  0.98618607  0.48618607  0.25000000  1
  Na  Na3  1  0.01381393  0.51381393  0.75000000  1
  Na  Na4  1  0.10136667  0.35473611  0.81071402  1
  Na  Na5  1  0.10136667  0.14526389  0.81071402  1
  Na  Na6  1  0.12242008  0.62242008  0.25000000  1
  Na  Na7  1  0.12242008  0.87757992  0.25000000  1
  Na  Na8  1  0.14526389  0.10136667  0.31071402  1
  Na  Na9  1  0.14526389  0.39863333  0.31071402  1
  Na  Na10  1  0.25000000  0.25000000  0.37341295  1
  Na  Na11  1  0.25000000  0.75000000  0.75000000  1
  Na  Na12  1  0.25000000  0.75000000  0.25000000  1
  Na  Na13  1  0.25000000  0.25000000  0.87341295  1
  Na  Na14  1  0.35473611  0.10136667  0.31071402  1
  Na  Na15  1  0.35473611  0.39863333  0.31071402  1
  Na  Na16  1  0.37757992  0.62242008  0.25000000  1
  Na  Na17  1  0.37757992  0.87757992  0.25000000  1
  Na  Na18  1  0.39863333  0.14526389  0.81071402  1
  Na  Na19  1  0.39863333  0.35473611  0.81071402  1
  Na  Na20  1  0.51381393  0.01381393  0.25000000  1
  Na  Na21  1  0.48618607  0.98618607  0.75000000  1
  Na  Na22  1  0.51381393  0.48618607  0.25000000  1
  Na  Na23  1  0.48618607  0.51381393  0.75000000  1
  Na  Na24  1  0.60136667  0.64526389  0.18928598  1
  Na  Na25  1  0.60136667  0.85473611  0.18928598  1
  Na  Na26  1  0.62242008  0.12242008  0.75000000  1
  Na  Na27  1  0.62242008  0.37757992  0.75000000  1
  Na  Na28  1  0.64526389  0.60136667  0.68928598  1
  Na  Na29  1  0.64526389  0.89863333  0.68928598  1
  Na  Na30  1  0.75000000  0.25000000  0.25000000  1
  Na  Na31  1  0.75000000  0.25000000  0.75000000  1
  Na  Na32  1  0.75000000  0.75000000  0.12658705  1
  Na  Na33  1  0.75000000  0.75000000  0.62658705  1
  Na  Na34  1  0.85473611  0.60136667  0.68928598  1
  Na  Na35  1  0.85473611  0.89863333  0.68928598  1
  Na  Na36  1  0.87757992  0.12242008  0.75000000  1
  Na  Na37  1  0.87757992  0.37757992  0.75000000  1
  Na  Na38  1  0.89863333  0.64526389  0.18928598  1
  Na  Na39  1  0.89863333  0.85473611  0.18928598  1
  Gd  Gd0  1  0.01469765  0.75000000  0.71470590  1
  Gd  Gd1  1  0.25000000  0.51469765  0.78529410  1
  Gd  Gd2  1  0.25000000  0.98530235  0.78529410  1
  Gd  Gd3  1  0.48530235  0.75000000  0.71470590  1
  Gd  Gd4  1  0.51469765  0.25000000  0.28529410  1
  Gd  Gd5  1  0.75000000  0.01469765  0.21470590  1
  Gd  Gd6  1  0.75000000  0.48530235  0.21470590  1
  Gd  Gd7  1  0.98530235  0.25000000  0.28529410  1
  O  O0  1  0.00638657  0.12738057  0.50114599  1
  O  O1  1  0.00638657  0.37261943  0.50114599  1
  O  O2  1  0.12738057  0.00638657  0.00114599  1
  O  O3  1  0.12738057  0.49361343  0.00114599  1
  O  O4  1  0.12234093  0.25000000  0.11413202  1
  O  O5  1  0.11974230  0.75000000  0.99250505  1
  O  O6  1  0.25000000  0.12234093  0.61413202  1
  O  O7  1  0.25000000  0.61974230  0.50749495  1
  O  O8  1  0.25000000  0.88025770  0.50749495  1
  O  O9  1  0.25000000  0.37765907  0.61413202  1
  O  O10  1  0.38025770  0.75000000  0.99250505  1
  O  O11  1  0.37765907  0.25000000  0.11413202  1
  O  O12  1  0.37261943  0.49361343  0.00114599  1
  O  O13  1  0.37261943  0.00638657  0.00114599  1
  O  O14  1  0.49361343  0.12738057  0.50114599  1
  O  O15  1  0.49361343  0.37261943  0.50114599  1
  O  O16  1  0.50638657  0.62738057  0.49885401  1
  O  O17  1  0.50638657  0.87261943  0.49885401  1
  O  O18  1  0.62738057  0.99361343  0.99885401  1
  O  O19  1  0.62738057  0.50638657  0.99885401  1
  O  O20  1  0.62234093  0.75000000  0.88586798  1
  O  O21  1  0.61974230  0.25000000  0.00749495  1
  O  O22  1  0.75000000  0.11974230  0.49250505  1
  O  O23  1  0.75000000  0.38025770  0.49250505  1
  O  O24  1  0.75000000  0.62234093  0.38586798  1
  O  O25  1  0.75000000  0.87765907  0.38586798  1
  O  O26  1  0.88025770  0.25000000  0.00749495  1
  O  O27  1  0.87765907  0.75000000  0.88586798  1
  O  O28  1  0.87261943  0.99361343  0.99885401  1
  O  O29  1  0.87261943  0.50638657  0.99885401  1
  O  O30  1  0.99361343  0.62738057  0.49885401  1
  O  O31  1  0.99361343  0.87261943  0.49885401  1
loop_
_geom_bond_atom_site_label_1
_geom_bond_atom_site_label_2
_geom_bond_distance
_geom_bond_site_symmetry_2
Na0 O0 2.228820 1_655
Na0 O28 2.228820 1_544
Na0 O2 2.540382 1_655
Na0 O31 2.540382 1_545
Na1 O2 2.228820 1_566
Na1 O31 2.228820 1_455
Na1 O0 2.540382 1_565
Na1 O28 2.540382 1_455
Na2 O29 2.228820 1_554
Na2 O1 2.228820 1_655
Na2 O3 2.540382 1_655
Na2 O30 2.540382 1_555
Na3 O3 2.228820 1_556
Na3 O30 2.228820 1_455
Na3 O1 2.540382 1_555
Na3 O29 2.540382 1_455
Na4 O1 2.252407 1_555
Na4 O4 2.329810 1_556
Na4 O3 2.378618 1_556
Na4 O9 2.516908 1_555
Na5 O0 2.252407 1_555
Na5 O4 2.329810 1_556
Na5 O2 2.378618 1_556
Na5 O6 2.516908 1_555
Na6 O30 2.384443 1_455
Na6 O3 2.384443 1_555
Na6 O5 2.396797 1_554
Na6 O7 2.396797 1_555
Na7 O31 2.384443 1_455
Na7 O2 2.384443 1_565
Na7 O8 2.396797 1_555
Na7 O5 2.396797 1_554
Na8 O2 2.252407 1_555
Na8 O6 2.329810 1_555
Na8 O0 2.378618 1_555
Na8 O4 2.516908 1_555
Na9 O3 2.252407 1_555
Na9 O9 2.329810 1_555
Na9 O1 2.378618 1_555
Na9 O4 2.516908 1_555
Na10 O9 2.343180 1_555
Na10 O6 2.343180 1_555
Na10 O11 2.403330 1_555
Na10 O4 2.403330 1_555
Na11 O8 2.381079 1_555
Na11 O10 2.381079 1_555
Na11 O5 2.381079 1_555
Na11 O7 2.381079 1_555
Na12 O8 2.429011 1_555
Na12 O10 2.429011 1_554
Na12 O7 2.429011 1_555
Na12 O5 2.429011 1_554
Na13 O4 2.343180 1_556
Na13 O11 2.343180 1_556
Na13 O6 2.403330 1_555
Na13 O9 2.403330 1_555
Na14 O13 2.252407 1_555
Na14 O6 2.329810 1_555
Na14 O14 2.378618 1_555
Na14 O11 2.516908 1_555
Na15 O12 2.252407 1_555
Na15 O9 2.329810 1_555
Na15 O15 2.378618 1_555
Na15 O11 2.516908 1_555
Na16 O16 2.384443 1_555
Na16 O12 2.384443 1_555
Na16 O10 2.396797 1_554
Na16 O7 2.396797 1_555
Na17 O17 2.384443 1_555
Na17 O13 2.384443 1_565
Na17 O8 2.396797 1_555
Na17 O10 2.396797 1_554
Na18 O14 2.252407 1_555
Na18 O11 2.329810 1_556
Na18 O13 2.378618 1_556
Na18 O6 2.516908 1_555
Na19 O15 2.252407 1_555
Na19 O11 2.329810 1_556
Na19 O12 2.378618 1_556
Na19 O9 2.516908 1_555
Na20 O14 2.228820 1_555
Na20 O18 2.228820 1_544
Na20 O13 2.540382 1_555
Na20 O17 2.540382 1_545
Na21 O13 2.228820 1_566
Na21 O17 2.228820 1_555
Na21 O14 2.540382 1_565
Na21 O18 2.540382 1_555
Na22 O15 2.228820 1_555
Na22 O19 2.228820 1_554
Na22 O12 2.540382 1_555
Na22 O16 2.540382 1_555
Na23 O12 2.228820 1_556
Na23 O16 2.228820 1_555
Na23 O15 2.540382 1_555
Na23 O19 2.540382 1_555
Na24 O16 2.252407 1_555
Na24 O20 2.329810 1_554
Na24 O19 2.378618 1_554
Na24 O24 2.516908 1_555
Na25 O17 2.252407 1_555
Na25 O20 2.329810 1_554
Na25 O18 2.378618 1_554
Na25 O25 2.516908 1_555
Na26 O18 2.384443 1_545
Na26 O14 2.384443 1_555
Na26 O22 2.396797 1_555
Na26 O21 2.396797 1_556
Na27 O19 2.384443 1_555
Na27 O15 2.384443 1_555
Na27 O23 2.396797 1_555
Na27 O21 2.396797 1_556
Na28 O19 2.252407 1_555
Na28 O24 2.329810 1_555
Na28 O16 2.378618 1_555
Na28 O20 2.516908 1_555
Na29 O18 2.252407 1_555
Na29 O25 2.329810 1_555
Na29 O17 2.378618 1_555
Na29 O20 2.516908 1_555
Na30 O26 2.381079 1_555
Na30 O23 2.381079 1_555
Na30 O22 2.381079 1_555
Na30 O21 2.381079 1_555
Na31 O26 2.429011 1_556
Na31 O23 2.429011 1_555
Na31 O22 2.429011 1_555
Na31 O21 2.429011 1_556
Na32 O20 2.343180 1_554
Na32 O27 2.343180 1_554
Na32 O25 2.403330 1_555
Na32 O24 2.403330 1_555
Na33 O25 2.343180 1_555
Na33 O24 2.343180 1_555
Na33 O20 2.403330 1_555
Na33 O27 2.403330 1_555
Na34 O29 2.252407 1_555
Na34 O24 2.329810 1_555
Na34 O30 2.378618 1_555
Na34 O27 2.516908 1_555
Na35 O28 2.252407 1_555
Na35 O25 2.329810 1_555
Na35 O31 2.378618 1_555
Na35 O27 2.516908 1_555
Na36 O28 2.384443 1_545
Na36 O0 2.384443 1_655
Na36 O26 2.396797 1_556
Na36 O22 2.396797 1_555
Na37 O29 2.384443 1_555
Na37 O1 2.384443 1_655
Na37 O26 2.396797 1_556
Na37 O23 2.396797 1_555
Na38 O30 2.252407 1_555
Na38 O27 2.329810 1_554
Na38 O29 2.378618 1_554
Na38 O24 2.516908 1_555
Na39 O31 2.252407 1_555
Na39 O27 2.329810 1_554
Na39 O28 2.378618 1_554
Na39 O25 2.516908 1_555
Gd0 O5 2.210112 1_555
Gd0 O31 2.226072 1_455
Gd0 O30 2.226072 1_455
Gd0 O27 2.274659 1_455
Gd1 O7 2.210112 1_555
Gd1 O3 2.226072 1_556
Gd1 O12 2.226072 1_556
Gd1 O9 2.274659 1_555
Gd2 O8 2.210112 1_555
Gd2 O2 2.226072 1_566
Gd2 O13 2.226072 1_566
Gd2 O6 2.274659 1_565
Gd3 O10 2.210112 1_555
Gd3 O16 2.226072 1_555
Gd3 O17 2.226072 1_555
Gd3 O20 2.274659 1_555
Gd4 O21 2.210112 1_555
Gd4 O14 2.226072 1_555
Gd4 O15 2.226072 1_555
Gd4 O11 2.274659 1_555
Gd5 O22 2.210112 1_555
Gd5 O18 2.226072 1_544
Gd5 O28 2.226072 1_544
Gd5 O25 2.274659 1_545
Gd6 O23 2.210112 1_555
Gd6 O19 2.226072 1_554
Gd6 O29 2.226072 1_554
Gd6 O24 2.274659 1_555
Gd7 O26 2.210112 1_555
Gd7 O0 2.226072 1_655
Gd7 O1 2.226072 1_655
Gd7 O4 2.274659 1_655
