# generated using pymatgen
data_Li4Fe5Sb(PO4)6
_symmetry_space_group_name_H-M   'P 1'
_cell_length_a   8.37422000
_cell_length_b   8.50433940
_cell_length_c   8.53250978
_cell_angle_alpha   64.71817586
_cell_angle_beta   65.19397112
_cell_angle_gamma   65.24905414
_symmetry_Int_Tables_number   1
_chemical_formula_structural   Li4Fe5Sb(PO4)6
_chemical_formula_sum   'Li4 Fe5 Sb1 P6 O24'
_cell_volume   477.05690101
_cell_formula_units_Z   1
loop_
 _symmetry_equiv_pos_site_id
 _symmetry_equiv_pos_as_xyz
  1  'x, y, z'
loop_
 _atom_site_type_symbol
 _atom_site_label
 _atom_site_symmetry_multiplicity
 _atom_site_fract_x
 _atom_site_fract_y
 _atom_site_fract_z
 _atom_site_occupancy
  Li  Li0  1  0.74874300  0.13893400  0.35263300  1
  Li  Li1  1  0.27972700  0.83863200  0.64578100  1
  Li  Li2  1  0.63923100  0.27872200  0.84097500  1
  Li  Li3  1  0.84091800  0.64089500  0.28450500  1
  Fe  Fe0  1  0.01056000  0.00140300  0.99777600  1
  Fe  Fe1  1  0.34926400  0.35323300  0.34841600  1
  Fe  Fe2  1  0.49198900  0.50406200  0.50076200  1
  Fe  Fe3  1  0.14413100  0.14965600  0.14848000  1
  Fe  Fe4  1  0.65573600  0.65803100  0.66026800  1
  Sb  Sb0  1  0.84289000  0.83568600  0.84212300  1
  P  P0  1  0.07597200  0.74754100  0.43166200  1
  P  P1  1  0.42896300  0.07483100  0.74886600  1
  P  P2  1  0.74688400  0.43304000  0.07278200  1
  P  P3  1  0.24855700  0.54379900  0.94698800  1
  P  P4  1  0.55399200  0.94934000  0.24988100  1
  P  P5  1  0.93820900  0.24487900  0.54537500  1
  O  O0  1  0.48467400  0.90654100  0.68912700  1
  O  O1  1  0.68626700  0.48464000  0.90706100  1
  O  O2  1  0.90626700  0.68434100  0.48827100  1
  O  O3  1  0.07048000  0.90134000  0.25017500  1
  O  O4  1  0.07998700  0.81009900  0.57641600  1
  O  O5  1  0.25889500  0.58835400  0.41192200  1
  O  O6  1  0.23921400  0.08350300  0.89177400  1
  O  O7  1  0.42413000  0.25222300  0.58184000  1
  O  O8  1  0.17203900  0.39929000  0.97543100  1
  O  O9  1  0.59155000  0.41167100  0.25996700  1
  O  O10  1  0.10207800  0.74535800  0.92241800  1
  O  O11  1  0.39626700  0.99518800  0.18258400  1
  O  O12  1  0.57439500  0.07284000  0.81822000  1
  O  O13  1  0.88634000  0.23928200  0.09072100  1
  O  O14  1  0.40532700  0.56784800  0.75960300  1
  O  O15  1  0.81665800  0.57611000  0.07158300  1
  O  O16  1  0.56869500  0.76103600  0.40491600  1
  O  O17  1  0.75458600  0.91795300  0.10017500  1
  O  O18  1  0.75402300  0.40569800  0.57001600  1
  O  O19  1  0.94286700  0.17251900  0.40802800  1
  O  O20  1  0.92461100  0.09977000  0.74382100  1
  O  O21  1  0.11016500  0.30467800  0.48284300  1
  O  O22  1  0.31659900  0.50147000  0.10611500  1
  O  O23  1  0.53812000  0.10256500  0.31270000  1
loop_
_geom_bond_atom_site_label_1
_geom_bond_atom_site_label_2
_geom_bond_distance
_geom_bond_site_symmetry_2
Li0 O13 2.020867 1_555
Li0 O19 2.023985 1_555
Li0 O23 2.091377 1_555
Li0 O9 2.118515 1_555
Li1 O14 2.066699 1_555
Li1 O4 2.121370 1_555
Li1 O10 2.203700 1_555
Li1 O0 2.227317 1_555
Li1 O16 2.482591 1_555
Li2 O18 2.075389 1_555
Li2 O12 2.138447 1_555
Li2 O20 2.254855 1_555
Li2 O1 2.268741 1_555
Li2 O14 2.452495 1_555
Li3 O16 2.068167 1_555
Li3 O15 2.214456 1_555
Li3 O17 2.215957 1_555
Li3 O2 2.230519 1_555
Li3 O18 2.456478 1_555
Fe0 O6 2.024569 1_555
Fe0 O3 2.144245 1_546
Fe0 O13 2.172457 1_456
Fe0 O17 2.243806 1_446
Fe0 O10 2.264354 1_545
Fe0 O20 2.273631 1_455
Fe1 O21 1.963643 1_555
Fe1 O22 1.974330 1_555
Fe1 O9 2.042629 1_555
Fe1 O5 2.044212 1_555
Fe1 O7 2.057488 1_555
Fe1 O23 2.113272 1_555
Fe2 O5 2.122372 1_555
Fe2 O7 2.193674 1_555
Fe2 O9 2.219634 1_555
Fe2 O18 2.234456 1_555
Fe2 O14 2.246651 1_555
Fe2 O16 2.250666 1_555
Fe3 O11 2.033478 1_545
Fe3 O8 2.047014 1_554
Fe3 O3 2.160856 1_545
Fe3 O13 2.162941 1_455
Fe3 O19 2.178149 1_455
Fe3 O6 2.227584 1_554
Fe4 O2 2.033344 1_555
Fe4 O1 2.039081 1_555
Fe4 O0 2.047606 1_555
Fe4 O14 2.236964 1_555
Fe4 O16 2.283311 1_555
Fe4 O18 2.296984 1_555
O0 P1 1.546047 1_565
O1 P2 1.528218 1_556
O2 P0 1.543925 1_655
O3 P0 1.546038 1_555
O4 P0 1.555879 1_555
O4 Sb0 2.326372 1_455
O5 P0 1.565059 1_555
O6 P1 1.539509 1_555
O7 P1 1.571449 1_555
O8 P3 1.501327 1_555
O9 P2 1.575678 1_555
O10 P3 1.623283 1_555
O10 Sb0 2.274346 1_455
O11 P4 1.496748 1_555
O12 P1 1.553258 1_555
O12 Sb0 2.324003 1_545
O13 P2 1.557458 1_555
O14 P3 1.583018 1_555
O15 P2 1.549697 1_555
O15 Sb0 2.260132 1_554
O16 P4 1.578512 1_555
O17 P4 1.624807 1_555
O17 Sb0 2.323942 1_554
O18 P5 1.581407 1_555
O19 P5 1.520234 1_555
O20 P5 1.604379 1_555
O20 Sb0 2.326388 1_545
O21 P5 1.534159 1_455
O22 P3 1.535475 1_554
O23 P4 1.547497 1_545
