# generated using pymatgen
data_K2H2RhCl5O
_symmetry_space_group_name_H-M   'P 1'
_cell_length_a   8.05557300
_cell_length_b   9.77299200
_cell_length_c   14.60279400
_cell_angle_alpha   90.00000000
_cell_angle_beta   90.00000000
_cell_angle_gamma   90.00000000
_symmetry_Int_Tables_number   1
_chemical_formula_structural   K2H2RhCl5O
_chemical_formula_sum   'K8 H8 Rh4 Cl20 O4'
_cell_volume   1149.63490045
_cell_formula_units_Z   4
loop_
 _symmetry_equiv_pos_site_id
 _symmetry_equiv_pos_as_xyz
  1  'x, y, z'
loop_
 _atom_site_type_symbol
 _atom_site_label
 _atom_site_symmetry_multiplicity
 _atom_site_fract_x
 _atom_site_fract_y
 _atom_site_fract_z
 _atom_site_occupancy
  K  K0  1  0.80215400  0.00575800  0.83096200  1
  K  K1  1  0.69784600  0.49424200  0.33096200  1
  K  K2  1  0.19784600  0.50575800  0.16903800  1
  K  K3  1  0.30215400  0.99424200  0.66903800  1
  K  K4  1  0.19784600  0.99424200  0.16903800  1
  K  K5  1  0.30215400  0.50575800  0.66903800  1
  K  K6  1  0.80215400  0.49424200  0.83096200  1
  K  K7  1  0.69784600  0.00575800  0.33096200  1
  H  H0  1  0.33776400  0.04675700  0.44197600  1
  H  H1  1  0.16223600  0.45324300  0.94197600  1
  H  H2  1  0.66223600  0.54675700  0.55802400  1
  H  H3  1  0.83776400  0.95324300  0.05802400  1
  H  H4  1  0.66223600  0.95324300  0.55802400  1
  H  H5  1  0.83776400  0.54675700  0.05802400  1
  H  H6  1  0.33776400  0.45324300  0.44197600  1
  H  H7  1  0.16223600  0.04675700  0.94197600  1
  Rh  Rh0  1  0.70174600  0.25000000  0.10489200  1
  Rh  Rh1  1  0.79825400  0.25000000  0.60489200  1
  Rh  Rh2  1  0.29825400  0.75000000  0.89510800  1
  Rh  Rh3  1  0.20174600  0.75000000  0.39510800  1
  Cl  Cl0  1  0.89332300  0.25000000  0.23532800  1
  Cl  Cl1  1  0.60667700  0.25000000  0.73532800  1
  Cl  Cl2  1  0.10667700  0.75000000  0.76467200  1
  Cl  Cl3  1  0.39332300  0.75000000  0.26467200  1
  Cl  Cl4  1  0.46449500  0.25000000  0.20839400  1
  Cl  Cl5  1  0.03550500  0.25000000  0.70839400  1
  Cl  Cl6  1  0.53550500  0.75000000  0.79160600  1
  Cl  Cl7  1  0.96449500  0.75000000  0.29160600  1
  Cl  Cl8  1  0.94765400  0.25000000  0.00778400  1
  Cl  Cl9  1  0.55234600  0.25000000  0.50778400  1
  Cl  Cl10  1  0.05234600  0.75000000  0.99221600  1
  Cl  Cl11  1  0.44765400  0.75000000  0.49221600  1
  Cl  Cl12  1  0.69765200  0.91673600  0.09346700  1
  Cl  Cl13  1  0.80234800  0.58326400  0.59346700  1
  Cl  Cl14  1  0.30234800  0.41673600  0.90653300  1
  Cl  Cl15  1  0.19765200  0.08326400  0.40653300  1
  Cl  Cl16  1  0.30234800  0.08326400  0.90653300  1
  Cl  Cl17  1  0.19765200  0.41673600  0.40653300  1
  Cl  Cl18  1  0.69765200  0.58326400  0.09346700  1
  Cl  Cl19  1  0.80234800  0.91673600  0.59346700  1
  O  O0  1  0.57580800  0.25000000  0.00607500  1
  O  O1  1  0.92419200  0.25000000  0.50607500  1
  O  O2  1  0.42419200  0.75000000  0.99392500  1
  O  O3  1  0.07580800  0.75000000  0.49392500  1
loop_
_geom_bond_atom_site_label_1
_geom_bond_atom_site_label_2
_geom_bond_distance
_geom_bond_site_symmetry_2
Cl0 Rh0 2.451460 1_555
Cl0 K1 3.182380 1_555
Cl0 K7 3.182380 1_555
Cl0 K2 3.633511 1_655
Cl0 K4 3.633511 1_645
Cl1 Rh1 2.451460 1_555
Cl1 K6 3.182380 1_555
Cl1 K0 3.182380 1_555
Cl1 K5 3.633511 1_555
Cl1 K3 3.633511 1_545
Cl2 Rh2 2.451460 1_555
Cl2 K3 3.182380 1_555
Cl2 K5 3.182380 1_555
Cl2 K0 3.633511 1_465
Cl2 K6 3.633511 1_455
Cl3 Rh3 2.451460 1_555
Cl3 K4 3.182380 1_555
Cl3 K2 3.182380 1_555
Cl3 K7 3.633511 1_565
Cl3 K1 3.633511 1_555
Cl4 Rh0 2.436605 1_555
Cl4 K2 3.345421 1_555
Cl4 K4 3.345421 1_545
Cl4 K1 3.526290 1_555
Cl4 K7 3.526290 1_555
Cl5 Rh1 2.436605 1_455
Cl5 K5 3.345421 1_555
Cl5 K3 3.345421 1_545
Cl5 K6 3.526290 1_455
Cl5 K0 3.526290 1_455
Cl6 Rh2 2.436605 1_555
Cl6 K0 3.345421 1_565
Cl6 K6 3.345421 1_555
Cl6 K3 3.526290 1_555
Cl6 K5 3.526290 1_555
Cl7 Rh3 2.436605 1_655
Cl7 K7 3.345421 1_565
Cl7 K1 3.345421 1_555
Cl7 K4 3.526290 1_655
Cl7 K2 3.526290 1_655
Cl8 Rh0 2.436174 1_555
Cl8 K6 3.706569 1_554
Cl8 K0 3.706569 1_554
Cl9 Rh1 2.436174 1_555
Cl9 K1 3.706569 1_555
Cl9 K7 3.706569 1_555
Cl10 Rh2 2.436174 1_555
Cl10 K4 3.706569 1_556
Cl10 K2 3.706569 1_556
Cl11 Rh3 2.436174 1_555
Cl11 K3 3.706569 1_555
Cl11 K5 3.706569 1_555
Cl12 H3 1.291934 1_555
Cl12 K7 3.575552 1_565
Cl13 H2 1.291934 1_555
Cl13 K6 3.575552 1_555
Cl14 H1 1.291934 1_555
Cl14 K5 3.575552 1_555
Cl15 H0 1.291934 1_555
Cl15 K4 3.575552 1_545
Cl16 H7 1.291934 1_555
Cl16 K3 3.575552 1_545
Cl17 H6 1.291934 1_555
Cl17 K2 3.575552 1_555
Cl18 H5 1.291934 1_555
Cl18 K1 3.575552 1_555
Cl19 H4 1.291934 1_555
Cl19 K0 3.575552 1_565
O0 Rh0 1.763938 1_555
O1 Rh1 1.763938 1_555
O2 Rh2 1.763938 1_555
O3 Rh3 1.763938 1_555
