# generated using pymatgen
data_K3NaP2(O3F)2
_symmetry_space_group_name_H-M   'P 1'
_cell_length_a   5.84108166
_cell_length_b   5.84108166
_cell_length_c   7.50629300
_cell_angle_alpha   90.00000000
_cell_angle_beta   90.00000000
_cell_angle_gamma   119.99999610
_symmetry_Int_Tables_number   1
_chemical_formula_structural   K3NaP2(O3F)2
_chemical_formula_sum   'K3 Na1 P2 O6 F2'
_cell_volume   221.79038583
_cell_formula_units_Z   1
loop_
 _symmetry_equiv_pos_site_id
 _symmetry_equiv_pos_as_xyz
  1  'x, y, z'
loop_
 _atom_site_type_symbol
 _atom_site_label
 _atom_site_symmetry_multiplicity
 _atom_site_fract_x
 _atom_site_fract_y
 _atom_site_fract_z
 _atom_site_occupancy
  K  K0  1  0.33333300  0.66666700  0.82787600  1
  K  K1  1  0.00000000  0.00000000  0.50000000  1
  K  K2  1  0.66666700  0.33333300  0.17212400  1
  Na  Na0  1  0.00000000  0.00000000  0.00000000  1
  P  P0  1  0.66666700  0.33333300  0.74711000  1
  P  P1  1  0.33333300  0.66666700  0.25289000  1
  O  O0  1  0.81305300  0.62610500  0.79460900  1
  O  O1  1  0.81305300  0.18694700  0.79460900  1
  O  O2  1  0.18694700  0.81305300  0.20539100  1
  O  O3  1  0.18694700  0.37389500  0.20539100  1
  O  O4  1  0.62610500  0.81305300  0.20539100  1
  O  O5  1  0.37389500  0.18694700  0.79460900  1
  F  F0  1  0.66666700  0.33333300  0.52613200  1
  F  F1  1  0.33333300  0.66666700  0.47386800  1
loop_
_geom_bond_atom_site_label_1
_geom_bond_atom_site_label_2
_geom_bond_distance
_geom_bond_site_symmetry_2
K1 O2 2.909914 1_545
K1 O1 2.909914 1_455
K1 O0 2.909917 1_445
K1 O5 2.909917 1_555
K1 O4 2.909917 1_445
K1 O3 2.909917 1_555
Na0 O1 2.440108 1_454
Na0 O2 2.440108 1_545
Na0 O0 2.440112 1_444
Na0 O5 2.440112 1_554
Na0 O4 2.440112 1_445
Na0 O3 2.440112 1_555
O0 P0 1.523308 1_555
O1 P0 1.523308 1_555
O2 P1 1.523308 1_555
O3 P1 1.523308 1_555
O4 P1 1.523308 1_555
O5 P0 1.523308 1_555
F0 P0 1.658726 1_555
F0 K2 2.657288 1_555
F1 P1 1.658726 1_555
F1 K0 2.657288 1_555
