# generated using pymatgen
data_Cr2O5F2
_symmetry_space_group_name_H-M   'P 1'
_cell_length_a   8.27050000
_cell_length_b   8.27050000
_cell_length_c   9.67630900
_cell_angle_alpha   90.00000000
_cell_angle_beta   90.00000000
_cell_angle_gamma   90.00000000
_symmetry_Int_Tables_number   1
_chemical_formula_structural   Cr2O5F2
_chemical_formula_sum   'Cr8 O20 F8'
_cell_volume   661.87085930
_cell_formula_units_Z   4
loop_
 _symmetry_equiv_pos_site_id
 _symmetry_equiv_pos_as_xyz
  1  'x, y, z'
loop_
 _atom_site_type_symbol
 _atom_site_label
 _atom_site_symmetry_multiplicity
 _atom_site_fract_x
 _atom_site_fract_y
 _atom_site_fract_z
 _atom_site_occupancy
  Cr  Cr0  1  0.09067200  0.33648700  0.85994200  1
  Cr  Cr1  1  0.16351300  0.40932800  0.35994200  1
  Cr  Cr2  1  0.33648700  0.90932800  0.14005800  1
  Cr  Cr3  1  0.40932800  0.83648700  0.64005800  1
  Cr  Cr4  1  0.59067200  0.16351300  0.64005800  1
  Cr  Cr5  1  0.66351300  0.09067200  0.14005800  1
  Cr  Cr6  1  0.83648700  0.59067200  0.35994200  1
  Cr  Cr7  1  0.90932800  0.66351300  0.85994200  1
  O  O0  1  0.00000000  0.50000000  0.26897100  1
  O  O1  1  0.00000000  0.50000000  0.76897100  1
  O  O2  1  0.02488500  0.71609400  0.98405200  1
  O  O3  1  0.10849000  0.19094400  0.75458800  1
  O  O4  1  0.21609400  0.52488500  0.48405200  1
  O  O5  1  0.19094400  0.89151000  0.24541200  1
  O  O6  1  0.30905600  0.39151000  0.25458800  1
  O  O7  1  0.28390600  0.02488500  0.01594800  1
  O  O8  1  0.39151000  0.69094400  0.74541200  1
  O  O9  1  0.47511500  0.21609400  0.51594800  1
  O  O10  1  0.50000000  0.00000000  0.23102900  1
  O  O11  1  0.50000000  0.00000000  0.73102900  1
  O  O12  1  0.52488500  0.78390600  0.51594800  1
  O  O13  1  0.60849000  0.30905600  0.74541200  1
  O  O14  1  0.71609400  0.97511500  0.01594800  1
  O  O15  1  0.69094400  0.60849000  0.25458800  1
  O  O16  1  0.80905600  0.10849000  0.24541200  1
  O  O17  1  0.78390600  0.47511500  0.48405200  1
  O  O18  1  0.89151000  0.80905600  0.75458800  1
  O  O19  1  0.97511500  0.28390600  0.98405200  1
  F  F0  1  0.09982800  0.22399400  0.42305600  1
  F  F1  1  0.22399400  0.90017200  0.57694400  1
  F  F2  1  0.27600600  0.40017200  0.92305600  1
  F  F3  1  0.40017200  0.72399400  0.07694400  1
  F  F4  1  0.59982800  0.27600600  0.07694400  1
  F  F5  1  0.72399400  0.59982800  0.92305600  1
  F  F6  1  0.77600600  0.09982800  0.57694400  1
  F  F7  1  0.90017200  0.77600600  0.42305600  1
loop_
_geom_bond_atom_site_label_1
_geom_bond_atom_site_label_2
_geom_bond_distance
_geom_bond_site_symmetry_2
Cr0 O3 1.584265 1_555
Cr0 O19 1.595220 1_455
Cr0 F2 1.732016 1_555
Cr0 O1 1.779333 1_555
Cr1 O6 1.584265 1_555
Cr1 O4 1.595220 1_555
Cr1 F0 1.732016 1_555
Cr1 O0 1.779333 1_555
Cr2 O5 1.584265 1_555
Cr2 O7 1.595220 1_565
Cr2 F3 1.732016 1_555
Cr2 O10 1.779333 1_565
Cr3 O8 1.584265 1_555
Cr3 O12 1.595220 1_555
Cr3 F1 1.732016 1_555
Cr3 O11 1.779333 1_565
Cr4 O13 1.584265 1_555
Cr4 O9 1.595220 1_555
Cr4 F6 1.732016 1_555
Cr4 O11 1.779333 1_555
Cr5 O16 1.584265 1_555
Cr5 O14 1.595220 1_545
Cr5 F4 1.732016 1_555
Cr5 O10 1.779333 1_555
Cr6 O15 1.584265 1_555
Cr6 O17 1.595220 1_555
Cr6 F7 1.732016 1_555
Cr6 O0 1.779333 1_655
Cr7 O18 1.584265 1_555
Cr7 O2 1.595220 1_655
Cr7 F5 1.732016 1_555
Cr7 O1 1.779333 1_655
