# generated using pymatgen
data_Li2TiV3O8
_symmetry_space_group_name_H-M   'P 1'
_cell_length_a   6.44141578
_cell_length_b   6.44141578
_cell_length_c   6.58281404
_cell_angle_alpha   73.24860071
_cell_angle_beta   73.24860071
_cell_angle_gamma   36.62051882
_symmetry_Int_Tables_number   1
_chemical_formula_structural   Li2TiV3O8
_chemical_formula_sum   'Li2 Ti1 V3 O8'
_cell_volume   155.23748488
_cell_formula_units_Z   1
loop_
 _symmetry_equiv_pos_site_id
 _symmetry_equiv_pos_as_xyz
  1  'x, y, z'
loop_
 _atom_site_type_symbol
 _atom_site_label
 _atom_site_symmetry_multiplicity
 _atom_site_fract_x
 _atom_site_fract_y
 _atom_site_fract_z
 _atom_site_occupancy
  Li  Li0  1  0.94094600  0.94094600  0.35641900  1
  Li  Li1  1  0.05689900  0.05689900  0.65156400  1
  Ti  Ti0  1  0.29577200  0.29577200  0.28200600  1
  V  V0  1  0.61028400  0.61028400  0.30434500  1
  V  V1  1  0.38864000  0.38864000  0.69980100  1
  V  V2  1  0.70832200  0.70832200  0.71713500  1
  O  O0  1  0.87441100  0.87441100  0.67644000  1
  O  O1  1  0.77383800  0.77383800  0.34510400  1
  O  O2  1  0.65014000  0.65014000  0.98887100  1
  O  O3  1  0.56217400  0.56217400  0.62831100  1
  O  O4  1  0.43493300  0.43493300  0.36046900  1
  O  O5  1  0.35284800  0.35284800  0.00666000  1
  O  O6  1  0.22826900  0.22826900  0.66255100  1
  O  O7  1  0.12252600  0.12252600  0.32032500  1
loop_
_geom_bond_atom_site_label_1
_geom_bond_atom_site_label_2
_geom_bond_distance
_geom_bond_site_symmetry_2
Li0 O0 2.014756 1_555
Li0 O4 2.024868 1_565
Li0 O4 2.024868 1_655
Li0 O1 2.067656 1_555
Li0 O7 2.160586 1_665
Li1 O3 2.028980 1_545
Li1 O3 2.028980 1_455
Li1 O7 2.082329 1_555
Li1 O6 2.119030 1_555
Li1 O0 2.187788 1_445
O0 V2 1.966668 1_555
O0 V1 2.040918 1_565
O0 V1 2.040918 1_655
O1 Ti0 2.066881 1_565
O1 Ti0 2.066881 1_655
O1 V0 2.097452 1_555
O1 V2 2.334140 1_555
O2 V2 1.712674 1_555
O2 V0 1.983853 1_556
O3 V1 2.029696 1_555
O3 V0 2.032811 1_555
O3 V2 2.042436 1_555
O4 Ti0 1.922867 1_555
O4 V0 2.062738 1_555
O4 V1 2.131274 1_555
O5 Ti0 1.733316 1_555
O5 V1 1.932642 1_554
O6 V1 2.049233 1_555
O6 V2 2.056834 1_545
O6 V2 2.056834 1_455
O6 Ti0 2.387712 1_555
O7 V0 2.034259 1_455
O7 V0 2.034259 1_545
O7 Ti0 2.056410 1_555
