# generated using pymatgen
data_LiFeSiO4
_symmetry_space_group_name_H-M   'P 1'
_cell_length_a   5.22291400
_cell_length_b   10.57414900
_cell_length_c   12.96302700
_cell_angle_alpha   90.00000000
_cell_angle_beta   90.00000000
_cell_angle_gamma   90.00000000
_symmetry_Int_Tables_number   1
_chemical_formula_structural   LiFeSiO4
_chemical_formula_sum   'Li8 Fe8 Si8 O32'
_cell_volume   715.92038098
_cell_formula_units_Z   8
loop_
 _symmetry_equiv_pos_site_id
 _symmetry_equiv_pos_as_xyz
  1  'x, y, z'
loop_
 _atom_site_type_symbol
 _atom_site_label
 _atom_site_symmetry_multiplicity
 _atom_site_fract_x
 _atom_site_fract_y
 _atom_site_fract_z
 _atom_site_occupancy
  Li  Li0  1  0.07697200  0.04959100  0.24435400  1
  Li  Li1  1  0.57074500  0.20930800  0.99969000  1
  Li  Li2  1  0.57074500  0.29069200  0.49969000  1
  Li  Li3  1  0.07697200  0.45040900  0.74435400  1
  Li  Li4  1  0.92302800  0.54959100  0.24435400  1
  Li  Li5  1  0.42925500  0.70930800  0.99969000  1
  Li  Li6  1  0.42925500  0.79069200  0.49969000  1
  Li  Li7  1  0.92302800  0.95040900  0.74435400  1
  Fe  Fe0  1  0.41593900  0.04251700  0.62610500  1
  Fe  Fe1  1  0.05738300  0.21243000  0.87280000  1
  Fe  Fe2  1  0.05738300  0.28757000  0.37280000  1
  Fe  Fe3  1  0.41593900  0.45748300  0.12610500  1
  Fe  Fe4  1  0.58406100  0.54251700  0.62610500  1
  Fe  Fe5  1  0.94261700  0.71243000  0.87280000  1
  Fe  Fe6  1  0.94261700  0.78757000  0.37280000  1
  Fe  Fe7  1  0.58406100  0.95748300  0.12610500  1
  Si  Si0  1  0.90346600  0.03527000  0.49582300  1
  Si  Si1  1  0.56065700  0.20640600  0.25066900  1
  Si  Si2  1  0.56065700  0.29359400  0.75066900  1
  Si  Si3  1  0.90346600  0.46473000  0.99582300  1
  Si  Si4  1  0.09653400  0.53527000  0.49582300  1
  Si  Si5  1  0.43934300  0.70640600  0.25066900  1
  Si  Si6  1  0.43934300  0.79359400  0.75066900  1
  Si  Si7  1  0.09653400  0.96473000  0.99582300  1
  O  O0  1  0.93200800  0.99881800  0.10168900  1
  O  O1  1  0.60873900  0.98354800  0.51261800  1
  O  O2  1  0.46230400  0.05978900  0.23547000  1
  O  O3  1  0.98021000  0.03797200  0.89289000  1
  O  O4  1  0.48418600  0.21590800  0.64450900  1
  O  O5  1  0.91224200  0.19041700  0.48067700  1
  O  O6  1  0.87486100  0.28784500  0.76316700  1
  O  O7  1  0.41582800  0.23645500  0.85393900  1
  O  O8  1  0.41582800  0.26354500  0.35393900  1
  O  O9  1  0.87486100  0.21215500  0.26316700  1
  O  O10  1  0.91224200  0.30958300  0.98067700  1
  O  O11  1  0.48418600  0.28409200  0.14450900  1
  O  O12  1  0.98021000  0.46202800  0.39289000  1
  O  O13  1  0.46230400  0.44021100  0.73547000  1
  O  O14  1  0.60873900  0.51645200  0.01261800  1
  O  O15  1  0.93200800  0.50118200  0.60168900  1
  O  O16  1  0.06799200  0.49881800  0.10168900  1
  O  O17  1  0.39126100  0.48354800  0.51261800  1
  O  O18  1  0.53769600  0.55978900  0.23547000  1
  O  O19  1  0.01979000  0.53797200  0.89289000  1
  O  O20  1  0.51581400  0.71590800  0.64450900  1
  O  O21  1  0.08775800  0.69041700  0.48067700  1
  O  O22  1  0.12513900  0.78784500  0.76316700  1
  O  O23  1  0.58417200  0.73645500  0.85393900  1
  O  O24  1  0.58417200  0.76354500  0.35393900  1
  O  O25  1  0.12513900  0.71215500  0.26316700  1
  O  O26  1  0.08775800  0.80958300  0.98067700  1
  O  O27  1  0.51581400  0.78409200  0.14450900  1
  O  O28  1  0.01979000  0.96202800  0.39289000  1
  O  O29  1  0.53769600  0.94021100  0.73547000  1
  O  O30  1  0.39126100  0.01645200  0.01261800  1
  O  O31  1  0.06799200  0.00118200  0.60168900  1
loop_
_geom_bond_atom_site_label_1
_geom_bond_atom_site_label_2
_geom_bond_distance
_geom_bond_site_symmetry_2
Li0 O2 2.018730 1_555
Li0 O9 2.031911 1_455
Li0 O0 2.069218 1_445
Li0 O28 2.157302 1_545
Li1 O7 2.075285 1_555
Li1 O11 2.086610 1_556
Li1 O10 2.089568 1_555
Li1 O30 2.250679 1_556
Li2 O8 2.075285 1_555
Li2 O4 2.086610 1_555
Li2 O5 2.089568 1_555
Li2 O17 2.250679 1_555
Li3 O13 2.018730 1_555
Li3 O6 2.031911 1_455
Li3 O15 2.069218 1_455
Li3 O19 2.157302 1_555
Li4 O18 2.018730 1_555
Li4 O25 2.031911 1_655
Li4 O16 2.069218 1_655
Li4 O12 2.157302 1_555
Li5 O23 2.075285 1_555
Li5 O27 2.086610 1_556
Li5 O26 2.089568 1_555
Li5 O14 2.250679 1_556
Li6 O24 2.075285 1_555
Li6 O20 2.086610 1_555
Li6 O21 2.089568 1_555
Li6 O1 2.250679 1_555
Li7 O29 2.018730 1_555
Li7 O22 2.031911 1_655
Li7 O31 2.069218 1_665
Li7 O3 2.157302 1_565
Fe0 O4 1.882965 1_555
Fe0 O1 1.888664 1_545
Fe0 O29 1.893296 1_545
Fe0 O31 1.895728 1_555
Fe1 O6 1.887972 1_455
Fe1 O10 1.893562 1_455
Fe1 O7 1.905040 1_555
Fe1 O3 1.906140 1_455
Fe2 O9 1.887972 1_455
Fe2 O5 1.893562 1_455
Fe2 O8 1.905040 1_555
Fe2 O12 1.906140 1_455
Fe3 O11 1.882965 1_555
Fe3 O14 1.888664 1_555
Fe3 O18 1.893296 1_555
Fe3 O16 1.895728 1_555
Fe4 O20 1.882965 1_555
Fe4 O17 1.888664 1_555
Fe4 O13 1.893296 1_555
Fe4 O15 1.895728 1_555
Fe5 O22 1.887972 1_655
Fe5 O26 1.893562 1_655
Fe5 O23 1.905040 1_555
Fe5 O19 1.906140 1_655
Fe6 O25 1.887972 1_655
Fe6 O21 1.893562 1_655
Fe6 O24 1.905040 1_555
Fe6 O28 1.906140 1_655
Fe7 O27 1.882965 1_555
Fe7 O30 1.888664 1_565
Fe7 O2 1.893296 1_565
Fe7 O0 1.895728 1_555
O0 Si7 1.658812 1_654
O1 Si0 1.648049 1_565
O2 Si1 1.645078 1_555
O3 Si7 1.658114 1_645
O4 Si2 1.651704 1_555
O5 Si0 1.652890 1_555
O6 Si2 1.650158 1_555
O7 Si2 1.652070 1_555
O8 Si1 1.652070 1_555
O9 Si1 1.650158 1_555
O10 Si3 1.652890 1_555
O11 Si1 1.651704 1_555
O12 Si4 1.658114 1_655
O13 Si2 1.645078 1_555
O14 Si3 1.648049 1_554
O15 Si4 1.658812 1_655
O16 Si3 1.658812 1_454
O17 Si4 1.648049 1_555
O18 Si5 1.645078 1_555
O19 Si3 1.658114 1_455
O20 Si6 1.651704 1_555
O21 Si4 1.652890 1_555
O22 Si6 1.650158 1_555
O23 Si6 1.652070 1_555
O24 Si5 1.652070 1_555
O25 Si5 1.650158 1_555
O26 Si7 1.652890 1_555
O27 Si5 1.651704 1_555
O28 Si0 1.658114 1_465
O29 Si6 1.645078 1_555
O30 Si7 1.648049 1_544
O31 Si0 1.658812 1_455
