# generated using pymatgen
data_Na2Cr3O9
_symmetry_space_group_name_H-M   'P 1'
_cell_length_a   5.93514100
_cell_length_b   7.83782906
_cell_length_c   8.60264478
_cell_angle_alpha   110.94186643
_cell_angle_beta   90.00000000
_cell_angle_gamma   90.00000000
_symmetry_Int_Tables_number   1
_chemical_formula_structural   Na2Cr3O9
_chemical_formula_sum   'Na4 Cr6 O18'
_cell_volume   373.74849114
_cell_formula_units_Z   2
loop_
 _symmetry_equiv_pos_site_id
 _symmetry_equiv_pos_as_xyz
  1  'x, y, z'
loop_
 _atom_site_type_symbol
 _atom_site_label
 _atom_site_symmetry_multiplicity
 _atom_site_fract_x
 _atom_site_fract_y
 _atom_site_fract_z
 _atom_site_occupancy
  Na  Na0  1  0.75000000  0.15937800  0.09380300  1
  Na  Na1  1  0.25000000  0.84062200  0.90619700  1
  Na  Na2  1  0.75000000  0.78119900  0.24696100  1
  Na  Na3  1  0.25000000  0.21880100  0.75303900  1
  Cr  Cr0  1  0.50000000  0.50000000  0.50000000  1
  Cr  Cr1  1  0.00000000  0.50000000  0.50000000  1
  Cr  Cr2  1  0.25000000  0.49473500  0.16625600  1
  Cr  Cr3  1  0.75000000  0.50526500  0.83374400  1
  Cr  Cr4  1  0.25000000  0.06799000  0.32187600  1
  Cr  Cr5  1  0.75000000  0.93201000  0.67812400  1
  O  O0  1  0.48072900  0.55711200  0.29492300  1
  O  O1  1  0.98072900  0.44288800  0.70507700  1
  O  O2  1  0.51927100  0.44288800  0.70507700  1
  O  O3  1  0.01927100  0.55711200  0.29492300  1
  O  O4  1  0.47564800  0.99894400  0.20485900  1
  O  O5  1  0.97564800  0.00105600  0.79514100  1
  O  O6  1  0.52435200  0.00105600  0.79514100  1
  O  O7  1  0.02435200  0.99894400  0.20485900  1
  O  O8  1  0.25000000  0.31333900  0.41912200  1
  O  O9  1  0.75000000  0.68666100  0.58087800  1
  O  O10  1  0.75000000  0.35196800  0.41018200  1
  O  O11  1  0.25000000  0.64803200  0.58981800  1
  O  O12  1  0.25000000  0.27603200  0.05915300  1
  O  O13  1  0.75000000  0.72396800  0.94084700  1
  O  O14  1  0.25000000  0.60764400  0.04084600  1
  O  O15  1  0.75000000  0.39235600  0.95915400  1
  O  O16  1  0.25000000  0.98236700  0.46702800  1
  O  O17  1  0.75000000  0.01763300  0.53297200  1
loop_
_geom_bond_atom_site_label_1
_geom_bond_atom_site_label_2
_geom_bond_distance
_geom_bond_site_symmetry_2
Na0 O7 2.450331 1_645
Na0 O4 2.450331 1_545
Na0 O15 2.487607 1_554
Na0 O10 2.597952 1_555
Na0 O5 2.766871 1_554
Na0 O6 2.766871 1_554
Na1 O6 2.450331 1_565
Na1 O5 2.450331 1_465
Na1 O14 2.487607 1_556
Na1 O11 2.597952 1_555
Na1 O4 2.766871 1_556
Na1 O7 2.766871 1_556
Na2 O7 2.477319 1_655
Na2 O4 2.477319 1_555
Na2 O17 2.495709 1_565
Na2 O13 2.508296 1_554
Na2 O3 2.515386 1_655
Na2 O0 2.515386 1_555
Na3 O6 2.477319 1_555
Na3 O5 2.477319 1_455
Na3 O16 2.495709 1_545
Na3 O12 2.508296 1_556
Na3 O2 2.515386 1_555
Na3 O1 2.515386 1_455
Cr0 O11 1.871890 1_555
Cr0 O10 1.871890 1_555
Cr0 O0 1.972409 1_555
Cr0 O2 1.972409 1_555
Cr0 O9 2.024470 1_555
Cr0 O8 2.024470 1_555
Cr1 O11 1.871890 1_555
Cr1 O10 1.871890 1_455
Cr1 O3 1.972409 1_555
Cr1 O1 1.972409 1_455
Cr1 O9 2.024470 1_455
Cr1 O8 2.024470 1_555
Cr2 O14 1.621599 1_555
Cr2 O12 1.630416 1_555
Cr2 O0 1.718326 1_555
Cr2 O3 1.718326 1_555
Cr3 O15 1.621599 1_555
Cr3 O13 1.630416 1_555
Cr3 O1 1.718326 1_555
Cr3 O2 1.718326 1_555
Cr4 O16 1.615127 1_545
Cr4 O4 1.646327 1_545
Cr4 O7 1.646327 1_545
Cr4 O8 1.802168 1_555
Cr5 O17 1.615127 1_565
Cr5 O5 1.646327 1_565
Cr5 O6 1.646327 1_565
Cr5 O9 1.802168 1_555
