# generated using pymatgen
data_MnP4
_symmetry_space_group_name_H-M   'P 1'
_cell_length_a   13.68343100
_cell_length_b   4.76239200
_cell_length_c   7.03173101
_cell_angle_alpha   77.94081638
_cell_angle_beta   90.00000000
_cell_angle_gamma   90.00000000
_symmetry_Int_Tables_number   1
_chemical_formula_structural   MnP4
_chemical_formula_sum   'Mn6 P24'
_cell_volume   448.11676675
_cell_formula_units_Z   6
loop_
 _symmetry_equiv_pos_site_id
 _symmetry_equiv_pos_as_xyz
  1  'x, y, z'
loop_
 _atom_site_type_symbol
 _atom_site_label
 _atom_site_symmetry_multiplicity
 _atom_site_fract_x
 _atom_site_fract_y
 _atom_site_fract_z
 _atom_site_occupancy
  Mn  Mn0  1  0.50000000  0.00000000  0.50000000  1
  Mn  Mn1  1  0.66575300  0.86837200  0.86932000  1
  Mn  Mn2  1  0.00000000  0.00000000  0.00000000  1
  Mn  Mn3  1  0.83424700  0.86837200  0.36932000  1
  Mn  Mn4  1  0.16575300  0.13162800  0.63068000  1
  Mn  Mn5  1  0.33424700  0.13162800  0.13068000  1
  P  P0  1  0.27459500  0.92203200  0.87339100  1
  P  P1  1  0.22540500  0.92203200  0.37339100  1
  P  P2  1  0.05225300  0.79004300  0.75004100  1
  P  P3  1  0.38609300  0.73546900  0.70128600  1
  P  P4  1  0.44774700  0.79004300  0.25004100  1
  P  P5  1  0.60882900  0.64309700  0.64026900  1
  P  P6  1  0.94357700  0.62801300  0.56668800  1
  P  P7  1  0.77918900  0.50852800  0.95809100  1
  P  P8  1  0.11390700  0.73546900  0.20128600  1
  P  P9  1  0.89117100  0.64309700  0.14026900  1
  P  P10  1  0.27918900  0.49147200  0.54190900  1
  P  P11  1  0.55642300  0.62801300  0.06668800  1
  P  P12  1  0.44357700  0.37198700  0.93331200  1
  P  P13  1  0.72081100  0.50852800  0.45809100  1
  P  P14  1  0.10882900  0.35690300  0.85973100  1
  P  P15  1  0.88609300  0.26453100  0.79871400  1
  P  P16  1  0.22081100  0.49147200  0.04190900  1
  P  P17  1  0.05642300  0.37198700  0.43331200  1
  P  P18  1  0.39117100  0.35690300  0.35973100  1
  P  P19  1  0.55225300  0.20995700  0.74995900  1
  P  P20  1  0.61390700  0.26453100  0.29871400  1
  P  P21  1  0.94774700  0.20995700  0.24995900  1
  P  P22  1  0.77459500  0.07796800  0.62660900  1
  P  P23  1  0.72540500  0.07796800  0.12660900  1
loop_
_geom_bond_atom_site_label_1
_geom_bond_atom_site_label_2
_geom_bond_distance
_geom_bond_site_symmetry_2
Mn0 P20 2.296675 1_555
Mn0 P3 2.296675 1_545
Mn0 P4 2.309693 1_545
Mn0 P19 2.309693 1_555
Mn0 P5 2.319256 1_545
Mn0 P18 2.319256 1_555
Mn1 P11 2.193317 1_556
Mn1 P5 2.252519 1_555
Mn1 P19 2.278666 1_565
Mn1 P7 2.299739 1_555
Mn1 P22 2.327100 1_565
Mn1 P23 2.385446 1_566
Mn2 P15 2.296675 1_454
Mn2 P8 2.296675 1_545
Mn2 P21 2.309693 1_455
Mn2 P2 2.309693 1_544
Mn2 P9 2.319256 1_445
Mn2 P14 2.319256 1_554
Mn3 P6 2.193317 1_555
Mn3 P9 2.252519 1_555
Mn3 P21 2.278666 1_565
Mn3 P13 2.299739 1_555
Mn3 P23 2.327100 1_565
Mn3 P22 2.385446 1_565
Mn4 P17 2.193317 1_555
Mn4 P14 2.252519 1_555
Mn4 P2 2.278666 1_545
Mn4 P10 2.299739 1_555
Mn4 P0 2.327100 1_545
Mn4 P1 2.385446 1_545
Mn5 P12 2.193317 1_554
Mn5 P18 2.252519 1_555
Mn5 P4 2.278666 1_545
Mn5 P16 2.299739 1_555
Mn5 P1 2.327100 1_545
Mn5 P0 2.385446 1_544
P0 P3 2.242978 1_555
P0 P16 2.266064 1_556
P1 P8 2.242978 1_555
P1 P10 2.266064 1_555
P2 P6 2.210150 1_455
P7 P9 2.177779 1_556
P10 P18 2.177779 1_555
P10 P3 2.300041 1_555
P11 P4 2.210150 1_555
P11 P20 2.257665 1_555
P11 P12 2.286569 1_554
P12 P19 2.210150 1_555
P12 P3 2.257665 1_555
P13 P5 2.177779 1_555
P13 P22 2.266064 1_555
P13 P20 2.300041 1_555
P14 P16 2.177779 1_556
P14 P2 2.187349 1_555
P15 P22 2.242978 1_555
P15 P6 2.257665 1_555
P15 P7 2.300041 1_555
P16 P8 2.300041 1_555
P17 P21 2.210150 1_455
P17 P8 2.257665 1_555
P17 P6 2.286569 1_455
P18 P4 2.187349 1_555
P19 P5 2.187349 1_555
P20 P23 2.242978 1_555
P21 P9 2.187349 1_555
P23 P7 2.266064 1_554
