# generated using pymatgen
data_K2InBr5O
_symmetry_space_group_name_H-M   'P 1'
_cell_length_a   8.35185800
_cell_length_b   10.76391000
_cell_length_c   13.27520500
_cell_angle_alpha   90.00000000
_cell_angle_beta   90.00000000
_cell_angle_gamma   90.00000000
_symmetry_Int_Tables_number   1
_chemical_formula_structural   K2InBr5O
_chemical_formula_sum   'K8 In4 Br20 O4'
_cell_volume   1193.42297936
_cell_formula_units_Z   4
loop_
 _symmetry_equiv_pos_site_id
 _symmetry_equiv_pos_as_xyz
  1  'x, y, z'
loop_
 _atom_site_type_symbol
 _atom_site_label
 _atom_site_symmetry_multiplicity
 _atom_site_fract_x
 _atom_site_fract_y
 _atom_site_fract_z
 _atom_site_occupancy
  K  K0  1  0.13854000  0.48698800  0.35393900  1
  K  K1  1  0.36146000  0.01301200  0.85393900  1
  K  K2  1  0.86146000  0.98698800  0.64606100  1
  K  K3  1  0.63854000  0.51301200  0.14606100  1
  K  K4  1  0.86146000  0.51301200  0.64606100  1
  K  K5  1  0.63854000  0.98698800  0.14606100  1
  K  K6  1  0.13854000  0.01301200  0.35393900  1
  K  K7  1  0.36146000  0.48698800  0.85393900  1
  In  In0  1  0.22562400  0.75000000  0.10324100  1
  In  In1  1  0.27437600  0.75000000  0.60324100  1
  In  In2  1  0.77437600  0.25000000  0.89675900  1
  In  In3  1  0.72562400  0.25000000  0.39675900  1
  Br  Br0  1  0.89609300  0.75000000  0.19753300  1
  Br  Br1  1  0.60390700  0.75000000  0.69753300  1
  Br  Br2  1  0.10390700  0.25000000  0.80246700  1
  Br  Br3  1  0.39609300  0.25000000  0.30246700  1
  Br  Br4  1  0.37698600  0.75000000  0.27815100  1
  Br  Br5  1  0.12301400  0.75000000  0.77815100  1
  Br  Br6  1  0.62301400  0.25000000  0.72184900  1
  Br  Br7  1  0.87698600  0.25000000  0.22184900  1
  Br  Br8  1  0.48410000  0.75000000  0.98620900  1
  Br  Br9  1  0.01590000  0.75000000  0.48620900  1
  Br  Br10  1  0.51590000  0.25000000  0.01379100  1
  Br  Br11  1  0.98410000  0.25000000  0.51379100  1
  Br  Br12  1  0.20116400  0.50270200  0.09653400  1
  Br  Br13  1  0.29883600  0.99729800  0.59653400  1
  Br  Br14  1  0.79883600  0.00270200  0.90346600  1
  Br  Br15  1  0.70116400  0.49729800  0.40346600  1
  Br  Br16  1  0.79883600  0.49729800  0.90346600  1
  Br  Br17  1  0.70116400  0.00270200  0.40346600  1
  Br  Br18  1  0.20116400  0.99729800  0.09653400  1
  Br  Br19  1  0.29883600  0.50270200  0.59653400  1
  O  O0  1  0.00051800  0.75000000  0.02466300  1
  O  O1  1  0.49948200  0.75000000  0.52466300  1
  O  O2  1  0.99948200  0.25000000  0.97533700  1
  O  O3  1  0.50051800  0.25000000  0.47533700  1
loop_
_geom_bond_atom_site_label_1
_geom_bond_atom_site_label_2
_geom_bond_distance
_geom_bond_site_symmetry_2
In0 O0 2.150056 1_555
In1 O1 2.150056 1_555
In2 O2 2.150056 1_555
In3 O3 2.150056 1_555
Br0 O0 2.455021 1_655
Br0 In0 3.023483 1_655
Br0 K5 3.406036 1_555
Br0 K3 3.406036 1_555
Br1 O1 2.455021 1_555
Br1 In1 3.023483 1_555
Br1 K2 3.406036 1_555
Br1 K4 3.406036 1_555
Br2 O2 2.455021 1_455
Br2 In2 3.023483 1_455
Br2 K7 3.406036 1_555
Br2 K1 3.406036 1_555
Br3 O3 2.455021 1_555
Br3 In3 3.023483 1_555
Br3 K0 3.406036 1_555
Br3 K6 3.406036 1_555
Br4 In0 2.643787 1_555
Br4 K6 3.604574 1_565
Br4 K0 3.604574 1_555
Br4 K5 3.788653 1_555
Br4 K3 3.788653 1_555
Br5 In1 2.643787 1_555
Br5 K7 3.604574 1_555
Br5 K1 3.604574 1_565
Br5 K4 3.788653 1_455
Br5 K2 3.788653 1_455
Br6 In2 2.643787 1_555
Br6 K2 3.604574 1_545
Br6 K4 3.604574 1_555
Br6 K1 3.788653 1_555
Br6 K7 3.788653 1_555
Br7 In3 2.643787 1_555
Br7 K5 3.604574 1_545
Br7 K3 3.604574 1_555
Br7 K0 3.788653 1_655
Br7 K6 3.788653 1_655
Br8 In0 2.659693 1_556
Br8 K1 3.485273 1_565
Br8 K7 3.485273 1_555
Br8 K3 3.560069 1_556
Br8 K5 3.560069 1_556
Br9 In1 2.659693 1_555
Br9 K6 3.485273 1_565
Br9 K0 3.485273 1_555
Br9 K2 3.560069 1_455
Br9 K4 3.560069 1_455
Br10 In2 2.659693 1_554
Br10 K3 3.485273 1_555
Br10 K5 3.485273 1_545
Br10 K7 3.560069 1_554
Br10 K1 3.560069 1_554
Br11 In3 2.659693 1_555
Br11 K2 3.485273 1_545
Br11 K4 3.485273 1_555
Br11 K0 3.560069 1_655
Br11 K6 3.560069 1_655
Br12 In0 2.671205 1_555
Br12 K0 3.461036 1_555
Br12 K7 3.491779 1_554
Br12 K3 3.713259 1_555
Br13 In1 2.671205 1_555
Br13 K1 3.461036 1_565
Br13 K6 3.491779 1_565
Br13 K2 3.713259 1_455
Br14 In2 2.671205 1_555
Br14 K2 3.461036 1_545
Br14 K5 3.491779 1_546
Br14 K1 3.713259 1_555
Br15 In3 2.671205 1_555
Br15 K3 3.461036 1_555
Br15 K4 3.491779 1_555
Br15 K0 3.713259 1_655
Br16 In2 2.671205 1_555
Br16 K4 3.461036 1_555
Br16 K3 3.491779 1_556
Br16 K7 3.713259 1_555
Br17 In3 2.671205 1_555
Br17 K5 3.461036 1_545
Br17 K2 3.491779 1_545
Br17 K6 3.713259 1_655
Br18 In0 2.671205 1_555
Br18 K6 3.461036 1_565
Br18 K1 3.491779 1_564
Br18 K5 3.713259 1_555
Br19 In1 2.671205 1_555
Br19 K7 3.461036 1_555
Br19 K0 3.491779 1_555
Br19 K4 3.713259 1_455
