# generated using pymatgen
data_Li2V2CoO6
_symmetry_space_group_name_H-M   'P 1'
_cell_length_a   5.14512407
_cell_length_b   5.14512407
_cell_length_c   10.31986600
_cell_angle_alpha   90.00000000
_cell_angle_beta   90.00000000
_cell_angle_gamma   120.91859172
_symmetry_Int_Tables_number   1
_chemical_formula_structural   Li2V2CoO6
_chemical_formula_sum   'Li4 V4 Co2 O12'
_cell_volume   234.36973550
_cell_formula_units_Z   2
loop_
 _symmetry_equiv_pos_site_id
 _symmetry_equiv_pos_as_xyz
  1  'x, y, z'
loop_
 _atom_site_type_symbol
 _atom_site_label
 _atom_site_symmetry_multiplicity
 _atom_site_fract_x
 _atom_site_fract_y
 _atom_site_fract_z
 _atom_site_occupancy
  Li  Li0  1  0.16308100  0.66308100  0.25000000  1
  Li  Li1  1  0.33691900  0.83691900  0.75000000  1
  Li  Li2  1  0.66308100  0.16308100  0.25000000  1
  Li  Li3  1  0.83691900  0.33691900  0.75000000  1
  V  V0  1  0.33712400  0.66287600  0.00000000  1
  V  V1  1  0.16287600  0.83712400  0.50000000  1
  V  V2  1  0.83712400  0.16287600  0.50000000  1
  V  V3  1  0.66287600  0.33712400  0.00000000  1
  Co  Co0  1  0.50000000  0.50000000  0.50000000  1
  Co  Co1  1  0.00000000  0.00000000  0.00000000  1
  O  O0  1  0.14322500  0.51031200  0.60718600  1
  O  O1  1  0.85677500  0.48968800  0.39281400  1
  O  O2  1  0.01031200  0.64322500  0.89281400  1
  O  O3  1  0.35677500  0.98968800  0.10718600  1
  O  O4  1  0.66191800  0.66191800  0.09453700  1
  O  O5  1  0.83808200  0.83808200  0.59453700  1
  O  O6  1  0.16191800  0.16191800  0.40546300  1
  O  O7  1  0.48968800  0.85677500  0.39281400  1
  O  O8  1  0.33808200  0.33808200  0.90546300  1
  O  O9  1  0.64322500  0.01031200  0.89281400  1
  O  O10  1  0.98968800  0.35677500  0.10718600  1
  O  O11  1  0.51031200  0.14322500  0.60718600  1
loop_
_geom_bond_atom_site_label_1
_geom_bond_atom_site_label_2
_geom_bond_distance
_geom_bond_site_symmetry_2
Li0 O1 2.001730 1_455
Li0 O10 2.001730 1_455
Li0 O7 2.065963 1_555
Li0 O3 2.065963 1_555
Li1 O9 2.001730 1_565
Li1 O11 2.001730 1_565
Li1 O2 2.065963 1_555
Li1 O0 2.065963 1_555
Li2 O7 2.001730 1_545
Li2 O3 2.001730 1_545
Li2 O1 2.065963 1_555
Li2 O10 2.065963 1_555
Li3 O0 2.001730 1_655
Li3 O2 2.001730 1_655
Li3 O9 2.065963 1_555
Li3 O11 2.065963 1_555
Co0 O5 1.973310 1_555
Co0 O6 1.973310 1_555
Co0 O0 2.167043 1_555
Co0 O11 2.167043 1_555
Co0 O1 2.167043 1_555
Co0 O7 2.167043 1_555
Co1 O4 1.973310 1_445
Co1 O8 1.973310 1_554
Co1 O3 2.167043 1_545
Co1 O10 2.167043 1_455
Co1 O9 2.167043 1_454
Co1 O2 2.167043 1_544
O0 V1 1.971414 1_555
O0 V2 2.001578 1_455
O1 V2 1.971414 1_555
O1 V1 2.001578 1_655
O2 V0 1.971414 1_556
O2 V3 2.001578 1_456
O3 V0 1.971414 1_555
O3 V3 2.001578 1_565
O4 V0 1.937239 1_555
O4 V3 1.937239 1_555
O5 V1 1.937239 1_655
O5 V2 1.937239 1_565
O6 V1 1.937239 1_545
O6 V2 1.937239 1_455
O7 V1 1.971414 1_555
O7 V2 2.001578 1_565
O8 V0 1.937239 1_556
O8 V3 1.937239 1_556
O9 V3 1.971414 1_556
O9 V0 2.001578 1_546
O10 V3 1.971414 1_555
O10 V0 2.001578 1_655
O11 V2 1.971414 1_555
O11 V1 2.001578 1_545
