# generated using pymatgen
data_Li5V3P8O29
_symmetry_space_group_name_H-M   'P 1'
_cell_length_a   9.82332766
_cell_length_b   9.82332766
_cell_length_c   14.01667637
_cell_angle_alpha   89.81023250
_cell_angle_beta   89.81023250
_cell_angle_gamma   59.86674914
_symmetry_Int_Tables_number   1
_chemical_formula_structural   Li5V3P8O29
_chemical_formula_sum   'Li10 V6 P16 O58'
_cell_volume   1169.78234347
_cell_formula_units_Z   2
loop_
 _symmetry_equiv_pos_site_id
 _symmetry_equiv_pos_as_xyz
  1  'x, y, z'
loop_
 _atom_site_type_symbol
 _atom_site_label
 _atom_site_symmetry_multiplicity
 _atom_site_fract_x
 _atom_site_fract_y
 _atom_site_fract_z
 _atom_site_occupancy
  Li  Li0  1  0.22923300  0.68000200  0.06087100  1
  Li  Li1  1  0.09495800  0.67980500  0.56072500  1
  Li  Li2  1  0.68000200  0.22923300  0.56087100  1
  Li  Li3  1  0.67980500  0.09495800  0.06072500  1
  Li  Li4  1  0.77073800  0.90846800  0.43979100  1
  Li  Li5  1  0.90846800  0.77073800  0.93979100  1
  Li  Li6  1  0.31823400  0.91136000  0.94100900  1
  Li  Li7  1  0.31922400  0.77845500  0.44152300  1
  Li  Li8  1  0.91136000  0.31823400  0.44100900  1
  Li  Li9  1  0.77845500  0.31922400  0.94152300  1
  V  V0  1  0.57035000  0.43310100  0.75191600  1
  V  V1  1  0.99994800  0.56625200  0.74968800  1
  V  V2  1  0.56625200  0.99994800  0.24968800  1
  V  V3  1  0.42681500  0.00476700  0.74624800  1
  V  V4  1  0.00476700  0.42681500  0.24624800  1
  V  V5  1  0.43310100  0.57035000  0.25191600  1
  P  P0  1  0.23213000  0.67991800  0.84118200  1
  P  P1  1  0.08714700  0.67972600  0.34164100  1
  P  P2  1  0.67991800  0.23213000  0.34118200  1
  P  P3  1  0.33616100  0.33550200  0.62758700  1
  P  P4  1  0.33550200  0.33616100  0.12758700  1
  P  P5  1  0.67972600  0.08714700  0.84164100  1
  P  P6  1  0.76705900  0.91395100  0.65874100  1
  P  P7  1  0.08619400  0.23201800  0.84141600  1
  P  P8  1  0.91395100  0.76705900  0.15874100  1
  P  P9  1  0.23201800  0.08619400  0.34141600  1
  P  P10  1  0.31810100  0.91370200  0.15704900  1
  P  P11  1  0.66540500  0.67047500  0.87184400  1
  P  P12  1  0.67047500  0.66540500  0.37184400  1
  P  P13  1  0.32073400  0.76914800  0.65910700  1
  P  P14  1  0.91370200  0.31810100  0.65704900  1
  P  P15  1  0.76914800  0.32073400  0.15910700  1
  O  O0  1  0.23964100  0.76403000  0.56970800  1
  O  O1  1  0.25134000  0.66376300  0.34322900  1
  O  O2  1  0.00029600  0.79003600  0.24978000  1
  O  O3  1  0.00368000  0.75442600  0.06831500  1
  O  O4  1  0.38191400  0.51993300  0.82321400  1
  O  O5  1  0.08335400  0.66392800  0.83979800  1
  O  O6  1  0.32621400  0.48794900  0.16698900  1
  O  O7  1  0.51993300  0.38191400  0.32321400  1
  O  O8  1  0.76403000  0.23964100  0.06970800  1
  O  O9  1  0.66376300  0.25134000  0.84322900  1
  O  O10  1  0.18766600  0.48688800  0.66730600  1
  O  O11  1  0.48794900  0.32621400  0.66698900  1
  O  O12  1  0.09553900  0.52118800  0.32227900  1
  O  O13  1  0.33605800  0.33017700  0.52135300  1
  O  O14  1  0.33017700  0.33605800  0.02135300  1
  O  O15  1  0.10038300  0.37960600  0.82485300  1
  O  O16  1  0.48688800  0.18766600  0.16730600  1
  O  O17  1  0.18522600  0.33442200  0.17436000  1
  O  O18  1  0.66392800  0.08335400  0.33979800  1
  O  O19  1  0.79003600  0.00029600  0.74978000  1
  O  O20  1  0.75760400  0.99776500  0.93151000  1
  O  O21  1  0.75442600  0.00368000  0.56831500  1
  O  O22  1  0.52118800  0.09553900  0.82227900  1
  O  O23  1  0.33442200  0.18522600  0.67436000  1
  O  O24  1  0.08088900  0.25639200  0.33697800  1
  O  O25  1  0.74874000  0.91748200  0.15702300  1
  O  O26  1  0.37960600  0.10038300  0.32485300  1
  O  O27  1  0.99776500  0.75760400  0.43151000  1
  O  O28  1  0.99090900  0.24907300  0.56521500  1
  O  O29  1  0.61675200  0.90451500  0.67717800  1
  O  O30  1  0.25639200  0.08088900  0.83697800  1
  O  O31  1  0.00464500  0.21012400  0.74628200  1
  O  O32  1  0.91748200  0.74874000  0.65702300  1
  O  O33  1  0.67254500  0.81673900  0.32989600  1
  O  O34  1  0.48028900  0.89776000  0.17617300  1
  O  O35  1  0.24907300  0.99090900  0.06521500  1
  O  O36  1  0.23311300  0.99719300  0.42659300  1
  O  O37  1  0.21012400  0.00464500  0.24628200  1
  O  O38  1  0.33927600  0.91707700  0.66511400  1
  O  O39  1  0.81673900  0.67254500  0.82989600  1
  O  O40  1  0.90451500  0.61675200  0.17717800  1
  O  O41  1  0.51233100  0.81907100  0.82891400  1
  O  O42  1  0.67394200  0.66618900  0.47757900  1
  O  O43  1  0.66618900  0.67394200  0.97757900  1
  O  O44  1  0.89776000  0.48028900  0.67617300  1
  O  O45  1  0.51452800  0.67425700  0.33380900  1
  O  O46  1  0.81907100  0.51233100  0.32891400  1
  O  O47  1  0.33465700  0.74616500  0.16474000  1
  O  O48  1  0.20979700  0.79010100  0.74989000  1
  O  O49  1  0.24264100  0.75752600  0.93082900  1
  O  O50  1  0.48009300  0.62114500  0.67511800  1
  O  O51  1  0.67425700  0.51452800  0.83380900  1
  O  O52  1  0.91707700  0.33927600  0.16511400  1
  O  O53  1  0.62114500  0.48009300  0.17511800  1
  O  O54  1  0.99719300  0.23311300  0.92659300  1
  O  O55  1  0.74616500  0.33465700  0.66474000  1
  O  O56  1  0.75752600  0.24264100  0.43082900  1
  O  O57  1  0.79010100  0.20979700  0.24989000  1
loop_
_geom_bond_atom_site_label_1
_geom_bond_atom_site_label_2
_geom_bond_distance
_geom_bond_site_symmetry_2
Li0 O3 1.956326 1_555
Li0 O49 2.002414 1_554
Li0 O47 2.075238 1_555
Li0 O6 2.205792 1_555
Li1 O0 1.975582 1_555
Li1 O27 2.011376 1_455
Li1 O32 2.031023 1_455
Li1 O10 2.215842 1_555
Li2 O21 1.956326 1_555
Li2 O56 2.002414 1_555
Li2 O55 2.075238 1_555
Li2 O11 2.205792 1_555
Li3 O8 1.975582 1_555
Li3 O20 2.011376 1_544
Li3 O25 2.031023 1_545
Li3 O16 2.215842 1_555
Li4 O27 1.965814 1_555
Li4 O21 2.001140 1_565
Li4 O18 2.049554 1_565
Li4 O33 2.237586 1_555
Li5 O20 1.965814 1_555
Li5 O3 2.001140 1_656
Li5 O5 2.049554 1_655
Li5 O39 2.237586 1_555
Li6 O35 1.889783 1_556
Li6 O49 1.996043 1_555
Li6 O30 2.059778 1_565
Li6 O41 2.275973 1_555
Li7 O36 1.884056 1_555
Li7 O0 1.989901 1_555
Li7 O1 2.093550 1_555
Li7 O45 2.242172 1_555
Li8 O28 1.889783 1_555
Li8 O56 1.996043 1_555
Li8 O24 2.059778 1_655
Li8 O46 2.275973 1_555
Li9 O54 1.884056 1_555
Li9 O8 1.989901 1_556
Li9 O9 2.093550 1_555
Li9 O51 2.242172 1_555
O0 P13 1.501515 1_555
O1 P1 1.540414 1_555
O1 V5 2.003952 1_555
O2 P8 1.612456 1_455
O2 P1 1.621664 1_555
O3 P8 1.510839 1_455
O4 P0 1.541663 1_555
O4 V0 1.887025 1_555
O5 P0 1.546497 1_555
O5 V1 1.997851 1_455
O6 P4 1.550852 1_555
O6 V5 2.010651 1_555
O7 P2 1.541663 1_555
O7 V5 1.887025 1_555
O8 P15 1.501515 1_555
O9 P5 1.540414 1_555
O9 V0 2.003952 1_555
O10 P3 1.572069 1_555
O10 V1 1.972314 1_455
O11 P3 1.550852 1_555
O11 V0 2.010651 1_555
O12 P1 1.542596 1_555
O12 V4 1.906059 1_555
O13 P3 1.490161 1_555
O14 P4 1.490161 1_555
O15 P7 1.541333 1_555
O15 V1 1.903401 1_455
O16 P4 1.572069 1_555
O16 V2 1.972314 1_545
O17 P4 1.621153 1_555
O17 V4 1.833137 1_555
O18 P2 1.546497 1_555
O18 V2 1.997851 1_545
O19 P6 1.612456 1_545
O19 P5 1.621664 1_555
O20 P5 1.505852 1_565
O21 P6 1.510839 1_545
O22 P5 1.542596 1_555
O22 V3 1.906059 1_555
O23 P3 1.621153 1_555
O23 V3 1.833137 1_555
O24 P9 1.584611 1_555
O24 V4 1.927290 1_555
O25 P8 1.552472 1_555
O25 V2 2.022456 1_555
O26 P9 1.541333 1_555
O26 V2 1.903401 1_545
O27 P1 1.505852 1_655
O28 P14 1.474748 1_555
O29 P6 1.546027 1_555
O29 V3 1.880923 1_565
O30 P7 1.584611 1_555
O30 V3 1.927290 1_555
O31 P14 1.592093 1_455
O31 P7 1.627289 1_555
O32 P6 1.552472 1_555
O32 V1 2.022456 1_555
O33 P12 1.606423 1_555
O33 V2 1.923750 1_555
O34 P10 1.544923 1_555
O34 V2 1.909516 1_555
O35 P10 1.474748 1_555
O36 P9 1.474318 1_565
O37 P10 1.592093 1_545
O37 P9 1.627289 1_555
O38 P13 1.555181 1_555
O38 V3 1.879222 1_565
O39 P11 1.606423 1_555
O39 V1 1.923750 1_555
O40 P8 1.546027 1_555
O40 V4 1.880923 1_655
O41 P11 1.596971 1_555
O41 V3 1.956964 1_565
O42 P12 1.482692 1_555
O43 P11 1.482692 1_555
O44 P14 1.544923 1_555
O44 V1 1.909516 1_555
O45 P12 1.584271 1_555
O45 V5 1.957767 1_555
O46 P12 1.596971 1_555
O46 V4 1.956964 1_655
O47 P10 1.573797 1_555
O47 V5 1.930815 1_555
O48 P0 1.615958 1_555
O48 P13 1.617560 1_555
O49 P0 1.502342 1_555
O50 P13 1.526359 1_555
O50 V0 1.925055 1_555
O51 P11 1.584271 1_555
O51 V0 1.957767 1_555
O52 P15 1.555181 1_555
O52 V4 1.879222 1_655
O53 P15 1.526359 1_555
O53 V5 1.925055 1_555
O54 P7 1.474318 1_655
O55 P14 1.573797 1_555
O55 V0 1.930815 1_555
O56 P2 1.502342 1_555
O57 P2 1.615958 1_555
O57 P15 1.617560 1_555
