# generated using pymatgen
data_Li2V2O5F2
_symmetry_space_group_name_H-M   'P 1'
_cell_length_a   7.06339526
_cell_length_b   7.06339526
_cell_length_c   6.87989077
_cell_angle_alpha   63.30321160
_cell_angle_beta   63.30321160
_cell_angle_gamma   61.92844234
_symmetry_Int_Tables_number   1
_chemical_formula_structural   Li2V2O5F2
_chemical_formula_sum   'Li4 V4 O10 F4'
_cell_volume   257.97095068
_cell_formula_units_Z   2
loop_
 _symmetry_equiv_pos_site_id
 _symmetry_equiv_pos_as_xyz
  1  'x, y, z'
loop_
 _atom_site_type_symbol
 _atom_site_label
 _atom_site_symmetry_multiplicity
 _atom_site_fract_x
 _atom_site_fract_y
 _atom_site_fract_z
 _atom_site_occupancy
  Li  Li0  1  0.40717600  0.44035600  0.57777900  1
  Li  Li1  1  0.02695600  0.56545900  0.95292100  1
  Li  Li2  1  0.44035600  0.40717600  0.07777900  1
  Li  Li3  1  0.56545900  0.02695600  0.45292100  1
  V  V0  1  0.01153100  0.03141100  0.97257800  1
  V  V1  1  0.94845500  0.53266900  0.52231300  1
  V  V2  1  0.03141100  0.01153100  0.47257800  1
  V  V3  1  0.53266900  0.94845500  0.02231300  1
  O  O0  1  0.06415900  0.67122600  0.57196700  1
  O  O1  1  0.31405600  0.94500200  0.31419800  1
  O  O2  1  0.05413700  0.90925100  0.76986300  1
  O  O3  1  0.67958400  0.68648100  0.56198500  1
  O  O4  1  0.67122600  0.06415900  0.07196700  1
  O  O5  1  0.94500200  0.31405600  0.81419800  1
  O  O6  1  0.29199600  0.96180000  0.94257800  1
  O  O7  1  0.90925100  0.05413700  0.26986300  1
  O  O8  1  0.68648100  0.67958400  0.06198500  1
  O  O9  1  0.96180000  0.29199600  0.44257800  1
  F  F0  1  0.32942200  0.37724400  0.89468700  1
  F  F1  1  0.05525600  0.65605300  0.18929200  1
  F  F2  1  0.37724400  0.32942200  0.39468700  1
  F  F3  1  0.65605300  0.05525600  0.68929200  1
loop_
_geom_bond_atom_site_label_1
_geom_bond_atom_site_label_2
_geom_bond_distance
_geom_bond_site_symmetry_2
Li0 O0 2.200250 1_555
Li1 O8 2.023353 1_456
Li1 O2 2.234580 1_555
Li1 O0 2.302817 1_555
Li2 O4 2.200250 1_555
Li3 O3 2.023353 1_545
Li3 O7 2.234580 1_555
Li3 O4 2.302817 1_555
O0 V1 1.745417 1_455
O0 V2 2.107335 1_565
O1 V2 1.736764 1_565
O1 V3 1.903365 1_555
O2 V0 1.799987 1_565
O2 V2 1.894485 1_565
O3 V1 1.649363 1_555
O4 V3 1.745417 1_545
O4 V0 2.107335 1_654
O5 V0 1.736764 1_655
O5 V1 1.903365 1_555
O6 V0 1.736641 1_565
O6 V3 1.959684 1_556
O7 V2 1.799987 1_655
O7 V0 1.894485 1_654
O8 V3 1.649363 1_555
O9 V2 1.736641 1_655
O9 V1 1.959684 1_555
F0 Li2 1.878164 1_556
F0 Li1 1.878474 1_555
F0 Li0 1.880208 1_555
F1 V1 1.962025 1_455
F1 Li1 2.107482 1_554
F1 V0 2.332156 1_564
F1 Li2 2.431927 1_555
F2 Li0 1.878164 1_555
F2 Li3 1.878474 1_555
F2 Li2 1.880208 1_555
F3 V3 1.962025 1_546
F3 Li3 2.107482 1_555
F3 V2 2.332156 1_655
F3 Li0 2.431927 1_555
