# generated using pymatgen
data_Li3Cr4(PO4)6
_symmetry_space_group_name_H-M   'P 1'
_cell_length_a   6.35883700
_cell_length_b   8.48148001
_cell_length_c   8.75805638
_cell_angle_alpha   91.45866258
_cell_angle_beta   106.87729316
_cell_angle_gamma   105.54277504
_symmetry_Int_Tables_number   1
_chemical_formula_structural   Li3Cr4(PO4)6
_chemical_formula_sum   'Li3 Cr4 P6 O24'
_cell_volume   432.72935942
_cell_formula_units_Z   1
loop_
 _symmetry_equiv_pos_site_id
 _symmetry_equiv_pos_as_xyz
  1  'x, y, z'
loop_
 _atom_site_type_symbol
 _atom_site_label
 _atom_site_symmetry_multiplicity
 _atom_site_fract_x
 _atom_site_fract_y
 _atom_site_fract_z
 _atom_site_occupancy
  Li  Li0  1  0.73911700  0.71312800  0.29476000  1
  Li  Li1  1  0.00000000  0.50000000  0.50000000  1
  Li  Li2  1  0.26088300  0.28687200  0.70524000  1
  Cr  Cr0  1  0.13431300  0.37656900  0.05947900  1
  Cr  Cr1  1  0.63475800  0.05906100  0.38141000  1
  Cr  Cr2  1  0.36524200  0.94093900  0.61859000  1
  Cr  Cr3  1  0.86568700  0.62343100  0.94052100  1
  P  P0  1  0.65015400  0.35498200  0.15099600  1
  P  P1  1  0.24786100  0.71412400  0.28216800  1
  P  P2  1  0.13217700  0.14752500  0.35207700  1
  P  P3  1  0.86782300  0.85247500  0.64792300  1
  P  P4  1  0.75213900  0.28587600  0.71783200  1
  P  P5  1  0.34984600  0.64501800  0.84900400  1
  O  O0  1  0.82518400  0.40413400  0.04903000  1
  O  O1  1  0.41514900  0.35361200  0.02636100  1
  O  O2  1  0.62641800  0.17741200  0.19148600  1
  O  O3  1  0.02578100  0.73638200  0.15903500  1
  O  O4  1  0.46892200  0.83405100  0.26363500  1
  O  O5  1  0.12830700  0.19313000  0.18165200  1
  O  O6  1  0.73011600  0.47913300  0.29589000  1
  O  O7  1  0.90715300  0.01308600  0.34420300  1
  O  O8  1  0.26432100  0.53675700  0.25201800  1
  O  O9  1  0.32847900  0.05903200  0.41205100  1
  O  O10  1  0.82546200  0.70254100  0.53386200  1
  O  O11  1  0.22552000  0.73731000  0.45226600  1
  O  O12  1  0.77448000  0.26269000  0.54773400  1
  O  O13  1  0.17453800  0.29745900  0.46613800  1
  O  O14  1  0.67152100  0.94096800  0.58794900  1
  O  O15  1  0.73567900  0.46324300  0.74798200  1
  O  O16  1  0.09284700  0.98691400  0.65579700  1
  O  O17  1  0.26988400  0.52086700  0.70411000  1
  O  O18  1  0.87169300  0.80687000  0.81834800  1
  O  O19  1  0.53107800  0.16594900  0.73636500  1
  O  O20  1  0.97421900  0.26361800  0.84096500  1
  O  O21  1  0.37358200  0.82258800  0.80851400  1
  O  O22  1  0.58485100  0.64638800  0.97363900  1
  O  O23  1  0.17481600  0.59586600  0.95097000  1
loop_
_geom_bond_atom_site_label_1
_geom_bond_atom_site_label_2
_geom_bond_distance
_geom_bond_site_symmetry_2
Li0 O6 1.970421 1_555
Li0 O10 2.015698 1_555
Li0 O4 2.182835 1_555
Li0 O3 2.419104 1_655
Li0 O7 2.453577 1_565
Li1 O6 2.052277 1_455
Li1 O17 2.052277 1_555
Li1 O12 2.264173 1_455
Li1 O11 2.264173 1_555
Li1 O13 2.336167 1_555
Li1 O10 2.336167 1_455
Li2 O17 1.970421 1_555
Li2 O13 2.015698 1_555
Li2 O19 2.182835 1_555
Li2 O20 2.419104 1_455
Li2 O16 2.453577 1_545
Cr0 O5 1.908825 1_555
Cr0 O1 1.948156 1_555
Cr0 O8 1.960816 1_555
Cr0 O20 1.967065 1_454
Cr0 O0 2.017409 1_455
Cr0 O23 2.098643 1_554
Cr1 O2 1.959466 1_555
Cr1 O7 1.985369 1_555
Cr1 O4 2.001928 1_545
Cr1 O9 2.041640 1_555
Cr1 O12 2.047479 1_555
Cr1 O14 2.074149 1_545
Cr2 O21 1.959466 1_555
Cr2 O16 1.985369 1_555
Cr2 O19 2.001928 1_565
Cr2 O14 2.041640 1_555
Cr2 O11 2.047479 1_555
Cr2 O9 2.074149 1_565
Cr3 O18 1.908825 1_555
Cr3 O22 1.948156 1_555
Cr3 O15 1.960816 1_555
Cr3 O3 1.967065 1_656
Cr3 O23 2.017409 1_655
Cr3 O0 2.098643 1_556
O0 P0 1.599199 1_555
O1 P0 1.570877 1_555
O2 P0 1.534009 1_555
O3 P1 1.569011 1_555
O4 P1 1.552918 1_555
O5 P2 1.546355 1_555
O6 P0 1.499344 1_555
O7 P2 1.554567 1_655
O8 P1 1.556891 1_555
O9 P2 1.593365 1_555
O10 P3 1.510992 1_555
O11 P1 1.549543 1_555
O12 P4 1.549543 1_555
O13 P2 1.510992 1_555
O14 P3 1.593365 1_555
O15 P4 1.556891 1_555
O16 P3 1.554567 1_455
O17 P5 1.499344 1_555
O18 P3 1.546355 1_555
O19 P4 1.552918 1_555
O20 P4 1.569011 1_555
O21 P5 1.534009 1_555
O22 P5 1.570877 1_555
O23 P5 1.599199 1_555
