# generated using pymatgen
data_Na6ZnH4(S2O9)2
_symmetry_space_group_name_H-M   'P 1'
_cell_length_a   6.13316800
_cell_length_b   6.91434971
_cell_length_c   10.25130993
_cell_angle_alpha   109.63107887
_cell_angle_beta   92.58404882
_cell_angle_gamma   105.20835803
_symmetry_Int_Tables_number   1
_chemical_formula_structural   Na6ZnH4(S2O9)2
_chemical_formula_sum   'Na6 Zn1 H4 S4 O18'
_cell_volume   390.85044884
_cell_formula_units_Z   1
loop_
 _symmetry_equiv_pos_site_id
 _symmetry_equiv_pos_as_xyz
  1  'x, y, z'
loop_
 _atom_site_type_symbol
 _atom_site_label
 _atom_site_symmetry_multiplicity
 _atom_site_fract_x
 _atom_site_fract_y
 _atom_site_fract_z
 _atom_site_occupancy
  Na  Na0  1  0.44011300  0.60117500  0.10676800  1
  Na  Na1  1  0.55988700  0.39882500  0.89323200  1
  Na  Na2  1  0.95824900  0.88393100  0.33185800  1
  Na  Na3  1  0.04175100  0.11606900  0.66814200  1
  Na  Na4  1  0.39130400  0.27493500  0.46344900  1
  Na  Na5  1  0.60869600  0.72506500  0.53655100  1
  Zn  Zn0  1  0.00000000  0.00000000  0.00000000  1
  H  H0  1  0.99105600  0.49765400  0.13446500  1
  H  H1  1  0.00894400  0.50234600  0.86553500  1
  H  H2  1  0.91253300  0.67499200  0.96888700  1
  H  H3  1  0.08746700  0.32500800  0.03111300  1
  S  S0  1  0.87548600  0.40811900  0.32529200  1
  S  S1  1  0.12451400  0.59188100  0.67470800  1
  S  S2  1  0.44582800  0.00617300  0.19917200  1
  S  S3  1  0.55417200  0.99382700  0.80082800  1
  O  O0  1  0.82329100  0.70134400  0.18169500  1
  O  O1  1  0.17670900  0.29865600  0.81830500  1
  O  O2  1  0.01241400  0.43376800  0.42130100  1
  O  O3  1  0.98758600  0.56623200  0.57869900  1
  O  O4  1  0.01274500  0.27355800  0.31585900  1
  O  O5  1  0.98725500  0.72644200  0.68414100  1
  O  O6  1  0.65328900  0.24037800  0.37335600  1
  O  O7  1  0.34671100  0.75962200  0.62664400  1
  O  O8  1  0.63512200  0.22577900  0.12642900  1
  O  O9  1  0.36487800  0.77422100  0.87357100  1
  O  O10  1  0.53629600  0.75279700  0.34602300  1
  O  O11  1  0.46370400  0.24720300  0.65397700  1
  O  O12  1  0.33415400  0.91788000  0.12395400  1
  O  O13  1  0.66584600  0.08212000  0.87604600  1
  O  O14  1  0.27027000  0.12600600  0.19707900  1
  O  O15  1  0.72973000  0.87399400  0.80292100  1
  O  O16  1  0.03373000  0.65900500  0.03825800  1
  O  O17  1  0.96627000  0.34099500  0.96174200  1
loop_
_geom_bond_atom_site_label_1
_geom_bond_atom_site_label_2
_geom_bond_distance
_geom_bond_site_symmetry_2
Na0 O0 2.284386 1_555
Na0 O10 2.297832 1_555
Na0 O12 2.397156 1_555
Na1 O1 2.284386 1_555
Na1 O11 2.297832 1_555
Na1 O13 2.397156 1_555
Na2 O0 1.636959 1_555
Na2 O10 2.536085 1_555
Na2 O14 2.912817 1_665
Na3 O1 1.636959 1_555
Na3 O11 2.536085 1_555
Na3 O15 2.912817 1_445
Na4 O6 1.918030 1_555
Na4 O11 2.065647 1_555
Na4 O14 2.568001 1_555
Na5 O7 1.918030 1_555
Na5 O10 2.065647 1_555
Na5 O15 2.568001 1_555
H2 O16 1.057703 1_656
H2 Zn0 2.076050 1_666
H2 Na1 2.369059 1_555
H3 O17 1.057703 1_454
H3 Zn0 2.076050 1_555
H3 Na0 2.369059 1_555
O2 S0 1.198103 1_455
O3 S1 1.198103 1_655
O4 S0 1.393378 1_455
O5 S1 1.393378 1_655
O6 S0 1.749390 1_555
O6 S2 2.049618 1_555
O7 S1 1.749390 1_555
O7 S3 2.049618 1_555
O8 S2 2.030658 1_555
O8 S0 2.223865 1_555
O9 S3 2.030658 1_555
O9 S1 2.223865 1_555
O12 S2 0.923621 1_565
O12 O14 1.543957 1_565
O13 S3 0.923621 1_545
O13 O15 1.543957 1_545
O14 S2 1.524551 1_555
O14 Zn0 2.312149 1_555
O15 S3 1.524551 1_555
O15 Zn0 2.312149 1_666
