# generated using pymatgen
data_Na2TiCr(PO4)3
_symmetry_space_group_name_H-M   'P 1'
_cell_length_a   8.69352889
_cell_length_b   8.69352889
_cell_length_c   8.87236188
_cell_angle_alpha   60.72035500
_cell_angle_beta   60.72035500
_cell_angle_gamma   60.12520529
_symmetry_Int_Tables_number   1
_chemical_formula_structural   Na2TiCr(PO4)3
_chemical_formula_sum   'Na4 Ti2 Cr2 P6 O24'
_cell_volume   479.70944290
_cell_formula_units_Z   2
loop_
 _symmetry_equiv_pos_site_id
 _symmetry_equiv_pos_as_xyz
  1  'x, y, z'
loop_
 _atom_site_type_symbol
 _atom_site_label
 _atom_site_symmetry_multiplicity
 _atom_site_fract_x
 _atom_site_fract_y
 _atom_site_fract_z
 _atom_site_occupancy
  Na  Na0  1  0.00500600  0.50001800  0.75252300  1
  Na  Na1  1  0.49998200  0.99499400  0.24747700  1
  Na  Na2  1  0.11580200  0.25116900  0.49969900  1
  Na  Na3  1  0.74883100  0.88419800  0.50030100  1
  Ti  Ti0  1  0.85667600  0.35872300  0.17876300  1
  Ti  Ti1  1  0.64127700  0.14332400  0.82123700  1
  Cr  Cr0  1  0.35228900  0.84962600  0.69197500  1
  Cr  Cr1  1  0.15037400  0.64771100  0.30802500  1
  P  P0  1  0.53716000  0.74988600  0.99932700  1
  P  P1  1  0.25011400  0.46284000  0.00067300  1
  P  P2  1  0.96261800  0.03738200  0.00000000  1
  P  P3  1  0.04100300  0.95899700  0.50000000  1
  P  P4  1  0.74565800  0.53986700  0.50016900  1
  P  P5  1  0.46013300  0.25434200  0.49983100  1
  O  O0  1  0.49567900  0.21687200  0.67098500  1
  O  O1  1  0.86623400  0.99360300  0.66945700  1
  O  O2  1  0.72015600  0.57765200  0.01788800  1
  O  O3  1  0.72052500  0.36496200  0.66943100  1
  O  O4  1  0.37036900  0.72205500  0.17065100  1
  O  O5  1  0.56646000  0.92211600  0.98141500  1
  O  O6  1  0.07788400  0.43354000  0.01858500  1
  O  O7  1  0.42234800  0.27984400  0.98211200  1
  O  O8  1  0.77982000  0.06568700  0.98195400  1
  O  O9  1  0.00639700  0.13376600  0.33054300  1
  O  O10  1  0.05777000  0.78053000  0.48733100  1
  O  O11  1  0.78312800  0.50432100  0.32901500  1
  O  O12  1  0.21952900  0.48087000  0.17786700  1
  O  O13  1  0.93431300  0.22018000  0.01804600  1
  O  O14  1  0.98340400  0.87150100  0.17522000  1
  O  O15  1  0.21947000  0.94223000  0.51266900  1
  O  O16  1  0.57976300  0.72349300  0.51203900  1
  O  O17  1  0.91936000  0.56215000  0.48784200  1
  O  O18  1  0.43785000  0.08064000  0.51215800  1
  O  O19  1  0.63503800  0.27947500  0.33056900  1
  O  O20  1  0.27794500  0.62963100  0.82934900  1
  O  O21  1  0.27650700  0.42023700  0.48796100  1
  O  O22  1  0.12849900  0.01659600  0.82478000  1
  O  O23  1  0.51913000  0.78047100  0.82213300  1
loop_
_geom_bond_atom_site_label_1
_geom_bond_atom_site_label_2
_geom_bond_distance
_geom_bond_site_symmetry_2
Na0 O6 2.464048 1_556
Na0 O21 2.470670 1_555
Na0 O10 2.477837 1_555
Na0 O13 2.512635 1_456
Na0 O2 2.513456 1_456
Na0 O17 2.535699 1_455
Na1 O5 2.464048 1_554
Na1 O16 2.470670 1_555
Na1 O15 2.477837 1_555
Na1 O8 2.512635 1_564
Na1 O7 2.513456 1_564
Na1 O18 2.535699 1_565
Na2 O15 2.329509 1_545
Na2 O17 2.352575 1_455
Na2 O21 2.424179 1_555
Na2 O18 2.460909 1_555
Na2 O12 2.579166 1_555
Na2 O22 2.612201 1_555
Na2 O9 2.839089 1_555
Na2 O3 2.839681 1_455
Na3 O10 2.329509 1_655
Na3 O18 2.352575 1_565
Na3 O16 2.424179 1_555
Na3 O17 2.460909 1_555
Na3 O23 2.579166 1_555
Na3 O14 2.612201 1_555
Na3 O1 2.839089 1_555
Na3 O19 2.839681 1_565
Cr0 O20 1.934379 1_555
Cr0 O23 1.972147 1_555
Cr0 O22 1.974285 1_565
Cr0 O16 2.031201 1_555
Cr0 O15 2.032291 1_555
Cr0 O18 2.079741 1_565
Cr1 O4 1.934379 1_555
Cr1 O12 1.972147 1_555
Cr1 O14 1.974285 1_455
Cr1 O21 2.031201 1_555
Cr1 O10 2.032291 1_555
Cr1 O17 2.079741 1_455
O0 P5 1.543516 1_555
O0 Ti1 1.949001 1_555
O1 P3 1.553090 1_655
O1 Ti1 1.983649 1_565
O2 P0 1.562698 1_554
O2 Ti0 1.953909 1_555
O3 P4 1.546446 1_555
O3 Ti1 1.969181 1_555
O4 P0 1.518371 1_554
O5 P0 1.561923 1_555
O5 Ti1 1.951826 1_565
O6 P1 1.561923 1_555
O6 Ti0 1.951826 1_455
O7 P1 1.562698 1_556
O7 Ti1 1.953909 1_555
O8 P2 1.559613 1_556
O8 Ti1 1.966767 1_555
O9 P3 1.553090 1_545
O9 Ti0 1.983649 1_455
O10 P3 1.539584 1_555
O11 P4 1.543516 1_555
O11 Ti0 1.949001 1_555
O12 P1 1.535414 1_555
O13 P2 1.559613 1_555
O13 Ti0 1.966767 1_555
O14 P2 1.533424 1_565
O15 P3 1.539584 1_555
O16 P4 1.536795 1_555
O17 P4 1.561727 1_555
O18 P5 1.561727 1_555
O19 P5 1.546446 1_555
O19 Ti0 1.969181 1_555
O20 P1 1.518371 1_556
O21 P5 1.536795 1_555
O22 P2 1.533424 1_456
O23 P0 1.535414 1_555
