# generated using pymatgen
data_V2(OF)3
_symmetry_space_group_name_H-M   'P 1'
_cell_length_a   5.11710749
_cell_length_b   5.12246558
_cell_length_c   12.97056177
_cell_angle_alpha   91.04722544
_cell_angle_beta   89.74519794
_cell_angle_gamma   119.62682135
_symmetry_Int_Tables_number   1
_chemical_formula_structural   V2(OF)3
_chemical_formula_sum   'V6 O9 F9'
_cell_volume   295.48488996
_cell_formula_units_Z   3
loop_
 _symmetry_equiv_pos_site_id
 _symmetry_equiv_pos_as_xyz
  1  'x, y, z'
loop_
 _atom_site_type_symbol
 _atom_site_label
 _atom_site_symmetry_multiplicity
 _atom_site_fract_x
 _atom_site_fract_y
 _atom_site_fract_z
 _atom_site_occupancy
  V  V0  1  0.04424672  0.99169850  0.49939163  1
  V  V1  1  0.96609946  0.96095553  0.98983842  1
  V  V2  1  0.65561345  0.29240785  0.16029385  1
  V  V3  1  0.36869446  0.69135594  0.31893713  1
  V  V4  1  0.69375806  0.33668331  0.65950354  1
  V  V5  1  0.29919810  0.67831812  0.83158310  1
  O  O0  1  0.42201197  -0.00566259  0.25101401  1
  O  O1  1  0.32632131  0.09798373  0.58322792  1
  O  O2  1  0.00247908  0.58481707  0.75415302  1
  O  O3  1  0.75822912  0.09547354  0.08395311  1
  O  O4  1  0.08707419  0.76437521  0.41889770  1
  O  O5  1  0.56787710  0.57529651  0.25275423  1
  O  O6  1  0.89772682  0.25352821  0.58364738  1
  O  O7  1  0.25090732  0.89664123  0.92160884  1
  O  O8  1  0.67443636  0.74913164  0.91719125  1
  F  F0  1  0.99267182  0.41258262  0.25678421  1
  F  F1  1  0.08692222  0.32656665  0.91435930  1
  F  F2  1  0.33043254  0.25759031  0.08265744  1
  F  F3  1  0.23513550  0.33550367  0.41974048  1
  F  F4  1  0.58837589  0.00268540  0.75255902  1
  F  F5  1  0.42500458  0.42839814  0.75124076  1
  F  F6  1  0.74467175  0.68526464  0.58455711  1
  F  F7  1  0.92460174  0.67510638  0.09094522  1
  F  F8  1  0.65751344  0.91330137  0.42116234  1
loop_
_geom_bond_atom_site_label_1
_geom_bond_atom_site_label_2
_geom_bond_distance
_geom_bond_site_symmetry_2
O0 V3 1.699568 1_545
O0 V2 1.842126 1_555
O1 V0 1.666624 1_545
O1 V4 1.925715 1_555
O2 V5 1.679401 1_555
O2 V4 1.895602 1_455
O3 V2 1.660250 1_555
O3 V1 1.943911 1_544
O4 V0 1.643126 1_555
O4 V3 2.096719 1_555
O5 V3 1.643732 1_555
O5 V2 2.077152 1_555
O6 V4 1.629103 1_555
O6 V0 2.118645 1_645
O7 V5 1.702408 1_555
O7 V1 1.862335 1_455
O8 V1 1.633011 1_555
O8 V5 2.089750 1_555
F0 V3 1.909585 1_655
F0 V2 1.965042 1_555
F1 V5 1.924706 1_555
F1 V1 1.940366 1_445
F2 V2 1.878723 1_555
F2 V1 2.094346 1_444
F3 V0 1.865411 1_545
F3 V3 2.084894 1_555
F4 V5 1.902341 1_545
F4 V4 1.957619 1_555
F5 V5 1.974692 1_555
F5 V4 2.032642 1_555
F6 V0 1.924418 1_655
F6 V4 1.949988 1_555
F7 V1 1.915522 1_554
F7 V2 1.983004 1_555
F8 V3 1.880405 1_555
F8 V0 2.079503 1_655
