# generated using pymatgen
data_Li3Bi(BO3)2
_symmetry_space_group_name_H-M   'P 1'
_cell_length_a   9.18829400
_cell_length_b   5.32128000
_cell_length_c   12.00500773
_cell_angle_alpha   65.01187173
_cell_angle_beta   90.00000000
_cell_angle_gamma   90.00000000
_symmetry_Int_Tables_number   1
_chemical_formula_structural   Li3Bi(BO3)2
_chemical_formula_sum   'Li12 Bi4 B8 O24'
_cell_volume   532.02384819
_cell_formula_units_Z   4
loop_
 _symmetry_equiv_pos_site_id
 _symmetry_equiv_pos_as_xyz
  1  'x, y, z'
loop_
 _atom_site_type_symbol
 _atom_site_label
 _atom_site_symmetry_multiplicity
 _atom_site_fract_x
 _atom_site_fract_y
 _atom_site_fract_z
 _atom_site_occupancy
  Li  Li0  1  0.97336200  0.51846600  0.32413300  1
  Li  Li1  1  0.65186500  0.44421400  0.38671400  1
  Li  Li2  1  0.98508100  0.92530700  0.90456000  1
  Li  Li3  1  0.15186500  0.55578600  0.11328600  1
  Li  Li4  1  0.48508100  0.07469300  0.59544000  1
  Li  Li5  1  0.47336200  0.48153400  0.17586700  1
  Li  Li6  1  0.52663800  0.51846600  0.82413300  1
  Li  Li7  1  0.51491900  0.92530700  0.40456000  1
  Li  Li8  1  0.84813500  0.44421400  0.88671400  1
  Li  Li9  1  0.01491900  0.07469300  0.09544000  1
  Li  Li10  1  0.34813500  0.55578600  0.61328600  1
  Li  Li11  1  0.02663800  0.48153400  0.67586700  1
  Bi  Bi0  1  0.32651800  0.97320600  0.87613600  1
  Bi  Bi1  1  0.82651800  0.02679400  0.62386400  1
  Bi  Bi2  1  0.17348200  0.97320600  0.37613600  1
  Bi  Bi3  1  0.67348200  0.02679400  0.12386400  1
  B  B0  1  0.33098700  0.46125500  0.38032100  1
  B  B1  1  0.67586600  0.96377800  0.86838000  1
  B  B2  1  0.83098700  0.53874500  0.11967900  1
  B  B3  1  0.17586600  0.03622200  0.63162000  1
  B  B4  1  0.82413400  0.96377800  0.36838000  1
  B  B5  1  0.16901300  0.46125500  0.88032100  1
  B  B6  1  0.32413400  0.03622200  0.13162000  1
  B  B7  1  0.66901300  0.53874500  0.61967900  1
  O  O0  1  0.33059800  0.81348100  0.09883400  1
  O  O1  1  0.63494900  0.33385000  0.58012400  1
  O  O2  1  0.93966000  0.71486500  0.12408200  1
  O  O3  1  0.05161600  0.17371100  0.63926800  1
  O  O4  1  0.30697900  0.12965500  0.66016000  1
  O  O5  1  0.68664000  0.55815000  0.15341000  1
  O  O6  1  0.18664000  0.44185000  0.34659000  1
  O  O7  1  0.80697900  0.87034500  0.83984000  1
  O  O8  1  0.55161600  0.82628900  0.86073200  1
  O  O9  1  0.43966000  0.28513500  0.37591800  1
  O  O10  1  0.83059800  0.18651900  0.40116600  1
  O  O11  1  0.13494900  0.66615000  0.91987600  1
  O  O12  1  0.86505100  0.33385000  0.08012400  1
  O  O13  1  0.16940200  0.81348100  0.59883400  1
  O  O14  1  0.56034000  0.71486500  0.62408200  1
  O  O15  1  0.44838400  0.17371100  0.13926800  1
  O  O16  1  0.19302100  0.12965500  0.16016000  1
  O  O17  1  0.81336000  0.55815000  0.65341000  1
  O  O18  1  0.31336000  0.44185000  0.84659000  1
  O  O19  1  0.69302100  0.87034500  0.33984000  1
  O  O20  1  0.94838400  0.82628900  0.36073200  1
  O  O21  1  0.06034000  0.28513500  0.87591800  1
  O  O22  1  0.36505100  0.66615000  0.41987600  1
  O  O23  1  0.66940200  0.18651900  0.90116600  1
loop_
_geom_bond_atom_site_label_1
_geom_bond_atom_site_label_2
_geom_bond_distance
_geom_bond_site_symmetry_2
Li0 O20 1.880651 1_555
Li0 O6 1.996574 1_655
Li0 O10 2.077484 1_555
Li0 O2 2.198940 1_555
Li1 O10 2.099158 1_555
Li1 O19 2.126839 1_555
Li1 O1 2.146666 1_555
Li1 O9 2.151229 1_555
Li2 O7 1.886578 1_555
Li2 O11 1.901990 1_655
Li2 O21 1.925206 1_665
Li2 O2 2.424874 1_556
Li3 O0 2.099158 1_555
Li3 O16 2.126839 1_555
Li3 O11 2.146666 1_554
Li3 O2 2.151229 1_455
Li4 O4 1.886578 1_555
Li4 O1 1.901990 1_555
Li4 O14 1.925206 1_545
Li4 O9 2.424874 1_555
Li5 O15 1.880651 1_555
Li5 O5 1.996574 1_555
Li5 O0 2.077484 1_555
Li5 O9 2.198940 1_555
Li6 O8 1.880651 1_555
Li6 O18 1.996574 1_555
Li6 O23 2.077484 1_555
Li6 O14 2.198940 1_555
Li7 O19 1.886578 1_555
Li7 O22 1.901990 1_555
Li7 O9 1.925206 1_565
Li7 O14 2.424874 1_555
Li8 O23 2.099158 1_555
Li8 O7 2.126839 1_555
Li8 O12 2.146666 1_556
Li8 O21 2.151229 1_655
Li9 O16 1.886578 1_555
Li9 O12 1.901990 1_455
Li9 O2 1.925206 1_445
Li9 O21 2.424874 1_554
Li10 O13 2.099158 1_555
Li10 O4 2.126839 1_555
Li10 O22 2.146666 1_555
Li10 O14 2.151229 1_555
Li11 O3 1.880651 1_555
Li11 O17 1.996574 1_455
Li11 O13 2.077484 1_555
Li11 O21 2.198940 1_555
Bi0 O8 2.246165 1_555
Bi0 O11 2.306267 1_555
Bi0 O18 2.368983 1_565
Bi0 O4 2.371546 1_565
Bi0 O0 2.439585 1_556
Bi1 O3 2.246165 1_655
Bi1 O1 2.306267 1_555
Bi1 O17 2.368983 1_545
Bi1 O7 2.371546 1_545
Bi1 O10 2.439585 1_555
Bi2 O20 2.246165 1_455
Bi2 O22 2.306267 1_555
Bi2 O6 2.368983 1_565
Bi2 O16 2.371546 1_565
Bi2 O13 2.439585 1_555
Bi3 O15 2.246165 1_555
Bi3 O12 2.306267 1_555
Bi3 O5 2.368983 1_545
Bi3 O19 2.371546 1_545
Bi3 O23 2.439585 1_554
B0 O9 1.385641 1_555
B0 O22 1.396293 1_555
B0 O6 1.403227 1_555
B1 O8 1.379783 1_555
B1 O23 1.399087 1_565
B1 O7 1.399934 1_555
B2 O2 1.385641 1_555
B2 O12 1.396293 1_555
B2 O5 1.403227 1_555
B3 O3 1.379783 1_555
B3 O13 1.399087 1_545
B3 O4 1.399934 1_555
B4 O20 1.379783 1_555
B4 O10 1.399087 1_565
B4 O19 1.399934 1_555
B5 O21 1.385641 1_555
B5 O11 1.396293 1_555
B5 O18 1.403227 1_555
B6 O15 1.379783 1_555
B6 O0 1.399087 1_545
B6 O16 1.399934 1_555
B7 O14 1.385641 1_555
B7 O1 1.396293 1_555
B7 O17 1.403227 1_555
