# generated using pymatgen
data_LiFeO3
_symmetry_space_group_name_H-M   'P 1'
_cell_length_a   4.91426562
_cell_length_b   4.91426562
_cell_length_c   9.70886556
_cell_angle_alpha   86.19702507
_cell_angle_beta   86.19702507
_cell_angle_gamma   118.44746455
_symmetry_Int_Tables_number   1
_chemical_formula_structural   LiFeO3
_chemical_formula_sum   'Li4 Fe4 O12'
_cell_volume   204.41876741
_cell_formula_units_Z   4
loop_
 _symmetry_equiv_pos_site_id
 _symmetry_equiv_pos_as_xyz
  1  'x, y, z'
loop_
 _atom_site_type_symbol
 _atom_site_label
 _atom_site_symmetry_multiplicity
 _atom_site_fract_x
 _atom_site_fract_y
 _atom_site_fract_z
 _atom_site_occupancy
  Li  Li0  1  0.25657700  0.74342300  0.75000000  1
  Li  Li1  1  0.74342300  0.25657700  0.25000000  1
  Li  Li2  1  0.61392400  0.38607600  0.75000000  1
  Li  Li3  1  0.38607600  0.61392400  0.25000000  1
  Fe  Fe0  1  0.16862900  0.32977000  0.00116000  1
  Fe  Fe1  1  0.83137100  0.67023000  0.99884000  1
  Fe  Fe2  1  0.67023000  0.83137100  0.49884000  1
  Fe  Fe3  1  0.32977000  0.16862900  0.50116000  1
  O  O0  1  0.09035400  0.58730900  0.11486200  1
  O  O1  1  0.90964600  0.41269100  0.88513800  1
  O  O2  1  0.98153400  0.84182900  0.60919700  1
  O  O3  1  0.15817100  0.01846600  0.89080300  1
  O  O4  1  0.01846600  0.15817100  0.39080300  1
  O  O5  1  0.64685800  0.52529200  0.39076400  1
  O  O6  1  0.84182900  0.98153400  0.10919700  1
  O  O7  1  0.47470800  0.35314200  0.10923600  1
  O  O8  1  0.35314200  0.47470800  0.60923600  1
  O  O9  1  0.52529200  0.64685800  0.89076400  1
  O  O10  1  0.58730900  0.09035400  0.61486200  1
  O  O11  1  0.41269100  0.90964600  0.38513800  1
loop_
_geom_bond_atom_site_label_1
_geom_bond_atom_site_label_2
_geom_bond_distance
_geom_bond_site_symmetry_2
Li0 O10 2.012518 1_565
Li0 O1 2.012518 1_455
Li0 O8 2.141764 1_555
Li0 O9 2.141764 1_555
Li0 O2 2.170186 1_455
Li0 O3 2.170186 1_565
Li1 O11 2.012518 1_545
Li1 O0 2.012518 1_655
Li1 O7 2.141764 1_555
Li1 O5 2.141764 1_555
Li1 O6 2.170186 1_545
Li1 O4 2.170186 1_655
Li2 O1 1.986230 1_555
Li2 O10 1.986230 1_555
Li2 O8 2.094041 1_555
Li2 O9 2.094041 1_555
Li2 O2 2.357989 1_555
Li2 O3 2.357989 1_555
Li3 O11 1.986230 1_555
Li3 O0 1.986230 1_555
Li3 O7 2.094041 1_555
Li3 O5 2.094041 1_555
Li3 O6 2.357989 1_555
Li3 O4 2.357989 1_555
Fe0 O7 1.854036 1_555
Fe0 O6 1.878321 1_445
Fe0 O0 1.887113 1_555
Fe0 O9 1.891098 1_554
Fe0 O3 1.908099 1_554
Fe0 O1 1.917837 1_454
Fe1 O9 1.854036 1_555
Fe1 O3 1.878321 1_665
Fe1 O1 1.887113 1_555
Fe1 O7 1.891098 1_556
Fe1 O6 1.908099 1_556
Fe1 O0 1.917837 1_656
Fe2 O5 1.854036 1_555
Fe2 O4 1.878321 1_665
Fe2 O11 1.887113 1_555
Fe2 O8 1.891098 1_555
Fe2 O2 1.908099 1_555
Fe2 O10 1.917837 1_565
Fe3 O8 1.854036 1_555
Fe3 O2 1.878321 1_445
Fe3 O10 1.887113 1_555
Fe3 O5 1.891098 1_555
Fe3 O4 1.908099 1_555
Fe3 O11 1.917837 1_545
