# generated using pymatgen
data_Li2Ti3NiO8
_symmetry_space_group_name_H-M   'P 1'
_cell_length_a   5.97169270
_cell_length_b   10.34730613
_cell_length_c   10.35984925
_cell_angle_alpha   80.33408460
_cell_angle_beta   90.00078918
_cell_angle_gamma   106.76927504
_symmetry_Int_Tables_number   1
_chemical_formula_structural   Li2Ti3NiO8
_chemical_formula_sum   'Li8 Ti12 Ni4 O32'
_cell_volume   603.42498963
_cell_formula_units_Z   4
loop_
 _symmetry_equiv_pos_site_id
 _symmetry_equiv_pos_as_xyz
  1  'x, y, z'
loop_
 _atom_site_type_symbol
 _atom_site_label
 _atom_site_symmetry_multiplicity
 _atom_site_fract_x
 _atom_site_fract_y
 _atom_site_fract_z
 _atom_site_occupancy
  Li  Li0  1  0.03020700  0.06040700  0.15097300  1
  Li  Li1  1  0.28020500  0.56040400  0.40098100  1
  Li  Li2  1  0.53020800  0.06040800  0.65097900  1
  Li  Li3  1  0.78021100  0.56041700  0.90097000  1
  Li  Li4  1  0.21979500  0.43959600  0.09901900  1
  Li  Li5  1  0.46979300  0.93959400  0.34902600  1
  Li  Li6  1  0.71978900  0.43958300  0.59903100  1
  Li  Li7  1  0.96979300  0.93959200  0.84902100  1
  Ti  Ti0  1  0.37499700  0.24999300  0.37500600  1
  Ti  Ti1  1  0.62499300  0.75000400  0.62501000  1
  Ti  Ti2  1  0.87500400  0.24999400  0.87499100  1
  Ti  Ti3  1  0.12500600  0.75000500  0.12499400  1
  Ti  Ti4  1  0.87500200  0.24999200  0.37500600  1
  Ti  Ti5  1  0.12501100  0.75000500  0.62501000  1
  Ti  Ti6  1  0.37499000  0.24999700  0.87498800  1
  Ti  Ti7  1  0.62500000  0.75000500  0.12499500  1
  Ti  Ti8  1  0.00000500  0.00000700  0.50000600  1
  Ti  Ti9  1  0.25000000  0.50000100  0.75000000  1
  Ti  Ti10  1  0.49999700  0.99999300  0.99999400  1
  Ti  Ti11  1  0.75000000  0.50000100  0.25000000  1
  Ni  Ni0  1  0.62500700  0.25001300  0.12497800  1
  Ni  Ni1  1  0.87499400  0.74998900  0.37502400  1
  Ni  Ni2  1  0.12500600  0.25001400  0.62498600  1
  Ni  Ni3  1  0.37499300  0.74999100  0.87501500  1
  O  O0  1  0.06516700  0.13035100  0.32590500  1
  O  O1  1  0.31517000  0.63035200  0.57590300  1
  O  O2  1  0.56516500  0.13035200  0.82589600  1
  O  O3  1  0.81516600  0.63035000  0.07589700  1
  O  O4  1  0.18483300  0.36964800  0.92409500  1
  O  O5  1  0.43483300  0.86965000  0.17409600  1
  O  O6  1  0.68483300  0.36964900  0.42410300  1
  O  O7  1  0.93483100  0.86964700  0.67410500  1
  O  O8  1  0.17761700  0.35524800  0.43158300  1
  O  O9  1  0.42762200  0.85525500  0.68156900  1
  O  O10  1  0.67761600  0.35524500  0.93157000  1
  O  O11  1  0.92762100  0.85525100  0.18156300  1
  O  O12  1  0.29175700  0.12697800  0.54572000  1
  O  O13  1  0.54177900  0.62698800  0.79570500  1
  O  O14  1  0.79175400  0.12697900  0.04570900  1
  O  O15  1  0.04177200  0.62698300  0.29569900  1
  O  O16  1  0.83521300  0.12697800  0.54571800  1
  O  O17  1  0.08519900  0.62698700  0.79570500  1
  O  O18  1  0.33521600  0.12697900  0.04570900  1
  O  O19  1  0.58520100  0.62698300  0.29569800  1
  O  O20  1  0.41480100  0.37301300  0.70429500  1
  O  O21  1  0.66478600  0.87301800  0.95428200  1
  O  O22  1  0.91479800  0.37301800  0.20430100  1
  O  O23  1  0.16478300  0.87302100  0.45429300  1
  O  O24  1  0.95822200  0.37301200  0.70429200  1
  O  O25  1  0.20823900  0.87301900  0.95428100  1
  O  O26  1  0.45822700  0.37301700  0.20430100  1
  O  O27  1  0.70824600  0.87302200  0.45429300  1
  O  O28  1  0.07238200  0.14474600  0.81842900  1
  O  O29  1  0.32238100  0.64475200  0.06841900  1
  O  O30  1  0.57238100  0.14474900  0.31843600  1
  O  O31  1  0.82238400  0.64475500  0.56842900  1
loop_
_geom_bond_atom_site_label_1
_geom_bond_atom_site_label_2
_geom_bond_distance
_geom_bond_site_symmetry_2
Li0 O18 2.001278 1_555
Li0 O14 2.001282 1_455
Li0 O11 2.001434 1_445
Li0 O0 2.050594 1_555
Li1 O15 2.001309 1_555
Li1 O19 2.001310 1_555
Li1 O8 2.001432 1_555
Li1 O1 2.050516 1_555
Li2 O12 2.001237 1_555
Li2 O16 2.001244 1_555
Li2 O9 2.001405 1_545
Li2 O2 2.050448 1_555
Li3 O13 2.001180 1_555
Li3 O17 2.001182 1_655
Li3 O10 2.001589 1_555
Li3 O3 2.050492 1_556
Li4 O26 2.001304 1_555
Li4 O22 2.001310 1_455
Li4 O29 2.001432 1_555
Li4 O4 2.050536 1_554
Li5 O27 2.001297 1_555
Li5 O23 2.001298 1_555
Li5 O30 2.001424 1_565
Li5 O5 2.050575 1_555
Li6 O24 2.001165 1_555
Li6 O20 2.001177 1_555
Li6 O31 2.001588 1_555
Li6 O6 2.050507 1_555
Li7 O25 2.001232 1_655
Li7 O21 2.001253 1_555
Li7 O28 2.001414 1_665
Li7 O7 2.050443 1_555
Ni0 O10 2.090224 1_554
Ni0 O14 2.090271 1_555
Ni0 O18 2.090369 1_555
Ni0 O26 2.090425 1_555
Ni0 O22 2.090515 1_555
Ni0 O30 2.090780 1_555
Ni1 O31 2.090204 1_555
Ni1 O27 2.090267 1_555
Ni1 O23 2.090352 1_655
Ni1 O15 2.090444 1_655
Ni1 O19 2.090543 1_555
Ni1 O11 2.090801 1_555
Ni2 O8 2.090186 1_555
Ni2 O12 2.090288 1_555
Ni2 O24 2.090303 1_455
Ni2 O16 2.090381 1_455
Ni2 O20 2.090432 1_555
Ni2 O28 2.090658 1_555
Ni3 O29 2.090211 1_556
Ni3 O25 2.090233 1_555
Ni3 O21 2.090335 1_555
Ni3 O13 2.090373 1_555
Ni3 O17 2.090456 1_555
Ni3 O9 2.090672 1_555
O0 Ti4 2.025737 1_455
O0 Ti8 2.025813 1_555
O0 Ti0 2.025917 1_555
O1 Ti9 2.025814 1_555
O1 Ti5 2.025834 1_555
O1 Ti1 2.025948 1_555
O2 Ti6 2.025781 1_555
O2 Ti10 2.025861 1_545
O2 Ti2 2.025934 1_555
O3 Ti7 2.025848 1_555
O3 Ti11 2.025853 1_555
O3 Ti3 2.025999 1_655
O4 Ti6 2.025808 1_555
O4 Ti9 2.025808 1_555
O4 Ti2 2.025972 1_455
O5 Ti7 2.025779 1_555
O5 Ti10 2.025817 1_554
O5 Ti3 2.025919 1_555
O6 Ti11 2.025868 1_555
O6 Ti4 2.025875 1_555
O6 Ti0 2.025985 1_555
O7 Ti5 2.025789 1_655
O7 Ti8 2.025874 1_665
O7 Ti1 2.025934 1_555
O8 Ti4 1.968260 1_455
O8 Ti0 1.968287 1_555
O9 Ti1 1.968141 1_555
O9 Ti5 1.968149 1_555
O10 Ti2 1.968299 1_555
O10 Ti6 1.968303 1_555
O11 Ti3 1.968205 1_655
O11 Ti7 1.968216 1_555
O12 Ti8 1.968226 1_555
O12 Ti0 1.968275 1_555
O13 Ti1 1.968114 1_555
O13 Ti9 1.968380 1_555
O14 Ti2 1.968312 1_554
O14 Ti10 1.968321 1_544
O15 Ti3 1.968230 1_555
O15 Ti11 1.968306 1_455
O16 Ti8 1.968193 1_655
O16 Ti4 1.968238 1_555
O17 Ti5 1.968109 1_555
O17 Ti9 1.968337 1_555
O18 Ti10 1.968290 1_544
O18 Ti6 1.968337 1_554
O19 Ti7 1.968199 1_555
O19 Ti11 1.968268 1_555
O20 Ti6 1.968083 1_555
O20 Ti9 1.968354 1_555
O21 Ti10 1.968216 1_555
O21 Ti7 1.968243 1_556
O22 Ti4 1.968235 1_555
O22 Ti11 1.968276 1_555
O23 Ti8 1.968271 1_565
O23 Ti5 1.968295 1_555
O24 Ti2 1.968157 1_555
O24 Ti9 1.968396 1_655
O25 Ti3 1.968260 1_556
O25 Ti10 1.968261 1_555
O26 Ti0 1.968237 1_555
O26 Ti11 1.968319 1_555
O27 Ti8 1.968317 1_665
O27 Ti1 1.968318 1_555
O28 Ti6 1.968138 1_555
O28 Ti2 1.968161 1_455
O29 Ti3 1.968240 1_555
O29 Ti7 1.968264 1_555
O30 Ti0 1.968188 1_555
O30 Ti4 1.968214 1_555
O31 Ti1 1.968304 1_555
O31 Ti5 1.968310 1_655
