# generated using pymatgen
data_Li2VP2O7
_symmetry_space_group_name_H-M   'P 1'
_cell_length_a   6.64091100
_cell_length_b   9.31818399
_cell_length_c   10.42528923
_cell_angle_alpha   113.49660615
_cell_angle_beta   88.44155976
_cell_angle_gamma   106.38309451
_symmetry_Int_Tables_number   1
_chemical_formula_structural   Li2VP2O7
_chemical_formula_sum   'Li8 V4 P8 O28'
_cell_volume   564.94459866
_cell_formula_units_Z   4
loop_
 _symmetry_equiv_pos_site_id
 _symmetry_equiv_pos_as_xyz
  1  'x, y, z'
loop_
 _atom_site_type_symbol
 _atom_site_label
 _atom_site_symmetry_multiplicity
 _atom_site_fract_x
 _atom_site_fract_y
 _atom_site_fract_z
 _atom_site_occupancy
  Li  Li0  1  0.05004500  0.21157500  0.51933100  1
  Li  Li1  1  0.64384800  0.07608900  0.62107200  1
  Li  Li2  1  0.59919400  0.50917000  0.97304500  1
  Li  Li3  1  0.16309000  0.10838300  0.12671300  1
  Li  Li4  1  0.16741500  0.48663900  0.03153300  1
  Li  Li5  1  0.86518400  0.89240200  0.89150600  1
  Li  Li6  1  0.34691400  0.92292300  0.37864200  1
  Li  Li7  1  0.93160000  0.82907800  0.50010500  1
  V  V0  1  0.36474600  0.50169400  0.73995100  1
  V  V1  1  0.72354700  0.09820200  0.22560800  1
  V  V2  1  0.28240900  0.89261600  0.77171500  1
  V  V3  1  0.62555500  0.48988700  0.25172800  1
  P  P0  1  0.07672800  0.17941100  0.79712300  1
  P  P1  1  0.69818600  0.18920500  0.94543900  1
  P  P2  1  0.55702200  0.28913200  0.46151600  1
  P  P3  1  0.12126100  0.44646000  0.29745900  1
  P  P4  1  0.86865000  0.54082900  0.69858000  1
  P  P5  1  0.43795300  0.70651600  0.53284000  1
  P  P6  1  0.30925900  0.80246900  0.05277400  1
  P  P7  1  0.92736800  0.80764300  0.19640000  1
  O  O0  1  0.10059700  0.05792700  0.85573200  1
  O  O1  1  0.56844400  0.08489500  0.80350900  1
  O  O2  1  0.27913500  0.31756500  0.82098300  1
  O  O3  1  0.96159900  0.09196100  0.64724600  1
  O  O4  1  0.02839600  0.44816200  0.68959100  1
  O  O5  1  0.92831300  0.27956500  0.90561900  1
  O  O6  1  0.63079000  0.14236100  0.45689000  1
  O  O7  1  0.03731200  0.26863500  0.28369800  1
  O  O8  1  0.35905300  0.30134300  0.53663900  1
  O  O9  1  0.38060900  0.65420600  0.96059900  1
  O  O10  1  0.53837000  0.27516200  0.30922600  1
  O  O11  1  0.69522300  0.52063800  0.79598300  1
  O  O12  1  0.74103700  0.08287700  0.01557100  1
  O  O13  1  0.24847000  0.54247600  0.45411300  1
  O  O14  1  0.74390000  0.45575200  0.54028500  1
  O  O15  1  0.26921200  0.90858600  0.98219000  1
  O  O16  1  0.28792900  0.46270600  0.19377200  1
  O  O17  1  0.45778800  0.71377000  0.68284000  1
  O  O18  1  0.62039000  0.33193500  0.03730700  1
  O  O19  1  0.63371600  0.69477900  0.45509200  1
  O  O20  1  0.96554100  0.72141000  0.72425500  1
  O  O21  1  0.36733800  0.85649900  0.54339500  1
  O  O22  1  0.08211900  0.70939100  0.09231900  1
  O  O23  1  0.95523300  0.52818800  0.29544200  1
  O  O24  1  0.03735400  0.89256600  0.34657000  1
  O  O25  1  0.72031900  0.67402000  0.17086700  1
  O  O26  1  0.43995200  0.90632100  0.19424700  1
  O  O27  1  0.91073700  0.93179600  0.13769700  1
loop_
_geom_bond_atom_site_label_1
_geom_bond_atom_site_label_2
_geom_bond_distance
_geom_bond_site_symmetry_2
Li0 O8 1.968453 1_555
Li0 O3 2.034440 1_455
Li0 O4 2.253010 1_555
Li1 O1 1.929212 1_555
Li1 O6 2.049322 1_555
Li1 O3 2.090975 1_555
Li1 O21 2.203309 1_545
Li2 O11 1.969861 1_555
Li2 O25 2.031507 1_556
Li2 O18 2.052961 1_556
Li2 O9 2.281934 1_555
Li2 O2 2.450331 1_555
Li3 O27 2.028150 1_445
Li3 O7 2.070398 1_555
Li3 O15 2.162995 1_544
Li4 O16 2.006523 1_555
Li4 O5 2.081564 1_454
Li4 O9 2.146185 1_554
Li4 O22 2.150725 1_555
Li4 O2 2.379918 1_554
Li5 O0 2.007205 1_665
Li5 O20 2.084151 1_555
Li5 O12 2.107078 1_566
Li5 O27 2.458066 1_556
Li6 O26 1.963000 1_555
Li6 O24 2.012931 1_555
Li6 O21 2.063827 1_555
Li6 O6 2.231482 1_565
Li7 O24 1.965917 1_655
Li7 O19 1.971125 1_555
Li7 O3 2.266789 1_565
O0 P0 1.529033 1_555
O0 V2 2.124531 1_545
O1 P1 1.525325 1_555
O1 V2 2.137532 1_545
O2 P0 1.520726 1_555
O2 V0 2.135426 1_555
O3 P0 1.545400 1_655
O4 P4 1.525332 1_455
O4 V0 2.177193 1_555
O5 P1 1.653833 1_555
O5 P0 1.654782 1_655
O6 P2 1.561033 1_555
O6 V1 2.373525 1_555
O7 P3 1.539718 1_555
O7 V1 2.160006 1_455
O8 P2 1.520546 1_555
O8 V0 2.188295 1_555
O9 P6 1.530523 1_556
O9 V0 2.155041 1_555
O10 P2 1.545890 1_555
O10 V1 2.220498 1_555
O10 V3 2.232021 1_555
O11 P4 1.536060 1_555
O11 V0 2.226640 1_555
O12 P1 1.531408 1_554
O12 V1 2.138887 1_555
O13 P5 1.601339 1_555
O13 P3 1.632452 1_555
O14 P2 1.605275 1_555
O14 P4 1.642824 1_555
O15 P6 1.526163 1_556
O15 V2 2.140360 1_555
O16 P3 1.545108 1_555
O16 V3 2.255601 1_555
O17 P5 1.545725 1_555
O17 V2 2.190256 1_555
O17 V0 2.207010 1_555
O18 P1 1.515932 1_554
O18 V3 2.125241 1_555
O19 P5 1.520285 1_555
O19 V3 2.205271 1_555
O20 P4 1.535105 1_555
O20 V2 2.179768 1_655
O21 P5 1.558685 1_555
O21 V2 2.343605 1_555
O22 P6 1.646451 1_555
O22 P7 1.658220 1_455
O23 P3 1.511222 1_655
O23 V3 2.147595 1_555
O24 P7 1.535893 1_455
O25 P7 1.517113 1_555
O25 V3 2.136816 1_555
O26 P6 1.524076 1_555
O26 V1 2.125671 1_565
O27 P7 1.537992 1_555
O27 V1 2.163765 1_565
