# generated using pymatgen
data_Er2P4O13
_symmetry_space_group_name_H-M   'P 1'
_cell_length_a   9.61420600
_cell_length_b   8.78152600
_cell_length_c   13.89914667
_cell_angle_alpha   73.79097783
_cell_angle_beta   90.00000000
_cell_angle_gamma   90.00000000
_symmetry_Int_Tables_number   1
_chemical_formula_structural   Er2P4O13
_chemical_formula_sum   'Er8 P16 O52'
_cell_volume   1126.82312651
_cell_formula_units_Z   4
loop_
 _symmetry_equiv_pos_site_id
 _symmetry_equiv_pos_as_xyz
  1  'x, y, z'
loop_
 _atom_site_type_symbol
 _atom_site_label
 _atom_site_symmetry_multiplicity
 _atom_site_fract_x
 _atom_site_fract_y
 _atom_site_fract_z
 _atom_site_occupancy
  Er  Er0  1  0.99691200  0.97282900  0.72137600  1
  Er  Er1  1  0.50308800  0.97282900  0.22137600  1
  Er  Er2  1  0.00127200  0.55303300  0.73775300  1
  Er  Er3  1  0.50127200  0.44696700  0.76224700  1
  Er  Er4  1  0.49872800  0.55303300  0.23775300  1
  Er  Er5  1  0.99872800  0.44696700  0.26224700  1
  Er  Er6  1  0.49691200  0.02717100  0.77862400  1
  Er  Er7  1  0.00308800  0.02717100  0.27862400  1
  P  P0  1  0.75996600  0.85471200  0.93703600  1
  P  P1  1  0.27007700  0.71181800  0.84619500  1
  P  P2  1  0.70534700  0.78315100  0.65707000  1
  P  P3  1  0.74003400  0.85471200  0.43703600  1
  P  P4  1  0.74991700  0.50423700  0.93964600  1
  P  P5  1  0.22992300  0.71181800  0.34619500  1
  P  P6  1  0.79465300  0.78315100  0.15707000  1
  P  P7  1  0.24991700  0.49576300  0.56035400  1
  P  P8  1  0.75008300  0.50423700  0.43964600  1
  P  P9  1  0.20534700  0.21684900  0.84293000  1
  P  P10  1  0.77007700  0.28818200  0.65380500  1
  P  P11  1  0.25008300  0.49576300  0.06035400  1
  P  P12  1  0.25996600  0.14528800  0.56296400  1
  P  P13  1  0.29465300  0.21684900  0.34293000  1
  P  P14  1  0.72992300  0.28818200  0.15380500  1
  P  P15  1  0.24003400  0.14528800  0.06296400  1
  O  O0  1  0.63371600  0.96029500  0.91252600  1
  O  O1  1  0.87812900  0.88922100  0.86333000  1
  O  O2  1  0.33701700  0.86180300  0.85851400  1
  O  O3  1  0.62939200  0.88121300  0.71462700  1
  O  O4  1  0.86628400  0.96029500  0.41252600  1
  O  O5  1  0.67689900  0.87043400  0.54016100  1
  O  O6  1  0.70496800  0.67231100  0.95970000  1
  O  O7  1  0.13614400  0.74736000  0.78036900  1
  O  O8  1  0.86632600  0.78084000  0.67286000  1
  O  O9  1  0.62187100  0.88922100  0.36333000  1
  O  O10  1  0.20856200  0.60754000  0.95296100  1
  O  O11  1  0.16298300  0.86180300  0.35851400  1
  O  O12  1  0.87060800  0.88121300  0.21462700  1
  O  O13  1  0.37226700  0.60971100  0.80928200  1
  O  O14  1  0.87967200  0.52985800  0.87697500  1
  O  O15  1  0.64797200  0.61681200  0.67580200  1
  O  O16  1  0.82310100  0.87043400  0.04016100  1
  O  O17  1  0.79503200  0.67231100  0.45970000  1
  O  O18  1  0.36385600  0.74736000  0.28036900  1
  O  O19  1  0.63367400  0.78084000  0.17286000  1
  O  O20  1  0.12549800  0.56452700  0.59927300  1
  O  O21  1  0.29143800  0.60754000  0.45296100  1
  O  O22  1  0.62549800  0.43547300  0.90072700  1
  O  O23  1  0.14797200  0.38318800  0.82419800  1
  O  O24  1  0.37967200  0.47014200  0.62302500  1
  O  O25  1  0.12773300  0.60971100  0.30928200  1
  O  O26  1  0.87226700  0.39028900  0.69071800  1
  O  O27  1  0.62032800  0.52985800  0.37697500  1
  O  O28  1  0.85202800  0.61681200  0.17580200  1
  O  O29  1  0.37450200  0.56452700  0.09927300  1
  O  O30  1  0.70856200  0.39246000  0.54703900  1
  O  O31  1  0.87450200  0.43547300  0.40072700  1
  O  O32  1  0.36632600  0.21916000  0.82714000  1
  O  O33  1  0.63614400  0.25264000  0.71963100  1
  O  O34  1  0.20496800  0.32768900  0.54030000  1
  O  O35  1  0.17689900  0.12956600  0.95983900  1
  O  O36  1  0.35202800  0.38318800  0.32419800  1
  O  O37  1  0.12032800  0.47014200  0.12302500  1
  O  O38  1  0.62773300  0.39028900  0.19071800  1
  O  O39  1  0.12939200  0.11878700  0.78537300  1
  O  O40  1  0.83701700  0.13819700  0.64148600  1
  O  O41  1  0.79143800  0.39246000  0.04703900  1
  O  O42  1  0.37812900  0.11077900  0.63667000  1
  O  O43  1  0.13367400  0.21916000  0.32714000  1
  O  O44  1  0.86385600  0.25264000  0.21963100  1
  O  O45  1  0.29503200  0.32768900  0.04030000  1
  O  O46  1  0.32310100  0.12956600  0.45983900  1
  O  O47  1  0.13371600  0.03970500  0.58747400  1
  O  O48  1  0.37060800  0.11878700  0.28537300  1
  O  O49  1  0.66298300  0.13819700  0.14148600  1
  O  O50  1  0.12187100  0.11077900  0.13667000  1
  O  O51  1  0.36628400  0.03970500  0.08747400  1
loop_
_geom_bond_atom_site_label_1
_geom_bond_atom_site_label_2
_geom_bond_distance
_geom_bond_site_symmetry_2
Er0 O39 2.166299 1_665
Er0 O40 2.191979 1_565
Er0 O1 2.219769 1_555
Er0 O47 2.219997 1_665
Er0 O7 2.340529 1_655
Er0 O8 2.346937 1_555
Er1 O48 2.166299 1_565
Er1 O49 2.191979 1_565
Er1 O9 2.219769 1_555
Er1 O51 2.219997 1_565
Er1 O18 2.340529 1_555
Er1 O19 2.346937 1_555
Er2 O26 2.128315 1_455
Er2 O23 2.157999 1_555
Er2 O14 2.220993 1_455
Er2 O20 2.243399 1_555
Er2 O8 2.343373 1_455
Er2 O7 2.347054 1_555
Er3 O13 2.128315 1_555
Er3 O15 2.157999 1_555
Er3 O24 2.220993 1_555
Er3 O22 2.243399 1_555
Er3 O32 2.343373 1_555
Er3 O33 2.347054 1_555
Er4 O38 2.128315 1_555
Er4 O36 2.157999 1_555
Er4 O27 2.220993 1_555
Er4 O29 2.243399 1_555
Er4 O19 2.343373 1_555
Er4 O18 2.347054 1_555
Er5 O25 2.128315 1_655
Er5 O28 2.157999 1_555
Er5 O37 2.220993 1_655
Er5 O31 2.243399 1_555
Er5 O43 2.343373 1_655
Er5 O44 2.347054 1_555
Er6 O3 2.166299 1_545
Er6 O2 2.191979 1_545
Er6 O42 2.219769 1_555
Er6 O0 2.219997 1_545
Er6 O33 2.340529 1_555
Er6 O32 2.346937 1_555
Er7 O12 2.166299 1_445
Er7 O11 2.191979 1_545
Er7 O50 2.219769 1_555
Er7 O4 2.219997 1_445
Er7 O44 2.340529 1_455
Er7 O43 2.346937 1_555
O0 P0 1.507538 1_555
O1 P0 1.502866 1_555
O2 P1 1.517944 1_555
O3 P2 1.516379 1_555
O4 P3 1.507538 1_555
O5 P3 1.597646 1_555
O5 P2 1.614738 1_555
O6 P0 1.631796 1_555
O6 P4 1.634790 1_555
O7 P1 1.559854 1_555
O8 P2 1.562505 1_555
O9 P3 1.502866 1_555
O10 P11 1.591517 1_556
O10 P1 1.622282 1_555
O11 P5 1.517944 1_555
O12 P6 1.516379 1_555
O13 P1 1.513047 1_555
O14 P4 1.502068 1_555
O15 P2 1.514404 1_555
O16 P0 1.597646 1_554
O16 P6 1.614738 1_555
O17 P3 1.631796 1_555
O17 P8 1.634790 1_555
O18 P5 1.559854 1_555
O19 P6 1.562505 1_555
O20 P7 1.506814 1_555
O21 P7 1.591517 1_555
O21 P5 1.622282 1_555
O22 P4 1.506814 1_555
O23 P9 1.514404 1_555
O24 P7 1.502068 1_555
O25 P5 1.513047 1_555
O26 P10 1.513047 1_555
O27 P8 1.502068 1_555
O28 P6 1.514404 1_555
O29 P11 1.506814 1_555
O30 P8 1.591517 1_555
O30 P10 1.622282 1_555
O31 P8 1.506814 1_555
O32 P9 1.562505 1_555
O33 P10 1.559854 1_555
O34 P12 1.631796 1_555
O34 P7 1.634790 1_555
O35 P15 1.597646 1_556
O35 P9 1.614738 1_555
O36 P13 1.514404 1_555
O37 P11 1.502068 1_555
O38 P14 1.513047 1_555
O39 P9 1.516379 1_555
O40 P10 1.517944 1_555
O41 P4 1.591517 1_554
O41 P14 1.622282 1_555
O42 P12 1.502866 1_555
O43 P13 1.562505 1_555
O44 P14 1.559854 1_555
O45 P15 1.631796 1_555
O45 P11 1.634790 1_555
O46 P12 1.597646 1_555
O46 P13 1.614738 1_555
O47 P12 1.507538 1_555
O48 P13 1.516379 1_555
O49 P14 1.517944 1_555
O50 P15 1.502866 1_555
O51 P15 1.507538 1_555
