# generated using pymatgen
data_LiCuPO4
_symmetry_space_group_name_H-M   'P 1'
_cell_length_a   7.43573022
_cell_length_b   7.43573022
_cell_length_c   9.47296043
_cell_angle_alpha   88.47497809
_cell_angle_beta   88.47497809
_cell_angle_gamma   117.99770191
_symmetry_Int_Tables_number   1
_chemical_formula_structural   LiCuPO4
_chemical_formula_sum   'Li6 Cu6 P6 O24'
_cell_volume   461.84539950
_cell_formula_units_Z   6
loop_
 _symmetry_equiv_pos_site_id
 _symmetry_equiv_pos_as_xyz
  1  'x, y, z'
loop_
 _atom_site_type_symbol
 _atom_site_label
 _atom_site_symmetry_multiplicity
 _atom_site_fract_x
 _atom_site_fract_y
 _atom_site_fract_z
 _atom_site_occupancy
  Li  Li0  1  0.25065300  0.04877700  0.25079300  1
  Li  Li1  1  0.79416200  0.74214700  0.25830300  1
  Li  Li2  1  0.21833100  0.95860200  0.74915300  1
  Li  Li3  1  0.95860200  0.21833100  0.24915300  1
  Li  Li4  1  0.04877700  0.25065300  0.75079300  1
  Li  Li5  1  0.74214700  0.79416200  0.75830300  1
  Cu  Cu0  1  0.44945200  0.39905600  0.46593700  1
  Cu  Cu1  1  0.59202700  0.02057900  0.45821100  1
  Cu  Cu2  1  0.94387000  0.52482600  0.48091400  1
  Cu  Cu3  1  0.02057900  0.59202700  0.95821100  1
  Cu  Cu4  1  0.52482600  0.94387000  0.98091400  1
  Cu  Cu5  1  0.39905600  0.44945200  0.96593700  1
  P  P0  1  0.65805600  0.33269000  0.17284400  1
  P  P1  1  0.99864300  0.00015300  0.00350700  1
  P  P2  1  0.00015300  0.99864300  0.50350700  1
  P  P3  1  0.67824400  0.33731000  0.77298300  1
  P  P4  1  0.33269000  0.65805600  0.67284400  1
  P  P5  1  0.33731000  0.67824400  0.27298300  1
  O  O0  1  0.22182700  0.12365500  0.44108500  1
  O  O1  1  0.44650200  0.29205400  0.12084800  1
  O  O2  1  0.51080000  0.12003400  0.82131000  1
  O  O3  1  0.62863500  0.50482400  0.82735800  1
  O  O4  1  0.82749200  0.54751600  0.12293000  1
  O  O5  1  0.64385000  0.32494000  0.34178000  1
  O  O6  1  0.99570800  0.99746400  0.16563300  1
  O  O7  1  0.99746400  0.99570800  0.66563300  1
  O  O8  1  0.69433700  0.35458800  0.60754600  1
  O  O9  1  0.90518700  0.78205900  0.44508600  1
  O  O10  1  0.71237000  0.16619700  0.12813200  1
  O  O11  1  0.11159700  0.88057000  0.94785700  1
  O  O12  1  0.88677800  0.37343800  0.82768100  1
  O  O13  1  0.88057000  0.11159700  0.44785700  1
  O  O14  1  0.16619700  0.71237000  0.62813200  1
  O  O15  1  0.37343800  0.88677800  0.32768100  1
  O  O16  1  0.12003400  0.51080000  0.32131000  1
  O  O17  1  0.29205400  0.44650200  0.62084800  1
  O  O18  1  0.32494000  0.64385000  0.84178000  1
  O  O19  1  0.35458800  0.69433700  0.10754600  1
  O  O20  1  0.12365500  0.22182700  0.94108500  1
  O  O21  1  0.54751600  0.82749200  0.62293000  1
  O  O22  1  0.50482400  0.62863500  0.32735800  1
  O  O23  1  0.78205900  0.90518700  0.94508600  1
loop_
_geom_bond_atom_site_label_1
_geom_bond_atom_site_label_2
_geom_bond_distance
_geom_bond_site_symmetry_2
Li0 O0 1.936571 1_555
Li0 O6 1.951603 1_445
Li0 O15 1.958654 1_545
Li0 O1 2.054522 1_555
Li1 O9 1.943198 1_555
Li1 O6 1.946999 1_555
Li1 O22 1.989928 1_555
Li1 O4 2.054019 1_555
Li2 O7 1.970340 1_455
Li2 O11 1.984856 1_555
Li2 O14 2.070223 1_555
Li2 O2 2.075915 1_565
Li3 O6 1.970340 1_545
Li3 O13 1.984856 1_555
Li3 O10 2.070223 1_555
Li3 O16 2.075915 1_655
Li4 O20 1.936571 1_555
Li4 O7 1.951603 1_445
Li4 O12 1.958654 1_455
Li4 O17 2.054522 1_555
Li5 O23 1.943198 1_555
Li5 O7 1.946999 1_555
Li5 O3 1.989928 1_555
Li5 O21 2.054019 1_555
Cu0 O0 1.976461 1_555
Cu0 O17 1.992859 1_555
Cu0 O22 1.999761 1_555
Cu0 O5 2.113856 1_555
Cu0 O8 2.428208 1_555
Cu1 O13 1.921696 1_555
Cu1 O15 1.953157 1_545
Cu1 O21 2.003197 1_545
Cu1 O5 2.347882 1_555
Cu2 O16 2.010942 1_655
Cu2 O8 2.019812 1_555
Cu2 O9 2.084127 1_555
Cu2 O14 2.164326 1_655
Cu2 O5 2.463885 1_555
Cu3 O11 1.921696 1_555
Cu3 O12 1.953157 1_455
Cu3 O4 2.003197 1_456
Cu3 O18 2.347882 1_555
Cu4 O2 2.010942 1_565
Cu4 O19 2.019812 1_556
Cu4 O23 2.084127 1_555
Cu4 O10 2.164326 1_566
Cu4 O18 2.463885 1_555
Cu5 O20 1.976461 1_555
Cu5 O1 1.992859 1_556
Cu5 O3 1.999761 1_555
Cu5 O18 2.113856 1_555
Cu5 O19 2.428208 1_556
O0 P2 1.552734 1_545
O1 P0 1.552846 1_555
O2 P3 1.552956 1_555
O3 P3 1.551872 1_555
O4 P0 1.549552 1_555
O5 P0 1.598716 1_555
O6 P1 1.534852 1_565
O7 P2 1.534852 1_655
O8 P3 1.565803 1_555
O9 P2 1.548881 1_655
O10 P0 1.537325 1_555
O11 P1 1.573703 1_466
O12 P3 1.550517 1_555
O13 P2 1.573703 1_645
O14 P4 1.537325 1_555
O15 P5 1.550517 1_555
O16 P5 1.552956 1_555
O17 P4 1.552846 1_555
O18 P4 1.598716 1_555
O19 P5 1.565803 1_555
O20 P1 1.552734 1_456
O21 P4 1.549552 1_555
O22 P5 1.551872 1_555
O23 P1 1.548881 1_566
