# generated using pymatgen
data_Li2Mn3P4(HO4)4
_symmetry_space_group_name_H-M   'P 1'
_cell_length_a   8.24856100
_cell_length_b   8.90395900
_cell_length_c   9.22606749
_cell_angle_alpha   80.54644879
_cell_angle_beta   90.00000000
_cell_angle_gamma   90.00000000
_symmetry_Int_Tables_number   1
_chemical_formula_structural   Li2Mn3P4(HO4)4
_chemical_formula_sum   'Li4 Mn6 P8 H8 O32'
_cell_volume   668.40460456
_cell_formula_units_Z   2
loop_
 _symmetry_equiv_pos_site_id
 _symmetry_equiv_pos_as_xyz
  1  'x, y, z'
loop_
 _atom_site_type_symbol
 _atom_site_label
 _atom_site_symmetry_multiplicity
 _atom_site_fract_x
 _atom_site_fract_y
 _atom_site_fract_z
 _atom_site_occupancy
  Li  Li0  1  0.33040800  0.01648500  0.02797700  1
  Li  Li1  1  0.16959200  0.01648500  0.52797700  1
  Li  Li2  1  0.83040800  0.98351500  0.47202300  1
  Li  Li3  1  0.66959200  0.98351500  0.97202300  1
  Mn  Mn0  1  0.50000000  0.50000000  0.00000000  1
  Mn  Mn1  1  0.13907900  0.65112600  0.00527800  1
  Mn  Mn2  1  0.63907900  0.34887400  0.49472200  1
  Mn  Mn3  1  0.00000000  0.50000000  0.50000000  1
  Mn  Mn4  1  0.36092100  0.65112600  0.50527800  1
  Mn  Mn5  1  0.86092100  0.34887400  0.99472200  1
  P  P0  1  0.56552000  0.17509000  0.22714500  1
  P  P1  1  0.80330900  0.61742600  0.20447600  1
  P  P2  1  0.30330900  0.38257400  0.29552400  1
  P  P3  1  0.06552000  0.82491000  0.27285500  1
  P  P4  1  0.93448000  0.17509000  0.72714500  1
  P  P5  1  0.69669100  0.61742600  0.70447600  1
  P  P6  1  0.19669100  0.38257400  0.79552400  1
  P  P7  1  0.43448000  0.82491000  0.77285500  1
  H  H0  1  0.99989300  0.11070400  0.21720100  1
  H  H1  1  0.04096000  0.27614600  0.23402100  1
  H  H2  1  0.54096000  0.72385400  0.26597900  1
  H  H3  1  0.49989300  0.88929600  0.28279900  1
  H  H4  1  0.50010700  0.11070400  0.71720100  1
  H  H5  1  0.45904000  0.27614600  0.73402100  1
  H  H6  1  0.95904000  0.72385400  0.76597900  1
  H  H7  1  0.00010700  0.88929600  0.78279900  1
  O  O0  1  0.63379600  0.31394100  0.12335100  1
  O  O1  1  0.00276400  0.21449300  0.15902400  1
  O  O2  1  0.92602800  0.54799800  0.11025100  1
  O  O3  1  0.53941300  0.04020500  0.14469900  1
  O  O4  1  0.29080500  0.48034000  0.14215900  1
  O  O5  1  0.64049200  0.65808900  0.13000700  1
  O  O6  1  0.16186900  0.86073400  0.12886600  1
  O  O7  1  0.38033200  0.21761200  0.27116100  1
  O  O8  1  0.88033200  0.78238800  0.22883900  1
  O  O9  1  0.66186900  0.13926600  0.37113400  1
  O  O10  1  0.14049200  0.34191100  0.36999300  1
  O  O11  1  0.79080500  0.51966000  0.35784100  1
  O  O12  1  0.03941300  0.95979500  0.35530100  1
  O  O13  1  0.42602800  0.45200200  0.38974900  1
  O  O14  1  0.50276400  0.78550700  0.34097600  1
  O  O15  1  0.13379600  0.68605900  0.37664900  1
  O  O16  1  0.86620400  0.31394100  0.62335100  1
  O  O17  1  0.49723600  0.21449300  0.65902400  1
  O  O18  1  0.57397200  0.54799800  0.61025100  1
  O  O19  1  0.96058700  0.04020500  0.64469900  1
  O  O20  1  0.20919500  0.48034000  0.64215900  1
  O  O21  1  0.85950800  0.65808900  0.63000700  1
  O  O22  1  0.33813100  0.86073400  0.62886600  1
  O  O23  1  0.11966800  0.21761200  0.77116100  1
  O  O24  1  0.61966800  0.78238800  0.72883900  1
  O  O25  1  0.83813100  0.13926600  0.87113400  1
  O  O26  1  0.35950800  0.34191100  0.86999300  1
  O  O27  1  0.70919500  0.51966000  0.85784100  1
  O  O28  1  0.46058700  0.95979500  0.85530100  1
  O  O29  1  0.07397200  0.45200200  0.88974900  1
  O  O30  1  0.99723600  0.78550700  0.84097600  1
  O  O31  1  0.36620400  0.68605900  0.87664900  1
loop_
_geom_bond_atom_site_label_1
_geom_bond_atom_site_label_2
_geom_bond_distance
_geom_bond_site_symmetry_2
Li0 O28 2.051830 1_544
Li0 O3 2.061830 1_555
Li0 O6 2.073222 1_545
Li1 O12 2.051830 1_545
Li1 O19 2.061830 1_455
Li1 O22 2.073222 1_545
Li2 O19 2.051830 1_565
Li2 O12 2.061830 1_655
Li2 O9 2.073222 1_565
Li3 O3 2.051830 1_566
Li3 O28 2.061830 1_555
Li3 O25 2.073222 1_565
Mn0 O0 2.153678 1_555
Mn0 O31 2.153678 1_554
Mn0 O27 2.157078 1_554
Mn0 O4 2.157078 1_555
Mn0 O26 2.306003 1_554
Mn0 O5 2.306003 1_555
Mn1 O30 2.121931 1_454
Mn1 O2 2.139472 1_455
Mn1 O4 2.200624 1_555
Mn1 O31 2.212165 1_554
Mn1 O29 2.277893 1_554
Mn1 O6 2.348990 1_555
Mn2 O17 2.121931 1_555
Mn2 O13 2.139472 1_555
Mn2 O11 2.200624 1_555
Mn2 O16 2.212165 1_555
Mn2 O18 2.277893 1_555
Mn2 O9 2.348990 1_555
Mn3 O15 2.153678 1_555
Mn3 O16 2.153678 1_455
Mn3 O11 2.157078 1_455
Mn3 O20 2.157078 1_555
Mn3 O10 2.306003 1_555
Mn3 O21 2.306003 1_455
Mn4 O14 2.121931 1_555
Mn4 O18 2.139472 1_555
Mn4 O20 2.200624 1_555
Mn4 O15 2.212165 1_555
Mn4 O13 2.277893 1_555
Mn4 O22 2.348990 1_555
Mn5 O1 2.121931 1_656
Mn5 O29 2.139472 1_655
Mn5 O27 2.200624 1_555
Mn5 O0 2.212165 1_556
Mn5 O2 2.277893 1_556
Mn5 O25 2.348990 1_555
H0 O1 0.989816 1_655
H0 O12 1.724167 1_645
H1 O1 1.002075 1_555
H1 O10 1.682846 1_555
H2 O14 1.002075 1_555
H2 O5 1.682846 1_555
H3 O14 0.989816 1_555
H3 O3 1.724167 1_565
H4 O17 0.989816 1_555
H4 O28 1.724167 1_545
H5 O17 1.002075 1_555
H5 O26 1.682846 1_555
H6 O30 1.002075 1_555
H6 O21 1.682846 1_555
H7 O30 0.989816 1_455
H7 O19 1.724167 1_465
O0 P0 1.540705 1_555
O2 P1 1.529403 1_555
O3 P0 1.538665 1_555
O4 P2 1.538148 1_555
O5 P1 1.524823 1_555
O6 P3 1.535886 1_555
O7 P0 1.640771 1_555
O7 P2 1.649254 1_555
O8 P3 1.640771 1_655
O8 P1 1.649254 1_555
O9 P0 1.535886 1_555
O10 P2 1.524823 1_555
O11 P1 1.538148 1_555
O12 P3 1.538665 1_555
O13 P2 1.529403 1_555
O15 P3 1.540705 1_555
O16 P4 1.540705 1_555
O18 P5 1.529403 1_555
O19 P4 1.538665 1_555
O20 P6 1.538148 1_555
O21 P5 1.524823 1_555
O22 P7 1.535886 1_555
O23 P4 1.640771 1_455
O23 P6 1.649254 1_555
O24 P7 1.640771 1_555
O24 P5 1.649254 1_555
O25 P4 1.535886 1_555
O26 P6 1.524823 1_555
O27 P5 1.538148 1_555
O28 P7 1.538665 1_555
O29 P6 1.529403 1_555
O31 P7 1.540705 1_555
