# generated using pymatgen
data_Fe6O5F7
_symmetry_space_group_name_H-M   'P 1'
_cell_length_a   4.74348100
_cell_length_b   5.69132562
_cell_length_c   7.86055783
_cell_angle_alpha   85.17575070
_cell_angle_beta   89.35459447
_cell_angle_gamma   88.69259871
_symmetry_Int_Tables_number   1
_chemical_formula_structural   Fe6O5F7
_chemical_formula_sum   'Fe6 O5 F7'
_cell_volume   211.39294943
_cell_formula_units_Z   1
loop_
 _symmetry_equiv_pos_site_id
 _symmetry_equiv_pos_as_xyz
  1  'x, y, z'
loop_
 _atom_site_type_symbol
 _atom_site_label
 _atom_site_symmetry_multiplicity
 _atom_site_fract_x
 _atom_site_fract_y
 _atom_site_fract_z
 _atom_site_occupancy
  Fe  Fe0  1  0.56254000  0.82835500  0.65739800  1
  Fe  Fe1  1  0.51382800  0.51945600  0.01297700  1
  Fe  Fe2  1  0.48919700  0.16720700  0.33567200  1
  Fe  Fe3  1  0.96941300  0.33336100  0.68659200  1
  Fe  Fe4  1  0.99155200  0.66605200  0.32042000  1
  Fe  Fe5  1  0.97835800  0.98299800  0.98794200  1
  O  O0  1  0.80107100  0.04408000  0.75423000  1
  O  O1  1  0.80279400  0.69055100  0.10806400  1
  O  O2  1  0.69124300  0.53567500  0.77571200  1
  O  O3  1  0.69470800  0.87894400  0.42553700  1
  O  O4  1  0.30807400  0.45578100  0.23775500  1
  F  F0  1  0.80383700  0.36890300  0.43982600  1
  F  F1  1  0.69610300  0.20241100  0.10686400  1
  F  F2  1  0.29594300  0.13427400  0.56516600  1
  F  F3  1  0.30872700  0.79975600  0.88847900  1
  F  F4  1  0.20241300  0.96280900  0.23344500  1
  F  F5  1  0.18472500  0.62346000  0.56517500  1
  F  F6  1  0.20547400  0.30592600  0.89874500  1
loop_
_geom_bond_atom_site_label_1
_geom_bond_atom_site_label_2
_geom_bond_distance
_geom_bond_site_symmetry_2
Fe0 O0 1.899197 1_565
Fe0 O3 1.921430 1_555
Fe0 O2 1.928247 1_555
Fe1 O1 1.895285 1_555
Fe1 O4 2.018748 1_555
Fe1 O2 2.033307 1_554
Fe2 O4 1.940571 1_555
Fe2 O3 1.971919 1_545
Fe3 O0 1.879927 1_555
Fe3 O2 1.898191 1_555
Fe4 O1 1.896393 1_555
Fe4 O4 2.033580 1_655
Fe4 O3 2.048854 1_555
Fe5 O0 2.029056 1_565
Fe5 O1 2.033852 1_556
F0 Fe4 2.077686 1_555
F0 Fe3 2.093171 1_555
F0 Fe2 2.116437 1_555
F1 Fe2 2.036370 1_555
F1 Fe1 2.065743 1_555
F1 Fe5 2.077895 1_544
F2 Fe2 2.010825 1_555
F2 Fe3 2.159269 1_455
F2 Fe0 2.205463 1_545
F3 Fe1 2.034005 1_556
F3 Fe5 2.046863 1_455
F3 Fe0 2.164568 1_555
F4 Fe2 2.025735 1_565
F4 Fe4 2.046418 1_455
F4 Fe5 2.206848 1_454
F5 Fe3 2.114215 1_455
F5 Fe4 2.133298 1_455
F5 Fe0 2.316034 1_555
F6 Fe3 2.012347 1_455
F6 Fe1 2.171820 1_556
F6 Fe5 2.210575 1_445
