# generated using pymatgen
data_LiMn2(BO3)2
_symmetry_space_group_name_H-M   'P 1'
_cell_length_a   5.29448500
_cell_length_b   5.79367823
_cell_length_c   17.94741757
_cell_angle_alpha   83.83727860
_cell_angle_beta   82.20085083
_cell_angle_gamma   66.08554778
_symmetry_Int_Tables_number   1
_chemical_formula_structural   LiMn2(BO3)2
_chemical_formula_sum   'Li4 Mn8 B8 O24'
_cell_volume   497.77819228
_cell_formula_units_Z   4
loop_
 _symmetry_equiv_pos_site_id
 _symmetry_equiv_pos_as_xyz
  1  'x, y, z'
loop_
 _atom_site_type_symbol
 _atom_site_label
 _atom_site_symmetry_multiplicity
 _atom_site_fract_x
 _atom_site_fract_y
 _atom_site_fract_z
 _atom_site_occupancy
  Li  Li0  1  0.06566800  0.90254000  0.76683300  1
  Li  Li1  1  0.42342400  0.84888700  0.48548300  1
  Li  Li2  1  0.42669800  0.34818900  0.98665500  1
  Li  Li3  1  0.92186500  0.10099600  0.23628300  1
  Mn  Mn0  1  0.53570700  0.89351200  0.85155500  1
  Mn  Mn1  1  0.96298300  0.85467100  0.40284300  1
  Mn  Mn2  1  0.96346200  0.34830500  0.90246400  1
  Mn  Mn3  1  0.47063900  0.59019600  0.65810100  1
  Mn  Mn4  1  0.52926000  0.40731900  0.34823300  1
  Mn  Mn5  1  0.03034100  0.65840700  0.09646800  1
  Mn  Mn6  1  0.03689600  0.15502100  0.59733400  1
  Mn  Mn7  1  0.46191500  0.10251000  0.15406400  1
  B  B0  1  0.94799500  0.69417100  0.56406800  1
  B  B1  1  0.45349900  0.93934200  0.31535600  1
  B  B2  1  0.05610400  0.80687500  0.93039000  1
  B  B3  1  0.44431900  0.43714000  0.82088000  1
  B  B4  1  0.54895300  0.56098000  0.18172000  1
  B  B5  1  0.95294900  0.18599100  0.06601700  1
  B  B6  1  0.54693300  0.06004700  0.68805100  1
  B  B7  1  0.05071100  0.31113700  0.43174400  1
  O  O0  1  0.69564200  0.98170600  0.74785200  1
  O  O1  1  0.86503800  0.71317600  0.91516100  1
  O  O2  1  0.34590700  0.96563900  0.67653800  1
  O  O3  1  0.09702300  0.98516300  0.87372500  1
  O  O4  1  0.79899500  0.78192900  0.50261000  1
  O  O5  1  0.20822500  0.71684900  0.98886000  1
  O  O6  1  0.86246600  0.54504600  0.61941900  1
  O  O7  1  0.37250900  0.80237900  0.37668800  1
  O  O8  1  0.64884300  0.51135400  0.83414700  1
  O  O9  1  0.16857700  0.75661200  0.57429800  1
  O  O10  1  0.59445500  0.74834400  0.13130600  1
  O  O11  1  0.29369100  0.53284300  0.76018500  1
  O  O12  1  0.69524300  0.46313100  0.24130900  1
  O  O13  1  0.37551000  0.27897300  0.87825200  1
  O  O14  1  0.86257100  0.21791500  0.41293000  1
  O  O15  1  0.36230800  0.46690100  0.16200500  1
  O  O16  1  0.59583600  0.23451300  0.63371000  1
  O  O17  1  0.09523600  0.49885300  0.38161200  1
  O  O18  1  0.80514900  0.25619400  0.00480300  1
  O  O19  1  0.20111600  0.21184900  0.49078400  1
  O  O20  1  0.87430900  0.04865400  0.12788500  1
  O  O21  1  0.67830100  0.99973700  0.32053100  1
  O  O22  1  0.17390600  0.25289900  0.07149700  1
  O  O23  1  0.29955100  0.02044100  0.25498600  1
loop_
_geom_bond_atom_site_label_1
_geom_bond_atom_site_label_2
_geom_bond_distance
_geom_bond_site_symmetry_2
Li0 O0 1.893029 1_455
Li0 O11 1.994693 1_555
Li0 O3 2.070056 1_555
Li0 O2 2.149716 1_555
Li1 O4 1.927127 1_555
Li1 O19 1.955097 1_565
Li1 O7 2.067023 1_555
Li1 O9 2.113138 1_555
Li2 O18 1.918073 1_556
Li2 O5 1.975927 1_555
Li2 O22 2.068859 1_556
Li2 O13 2.101944 1_555
Li3 O23 1.928991 1_655
Li3 O12 1.954499 1_555
Li3 O21 2.046229 1_545
Li3 O20 2.064390 1_555
Mn0 O0 2.039865 1_555
Mn0 O1 2.059663 1_555
Mn0 O8 2.093117 1_555
Mn0 O13 2.126049 1_565
Mn0 O3 2.151612 1_555
Mn1 O17 1.952229 1_655
Mn1 O4 1.962208 1_555
Mn1 O14 1.973069 1_565
Mn1 O7 2.057932 1_655
Mn1 O21 2.114531 1_555
Mn2 O1 1.992571 1_555
Mn2 O18 2.023677 1_556
Mn2 O3 2.029878 1_645
Mn2 O13 2.044310 1_655
Mn2 O8 2.049466 1_555
Mn3 O16 1.971049 1_555
Mn3 O11 2.000170 1_555
Mn3 O6 2.015488 1_555
Mn3 O2 2.051267 1_555
Mn3 O9 2.200170 1_555
Mn4 O12 2.049121 1_555
Mn4 O14 2.092647 1_555
Mn4 O17 2.151095 1_555
Mn4 O7 2.187303 1_555
Mn4 O21 2.254095 1_545
Mn5 O5 2.087101 1_554
Mn5 O15 2.098457 1_555
Mn5 O10 2.166046 1_455
Mn5 O20 2.178380 1_465
Mn5 O22 2.232491 1_555
Mn6 O19 2.041298 1_555
Mn6 O6 2.125369 1_455
Mn6 O2 2.177655 1_545
Mn6 O9 2.192484 1_545
Mn6 O16 2.206871 1_455
Mn7 O10 1.950490 1_545
Mn7 O15 1.974081 1_555
Mn7 O23 1.992413 1_555
Mn7 O20 2.070295 1_555
Mn7 O22 2.130533 1_555
B0 O4 1.374059 1_555
B0 O9 1.394090 1_655
B0 O6 1.396140 1_555
B1 O23 1.370745 1_565
B1 O21 1.386467 1_555
B1 O7 1.409050 1_555
B2 O5 1.339110 1_555
B2 O1 1.394580 1_455
B2 O3 1.429777 1_555
B3 O11 1.370273 1_555
B3 O8 1.372433 1_555
B3 O13 1.413844 1_555
B4 O12 1.343017 1_555
B4 O15 1.404209 1_555
B4 O10 1.413171 1_555
B5 O18 1.365326 1_555
B5 O22 1.391248 1_655
B5 O20 1.411673 1_555
B6 O0 1.346421 1_545
B6 O16 1.404249 1_555
B6 O2 1.424991 1_545
B7 O19 1.347057 1_555
B7 O14 1.401629 1_455
B7 O17 1.410001 1_555
