# generated using pymatgen
data_Li2MnP2O7
_symmetry_space_group_name_H-M   'P 1'
_cell_length_a   8.46208300
_cell_length_b   7.34985700
_cell_length_c   9.97800289
_cell_angle_alpha   69.38437467
_cell_angle_beta   90.00000000
_cell_angle_gamma   90.00000000
_symmetry_Int_Tables_number   1
_chemical_formula_structural   Li2MnP2O7
_chemical_formula_sum   'Li8 Mn4 P8 O28'
_cell_volume   580.84296181
_cell_formula_units_Z   4
loop_
 _symmetry_equiv_pos_site_id
 _symmetry_equiv_pos_as_xyz
  1  'x, y, z'
loop_
 _atom_site_type_symbol
 _atom_site_label
 _atom_site_symmetry_multiplicity
 _atom_site_fract_x
 _atom_site_fract_y
 _atom_site_fract_z
 _atom_site_occupancy
  Li  Li0  1  0.13785900  0.16904200  0.87536800  1
  Li  Li1  1  0.63785900  0.83095800  0.12463200  1
  Li  Li2  1  0.91972500  0.55349900  0.16476800  1
  Li  Li3  1  0.11545200  0.26514100  0.38425600  1
  Li  Li4  1  0.41972500  0.44650100  0.83523200  1
  Li  Li5  1  0.91381400  0.90839900  0.71799100  1
  Li  Li6  1  0.41381400  0.09160100  0.28200900  1
  Li  Li7  1  0.61545200  0.73485900  0.61574400  1
  Mn  Mn0  1  0.49939200  0.01891000  0.75066400  1
  Mn  Mn1  1  0.48831800  0.48328100  0.26666600  1
  Mn  Mn2  1  0.98831800  0.51671900  0.73333400  1
  Mn  Mn3  1  0.99939200  0.98109000  0.24933600  1
  P  P0  1  0.76292900  0.15483100  0.95812000  1
  P  P1  1  0.26292900  0.84516900  0.04188000  1
  P  P2  1  0.80420300  0.57413600  0.42409600  1
  P  P3  1  0.30420300  0.42586400  0.57590400  1
  P  P4  1  0.69425100  0.57670800  0.92819500  1
  P  P5  1  0.19425100  0.42329200  0.07180500  1
  P  P6  1  0.74824500  0.14396800  0.45598800  1
  P  P7  1  0.24824500  0.85603200  0.54401200  1
  O  O0  1  0.90814400  0.21923900  0.86188200  1
  O  O1  1  0.79279600  0.05207800  0.11799500  1
  O  O2  1  0.14731500  0.97330900  0.08566100  1
  O  O3  1  0.64731500  0.02669100  0.91433900  1
  O  O4  1  0.33913000  0.65328300  0.55566400  1
  O  O5  1  0.29279600  0.94792200  0.88200500  1
  O  O6  1  0.94282600  0.66998900  0.32501600  1
  O  O7  1  0.80159200  0.59005700  0.57328600  1
  O  O8  1  0.40814400  0.78076100  0.13811800  1
  O  O9  1  0.64482300  0.63738000  0.34940200  1
  O  O10  1  0.14482300  0.36262000  0.65059800  1
  O  O11  1  0.16055000  0.64684100  0.06158500  1
  O  O12  1  0.30159200  0.40994300  0.42671400  1
  O  O13  1  0.44282600  0.33001100  0.67498400  1
  O  O14  1  0.55530800  0.67569800  0.82962100  1
  O  O15  1  0.69483000  0.58121600  0.08075500  1
  O  O16  1  0.83913000  0.34671700  0.44433600  1
  O  O17  1  0.85511700  0.64687000  0.85638900  1
  O  O18  1  0.35511700  0.35313000  0.14361100  1
  O  O19  1  0.60116800  0.19777500  0.36129300  1
  O  O20  1  0.19483000  0.41878400  0.91924500  1
  O  O21  1  0.05530800  0.32430200  0.17037900  1
  O  O22  1  0.71409600  0.02924800  0.61583700  1
  O  O23  1  0.66055000  0.35315900  0.93841500  1
  O  O24  1  0.37988400  0.95975600  0.59056400  1
  O  O25  1  0.87988400  0.04024400  0.40943600  1
  O  O26  1  0.21409600  0.97075200  0.38416300  1
  O  O27  1  0.10116800  0.80222500  0.63870700  1
loop_
_geom_bond_atom_site_label_1
_geom_bond_atom_site_label_2
_geom_bond_distance
_geom_bond_site_symmetry_2
Li0 O0 1.974306 1_455
Li0 O5 2.070949 1_545
Li0 O2 2.086426 1_546
Li0 O20 2.087894 1_555
Li0 O10 2.193324 1_555
Li1 O8 1.974306 1_555
Li1 O1 2.070949 1_565
Li1 O3 2.086426 1_564
Li1 O15 2.087894 1_555
Li1 O9 2.193324 1_555
Li2 O21 2.022575 1_655
Li2 O15 2.060504 1_555
Li2 O6 2.071706 1_555
Li2 O11 2.277329 1_655
Li3 O12 2.027486 1_555
Li3 O21 2.085396 1_555
Li3 O26 2.319454 1_545
Li3 O16 2.537603 1_455
Li3 O25 2.544913 1_455
Li4 O14 2.022575 1_555
Li4 O20 2.060504 1_555
Li4 O13 2.071706 1_555
Li4 O23 2.277329 1_555
Li5 O17 1.994821 1_555
Li5 O22 2.011604 1_565
Li5 O27 2.045248 1_655
Li6 O18 1.994821 1_555
Li6 O26 2.011604 1_545
Li6 O19 2.045248 1_555
Li7 O7 2.027486 1_555
Li7 O14 2.085396 1_555
Li7 O22 2.319454 1_565
Li7 O4 2.537603 1_555
Li7 O24 2.544913 1_555
Mn0 O24 2.062221 1_545
Mn0 O3 2.074383 1_555
Mn0 O5 2.136470 1_545
Mn0 O13 2.193571 1_555
Mn0 O22 2.246008 1_555
Mn0 O14 2.410060 1_545
Mn1 O9 2.092048 1_555
Mn1 O18 2.126090 1_555
Mn1 O12 2.175165 1_555
Mn1 O19 2.193533 1_555
Mn1 O8 2.216102 1_555
Mn1 O15 2.464300 1_555
Mn2 O10 2.092048 1_655
Mn2 O17 2.126090 1_555
Mn2 O7 2.175165 1_555
Mn2 O27 2.193533 1_655
Mn2 O0 2.216102 1_555
Mn2 O20 2.464300 1_655
Mn3 O25 2.062221 1_565
Mn3 O2 2.074383 1_655
Mn3 O1 2.136470 1_565
Mn3 O6 2.193571 1_555
Mn3 O26 2.246008 1_655
Mn3 O21 2.410060 1_665
O0 P0 1.528428 1_555
O1 P0 1.526638 1_554
O2 P1 1.524699 1_555
O3 P0 1.524699 1_555
O4 P3 1.638392 1_555
O4 P7 1.644268 1_555
O5 P1 1.526638 1_556
O6 P2 1.535987 1_555
O7 P2 1.533894 1_555
O8 P1 1.528428 1_555
O9 P2 1.531840 1_555
O10 P3 1.531840 1_555
O11 P5 1.635042 1_555
O11 P1 1.646880 1_555
O12 P3 1.533894 1_555
O13 P3 1.535987 1_555
O14 P4 1.541173 1_555
O15 P4 1.534231 1_554
O16 P2 1.638392 1_555
O16 P6 1.644268 1_555
O17 P4 1.540169 1_555
O18 P5 1.540169 1_555
O19 P6 1.528074 1_555
O20 P5 1.534231 1_556
O21 P5 1.541173 1_555
O22 P6 1.546403 1_555
O23 P4 1.635042 1_555
O23 P0 1.646880 1_555
O24 P7 1.512339 1_555
O25 P6 1.512339 1_555
O26 P7 1.546403 1_555
O27 P7 1.528074 1_555
