# generated using pymatgen
data_Li4Co3(OF3)2
_symmetry_space_group_name_H-M   'P 1'
_cell_length_a   5.26384155
_cell_length_b   5.94325295
_cell_length_c   10.44901011
_cell_angle_alpha   89.02161269
_cell_angle_beta   80.05865371
_cell_angle_gamma   72.16652367
_symmetry_Int_Tables_number   1
_chemical_formula_structural   Li4Co3(OF3)2
_chemical_formula_sum   'Li8 Co6 O4 F12'
_cell_volume   306.28766513
_cell_formula_units_Z   2
loop_
 _symmetry_equiv_pos_site_id
 _symmetry_equiv_pos_as_xyz
  1  'x, y, z'
loop_
 _atom_site_type_symbol
 _atom_site_label
 _atom_site_symmetry_multiplicity
 _atom_site_fract_x
 _atom_site_fract_y
 _atom_site_fract_z
 _atom_site_occupancy
  Li  Li0  1  0.98005100  0.00180000  0.49377400  1
  Li  Li1  1  0.97953800  0.00182200  0.99377500  1
  Li  Li2  1  0.02047400  0.74817800  0.25623400  1
  Li  Li3  1  0.01992700  0.74820500  0.75625100  1
  Li  Li4  1  0.00102800  0.23578700  0.24171800  1
  Li  Li5  1  0.00128000  0.23623500  0.74129800  1
  Li  Li6  1  0.99899100  0.51423200  0.00827400  1
  Li  Li7  1  0.99872300  0.51378900  0.50871200  1
  Co  Co0  1  0.50000400  0.87498800  0.12501700  1
  Co  Co1  1  0.49388000  0.10919300  0.87347900  1
  Co  Co2  1  0.50608300  0.64081500  0.37653900  1
  Co  Co3  1  0.50001400  0.87501500  0.62498400  1
  Co  Co4  1  0.49521500  0.10839500  0.37303600  1
  Co  Co5  1  0.50478600  0.64156400  0.87694300  1
  O  O0  1  0.27153400  0.93197300  0.30095700  1
  O  O1  1  0.27162900  0.93231400  0.80125500  1
  O  O2  1  0.72834300  0.81772100  0.44877600  1
  O  O3  1  0.72852400  0.81800100  0.94900800  1
  F  F0  1  0.20858400  0.18412500  0.05580000  1
  F  F1  1  0.20888200  0.18316100  0.55597000  1
  F  F2  1  0.79143500  0.56591000  0.19419400  1
  F  F3  1  0.79109200  0.56685100  0.69404600  1
  F  F4  1  0.76682500  0.04653000  0.19046100  1
  F  F5  1  0.76697700  0.04555500  0.69078500  1
  F  F6  1  0.23321100  0.70346400  0.05951200  1
  F  F7  1  0.23306000  0.70440400  0.55922800  1
  F  F8  1  0.75024300  0.30638100  0.41787800  1
  F  F9  1  0.74827800  0.30692700  0.91720800  1
  F  F10  1  0.25167500  0.44303900  0.33278000  1
  F  F11  1  0.24971400  0.44362400  0.83211000  1
loop_
_geom_bond_atom_site_label_1
_geom_bond_atom_site_label_2
_geom_bond_distance
_geom_bond_site_symmetry_2
Li0 O2 2.072191 1_545
Li0 O0 2.270851 1_645
Li1 O3 2.067171 1_545
Li1 O1 2.269966 1_645
Li2 O0 2.067103 1_555
Li2 O2 2.270241 1_455
Li3 O1 2.072316 1_555
Li3 O3 2.270171 1_455
Li4 O0 2.088627 1_545
Li5 O1 2.091660 1_545
Li6 O3 2.088469 1_554
Li7 O2 2.091691 1_555
Co0 O0 1.987243 1_555
Co0 O3 1.987940 1_554
Co0 F4 2.170747 1_565
Co0 F6 2.170828 1_555
Co0 F2 2.204908 1_555
Co0 F0 2.205276 1_565
Co1 O3 2.030795 1_545
Co1 O1 2.031868 1_545
Co1 F11 2.094543 1_555
Co1 F9 2.139288 1_555
Co1 F5 2.144260 1_555
Co1 F0 2.171268 1_556
Co2 O0 2.030720 1_555
Co2 O2 2.032084 1_555
Co2 F8 2.094452 1_555
Co2 F10 2.139622 1_555
Co2 F7 2.144044 1_555
Co2 F2 2.171598 1_555
Co3 O2 1.989261 1_555
Co3 O1 1.989920 1_555
Co3 F5 2.169002 1_565
Co3 F7 2.169040 1_555
Co3 F1 2.199985 1_565
Co3 F3 2.200126 1_555
Co4 O2 2.026525 1_545
Co4 O0 2.035259 1_545
Co4 F10 2.090912 1_555
Co4 F4 2.139840 1_555
Co4 F8 2.147034 1_555
Co4 F1 2.178745 1_555
Co5 O1 2.026625 1_555
Co5 O3 2.035491 1_555
Co5 F9 2.090818 1_555
Co5 F6 2.139703 1_556
Co5 F11 2.146992 1_555
Co5 F3 2.178380 1_555
F0 Li1 2.035058 1_454
F0 Li6 2.035442 1_455
F0 Li4 2.035661 1_555
F1 Li5 2.030454 1_555
F1 Li0 2.030887 1_455
F1 Li7 2.037865 1_455
F2 Li2 2.034946 1_655
F2 Li4 2.035511 1_655
F2 Li6 2.035679 1_555
F3 Li7 2.030558 1_555
F3 Li3 2.030915 1_655
F3 Li5 2.037832 1_655
F4 Li4 2.041993 1_655
F4 Li2 2.055309 1_645
F4 Li1 2.142410 1_554
F5 Li5 2.045789 1_655
F5 Li3 2.048374 1_645
F5 Li0 2.146095 1_555
F6 Li6 2.041881 1_455
F6 Li1 2.055226 1_464
F6 Li2 2.142778 1_555
F7 Li7 2.045660 1_455
F7 Li0 2.048638 1_465
F7 Li3 2.146298 1_555
F8 Li4 2.038378 1_655
F8 Li0 2.076060 1_555
F8 Li7 2.363730 1_555
F9 Li5 2.041352 1_655
F9 Li1 2.084408 1_555
F9 Li6 2.373736 1_556
F10 Li7 2.041428 1_455
F10 Li2 2.084324 1_555
F10 Li4 2.373223 1_555
F11 Li6 2.038273 1_456
F11 Li3 2.075837 1_555
F11 Li5 2.363345 1_555
