# generated using pymatgen
data_VIO4
_symmetry_space_group_name_H-M   'P 1'
_cell_length_a   7.03820153
_cell_length_b   7.03820153
_cell_length_c   9.27971373
_cell_angle_alpha   80.29762356
_cell_angle_beta   80.29762356
_cell_angle_gamma   84.98379135
_symmetry_Int_Tables_number   1
_chemical_formula_structural   VIO4
_chemical_formula_sum   'V4 I4 O16'
_cell_volume   445.80118707
_cell_formula_units_Z   4
loop_
 _symmetry_equiv_pos_site_id
 _symmetry_equiv_pos_as_xyz
  1  'x, y, z'
loop_
 _atom_site_type_symbol
 _atom_site_label
 _atom_site_symmetry_multiplicity
 _atom_site_fract_x
 _atom_site_fract_y
 _atom_site_fract_z
 _atom_site_occupancy
  V  V0  1  0.72730100  0.72730100  0.41804900  1
  V  V1  1  0.75487100  0.24512900  0.00000000  1
  V  V2  1  0.24512900  0.75487100  0.00000000  1
  V  V3  1  0.27269900  0.27269900  0.58195100  1
  I  I0  1  0.76054400  0.76054400  0.89315000  1
  I  I1  1  0.19601700  0.80398300  0.50000000  1
  I  I2  1  0.80398300  0.19601700  0.50000000  1
  I  I3  1  0.23945600  0.23945600  0.10685000  1
  O  O0  1  0.86226100  0.86226100  0.50880100  1
  O  O1  1  0.78444600  0.78444600  0.23857400  1
  O  O2  1  0.76563400  0.46339900  0.87675600  1
  O  O3  1  0.46339900  0.76563400  0.87675600  1
  O  O4  1  0.48108000  0.79449000  0.48299500  1
  O  O5  1  0.79449000  0.48108000  0.48299500  1
  O  O6  1  0.06262500  0.76153900  0.89287900  1
  O  O7  1  0.76153900  0.06262500  0.89287900  1
  O  O8  1  0.93737600  0.23846100  0.10712100  1
  O  O9  1  0.23846100  0.93737600  0.10712100  1
  O  O10  1  0.51892000  0.20551000  0.51700500  1
  O  O11  1  0.20551000  0.51892000  0.51700500  1
  O  O12  1  0.53660100  0.23436600  0.12324400  1
  O  O13  1  0.23436600  0.53660100  0.12324400  1
  O  O14  1  0.21555400  0.21555400  0.76142600  1
  O  O15  1  0.13773900  0.13773900  0.49119900  1
loop_
_geom_bond_atom_site_label_1
_geom_bond_atom_site_label_2
_geom_bond_distance
_geom_bond_site_symmetry_2
I0 O2 2.119090 1_555
I0 O3 2.119090 1_555
I0 O7 2.126307 1_565
I0 O6 2.126307 1_655
I1 O11 1.981950 1_555
I1 O4 1.981950 1_555
I1 O0 2.339026 1_455
I1 O15 2.339026 1_565
I2 O10 1.981950 1_555
I2 O5 1.981950 1_555
I2 O0 2.339026 1_545
I2 O15 2.339026 1_655
I3 O13 2.119090 1_555
I3 O12 2.119090 1_555
I3 O9 2.126300 1_545
I3 O8 2.126300 1_455
O0 V0 1.791867 1_555
O1 V0 1.635257 1_555
O2 V1 1.752903 1_556
O3 V2 1.752903 1_556
O4 V0 1.786252 1_555
O5 V0 1.786252 1_555
O6 V2 1.744820 1_556
O7 V1 1.744820 1_556
O8 V1 1.744825 1_555
O9 V2 1.744825 1_555
O10 V3 1.786252 1_555
O11 V3 1.786252 1_555
O12 V1 1.752903 1_555
O13 V2 1.752903 1_555
O14 V3 1.635257 1_555
O15 V3 1.791867 1_555
