# generated using pymatgen
data_LiCrPO5
_symmetry_space_group_name_H-M   'P 1'
_cell_length_a   9.58103600
_cell_length_b   5.32279500
_cell_length_c   7.44425076
_cell_angle_alpha   70.83922757
_cell_angle_beta   90.00000000
_cell_angle_gamma   90.00000000
_symmetry_Int_Tables_number   1
_chemical_formula_structural   LiCrPO5
_chemical_formula_sum   'Li4 Cr4 P4 O20'
_cell_volume   358.60946542
_cell_formula_units_Z   4
loop_
 _symmetry_equiv_pos_site_id
 _symmetry_equiv_pos_as_xyz
  1  'x, y, z'
loop_
 _atom_site_type_symbol
 _atom_site_label
 _atom_site_symmetry_multiplicity
 _atom_site_fract_x
 _atom_site_fract_y
 _atom_site_fract_z
 _atom_site_occupancy
  Li  Li0  1  0.59516300  0.44757100  0.70428900  1
  Li  Li1  1  0.09516300  0.55242900  0.79571100  1
  Li  Li2  1  0.90483700  0.44757100  0.20428900  1
  Li  Li3  1  0.40483700  0.55242900  0.29571100  1
  Cr  Cr0  1  0.41609700  0.00195400  0.65579600  1
  Cr  Cr1  1  0.91609700  0.99804600  0.84420400  1
  Cr  Cr2  1  0.08390300  0.00195400  0.15579600  1
  Cr  Cr3  1  0.58390300  0.99804600  0.34420400  1
  P  P0  1  0.15160000  0.15707900  0.54387500  1
  P  P1  1  0.34840000  0.15707900  0.04387500  1
  P  P2  1  0.65160000  0.84292100  0.95612500  1
  P  P3  1  0.84840000  0.84292100  0.45612500  1
  O  O0  1  0.71123400  0.68090100  0.49502300  1
  O  O1  1  0.21346300  0.87726000  0.66039300  1
  O  O2  1  0.54875600  0.20364800  0.51240400  1
  O  O3  1  0.91959600  0.82214700  0.64555900  1
  O  O4  1  0.04646200  0.25673100  0.66717700  1
  O  O5  1  0.41959600  0.17785300  0.85444100  1
  O  O6  1  0.71346300  0.12274000  0.83960700  1
  O  O7  1  0.21123400  0.31909900  0.00497700  1
  O  O8  1  0.54646200  0.74326900  0.83282300  1
  O  O9  1  0.95124400  0.20364800  0.01240400  1
  O  O10  1  0.04875600  0.79635200  0.98759600  1
  O  O11  1  0.45353800  0.25673100  0.16717700  1
  O  O12  1  0.78876600  0.68090100  0.99502300  1
  O  O13  1  0.28653700  0.87726000  0.16039300  1
  O  O14  1  0.58040400  0.82214700  0.14555900  1
  O  O15  1  0.95353800  0.74326900  0.33282300  1
  O  O16  1  0.08040400  0.17785300  0.35444100  1
  O  O17  1  0.45124400  0.79635200  0.48759600  1
  O  O18  1  0.78653700  0.12274000  0.33960700  1
  O  O19  1  0.28876600  0.31909900  0.50497700  1
loop_
_geom_bond_atom_site_label_1
_geom_bond_atom_site_label_2
_geom_bond_distance
_geom_bond_site_symmetry_2
Li0 O0 1.983929 1_555
Li0 O6 2.036066 1_555
Li0 O8 2.144564 1_555
Li0 O5 2.255351 1_555
Li0 O2 2.267443 1_555
Li0 O17 2.446259 1_555
Li1 O7 1.983929 1_556
Li1 O1 2.036066 1_555
Li1 O4 2.144564 1_555
Li1 O3 2.255351 1_455
Li1 O10 2.267443 1_555
Li1 O9 2.446259 1_456
Li2 O12 1.983929 1_554
Li2 O18 2.036066 1_555
Li2 O15 2.144564 1_555
Li2 O16 2.255351 1_655
Li2 O9 2.267443 1_555
Li2 O10 2.446259 1_654
Li3 O19 1.983929 1_555
Li3 O13 2.036066 1_555
Li3 O11 2.144564 1_555
Li3 O14 2.255351 1_555
Li3 O17 2.267443 1_555
Li3 O2 2.446259 1_555
Cr0 O2 1.776289 1_555
Cr0 O17 1.943807 1_545
Cr0 O5 1.993322 1_555
Cr0 O8 2.000386 1_545
Cr0 O1 2.048411 1_545
Cr0 O19 2.086714 1_555
Cr1 O10 1.776289 1_655
Cr1 O9 1.943807 1_566
Cr1 O3 1.993322 1_555
Cr1 O4 2.000386 1_665
Cr1 O6 2.048411 1_565
Cr1 O12 2.086714 1_555
Cr2 O9 1.776289 1_455
Cr2 O10 1.943807 1_544
Cr2 O16 1.993322 1_555
Cr2 O15 2.000386 1_445
Cr2 O13 2.048411 1_545
Cr2 O7 2.086714 1_555
Cr3 O17 1.776289 1_555
Cr3 O2 1.943807 1_565
Cr3 O14 1.993322 1_555
Cr3 O11 2.000386 1_565
Cr3 O18 2.048411 1_565
Cr3 O0 2.086714 1_555
O0 P3 1.546207 1_555
O1 P0 1.572890 1_565
O3 P3 1.537471 1_555
O4 P0 1.567864 1_555
O5 P1 1.537471 1_556
O6 P2 1.572890 1_545
O7 P1 1.546207 1_555
O8 P2 1.567864 1_555
O11 P1 1.567864 1_555
O12 P2 1.546207 1_555
O13 P1 1.572890 1_565
O14 P2 1.537471 1_554
O15 P3 1.567864 1_555
O16 P0 1.537471 1_555
O18 P3 1.572890 1_545
O19 P0 1.546207 1_555
