# generated using pymatgen
data_Li2MnFe(BO3)2
_symmetry_space_group_name_H-M   'P 1'
_cell_length_a   5.21556700
_cell_length_b   5.23788589
_cell_length_c   10.48582480
_cell_angle_alpha   90.87046251
_cell_angle_beta   90.99526803
_cell_angle_gamma   119.74947807
_symmetry_Int_Tables_number   1
_chemical_formula_structural   Li2MnFe(BO3)2
_chemical_formula_sum   'Li4 Mn2 Fe2 B4 O12'
_cell_volume   248.57224991
_cell_formula_units_Z   2
loop_
 _symmetry_equiv_pos_site_id
 _symmetry_equiv_pos_as_xyz
  1  'x, y, z'
loop_
 _atom_site_type_symbol
 _atom_site_label
 _atom_site_symmetry_multiplicity
 _atom_site_fract_x
 _atom_site_fract_y
 _atom_site_fract_z
 _atom_site_occupancy
  Li  Li0  1  0.67736900  0.65205900  0.66653900  1
  Li  Li1  1  0.65243200  0.67515800  0.16943600  1
  Li  Li2  1  0.35260900  0.34181000  0.41686300  1
  Li  Li3  1  0.33600300  0.34519700  0.91728500  1
  Mn  Mn0  1  0.66833100  0.00388400  0.88542800  1
  Mn  Mn1  1  0.00167800  0.32693300  0.63219600  1
  Fe  Fe0  1  0.31559700  0.00175200  0.13273200  1
  Fe  Fe1  1  0.01832600  0.67453000  0.37946000  1
  B  B0  1  0.99588900  0.33662400  0.12815800  1
  B  B1  1  0.66873100  0.00580600  0.37400000  1
  B  B2  1  0.34008500  0.99791100  0.62419600  1
  B  B3  1  0.00172400  0.66520400  0.87766300  1
  O  O0  1  0.92921500  0.25666100  0.41453100  1
  O  O1  1  0.74066600  0.06783300  0.09948200  1
  O  O2  1  0.97625300  0.58175800  0.16570100  1
  O  O3  1  0.41710800  0.03051100  0.34502100  1
  O  O4  1  0.72695500  0.64075400  0.86151100  1
  O  O5  1  0.65351200  0.73641700  0.36074200  1
  O  O6  1  0.36984000  0.27340200  0.60961500  1
  O  O7  1  0.27078500  0.35865400  0.11462500  1
  O  O8  1  0.57862700  0.96815100  0.66705200  1
  O  O9  1  0.03644000  0.42281100  0.84693100  1
  O  O10  1  0.24387500  0.92892700  0.92107300  1
  O  O11  1  0.06854900  0.74785200  0.59356200  1
loop_
_geom_bond_atom_site_label_1
_geom_bond_atom_site_label_2
_geom_bond_distance
_geom_bond_site_symmetry_2
Li0 O6 1.906916 1_555
Li0 O8 1.962767 1_555
Li0 O11 2.012416 1_655
Li0 O4 2.061709 1_555
Li1 O7 1.922816 1_555
Li1 O2 1.978632 1_555
Li1 O1 2.024460 1_565
Li1 O5 2.026150 1_555
Li2 O3 1.963463 1_555
Li2 O5 1.982734 1_555
Li2 O0 2.023913 1_455
Li2 O6 2.066209 1_555
Li3 O9 1.936487 1_555
Li3 O4 1.957690 1_555
Li3 O10 1.987476 1_545
Li3 O7 2.108642 1_556
Mn0 O4 2.083131 1_545
Mn0 O10 2.089329 1_545
Mn0 O9 2.129986 1_655
Mn0 O1 2.261589 1_556
Mn0 O8 2.315211 1_545
Mn1 O6 2.090416 1_555
Mn1 O11 2.101310 1_555
Mn1 O8 2.113637 1_445
Mn1 O9 2.283902 1_555
Mn1 O0 2.300892 1_455
Fe0 O7 2.007044 1_555
Fe0 O2 2.066837 1_445
Fe0 O1 2.103647 1_555
Fe0 O10 2.239438 1_544
Fe0 O3 2.264488 1_555
Fe1 O3 2.032443 1_565
Fe1 O0 2.040276 1_455
Fe1 O5 2.089252 1_455
Fe1 O11 2.260494 1_555
Fe1 O2 2.269874 1_455
B0 O2 1.389468 1_555
B0 O7 1.390122 1_655
B0 O1 1.399231 1_555
B1 O5 1.378091 1_545
B1 O0 1.394354 1_555
B1 O3 1.409694 1_555
B2 O6 1.383825 1_565
B2 O8 1.396164 1_555
B2 O11 1.398185 1_555
B3 O4 1.381146 1_455
B3 O10 1.392822 1_555
B3 O9 1.402255 1_555
