# generated using pymatgen
data_Li2(CoO2)3
_symmetry_space_group_name_H-M   'P 1'
_cell_length_a   4.87762200
_cell_length_b   4.89828297
_cell_length_c   9.96051687
_cell_angle_alpha   85.11454466
_cell_angle_beta   80.58426875
_cell_angle_gamma   60.22133714
_symmetry_Int_Tables_number   1
_chemical_formula_structural   Li2(CoO2)3
_chemical_formula_sum   'Li4 Co6 O12'
_cell_volume   203.76678461
_cell_formula_units_Z   2
loop_
 _symmetry_equiv_pos_site_id
 _symmetry_equiv_pos_as_xyz
  1  'x, y, z'
loop_
 _atom_site_type_symbol
 _atom_site_label
 _atom_site_symmetry_multiplicity
 _atom_site_fract_x
 _atom_site_fract_y
 _atom_site_fract_z
 _atom_site_occupancy
  Li  Li0  1  0.91743100  0.83284700  0.74726200  1
  Li  Li1  1  0.58423000  0.50044200  0.74414700  1
  Li  Li2  1  0.08256900  0.16715300  0.25273800  1
  Li  Li3  1  0.41577000  0.49955800  0.25585300  1
  Co  Co0  1  0.83325600  0.83277900  0.00780900  1
  Co  Co1  1  0.16674400  0.16722100  0.99219100  1
  Co  Co2  1  0.33380400  0.83549300  0.49960400  1
  Co  Co3  1  0.50000000  0.50000000  0.00000000  1
  Co  Co4  1  0.66619600  0.16450700  0.50039600  1
  Co  Co5  1  0.00000000  0.50000000  0.50000000  1
  O  O0  1  0.03774100  0.83236300  0.39770700  1
  O  O1  1  0.19912800  0.81691200  0.89239200  1
  O  O2  1  0.35634200  0.17700000  0.39625700  1
  O  O3  1  0.54959000  0.16340700  0.89573100  1
  O  O4  1  0.70303400  0.49506200  0.39868400  1
  O  O5  1  0.80087200  0.18308800  0.10760800  1
  O  O6  1  0.85618800  0.51753700  0.89639800  1
  O  O7  1  0.96225900  0.16763700  0.60229300  1
  O  O8  1  0.14381200  0.48246300  0.10360200  1
  O  O9  1  0.29696600  0.50493800  0.60131600  1
  O  O10  1  0.45041000  0.83659300  0.10426900  1
  O  O11  1  0.64365800  0.82300000  0.60374300  1
loop_
_geom_bond_atom_site_label_1
_geom_bond_atom_site_label_2
_geom_bond_distance
_geom_bond_site_symmetry_2
Li0 O1 2.123160 1_655
Li0 O11 2.128230 1_555
Li0 O6 2.145595 1_555
Li0 O7 2.161398 1_565
Li0 O3 2.163755 1_565
Li0 O9 2.164210 1_655
Li1 O11 2.117092 1_555
Li1 O9 2.145689 1_555
Li1 O7 2.146611 1_555
Li1 O1 2.168347 1_555
Li1 O3 2.191505 1_555
Li1 O6 2.203761 1_555
Li2 O5 2.123160 1_455
Li2 O2 2.128230 1_555
Li2 O8 2.145595 1_555
Li2 O0 2.161398 1_545
Li2 O10 2.163755 1_545
Li2 O4 2.164210 1_455
Li3 O2 2.117092 1_555
Li3 O4 2.145689 1_555
Li3 O0 2.146611 1_555
Li3 O5 2.168347 1_555
Li3 O10 2.191505 1_555
Li3 O8 2.203761 1_555
Co0 O6 1.925628 1_554
Co0 O1 1.928362 1_654
Co0 O3 1.937814 1_564
Co0 O8 1.939479 1_655
Co0 O10 1.947290 1_555
Co0 O5 1.981759 1_565
Co1 O8 1.925628 1_556
Co1 O5 1.928362 1_456
Co1 O10 1.937814 1_546
Co1 O6 1.939479 1_455
Co1 O3 1.947290 1_555
Co1 O1 1.981759 1_545
Co2 O0 1.902611 1_555
Co2 O9 1.905345 1_555
Co2 O2 1.929331 1_565
Co2 O7 1.930195 1_465
Co2 O4 1.935125 1_555
Co2 O11 1.942713 1_555
Co3 O6 1.907141 1_554
Co3 O8 1.907141 1_555
Co3 O3 1.915406 1_554
Co3 O10 1.915406 1_555
Co3 O5 1.918498 1_555
Co3 O1 1.918498 1_554
Co4 O7 1.902611 1_555
Co4 O4 1.905345 1_555
Co4 O11 1.929331 1_545
Co4 O0 1.930195 1_645
Co4 O9 1.935125 1_555
Co4 O2 1.942713 1_555
Co5 O2 1.884480 1_555
Co5 O11 1.884480 1_455
Co5 O9 1.906395 1_555
Co5 O4 1.906395 1_455
Co5 O7 1.917347 1_455
Co5 O0 1.917347 1_555
