# generated using pymatgen
data_LiBi3(BrO2)2
_symmetry_space_group_name_H-M   'P 1'
_cell_length_a   7.04609351
_cell_length_b   7.04609351
_cell_length_c   11.07732600
_cell_angle_alpha   90.00000000
_cell_angle_beta   90.00000000
_cell_angle_gamma   133.55594789
_symmetry_Int_Tables_number   1
_chemical_formula_structural   LiBi3(BrO2)2
_chemical_formula_sum   'Li2 Bi6 Br4 O8'
_cell_volume   398.55762390
_cell_formula_units_Z   2
loop_
 _symmetry_equiv_pos_site_id
 _symmetry_equiv_pos_as_xyz
  1  'x, y, z'
loop_
 _atom_site_type_symbol
 _atom_site_label
 _atom_site_symmetry_multiplicity
 _atom_site_fract_x
 _atom_site_fract_y
 _atom_site_fract_z
 _atom_site_occupancy
  Li  Li0  1  0.21317000  0.78683000  0.75000000  1
  Li  Li1  1  0.78683000  0.21317000  0.25000000  1
  Bi  Bi0  1  0.84817200  0.15182800  0.75000000  1
  Bi  Bi1  1  0.33855100  0.66144900  0.00571800  1
  Bi  Bi2  1  0.66144900  0.33855100  0.99428200  1
  Bi  Bi3  1  0.15182800  0.84817200  0.25000000  1
  Bi  Bi4  1  0.33855100  0.66144900  0.49428200  1
  Bi  Bi5  1  0.66144900  0.33855100  0.50571800  1
  Br  Br0  1  0.49051900  0.50948100  0.75000000  1
  Br  Br1  1  0.00000000  0.00000000  0.00000000  1
  Br  Br2  1  0.50948100  0.49051900  0.25000000  1
  Br  Br3  1  0.00000000  0.00000000  0.50000000  1
  O  O0  1  0.00348400  0.48934200  0.87648000  1
  O  O1  1  0.51065800  0.99651600  0.87648000  1
  O  O2  1  0.99651600  0.51065800  0.12352000  1
  O  O3  1  0.48934200  0.00348400  0.12352000  1
  O  O4  1  0.99651600  0.51065800  0.37648000  1
  O  O5  1  0.00348400  0.48934200  0.62352000  1
  O  O6  1  0.48934200  0.00348400  0.37648000  1
  O  O7  1  0.51065800  0.99651600  0.62352000  1
loop_
_geom_bond_atom_site_label_1
_geom_bond_atom_site_label_2
_geom_bond_distance
_geom_bond_site_symmetry_2
Li0 O7 2.066793 1_555
Li0 O5 2.066793 1_555
Li0 O1 2.066793 1_555
Li0 O0 2.066793 1_555
Li1 O2 2.066793 1_555
Li1 O4 2.066793 1_555
Li1 O3 2.066793 1_555
Li1 O6 2.066793 1_555
Bi0 O7 2.286828 1_545
Bi0 O1 2.286828 1_545
Bi0 O5 2.286828 1_655
Bi0 O0 2.286828 1_655
Bi0 Br0 3.334214 1_545
Bi0 Br0 3.334214 1_655
Bi0 Br1 3.396369 1_656
Bi0 Br3 3.396369 1_655
Bi1 O3 2.260761 1_565
Bi1 O2 2.260761 1_455
Bi1 O1 2.269008 1_554
Bi1 O0 2.269008 1_554
Bi1 Br1 3.477681 1_665
Bi1 Br1 3.477681 1_555
Bi2 O0 2.260761 1_655
Bi2 O1 2.260761 1_545
Bi2 O2 2.269008 1_556
Bi2 O3 2.269008 1_556
Bi2 Br1 3.477681 1_556
Bi2 Br1 3.477681 1_666
Bi3 O2 2.286828 1_455
Bi3 O4 2.286828 1_455
Bi3 O3 2.286828 1_565
Bi3 O6 2.286828 1_565
Bi3 Br2 3.334214 1_455
Bi3 Br2 3.334214 1_565
Bi3 Br1 3.396369 1_565
Bi3 Br3 3.396369 1_565
Bi4 O6 2.260761 1_565
Bi4 O4 2.260761 1_455
Bi4 O7 2.269008 1_555
Bi4 O5 2.269008 1_555
Bi4 Br3 3.477681 1_555
Bi4 Br3 3.477681 1_665
Bi5 O5 2.260761 1_655
Bi5 O7 2.260761 1_545
Bi5 O4 2.269008 1_555
Bi5 O6 2.269008 1_555
Bi5 Br3 3.477681 1_555
Bi5 Br3 3.477681 1_665
