# generated using pymatgen
data_Li4Ti3Fe3(WO8)2
_symmetry_space_group_name_H-M   'P 1'
_cell_length_a   6.05897587
_cell_length_b   5.98049021
_cell_length_c   9.83431628
_cell_angle_alpha   89.99538859
_cell_angle_beta   91.65966007
_cell_angle_gamma   119.32893351
_symmetry_Int_Tables_number   1
_chemical_formula_structural   Li4Ti3Fe3(WO8)2
_chemical_formula_sum   'Li4 Ti3 Fe3 W2 O16'
_cell_volume   310.50520882
_cell_formula_units_Z   1
loop_
 _symmetry_equiv_pos_site_id
 _symmetry_equiv_pos_as_xyz
  1  'x, y, z'
loop_
 _atom_site_type_symbol
 _atom_site_label
 _atom_site_symmetry_multiplicity
 _atom_site_fract_x
 _atom_site_fract_y
 _atom_site_fract_z
 _atom_site_occupancy
  Li  Li0  1  0.31932600  0.66308300  0.90195600  1
  Li  Li1  1  0.99644100  0.99652700  0.98385400  1
  Li  Li2  1  0.01203900  0.00840800  0.49392600  1
  Li  Li3  1  0.66057200  0.32744800  0.40958700  1
  Ti  Ti0  1  0.17759000  0.84069300  0.21311700  1
  Ti  Ti1  1  0.18815100  0.34460600  0.21750500  1
  Ti  Ti2  1  0.34417700  0.16946100  0.72142800  1
  Fe  Fe0  1  0.65977300  0.82528600  0.20980800  1
  Fe  Fe1  1  0.84029300  0.65894000  0.70880000  1
  Fe  Fe2  1  0.83592800  0.17707000  0.70996300  1
  W  W0  1  0.34278800  0.67243800  0.49027700  1
  W  W1  1  0.67960100  0.33760900  0.98355900  1
  O  O0  1  0.18358900  0.84224100  0.59200200  1
  O  O1  1  0.04739700  0.52358900  0.34053200  1
  O  O2  1  0.29792500  0.64915700  0.10799900  1
  O  O3  1  0.01957600  0.01300300  0.30429300  1
  O  O4  1  0.02147900  0.00829300  0.79968500  1
  O  O5  1  0.18577800  0.34683600  0.59516200  1
  O  O6  1  0.46238800  0.95944600  0.33832500  1
  O  O7  1  0.46216900  0.49754800  0.34169300  1
  O  O8  1  0.32999800  0.16715600  0.10578400  1
  O  O9  1  0.66257900  0.82962400  0.57269400  1
  O  O10  1  0.49885300  0.46121800  0.86021800  1
  O  O11  1  0.49833200  0.03211000  0.85022200  1
  O  O12  1  0.63109800  0.31824700  0.60769800  1
  O  O13  1  0.84905900  0.67442800  0.09691200  1
  O  O14  1  0.95804100  0.47702400  0.85674000  1
  O  O15  1  0.83506000  0.17881500  0.09410000  1
loop_
_geom_bond_atom_site_label_1
_geom_bond_atom_site_label_2
_geom_bond_distance
_geom_bond_site_symmetry_2
Li0 O14 1.945555 1_455
Li0 O11 1.998179 1_565
Li0 O10 2.030157 1_555
Li0 O2 2.033279 1_556
Li1 O4 1.820374 1_665
Li1 O13 2.028870 1_556
Li1 O8 2.098358 1_666
Li1 O15 2.103788 1_566
Li2 O3 1.866662 1_555
Li2 O0 1.987941 1_545
Li2 O5 2.012004 1_555
Li2 O9 2.025724 1_445
Li3 O12 1.959910 1_555
Li3 O7 2.019198 1_555
Li3 O6 2.034516 1_545
Li3 O1 2.174658 1_655
Fe0 O3 2.088429 1_665
Fe0 O13 2.109395 1_555
Fe0 O2 2.128230 1_555
Fe0 O6 2.167761 1_555
Fe0 O7 2.178994 1_555
Fe0 O15 2.182386 1_565
Fe1 O4 2.016365 1_665
Fe1 O12 2.035665 1_555
Fe1 O14 2.123515 1_555
Fe1 O0 2.179903 1_655
Fe1 O9 2.232950 1_555
Fe1 O10 2.382678 1_555
Fe2 O4 2.028643 1_655
Fe2 O12 2.053924 1_555
Fe2 O14 2.118318 1_555
Fe2 O5 2.197453 1_655
Fe2 O9 2.241310 1_545
Fe2 O11 2.294391 1_555
O0 W0 1.994523 1_555
O0 Ti2 2.111803 1_565
O1 Ti1 2.071514 1_555
O1 Ti0 2.092890 1_555
O1 W0 2.109765 1_555
O2 Ti1 1.942655 1_555
O2 Ti0 1.942785 1_555
O3 Ti1 1.941768 1_555
O3 Ti0 1.949084 1_545
O4 Ti2 1.893421 1_555
O5 W0 2.000630 1_555
O5 Ti2 2.125181 1_555
O6 Ti0 1.916953 1_555
O6 W0 2.132647 1_555
O7 Ti1 1.865405 1_555
O7 W0 2.134234 1_555
O8 Ti1 2.005097 1_555
O8 Ti0 2.017106 1_545
O8 W1 2.236697 1_554
O9 W0 1.849250 1_555
O10 W1 1.983216 1_555
O10 Ti2 2.027340 1_555
O11 Ti2 1.958145 1_555
O11 W1 2.053033 1_555
O12 Ti2 1.913628 1_555
O13 Ti0 2.046079 1_655
O13 W1 2.064556 1_554
O14 W1 1.959725 1_555
O15 W1 1.946197 1_554
O15 Ti1 2.191940 1_655
