# generated using pymatgen
data_LiBH2C4O9
_symmetry_space_group_name_H-M   'P 1'
_cell_length_a   5.65596400
_cell_length_b   16.07750800
_cell_length_c   16.26743200
_cell_angle_alpha   90.00000000
_cell_angle_beta   90.00000000
_cell_angle_gamma   90.00000000
_symmetry_Int_Tables_number   1
_chemical_formula_structural   LiBH2C4O9
_chemical_formula_sum   'Li8 B8 H16 C32 O72'
_cell_volume   1479.25951305
_cell_formula_units_Z   8
loop_
 _symmetry_equiv_pos_site_id
 _symmetry_equiv_pos_as_xyz
  1  'x, y, z'
loop_
 _atom_site_type_symbol
 _atom_site_label
 _atom_site_symmetry_multiplicity
 _atom_site_fract_x
 _atom_site_fract_y
 _atom_site_fract_z
 _atom_site_occupancy
  Li  Li0  1  0.62318400  0.24823900  0.15442800  1
  Li  Li1  1  0.37681600  0.25176100  0.65442800  1
  Li  Li2  1  0.87681600  0.74823900  0.84557200  1
  Li  Li3  1  0.12318400  0.75176100  0.34557200  1
  Li  Li4  1  0.37681600  0.75176100  0.84557200  1
  Li  Li5  1  0.62318400  0.74823900  0.34557200  1
  Li  Li6  1  0.12318400  0.25176100  0.15442800  1
  Li  Li7  1  0.87681600  0.24823900  0.65442800  1
  B  B0  1  0.71915700  0.44250600  0.91021600  1
  B  B1  1  0.28084300  0.05749400  0.41021600  1
  B  B2  1  0.78084300  0.94250600  0.08978400  1
  B  B3  1  0.21915700  0.55749400  0.58978400  1
  B  B4  1  0.28084300  0.55749400  0.08978400  1
  B  B5  1  0.71915700  0.94250600  0.58978400  1
  B  B6  1  0.21915700  0.05749400  0.91021600  1
  B  B7  1  0.78084300  0.44250600  0.41021600  1
  H  H0  1  0.36709300  0.22841900  0.29075100  1
  H  H1  1  0.63290700  0.27158100  0.79075100  1
  H  H2  1  0.13290700  0.72841900  0.70924900  1
  H  H3  1  0.86709300  0.77158100  0.20924900  1
  H  H4  1  0.63290700  0.77158100  0.70924900  1
  H  H5  1  0.36709300  0.72841900  0.20924900  1
  H  H6  1  0.86709300  0.27158100  0.29075100  1
  H  H7  1  0.13290700  0.22841900  0.79075100  1
  H  H8  1  0.33645100  0.14579600  0.23805700  1
  H  H9  1  0.66354900  0.35420400  0.73805700  1
  H  H10  1  0.16354900  0.64579600  0.76194300  1
  H  H11  1  0.83645100  0.85420400  0.26194300  1
  H  H12  1  0.66354900  0.85420400  0.76194300  1
  H  H13  1  0.33645100  0.64579600  0.26194300  1
  H  H14  1  0.83645100  0.35420400  0.23805700  1
  H  H15  1  0.16354900  0.14579600  0.73805700  1
  C  C0  1  0.85307700  0.34565000  0.00394200  1
  C  C1  1  0.14692300  0.15435000  0.50394200  1
  C  C2  1  0.64692300  0.84565000  0.99605800  1
  C  C3  1  0.35307700  0.65435000  0.49605800  1
  C  C4  1  0.14692300  0.65435000  0.99605800  1
  C  C5  1  0.85307700  0.84565000  0.49605800  1
  C  C6  1  0.35307700  0.15435000  0.00394200  1
  C  C7  1  0.64692300  0.34565000  0.50394200  1
  C  C8  1  0.98039000  0.33275200  0.92081300  1
  C  C9  1  0.01961000  0.16724800  0.42081300  1
  C  C10  1  0.51961000  0.83275200  0.07918700  1
  C  C11  1  0.48039000  0.66724800  0.57918700  1
  C  C12  1  0.01961000  0.66724800  0.07918700  1
  C  C13  1  0.98039000  0.83275200  0.57918700  1
  C  C14  1  0.48039000  0.16724800  0.92081300  1
  C  C15  1  0.51961000  0.33275200  0.42081300  1
  C  C16  1  0.62463100  0.57412100  0.86687900  1
  C  C17  1  0.37536900  0.92587900  0.36687900  1
  C  C18  1  0.87536900  0.07412100  0.13312100  1
  C  C19  1  0.12463100  0.42587900  0.63312100  1
  C  C20  1  0.37536900  0.42587900  0.13312100  1
  C  C21  1  0.62463100  0.07412100  0.63312100  1
  C  C22  1  0.12463100  0.92587900  0.86687900  1
  C  C23  1  0.87536900  0.57412100  0.36687900  1
  C  C24  1  0.43126500  0.51310300  0.83806200  1
  C  C25  1  0.56873500  0.98689700  0.33806200  1
  C  C26  1  0.06873500  0.01310300  0.16193800  1
  C  C27  1  0.93126500  0.48689700  0.66193800  1
  C  C28  1  0.56873500  0.48689700  0.16193800  1
  C  C29  1  0.43126500  0.01310300  0.66193800  1
  C  C30  1  0.93126500  0.98689700  0.83806200  1
  C  C31  1  0.06873500  0.51310300  0.33806200  1
  O  O0  1  0.48885600  0.43804400  0.86680900  1
  O  O1  1  0.51114400  0.06195600  0.36680900  1
  O  O2  1  0.01114400  0.93804400  0.13319100  1
  O  O3  1  0.98885600  0.56195600  0.63319100  1
  O  O4  1  0.51114400  0.56195600  0.13319100  1
  O  O5  1  0.48885600  0.93804400  0.63319100  1
  O  O6  1  0.98885600  0.06195600  0.86680900  1
  O  O7  1  0.01114400  0.43804400  0.36680900  1
  O  O8  1  0.87787600  0.30397500  0.06599700  1
  O  O9  1  0.12212400  0.19602500  0.56599700  1
  O  O10  1  0.62212400  0.80397500  0.93400300  1
  O  O11  1  0.37787600  0.69602500  0.43400300  1
  O  O12  1  0.12212400  0.69602500  0.93400300  1
  O  O13  1  0.87787600  0.80397500  0.43400300  1
  O  O14  1  0.37787600  0.19602500  0.06599700  1
  O  O15  1  0.62212400  0.30397500  0.56599700  1
  O  O16  1  0.62976700  0.64871400  0.85242300  1
  O  O17  1  0.37023300  0.85128600  0.35242300  1
  O  O18  1  0.87023300  0.14871400  0.14757700  1
  O  O19  1  0.12976700  0.35128600  0.64757700  1
  O  O20  1  0.37023300  0.35128600  0.14757700  1
  O  O21  1  0.62976700  0.14871400  0.64757700  1
  O  O22  1  0.12976700  0.85128600  0.85242300  1
  O  O23  1  0.87023300  0.64871400  0.35242300  1
  O  O24  1  0.70492500  0.40930800  0.99566900  1
  O  O25  1  0.29507500  0.09069200  0.49566900  1
  O  O26  1  0.79507500  0.90930800  0.00433100  1
  O  O27  1  0.20492500  0.59069200  0.50433100  1
  O  O28  1  0.29507500  0.59069200  0.00433100  1
  O  O29  1  0.70492500  0.90930800  0.50433100  1
  O  O30  1  0.20492500  0.09069200  0.99566900  1
  O  O31  1  0.79507500  0.40930800  0.49566900  1
  O  O32  1  0.12056500  0.27784600  0.90389600  1
  O  O33  1  0.87943500  0.22215400  0.40389600  1
  O  O34  1  0.37943500  0.77784600  0.09610400  1
  O  O35  1  0.62056500  0.72215400  0.59610400  1
  O  O36  1  0.87943500  0.72215400  0.09610400  1
  O  O37  1  0.12056500  0.77784600  0.59610400  1
  O  O38  1  0.62056500  0.22215400  0.90389600  1
  O  O39  1  0.37943500  0.27784600  0.40389600  1
  O  O40  1  0.25883700  0.53047900  0.79678700  1
  O  O41  1  0.74116300  0.96952100  0.29678700  1
  O  O42  1  0.24116300  0.03047900  0.20321300  1
  O  O43  1  0.75883700  0.46952100  0.70321300  1
  O  O44  1  0.74116300  0.46952100  0.20321300  1
  O  O45  1  0.25883700  0.03047900  0.70321300  1
  O  O46  1  0.75883700  0.96952100  0.79678700  1
  O  O47  1  0.24116300  0.53047900  0.29678700  1
  O  O48  1  0.78487200  0.53222300  0.90947800  1
  O  O49  1  0.21512800  0.96777700  0.40947800  1
  O  O50  1  0.71512800  0.03222300  0.09052200  1
  O  O51  1  0.28487200  0.46777700  0.59052200  1
  O  O52  1  0.21512800  0.46777700  0.09052200  1
  O  O53  1  0.78487200  0.03222300  0.59052200  1
  O  O54  1  0.28487200  0.96777700  0.90947800  1
  O  O55  1  0.71512800  0.53222300  0.40947800  1
  O  O56  1  0.90050900  0.39042000  0.86927900  1
  O  O57  1  0.09949100  0.10958000  0.36927900  1
  O  O58  1  0.59949100  0.89042000  0.13072100  1
  O  O59  1  0.40050900  0.60958000  0.63072100  1
  O  O60  1  0.09949100  0.60958000  0.13072100  1
  O  O61  1  0.90050900  0.89042000  0.63072100  1
  O  O62  1  0.40050900  0.10958000  0.86927900  1
  O  O63  1  0.59949100  0.39042000  0.36927900  1
  O  O64  1  0.37271500  0.20553600  0.23474900  1
  O  O65  1  0.62728500  0.29446400  0.73474900  1
  O  O66  1  0.12728500  0.70553600  0.76525100  1
  O  O67  1  0.87271500  0.79446400  0.26525100  1
  O  O68  1  0.62728500  0.79446400  0.76525100  1
  O  O69  1  0.37271500  0.70553600  0.26525100  1
  O  O70  1  0.87271500  0.29446400  0.23474900  1
  O  O71  1  0.12728500  0.20553600  0.73474900  1
loop_
_geom_bond_atom_site_label_1
_geom_bond_atom_site_label_2
_geom_bond_distance
_geom_bond_site_symmetry_2
Li0 O64 2.045846 1_555
Li0 O70 2.061903 1_555
Li0 O18 2.127260 1_555
Li0 O14 2.167752 1_555
Li0 O20 2.191815 1_555
Li0 O8 2.224303 1_555
Li1 O65 2.045846 1_555
Li1 O71 2.061903 1_555
Li1 O19 2.127260 1_555
Li1 O15 2.167752 1_555
Li1 O21 2.191815 1_555
Li1 O9 2.224303 1_555
Li2 O66 2.045846 1_655
Li2 O68 2.061903 1_555
Li2 O16 2.127260 1_555
Li2 O12 2.167752 1_655
Li2 O22 2.191815 1_655
Li2 O10 2.224303 1_555
Li3 O67 2.045846 1_455
Li3 O69 2.061903 1_555
Li3 O17 2.127260 1_555
Li3 O13 2.167752 1_455
Li3 O23 2.191815 1_455
Li3 O11 2.224303 1_555
Li4 O68 2.045846 1_555
Li4 O66 2.061903 1_555
Li4 O22 2.127260 1_555
Li4 O10 2.167752 1_555
Li4 O16 2.191815 1_555
Li4 O12 2.224303 1_555
Li5 O69 2.045846 1_555
Li5 O67 2.061903 1_555
Li5 O23 2.127260 1_555
Li5 O11 2.167752 1_555
Li5 O17 2.191815 1_555
Li5 O13 2.224303 1_555
Li6 O70 2.045846 1_455
Li6 O64 2.061903 1_555
Li6 O20 2.127260 1_555
Li6 O8 2.167752 1_455
Li6 O18 2.191815 1_455
Li6 O14 2.224303 1_555
Li7 O71 2.045846 1_655
Li7 O65 2.061903 1_555
Li7 O21 2.127260 1_555
Li7 O9 2.167752 1_655
Li7 O19 2.191815 1_655
Li7 O15 2.224303 1_555
B0 O56 1.482174 1_555
B0 O0 1.483392 1_555
B0 O48 1.489592 1_555
B0 O24 1.491221 1_555
B1 O57 1.482174 1_555
B1 O1 1.483392 1_555
B1 O49 1.489592 1_545
B1 O25 1.491221 1_555
B2 O58 1.482174 1_555
B2 O2 1.483392 1_655
B2 O50 1.489592 1_565
B2 O26 1.491221 1_555
B3 O59 1.482174 1_555
B3 O3 1.483392 1_455
B3 O51 1.489592 1_555
B3 O27 1.491221 1_555
B4 O60 1.482174 1_555
B4 O4 1.483392 1_555
B4 O52 1.489592 1_555
B4 O28 1.491221 1_555
B5 O61 1.482174 1_555
B5 O5 1.483392 1_555
B5 O53 1.489592 1_565
B5 O29 1.491221 1_555
B6 O62 1.482174 1_555
B6 O6 1.483392 1_455
B6 O54 1.489592 1_545
B6 O30 1.491221 1_555
B7 O63 1.482174 1_555
B7 O7 1.483392 1_655
B7 O55 1.489592 1_555
B7 O31 1.491221 1_555
H0 O64 0.983005 1_555
H1 O65 0.983005 1_555
H2 O66 0.983005 1_555
H3 O67 0.983005 1_555
H4 O68 0.983005 1_555
H5 O69 0.983005 1_555
H6 O70 0.983005 1_555
H7 O71 0.983005 1_555
H8 O64 0.983600 1_555
H9 O65 0.983600 1_555
H10 O66 0.983600 1_555
H11 O67 0.983600 1_555
H12 O68 0.983600 1_555
H13 O69 0.983600 1_555
H14 O70 0.983600 1_555
H15 O71 0.983600 1_555
C0 O8 1.219694 1_555
C0 O24 1.329562 1_554
C1 O9 1.219694 1_555
C1 O25 1.329562 1_555
C2 O10 1.219694 1_555
C2 O26 1.329562 1_556
C3 O11 1.219694 1_555
C3 O27 1.329562 1_555
C4 O12 1.219694 1_555
C4 O28 1.329562 1_556
C5 O13 1.219694 1_555
C5 O29 1.329562 1_555
C6 O14 1.219694 1_555
C6 O30 1.329562 1_554
C7 O15 1.219694 1_555
C7 O31 1.329562 1_555
C8 O32 1.218013 1_655
C8 O56 1.329112 1_555
C9 O33 1.218013 1_455
C9 O57 1.329112 1_555
C10 O34 1.218013 1_555
C10 O58 1.329112 1_555
C11 O35 1.218013 1_555
C11 O59 1.329112 1_555
C12 O36 1.218013 1_455
C12 O60 1.329112 1_555
C13 O37 1.218013 1_655
C13 O61 1.329112 1_555
C14 O38 1.218013 1_555
C14 O62 1.329112 1_555
C15 O39 1.218013 1_555
C15 O63 1.329112 1_555
C16 O16 1.222453 1_555
C16 O48 1.324909 1_555
C17 O17 1.222453 1_555
C17 O49 1.324909 1_555
C18 O18 1.222453 1_555
C18 O50 1.324909 1_555
C19 O19 1.222453 1_555
C19 O51 1.324909 1_555
C20 O20 1.222453 1_555
C20 O52 1.324909 1_555
C21 O21 1.222453 1_555
C21 O53 1.324909 1_555
C22 O22 1.222453 1_555
C22 O54 1.324909 1_555
C23 O23 1.222453 1_555
C23 O55 1.324909 1_555
C24 O40 1.216544 1_555
C24 O0 1.334565 1_555
C25 O41 1.216544 1_555
C25 O1 1.334565 1_565
C26 O42 1.216544 1_555
C26 O2 1.334565 1_545
C27 O43 1.216544 1_555
C27 O3 1.334565 1_555
C28 O44 1.216544 1_555
C28 O4 1.334565 1_555
C29 O45 1.216544 1_555
C29 O5 1.334565 1_545
C30 O46 1.216544 1_555
C30 O6 1.334565 1_565
C31 O47 1.216544 1_555
C31 O7 1.334565 1_555
