# generated using pymatgen
data_VOF
_symmetry_space_group_name_H-M   'P 1'
_cell_length_a   3.44077400
_cell_length_b   3.44079775
_cell_length_c   6.33959658
_cell_angle_alpha   74.25396436
_cell_angle_beta   90.00009302
_cell_angle_gamma   60.00044101
_symmetry_Int_Tables_number   1
_chemical_formula_structural   VOF
_chemical_formula_sum   'V2 O2 F2'
_cell_volume   61.72579060
_cell_formula_units_Z   2
loop_
 _symmetry_equiv_pos_site_id
 _symmetry_equiv_pos_as_xyz
  1  'x, y, z'
loop_
 _atom_site_type_symbol
 _atom_site_label
 _atom_site_symmetry_multiplicity
 _atom_site_fract_x
 _atom_site_fract_y
 _atom_site_fract_z
 _atom_site_occupancy
  V  V0  1  0.76053400  0.47893300  0.28160400  1
  V  V1  1  0.23946600  0.52106500  0.71839700  1
  O  O0  1  0.87509200  0.24981900  0.62525100  1
  O  O1  1  0.12490800  0.75018200  0.37474900  1
  F  F0  1  0.62666000  0.74668000  0.87994400  1
  F  F1  1  0.37334000  0.25332100  0.12005500  1
loop_
_geom_bond_atom_site_label_1
_geom_bond_atom_site_label_2
_geom_bond_distance
_geom_bond_site_symmetry_2
O0 V1 2.064157 1_645
O0 V1 2.064170 1_655
O0 V1 2.064194 1_555
O0 V0 2.068861 1_555
O1 V0 2.064149 1_465
O1 V0 2.064176 1_455
O1 V0 2.064192 1_555
O1 V1 2.068867 1_555
F0 V1 2.211805 1_655
F0 V1 2.211807 1_555
F0 V1 2.211905 1_565
F0 V0 2.418117 1_556
F1 V0 2.211806 1_555
F1 V0 2.211812 1_455
F1 V0 2.211915 1_545
F1 V1 2.418105 1_554
