# generated using pymatgen
data_Li3Cu4SnO8
_symmetry_space_group_name_H-M   'P 1'
_cell_length_a   6.24745227
_cell_length_b   6.24745227
_cell_length_c   5.82704495
_cell_angle_alpha   62.74899319
_cell_angle_beta   62.74899319
_cell_angle_gamma   55.47789718
_symmetry_Int_Tables_number   1
_chemical_formula_structural   Li3Cu4SnO8
_chemical_formula_sum   'Li3 Cu4 Sn1 O8'
_cell_volume   160.35911546
_cell_formula_units_Z   1
loop_
 _symmetry_equiv_pos_site_id
 _symmetry_equiv_pos_as_xyz
  1  'x, y, z'
loop_
 _atom_site_type_symbol
 _atom_site_label
 _atom_site_symmetry_multiplicity
 _atom_site_fract_x
 _atom_site_fract_y
 _atom_site_fract_z
 _atom_site_occupancy
  Li  Li0  1  0.00000000  0.50000000  0.00000000  1
  Li  Li1  1  0.00000000  0.00000000  0.50000000  1
  Li  Li2  1  0.50000000  0.00000000  0.00000000  1
  Cu  Cu0  1  0.50000000  0.50000000  0.50000000  1
  Cu  Cu1  1  0.00000000  0.00000000  0.00000000  1
  Cu  Cu2  1  0.00000000  0.50000000  0.50000000  1
  Cu  Cu3  1  0.50000000  0.00000000  0.50000000  1
  Sn  Sn0  1  0.50000000  0.50000000  0.00000000  1
  O  O0  1  0.27417600  0.27417600  0.25617300  1
  O  O1  1  0.24122000  0.70860000  0.75935400  1
  O  O2  1  0.70860000  0.24122000  0.75935400  1
  O  O3  1  0.79558100  0.79558100  0.24151400  1
  O  O4  1  0.20441900  0.20441900  0.75848600  1
  O  O5  1  0.29140000  0.75878000  0.24064600  1
  O  O6  1  0.75878000  0.29140000  0.24064600  1
  O  O7  1  0.72582400  0.72582400  0.74382700  1
loop_
_geom_bond_atom_site_label_1
_geom_bond_atom_site_label_2
_geom_bond_distance
_geom_bond_site_symmetry_2
Li0 O6 2.133790 1_455
Li0 O1 2.133790 1_554
Li0 O7 2.196942 1_454
Li0 O0 2.196942 1_555
Li0 O3 2.254442 1_455
Li0 O4 2.254442 1_554
Li1 O5 2.079841 1_545
Li1 O2 2.079841 1_455
Li1 O6 2.079841 1_455
Li1 O1 2.079841 1_545
Li1 O0 2.599012 1_555
Li1 O7 2.599012 1_445
Li2 O2 2.133790 1_554
Li2 O5 2.133790 1_545
Li2 O7 2.196942 1_544
Li2 O0 2.196942 1_555
Li2 O4 2.254442 1_554
Li2 O3 2.254442 1_545
Cu0 O2 1.942705 1_555
Cu0 O5 1.942705 1_555
Cu0 O6 1.942705 1_555
Cu0 O1 1.942705 1_555
Cu1 O3 1.949180 1_445
Cu1 O4 1.949180 1_554
Cu1 O6 2.201042 1_455
Cu1 O5 2.201042 1_545
Cu1 O2 2.201042 1_454
Cu1 O1 2.201042 1_544
Cu2 O0 1.952170 1_555
Cu2 O7 1.952170 1_455
Cu2 O3 1.962411 1_455
Cu2 O4 1.962411 1_555
Cu2 O2 2.605933 1_455
Cu2 O5 2.605933 1_555
Cu3 O7 1.952170 1_545
Cu3 O0 1.952170 1_555
Cu3 O4 1.962411 1_555
Cu3 O3 1.962411 1_545
Cu3 O6 2.605933 1_555
Cu3 O1 2.605933 1_545
O0 Sn0 2.146606 1_555
O1 Sn0 2.071943 1_556
O2 Sn0 2.071943 1_556
O5 Sn0 2.071943 1_555
O6 Sn0 2.071943 1_555
O7 Sn0 2.146606 1_556
