# generated using pymatgen
data_Li3Fe2(PO4)3
_symmetry_space_group_name_H-M   'P 1'
_cell_length_a   8.75202000
_cell_length_b   8.76283200
_cell_length_c   12.16237000
_cell_angle_alpha   90.00000000
_cell_angle_beta   90.00000000
_cell_angle_gamma   90.00000000
_symmetry_Int_Tables_number   1
_chemical_formula_structural   Li3Fe2(PO4)3
_chemical_formula_sum   'Li12 Fe8 P12 O48'
_cell_volume   932.76232917
_cell_formula_units_Z   4
loop_
 _symmetry_equiv_pos_site_id
 _symmetry_equiv_pos_as_xyz
  1  'x, y, z'
loop_
 _atom_site_type_symbol
 _atom_site_label
 _atom_site_symmetry_multiplicity
 _atom_site_fract_x
 _atom_site_fract_y
 _atom_site_fract_z
 _atom_site_occupancy
  Li  Li0  1  0.53263600  0.98142700  0.81940100  1
  Li  Li1  1  0.53263600  0.01857300  0.18059900  1
  Li  Li2  1  0.46736400  0.51857300  0.31940100  1
  Li  Li3  1  0.46736400  0.48142700  0.68059900  1
  Li  Li4  1  0.19625800  0.32349300  0.78651300  1
  Li  Li5  1  0.19625800  0.67650700  0.21348700  1
  Li  Li6  1  0.05227800  0.01477200  0.31593700  1
  Li  Li7  1  0.05227800  0.98522800  0.68406300  1
  Li  Li8  1  0.94772200  0.48522800  0.81593700  1
  Li  Li9  1  0.94772200  0.51477200  0.18406300  1
  Li  Li10  1  0.80374200  0.82349300  0.71348700  1
  Li  Li11  1  0.80374200  0.17650700  0.28651300  1
  Fe  Fe0  1  0.49443800  0.79364700  0.61159900  1
  Fe  Fe1  1  0.49443800  0.20635300  0.38840100  1
  Fe  Fe2  1  0.50556200  0.29364700  0.88840100  1
  Fe  Fe3  1  0.50556200  0.70635300  0.11159900  1
  Fe  Fe4  1  0.01014000  0.79550400  0.89345000  1
  Fe  Fe5  1  0.01014000  0.20449600  0.10655000  1
  Fe  Fe6  1  0.98986000  0.29550400  0.60655000  1
  Fe  Fe7  1  0.98986000  0.70449600  0.39345000  1
  P  P0  1  0.70198400  0.50000000  0.50000000  1
  P  P1  1  0.64442700  0.64780900  0.85251400  1
  P  P2  1  0.64442700  0.35219100  0.14748600  1
  P  P3  1  0.35557300  0.14780900  0.64748600  1
  P  P4  1  0.35557300  0.85219100  0.35251400  1
  P  P5  1  0.29801600  0.00000000  0.00000000  1
  P  P6  1  0.20267100  0.50000000  0.00000000  1
  P  P7  1  0.14451700  0.64556700  0.64891500  1
  P  P8  1  0.14451700  0.35443300  0.35108500  1
  P  P9  1  0.85548300  0.85443300  0.14891500  1
  P  P10  1  0.85548300  0.14556700  0.85108500  1
  P  P11  1  0.79732900  0.00000000  0.50000000  1
  O  O0  1  0.70193100  0.10633600  0.42553100  1
  O  O1  1  0.70193100  0.89366400  0.57446900  1
  O  O2  1  0.67978800  0.15430800  0.83623500  1
  O  O3  1  0.67978800  0.84569200  0.16376500  1
  O  O4  1  0.59844200  0.31950000  0.02939900  1
  O  O5  1  0.59844200  0.68050000  0.97060100  1
  O  O6  1  0.59741000  0.40715200  0.42178600  1
  O  O7  1  0.59741000  0.59284800  0.57821400  1
  O  O8  1  0.58654300  0.48835200  0.81743400  1
  O  O9  1  0.58654300  0.51164800  0.18256600  1
  O  O10  1  0.58236400  0.77464600  0.77352000  1
  O  O11  1  0.58236400  0.22535400  0.22648000  1
  O  O12  1  0.41763600  0.27464600  0.72648000  1
  O  O13  1  0.41763600  0.72535400  0.27352000  1
  O  O14  1  0.41345700  0.01164800  0.31743400  1
  O  O15  1  0.41345700  0.98835200  0.68256600  1
  O  O16  1  0.40259000  0.09284800  0.92178600  1
  O  O17  1  0.40259000  0.90715200  0.07821400  1
  O  O18  1  0.40155800  0.18050000  0.52939900  1
  O  O19  1  0.40155800  0.81950000  0.47060100  1
  O  O20  1  0.32021200  0.34569200  0.33623500  1
  O  O21  1  0.32021200  0.65430800  0.66376500  1
  O  O22  1  0.29806900  0.39366400  0.92553100  1
  O  O23  1  0.29806900  0.60633600  0.07446900  1
  O  O24  1  0.19979500  0.10455100  0.07284700  1
  O  O25  1  0.19979500  0.89544900  0.92715300  1
  O  O26  1  0.17939300  0.15729500  0.66390400  1
  O  O27  1  0.17939300  0.84270500  0.33609600  1
  O  O28  1  0.09768900  0.67182900  0.52933800  1
  O  O29  1  0.09768900  0.32817100  0.47066200  1
  O  O30  1  0.09510100  0.58898900  0.92102500  1
  O  O31  1  0.09510100  0.41101100  0.07897500  1
  O  O32  1  0.09342800  0.51746800  0.31245700  1
  O  O33  1  0.09342800  0.48253200  0.68754300  1
  O  O34  1  0.06254800  0.76887800  0.72043200  1
  O  O35  1  0.06254800  0.23112200  0.27956800  1
  O  O36  1  0.93745200  0.26887800  0.77956800  1
  O  O37  1  0.93745200  0.73112200  0.22043200  1
  O  O38  1  0.90657200  0.98253200  0.81245700  1
  O  O39  1  0.90657200  0.01746800  0.18754300  1
  O  O40  1  0.90489900  0.08898900  0.57897500  1
  O  O41  1  0.90489900  0.91101100  0.42102500  1
  O  O42  1  0.90231100  0.17182900  0.97066200  1
  O  O43  1  0.90231100  0.82817100  0.02933800  1
  O  O44  1  0.82060700  0.34270500  0.16390400  1
  O  O45  1  0.82060700  0.65729500  0.83609600  1
  O  O46  1  0.80020500  0.39544900  0.57284700  1
  O  O47  1  0.80020500  0.60455100  0.42715300  1
loop_
_geom_bond_atom_site_label_1
_geom_bond_atom_site_label_2
_geom_bond_distance
_geom_bond_site_symmetry_2
Li0 O10 1.945277 1_555
Li0 O16 1.949189 1_565
Li0 O15 1.965029 1_555
Li0 O2 1.998887 1_565
Li1 O11 1.945277 1_555
Li1 O17 1.949189 1_545
Li1 O14 1.965029 1_555
Li1 O3 1.998887 1_545
Li2 O13 1.945277 1_555
Li2 O6 1.949189 1_555
Li2 O9 1.965029 1_555
Li2 O20 1.998887 1_555
Li3 O12 1.945277 1_555
Li3 O7 1.949189 1_555
Li3 O8 1.965029 1_555
Li3 O21 1.998887 1_555
Li4 O22 2.007694 1_555
Li4 O33 2.049652 1_555
Li4 O26 2.089620 1_555
Li4 O12 2.114297 1_555
Li4 O36 2.316623 1_455
Li5 O23 2.007694 1_555
Li5 O32 2.049652 1_555
Li5 O27 2.089620 1_555
Li5 O13 2.114297 1_555
Li5 O37 2.316623 1_455
Li6 O27 1.889773 1_545
Li6 O35 1.948831 1_555
Li6 O39 2.016251 1_455
Li6 O41 2.030777 1_445
Li7 O26 1.889773 1_565
Li7 O34 1.948831 1_555
Li7 O38 2.016251 1_455
Li7 O40 2.030777 1_465
Li8 O45 1.889773 1_555
Li8 O36 1.948831 1_555
Li8 O33 2.016251 1_655
Li8 O30 2.030777 1_655
Li9 O44 1.889773 1_555
Li9 O37 1.948831 1_555
Li9 O32 2.016251 1_655
Li9 O31 2.030777 1_655
Li10 O1 2.007694 1_555
Li10 O38 2.049652 1_555
Li10 O45 2.089620 1_555
Li10 O10 2.114297 1_555
Li10 O34 2.316623 1_655
Li11 O0 2.007694 1_555
Li11 O39 2.049652 1_555
Li11 O44 2.089620 1_555
Li11 O11 2.114297 1_555
Li11 O35 2.316623 1_655
Fe0 O19 1.911253 1_555
Fe0 O7 2.018200 1_555
Fe0 O15 2.039195 1_555
Fe0 O21 2.053898 1_555
Fe0 O1 2.066364 1_555
Fe0 O10 2.120899 1_555
Fe1 O18 1.911253 1_555
Fe1 O6 2.018200 1_555
Fe1 O14 2.039195 1_555
Fe1 O20 2.053898 1_555
Fe1 O0 2.066364 1_555
Fe1 O11 2.120899 1_555
Fe2 O4 1.911253 1_556
Fe2 O16 2.018200 1_555
Fe2 O8 2.039195 1_555
Fe2 O2 2.053898 1_555
Fe2 O22 2.066364 1_555
Fe2 O12 2.120899 1_555
Fe3 O5 1.911253 1_554
Fe3 O17 2.018200 1_555
Fe3 O9 2.039195 1_555
Fe3 O3 2.053898 1_555
Fe3 O23 2.066364 1_555
Fe3 O13 2.120899 1_555
Fe4 O25 1.920990 1_555
Fe4 O43 1.924587 1_456
Fe4 O30 1.985005 1_555
Fe4 O38 2.116116 1_455
Fe4 O34 2.166319 1_555
Fe4 O45 2.169093 1_455
Fe5 O24 1.920990 1_555
Fe5 O42 1.924587 1_454
Fe5 O31 1.985005 1_555
Fe5 O39 2.116116 1_455
Fe5 O35 2.166319 1_555
Fe5 O44 2.169093 1_455
Fe6 O46 1.920990 1_555
Fe6 O29 1.924587 1_655
Fe6 O40 1.985005 1_555
Fe6 O33 2.116116 1_655
Fe6 O36 2.166319 1_555
Fe6 O26 2.169093 1_655
Fe7 O47 1.920990 1_555
Fe7 O28 1.924587 1_655
Fe7 O41 1.985005 1_555
Fe7 O32 2.116116 1_655
Fe7 O37 2.166319 1_555
Fe7 O27 2.169093 1_655
O0 P11 1.544567 1_555
O1 P11 1.544567 1_565
O2 P10 1.550150 1_555
O3 P9 1.550150 1_555
O4 P2 1.518802 1_555
O5 P1 1.518802 1_555
O6 P0 1.550654 1_555
O7 P0 1.550654 1_555
O8 P1 1.546323 1_555
O9 P2 1.546323 1_555
O10 P1 1.566338 1_555
O11 P2 1.566338 1_555
O12 P3 1.566338 1_555
O13 P4 1.566338 1_555
O14 P4 1.546323 1_545
O15 P3 1.546323 1_565
O16 P5 1.550654 1_556
O17 P5 1.550654 1_565
O18 P3 1.518802 1_555
O19 P4 1.518802 1_555
O20 P8 1.550150 1_555
O21 P7 1.550150 1_555
O22 P6 1.544567 1_556
O23 P6 1.544567 1_555
O24 P5 1.537304 1_555
O25 P5 1.537304 1_566
O26 P3 1.557027 1_555
O27 P4 1.557027 1_555
O28 P7 1.528408 1_555
O29 P8 1.528408 1_555
O30 P6 1.554678 1_556
O31 P6 1.554678 1_555
O32 P8 1.568975 1_555
O33 P7 1.568975 1_555
O34 P7 1.561676 1_555
O35 P8 1.561676 1_555
O36 P10 1.561676 1_555
O37 P9 1.561676 1_555
O38 P10 1.568975 1_565
O39 P9 1.568975 1_545
O40 P11 1.554678 1_555
O41 P11 1.554678 1_565
O42 P10 1.528408 1_555
O43 P9 1.528408 1_555
O44 P2 1.557027 1_555
O45 P1 1.557027 1_555
O46 P0 1.537304 1_555
O47 P0 1.537304 1_555
