# generated using pymatgen
data_Li3Ta5Cu2O15
_symmetry_space_group_name_H-M   'P 1'
_cell_length_a   23.62362675
_cell_length_b   23.62362675
_cell_length_c   23.62362643
_cell_angle_alpha   12.69822128
_cell_angle_beta   12.69822128
_cell_angle_gamma   12.69822138
_symmetry_Int_Tables_number   1
_chemical_formula_structural   Li3Ta5Cu2O15
_chemical_formula_sum   'Li6 Ta10 Cu4 O30'
_cell_volume   553.93978706
_cell_formula_units_Z   2
loop_
 _symmetry_equiv_pos_site_id
 _symmetry_equiv_pos_as_xyz
  1  'x, y, z'
loop_
 _atom_site_type_symbol
 _atom_site_label
 _atom_site_symmetry_multiplicity
 _atom_site_fract_x
 _atom_site_fract_y
 _atom_site_fract_z
 _atom_site_occupancy
  Li  Li0  1  0.85729400  0.85729400  0.85729400  1
  Li  Li1  1  0.65823800  0.65823800  0.65823800  1
  Li  Li2  1  0.15684500  0.15684500  0.15684500  1
  Li  Li3  1  0.05836000  0.05836000  0.05836000  1
  Li  Li4  1  0.45787900  0.45787900  0.45787900  1
  Li  Li5  1  0.25816300  0.25816300  0.25816300  1
  Ta  Ta0  1  0.00097600  0.00097600  0.00097600  1
  Ta  Ta1  1  0.60080400  0.60080400  0.60080400  1
  Ta  Ta2  1  0.90162700  0.90162700  0.90162700  1
  Ta  Ta3  1  0.70202200  0.70202200  0.70202200  1
  Ta  Ta4  1  0.50102200  0.50102200  0.50102200  1
  Ta  Ta5  1  0.80127700  0.80127700  0.80127700  1
  Ta  Ta6  1  0.30184700  0.30184700  0.30184700  1
  Ta  Ta7  1  0.10221800  0.10221800  0.10221800  1
  Ta  Ta8  1  0.20068000  0.20068000  0.20068000  1
  Ta  Ta9  1  0.40116900  0.40116900  0.40116900  1
  Cu  Cu0  1  0.75227500  0.75227500  0.75227500  1
  Cu  Cu1  1  0.55178600  0.55178600  0.55178600  1
  Cu  Cu2  1  0.95206800  0.95206800  0.95206800  1
  Cu  Cu3  1  0.35213800  0.35213800  0.35213800  1
  O  O0  1  0.46253400  0.22574500  0.85761200  1
  O  O1  1  0.62530400  0.25140800  0.87151300  1
  O  O2  1  0.13134300  0.35836700  0.75789800  1
  O  O3  1  0.33103800  0.55770800  0.95797200  1
  O  O4  1  0.15765500  0.55846500  0.92986500  1
  O  O5  1  0.95797200  0.35816500  0.73103500  1
  O  O6  1  0.35816500  0.73103500  0.95797200  1
  O  O7  1  0.15694800  0.52887600  0.76132200  1
  O  O8  1  0.25140800  0.87151300  0.62530400  1
  O  O9  1  0.05155900  0.67208700  0.42551000  1
  O  O10  1  0.45109700  0.07150100  0.82723500  1
  O  O11  1  0.07150100  0.82723500  0.45109700  1
  O  O12  1  0.27186100  0.02525600  0.65166000  1
  O  O13  1  0.22574500  0.85761200  0.46253400  1
  O  O14  1  0.42551000  0.05155900  0.67208700  1
  O  O15  1  0.73103500  0.95797200  0.35816500  1
  O  O16  1  0.92986500  0.15765500  0.55846500  1
  O  O17  1  0.55770800  0.95797200  0.33103800  1
  O  O18  1  0.76132200  0.15694800  0.52887600  1
  O  O19  1  0.95797200  0.33103800  0.55770800  1
  O  O20  1  0.75789800  0.13134300  0.35836700  1
  O  O21  1  0.55846500  0.92986500  0.15765500  1
  O  O22  1  0.65166000  0.27186100  0.02525600  1
  O  O23  1  0.85761200  0.46253400  0.22574500  1
  O  O24  1  0.67208700  0.42551000  0.05155900  1
  O  O25  1  0.87151300  0.62530400  0.25140800  1
  O  O26  1  0.02525600  0.65166000  0.27186100  1
  O  O27  1  0.82723500  0.45109700  0.07150100  1
  O  O28  1  0.52887600  0.76132200  0.15694800  1
  O  O29  1  0.35836700  0.75789800  0.13134300  1
loop_
_geom_bond_atom_site_label_1
_geom_bond_atom_site_label_2
_geom_bond_distance
_geom_bond_site_symmetry_2
Li0 O13 2.085171 1_655
Li0 O0 2.085171 1_565
Li0 O23 2.085171 1_556
Li0 O21 2.347725 1_556
Li0 O4 2.347725 1_655
Li0 O16 2.347725 1_565
Li1 O26 2.059910 1_655
Li1 O12 2.059910 1_565
Li1 O22 2.059910 1_556
Li1 O6 2.320784 1_555
Li1 O5 2.320784 1_555
Li1 O15 2.320784 1_555
Li2 O7 2.079038 1_554
Li2 O28 2.079038 1_545
Li2 O18 2.079038 1_455
Li2 O13 2.377825 1_545
Li2 O23 2.377826 1_455
Li2 O0 2.377826 1_554
Li3 O14 2.059886 1_554
Li3 O24 2.059886 1_455
Li3 O9 2.059886 1_545
Li3 O20 2.323221 1_455
Li3 O29 2.323221 1_545
Li3 O2 2.323222 1_554
Li4 O27 2.051589 1_555
Li4 O11 2.051589 1_555
Li4 O10 2.051589 1_555
Li4 O7 2.345976 1_555
Li4 O18 2.345976 1_555
Li4 O28 2.345976 1_555
Li5 O1 2.063170 1_554
Li5 O25 2.063170 1_455
Li5 O8 2.063170 1_545
Li5 O19 2.316803 1_455
Li5 O17 2.316803 1_545
Li5 O3 2.316803 1_554
Cu0 O20 2.031255 1_565
Cu0 O29 2.031255 1_556
Cu0 O2 2.031255 1_655
Cu1 O21 2.029762 1_555
Cu1 O4 2.029762 1_555
Cu1 O16 2.029762 1_555
Cu2 O19 2.032887 1_565
Cu2 O17 2.032887 1_556
Cu2 O3 2.032887 1_655
Cu3 O6 2.031581 1_554
Cu3 O5 2.031581 1_455
Cu3 O15 2.031581 1_545
O0 Ta4 1.946455 1_555
O0 Ta8 2.065779 1_556
O1 Ta2 1.935825 1_545
O1 Ta1 2.067217 1_555
O2 Ta9 1.953114 1_555
O2 Ta7 2.103221 1_556
O3 Ta1 1.956707 1_555
O3 Ta6 2.098354 1_556
O4 Ta8 1.955770 1_556
O4 Ta2 2.097976 1_455
O5 Ta0 1.956297 1_656
O5 Ta3 2.099512 1_555
O6 Ta0 1.956297 1_566
O6 Ta3 2.099512 1_555
O7 Ta5 1.944943 1_455
O7 Ta4 2.062485 1_555
O8 Ta2 1.935825 1_455
O8 Ta1 2.067217 1_555
O9 Ta3 1.932464 1_455
O9 Ta9 2.070400 1_555
O10 Ta7 1.929109 1_556
O10 Ta5 2.065711 1_545
O11 Ta7 1.929109 1_565
O11 Ta5 2.065711 1_455
O12 Ta6 1.935084 1_555
O12 Ta0 2.066798 1_556
O13 Ta4 1.946455 1_555
O13 Ta8 2.065779 1_565
O14 Ta3 1.932464 1_545
O14 Ta9 2.070400 1_555
O15 Ta0 1.956297 1_665
O15 Ta3 2.099512 1_555
O16 Ta8 1.955770 1_655
O16 Ta2 2.097975 1_545
O17 Ta1 1.956707 1_555
O17 Ta6 2.098354 1_565
O18 Ta5 1.944943 1_545
O18 Ta4 2.062485 1_555
O19 Ta1 1.956707 1_555
O19 Ta6 2.098354 1_655
O20 Ta9 1.953114 1_555
O20 Ta7 2.103221 1_655
O21 Ta8 1.955770 1_565
O21 Ta2 2.097976 1_554
O22 Ta6 1.935084 1_555
O22 Ta0 2.066798 1_655
O23 Ta4 1.946455 1_555
O23 Ta8 2.065779 1_655
O24 Ta3 1.932463 1_554
O24 Ta9 2.070400 1_555
O25 Ta2 1.935825 1_554
O25 Ta1 2.067217 1_555
O26 Ta6 1.935084 1_555
O26 Ta0 2.066798 1_565
O27 Ta7 1.929109 1_655
O27 Ta5 2.065711 1_554
O28 Ta5 1.944943 1_554
O28 Ta4 2.062485 1_555
O29 Ta9 1.953114 1_555
O29 Ta7 2.103221 1_565
