# generated using pymatgen
data_Li4Mn3Cr2Sn3O16
_symmetry_space_group_name_H-M   'P 1'
_cell_length_a   6.07457547
_cell_length_b   6.07457547
_cell_length_c   9.65281091
_cell_angle_alpha   89.81355120
_cell_angle_beta   89.81355120
_cell_angle_gamma   61.10099736
_symmetry_Int_Tables_number   1
_chemical_formula_structural   Li4Mn3Cr2Sn3O16
_chemical_formula_sum   'Li4 Mn3 Cr2 Sn3 O16'
_cell_volume   311.83530939
_cell_formula_units_Z   1
loop_
 _symmetry_equiv_pos_site_id
 _symmetry_equiv_pos_as_xyz
  1  'x, y, z'
loop_
 _atom_site_type_symbol
 _atom_site_label
 _atom_site_symmetry_multiplicity
 _atom_site_fract_x
 _atom_site_fract_y
 _atom_site_fract_z
 _atom_site_occupancy
  Li  Li0  1  0.67356300  0.67356300  0.88583300  1
  Li  Li1  1  0.98865500  0.98865500  0.99198600  1
  Li  Li2  1  0.98368500  0.98368500  0.49995600  1
  Li  Li3  1  0.33212700  0.33212700  0.39723100  1
  Mn  Mn0  1  0.83105000  0.83105000  0.21273700  1
  Mn  Mn1  1  0.65899500  0.17266200  0.71454900  1
  Mn  Mn2  1  0.17266200  0.65899500  0.71454900  1
  Cr  Cr0  1  0.66653800  0.66653800  0.48995600  1
  Cr  Cr1  1  0.34244600  0.34244600  0.98167200  1
  Sn  Sn0  1  0.83218300  0.33830900  0.21438100  1
  Sn  Sn1  1  0.33830900  0.83218300  0.21438100  1
  Sn  Sn2  1  0.16826700  0.16826700  0.71084200  1
  O  O0  1  0.82949300  0.31804100  0.59931300  1
  O  O1  1  0.51645500  0.51645500  0.34546000  1
  O  O2  1  0.67801900  0.67801900  0.10038500  1
  O  O3  1  0.98956900  0.98956900  0.31297000  1
  O  O4  1  0.99110600  0.99110600  0.80664700  1
  O  O5  1  0.31804100  0.82949300  0.59931300  1
  O  O6  1  0.95904200  0.51672200  0.35052800  1
  O  O7  1  0.51672200  0.95904200  0.35052800  1
  O  O8  1  0.16445100  0.16445100  0.09553300  1
  O  O9  1  0.82789600  0.82789600  0.60558300  1
  O  O10  1  0.48827000  0.04735600  0.83990500  1
  O  O11  1  0.04735600  0.48827000  0.83990500  1
  O  O12  1  0.34039500  0.34039500  0.60442800  1
  O  O13  1  0.67180700  0.17001300  0.09469200  1
  O  O14  1  0.48484600  0.48484600  0.84006500  1
  O  O15  1  0.17001300  0.67180700  0.09469200  1
loop_
_geom_bond_atom_site_label_1
_geom_bond_atom_site_label_2
_geom_bond_distance
_geom_bond_site_symmetry_2
Li0 O14 2.024925 1_555
Li0 O11 2.036099 1_655
Li0 O10 2.036099 1_565
Li0 O2 2.071731 1_556
Li1 O4 1.789129 1_555
Li1 O15 1.961208 1_656
Li1 O13 1.961208 1_566
Li1 O8 2.096643 1_666
Li2 O3 1.805758 1_555
Li2 O9 1.919321 1_555
Li2 O0 2.022493 1_565
Li2 O5 2.022493 1_655
Li3 O1 1.990421 1_555
Li3 O12 2.002230 1_555
Li3 O6 2.035677 1_455
Li3 O7 2.035677 1_545
Mn0 O3 1.923264 1_555
Mn0 O2 1.937222 1_555
Mn0 O15 2.130868 1_655
Mn0 O13 2.130868 1_565
Mn0 O7 2.138868 1_555
Mn0 O6 2.138868 1_555
Mn1 O10 1.966711 1_555
Mn1 O4 1.982795 1_545
Mn1 O0 1.989986 1_555
Mn1 O12 2.003520 1_555
Mn1 O14 2.061776 1_555
Mn1 O9 2.115562 1_545
Mn2 O11 1.966711 1_555
Mn2 O4 1.982795 1_455
Mn2 O5 1.989986 1_555
Mn2 O12 2.003520 1_555
Mn2 O14 2.061776 1_555
Mn2 O9 2.115562 1_455
Cr0 O9 2.027336 1_555
Cr0 O6 2.055779 1_555
Cr0 O7 2.055779 1_555
Cr0 O1 2.104215 1_555
Cr0 O0 2.131329 1_555
Cr0 O5 2.131329 1_555
Cr1 O14 2.018112 1_555
Cr1 O15 2.066761 1_556
Cr1 O13 2.066761 1_556
Cr1 O10 2.084202 1_555
Cr1 O11 2.084202 1_555
Cr1 O8 2.158853 1_556
O0 Sn2 2.102412 1_655
O1 Sn1 2.106534 1_555
O1 Sn0 2.106534 1_555
O2 Sn1 2.114318 1_555
O2 Sn0 2.114318 1_555
O3 Sn0 2.083926 1_565
O3 Sn1 2.083926 1_655
O4 Sn2 2.068332 1_665
O5 Sn2 2.102412 1_565
O6 Sn0 2.078136 1_555
O7 Sn1 2.078136 1_555
O8 Sn1 2.106627 1_545
O8 Sn0 2.106627 1_455
O10 Sn2 2.121332 1_555
O11 Sn2 2.121332 1_555
O12 Sn2 2.069886 1_555
O13 Sn0 2.075258 1_555
O15 Sn1 2.075258 1_555
