# generated using pymatgen
data_Ti3NbV2(PO4)6
_symmetry_space_group_name_H-M   'P 1'
_cell_length_a   8.62004643
_cell_length_b   8.76758251
_cell_length_c   8.76758286
_cell_angle_alpha   59.99999593
_cell_angle_beta   59.43219111
_cell_angle_gamma   59.43219574
_symmetry_Int_Tables_number   1
_chemical_formula_structural   Ti3NbV2(PO4)6
_chemical_formula_sum   'Ti3 Nb1 V2 P6 O24'
_cell_volume   464.48665200
_cell_formula_units_Z   1
loop_
 _symmetry_equiv_pos_site_id
 _symmetry_equiv_pos_as_xyz
  1  'x, y, z'
loop_
 _atom_site_type_symbol
 _atom_site_label
 _atom_site_symmetry_multiplicity
 _atom_site_fract_x
 _atom_site_fract_y
 _atom_site_fract_z
 _atom_site_occupancy
  Ti  Ti0  1  0.06775600  0.64408200  0.64408200  1
  Ti  Ti1  1  0.43075500  0.85641500  0.85641500  1
  Ti  Ti2  1  0.93514700  0.35495100  0.35495100  1
  Nb  Nb0  1  0.57400100  0.14200000  0.14200000  1
  V  V0  1  0.99757700  0.00080800  0.00080800  1
  V  V1  1  0.50007100  0.49997600  0.49997600  1
  P  P0  1  0.24754400  0.25005900  0.54837300  1
  P  P1  1  0.24754400  0.95402400  0.25005900  1
  P  P2  1  0.24754400  0.54837300  0.95402400  1
  P  P3  1  0.74987300  0.46363000  0.04396800  1
  P  P4  1  0.74987300  0.04396800  0.74253000  1
  P  P5  1  0.74987300  0.74253000  0.46363000  1
  O  O0  1  0.07161500  0.11338000  0.31583800  1
  O  O1  1  0.07161500  0.49916700  0.11338000  1
  O  O2  1  0.07161500  0.31583800  0.49916700  1
  O  O3  1  0.22629900  0.09121400  0.74144700  1
  O  O4  1  0.43343700  0.17974100  0.39490500  1
  O  O5  1  0.26896900  0.40888500  0.56175500  1
  O  O6  1  0.22629900  0.94104100  0.09121400  1
  O  O7  1  0.26896900  0.76039000  0.40888500  1
  O  O8  1  0.56776900  0.61670300  0.00223600  1
  O  O9  1  0.26896900  0.56175500  0.76039000  1
  O  O10  1  0.77246700  0.26761700  0.05828200  1
  O  O11  1  0.56776900  0.00223600  0.81329200  1
  O  O12  1  0.43343700  0.99191800  0.17974100  1
  O  O13  1  0.22629900  0.74144700  0.94104100  1
  O  O14  1  0.73045500  0.44618100  0.23807000  1
  O  O15  1  0.43343700  0.39490500  0.99191800  1
  O  O16  1  0.73045500  0.23807000  0.58529400  1
  O  O17  1  0.77246700  0.05828200  0.90163500  1
  O  O18  1  0.73045500  0.58529400  0.44618100  1
  O  O19  1  0.56776900  0.81329200  0.61670300  1
  O  O20  1  0.77246700  0.90163500  0.26761700  1
  O  O21  1  0.92980600  0.67530500  0.50666300  1
  O  O22  1  0.92980600  0.50666300  0.88822600  1
  O  O23  1  0.92980600  0.88822600  0.67530500  1
loop_
_geom_bond_atom_site_label_1
_geom_bond_atom_site_label_2
_geom_bond_distance
_geom_bond_site_symmetry_2
Nb0 O12 2.021773 1_545
Nb0 O15 2.021773 1_554
Nb0 O4 2.021773 1_555
Nb0 O10 2.123525 1_555
Nb0 O20 2.123525 1_545
Nb0 O17 2.123525 1_554
O0 P1 1.531540 1_545
O0 Ti2 1.941432 1_455
O1 P2 1.531540 1_554
O1 Ti2 1.941432 1_455
O2 P0 1.531540 1_555
O2 Ti2 1.941432 1_455
O3 P0 1.557315 1_555
O3 Ti1 2.098017 1_545
O3 V0 2.216618 1_456
O4 P0 1.545965 1_555
O5 P0 1.560124 1_555
O5 Ti0 2.087790 1_555
O5 V1 2.233353 1_555
O6 P1 1.557310 1_555
O6 Ti1 2.098021 1_554
O6 V0 2.216618 1_465
O7 P1 1.560129 1_555
O7 Ti0 2.087779 1_555
O7 V1 2.233353 1_555
O8 P3 1.532809 1_555
O8 Ti1 1.941827 1_554
O9 P2 1.560132 1_555
O9 Ti0 2.087771 1_555
O9 V1 2.233353 1_555
O10 P3 1.573492 1_555
O10 V0 2.249171 1_555
O11 P4 1.532811 1_555
O11 Ti1 1.941827 1_545
O12 P1 1.545970 1_555
O13 P2 1.557319 1_555
O13 Ti1 2.098014 1_555
O13 V0 2.216618 1_466
O14 P3 1.556768 1_555
O14 Ti2 2.094556 1_555
O14 V1 2.220657 1_555
O15 P2 1.545968 1_555
O16 P4 1.556771 1_555
O16 Ti2 2.094556 1_555
O16 V1 2.220659 1_555
O17 P4 1.573492 1_555
O17 V0 2.249170 1_556
O18 P5 1.556777 1_555
O18 Ti2 2.094556 1_555
O18 V1 2.220663 1_555
O19 P5 1.532806 1_555
O19 Ti1 1.941827 1_555
O20 P5 1.573492 1_555
O20 V0 2.249170 1_565
O21 P5 1.529199 1_555
O21 Ti0 1.933110 1_655
O22 P3 1.529202 1_556
O22 Ti0 1.933101 1_655
O23 P4 1.529205 1_565
O23 Ti0 1.933095 1_655
