# generated using pymatgen
data_Ba3GeO5
_symmetry_space_group_name_H-M   'P 1'
_cell_length_a   7.38142592
_cell_length_b   7.38142592
_cell_length_c   11.70133430
_cell_angle_alpha   90.00000000
_cell_angle_beta   90.00000000
_cell_angle_gamma   90.00000000
_symmetry_Int_Tables_number   1
_chemical_formula_structural   Ba3GeO5
_chemical_formula_sum   'Ba12 Ge4 O20'
_cell_volume   637.55244870
_cell_formula_units_Z   4
loop_
 _symmetry_equiv_pos_site_id
 _symmetry_equiv_pos_as_xyz
  1  'x, y, z'
loop_
 _atom_site_type_symbol
 _atom_site_label
 _atom_site_symmetry_multiplicity
 _atom_site_fract_x
 _atom_site_fract_y
 _atom_site_fract_z
 _atom_site_occupancy
  Ba  Ba0  1  0.00000000  0.50000000  0.99946404  1
  Ba  Ba1  1  0.00000000  0.50000000  0.49946404  1
  Ba  Ba2  1  0.18268800  0.81731200  0.75000000  1
  Ba  Ba3  1  0.18268800  0.18268800  0.25000000  1
  Ba  Ba4  1  0.31731200  0.31731200  0.75000000  1
  Ba  Ba5  1  0.31731200  0.68268800  0.25000000  1
  Ba  Ba6  1  0.50000000  -0.00000000  0.00053596  1
  Ba  Ba7  1  0.50000000  -0.00000000  0.50053596  1
  Ba  Ba8  1  0.68268800  0.31731200  0.25000000  1
  Ba  Ba9  1  0.68268800  0.68268800  0.75000000  1
  Ba  Ba10  1  0.81731200  0.81731200  0.25000000  1
  Ba  Ba11  1  0.81731200  0.18268800  0.75000000  1
  Ge  Ge0  1  0.00000000  -0.00000000  0.00000000  1
  Ge  Ge1  1  0.00000000  -0.00000000  0.50000000  1
  Ge  Ge2  1  0.50000000  0.50000000  0.00000000  1
  Ge  Ge3  1  0.50000000  0.50000000  0.50000000  1
  O  O0  1  0.00000000  0.50000000  0.22832623  1
  O  O1  1  0.00000000  0.50000000  0.72832623  1
  O  O2  1  0.11591080  0.85029532  0.40756741  1
  O  O3  1  0.11591080  0.14970468  0.90756741  1
  O  O4  1  0.14970468  0.11591080  0.59243259  1
  O  O5  1  0.14970468  0.88408920  0.09243259  1
  O  O6  1  0.35029532  0.61591080  0.90756741  1
  O  O7  1  0.35029532  0.38408920  0.40756741  1
  O  O8  1  0.38408920  0.35029532  0.09243259  1
  O  O9  1  0.38408920  0.64970468  0.59243259  1
  O  O10  1  0.50000000  -0.00000000  0.27167377  1
  O  O11  1  0.50000000  -0.00000000  0.77167377  1
  O  O12  1  0.61591080  0.35029532  0.59243259  1
  O  O13  1  0.61591080  0.64970468  0.09243259  1
  O  O14  1  0.64970468  0.61591080  0.40756741  1
  O  O15  1  0.64970468  0.38408920  0.90756741  1
  O  O16  1  0.85029532  0.88408920  0.59243259  1
  O  O17  1  0.85029532  0.11591080  0.09243259  1
  O  O18  1  0.88408920  0.14970468  0.40756741  1
  O  O19  1  0.88408920  0.85029532  0.90756741  1
loop_
_geom_bond_atom_site_label_1
_geom_bond_atom_site_label_2
_geom_bond_distance
_geom_bond_site_symmetry_2
Ba0 O0 2.677993 1_556
Ba0 O3 2.928150 1_555
Ba0 O6 2.928150 1_555
Ba0 O15 2.928150 1_455
Ba0 O19 2.928150 1_455
Ba0 O1 3.172674 1_555
Ba0 O5 3.231481 1_556
Ba0 O8 3.231481 1_556
Ba0 O17 3.231481 1_456
Ba0 O13 3.231481 1_456
Ba1 O1 2.677993 1_555
Ba1 O2 2.928150 1_555
Ba1 O14 2.928150 1_455
Ba1 O18 2.928150 1_455
Ba1 O7 2.928150 1_555
Ba1 O0 3.172674 1_555
Ba1 O16 3.231481 1_455
Ba1 O9 3.231481 1_555
Ba1 O12 3.231481 1_455
Ba1 O4 3.231481 1_555
Ba2 O9 2.672095 1_555
Ba2 O6 2.672095 1_555
Ba2 O1 2.714542 1_555
Ba2 O11 2.714542 1_565
Ba2 O4 2.883865 1_565
Ba2 O19 2.883865 1_455
Ba2 O16 3.108406 1_455
Ba2 O3 3.108406 1_565
Ba3 O8 2.672095 1_555
Ba3 O7 2.672095 1_555
Ba3 O0 2.714542 1_555
Ba3 O10 2.714542 1_555
Ba3 O5 2.883865 1_545
Ba3 O18 2.883865 1_455
Ba3 O2 3.108406 1_545
Ba3 O17 3.108406 1_455
Ba4 O4 2.672095 1_555
Ba4 O3 2.672095 1_555
Ba4 O1 2.714542 1_555
Ba4 O11 2.714542 1_555
Ba4 O12 2.883865 1_555
Ba4 O6 2.883865 1_555
Ba4 O9 3.108406 1_555
Ba4 O15 3.108406 1_555
Ba5 O5 2.672095 1_555
Ba5 O2 2.672095 1_555
Ba5 O0 2.714542 1_555
Ba5 O10 2.714542 1_565
Ba5 O13 2.883865 1_555
Ba5 O7 2.883865 1_555
Ba5 O8 3.108406 1_555
Ba5 O14 3.108406 1_555
Ba6 O11 2.677993 1_554
Ba6 O17 2.928150 1_555
Ba6 O13 2.928150 1_545
Ba6 O5 2.928150 1_545
Ba6 O8 2.928150 1_555
Ba6 O10 3.172674 1_555
Ba6 O15 3.231481 1_554
Ba6 O19 3.231481 1_544
Ba6 O3 3.231481 1_554
Ba6 O6 3.231481 1_544
Ba7 O10 2.677993 1_555
Ba7 O4 2.928150 1_555
Ba7 O12 2.928150 1_555
Ba7 O16 2.928150 1_545
Ba7 O9 2.928150 1_545
Ba7 O11 3.172674 1_555
Ba7 O7 3.231481 1_555
Ba7 O18 3.231481 1_555
Ba7 O14 3.231481 1_545
Ba7 O2 3.231481 1_545
Ba8 O18 2.672095 1_555
Ba8 O17 2.672095 1_555
Ba8 O10 2.714542 1_555
Ba8 O0 2.714542 1_655
Ba8 O14 2.883865 1_555
Ba8 O8 2.883865 1_555
Ba8 O7 3.108406 1_555
Ba8 O13 3.108406 1_555
Ba9 O16 2.672095 1_555
Ba9 O19 2.672095 1_555
Ba9 O1 2.714542 1_655
Ba9 O11 2.714542 1_565
Ba9 O9 2.883865 1_555
Ba9 O15 2.883865 1_555
Ba9 O12 3.108406 1_555
Ba9 O6 3.108406 1_555
Ba10 O14 2.672095 1_555
Ba10 O13 2.672095 1_555
Ba10 O10 2.714542 1_565
Ba10 O0 2.714542 1_655
Ba10 O17 2.883865 1_565
Ba10 O2 2.883865 1_655
Ba10 O5 3.108406 1_655
Ba10 O18 3.108406 1_565
Ba11 O15 2.672095 1_555
Ba11 O12 2.672095 1_555
Ba11 O11 2.714542 1_555
Ba11 O1 2.714542 1_655
Ba11 O16 2.883865 1_545
Ba11 O3 2.883865 1_655
Ba11 O19 3.108406 1_545
Ba11 O4 3.108406 1_655
Ge0 O3 1.767188 1_554
Ge0 O17 1.767188 1_455
Ge0 O19 1.767188 1_444
Ge0 O5 1.767188 1_545
Ge1 O2 1.767188 1_545
Ge1 O4 1.767188 1_555
Ge1 O18 1.767188 1_455
Ge1 O16 1.767188 1_445
Ge2 O6 1.767188 1_554
Ge2 O13 1.767188 1_555
Ge2 O15 1.767188 1_554
Ge2 O8 1.767188 1_555
Ge3 O14 1.767188 1_555
Ge3 O12 1.767188 1_555
Ge3 O7 1.767188 1_555
Ge3 O9 1.767188 1_555
