# generated using pymatgen
data_Fe3NiSn2(PO4)6
_symmetry_space_group_name_H-M   'P 1'
_cell_length_a   8.64600033
_cell_length_b   8.64600101
_cell_length_c   8.64600089
_cell_angle_alpha   60.34647765
_cell_angle_beta   60.34648002
_cell_angle_gamma   60.34647312
_symmetry_Int_Tables_number   1
_chemical_formula_structural   Fe3NiSn2(PO4)6
_chemical_formula_sum   'Fe3 Ni1 Sn2 P6 O24'
_cell_volume   460.59752784
_cell_formula_units_Z   1
loop_
 _symmetry_equiv_pos_site_id
 _symmetry_equiv_pos_as_xyz
  1  'x, y, z'
loop_
 _atom_site_type_symbol
 _atom_site_label
 _atom_site_symmetry_multiplicity
 _atom_site_fract_x
 _atom_site_fract_y
 _atom_site_fract_z
 _atom_site_occupancy
  Fe  Fe0  1  0.14957300  0.14957300  0.14957300  1
  Fe  Fe1  1  0.35212700  0.35212700  0.35212700  1
  Fe  Fe2  1  0.64859100  0.64859100  0.64859100  1
  Ni  Ni0  1  0.85250900  0.85250900  0.85250900  1
  Sn  Sn0  1  0.99909000  0.99909000  0.99909000  1
  Sn  Sn1  1  0.49919100  0.49919100  0.49919100  1
  P  P0  1  0.75047300  0.45585200  0.04158100  1
  P  P1  1  0.25009000  0.54630200  0.95783300  1
  P  P2  1  0.54630200  0.95783300  0.25009000  1
  P  P3  1  0.95783300  0.25009000  0.54630200  1
  P  P4  1  0.04158100  0.75047300  0.45585200  1
  P  P5  1  0.45585200  0.04158100  0.75047300  1
  O  O0  1  0.11147800  0.31595400  0.50476700  1
  O  O1  1  0.31595400  0.50476700  0.11147800  1
  O  O2  1  0.05732400  0.91189800  0.25147400  1
  O  O3  1  0.50476700  0.11147800  0.31595400  1
  O  O4  1  0.01190500  0.81644400  0.60235300  1
  O  O5  1  0.23962100  0.59071000  0.42925500  1
  O  O6  1  0.25147400  0.05732400  0.91189800  1
  O  O7  1  0.42925500  0.23962100  0.59071000  1
  O  O8  1  0.18307900  0.39348700  0.99507900  1
  O  O9  1  0.59071000  0.42925500  0.23962100  1
  O  O10  1  0.09043400  0.74644100  0.94264200  1
  O  O11  1  0.39348700  0.99507900  0.18307900  1
  O  O12  1  0.60235300  0.01190500  0.81644400  1
  O  O13  1  0.91189800  0.25147400  0.05732400  1
  O  O14  1  0.40999100  0.56441100  0.76130400  1
  O  O15  1  0.81644400  0.60235300  0.01190500  1
  O  O16  1  0.56441100  0.76130400  0.40999100  1
  O  O17  1  0.74644100  0.94264200  0.09043400  1
  O  O18  1  0.76130400  0.40999100  0.56441100  1
  O  O19  1  0.99507900  0.18307900  0.39348700  1
  O  O20  1  0.49221900  0.88729300  0.68722600  1
  O  O21  1  0.94264200  0.09043400  0.74644100  1
  O  O22  1  0.68722600  0.49221900  0.88729300  1
  O  O23  1  0.88729300  0.68722600  0.49221900  1
loop_
_geom_bond_atom_site_label_1
_geom_bond_atom_site_label_2
_geom_bond_distance
_geom_bond_site_symmetry_2
Fe0 O11 1.936432 1_545
Fe0 O19 1.936432 1_455
Fe0 O8 1.936432 1_554
Fe0 O13 2.184061 1_455
Fe0 O6 2.184061 1_554
Fe0 O2 2.184061 1_545
Fe1 O3 1.920158 1_555
Fe1 O0 1.920158 1_555
Fe1 O1 1.920158 1_555
Fe1 O7 2.092794 1_555
Fe1 O9 2.092794 1_555
Fe1 O5 2.092794 1_555
Fe2 O20 1.916533 1_555
Fe2 O22 1.916534 1_555
Fe2 O23 1.916534 1_555
Fe2 O16 2.128309 1_555
Fe2 O14 2.128309 1_555
Fe2 O18 2.128309 1_555
Ni0 O12 1.991758 1_565
Ni0 O4 1.991758 1_655
Ni0 O15 1.991758 1_556
Ni0 O10 2.166185 1_655
Ni0 O17 2.166185 1_556
Ni0 O21 2.166185 1_565
O0 P3 1.513960 1_455
O1 P1 1.513960 1_554
O2 P4 1.612000 1_555
O2 Sn0 2.160380 1_454
O3 P2 1.513960 1_545
O4 P4 1.498021 1_555
O5 P4 1.573871 1_555
O5 Sn1 2.267273 1_555
O6 P5 1.612000 1_555
O6 Sn0 2.160380 1_445
O7 P5 1.573871 1_555
O7 Sn1 2.267273 1_555
O8 P1 1.528687 1_555
O9 P0 1.573871 1_555
O9 Sn1 2.267273 1_555
O10 P1 1.583653 1_555
O10 Sn0 2.144759 1_455
O11 P2 1.528687 1_555
O12 P5 1.498021 1_555
O13 P0 1.611999 1_555
O13 Sn0 2.160380 1_544
O14 P1 1.565096 1_555
O14 Sn1 2.270088 1_555
O15 P0 1.498021 1_555
O16 P2 1.565096 1_555
O16 Sn1 2.270088 1_555
O17 P2 1.583653 1_555
O17 Sn0 2.144759 1_554
O18 P3 1.565096 1_555
O18 Sn1 2.270088 1_555
O19 P3 1.528687 1_555
O20 P5 1.521188 1_565
O21 P3 1.583653 1_555
O21 Sn0 2.144759 1_545
O22 P0 1.521188 1_556
O23 P4 1.521188 1_655
