# generated using pymatgen
data_SrLu2O4
_symmetry_space_group_name_H-M   'P 1'
_cell_length_a   6.75074367
_cell_length_b   6.75074142
_cell_length_c   6.75073743
_cell_angle_alpha   60.00005107
_cell_angle_beta   60.00001348
_cell_angle_gamma   60.00005631
_symmetry_Int_Tables_number   1
_chemical_formula_structural   SrLu2O4
_chemical_formula_sum   'Sr2 Lu4 O8'
_cell_volume   217.54029165
_cell_formula_units_Z   2
loop_
 _symmetry_equiv_pos_site_id
 _symmetry_equiv_pos_as_xyz
  1  'x, y, z'
loop_
 _atom_site_type_symbol
 _atom_site_label
 _atom_site_symmetry_multiplicity
 _atom_site_fract_x
 _atom_site_fract_y
 _atom_site_fract_z
 _atom_site_occupancy
  Sr  Sr0  1  0.50000296  0.49999919  0.49999881  1
  Sr  Sr1  1  0.74999739  0.74999997  0.74999992  1
  Lu  Lu0  1  0.12499132  0.12500494  0.62501765  1
  Lu  Lu1  1  0.12499128  0.62500680  0.12500391  1
  Lu  Lu2  1  0.12499606  0.12499708  0.12498982  1
  Lu  Lu3  1  0.62501954  0.12499116  0.12499122  1
  O  O0  1  0.31943822  0.89352165  0.89352006  1
  O  O1  1  0.35648199  0.93055894  0.35647937  1
  O  O2  1  0.35647957  0.35648075  0.35648125  1
  O  O3  1  0.89352087  0.89351996  0.31943714  1
  O  O4  1  0.35648069  0.35648006  0.93055829  1
  O  O5  1  0.89352024  0.89352161  0.89352100  1
  O  O6  1  0.89352130  0.31943617  0.89352056  1
  O  O7  1  0.93055857  0.35648172  0.35648100  1
loop_
_geom_bond_atom_site_label_1
_geom_bond_atom_site_label_2
_geom_bond_distance
_geom_bond_site_symmetry_2
Lu0 O6 2.223912 1_455
Lu0 O0 2.223979 1_545
Lu0 O5 2.224002 1_445
Lu0 O2 2.224069 1_555
Lu0 O7 2.224093 1_455
Lu0 O1 2.224158 1_545
Lu1 O3 2.223974 1_455
Lu1 O5 2.224010 1_454
Lu1 O7 2.224033 1_455
Lu1 O0 2.224043 1_554
Lu1 O2 2.224069 1_555
Lu1 O4 2.224097 1_554
Lu2 O6 2.223958 1_454
Lu2 O0 2.223960 1_544
Lu2 O3 2.223994 1_445
Lu2 O4 2.224084 1_554
Lu2 O1 2.224120 1_545
Lu2 O7 2.224121 1_455
Lu3 O5 2.223935 1_544
Lu3 O6 2.223967 1_554
Lu3 O3 2.223970 1_545
Lu3 O1 2.224095 1_545
Lu3 O4 2.224106 1_554
Lu3 O2 2.224139 1_555
O0 Sr1 2.373225 1_555
O1 Sr0 2.373229 1_555
O2 Sr0 2.373224 1_555
O3 Sr1 2.373243 1_555
O4 Sr0 2.373225 1_555
O5 Sr1 2.373258 1_555
O6 Sr1 2.373251 1_555
O7 Sr0 2.373206 1_555
