# generated using pymatgen
data_Li6Fe3Sb3O16
_symmetry_space_group_name_H-M   'P 1'
_cell_length_a   5.95451000
_cell_length_b   6.02163063
_cell_length_c   9.99258223
_cell_angle_alpha   90.42410014
_cell_angle_beta   90.23500173
_cell_angle_gamma   119.27576597
_symmetry_Int_Tables_number   1
_chemical_formula_structural   Li6Fe3Sb3O16
_chemical_formula_sum   'Li6 Fe3 Sb3 O16'
_cell_volume   312.50932075
_cell_formula_units_Z   1
loop_
 _symmetry_equiv_pos_site_id
 _symmetry_equiv_pos_as_xyz
  1  'x, y, z'
loop_
 _atom_site_type_symbol
 _atom_site_label
 _atom_site_symmetry_multiplicity
 _atom_site_fract_x
 _atom_site_fract_y
 _atom_site_fract_z
 _atom_site_occupancy
  Li  Li0  1  0.66367000  0.33329800  0.51543800  1
  Li  Li1  1  0.67227500  0.33072600  0.86621200  1
  Li  Li2  1  0.97761100  0.01291800  0.99628400  1
  Li  Li3  1  0.98208600  0.01070000  0.50477900  1
  Li  Li4  1  0.33865500  0.66600600  0.99406700  1
  Li  Li5  1  0.33650300  0.67209700  0.39400400  1
  Fe  Fe0  1  0.83405900  0.16653000  0.21717700  1
  Fe  Fe1  1  0.66581900  0.83012300  0.71385900  1
  Fe  Fe2  1  0.17230000  0.33527200  0.71687900  1
  Sb  Sb0  1  0.83403300  0.66215600  0.21593400  1
  Sb  Sb1  1  0.33812400  0.16641800  0.21591300  1
  Sb  Sb2  1  0.17036300  0.82874500  0.71414200  1
  O  O0  1  0.84134900  0.69545900  0.60510100  1
  O  O1  1  0.51276900  0.48798500  0.32902000  1
  O  O2  1  0.67284700  0.32636700  0.10459100  1
  O  O3  1  0.99683400  0.00520400  0.32173800  1
  O  O4  1  0.97687600  0.96835700  0.82034700  1
  O  O5  1  0.30208800  0.16200900  0.61180700  1
  O  O6  1  0.97476000  0.47743400  0.32086300  1
  O  O7  1  0.52609800  0.03014200  0.32188600  1
  O  O8  1  0.15459800  0.84503500  0.10170900  1
  O  O9  1  0.84336800  0.14869300  0.62590100  1
  O  O10  1  0.49293700  0.96402200  0.82456100  1
  O  O11  1  0.03824300  0.50428500  0.82018800  1
  O  O12  1  0.35791900  0.69412600  0.59906000  1
  O  O13  1  0.69095700  0.85190100  0.11433700  1
  O  O14  1  0.48824400  0.52038300  0.80954600  1
  O  O15  1  0.14491600  0.30390900  0.11249500  1
loop_
_geom_bond_atom_site_label_1
_geom_bond_atom_site_label_2
_geom_bond_distance
_geom_bond_site_symmetry_2
Li0 O0 2.093971 1_555
Li0 O5 2.118150 1_555
Li0 O9 2.184222 1_555
Li0 O1 2.444494 1_555
Li0 O7 2.493261 1_555
Li0 O6 2.539111 1_555
Li1 O11 1.959698 1_655
Li1 O10 1.966230 1_545
Li1 O14 2.013493 1_555
Li1 O2 2.382367 1_556
Li2 O4 1.776124 1_545
Li2 O13 1.913107 1_546
Li2 O15 1.914269 1_656
Li2 O8 2.071486 1_646
Li3 O3 1.832349 1_555
Li3 O9 1.871418 1_555
Li3 O0 1.946761 1_545
Li3 O5 1.968656 1_655
Li4 O8 2.160635 1_556
Li4 O13 2.181935 1_556
Li4 O15 2.252728 1_556
Li4 O10 2.319202 1_555
Li4 O11 2.326546 1_555
Li4 O14 2.390717 1_555
Li5 O1 1.971136 1_555
Li5 O6 2.013183 1_455
Li5 O7 2.022716 1_565
Li5 O12 2.051757 1_555
Fe0 O7 1.920276 1_555
Fe0 O6 1.926260 1_555
Fe0 O15 1.932836 1_655
Fe0 O13 1.938205 1_545
Fe0 O3 1.975455 1_555
Fe0 O2 2.006071 1_555
Fe1 O14 1.901816 1_555
Fe1 O9 1.902423 1_565
Fe1 O4 1.928374 1_555
Fe1 O10 1.934275 1_555
Fe1 O0 1.938107 1_555
Fe1 O12 1.961713 1_555
Fe2 O11 1.877345 1_555
Fe2 O14 1.886446 1_555
Fe2 O5 1.888701 1_555
Fe2 O9 1.934699 1_455
Fe2 O4 2.198591 1_445
Fe2 O12 2.233736 1_555
O0 Sb2 2.025153 1_655
O1 Sb1 2.024077 1_555
O1 Sb0 2.027171 1_555
O2 Sb1 2.072230 1_555
O2 Sb0 2.075438 1_555
O3 Sb1 2.072169 1_655
O3 Sb0 2.079769 1_545
O4 Sb2 2.025966 1_655
O5 Sb2 2.045881 1_545
O6 Sb0 1.990098 1_555
O7 Sb1 1.987215 1_555
O8 Sb1 2.032346 1_565
O8 Sb0 2.034622 1_455
O10 Sb2 2.002347 1_555
O11 Sb2 2.023184 1_555
O12 Sb2 2.027052 1_555
O13 Sb0 2.006005 1_555
O15 Sb1 2.002853 1_555
