# generated using pymatgen
data_LiFe2(BO3)2
_symmetry_space_group_name_H-M   'P 1'
_cell_length_a   5.32322200
_cell_length_b   8.99074342
_cell_length_c   9.98786277
_cell_angle_alpha   89.20877363
_cell_angle_beta   88.01651047
_cell_angle_gamma   89.81390894
_symmetry_Int_Tables_number   1
_chemical_formula_structural   LiFe2(BO3)2
_chemical_formula_sum   'Li4 Fe8 B8 O24'
_cell_volume   477.68255377
_cell_formula_units_Z   4
loop_
 _symmetry_equiv_pos_site_id
 _symmetry_equiv_pos_as_xyz
  1  'x, y, z'
loop_
 _atom_site_type_symbol
 _atom_site_label
 _atom_site_symmetry_multiplicity
 _atom_site_fract_x
 _atom_site_fract_y
 _atom_site_fract_z
 _atom_site_occupancy
  Li  Li0  1  0.66706200  0.98984700  0.84822400  1
  Li  Li1  1  0.34534600  0.00034900  0.09675300  1
  Li  Li2  1  0.16124900  0.49002300  0.85583100  1
  Li  Li3  1  0.35832300  0.00647800  0.57998400  1
  Fe  Fe0  1  0.83714400  0.82687000  0.12491800  1
  Fe  Fe1  1  0.14836200  0.83512000  0.37107400  1
  Fe  Fe2  1  0.66804100  0.65309800  0.87198300  1
  Fe  Fe3  1  0.34634000  0.66516800  0.62279200  1
  Fe  Fe4  1  0.66044900  0.32451700  0.36121000  1
  Fe  Fe5  1  0.84802300  0.18156800  0.61752300  1
  Fe  Fe6  1  0.33340100  0.34349800  0.12439400  1
  Fe  Fe7  1  0.15373100  0.16377600  0.87367000  1
  B  B0  1  0.83890400  0.84041800  0.62770100  1
  B  B1  1  0.65360000  0.65968800  0.37060200  1
  B  B2  1  0.17156400  0.83147600  0.87177400  1
  B  B3  1  0.32736300  0.67741700  0.11534700  1
  B  B4  1  0.66245300  0.32819300  0.86555100  1
  B  B5  1  0.33928000  0.32543000  0.62370400  1
  B  B6  1  0.83910500  0.15911700  0.12403600  1
  B  B7  1  0.17973600  0.17399500  0.37858100  1
  O  O0  1  0.72042100  0.97832100  0.63430700  1
  O  O1  1  0.91611800  0.83202400  0.91001400  1
  O  O2  1  0.31368600  0.95793500  0.88179700  1
  O  O3  1  0.78772800  0.78451500  0.32137600  1
  O  O4  1  0.69805100  0.71484300  0.65988500  1
  O  O5  1  0.20091400  0.81099600  0.15467600  1
  O  O6  1  0.09454100  0.82994100  0.59393800  1
  O  O7  1  0.57943000  0.69566000  0.07386900  1
  O  O8  1  0.75619100  0.52298500  0.36082700  1
  O  O9  1  0.41550300  0.68427900  0.43033200  1
  O  O10  1  0.28114300  0.69796300  0.82618000  1
  O  O11  1  0.80692600  0.45140300  0.86889200  1
  O  O12  1  0.20753200  0.54779500  0.11003600  1
  O  O13  1  0.71267000  0.28452200  0.17165800  1
  O  O14  1  0.57754700  0.30575700  0.56290700  1
  O  O15  1  0.24517100  0.46190400  0.65186000  1
  O  O16  1  0.41252600  0.32375400  0.90996300  1
  O  O17  1  0.92663900  0.19301200  0.42675300  1
  O  O18  1  0.77718700  0.19513300  0.81381100  1
  O  O19  1  0.30363400  0.30014500  0.33114100  1
  O  O20  1  0.20544300  0.19387300  0.65987400  1
  O  O21  1  0.70702000  0.02756400  0.11108700  1
  O  O22  1  0.09229100  0.16536000  0.08301300  1
  O  O23  1  0.28935600  0.03796200  0.38766400  1
loop_
_geom_bond_atom_site_label_1
_geom_bond_atom_site_label_2
_geom_bond_distance
_geom_bond_site_symmetry_2
Li0 O2 1.921062 1_555
Li0 O18 1.960577 1_565
Li0 O1 2.042599 1_555
Li0 O0 2.149483 1_555
Li1 O5 1.942826 1_545
Li1 O21 1.951959 1_555
Li1 O22 2.007138 1_555
Li1 O2 2.198020 1_544
Li2 O11 1.918613 1_455
Li2 O10 1.992378 1_555
Li2 O16 2.081087 1_555
Li2 O15 2.089091 1_555
Li3 O23 1.984378 1_555
Li3 O20 2.029994 1_555
Li3 O0 2.034518 1_545
Li3 O6 2.122531 1_545
Fe0 O7 1.899782 1_555
Fe0 O21 1.935543 1_565
Fe0 O5 1.973661 1_655
Fe0 O3 2.002175 1_555
Fe0 O1 2.172778 1_554
Fe1 O23 1.985573 1_565
Fe1 O3 2.053448 1_455
Fe1 O9 2.057984 1_555
Fe1 O5 2.183449 1_555
Fe1 O6 2.234304 1_555
Fe2 O11 1.956317 1_555
Fe2 O7 2.095026 1_556
Fe2 O1 2.131063 1_555
Fe2 O10 2.160657 1_555
Fe2 O4 2.183119 1_555
Fe3 O15 1.922231 1_555
Fe3 O9 1.949992 1_555
Fe3 O4 1.974843 1_555
Fe3 O6 2.019002 1_555
Fe3 O10 2.073908 1_555
Fe4 O8 1.857240 1_555
Fe4 O13 1.942312 1_555
Fe4 O19 1.946782 1_555
Fe4 O17 1.966279 1_555
Fe4 O14 2.052086 1_555
Fe5 O14 1.909029 1_555
Fe5 O17 1.938009 1_555
Fe5 O0 1.954581 1_545
Fe5 O20 1.967110 1_655
Fe5 O18 1.988905 1_555
Fe6 O12 1.958227 1_555
Fe6 O19 2.096811 1_555
Fe6 O22 2.109883 1_555
Fe6 O13 2.152254 1_555
Fe6 O16 2.177935 1_554
Fe7 O2 2.036407 1_545
Fe7 O16 2.039571 1_555
Fe7 O22 2.105337 1_556
Fe7 O18 2.128210 1_455
Fe7 O20 2.156993 1_555
B0 O4 1.385272 1_555
B0 O0 1.390568 1_555
B0 O6 1.393800 1_655
B1 O8 1.346710 1_555
B1 O9 1.400242 1_555
B1 O3 1.405956 1_555
B2 O2 1.374423 1_555
B2 O1 1.399643 1_455
B2 O10 1.407376 1_555
B3 O12 1.332946 1_555
B3 O7 1.400018 1_555
B3 O5 1.428006 1_555
B4 O11 1.352039 1_555
B4 O16 1.388298 1_555
B4 O18 1.435865 1_555
B5 O15 1.353281 1_555
B5 O14 1.398899 1_555
B5 O20 1.418784 1_555
B6 O21 1.387783 1_555
B6 O13 1.392179 1_555
B6 O22 1.396113 1_655
B7 O23 1.356659 1_555
B7 O19 1.383565 1_555
B7 O17 1.425420 1_455
