# generated using pymatgen
data_Li4Ti3O8
_symmetry_space_group_name_H-M   'P 1'
_cell_length_a   5.88760185
_cell_length_b   5.88760185
_cell_length_c   5.88760143
_cell_angle_alpha   60.21956440
_cell_angle_beta   60.21956440
_cell_angle_gamma   60.21956100
_symmetry_Int_Tables_number   1
_chemical_formula_structural   Li4Ti3O8
_chemical_formula_sum   'Li4 Ti3 O8'
_cell_volume   145.02866484
_cell_formula_units_Z   1
loop_
 _symmetry_equiv_pos_site_id
 _symmetry_equiv_pos_as_xyz
  1  'x, y, z'
loop_
 _atom_site_type_symbol
 _atom_site_label
 _atom_site_symmetry_multiplicity
 _atom_site_fract_x
 _atom_site_fract_y
 _atom_site_fract_z
 _atom_site_occupancy
  Li  Li0  1  0.50000000  0.50000000  0.00000000  1
  Li  Li1  1  0.50000000  0.00000000  0.50000000  1
  Li  Li2  1  0.00000000  0.00000000  0.00000000  1
  Li  Li3  1  0.00000000  0.50000000  0.50000000  1
  Ti  Ti0  1  0.50000000  0.00000000  0.00000000  1
  Ti  Ti1  1  0.00000000  0.50000000  0.00000000  1
  Ti  Ti2  1  0.00000000  0.00000000  0.50000000  1
  O  O0  1  0.24591700  0.24591700  0.24591700  1
  O  O1  1  0.21380800  0.75468300  0.75468300  1
  O  O2  1  0.24531700  0.24531700  0.78619200  1
  O  O3  1  0.24531700  0.78619200  0.24531700  1
  O  O4  1  0.75468300  0.21380800  0.75468300  1
  O  O5  1  0.75468300  0.75468300  0.21380800  1
  O  O6  1  0.78619200  0.24531700  0.24531700  1
  O  O7  1  0.75408300  0.75408300  0.75408300  1
loop_
_geom_bond_atom_site_label_1
_geom_bond_atom_site_label_2
_geom_bond_distance
_geom_bond_site_symmetry_2
Li0 O7 2.119409 1_554
Li0 O0 2.119409 1_555
Li0 O3 2.220369 1_555
Li0 O6 2.220369 1_555
Li0 O1 2.220369 1_554
Li0 O4 2.220369 1_554
Li1 O7 2.119409 1_545
Li1 O0 2.119409 1_555
Li1 O2 2.220369 1_555
Li1 O5 2.220369 1_545
Li1 O6 2.220369 1_555
Li1 O1 2.220369 1_545
Li2 O3 2.053506 1_545
Li2 O6 2.053506 1_455
Li2 O4 2.053506 1_454
Li2 O1 2.053506 1_544
Li2 O2 2.053506 1_554
Li2 O5 2.053506 1_445
Li3 O7 2.119409 1_455
Li3 O0 2.119409 1_555
Li3 O2 2.220369 1_555
Li3 O5 2.220369 1_455
Li3 O3 2.220369 1_555
Li3 O4 2.220369 1_455
O0 Ti0 2.051773 1_555
O0 Ti1 2.051773 1_555
O0 Ti2 2.051773 1_555
O1 Ti2 1.958758 1_565
O1 Ti1 1.958759 1_556
O2 Ti1 1.958758 1_556
O2 Ti0 1.958758 1_556
O3 Ti2 1.958758 1_565
O3 Ti0 1.958759 1_565
O4 Ti2 1.958758 1_655
O4 Ti0 1.958759 1_556
O5 Ti0 1.958758 1_565
O5 Ti1 1.958758 1_655
O6 Ti2 1.958758 1_655
O6 Ti1 1.958759 1_655
O7 Ti1 2.051773 1_656
O7 Ti0 2.051773 1_566
O7 Ti2 2.051773 1_665
