# generated using pymatgen
data_LiV2P4(HO8)2
_symmetry_space_group_name_H-M   'P 1'
_cell_length_a   7.35544100
_cell_length_b   9.26217808
_cell_length_c   12.55235673
_cell_angle_alpha   97.05400111
_cell_angle_beta   101.07723893
_cell_angle_gamma   97.67113100
_symmetry_Int_Tables_number   1
_chemical_formula_structural   LiV2P4(HO8)2
_chemical_formula_sum   'Li3 V6 P12 H6 O48'
_cell_volume   821.97079059
_cell_formula_units_Z   3
loop_
 _symmetry_equiv_pos_site_id
 _symmetry_equiv_pos_as_xyz
  1  'x, y, z'
loop_
 _atom_site_type_symbol
 _atom_site_label
 _atom_site_symmetry_multiplicity
 _atom_site_fract_x
 _atom_site_fract_y
 _atom_site_fract_z
 _atom_site_occupancy
  Li  Li0  1  0.15305800  0.95541800  0.82621100  1
  Li  Li1  1  0.64784500  0.60974200  0.24104300  1
  Li  Li2  1  0.35073200  0.05175200  0.42315000  1
  V  V0  1  0.99787900  0.49952500  0.99978100  1
  V  V1  1  0.50333100  0.66656900  0.66650900  1
  V  V2  1  0.51104500  0.00292600  0.00424200  1
  V  V3  1  0.99767500  0.83340000  0.33342700  1
  V  V4  1  0.99057000  0.17513200  0.66617900  1
  V  V5  1  0.50152100  0.33234700  0.33328900  1
  P  P0  1  0.76585000  0.97649700  0.82501600  1
  P  P1  1  0.23839100  0.68803500  0.84276700  1
  P  P2  1  0.26598700  0.93956400  0.59708300  1
  P  P3  1  0.26497200  0.27475800  0.92408600  1
  P  P4  1  0.72433200  0.39008100  0.74318400  1
  P  P5  1  0.77047400  0.63746100  0.49429500  1
  P  P6  1  0.23164500  0.35672900  0.50900300  1
  P  P7  1  0.25987900  0.60608600  0.25800200  1
  P  P8  1  0.73154300  0.72185000  0.07112200  1
  P  P9  1  0.73325300  0.05712000  0.40889100  1
  P  P10  1  0.77644600  0.31049600  0.16186900  1
  P  P11  1  0.23614000  0.02508100  0.17464300  1
  H  H0  1  0.48919500  0.48561500  0.99145900  1
  H  H1  1  0.00766200  0.67026100  0.67720900  1
  H  H2  1  0.49271100  0.15191900  0.66149000  1
  H  H3  1  0.48723200  0.81734800  0.32480500  1
  H  H4  1  0.01002500  0.33918500  0.34542400  1
  H  H5  1  0.01254700  0.00703700  0.01746300  1
  O  O0  1  0.34363800  0.84351300  0.89847900  1
  O  O1  1  0.18070800  0.59744800  0.92962200  1
  O  O2  1  0.94643300  0.95566500  0.89829200  1
  O  O3  1  0.86462800  0.66109300  0.99837000  1
  O  O4  1  0.06003400  0.71674000  0.76604600  1
  O  O5  1  0.65008400  0.82424800  0.76412200  1
  O  O6  1  0.44621400  0.38250200  0.93503000  1
  O  O7  1  0.36648300  0.61003600  0.77815600  1
  O  O8  1  0.32301300  0.79065200  0.62404200  1
  O  O9  1  0.30875200  0.12305500  0.94835700  1
  O  O10  1  0.15955000  0.92118600  0.47659200  1
  O  O11  1  0.14545900  0.24963400  0.80358100  1
  O  O12  1  0.84783200  0.41847500  0.86096600  1
  O  O13  1  0.67907100  0.54084300  0.71213400  1
  O  O14  1  0.63449500  0.71533100  0.55693600  1
  O  O15  1  0.63544500  0.05612900  0.88458500  1
  O  O16  1  0.55014500  0.27925700  0.72864300  1
  O  O17  1  0.55458200  0.94814000  0.39757200  1
  O  O18  1  0.35063400  0.50585100  0.56805200  1
  O  O19  1  0.18940800  0.94624300  0.27052300  1
  O  O20  1  0.17317000  0.26885700  0.59909600  1
  O  O21  1  0.94787100  0.62357500  0.57283600  1
  O  O22  1  0.86437600  0.99421500  0.33727800  1
  O  O23  1  0.85848700  0.33290300  0.66744900  1
  O  O24  1  0.13753000  0.67181300  0.33266800  1
  O  O25  1  0.14398100  0.99752000  0.67519100  1
  O  O26  1  0.05364800  0.38192000  0.43342800  1
  O  O27  1  0.82091400  0.06488200  0.73312600  1
  O  O28  1  0.80831700  0.72046400  0.39864600  1
  O  O29  1  0.65062000  0.48640800  0.43599700  1
  O  O30  1  0.44469000  0.71600000  0.26867700  1
  O  O31  1  0.44610900  0.05006800  0.60244900  1
  O  O32  1  0.35537000  0.26827800  0.44729000  1
  O  O33  1  0.36297000  0.94435600  0.11264800  1
  O  O34  1  0.31593000  0.46199600  0.28840800  1
  O  O35  1  0.14914800  0.58407500  0.13732000  1
  O  O36  1  0.85209400  0.08497600  0.52996900  1
  O  O37  1  0.84138000  0.74325200  0.19277000  1
  O  O38  1  0.68714300  0.86941300  0.03896100  1
  O  O39  1  0.68706300  0.20472400  0.37825000  1
  O  O40  1  0.64423000  0.39579800  0.22001600  1
  O  O41  1  0.55670400  0.61011000  0.06372100  1
  O  O42  1  0.35038200  0.17854700  0.23183600  1
  O  O43  1  0.95143200  0.28955000  0.23812500  1
  O  O44  1  0.13625900  0.33574400  0.99789800  1
  O  O45  1  0.05062500  0.04450300  0.10109900  1
  O  O46  1  0.82783300  0.39752400  0.06879000  1
  O  O47  1  0.65401300  0.16098100  0.10123300  1
loop_
_geom_bond_atom_site_label_1
_geom_bond_atom_site_label_2
_geom_bond_distance
_geom_bond_site_symmetry_2
Li0 O2 1.912411 1_455
Li0 O25 1.972287 1_555
Li0 O0 1.998105 1_555
Li0 O9 2.083014 1_565
Li0 O4 2.216567 1_555
Li1 O30 1.956988 1_555
Li1 O40 1.962610 1_555
Li1 O37 1.992062 1_555
Li1 O28 2.154021 1_555
Li1 O41 2.198351 1_555
Li2 O17 1.940553 1_545
Li2 O32 1.985832 1_555
Li2 O10 1.999418 1_545
Li2 O19 2.095342 1_545
Li2 O31 2.227676 1_555
H0 O6 1.086727 1_555
H0 O41 1.347637 1_556
H1 O4 1.118014 1_555
H1 O21 1.298273 1_455
H2 O31 1.095904 1_555
H2 O16 1.328913 1_555
H3 O30 1.072327 1_555
H3 O17 1.393334 1_555
H4 O26 1.096538 1_555
H4 O43 1.335322 1_455
H5 O45 1.035661 1_555
H5 O2 1.477976 1_444
O0 P1 1.552135 1_555
O0 V2 1.965651 1_566
O1 P1 1.542720 1_555
O1 V0 1.931908 1_455
O2 P0 1.513301 1_555
O3 P8 1.572650 1_556
O3 V0 1.895202 1_555
O4 P1 1.545868 1_555
O5 P0 1.569220 1_555
O5 V1 1.852236 1_555
O6 P3 1.527331 1_555
O7 P1 1.548807 1_555
O7 V1 1.957798 1_555
O8 P2 1.551556 1_555
O8 V1 1.910460 1_555
O9 P3 1.535923 1_555
O9 V2 2.043700 1_556
O10 P2 1.541291 1_555
O10 V3 1.966892 1_455
O11 P3 1.569369 1_555
O11 V4 1.868564 1_455
O12 P4 1.550739 1_555
O12 V0 1.880514 1_555
O13 P4 1.555811 1_555
O13 V1 1.906874 1_555
O14 P5 1.579343 1_555
O14 V1 1.890138 1_555
O15 P0 1.533676 1_545
O15 V2 1.981296 1_556
O16 P4 1.497165 1_555
O17 P9 1.518244 1_565
O18 P6 1.549076 1_555
O18 V1 1.890284 1_555
O19 P11 1.551653 1_565
O19 V3 1.985399 1_455
O20 P6 1.563907 1_555
O20 V4 1.889290 1_455
O21 P5 1.507550 1_555
O22 P9 1.559564 1_565
O22 V3 1.890155 1_555
O23 P4 1.591934 1_555
O23 V4 1.859780 1_555
O24 P7 1.545679 1_555
O24 V3 1.926020 1_455
O25 P2 1.546673 1_555
O25 V4 2.117689 1_465
O26 P6 1.525500 1_555
O27 P0 1.577192 1_545
O27 V4 1.892009 1_555
O28 P5 1.551772 1_555
O28 V3 1.990933 1_555
O29 P5 1.562518 1_555
O29 V5 1.867636 1_555
O30 P7 1.558615 1_555
O31 P2 1.547307 1_545
O32 P6 1.553546 1_555
O32 V5 2.045693 1_555
O33 P11 1.535307 1_565
O33 V2 1.981229 1_565
O34 P7 1.519310 1_555
O34 V5 1.982715 1_555
O35 P7 1.550934 1_555
O35 V0 1.878569 1_454
O36 P9 1.572731 1_555
O36 V4 1.846914 1_555
O37 P8 1.559644 1_555
O37 V3 1.933327 1_555
O38 P8 1.530250 1_555
O38 V2 1.933905 1_565
O39 P9 1.528186 1_555
O39 V5 1.968981 1_555
O40 P10 1.561724 1_555
O40 V5 2.020623 1_555
O41 P8 1.519457 1_555
O42 P11 1.562252 1_555
O42 V5 1.864004 1_555
O43 P10 1.499780 1_555
O44 P3 1.557278 1_555
O44 V0 1.936600 1_455
O45 P11 1.539097 1_555
O46 P10 1.573958 1_555
O46 V0 1.873277 1_554
O47 P10 1.566159 1_555
O47 V2 1.841321 1_555
