# generated using pymatgen
data_Li7Mn8(BO3)8
_symmetry_space_group_name_H-M   'P 1'
_cell_length_a   5.24560600
_cell_length_b   9.14256809
_cell_length_c   10.46356630
_cell_angle_alpha   88.01188000
_cell_angle_beta   88.86396118
_cell_angle_gamma   89.88602964
_symmetry_Int_Tables_number   1
_chemical_formula_structural   Li7Mn8(BO3)8
_chemical_formula_sum   'Li7 Mn8 B8 O24'
_cell_volume   501.41388188
_cell_formula_units_Z   1
loop_
 _symmetry_equiv_pos_site_id
 _symmetry_equiv_pos_as_xyz
  1  'x, y, z'
loop_
 _atom_site_type_symbol
 _atom_site_label
 _atom_site_symmetry_multiplicity
 _atom_site_fract_x
 _atom_site_fract_y
 _atom_site_fract_z
 _atom_site_occupancy
  Li  Li0  1  0.91772400  0.91772700  0.60056400  1
  Li  Li1  1  0.60028100  0.57020000  0.83580500  1
  Li  Li2  1  0.56007100  0.58956100  0.32933700  1
  Li  Li3  1  0.41622200  0.41989400  0.58327900  1
  Li  Li4  1  0.42822900  0.41573100  0.08486800  1
  Li  Li5  1  0.09056800  0.07131100  0.83846100  1
  Li  Li6  1  0.06221500  0.08996500  0.33677500  1
  Mn  Mn0  1  0.92153000  0.24981500  0.61759200  1
  Mn  Mn1  1  0.92214400  0.59767200  0.11486700  1
  Mn  Mn2  1  0.57838600  0.90854500  0.86785200  1
  Mn  Mn3  1  0.57003300  0.25107000  0.36493500  1
  Mn  Mn4  1  0.42353800  0.74490800  0.61623000  1
  Mn  Mn5  1  0.41766400  0.07594000  0.12131500  1
  Mn  Mn6  1  0.08748300  0.40721500  0.87093000  1
  Mn  Mn7  1  0.07380500  0.75677000  0.36670300  1
  B  B0  1  0.92487300  0.57790200  0.62727600  1
  B  B1  1  0.91698700  0.26024800  0.13036100  1
  B  B2  1  0.59189100  0.24360300  0.87492700  1
  B  B3  1  0.58410700  0.92031000  0.38141900  1
  B  B4  1  0.42013700  0.08128000  0.63324100  1
  B  B5  1  0.40469900  0.74857400  0.11393700  1
  B  B6  1  0.08090300  0.74618900  0.86385200  1
  B  B7  1  0.07404100  0.42417900  0.37601400  1
  O  O0  1  0.95978300  0.87854000  0.85548100  1
  O  O1  1  0.94744800  0.62061000  0.90306200  1
  O  O2  1  0.95569000  0.29053500  0.40972400  1
  O  O3  1  0.92786800  0.54317100  0.33291400  1
  O  O4  1  0.84407400  0.22970900  0.83421800  1
  O  O5  1  0.84021900  0.93764600  0.40426300  1
  O  O6  1  0.66270600  0.56501500  0.64280200  1
  O  O7  1  0.65212000  0.26647600  0.15696400  1
  O  O8  1  0.57195600  0.95807000  0.67464700  1
  O  O9  1  0.53646600  0.20754700  0.58477800  1
  O  O10  1  0.53018900  0.61688600  0.13127800  1
  O  O11  1  0.52560000  0.87108000  0.05252900  1
  O  O12  1  0.48122700  0.37913900  0.89060000  1
  O  O13  1  0.46765800  0.78434200  0.41064800  1
  O  O14  1  0.44497000  0.11694400  0.90311500  1
  O  O15  1  0.43564200  0.03527000  0.33324200  1
  O  O16  1  0.34334400  0.73427300  0.83197000  1
  O  O17  1  0.33594800  0.43571400  0.38989500  1
  O  O18  1  0.16042700  0.06920600  0.64265200  1
  O  O19  1  0.16085200  0.76750600  0.16209700  1
  O  O20  1  0.08007900  0.45727300  0.65830700  1
  O  O21  1  0.03495600  0.70980400  0.58477100  1
  O  O22  1  0.04850900  0.13474300  0.15551500  1
  O  O23  1  0.04406400  0.38506300  0.07996200  1
loop_
_geom_bond_atom_site_label_1
_geom_bond_atom_site_label_2
_geom_bond_distance
_geom_bond_site_symmetry_2
Li0 O18 1.950467 1_665
Li0 O8 1.997022 1_555
Li0 O21 2.008034 1_655
Li0 O5 2.103395 1_555
Li1 O12 1.921110 1_555
Li1 O16 2.014502 1_555
Li1 O1 2.025029 1_555
Li1 O6 2.041620 1_555
Li2 O17 1.917627 1_555
Li2 O3 1.975362 1_555
Li2 O13 2.053154 1_555
Li2 O10 2.087736 1_555
Li3 O20 1.950274 1_555
Li3 O6 1.978909 1_555
Li3 O9 2.039736 1_555
Li3 O17 2.075082 1_555
Li4 O7 1.941083 1_555
Li4 O10 1.995055 1_555
Li4 O23 2.037043 1_555
Li4 O12 2.084617 1_554
Li5 O0 1.893857 1_445
Li5 O4 1.939431 1_455
Li5 O14 2.039692 1_555
Li5 O18 2.074951 1_555
Li6 O5 1.923447 1_445
Li6 O22 1.929086 1_555
Li6 O15 2.020651 1_555
Li6 O2 2.081720 1_455
Mn0 O18 2.083383 1_655
Mn0 O9 2.094519 1_555
Mn0 O20 2.132382 1_655
Mn0 O2 2.197757 1_555
Mn0 O4 2.295993 1_555
Mn1 O10 2.067440 1_555
Mn1 O19 2.075718 1_655
Mn1 O23 2.087053 1_655
Mn1 O1 2.220247 1_554
Mn1 O3 2.319144 1_555
Mn2 O11 1.965025 1_556
Mn2 O0 2.021053 1_555
Mn2 O8 2.057232 1_555
Mn2 O16 2.065760 1_555
Mn2 O14 2.071072 1_565
Mn3 O17 2.106032 1_555
Mn3 O2 2.120047 1_555
Mn3 O15 2.135355 1_555
Mn3 O7 2.209652 1_555
Mn3 O9 2.324138 1_555
Mn4 O6 2.080903 1_555
Mn4 O21 2.098275 1_555
Mn4 O13 2.176613 1_555
Mn4 O8 2.210277 1_555
Mn4 O16 2.286830 1_555
Mn5 O22 2.036816 1_555
Mn5 O11 2.102306 1_545
Mn5 O7 2.181291 1_555
Mn5 O15 2.239521 1_555
Mn5 O14 2.302539 1_554
Mn6 O12 2.094114 1_555
Mn6 O4 2.117186 1_455
Mn6 O1 2.118718 1_455
Mn6 O23 2.196934 1_556
Mn6 O20 2.256852 1_555
Mn7 O5 2.099615 1_455
Mn7 O3 2.142245 1_455
Mn7 O13 2.142688 1_555
Mn7 O19 2.179095 1_555
Mn7 O21 2.312207 1_555
B0 O6 1.386353 1_555
B0 O21 1.393155 1_655
B0 O20 1.402365 1_655
B1 O22 1.358295 1_655
B1 O23 1.404265 1_655
B1 O7 1.413002 1_555
B2 O12 1.380878 1_555
B2 O4 1.388618 1_555
B2 O14 1.411642 1_555
B3 O5 1.379622 1_555
B3 O15 1.393142 1_565
B3 O13 1.407549 1_555
B4 O18 1.368345 1_555
B4 O9 1.382778 1_555
B4 O8 1.437737 1_545
B5 O19 1.378286 1_555
B5 O10 1.379205 1_555
B5 O11 1.416422 1_555
B6 O0 1.366492 1_455
B6 O1 1.391292 1_455
B6 O16 1.414945 1_555
B7 O17 1.388979 1_555
B7 O3 1.396845 1_455
B7 O2 1.402563 1_455
