# generated using pymatgen
data_Mn3(AgO2)4
_symmetry_space_group_name_H-M   'P 1'
_cell_length_a   12.82725998
_cell_length_b   12.82725998
_cell_length_c   15.73718400
_cell_angle_alpha   90.00000000
_cell_angle_beta   90.00000000
_cell_angle_gamma   119.99999991
_symmetry_Int_Tables_number   1
_chemical_formula_structural   Mn3(AgO2)4
_chemical_formula_sum   'Mn36 Ag48 O96'
_cell_volume   2242.46384089
_cell_formula_units_Z   12
loop_
 _symmetry_equiv_pos_site_id
 _symmetry_equiv_pos_as_xyz
  1  'x, y, z'
loop_
 _atom_site_type_symbol
 _atom_site_label
 _atom_site_symmetry_multiplicity
 _atom_site_fract_x
 _atom_site_fract_y
 _atom_site_fract_z
 _atom_site_occupancy
  Mn  Mn0  1  0.04187300  0.70581300  0.83331300  1
  Mn  Mn1  1  0.43177400  0.94627700  0.53083600  1
  Mn  Mn2  1  0.12168500  0.66791700  0.99983100  1
  Mn  Mn3  1  0.33606000  0.29418700  0.83335400  1
  Mn  Mn4  1  0.70581300  0.04187300  0.16668700  1
  Mn  Mn5  1  0.54623300  0.87831500  0.66649800  1
  Mn  Mn6  1  0.23684400  0.84792700  0.13800300  1
  Mn  Mn7  1  0.29418700  0.33606000  0.16664600  1
  Mn  Mn8  1  0.33208300  0.45376700  0.33316500  1
  Mn  Mn9  1  0.63010100  0.00000000  0.83333300  1
  Mn  Mn10  1  0.84792700  0.23684400  0.86199700  1
  Mn  Mn11  1  0.10024700  0.28131400  0.86349600  1
  Mn  Mn12  1  0.00000000  0.79062600  0.66666700  1
  Mn  Mn13  1  0.45376700  0.33208300  0.66683500  1
  Mn  Mn14  1  0.36989900  0.36989900  0.50000000  1
  Mn  Mn15  1  0.05372300  0.48549700  0.86417000  1
  Mn  Mn16  1  0.56822600  0.51450300  0.80249700  1
  Mn  Mn17  1  0.66791700  0.12168500  0.00016900  1
  Mn  Mn18  1  0.18106700  0.89975300  0.53016300  1
  Mn  Mn19  1  0.51450300  0.56822600  0.19750300  1
  Mn  Mn20  1  0.95812700  0.66394000  0.50002100  1
  Mn  Mn21  1  0.79062600  0.00000000  0.33333300  1
  Mn  Mn22  1  0.87831500  0.54623300  0.33350200  1
  Mn  Mn23  1  0.89975300  0.18106700  0.46983700  1
  Mn  Mn24  1  0.15207300  0.38891800  0.47133700  1
  Mn  Mn25  1  0.66394000  0.95812700  0.49997900  1
  Mn  Mn26  1  0.71868600  0.81893300  0.19682900  1
  Mn  Mn27  1  0.38891800  0.15207300  0.52866300  1
  Mn  Mn28  1  0.20937400  0.20937400  0.00000000  1
  Mn  Mn29  1  0.61108200  0.76315600  0.80467000  1
  Mn  Mn30  1  0.48549700  0.05372300  0.13583000  1
  Mn  Mn31  1  0.94627700  0.43177400  0.46916400  1
  Mn  Mn32  1  0.81893300  0.71868600  0.80317100  1
  Mn  Mn33  1  0.28131400  0.10024700  0.13650400  1
  Mn  Mn34  1  0.76315600  0.61108200  0.19533000  1
  Mn  Mn35  1  0.00000000  0.63010100  0.16666700  1
  Ag  Ag0  1  0.36948300  0.83327100  0.91354600  1
  Ag  Ag1  1  0.79450900  0.55502700  0.98123700  1
  Ag  Ag2  1  0.44497300  0.23948200  0.31457100  1
  Ag  Ag3  1  0.22844800  0.65447100  0.57738600  1
  Ag  Ag4  1  0.68293400  0.60129500  0.59251400  1
  Ag  Ag5  1  0.67897800  0.29712500  0.24109800  1
  Ag  Ag6  1  0.96152800  0.85623900  0.34644900  1
  Ag  Ag7  1  0.53621100  0.16672900  0.75312000  1
  Ag  Ag8  1  0.06511000  0.06511000  0.50000000  1
  Ag  Ag9  1  0.39870500  0.08163900  0.92584700  1
  Ag  Ag10  1  0.00000000  0.46821000  0.66666700  1
  Ag  Ag11  1  0.32102200  0.61814700  0.09223500  1
  Ag  Ag12  1  0.46821000  0.00000000  0.33333300  1
  Ag  Ag13  1  0.53179000  0.53179000  0.00000000  1
  Ag  Ag14  1  0.42602400  0.77155200  0.24405300  1
  Ag  Ag15  1  0.57397600  0.34552900  0.08928000  1
  Ag  Ag16  1  0.77155200  0.42602400  0.75594700  1
  Ag  Ag17  1  0.34552900  0.57397600  0.91072000  1
  Ag  Ag18  1  0.31706600  0.91836100  0.74081900  1
  Ag  Ag19  1  0.16982300  0.00000000  0.83333300  1
  Ag  Ag20  1  0.03847200  0.89471100  0.98688400  1
  Ag  Ag21  1  0.38185300  0.70287500  0.42556900  1
  Ag  Ag22  1  0.77110700  0.77110700  0.00000000  1
  Ag  Ag23  1  0.63051700  0.46378900  0.41978700  1
  Ag  Ag24  1  0.93489000  0.00000000  0.83333300  1
  Ag  Ag25  1  0.14376100  0.10528900  0.67978300  1
  Ag  Ag26  1  0.08163900  0.39870500  0.07415300  1
  Ag  Ag27  1  0.16672900  0.53621100  0.24688000  1
  Ag  Ag28  1  0.23948200  0.44497300  0.68542900  1
  Ag  Ag29  1  0.76051800  0.20549100  0.64790400  1
  Ag  Ag30  1  0.85623900  0.96152800  0.65355100  1
  Ag  Ag31  1  0.00000000  0.16982300  0.16666700  1
  Ag  Ag32  1  0.91836100  0.31706600  0.25918100  1
  Ag  Ag33  1  0.70287500  0.38185300  0.57443100  1
  Ag  Ag34  1  0.83327100  0.36948300  0.08645400  1
  Ag  Ag35  1  0.65447100  0.22844800  0.42261400  1
  Ag  Ag36  1  0.46378900  0.63051700  0.58021300  1
  Ag  Ag37  1  0.00000000  0.22889300  0.66666700  1
  Ag  Ag38  1  0.22889300  0.00000000  0.33333300  1
  Ag  Ag39  1  0.00000000  0.93489000  0.16666700  1
  Ag  Ag40  1  0.10528900  0.14376100  0.32021700  1
  Ag  Ag41  1  0.60129500  0.68293400  0.40748600  1
  Ag  Ag42  1  0.83017700  0.83017700  0.50000000  1
  Ag  Ag43  1  0.61814700  0.32102200  0.90776500  1
  Ag  Ag44  1  0.29712500  0.67897800  0.75890200  1
  Ag  Ag45  1  0.20549100  0.76051800  0.35209600  1
  Ag  Ag46  1  0.89471100  0.03847200  0.01311600  1
  Ag  Ag47  1  0.55502700  0.79450900  0.01876300  1
  O  O0  1  0.91166100  0.85151200  0.72734100  1
  O  O1  1  0.94556100  0.76407300  0.88539200  1
  O  O2  1  0.14848800  0.06014900  0.06067400  1
  O  O3  1  0.06014900  0.14848800  0.93932600  1
  O  O4  1  0.93985100  0.08833900  0.39400700  1
  O  O5  1  0.25917100  0.34841200  0.92178500  1
  O  O6  1  0.60537900  0.42529000  0.72326900  1
  O  O7  1  0.99991400  0.33345200  0.40435900  1
  O  O8  1  0.23592700  0.18148800  0.21872600  1
  O  O9  1  0.08833900  0.93985100  0.60599300  1
  O  O10  1  0.10595900  0.61294500  0.78222300  1
  O  O11  1  0.12025000  0.83916200  0.75529300  1
  O  O12  1  0.08924000  0.74082900  0.58845200  1
  O  O13  1  0.95494600  0.50226000  0.24691400  1
  O  O14  1  0.00008600  0.33353800  0.92897500  1
  O  O15  1  0.42529000  0.60537900  0.27673100  1
  O  O16  1  0.65158800  0.91076000  0.25511800  1
  O  O17  1  0.76407300  0.94556100  0.11460800  1
  O  O18  1  0.80760400  0.76017000  0.13465100  1
  O  O19  1  0.27205600  0.75394000  0.05907000  1
  O  O20  1  0.59236600  0.01620000  0.58664600  1
  O  O21  1  0.49301400  0.38705500  0.88444400  1
  O  O22  1  0.34841200  0.25917100  0.07821500  1
  O  O23  1  0.19239600  0.95256600  0.19868200  1
  O  O24  1  0.81851200  0.05443900  0.55205900  1
  O  O25  1  0.17025200  0.78707100  0.91280800  1
  O  O26  1  0.28042900  0.84958300  0.47404200  1
  O  O27  1  0.71786900  0.15723800  0.78215900  1
  O  O28  1  0.57471000  0.18009000  0.05660200  1
  O  O29  1  0.75394000  0.27205600  0.94093000  1
  O  O30  1  0.48188400  0.72794400  0.72573700  1
  O  O31  1  0.05443900  0.81851200  0.44794100  1
  O  O32  1  0.68382000  0.92281100  0.74656200  1
  O  O33  1  0.47691100  0.09145000  0.46786800  1
  O  O34  1  0.71891200  0.87975000  0.42195900  1
  O  O35  1  0.45268500  0.49774000  0.41975300  1
  O  O36  1  0.82974800  0.61682000  0.42052600  1
  O  O37  1  0.92281100  0.68382000  0.25343800  1
  O  O38  1  0.33353800  0.00008600  0.07102500  1
  O  O39  1  0.50698600  0.89404100  0.44888900  1
  O  O40  1  0.33345200  0.99991400  0.59564100  1
  O  O41  1  0.78707100  0.17025200  0.08719200  1
  O  O42  1  0.07718900  0.76100900  0.07989600  1
  O  O43  1  0.31618000  0.23899100  0.58677100  1
  O  O44  1  0.38705500  0.49301400  0.11555600  1
  O  O45  1  0.51811600  0.24606000  0.60759700  1
  O  O46  1  0.42383300  0.40763400  0.25331200  1
  O  O47  1  0.04743400  0.23983000  0.53201500  1
  O  O48  1  0.72794400  0.48188400  0.27426300  1
  O  O49  1  0.87975000  0.71891200  0.57804100  1
  O  O50  1  0.18148800  0.23592700  0.78127400  1
  O  O51  1  0.38318000  0.21292900  0.75385900  1
  O  O52  1  0.71957100  0.56915400  0.85929100  1
  O  O53  1  0.43084600  0.15041700  0.19262500  1
  O  O54  1  0.61453800  0.52308900  0.13453500  1
  O  O55  1  0.15723800  0.71786900  0.21784100  1
  O  O56  1  0.90855000  0.38546200  0.80120200  1
  O  O57  1  0.28108800  0.16083800  0.91137400  1
  O  O58  1  0.61682000  0.82974800  0.57947400  1
  O  O59  1  0.84958300  0.28042900  0.52595800  1
  O  O60  1  0.91076000  0.65158800  0.74488200  1
  O  O61  1  0.81991000  0.39462100  0.38993500  1
  O  O62  1  0.54731500  0.04505400  0.91358100  1
  O  O63  1  0.40763400  0.42383300  0.74668800  1
  O  O64  1  0.52308900  0.61453800  0.86546500  1
  O  O65  1  0.98380000  0.57616700  0.91997900  1
  O  O66  1  0.84276200  0.56063100  0.11549200  1
  O  O67  1  0.24606000  0.51811600  0.39240300  1
  O  O68  1  0.85151200  0.91166100  0.27265900  1
  O  O69  1  0.49774000  0.45268500  0.58024700  1
  O  O70  1  0.56915400  0.71957100  0.14070900  1
  O  O71  1  0.83916200  0.12025000  0.24470700  1
  O  O72  1  0.23983000  0.04743400  0.46798500  1
  O  O73  1  0.66646200  0.66654800  0.26230800  1
  O  O74  1  0.61294500  0.10595900  0.21777700  1
  O  O75  1  0.18009000  0.57471000  0.94339800  1
  O  O76  1  0.38546200  0.90855000  0.19879800  1
  O  O77  1  0.76100900  0.07718900  0.92010400  1
  O  O78  1  0.04505400  0.54731500  0.08641900  1
  O  O79  1  0.76017000  0.80760400  0.86534900  1
  O  O80  1  0.09145000  0.47691100  0.53213200  1
  O  O81  1  0.21292900  0.38318000  0.24614100  1
  O  O82  1  0.50226000  0.95494600  0.75308600  1
  O  O83  1  0.74082900  0.08924000  0.41154800  1
  O  O84  1  0.15041700  0.43084600  0.80737500  1
  O  O85  1  0.57616700  0.98380000  0.08002100  1
  O  O86  1  0.56063100  0.84276200  0.88450800  1
  O  O87  1  0.16083800  0.28108800  0.08862600  1
  O  O88  1  0.39462100  0.81991000  0.61006500  1
  O  O89  1  0.66654800  0.66646200  0.73769200  1
  O  O90  1  0.28213100  0.43936900  0.55117400  1
  O  O91  1  0.23899100  0.31618000  0.41322900  1
  O  O92  1  0.43936900  0.28213100  0.44882600  1
  O  O93  1  0.89404100  0.50698600  0.55111100  1
  O  O94  1  0.95256600  0.19239600  0.80131800  1
  O  O95  1  0.01620000  0.59236600  0.41335400  1
loop_
_geom_bond_atom_site_label_1
_geom_bond_atom_site_label_2
_geom_bond_distance
_geom_bond_site_symmetry_2
Mn0 O25 1.909672 1_555
Mn0 O1 1.918254 1_455
Mn0 O10 1.928863 1_555
Mn0 O11 1.929877 1_555
Mn0 O65 1.985408 1_455
Mn0 O60 2.019708 1_455
Mn1 O88 1.907012 1_555
Mn1 O39 1.920748 1_555
Mn1 O26 1.923059 1_555
Mn1 O33 1.925279 1_565
Mn1 O20 1.992903 1_565
Mn1 O40 1.992941 1_555
Mn2 O25 1.909847 1_555
Mn2 O75 1.917061 1_555
Mn2 O19 1.918011 1_556
Mn2 O78 1.922391 1_556
Mn2 O65 2.002733 1_455
Mn2 O42 2.005201 1_556
Mn3 O51 1.909664 1_555
Mn3 O50 1.918260 1_555
Mn3 O21 1.928863 1_555
Mn3 O57 1.929877 1_555
Mn3 O63 1.985409 1_555
Mn3 O5 2.019717 1_555
Mn4 O41 1.909672 1_555
Mn4 O17 1.918254 1_545
Mn4 O74 1.928863 1_555
Mn4 O71 1.929877 1_555
Mn4 O85 1.985408 1_545
Mn4 O16 2.019708 1_545
Mn5 O58 1.909859 1_555
Mn5 O88 1.917061 1_555
Mn5 O30 1.918010 1_555
Mn5 O82 1.922405 1_555
Mn5 O20 2.002736 1_565
Mn5 O32 2.005181 1_555
Mn6 O76 1.916204 1_555
Mn6 O55 1.923787 1_555
Mn6 O19 1.935207 1_555
Mn6 O23 1.950330 1_555
Mn6 O42 1.997500 1_555
Mn6 O38 2.009484 1_565
Mn7 O81 1.909664 1_555
Mn7 O8 1.918260 1_555
Mn7 O44 1.928863 1_555
Mn7 O87 1.929877 1_555
Mn7 O46 1.985409 1_555
Mn7 O22 2.019717 1_555
Mn8 O81 1.909859 1_555
Mn8 O15 1.917069 1_555
Mn8 O67 1.918012 1_555
Mn8 O35 1.922388 1_555
Mn8 O46 2.002727 1_555
Mn8 O91 2.005183 1_555
Mn9 O82 1.915781 1_545
Mn9 O62 1.915782 1_555
Mn9 O27 1.927005 1_555
Mn9 O86 1.927012 1_545
Mn9 O32 2.000524 1_545
Mn9 O77 2.000524 1_555
Mn10 O56 1.916204 1_555
Mn10 O27 1.923787 1_555
Mn10 O29 1.935207 1_555
Mn10 O94 1.950330 1_555
Mn10 O77 1.997500 1_555
Mn10 O14 2.009484 1_655
Mn11 O84 1.907577 1_555
Mn11 O94 1.919969 1_455
Mn11 O50 1.925073 1_555
Mn11 O3 1.927488 1_555
Mn11 O5 1.995844 1_555
Mn11 O14 2.005480 1_555
Mn12 O0 1.921117 1_455
Mn12 O9 1.921117 1_555
Mn12 O11 1.936952 1_555
Mn12 O49 1.936952 1_455
Mn12 O12 1.991137 1_555
Mn12 O60 1.991145 1_455
Mn13 O51 1.909859 1_555
Mn13 O6 1.917069 1_555
Mn13 O45 1.918012 1_555
Mn13 O69 1.922388 1_555
Mn13 O63 2.002727 1_555
Mn13 O43 2.005183 1_555
Mn14 O69 1.915779 1_555
Mn14 O35 1.915779 1_555
Mn14 O92 1.927005 1_555
Mn14 O90 1.927005 1_555
Mn14 O91 2.000524 1_555
Mn14 O43 2.000524 1_555
Mn15 O75 1.906999 1_555
Mn15 O10 1.920748 1_555
Mn15 O84 1.923066 1_555
Mn15 O56 1.925277 1_455
Mn15 O65 1.992907 1_455
Mn15 O14 1.992941 1_555
Mn16 O6 1.906992 1_555
Mn16 O21 1.920748 1_555
Mn16 O52 1.923059 1_555
Mn16 O64 1.925268 1_555
Mn16 O63 1.992897 1_555
Mn16 O89 1.992941 1_555
Mn17 O41 1.909847 1_555
Mn17 O28 1.917061 1_555
Mn17 O29 1.918011 1_554
Mn17 O62 1.922391 1_554
Mn17 O85 2.002733 1_545
Mn17 O77 2.005201 1_554
Mn18 O26 1.907577 1_555
Mn18 O72 1.919969 1_565
Mn18 O31 1.925073 1_555
Mn18 O9 1.927488 1_555
Mn18 O12 1.995845 1_555
Mn18 O40 2.005472 1_555
Mn19 O15 1.906992 1_555
Mn19 O44 1.920748 1_555
Mn19 O70 1.923059 1_555
Mn19 O54 1.925268 1_555
Mn19 O46 1.992897 1_555
Mn19 O73 1.992941 1_555
Mn20 O36 1.909673 1_555
Mn20 O31 1.918260 1_655
Mn20 O93 1.928863 1_555
Mn20 O49 1.929877 1_555
Mn20 O95 1.985427 1_655
Mn20 O12 2.019709 1_655
Mn21 O68 1.921117 1_545
Mn21 O4 1.921117 1_555
Mn21 O71 1.936952 1_555
Mn21 O34 1.936952 1_545
Mn21 O83 1.991137 1_555
Mn21 O16 1.991145 1_545
Mn22 O36 1.909859 1_555
Mn22 O61 1.917061 1_555
Mn22 O48 1.918010 1_555
Mn22 O13 1.922405 1_555
Mn22 O95 2.002736 1_655
Mn22 O37 2.005181 1_555
Mn23 O59 1.907577 1_555
Mn23 O47 1.919969 1_655
Mn23 O24 1.925073 1_555
Mn23 O4 1.927488 1_555
Mn23 O83 1.995845 1_555
Mn23 O7 2.005472 1_555
Mn24 O80 1.916183 1_555
Mn24 O90 1.923778 1_555
Mn24 O67 1.935210 1_555
Mn24 O47 1.950330 1_555
Mn24 O91 1.997517 1_555
Mn24 O7 2.009482 1_455
Mn25 O58 1.909673 1_555
Mn25 O24 1.918260 1_565
Mn25 O39 1.928863 1_555
Mn25 O34 1.929877 1_555
Mn25 O20 1.985427 1_565
Mn25 O83 2.019709 1_565
Mn26 O70 1.907569 1_555
Mn26 O18 1.919969 1_555
Mn26 O17 1.925062 1_555
Mn26 O68 1.927488 1_555
Mn26 O16 1.995855 1_555
Mn26 O73 2.005480 1_555
Mn27 O33 1.916183 1_555
Mn27 O92 1.923778 1_555
Mn27 O45 1.935210 1_555
Mn27 O72 1.950330 1_555
Mn27 O43 1.997517 1_555
Mn27 O40 2.009482 1_545
Mn28 O2 1.921117 1_555
Mn28 O3 1.921117 1_554
Mn28 O57 1.936952 1_554
Mn28 O87 1.936952 1_555
Mn28 O22 1.991147 1_555
Mn28 O5 1.991147 1_554
Mn29 O64 1.916201 1_555
Mn29 O86 1.923779 1_555
Mn29 O30 1.935197 1_555
Mn29 O79 1.950340 1_555
Mn29 O32 1.997506 1_555
Mn29 O89 2.009492 1_555
Mn30 O28 1.906999 1_555
Mn30 O74 1.920748 1_555
Mn30 O53 1.923066 1_555
Mn30 O76 1.925277 1_545
Mn30 O85 1.992907 1_545
Mn30 O38 1.992941 1_555
Mn31 O61 1.907012 1_555
Mn31 O93 1.920748 1_555
Mn31 O59 1.923059 1_555
Mn31 O80 1.925279 1_655
Mn31 O95 1.992903 1_655
Mn31 O7 1.992941 1_555
Mn32 O52 1.907569 1_555
Mn32 O79 1.919969 1_555
Mn32 O1 1.925062 1_555
Mn32 O0 1.927488 1_555
Mn32 O60 1.995855 1_555
Mn32 O89 2.005480 1_555
Mn33 O53 1.907577 1_555
Mn33 O23 1.919969 1_545
Mn33 O8 1.925073 1_555
Mn33 O2 1.927488 1_555
Mn33 O22 1.995844 1_555
Mn33 O38 2.005480 1_555
Mn34 O54 1.916201 1_555
Mn34 O66 1.923779 1_555
Mn34 O48 1.935197 1_555
Mn34 O18 1.950340 1_555
Mn34 O37 1.997506 1_555
Mn34 O73 2.009492 1_555
Mn35 O13 1.915781 1_455
Mn35 O78 1.915782 1_555
Mn35 O55 1.927005 1_555
Mn35 O66 1.927012 1_455
Mn35 O37 2.000524 1_455
Mn35 O42 2.000524 1_555
Ag0 O25 2.316867 1_555
Ag0 O86 2.436593 1_555
Ag0 O62 2.527148 1_565
Ag0 O19 2.563265 1_556
Ag1 O66 2.192643 1_556
Ag1 O52 2.194065 1_555
Ag1 O65 2.498011 1_555
Ag2 O92 2.192643 1_555
Ag2 O53 2.194065 1_555
Ag2 O46 2.498029 1_555
Ag3 O80 2.186403 1_555
Ag3 O88 2.188145 1_555
Ag3 O12 2.534564 1_555
Ag4 O69 2.187662 1_555
Ag4 O49 2.211974 1_555
Ag4 O89 2.477590 1_555
Ag5 O74 2.188172 1_555
Ag5 O48 2.189753 1_555
Ag6 O31 2.186860 1_655
Ag6 O68 2.201960 1_555
Ag6 O37 2.486408 1_555
Ag7 O51 2.316867 1_555
Ag7 O27 2.436608 1_555
Ag7 O82 2.527148 1_545
Ag7 O45 2.563247 1_555
Ag8 O47 2.415840 1_555
Ag8 O72 2.415840 1_555
Ag8 O9 2.435455 1_545
Ag8 O4 2.435455 1_455
Ag9 O62 2.187668 1_555
Ag9 O57 2.211974 1_555
Ag9 O38 2.477590 1_556
Ag10 O56 2.395854 1_455
Ag10 O80 2.395857 1_555
Ag10 O93 2.465318 1_455
Ag10 O10 2.465318 1_555
Ag11 O44 2.188172 1_555
Ag11 O19 2.189753 1_555
Ag12 O76 2.395854 1_545
Ag12 O33 2.395857 1_555
Ag12 O39 2.465318 1_545
Ag12 O74 2.465318 1_555
Ag13 O64 2.395851 1_554
Ag13 O54 2.395851 1_555
Ag13 O21 2.465318 1_554
Ag13 O44 2.465318 1_555
Ag14 O76 2.186408 1_555
Ag14 O15 2.188142 1_555
Ag14 O16 2.534543 1_555
Ag15 O54 2.186408 1_555
Ag15 O28 2.188142 1_555
Ag15 O22 2.534540 1_555
Ag16 O56 2.186408 1_555
Ag16 O6 2.188142 1_555
Ag16 O60 2.534543 1_555
Ag17 O64 2.186408 1_555
Ag17 O75 2.188142 1_555
Ag17 O5 2.534540 1_555
Ag18 O82 2.187657 1_555
Ag18 O11 2.211976 1_555
Ag18 O40 2.477590 1_555
Ag19 O11 2.203900 1_545
Ag19 O57 2.203909 1_555
Ag20 O1 2.186860 1_455
Ag20 O2 2.201960 1_566
Ag20 O42 2.486417 1_556
Ag21 O39 2.188170 1_555
Ag21 O67 2.189757 1_555
Ag22 O79 2.189705 1_554
Ag22 O18 2.189705 1_555
Ag23 O36 2.316867 1_555
Ag23 O92 2.436601 1_555
Ag23 O35 2.527148 1_555
Ag23 O48 2.563267 1_555
Ag24 O94 2.415840 1_555
Ag24 O79 2.415844 1_545
Ag24 O0 2.435444 1_545
Ag24 O3 2.435455 1_655
Ag25 O50 2.186848 1_555
Ag25 O9 2.201960 1_545
Ag25 O43 2.486417 1_555
Ag26 O78 2.187668 1_555
Ag26 O87 2.211974 1_555
Ag26 O14 2.477590 1_554
Ag27 O81 2.316867 1_555
Ag27 O55 2.436608 1_555
Ag27 O13 2.527148 1_455
Ag27 O67 2.563247 1_555
Ag28 O90 2.192643 1_555
Ag28 O84 2.194065 1_555
Ag28 O63 2.498029 1_555
Ag29 O27 2.192643 1_555
Ag29 O59 2.194065 1_555
Ag29 O20 2.498016 1_555
Ag30 O24 2.186860 1_565
Ag30 O0 2.201960 1_555
Ag30 O32 2.486408 1_555
Ag31 O71 2.203900 1_455
Ag31 O87 2.203909 1_555
Ag32 O13 2.187657 1_555
Ag32 O71 2.211976 1_555
Ag32 O7 2.477590 1_555
Ag33 O93 2.188170 1_555
Ag33 O45 2.189757 1_555
Ag34 O41 2.316867 1_555
Ag34 O66 2.436593 1_555
Ag34 O78 2.527148 1_655
Ag34 O29 2.563265 1_554
Ag35 O33 2.186403 1_555
Ag35 O61 2.188145 1_555
Ag35 O83 2.534564 1_555
Ag36 O58 2.316867 1_555
Ag36 O90 2.436601 1_555
Ag36 O69 2.527148 1_555
Ag36 O30 2.563267 1_555
Ag37 O94 2.189705 1_455
Ag37 O47 2.189720 1_555
Ag38 O23 2.189705 1_545
Ag38 O72 2.189720 1_555
Ag39 O23 2.415840 1_555
Ag39 O18 2.415844 1_455
Ag39 O68 2.435444 1_455
Ag39 O2 2.435455 1_565
Ag40 O8 2.186848 1_555
Ag40 O4 2.201960 1_455
Ag40 O91 2.486417 1_555
Ag41 O35 2.187662 1_555
Ag41 O34 2.211974 1_555
Ag41 O73 2.477590 1_555
Ag42 O49 2.203909 1_555
Ag42 O34 2.203909 1_555
Ag43 O21 2.188172 1_555
Ag43 O29 2.189753 1_555
Ag44 O10 2.188172 1_555
Ag44 O30 2.189753 1_555
Ag45 O55 2.192643 1_555
Ag45 O26 2.194065 1_555
Ag45 O95 2.498016 1_555
Ag46 O17 2.186860 1_545
Ag46 O3 2.201960 1_654
Ag46 O77 2.486417 1_554
Ag47 O86 2.192643 1_554
Ag47 O70 2.194065 1_555
Ag47 O85 2.498011 1_555
