# generated using pymatgen
data_KMg2B12H19O30
_symmetry_space_group_name_H-M   'P 1'
_cell_length_a   10.28039760
_cell_length_b   10.28039760
_cell_length_c   14.80798791
_cell_angle_alpha   80.85100496
_cell_angle_beta   80.85100496
_cell_angle_gamma   48.92300607
_symmetry_Int_Tables_number   1
_chemical_formula_structural   KMg2B12H19O30
_chemical_formula_sum   'K2 Mg4 B24 H38 O60'
_cell_volume   1161.60521987
_cell_formula_units_Z   2
loop_
 _symmetry_equiv_pos_site_id
 _symmetry_equiv_pos_as_xyz
  1  'x, y, z'
loop_
 _atom_site_type_symbol
 _atom_site_label
 _atom_site_symmetry_multiplicity
 _atom_site_fract_x
 _atom_site_fract_y
 _atom_site_fract_z
 _atom_site_occupancy
  K  K0  1  0.12282900  0.87717100  0.25000000  1
  K  K1  1  0.87717100  0.12282900  0.75000000  1
  Mg  Mg0  1  0.28414700  0.44028800  0.16485200  1
  Mg  Mg1  1  0.55971200  0.71585300  0.33514800  1
  Mg  Mg2  1  0.71585300  0.55971200  0.83514800  1
  Mg  Mg3  1  0.44028800  0.28414700  0.66485200  1
  B  B0  1  0.64611500  0.35312800  0.10844900  1
  B  B1  1  0.64687200  0.35388500  0.39155100  1
  B  B2  1  0.35388500  0.64687200  0.89155100  1
  B  B3  1  0.35312800  0.64611500  0.60844900  1
  B  B4  1  0.76862400  0.09337700  0.02534700  1
  B  B5  1  0.90662300  0.23137600  0.47465300  1
  B  B6  1  0.23137600  0.90662300  0.97465300  1
  B  B7  1  0.09337700  0.76862400  0.52534700  1
  B  B8  1  0.68467500  0.09403500  0.19653100  1
  B  B9  1  0.90596500  0.31532500  0.30346900  1
  B  B10  1  0.31532500  0.90596500  0.80346900  1
  B  B11  1  0.09403500  0.68467500  0.69653100  1
  B  B12  1  0.93896800  0.53427300  0.25493600  1
  B  B13  1  0.46572700  0.06103200  0.24506400  1
  B  B14  1  0.06103200  0.46572700  0.74506400  1
  B  B15  1  0.53427300  0.93896800  0.75493600  1
  B  B16  1  0.15554200  0.23543200  0.19309500  1
  B  B17  1  0.76456800  0.84445800  0.30690500  1
  B  B18  1  0.84445800  0.76456800  0.80690500  1
  B  B19  1  0.23543200  0.15554200  0.69309500  1
  B  B20  1  0.25583000  0.26132000  0.02266400  1
  B  B21  1  0.73868000  0.74417000  0.47733600  1
  B  B22  1  0.74417000  0.73868000  0.97733600  1
  B  B23  1  0.26132000  0.25583000  0.52266400  1
  H  H0  1  0.26265300  0.73734700  0.75000000  1
  H  H1  1  0.73734700  0.26265300  0.25000000  1
  H  H2  1  0.83072900  0.36567400  0.13180500  1
  H  H3  1  0.63432600  0.16927100  0.36819500  1
  H  H4  1  0.16927100  0.63432600  0.86819500  1
  H  H5  1  0.36567400  0.83072900  0.63180500  1
  H  H6  1  0.16272700  0.07634800  0.06505700  1
  H  H7  1  0.92365200  0.83727300  0.43494300  1
  H  H8  1  0.83727300  0.92365200  0.93494300  1
  H  H9  1  0.07634800  0.16272700  0.56505700  1
  H  H10  1  0.40607000  0.58128000  0.06681200  1
  H  H11  1  0.41872000  0.59393000  0.43318800  1
  H  H12  1  0.59393000  0.41872000  0.93318800  1
  H  H13  1  0.58128000  0.40607000  0.56681200  1
  H  H14  1  0.72805600  0.86351400  0.07782900  1
  H  H15  1  0.13648600  0.27194400  0.42217100  1
  H  H16  1  0.27194400  0.13648600  0.92217100  1
  H  H17  1  0.86351400  0.72805600  0.57782900  1
  H  H18  1  0.29903000  0.42956400  0.98292400  1
  H  H19  1  0.57043600  0.70097000  0.51707600  1
  H  H20  1  0.70097000  0.57043600  0.01707600  1
  H  H21  1  0.42956400  0.29903000  0.48292400  1
  H  H22  1  0.97751600  0.77874300  0.12890900  1
  H  H23  1  0.22125700  0.02248400  0.37109100  1
  H  H24  1  0.02248400  0.22125700  0.87109100  1
  H  H25  1  0.77874300  0.97751600  0.62890900  1
  H  H26  1  0.13296600  0.73080300  0.05562800  1
  H  H27  1  0.26919700  0.86703400  0.44437200  1
  H  H28  1  0.86703400  0.26919700  0.94437200  1
  H  H29  1  0.73080300  0.13296600  0.55562800  1
  H  H30  1  0.56832800  0.62416100  0.17377500  1
  H  H31  1  0.37583900  0.43167200  0.32622500  1
  H  H32  1  0.43167200  0.37583900  0.82622500  1
  H  H33  1  0.62416100  0.56832800  0.67377500  1
  H  H34  1  0.50493700  0.81054500  0.16499000  1
  H  H35  1  0.18945500  0.49506300  0.33501000  1
  H  H36  1  0.49506300  0.18945500  0.83501000  1
  H  H37  1  0.81054500  0.50493700  0.66499000  1
  O  O0  1  0.71708700  0.25676600  0.02421100  1
  O  O1  1  0.74323400  0.28291300  0.47578900  1
  O  O2  1  0.28291300  0.74323400  0.97578900  1
  O  O3  1  0.25676600  0.71708700  0.52421100  1
  O  O4  1  0.69789900  0.23052600  0.18955200  1
  O  O5  1  0.76947400  0.30210100  0.31044800  1
  O  O6  1  0.30210100  0.76947400  0.81044800  1
  O  O7  1  0.23052600  0.69789900  0.68955200  1
  O  O8  1  0.75681700  0.01012500  0.10527300  1
  O  O9  1  0.98987500  0.24318300  0.39472700  1
  O  O10  1  0.24318300  0.98987500  0.89472700  1
  O  O11  1  0.01012500  0.75681700  0.60527300  1
  O  O12  1  0.02304900  0.22404700  0.22704100  1
  O  O13  1  0.77595300  0.97695100  0.27295900  1
  O  O14  1  0.97695100  0.77595300  0.77295900  1
  O  O15  1  0.22404700  0.02304900  0.72704100  1
  O  O16  1  0.49666500  0.17251100  0.20740500  1
  O  O17  1  0.82748900  0.50333500  0.29259500  1
  O  O18  1  0.50333500  0.82748900  0.79259500  1
  O  O19  1  0.17251100  0.49666500  0.70740500  1
  O  O20  1  0.31541700  0.09673500  0.23807200  1
  O  O21  1  0.90326500  0.68458300  0.26192800  1
  O  O22  1  0.68458300  0.90326500  0.76192800  1
  O  O23  1  0.09673500  0.31541700  0.73807200  1
  O  O24  1  0.09852900  0.40749000  0.21011400  1
  O  O25  1  0.59251000  0.90147100  0.28988600  1
  O  O26  1  0.90147100  0.59251000  0.78988600  1
  O  O27  1  0.40749000  0.09852900  0.71011400  1
  O  O28  1  0.18818100  0.21219400  0.09174800  1
  O  O29  1  0.78780600  0.81181900  0.40825200  1
  O  O30  1  0.81181900  0.78780600  0.90825200  1
  O  O31  1  0.21219400  0.18818100  0.59174800  1
  O  O32  1  0.71448400  0.44267100  0.10855000  1
  O  O33  1  0.55732900  0.28551600  0.39145000  1
  O  O34  1  0.28551600  0.55732900  0.89145000  1
  O  O35  1  0.44267100  0.71448400  0.60855000  1
  O  O36  1  0.16529000  0.97989300  0.05725300  1
  O  O37  1  0.02010700  0.83471000  0.44274700  1
  O  O38  1  0.83471000  0.02010700  0.94274700  1
  O  O39  1  0.97989300  0.16529000  0.55725300  1
  O  O40  1  0.45618700  0.48108500  0.11249000  1
  O  O41  1  0.51891500  0.54381300  0.38751000  1
  O  O42  1  0.54381300  0.51891500  0.88751000  1
  O  O43  1  0.48108500  0.45618700  0.61249000  1
  O  O44  1  0.70384500  0.78957800  0.06527600  1
  O  O45  1  0.21042200  0.29615500  0.43472400  1
  O  O46  1  0.29615500  0.21042200  0.93472400  1
  O  O47  1  0.78957800  0.70384500  0.56527600  1
  O  O48  1  0.28911600  0.36690800  0.03905200  1
  O  O49  1  0.63309200  0.71088400  0.46094800  1
  O  O50  1  0.71088400  0.63309200  0.96094800  1
  O  O51  1  0.36690800  0.28911600  0.53905200  1
  O  O52  1  0.10371800  0.69561600  0.11552900  1
  O  O53  1  0.30438400  0.89628200  0.38447100  1
  O  O54  1  0.89628200  0.30438400  0.88447100  1
  O  O55  1  0.69561600  0.10371800  0.61552900  1
  O  O56  1  0.49137400  0.73432600  0.20517400  1
  O  O57  1  0.26567400  0.50862600  0.29482600  1
  O  O58  1  0.50862600  0.26567400  0.79482600  1
  O  O59  1  0.73432600  0.49137400  0.70517400  1
loop_
_geom_bond_atom_site_label_1
_geom_bond_atom_site_label_2
_geom_bond_distance
_geom_bond_site_symmetry_2
K0 O36 2.950126 1_555
K0 O37 2.950126 1_555
K0 O13 2.966920 1_455
K0 O12 2.966920 1_565
K0 O57 3.024987 1_555
K0 O56 3.024987 1_555
K0 O52 3.045573 1_555
K0 O53 3.045573 1_555
K1 O39 2.950126 1_555
K1 O38 2.950126 1_555
K1 O14 2.966920 1_545
K1 O15 2.966920 1_655
K1 O58 3.024987 1_555
K1 O59 3.024987 1_555
K1 O54 3.045573 1_555
K1 O55 3.045573 1_555
Mg0 O52 2.070460 1_555
Mg0 O40 2.083386 1_555
Mg0 O57 2.091015 1_555
Mg0 O48 2.099492 1_555
Mg0 O24 2.138034 1_555
Mg0 O16 2.175066 1_555
Mg1 O53 2.070460 1_555
Mg1 O41 2.083386 1_555
Mg1 O56 2.091015 1_555
Mg1 O49 2.099492 1_555
Mg1 O25 2.138034 1_555
Mg1 O17 2.175066 1_555
Mg2 O54 2.070460 1_555
Mg2 O42 2.083386 1_555
Mg2 O59 2.091015 1_555
Mg2 O50 2.099492 1_555
Mg2 O26 2.138034 1_555
Mg2 O18 2.175066 1_555
Mg3 O55 2.070460 1_555
Mg3 O43 2.083386 1_555
Mg3 O58 2.091015 1_555
Mg3 O51 2.099492 1_555
Mg3 O27 2.138034 1_555
Mg3 O19 2.175066 1_555
B0 O4 1.467829 1_555
B0 O40 1.469329 1_555
B0 O32 1.480689 1_555
B0 O0 1.491106 1_555
B1 O5 1.467829 1_555
B1 O41 1.469329 1_555
B1 O33 1.480689 1_555
B1 O1 1.491106 1_555
B2 O6 1.467829 1_555
B2 O42 1.469329 1_555
B2 O34 1.480689 1_555
B2 O2 1.491106 1_555
B3 O7 1.467829 1_555
B3 O43 1.469329 1_555
B3 O35 1.480689 1_555
B3 O3 1.491106 1_555
B4 O38 1.371582 1_554
B4 O8 1.384458 1_555
B4 O0 1.388068 1_555
B5 O39 1.371582 1_555
B5 O9 1.384458 1_555
B5 O1 1.388068 1_555
B6 O36 1.371582 1_556
B6 O10 1.384458 1_555
B6 O2 1.388068 1_555
B7 O37 1.371582 1_555
B7 O11 1.384458 1_555
B7 O3 1.388068 1_555
B8 O13 1.424927 1_545
B8 O4 1.482628 1_555
B8 O16 1.518465 1_555
B8 O8 1.526942 1_555
B9 O12 1.424927 1_655
B9 O5 1.482628 1_555
B9 O17 1.518465 1_555
B9 O9 1.526942 1_555
B10 O15 1.424927 1_565
B10 O6 1.482628 1_555
B10 O18 1.518465 1_555
B10 O10 1.526942 1_555
B11 O14 1.424927 1_455
B11 O7 1.482628 1_555
B11 O19 1.518465 1_555
B11 O11 1.526942 1_555
B12 O21 1.351546 1_555
B12 O17 1.394611 1_555
B12 O24 1.396178 1_655
B13 O20 1.351546 1_555
B13 O16 1.394611 1_555
B13 O25 1.396178 1_545
B14 O23 1.351546 1_555
B14 O19 1.394611 1_555
B14 O26 1.396178 1_455
B15 O22 1.351546 1_555
B15 O18 1.394611 1_555
B15 O27 1.396178 1_565
B16 O12 1.447309 1_555
B16 O20 1.464378 1_555
B16 O24 1.506037 1_555
B16 O28 1.506795 1_555
B17 O13 1.447309 1_555
B17 O21 1.464378 1_555
B17 O25 1.506037 1_555
B17 O29 1.506795 1_555
B18 O14 1.447309 1_555
B18 O22 1.464378 1_555
B18 O26 1.506037 1_555
B18 O30 1.506795 1_555
B19 O15 1.447309 1_555
B19 O23 1.464378 1_555
B19 O27 1.506037 1_555
B19 O31 1.506795 1_555
B20 O28 1.362450 1_555
B20 O46 1.378899 1_554
B20 O48 1.397347 1_555
B21 O29 1.362450 1_555
B21 O47 1.378899 1_555
B21 O49 1.397347 1_555
B22 O30 1.362450 1_555
B22 O44 1.378899 1_556
B22 O50 1.397347 1_555
B23 O31 1.362450 1_555
B23 O45 1.378899 1_555
B23 O51 1.397347 1_555
H0 O7 1.208406 1_555
H0 O6 1.208406 1_555
H1 O4 1.208406 1_555
H1 O5 1.208406 1_555
H2 O32 0.987093 1_555
H3 O33 0.987093 1_555
H4 O34 0.987093 1_555
H5 O35 0.987093 1_555
H6 O36 0.999224 1_545
H6 O28 1.692251 1_555
H7 O37 0.999224 1_655
H7 O29 1.692251 1_555
H8 O38 0.999224 1_565
H8 O30 1.692251 1_555
H9 O39 0.999224 1_455
H9 O31 1.692251 1_555
H10 O40 0.987828 1_555
H11 O41 0.987828 1_555
H12 O42 0.987828 1_555
H13 O43 0.987828 1_555
H14 O44 0.991213 1_555
H15 O45 0.991213 1_555
H16 O46 0.991213 1_555
H17 O47 0.991213 1_555
H18 O48 1.002584 1_556
H19 O49 1.002584 1_555
H20 O50 1.002584 1_554
H21 O51 1.002584 1_555
H22 O52 0.983811 1_655
H23 O53 0.983811 1_545
H24 O54 0.983811 1_455
H25 O55 0.983811 1_565
H26 O52 0.981906 1_555
H27 O53 0.981906 1_555
H28 O54 0.981906 1_555
H29 O55 0.981906 1_555
H30 O56 0.998871 1_555
H31 O57 0.998871 1_555
H32 O58 0.998871 1_555
H33 O59 0.998871 1_555
H34 O56 0.977961 1_555
H35 O57 0.977961 1_555
H36 O58 0.977961 1_555
H37 O59 0.977961 1_555
