# generated using pymatgen
data_Na2LiTi3Al(PO4)6
_symmetry_space_group_name_H-M   'P 1'
_cell_length_a   8.56462400
_cell_length_b   8.57556563
_cell_length_c   8.77630184
_cell_angle_alpha   61.14090065
_cell_angle_beta   61.12160907
_cell_angle_gamma   60.23985053
_symmetry_Int_Tables_number   1
_chemical_formula_structural   Na2LiTi3Al(PO4)6
_chemical_formula_sum   'Na2 Li1 Ti3 Al1 P6 O24'
_cell_volume   464.29350339
_cell_formula_units_Z   1
loop_
 _symmetry_equiv_pos_site_id
 _symmetry_equiv_pos_as_xyz
  1  'x, y, z'
loop_
 _atom_site_type_symbol
 _atom_site_label
 _atom_site_symmetry_multiplicity
 _atom_site_fract_x
 _atom_site_fract_y
 _atom_site_fract_z
 _atom_site_occupancy
  Na  Na0  1  0.98935400  0.99771100  0.99854600  1
  Na  Na1  1  0.50317000  0.51202300  0.49708000  1
  Li  Li0  1  0.34607600  0.15226900  0.74382500  1
  Ti  Ti0  1  0.35255300  0.36078900  0.93863300  1
  Ti  Ti1  1  0.85674400  0.85778000  0.42895500  1
  Ti  Ti2  1  0.64246800  0.64697900  0.06865700  1
  Al  Al0  1  0.13953900  0.14705100  0.56289300  1
  P  P0  1  0.45741800  0.75844900  0.74721300  1
  P  P1  1  0.75438800  0.03951500  0.74753200  1
  P  P2  1  0.03354900  0.46172600  0.74804800  1
  P  P3  1  0.96213800  0.53188200  0.25723600  1
  P  P4  1  0.24857400  0.96673400  0.25171500  1
  P  P5  1  0.52979100  0.25034600  0.26091800  1
  O  O0  1  0.27977800  0.93962000  0.73546200  1
  O  O1  1  0.42838000  0.58684700  0.76216300  1
  O  O2  1  0.62997100  0.78782500  0.57545200  1
  O  O3  1  0.71770100  0.86935800  0.92189100  1
  O  O4  1  0.92403300  0.06858800  0.73230800  1
  O  O5  1  0.57023200  0.21756300  0.75914800  1
  O  O6  1  0.86443000  0.49585600  0.92076500  1
  O  O7  1  0.22349300  0.42947700  0.76075000  1
  O  O8  1  0.99646000  0.36504800  0.42623400  1
  O  O9  1  0.94028700  0.71954900  0.26215900  1
  O  O10  1  0.49226600  0.72087600  0.92160800  1
  O  O11  1  0.21489800  0.00275900  0.42063200  1
  O  O12  1  0.78512900  0.00456600  0.57627500  1
  O  O13  1  0.49507900  0.28740200  0.08530200  1
  O  O14  1  0.06757200  0.27386800  0.73434300  1
  O  O15  1  0.00203200  0.63346900  0.57725400  1
  O  O16  1  0.77886100  0.55883200  0.23892400  1
  O  O17  1  0.13038800  0.50197100  0.07926600  1
  O  O18  1  0.42236400  0.78211700  0.23740400  1
  O  O19  1  0.07661400  0.94108000  0.26171000  1
  O  O20  1  0.28670400  0.13076400  0.06949100  1
  O  O21  1  0.36485800  0.21383000  0.43601700  1
  O  O22  1  0.55679800  0.42531600  0.24088500  1
  O  O23  1  0.71690900  0.07916200  0.26330800  1
loop_
_geom_bond_atom_site_label_1
_geom_bond_atom_site_label_2
_geom_bond_distance
_geom_bond_site_symmetry_2
Na0 O4 2.386665 1_565
Na0 O9 2.438848 1_556
Na0 O23 2.458353 1_566
Na0 O0 2.469642 1_655
Na0 O14 2.491484 1_665
Na0 O19 2.520485 1_656
Na1 O16 2.401107 1_555
Na1 O1 2.414120 1_555
Na1 O18 2.423670 1_555
Na1 O22 2.469143 1_555
Na1 O5 2.495203 1_555
Na1 O7 2.518261 1_555
Li0 O14 2.102993 1_555
Li0 O7 2.118496 1_555
Li0 O0 2.202424 1_545
Li0 O5 2.325190 1_555
Li0 O21 2.426958 1_555
Li0 O20 2.577216 1_556
Al0 O8 1.848231 1_455
Al0 O11 1.851119 1_555
Al0 O4 1.920048 1_455
Al0 O21 1.922983 1_555
Al0 O14 1.960893 1_555
Al0 O0 1.983944 1_545
O0 P0 1.545789 1_555
O1 P0 1.545979 1_555
O1 Ti0 1.989611 1_555
O2 P0 1.539826 1_555
O2 Ti1 1.945589 1_555
O3 P1 1.550763 1_565
O3 Ti2 1.938572 1_556
O4 P1 1.526765 1_555
O5 P1 1.559990 1_555
O5 Ti0 2.055101 1_555
O6 P2 1.538844 1_655
O6 Ti2 1.942357 1_556
O7 P2 1.560179 1_555
O7 Ti0 2.034381 1_555
O8 P3 1.512731 1_555
O9 P3 1.545061 1_555
O9 Ti1 1.970121 1_555
O10 P0 1.550862 1_555
O10 Ti2 1.930493 1_556
O11 P4 1.522163 1_545
O12 P1 1.546750 1_555
O12 Ti1 1.915976 1_545
O13 P5 1.562324 1_555
O13 Ti0 1.875130 1_554
O14 P2 1.543318 1_555
O15 P2 1.534241 1_555
O15 Ti1 1.927139 1_455
O16 P3 1.546243 1_555
O16 Ti2 1.971811 1_555
O17 P3 1.558102 1_455
O17 Ti0 1.869970 1_554
O18 P4 1.552333 1_555
O18 Ti2 1.970104 1_555
O19 P4 1.550288 1_555
O19 Ti1 1.965781 1_455
O20 P4 1.556578 1_545
O20 Ti0 1.954503 1_554
O21 P5 1.527366 1_555
O22 P5 1.544805 1_555
O22 Ti2 1.994050 1_555
O23 P5 1.546282 1_555
O23 Ti1 1.977956 1_545
