# generated using pymatgen
data_Na5LiNi2P2(CO7)2
_symmetry_space_group_name_H-M   'P 1'
_cell_length_a   8.47343052
_cell_length_b   8.47351537
_cell_length_c   9.98539328
_cell_angle_alpha   72.98482598
_cell_angle_beta   107.01508650
_cell_angle_gamma   75.28625214
_symmetry_Int_Tables_number   1
_chemical_formula_structural   Na5LiNi2P2(CO7)2
_chemical_formula_sum   'Na10 Li2 Ni4 P4 C4 O28'
_cell_volume   608.66088151
_cell_formula_units_Z   2
loop_
 _symmetry_equiv_pos_site_id
 _symmetry_equiv_pos_as_xyz
  1  'x, y, z'
loop_
 _atom_site_type_symbol
 _atom_site_label
 _atom_site_symmetry_multiplicity
 _atom_site_fract_x
 _atom_site_fract_y
 _atom_site_fract_z
 _atom_site_occupancy
  Na  Na0  1  0.94653000  0.80345200  0.91580400  1
  Na  Na1  1  0.44653700  0.30343900  0.91578000  1
  Na  Na2  1  0.26636200  0.74250600  0.26700000  1
  Na  Na3  1  0.76642600  0.24244700  0.26697000  1
  Na  Na4  1  0.50745700  0.98358000  0.26699300  1
  Na  Na5  1  0.00751300  0.48357100  0.26696700  1
  Na  Na6  1  0.98691900  0.52058800  0.72840000  1
  Na  Na7  1  0.48688700  0.02066900  0.72839500  1
  Na  Na8  1  0.22933800  0.76308500  0.72838500  1
  Na  Na9  1  0.72941700  0.26305500  0.72838600  1
  Li  Li0  1  0.56395200  0.68602000  0.10460800  1
  Li  Li1  1  0.06392400  0.18603600  0.10455200  1
  Ni  Ni0  1  0.93536500  0.81458400  0.34335200  1
  Ni  Ni1  1  0.43539400  0.31469500  0.34325900  1
  Ni  Ni2  1  0.05823500  0.19171000  0.65105800  1
  Ni  Ni3  1  0.55839900  0.69185600  0.65111300  1
  P  P0  1  0.68983800  0.56015600  0.41132100  1
  P  P1  1  0.18981100  0.06019400  0.41129200  1
  P  P2  1  0.80327200  0.94675500  0.58239900  1
  P  P3  1  0.30330000  0.44677700  0.58240500  1
  C  C0  1  0.76291500  0.98704900  0.06054500  1
  C  C1  1  0.26290100  0.48706100  0.06049400  1
  C  C2  1  0.74620900  0.50376900  0.94635800  1
  C  C3  1  0.24623100  0.00378300  0.94638200  1
  O  O0  1  0.35814500  0.89175600  0.08203300  1
  O  O1  1  0.85817700  0.39177200  0.08198500  1
  O  O2  1  0.90561000  0.84436000  0.11865500  1
  O  O3  1  0.40559900  0.34437900  0.11859300  1
  O  O4  1  0.71007100  0.03987400  0.15585200  1
  O  O5  1  0.21010300  0.53988500  0.15582600  1
  O  O6  1  0.65821300  0.09176500  0.42991200  1
  O  O7  1  0.15820000  0.59178100  0.42992000  1
  O  O8  1  0.55940700  0.69055100  0.44828900  1
  O  O9  1  0.05941900  0.19062300  0.44825500  1
  O  O10  1  0.93569400  0.81421200  0.54800200  1
  O  O11  1  0.43570700  0.31434400  0.54789800  1
  O  O12  1  0.83611900  0.41391500  0.56316800  1
  O  O13  1  0.33606900  0.91395000  0.56318400  1
  O  O14  1  0.76925200  0.48077300  0.82816900  1
  O  O15  1  0.26928000  0.98079100  0.82819600  1
  O  O16  1  0.61133300  0.63865800  0.92324400  1
  O  O17  1  0.11135100  0.13869200  0.92326100  1
  O  O18  1  0.17727700  0.57266800  0.91527100  1
  O  O19  1  0.67733300  0.07263800  0.91531000  1
  O  O20  1  0.58376900  0.48305100  0.30859600  1
  O  O21  1  0.08367900  0.98314100  0.30857000  1
  O  O22  1  0.76691300  0.66623900  0.30858300  1
  O  O23  1  0.26685100  0.16625500  0.30851200  1
  O  O24  1  0.72287000  0.84147300  0.68216600  1
  O  O25  1  0.22299300  0.34127900  0.68216100  1
  O  O26  1  0.90875700  0.02711900  0.68208200  1
  O  O27  1  0.40868100  0.52721500  0.68208700  1
loop_
_geom_bond_atom_site_label_1
_geom_bond_atom_site_label_2
_geom_bond_distance
_geom_bond_site_symmetry_2
Na0 O2 2.259229 1_556
Na0 O18 2.391024 1_655
Na0 O24 2.408435 1_555
Na0 O26 2.409793 1_565
Na0 O5 2.630761 1_656
Na0 O19 2.783826 1_565
Na1 O3 2.259015 1_556
Na1 O19 2.391063 1_555
Na1 O25 2.408378 1_555
Na1 O27 2.409778 1_555
Na1 O4 2.630841 1_556
Na1 O18 2.784303 1_555
Na2 O7 2.317088 1_555
Na2 O0 2.364061 1_555
Na2 O5 2.372533 1_555
Na2 O8 2.446253 1_555
Na2 O21 2.448291 1_555
Na2 O2 2.746777 1_455
Na2 O20 2.836831 1_555
Na3 O6 2.317390 1_555
Na3 O1 2.364251 1_555
Na3 O4 2.372017 1_555
Na3 O9 2.446232 1_655
Na3 O20 2.448332 1_555
Na3 O3 2.747288 1_555
Na3 O21 2.835272 1_645
Na4 O6 2.317347 1_565
Na4 O0 2.364459 1_555
Na4 O4 2.372332 1_565
Na4 O8 2.446208 1_555
Na4 O23 2.447769 1_565
Na4 O3 2.747214 1_565
Na4 O22 2.836469 1_555
Na5 O7 2.317466 1_555
Na5 O1 2.364550 1_455
Na5 O5 2.372189 1_555
Na5 O9 2.445770 1_555
Na5 O22 2.448284 1_455
Na5 O2 2.746985 1_455
Na5 O23 2.835988 1_555
Na6 O18 2.315252 1_655
Na6 O12 2.323285 1_555
Na6 O14 2.388054 1_555
Na6 O25 2.435222 1_655
Na6 O10 2.448342 1_555
Na7 O19 2.315353 1_555
Na7 O13 2.323501 1_545
Na7 O15 2.387888 1_545
Na7 O24 2.434156 1_545
Na7 O11 2.449164 1_555
Na8 O18 2.315511 1_555
Na8 O13 2.323682 1_555
Na8 O15 2.388863 1_555
Na8 O27 2.434485 1_555
Na8 O10 2.448641 1_455
Na9 O19 2.315878 1_555
Na9 O12 2.323594 1_555
Na9 O14 2.388594 1_555
Na9 O26 2.434911 1_555
Na9 O11 2.449062 1_555
Li0 O0 2.031430 1_555
Li0 O16 2.090684 1_554
Li0 O22 2.176679 1_555
Li0 O20 2.176687 1_555
Li1 O1 2.031152 1_455
Li1 O17 2.090065 1_554
Li1 O23 2.176434 1_555
Li1 O21 2.176789 1_545
Ni0 O7 2.038516 1_655
Ni0 O10 2.041775 1_555
Ni0 O2 2.113449 1_555
Ni0 O22 2.148203 1_555
Ni0 O21 2.148692 1_655
Ni0 O4 2.181558 1_565
Ni1 O6 2.038950 1_555
Ni1 O11 2.041757 1_555
Ni1 O3 2.113240 1_555
Ni1 O20 2.147637 1_555
Ni1 O23 2.149408 1_555
Ni1 O5 2.180976 1_555
Ni2 O12 2.030693 1_455
Ni2 O9 2.030725 1_555
Ni2 O15 2.048390 1_545
Ni2 O26 2.125893 1_455
Ni2 O25 2.127697 1_555
Ni2 O17 2.501782 1_555
Ni3 O8 2.031041 1_555
Ni3 O13 2.031144 1_555
Ni3 O14 2.048007 1_555
Ni3 O24 2.126101 1_555
Ni3 O27 2.127790 1_555
Ni3 O16 2.501080 1_555
C0 O19 1.287176 1_564
C0 O2 1.302575 1_555
C0 O4 1.305156 1_565
C1 O18 1.287127 1_554
C1 O3 1.302566 1_555
C1 O5 1.305202 1_555
C2 O1 1.293568 1_556
C2 O16 1.301342 1_555
C2 O14 1.311105 1_555
C3 O0 1.293667 1_546
C3 O17 1.301441 1_555
C3 O15 1.311082 1_545
O6 P2 1.543232 1_545
O7 P3 1.543312 1_555
O8 P0 1.560671 1_555
O9 P1 1.560613 1_555
O10 P2 1.565097 1_555
O11 P3 1.565164 1_555
O12 P0 1.546339 1_555
O13 P1 1.546516 1_565
O20 P0 1.561339 1_555
O21 P1 1.561248 1_565
O22 P0 1.561282 1_555
O23 P1 1.561222 1_555
O24 P2 1.561492 1_555
O25 P3 1.561716 1_555
O26 P2 1.561599 1_545
O27 P3 1.561637 1_555
