# generated using pymatgen
data_Na2FeO3
_symmetry_space_group_name_H-M   'P 1'
_cell_length_a   5.55700601
_cell_length_b   6.13466597
_cell_length_c   11.14643300
_cell_angle_alpha   90.00189661
_cell_angle_beta   90.00002053
_cell_angle_gamma   116.93787587
_symmetry_Int_Tables_number   1
_chemical_formula_structural   Na2FeO3
_chemical_formula_sum   'Na8 Fe4 O12'
_cell_volume   338.75693227
_cell_formula_units_Z   4
loop_
 _symmetry_equiv_pos_site_id
 _symmetry_equiv_pos_as_xyz
  1  'x, y, z'
loop_
 _atom_site_type_symbol
 _atom_site_label
 _atom_site_symmetry_multiplicity
 _atom_site_fract_x
 _atom_site_fract_y
 _atom_site_fract_z
 _atom_site_occupancy
  Na  Na0  1  0.03672400  0.07308300  0.14274400  1
  Na  Na1  1  0.46329500  0.92697300  0.64276500  1
  Na  Na2  1  0.53671900  0.07305900  0.35724700  1
  Na  Na3  1  0.96328300  0.92694200  0.85723000  1
  Na  Na4  1  0.12422700  0.24884600  0.58320100  1
  Na  Na5  1  0.37576200  0.75111200  0.08319500  1
  Na  Na6  1  0.87577300  0.75114300  0.41680100  1
  Na  Na7  1  0.62423300  0.24886800  0.91681100  1
  Fe  Fe0  1  0.25842600  0.51686800  0.84444300  1
  Fe  Fe1  1  0.75839100  0.51679400  0.65555400  1
  Fe  Fe2  1  0.24156400  0.48312600  0.34438900  1
  Fe  Fe3  1  0.74164400  0.48328800  0.15561900  1
  O  O0  1  0.05067000  0.60135500  0.25002200  1
  O  O1  1  0.55067300  0.60135200  0.25002200  1
  O  O2  1  0.44931900  0.39865700  0.74999000  1
  O  O3  1  0.94934500  0.39865300  0.74999000  1
  O  O4  1  0.07889200  0.15771600  0.35779400  1
  O  O5  1  0.42112000  0.84231700  0.85778500  1
  O  O6  1  0.57891100  0.15774200  0.14221100  1
  O  O7  1  0.92108800  0.84224000  0.64220600  1
  O  O8  1  0.34433000  0.68876200  0.46674600  1
  O  O9  1  0.15563500  0.31115100  0.96677000  1
  O  O10  1  0.65564700  0.31118100  0.53319100  1
  O  O11  1  0.84432900  0.68877100  0.03327300  1
loop_
_geom_bond_atom_site_label_1
_geom_bond_atom_site_label_2
_geom_bond_distance
_geom_bond_site_symmetry_2
Na0 O9 2.354319 1_554
Na0 O11 2.430302 1_445
Na0 O4 2.441303 1_555
Na0 O6 2.815987 1_555
Na0 O6 2.817657 1_455
Na1 O8 2.355089 1_555
Na1 O10 2.430466 1_565
Na1 O5 2.441033 1_555
Na1 O7 2.815961 1_455
Na1 O7 2.817818 1_555
Na2 O10 2.354123 1_555
Na2 O8 2.430467 1_545
Na2 O6 2.441236 1_555
Na2 O4 2.815914 1_655
Na2 O4 2.817727 1_555
Na3 O11 2.355272 1_556
Na3 O9 2.430201 1_665
Na3 O7 2.441090 1_555
Na3 O5 2.815918 1_555
Na3 O5 2.817666 1_655
Na4 O7 2.318991 1_445
Na4 O3 2.460566 1_455
Na4 O2 2.461720 1_555
Na4 O4 2.561422 1_555
Na4 O8 2.733796 1_555
Na4 O10 2.852976 1_455
Na4 O10 2.855630 1_555
Na5 O6 2.319105 1_565
Na5 O1 2.460863 1_555
Na5 O0 2.462074 1_555
Na5 O5 2.561571 1_554
Na5 O9 2.733768 1_554
Na5 O11 2.852730 1_555
Na5 O11 2.855491 1_455
Na6 O4 2.318824 1_665
Na6 O0 2.460464 1_655
Na6 O1 2.461656 1_555
Na6 O7 2.561365 1_555
Na6 O10 2.733673 1_555
Na6 O8 2.852865 1_655
Na6 O8 2.855519 1_555
Na7 O5 2.318722 1_545
Na7 O2 2.460920 1_555
Na7 O3 2.462093 1_555
Na7 O6 2.561377 1_556
Na7 O11 2.733685 1_556
Na7 O9 2.852784 1_555
Na7 O9 2.855523 1_655
Fe0 O9 1.767786 1_555
Fe0 O5 1.786091 1_555
Fe0 O3 1.858966 1_455
Fe0 O2 1.859178 1_555
Fe1 O10 1.767669 1_555
Fe1 O7 1.786092 1_555
Fe1 O2 1.858863 1_555
Fe1 O3 1.859072 1_555
Fe2 O8 1.767697 1_555
Fe2 O4 1.785949 1_555
Fe2 O1 1.858566 1_555
Fe2 O0 1.858737 1_555
Fe3 O11 1.767135 1_555
Fe3 O6 1.786681 1_555
Fe3 O0 1.858448 1_655
Fe3 O1 1.858601 1_555
