# generated using pymatgen
data_Na3NiO2
_symmetry_space_group_name_H-M   'P 1'
_cell_length_a   8.54185700
_cell_length_b   5.91864100
_cell_length_c   7.98975007
_cell_angle_alpha   67.16979617
_cell_angle_beta   90.00000000
_cell_angle_gamma   90.00000000
_symmetry_Int_Tables_number   1
_chemical_formula_structural   Na3NiO2
_chemical_formula_sum   'Na12 Ni4 O8'
_cell_volume   372.28679831
_cell_formula_units_Z   4
loop_
 _symmetry_equiv_pos_site_id
 _symmetry_equiv_pos_as_xyz
  1  'x, y, z'
loop_
 _atom_site_type_symbol
 _atom_site_label
 _atom_site_symmetry_multiplicity
 _atom_site_fract_x
 _atom_site_fract_y
 _atom_site_fract_z
 _atom_site_occupancy
  Na  Na0  1  0.78604500  0.73550000  0.68856600  1
  Na  Na1  1  0.53199900  0.23999700  0.12510000  1
  Na  Na2  1  0.96518400  0.25170100  0.99982200  1
  Na  Na3  1  0.28604500  0.26450000  0.81143400  1
  Na  Na4  1  0.96800100  0.23999700  0.62510000  1
  Na  Na5  1  0.53481600  0.25170100  0.49982200  1
  Na  Na6  1  0.46518400  0.74829900  0.50017800  1
  Na  Na7  1  0.03199900  0.76000300  0.37490000  1
  Na  Na8  1  0.71395500  0.73550000  0.18856600  1
  Na  Na9  1  0.03481600  0.74829900  0.00017800  1
  Na  Na10  1  0.46800100  0.76000300  0.87490000  1
  Na  Na11  1  0.21395500  0.26450000  0.31143400  1
  Ni  Ni0  1  0.17279100  0.79495500  0.67221000  1
  Ni  Ni1  1  0.67279100  0.20504500  0.82779000  1
  Ni  Ni2  1  0.32720900  0.79495500  0.17221000  1
  Ni  Ni3  1  0.82720900  0.20504500  0.32779000  1
  O  O0  1  0.03971700  0.54420800  0.72167400  1
  O  O1  1  0.53971700  0.45579200  0.77832600  1
  O  O2  1  0.68697600  0.96293500  0.38209000  1
  O  O3  1  0.18697600  0.03706500  0.11791000  1
  O  O4  1  0.81302400  0.96293500  0.88209000  1
  O  O5  1  0.31302400  0.03706500  0.61791000  1
  O  O6  1  0.46028300  0.54420800  0.22167400  1
  O  O7  1  0.96028300  0.45579200  0.27832600  1
loop_
_geom_bond_atom_site_label_1
_geom_bond_atom_site_label_2
_geom_bond_distance
_geom_bond_site_symmetry_2
Na0 O0 2.411342 1_655
Na0 O4 2.423017 1_555
Na0 O2 2.442590 1_555
Na0 O1 2.600171 1_555
Na1 O6 2.300125 1_555
Na1 O2 2.458580 1_545
Na1 O1 2.562424 1_554
Na2 O3 2.272240 1_656
Na2 O0 2.314238 1_655
Na2 O4 2.596671 1_545
Na3 O1 2.411342 1_555
Na3 O5 2.423017 1_555
Na3 O3 2.442590 1_556
Na3 O0 2.600171 1_555
Na4 O0 2.300125 1_655
Na4 O4 2.458580 1_545
Na4 O7 2.562424 1_555
Na5 O5 2.272240 1_555
Na5 O6 2.314238 1_555
Na5 O2 2.596671 1_545
Na6 O2 2.272240 1_555
Na6 O1 2.314238 1_555
Na6 O5 2.596671 1_565
Na7 O7 2.300125 1_455
Na7 O3 2.458580 1_565
Na7 O0 2.562424 1_555
Na8 O6 2.411342 1_555
Na8 O2 2.423017 1_555
Na8 O4 2.442590 1_554
Na8 O7 2.600171 1_555
Na9 O4 2.272240 1_454
Na9 O7 2.314238 1_455
Na9 O3 2.596671 1_565
Na10 O1 2.300125 1_555
Na10 O5 2.458580 1_565
Na10 O6 2.562424 1_556
Na11 O7 2.411342 1_455
Na11 O3 2.423017 1_555
Na11 O5 2.442590 1_555
Na11 O6 2.600171 1_555
Ni0 O5 1.787182 1_565
Ni0 O0 1.787633 1_555
Ni1 O4 1.787182 1_545
Ni1 O1 1.787633 1_555
Ni2 O3 1.787182 1_565
Ni2 O6 1.787633 1_555
Ni3 O2 1.787182 1_545
Ni3 O7 1.787633 1_555
