# generated using pymatgen
data_Li6CrFe3(PO4)6
_symmetry_space_group_name_H-M   'P 1'
_cell_length_a   8.57212300
_cell_length_b   8.62095068
_cell_length_c   8.62247932
_cell_angle_alpha   61.36711131
_cell_angle_beta   61.38789476
_cell_angle_gamma   61.40404141
_symmetry_Int_Tables_number   1
_chemical_formula_structural   Li6CrFe3(PO4)6
_chemical_formula_sum   'Li6 Cr1 Fe3 P6 O24'
_cell_volume   464.60110389
_cell_formula_units_Z   1
loop_
 _symmetry_equiv_pos_site_id
 _symmetry_equiv_pos_as_xyz
  1  'x, y, z'
loop_
 _atom_site_type_symbol
 _atom_site_label
 _atom_site_symmetry_multiplicity
 _atom_site_fract_x
 _atom_site_fract_y
 _atom_site_fract_z
 _atom_site_occupancy
  Li  Li0  1  0.02517200  0.00685400  0.99741300  1
  Li  Li1  1  0.75025000  0.15325000  0.34704200  1
  Li  Li2  1  0.47573400  0.50311700  0.49378600  1
  Li  Li3  1  0.24988400  0.84308800  0.65252500  1
  Li  Li4  1  0.65485900  0.25157400  0.84112300  1
  Li  Li5  1  0.84072700  0.65493300  0.24948300  1
  Cr  Cr0  1  0.85610700  0.85449300  0.85446500  1
  Fe  Fe0  1  0.14627600  0.14456800  0.13712000  1
  Fe  Fe1  1  0.35300400  0.36297500  0.35454600  1
  Fe  Fe2  1  0.64699700  0.64785000  0.64874000  1
  P  P0  1  0.04848500  0.75099700  0.45268400  1
  P  P1  1  0.45352200  0.04937800  0.74807500  1
  P  P2  1  0.74961300  0.45564800  0.04634000  1
  P  P3  1  0.24934600  0.54158300  0.95762600  1
  P  P4  1  0.54399700  0.96175400  0.25014100  1
  P  P5  1  0.95540200  0.24837300  0.53758400  1
  O  O0  1  0.12686400  0.29129000  0.49608600  1
  O  O1  1  0.30103500  0.50989900  0.11881300  1
  O  O2  1  0.04480100  0.92293500  0.27110700  1
  O  O3  1  0.52988500  0.12038600  0.29638500  1
  O  O4  1  0.23888400  0.59309700  0.42987800  1
  O  O5  1  0.01910000  0.80324600  0.61530700  1
  O  O6  1  0.26391600  0.06769600  0.90786300  1
  O  O7  1  0.45229700  0.23174500  0.57716100  1
  O  O8  1  0.59265700  0.43115300  0.24006400  1
  O  O9  1  0.19677900  0.38061000  0.99050300  1
  O  O10  1  0.08760000  0.73488300  0.93500700  1
  O  O11  1  0.37241900  0.00363200  0.20730300  1
  O  O12  1  0.61551900  0.01609100  0.80476700  1
  O  O13  1  0.90768000  0.26249600  0.06727500  1
  O  O14  1  0.80497300  0.61553100  0.01609400  1
  O  O15  1  0.41028400  0.56676700  0.76397100  1
  O  O16  1  0.56599800  0.76837400  0.41070400  1
  O  O17  1  0.73365500  0.93406800  0.08564300  1
  O  O18  1  0.96989800  0.20147600  0.37939500  1
  O  O19  1  0.76525100  0.41151400  0.56842700  1
  O  O20  1  0.48640100  0.88636300  0.69322400  1
  O  O21  1  0.93657100  0.08654400  0.73036000  1
  O  O22  1  0.69117300  0.48844200  0.88710400  1
  O  O23  1  0.88698000  0.69032700  0.48986400  1
loop_
_geom_bond_atom_site_label_1
_geom_bond_atom_site_label_2
_geom_bond_distance
_geom_bond_site_symmetry_2
Li0 O6 2.045876 1_555
Li0 O2 2.179092 1_546
Li0 O13 2.191073 1_456
Li0 O10 2.409474 1_545
Li0 O21 2.451621 1_455
Li0 O17 2.537683 1_446
Li1 O8 2.095933 1_555
Li1 O13 2.109193 1_555
Li1 O18 2.271420 1_555
Li1 O3 2.293581 1_555
Li1 O2 2.368506 1_645
Li1 O7 2.386832 1_555
Li2 O4 2.044937 1_555
Li2 O7 2.174877 1_555
Li2 O8 2.186555 1_555
Li2 O15 2.392034 1_555
Li2 O16 2.435994 1_555
Li2 O19 2.522621 1_555
Li3 O15 2.103516 1_555
Li3 O10 2.134820 1_555
Li3 O5 2.344953 1_555
Li3 O20 2.429785 1_555
Li3 O21 2.509260 1_465
Li3 O16 2.512025 1_555
Li4 O19 2.082341 1_555
Li4 O21 2.138304 1_555
Li4 O12 2.387414 1_555
Li4 O22 2.434456 1_555
Li4 O15 2.524186 1_555
Li4 O17 2.541050 1_546
Li5 O16 2.097076 1_555
Li5 O17 2.120951 1_555
Li5 O14 2.367393 1_555
Li5 O23 2.460755 1_555
Li5 O10 2.532838 1_654
Li5 O19 2.539669 1_555
Cr0 O12 1.975268 1_565
Cr0 O14 1.976379 1_556
Cr0 O5 1.980530 1_655
Cr0 O10 2.039161 1_655
Cr0 O17 2.040360 1_556
Cr0 O21 2.045765 1_565
Fe0 O11 1.940245 1_555
Fe0 O9 1.944247 1_554
Fe0 O6 2.017493 1_554
Fe0 O18 2.034148 1_455
Fe0 O13 2.044962 1_455
Fe0 O2 2.062770 1_545
Fe1 O0 1.946080 1_555
Fe1 O1 1.947805 1_555
Fe1 O4 2.020712 1_555
Fe1 O3 2.040994 1_555
Fe1 O8 2.048842 1_555
Fe1 O7 2.061694 1_555
Fe2 O23 1.945235 1_555
Fe2 O22 1.948455 1_555
Fe2 O20 1.952108 1_555
Fe2 O15 2.086722 1_555
Fe2 O19 2.088329 1_555
Fe2 O16 2.098745 1_555
O0 P5 1.521577 1_455
O1 P3 1.520749 1_554
O2 P0 1.558127 1_555
O3 P4 1.536844 1_545
O4 P0 1.542037 1_555
O5 P0 1.546278 1_555
O6 P1 1.543687 1_555
O7 P1 1.556326 1_555
O8 P2 1.557704 1_555
O9 P3 1.519364 1_555
O10 P3 1.572631 1_555
O11 P4 1.521250 1_545
O12 P1 1.543989 1_555
O13 P2 1.558090 1_555
O14 P2 1.534974 1_555
O15 P3 1.572117 1_555
O16 P4 1.571193 1_555
O17 P4 1.567277 1_555
O18 P5 1.535392 1_555
O19 P5 1.566672 1_555
O20 P1 1.551867 1_565
O21 P5 1.572087 1_555
O22 P2 1.538572 1_556
O23 P0 1.549321 1_655
