# generated using pymatgen
data_Li3Mn4(BO3)4
_symmetry_space_group_name_H-M   'P 1'
_cell_length_a   5.20701547
_cell_length_b   6.04300893
_cell_length_c   15.37674966
_cell_angle_alpha   79.73697285
_cell_angle_beta   87.62372810
_cell_angle_gamma   88.53547098
_symmetry_Int_Tables_number   1
_chemical_formula_structural   Li3Mn4(BO3)4
_chemical_formula_sum   'Li6 Mn8 B8 O24'
_cell_volume   475.61334830
_cell_formula_units_Z   2
loop_
 _symmetry_equiv_pos_site_id
 _symmetry_equiv_pos_as_xyz
  1  'x, y, z'
loop_
 _atom_site_type_symbol
 _atom_site_label
 _atom_site_symmetry_multiplicity
 _atom_site_fract_x
 _atom_site_fract_y
 _atom_site_fract_z
 _atom_site_occupancy
  Li  Li0  1  0.33118851  0.62029774  0.53344985  1
  Li  Li1  1  0.15845689  0.88726626  0.22759625  1
  Li  Li2  1  0.66881149  0.37970226  0.46655015  1
  Li  Li3  1  0.67706097  0.37465326  0.96971185  1
  Li  Li4  1  0.84154311  0.11273374  0.77240375  1
  Li  Li5  1  0.32293903  0.62534674  0.03028815  1
  Mn  Mn0  1  0.83801583  0.83532163  0.45889572  1
  Mn  Mn1  1  0.16198417  0.16467837  0.54110428  1
  Mn  Mn2  1  0.16885280  0.16854895  0.04064168  1
  Mn  Mn3  1  0.65736250  0.68004727  0.28261997  1
  Mn  Mn4  1  0.83114720  0.83145105  0.95935832  1
  Mn  Mn5  1  0.32621955  0.32225166  0.21783259  1
  Mn  Mn6  1  0.34263750  0.31995273  0.71738003  1
  Mn  Mn7  1  0.67378045  0.67774834  0.78216741  1
  B  B0  1  0.32790232  0.96574119  0.37935590  1
  B  B1  1  0.16801277  0.51180945  0.37358741  1
  B  B2  1  0.67209768  0.03425881  0.62064410  1
  B  B3  1  0.66964467  0.00722560  0.12370665  1
  B  B4  1  0.82583858  0.50375520  0.12766294  1
  B  B5  1  0.83198723  0.48819055  0.62641259  1
  B  B6  1  0.33035533  0.99277440  0.87629335  1
  B  B7  1  0.17416142  0.49624480  0.87233706  1
  O  O0  1  0.09369132  0.45113486  0.61817836  1
  O  O1  1  0.23012184  0.90502932  0.46615686  1
  O  O2  1  0.68844168  0.58412692  0.55689282  1
  O  O3  1  0.76987816  0.09497068  0.53384314  1
  O  O4  1  0.90630868  0.54886514  0.38182164  1
  O  O5  1  0.57771999  0.88971549  0.36157202  1
  O  O6  1  0.82403987  0.89199731  0.18727387  1
  O  O7  1  0.31155832  0.41587308  0.44310718  1
  O  O8  1  0.77820563  0.09210673  0.04065732  1
  O  O9  1  0.28847353  0.59515162  0.29170370  1
  O  O10  1  0.41093190  0.04321152  0.14155713  1
  O  O11  1  0.32281295  0.41399378  0.94301939  1
  O  O12  1  0.18306860  0.07995357  0.31537405  1
  O  O13  1  0.08376492  0.45433898  0.11590526  1
  O  O14  1  0.22179437  0.90789327  0.95934268  1
  O  O15  1  0.70566702  0.45222580  0.21197285  1
  O  O16  1  0.17596013  0.10800269  0.81272613  1
  O  O17  1  0.67718705  0.58600622  0.05698061  1
  O  O18  1  0.91623508  0.54566102  0.88409474  1
  O  O19  1  0.58906810  0.95678848  0.85844287  1
  O  O20  1  0.71152647  0.40484838  0.70829630  1
  O  O21  1  0.81693140  0.92004643  0.68462595  1
  O  O22  1  0.29433298  0.54777420  0.78802715  1
  O  O23  1  0.42228001  0.11028451  0.63842798  1
loop_
_geom_bond_atom_site_label_1
_geom_bond_atom_site_label_2
_geom_bond_distance
_geom_bond_site_symmetry_2
Li0 O2 1.909161 1_555
Li0 O1 1.916423 1_555
Li0 O0 1.930844 1_555
Li0 O7 2.023873 1_555
Li1 O6 1.870320 1_455
Li1 O12 1.943212 1_565
Li1 O10 1.959981 1_565
Li1 O9 1.979989 1_555
Li2 O7 1.909161 1_555
Li2 O3 1.916423 1_555
Li2 O4 1.930844 1_555
Li2 O2 2.023873 1_555
Li3 O11 1.906052 1_555
Li3 O8 1.928919 1_556
Li3 O18 1.948626 1_555
Li3 O17 2.010676 1_556
Li4 O16 1.870320 1_655
Li4 O21 1.943212 1_545
Li4 O19 1.959981 1_545
Li4 O20 1.979989 1_555
Li5 O17 1.906052 1_555
Li5 O14 1.928919 1_554
Li5 O13 1.948626 1_555
Li5 O11 2.010676 1_554
Mn0 O5 2.038327 1_555
Mn0 O2 2.080753 1_555
Mn0 O1 2.106677 1_655
Mn0 O3 2.120838 1_565
Mn0 O4 2.278646 1_555
Mn1 O23 2.038327 1_555
Mn1 O7 2.080753 1_555
Mn1 O3 2.106677 1_455
Mn1 O1 2.120838 1_545
Mn1 O0 2.278646 1_555
Mn2 O11 2.064847 1_554
Mn2 O10 2.065208 1_555
Mn2 O8 2.097362 1_455
Mn2 O14 2.184204 1_544
Mn2 O13 2.269114 1_555
Mn3 O15 1.905598 1_555
Mn3 O5 1.931502 1_555
Mn3 O6 1.955860 1_555
Mn3 O9 1.993692 1_555
Mn3 O4 2.077529 1_555
Mn4 O17 2.064847 1_556
Mn4 O19 2.065208 1_555
Mn4 O14 2.097362 1_655
Mn4 O8 2.184204 1_566
Mn4 O18 2.269114 1_555
Mn5 O12 2.032155 1_555
Mn5 O13 2.086671 1_555
Mn5 O15 2.137314 1_555
Mn5 O9 2.163554 1_555
Mn5 O10 2.244419 1_555
Mn6 O22 1.905598 1_555
Mn6 O23 1.931502 1_555
Mn6 O16 1.955860 1_555
Mn6 O20 1.993692 1_555
Mn6 O0 2.077529 1_555
Mn7 O21 2.032155 1_555
Mn7 O18 2.086671 1_555
Mn7 O22 2.137314 1_555
Mn7 O20 2.163554 1_555
Mn7 O19 2.244419 1_555
B0 O12 1.343870 1_565
B0 O1 1.397857 1_555
B0 O5 1.400951 1_555
B1 O7 1.364105 1_555
B1 O4 1.379607 1_455
B1 O9 1.398972 1_555
B2 O21 1.343870 1_545
B2 O3 1.397857 1_555
B2 O23 1.400951 1_555
B3 O6 1.371359 1_545
B3 O10 1.383112 1_555
B3 O8 1.391041 1_555
B4 O17 1.372970 1_555
B4 O13 1.379922 1_655
B4 O15 1.402867 1_555
B5 O2 1.364105 1_555
B5 O0 1.379607 1_655
B5 O20 1.398972 1_555
B6 O16 1.371359 1_565
B6 O19 1.383112 1_555
B6 O14 1.391041 1_555
B7 O11 1.372970 1_555
B7 O18 1.379922 1_455
B7 O22 1.402867 1_555
