# generated using pymatgen
data_Fe6O7F5
_symmetry_space_group_name_H-M   'P 1'
_cell_length_a   4.69503700
_cell_length_b   5.61679096
_cell_length_c   7.77444695
_cell_angle_alpha   85.08255571
_cell_angle_beta   88.08746577
_cell_angle_gamma   87.68478734
_symmetry_Int_Tables_number   1
_chemical_formula_structural   Fe6O7F5
_chemical_formula_sum   'Fe6 O7 F5'
_cell_volume   204.00674449
_cell_formula_units_Z   1
loop_
 _symmetry_equiv_pos_site_id
 _symmetry_equiv_pos_as_xyz
  1  'x, y, z'
loop_
 _atom_site_type_symbol
 _atom_site_label
 _atom_site_symmetry_multiplicity
 _atom_site_fract_x
 _atom_site_fract_y
 _atom_site_fract_z
 _atom_site_occupancy
  Fe  Fe0  1  0.51501100  0.82842900  0.65113300  1
  Fe  Fe1  1  0.51168500  0.48784900  0.00142600  1
  Fe  Fe2  1  0.49561700  0.17040000  0.34014800  1
  Fe  Fe3  1  0.02254800  0.34178300  0.68525600  1
  Fe  Fe4  1  0.97783800  0.65713200  0.31112600  1
  Fe  Fe5  1  0.98176600  0.01149300  0.00767500  1
  O  O0  1  0.80751800  0.70790000  0.09209800  1
  O  O1  1  0.69729000  0.20152500  0.12151200  1
  O  O2  1  0.68987400  0.53718300  0.76265500  1
  O  O3  1  0.69803800  0.87712700  0.42502500  1
  O  O4  1  0.30926000  0.13644600  0.56196800  1
  O  O5  1  0.30419400  0.45371400  0.24116800  1
  O  O6  1  0.19063500  0.28831200  0.90580000  1
  F  F0  1  0.80939100  0.37305400  0.44452900  1
  F  F1  1  0.80112900  0.03509400  0.76863800  1
  F  F2  1  0.29538800  0.80036700  0.89153300  1
  F  F3  1  0.20451400  0.95269200  0.22803600  1
  F  F4  1  0.18830500  0.63949900  0.56027100  1
loop_
_geom_bond_atom_site_label_1
_geom_bond_atom_site_label_2
_geom_bond_distance
_geom_bond_site_symmetry_2
Fe0 O3 1.933666 1_555
Fe0 O2 1.948757 1_555
Fe0 O4 2.027536 1_565
Fe1 O1 1.975104 1_555
Fe1 O2 2.012330 1_554
Fe1 O5 2.071809 1_555
Fe1 O0 2.075371 1_555
Fe1 O6 2.105947 1_554
Fe2 O4 1.905857 1_555
Fe2 O5 1.911242 1_555
Fe2 O1 1.916075 1_555
Fe2 O3 1.944507 1_545
Fe3 O6 1.906767 1_555
Fe3 O2 1.979447 1_455
Fe3 O4 2.009704 1_555
Fe4 O0 1.899892 1_555
Fe4 O5 1.964310 1_655
Fe4 O3 2.003873 1_555
Fe5 O1 1.916847 1_555
Fe5 O6 1.966394 1_654
Fe5 O0 1.973027 1_545
F0 Fe4 2.002641 1_555
F0 Fe2 2.120869 1_555
F0 Fe3 2.142301 1_655
F1 Fe5 2.060170 1_556
F1 Fe0 2.091946 1_545
F1 Fe3 2.092025 1_655
F2 Fe5 2.084095 1_466
F2 Fe0 2.101228 1_555
F2 Fe1 2.121141 1_556
F3 Fe5 2.032850 1_465
F3 Fe4 2.053985 1_455
F3 Fe2 2.126085 1_565
F4 Fe3 2.030323 1_555
F4 Fe0 2.076126 1_555
F4 Fe4 2.196598 1_455
