# generated using pymatgen
data_LiFePO4
_symmetry_space_group_name_H-M   'P 1'
_cell_length_a   5.13599900
_cell_length_b   10.22301600
_cell_length_c   13.67166800
_cell_angle_alpha   90.00000000
_cell_angle_beta   90.00000000
_cell_angle_gamma   90.00000000
_symmetry_Int_Tables_number   1
_chemical_formula_structural   LiFePO4
_chemical_formula_sum   'Li8 Fe8 P8 O32'
_cell_volume   717.83639636
_cell_formula_units_Z   8
loop_
 _symmetry_equiv_pos_site_id
 _symmetry_equiv_pos_as_xyz
  1  'x, y, z'
loop_
 _atom_site_type_symbol
 _atom_site_label
 _atom_site_symmetry_multiplicity
 _atom_site_fract_x
 _atom_site_fract_y
 _atom_site_fract_z
 _atom_site_occupancy
  Li  Li0  1  0.05435200  0.03314100  0.24759800  1
  Li  Li1  1  0.55008000  0.21441100  0.99793500  1
  Li  Li2  1  0.55008000  0.28558900  0.49793500  1
  Li  Li3  1  0.05435200  0.46685900  0.74759800  1
  Li  Li4  1  0.94564800  0.53314100  0.24759800  1
  Li  Li5  1  0.44992000  0.71441100  0.99793500  1
  Li  Li6  1  0.44992000  0.78558900  0.49793500  1
  Li  Li7  1  0.94564800  0.96685900  0.74759800  1
  Fe  Fe0  1  0.93348100  0.03100300  0.49897300  1
  Fe  Fe1  1  0.54805100  0.21967700  0.25003800  1
  Fe  Fe2  1  0.54805100  0.28032300  0.75003800  1
  Fe  Fe3  1  0.93348100  0.46899700  0.99897300  1
  Fe  Fe4  1  0.06651900  0.53100300  0.49897300  1
  Fe  Fe5  1  0.45194900  0.71967700  0.25003800  1
  Fe  Fe6  1  0.45194900  0.78032300  0.75003800  1
  Fe  Fe7  1  0.06651900  0.96899700  0.99897300  1
  P  P0  1  0.44226700  0.03142500  0.62385700  1
  P  P1  1  0.05108000  0.21759200  0.87226200  1
  P  P2  1  0.05108000  0.28240800  0.37226200  1
  P  P3  1  0.44226700  0.46857500  0.12385700  1
  P  P4  1  0.55773300  0.53142500  0.62385700  1
  P  P5  1  0.94892000  0.71759200  0.87226200  1
  P  P6  1  0.94892000  0.78240800  0.37226200  1
  P  P7  1  0.55773300  0.96857500  0.12385700  1
  O  O0  1  0.85652200  0.99483100  0.12377700  1
  O  O1  1  0.55988000  0.96943100  0.53002200  1
  O  O2  1  0.43627000  0.03058000  0.21712100  1
  O  O3  1  0.00279100  0.06748500  0.87134400  1
  O  O4  1  0.50179100  0.18051200  0.62322300  1
  O  O5  1  0.91575400  0.22573100  0.46466100  1
  O  O6  1  0.93957500  0.28073300  0.77769200  1
  O  O7  1  0.34760200  0.24911800  0.87589600  1
  O  O8  1  0.34760200  0.25088200  0.37589600  1
  O  O9  1  0.93957500  0.21926700  0.27769200  1
  O  O10  1  0.91575400  0.27426900  0.96466100  1
  O  O11  1  0.50179100  0.31948800  0.12322300  1
  O  O12  1  0.00279100  0.43251500  0.37134400  1
  O  O13  1  0.43627000  0.46942000  0.71712100  1
  O  O14  1  0.55988000  0.53056900  0.03002200  1
  O  O15  1  0.85652200  0.50516900  0.62377700  1
  O  O16  1  0.14347800  0.49483100  0.12377700  1
  O  O17  1  0.44012000  0.46943100  0.53002200  1
  O  O18  1  0.56373000  0.53058000  0.21712100  1
  O  O19  1  0.99720900  0.56748500  0.87134400  1
  O  O20  1  0.49820900  0.68051200  0.62322300  1
  O  O21  1  0.08424600  0.72573100  0.46466100  1
  O  O22  1  0.06042500  0.78073300  0.77769200  1
  O  O23  1  0.65239800  0.74911800  0.87589600  1
  O  O24  1  0.65239800  0.75088200  0.37589600  1
  O  O25  1  0.06042500  0.71926700  0.27769200  1
  O  O26  1  0.08424600  0.77426900  0.96466100  1
  O  O27  1  0.49820900  0.81948800  0.12322300  1
  O  O28  1  0.99720900  0.93251500  0.37134400  1
  O  O29  1  0.56373000  0.96942000  0.71712100  1
  O  O30  1  0.44012000  0.03056900  0.03002200  1
  O  O31  1  0.14347800  0.00516900  0.62377700  1
loop_
_geom_bond_atom_site_label_1
_geom_bond_atom_site_label_2
_geom_bond_distance
_geom_bond_site_symmetry_2
Li0 O28 2.001648 1_445
Li0 O2 2.005468 1_555
Li0 O0 2.012823 1_445
Li0 O9 2.034039 1_455
Li1 O7 1.997787 1_555
Li1 O30 2.010873 1_556
Li1 O10 2.026984 1_555
Li1 O11 2.037017 1_556
Li2 O8 1.997787 1_555
Li2 O17 2.010873 1_555
Li2 O5 2.026984 1_555
Li2 O4 2.037017 1_555
Li3 O19 2.001648 1_455
Li3 O13 2.005468 1_555
Li3 O15 2.012823 1_455
Li3 O6 2.034039 1_455
Li4 O12 2.001648 1_655
Li4 O18 2.005468 1_555
Li4 O16 2.012823 1_655
Li4 O25 2.034039 1_655
Li5 O23 1.997787 1_555
Li5 O14 2.010873 1_556
Li5 O26 2.026984 1_555
Li5 O27 2.037017 1_556
Li6 O24 1.997787 1_555
Li6 O1 2.010873 1_555
Li6 O21 2.026984 1_555
Li6 O20 2.037017 1_555
Li7 O3 2.001648 1_665
Li7 O29 2.005468 1_555
Li7 O31 2.012823 1_665
Li7 O22 2.034039 1_655
Fe0 O31 2.035779 1_655
Fe0 O28 2.040967 1_545
Fe0 O5 2.047257 1_555
Fe0 O1 2.063553 1_545
Fe1 O11 2.025727 1_555
Fe1 O8 2.030374 1_555
Fe1 O9 2.046105 1_555
Fe1 O2 2.066195 1_555
Fe2 O4 2.025727 1_555
Fe2 O7 2.030374 1_555
Fe2 O6 2.046105 1_555
Fe2 O13 2.066195 1_555
Fe3 O16 2.035779 1_656
Fe3 O19 2.040967 1_555
Fe3 O10 2.047257 1_555
Fe3 O14 2.063553 1_556
Fe4 O15 2.035779 1_455
Fe4 O12 2.040967 1_555
Fe4 O21 2.047257 1_555
Fe4 O17 2.063553 1_555
Fe5 O27 2.025727 1_555
Fe5 O24 2.030374 1_555
Fe5 O25 2.046105 1_555
Fe5 O18 2.066195 1_555
Fe6 O20 2.025727 1_555
Fe6 O23 2.030374 1_555
Fe6 O22 2.046105 1_555
Fe6 O29 2.066195 1_555
Fe7 O0 2.035779 1_456
Fe7 O3 2.040967 1_565
Fe7 O26 2.047257 1_555
Fe7 O30 2.063553 1_566
O0 P7 1.557878 1_555
O1 P0 1.553168 1_565
O2 P7 1.554601 1_545
O3 P1 1.554510 1_555
O4 P0 1.554502 1_555
O5 P2 1.553893 1_655
O6 P1 1.554445 1_655
O7 P1 1.557458 1_555
O8 P2 1.557458 1_555
O9 P2 1.554445 1_655
O10 P1 1.553893 1_655
O11 P3 1.554502 1_555
O12 P2 1.554510 1_555
O13 P4 1.554601 1_555
O14 P3 1.553168 1_555
O15 P4 1.557878 1_555
O16 P3 1.557878 1_555
O17 P4 1.553168 1_555
O18 P3 1.554601 1_555
O19 P5 1.554510 1_555
O20 P4 1.554502 1_555
O21 P6 1.553893 1_455
O22 P5 1.554445 1_455
O23 P5 1.557458 1_555
O24 P6 1.557458 1_555
O25 P6 1.554445 1_455
O26 P5 1.553893 1_455
O27 P7 1.554502 1_555
O28 P6 1.554510 1_555
O29 P0 1.554601 1_565
O30 P7 1.553168 1_545
O31 P0 1.557878 1_555
