# generated using pymatgen
data_MnH8C2S2(NO2)2
_symmetry_space_group_name_H-M   'P 1'
_cell_length_a   9.20956700
_cell_length_b   7.65600600
_cell_length_c   8.06828556
_cell_angle_alpha   65.89033565
_cell_angle_beta   90.00000000
_cell_angle_gamma   90.00000000
_symmetry_Int_Tables_number   1
_chemical_formula_structural   MnH8C2S2(NO2)2
_chemical_formula_sum   'Mn2 H16 C4 S4 N4 O8'
_cell_volume   519.25639488
_cell_formula_units_Z   2
loop_
 _symmetry_equiv_pos_site_id
 _symmetry_equiv_pos_as_xyz
  1  'x, y, z'
loop_
 _atom_site_type_symbol
 _atom_site_label
 _atom_site_symmetry_multiplicity
 _atom_site_fract_x
 _atom_site_fract_y
 _atom_site_fract_z
 _atom_site_occupancy
  Mn  Mn0  1  0.50000000  0.50000000  0.50000000  1
  Mn  Mn1  1  0.00000000  0.00000000  0.50000000  1
  H  H0  1  0.87850600  0.04459200  0.17126200  1
  H  H1  1  0.62149400  0.54459200  0.17126200  1
  H  H2  1  0.55701600  0.33883700  0.25079500  1
  H  H3  1  0.96109700  0.39343900  0.29827100  1
  H  H4  1  0.80350100  0.32653600  0.37326300  1
  H  H5  1  0.94298400  0.83883700  0.25079500  1
  H  H6  1  0.53890300  0.89343900  0.29827100  1
  H  H7  1  0.69649900  0.82653600  0.37326300  1
  H  H8  1  0.30350100  0.17346400  0.62673700  1
  H  H9  1  0.46109700  0.10656100  0.70172900  1
  H  H10  1  0.05701600  0.16116300  0.74920500  1
  H  H11  1  0.19649900  0.67346400  0.62673700  1
  H  H12  1  0.03890300  0.60656100  0.70172900  1
  H  H13  1  0.44298400  0.66116300  0.74920500  1
  H  H14  1  0.37850600  0.45540800  0.82873800  1
  H  H15  1  0.12149400  0.95540800  0.82873800  1
  C  C0  1  0.28488700  0.13925900  0.22446400  1
  C  C1  1  0.21511300  0.63925900  0.22446400  1
  C  C2  1  0.78488700  0.36074100  0.77553600  1
  C  C3  1  0.71511300  0.86074100  0.77553600  1
  S  S0  1  0.42911900  0.18224100  0.09584800  1
  S  S1  1  0.07088100  0.68224100  0.09584800  1
  S  S2  1  0.92911900  0.31775900  0.90415200  1
  S  S3  1  0.57088100  0.81775900  0.90415200  1
  N  N0  1  0.18138400  0.10545300  0.31887800  1
  N  N1  1  0.31861600  0.60545300  0.31887800  1
  N  N2  1  0.68138400  0.39454700  0.68112200  1
  N  N3  1  0.81861600  0.89454700  0.68112200  1
  O  O0  1  0.61738500  0.42645700  0.28476500  1
  O  O1  1  0.90692000  0.29037200  0.39383800  1
  O  O2  1  0.88261500  0.92645700  0.28476500  1
  O  O3  1  0.59308000  0.79037200  0.39383800  1
  O  O4  1  0.40692000  0.20962800  0.60616200  1
  O  O5  1  0.11738500  0.07354300  0.71523500  1
  O  O6  1  0.09308000  0.70962800  0.60616200  1
  O  O7  1  0.38261500  0.57354300  0.71523500  1
loop_
_geom_bond_atom_site_label_1
_geom_bond_atom_site_label_2
_geom_bond_distance
_geom_bond_site_symmetry_2
Mn0 N1 2.148006 1_555
Mn0 N2 2.148006 1_555
Mn0 O3 2.203402 1_555
Mn0 O4 2.203402 1_555
Mn0 O7 2.302223 1_555
Mn0 O0 2.302223 1_555
Mn1 N0 2.148006 1_555
Mn1 N3 2.148006 1_445
Mn1 O1 2.203402 1_455
Mn1 O6 2.203402 1_545
Mn1 O5 2.302223 1_555
Mn1 O2 2.302223 1_445
H0 O2 0.990668 1_545
H1 O0 0.990668 1_555
H2 O0 0.992184 1_555
H3 O1 0.984411 1_555
H4 O1 0.986821 1_555
H5 O2 0.992184 1_555
H6 O3 0.984411 1_555
H7 O3 0.986821 1_555
H8 O4 0.986821 1_555
H9 O4 0.984411 1_555
H10 O5 0.992184 1_555
H11 O6 0.986821 1_555
H12 O6 0.984411 1_555
H13 O7 0.992184 1_555
H14 O7 0.990668 1_555
H15 O5 0.990668 1_565
C0 N0 1.181024 1_555
C0 S0 1.634188 1_555
C1 N1 1.181024 1_555
C1 S1 1.634188 1_555
C2 N2 1.181024 1_555
C2 S2 1.634188 1_555
C3 N3 1.181024 1_555
C3 S3 1.634188 1_555
