# generated using pymatgen
data_Li2NbV3O8
_symmetry_space_group_name_H-M   'P 1'
_cell_length_a   6.47637023
_cell_length_b   6.47637023
_cell_length_c   6.72839066
_cell_angle_alpha   73.49922445
_cell_angle_beta   73.49922445
_cell_angle_gamma   37.01712040
_symmetry_Int_Tables_number   1
_chemical_formula_structural   Li2NbV3O8
_chemical_formula_sum   'Li2 Nb1 V3 O8'
_cell_volume   162.10595807
_cell_formula_units_Z   1
loop_
 _symmetry_equiv_pos_site_id
 _symmetry_equiv_pos_as_xyz
  1  'x, y, z'
loop_
 _atom_site_type_symbol
 _atom_site_label
 _atom_site_symmetry_multiplicity
 _atom_site_fract_x
 _atom_site_fract_y
 _atom_site_fract_z
 _atom_site_occupancy
  Li  Li0  1  0.94496300  0.94496300  0.36289500  1
  Li  Li1  1  0.05815000  0.05815000  0.65700500  1
  Nb  Nb0  1  0.29180700  0.29180700  0.28006300  1
  V  V0  1  0.60957100  0.60957100  0.29726800  1
  V  V1  1  0.39078800  0.39078800  0.68789000  1
  V  V2  1  0.70496600  0.70496600  0.72752100  1
  O  O0  1  0.87965500  0.87965500  0.67240200  1
  O  O1  1  0.77813900  0.77813900  0.33201200  1
  O  O2  1  0.64873800  0.64873800  0.00692200  1
  O  O3  1  0.56042900  0.56042900  0.63287000  1
  O  O4  1  0.43567300  0.43567300  0.35486900  1
  O  O5  1  0.35027800  0.35027800  0.00205800  1
  O  O6  1  0.22865500  0.22865500  0.65524300  1
  O  O7  1  0.11819100  0.11819100  0.33098400  1
loop_
_geom_bond_atom_site_label_1
_geom_bond_atom_site_label_2
_geom_bond_distance
_geom_bond_site_symmetry_2
Li0 O0 1.994871 1_555
Li0 O4 2.060668 1_565
Li0 O4 2.060668 1_655
Li0 O7 2.073555 1_665
Li0 O1 2.120588 1_555
Li1 O3 2.061833 1_545
Li1 O3 2.061833 1_455
Li1 O6 2.090754 1_555
Li1 O7 2.094434 1_555
Li1 O0 2.163643 1_445
Nb0 O5 1.791624 1_555
Nb0 O4 1.977038 1_555
Nb0 O7 2.056018 1_555
Nb0 O1 2.083730 1_545
Nb0 O1 2.083730 1_455
Nb0 O6 2.408544 1_555
O0 V2 2.065124 1_555
O0 V1 2.065144 1_565
O0 V1 2.065144 1_655
O1 V0 2.152091 1_555
O1 V2 2.541002 1_555
O2 V2 1.798142 1_554
O2 V0 1.866775 1_555
O3 V1 2.004150 1_555
O3 V2 2.057815 1_555
O3 V0 2.155621 1_555
O4 V0 2.053434 1_555
O4 V1 2.141180 1_555
O5 V1 2.021349 1_554
O6 V1 2.067884 1_555
O6 V2 2.112611 1_545
O6 V2 2.112611 1_455
O7 V0 2.074557 1_455
O7 V0 2.074557 1_545
