# generated using pymatgen
data_Na5CuO4
_symmetry_space_group_name_H-M   'P 1'
_cell_length_a   5.39675500
_cell_length_b   7.20461500
_cell_length_c   7.47590100
_cell_angle_alpha   90.00000000
_cell_angle_beta   90.00000000
_cell_angle_gamma   90.00000000
_symmetry_Int_Tables_number   1
_chemical_formula_structural   Na5CuO4
_chemical_formula_sum   'Na10 Cu2 O8'
_cell_volume   290.67455890
_cell_formula_units_Z   2
loop_
 _symmetry_equiv_pos_site_id
 _symmetry_equiv_pos_as_xyz
  1  'x, y, z'
loop_
 _atom_site_type_symbol
 _atom_site_label
 _atom_site_symmetry_multiplicity
 _atom_site_fract_x
 _atom_site_fract_y
 _atom_site_fract_z
 _atom_site_occupancy
  Na  Na0  1  0.75866300  0.76028400  0.80463400  1
  Na  Na1  1  0.75866300  0.23971600  0.80463400  1
  Na  Na2  1  0.32434000  0.50000000  0.00000000  1
  Na  Na3  1  0.75866300  0.23971600  0.19536600  1
  Na  Na4  1  0.75866300  0.76028400  0.19536600  1
  Na  Na5  1  0.24133700  0.26028400  0.30463400  1
  Na  Na6  1  0.24133700  0.73971600  0.30463400  1
  Na  Na7  1  0.67566000  0.00000000  0.50000000  1
  Na  Na8  1  0.24133700  0.26028400  0.69536600  1
  Na  Na9  1  0.24133700  0.73971600  0.69536600  1
  Cu  Cu0  1  0.28779100  0.00000000  0.00000000  1
  Cu  Cu1  1  0.71220900  0.50000000  0.50000000  1
  O  O0  1  0.46866500  0.00000000  0.77284900  1
  O  O1  1  0.09889000  0.22862500  0.00000000  1
  O  O2  1  0.09889000  0.77137500  0.00000000  1
  O  O3  1  0.46866500  0.00000000  0.22715100  1
  O  O4  1  0.53133500  0.50000000  0.27284900  1
  O  O5  1  0.90111000  0.27137500  0.50000000  1
  O  O6  1  0.90111000  0.72862500  0.50000000  1
  O  O7  1  0.53133500  0.50000000  0.72715100  1
loop_
_geom_bond_atom_site_label_1
_geom_bond_atom_site_label_2
_geom_bond_distance
_geom_bond_site_symmetry_2
Na0 O7 2.314564 1_555
Na0 O0 2.342772 1_565
Na0 O2 2.347530 1_656
Na0 O6 2.414460 1_555
Na1 O7 2.314564 1_555
Na1 O0 2.342772 1_555
Na1 O1 2.347530 1_656
Na1 O5 2.414460 1_555
Na2 O2 2.302819 1_555
Na2 O1 2.302819 1_555
Na2 O7 2.325654 1_554
Na2 O4 2.325654 1_555
Na3 O4 2.314564 1_555
Na3 O3 2.342772 1_555
Na3 O1 2.347530 1_655
Na3 O5 2.414460 1_555
Na4 O4 2.314564 1_555
Na4 O3 2.342772 1_565
Na4 O2 2.347530 1_655
Na4 O6 2.414460 1_555
Na5 O3 2.314564 1_555
Na5 O4 2.342772 1_555
Na5 O5 2.347530 1_455
Na5 O1 2.414460 1_555
Na6 O3 2.314564 1_565
Na6 O4 2.342772 1_555
Na6 O6 2.347530 1_455
Na6 O2 2.414460 1_555
Na7 O5 2.302819 1_555
Na7 O6 2.302819 1_545
Na7 O0 2.325654 1_555
Na7 O3 2.325654 1_555
Na8 O0 2.314564 1_555
Na8 O7 2.342772 1_555
Na8 O5 2.347530 1_455
Na8 O1 2.414460 1_556
Na9 O0 2.314564 1_565
Na9 O7 2.342772 1_555
Na9 O6 2.347530 1_455
Na9 O2 2.414460 1_556
Cu0 O1 1.937112 1_555
Cu0 O2 1.937112 1_545
Cu0 O3 1.958718 1_555
Cu0 O0 1.958718 1_554
Cu1 O6 1.937112 1_555
Cu1 O5 1.937112 1_555
Cu1 O7 1.958718 1_555
Cu1 O4 1.958718 1_555
