# generated using pymatgen
data_Li2Mn5(FeO6)2
_symmetry_space_group_name_H-M   'P 1'
_cell_length_a   9.00640700
_cell_length_b   5.17032600
_cell_length_c   9.91459562
_cell_angle_alpha   77.08447630
_cell_angle_beta   90.00000000
_cell_angle_gamma   90.00000000
_symmetry_Int_Tables_number   1
_chemical_formula_structural   Li2Mn5(FeO6)2
_chemical_formula_sum   'Li4 Mn10 Fe4 O24'
_cell_volume   450.00337038
_cell_formula_units_Z   2
loop_
 _symmetry_equiv_pos_site_id
 _symmetry_equiv_pos_as_xyz
  1  'x, y, z'
loop_
 _atom_site_type_symbol
 _atom_site_label
 _atom_site_symmetry_multiplicity
 _atom_site_fract_x
 _atom_site_fract_y
 _atom_site_fract_z
 _atom_site_occupancy
  Li  Li0  1  0.91877300  0.50247400  0.26301800  1
  Li  Li1  1  0.57346500  0.74288500  0.48908300  1
  Li  Li2  1  0.41877300  0.49752600  0.73698200  1
  Li  Li3  1  0.07346500  0.25711500  0.51091700  1
  Mn  Mn0  1  0.93333900  0.24055300  0.00121400  1
  Mn  Mn1  1  0.91882400  0.75543700  0.49730000  1
  Mn  Mn2  1  0.73364900  0.00370300  0.25939900  1
  Mn  Mn3  1  0.58728300  0.25693000  0.99875700  1
  Mn  Mn4  1  0.74971000  0.50720000  0.74212000  1
  Mn  Mn5  1  0.41882400  0.24456300  0.50270000  1
  Mn  Mn6  1  0.43333900  0.75944700  0.99878600  1
  Mn  Mn7  1  0.23364900  0.99629700  0.74060100  1
  Mn  Mn8  1  0.24971000  0.49280000  0.25788000  1
  Mn  Mn9  1  0.08728300  0.74307000  0.00124300  1
  Fe  Fe0  1  0.73488100  0.22846900  0.51345100  1
  Fe  Fe1  1  0.75703300  0.76642300  0.98358600  1
  Fe  Fe2  1  0.25703300  0.23357700  0.01641400  1
  Fe  Fe3  1  0.23488100  0.77153100  0.48654900  1
  O  O0  1  0.88482600  0.11427400  0.38080500  1
  O  O1  1  0.93011300  0.87776800  0.10337900  1
  O  O2  1  0.74681200  0.16672600  0.88258200  1
  O  O3  1  0.76278900  0.85139400  0.61584700  1
  O  O4  1  0.93274300  0.59657800  0.89966900  1
  O  O5  1  0.89051700  0.40531400  0.61284600  1
  O  O6  1  0.57813300  0.12683900  0.40037300  1
  O  O7  1  0.76447000  0.65517300  0.37738100  1
  O  O8  1  0.59851000  0.90658000  0.11142800  1
  O  O9  1  0.75404000  0.34017500  0.11439800  1
  O  O10  1  0.59350200  0.59764600  0.87208000  1
  O  O11  1  0.43011300  0.12223200  0.89662100  1
  O  O12  1  0.57361300  0.37470300  0.60905900  1
  O  O13  1  0.38482600  0.88572600  0.61919500  1
  O  O14  1  0.26278900  0.14860600  0.38415300  1
  O  O15  1  0.39051700  0.59468600  0.38715400  1
  O  O16  1  0.24681200  0.83327400  0.11741800  1
  O  O17  1  0.43274300  0.40342200  0.10033100  1
  O  O18  1  0.09851000  0.09342000  0.88857200  1
  O  O19  1  0.25404000  0.65982500  0.88560200  1
  O  O20  1  0.26447000  0.34482700  0.62261900  1
  O  O21  1  0.07813300  0.87316100  0.59962700  1
  O  O22  1  0.07361300  0.62529700  0.39094100  1
  O  O23  1  0.09350200  0.40235400  0.12792000  1
loop_
_geom_bond_atom_site_label_1
_geom_bond_atom_site_label_2
_geom_bond_distance
_geom_bond_site_symmetry_2
Li0 O7 2.059234 1_555
Li0 O22 2.077664 1_655
Li0 O0 2.106653 1_555
Li0 O23 2.201930 1_655
Li0 O1 2.215349 1_555
Li0 O9 2.372623 1_555
Li1 O6 1.983862 1_565
Li1 O12 2.006607 1_555
Li1 O7 2.148491 1_555
Li1 O15 2.160899 1_555
Li1 O3 2.262079 1_555
Li1 O13 2.349874 1_555
Li2 O20 2.059234 1_555
Li2 O12 2.077664 1_555
Li2 O13 2.106653 1_555
Li2 O10 2.201930 1_555
Li2 O11 2.215349 1_555
Li2 O19 2.372623 1_555
Li3 O21 1.983862 1_545
Li3 O22 2.006607 1_555
Li3 O20 2.148491 1_555
Li3 O5 2.160899 1_455
Li3 O14 2.262079 1_555
Li3 O0 2.349874 1_455
Mn0 O4 1.890396 1_554
Mn0 O1 1.922456 1_545
Mn0 O9 2.095393 1_555
Mn0 O18 2.102065 1_654
Mn0 O2 2.133544 1_554
Mn0 O23 2.197397 1_655
Mn1 O5 1.930630 1_555
Mn1 O21 1.932474 1_655
Mn1 O22 1.955866 1_655
Mn1 O3 1.965493 1_555
Mn1 O7 1.972421 1_555
Mn1 O0 1.977881 1_565
Mn2 O7 1.936574 1_545
Mn2 O0 1.984229 1_555
Mn2 O9 2.002232 1_555
Mn2 O8 2.053087 1_545
Mn2 O6 2.172205 1_555
Mn2 O1 2.529414 1_545
Mn3 O8 1.906514 1_546
Mn3 O10 1.922181 1_555
Mn3 O11 1.956900 1_555
Mn3 O2 1.961813 1_555
Mn3 O17 1.966234 1_556
Mn3 O9 1.993999 1_556
Mn4 O3 1.937071 1_555
Mn4 O5 1.957121 1_555
Mn4 O2 1.985713 1_555
Mn4 O10 2.031641 1_555
Mn4 O12 2.264754 1_555
Mn4 O4 2.386134 1_555
Mn5 O15 1.930630 1_555
Mn5 O6 1.932474 1_555
Mn5 O12 1.955866 1_555
Mn5 O14 1.965493 1_555
Mn5 O20 1.972421 1_555
Mn5 O13 1.977881 1_545
Mn6 O17 1.890396 1_556
Mn6 O11 1.922456 1_565
Mn6 O19 2.095393 1_555
Mn6 O8 2.102065 1_556
Mn6 O16 2.133544 1_556
Mn6 O10 2.197397 1_555
Mn7 O20 1.936574 1_565
Mn7 O13 1.984229 1_555
Mn7 O19 2.002232 1_555
Mn7 O18 2.053087 1_565
Mn7 O21 2.172205 1_555
Mn7 O11 2.529414 1_565
Mn8 O14 1.937071 1_555
Mn8 O15 1.957121 1_555
Mn8 O16 1.985713 1_555
Mn8 O23 2.031641 1_555
Mn8 O22 2.264754 1_555
Mn8 O17 2.386134 1_555
Mn9 O18 1.906514 1_564
Mn9 O23 1.922181 1_555
Mn9 O1 1.956900 1_455
Mn9 O16 1.961813 1_555
Mn9 O4 1.966234 1_454
Mn9 O19 1.993999 1_554
Fe0 O6 1.946631 1_555
Fe0 O12 1.974886 1_555
Fe0 O3 2.002497 1_545
Fe0 O5 2.043228 1_555
Fe0 O0 2.061321 1_555
Fe0 O7 2.329772 1_555
Fe1 O4 2.072282 1_555
Fe1 O2 2.090078 1_565
Fe1 O1 2.116046 1_556
Fe1 O8 2.140252 1_556
Fe1 O10 2.141069 1_555
Fe1 O9 2.293903 1_556
Fe2 O17 2.072282 1_555
Fe2 O16 2.090078 1_545
Fe2 O11 2.116046 1_554
Fe2 O18 2.140252 1_554
Fe2 O23 2.141069 1_555
Fe2 O19 2.293903 1_554
Fe3 O21 1.946631 1_555
Fe3 O22 1.974886 1_555
Fe3 O14 2.002497 1_565
Fe3 O15 2.043228 1_555
Fe3 O13 2.061321 1_555
Fe3 O20 2.329772 1_555
