# generated using pymatgen
data_LiCoP2O7
_symmetry_space_group_name_H-M   'P 1'
_cell_length_a   5.04270000
_cell_length_b   6.10958189
_cell_length_c   8.65601263
_cell_angle_alpha   71.17363017
_cell_angle_beta   86.72284035
_cell_angle_gamma   85.37397512
_symmetry_Int_Tables_number   1
_chemical_formula_structural   LiCoP2O7
_chemical_formula_sum   'Li2 Co2 P4 O14'
_cell_volume   251.45467328
_cell_formula_units_Z   2
loop_
 _symmetry_equiv_pos_site_id
 _symmetry_equiv_pos_as_xyz
  1  'x, y, z'
loop_
 _atom_site_type_symbol
 _atom_site_label
 _atom_site_symmetry_multiplicity
 _atom_site_fract_x
 _atom_site_fract_y
 _atom_site_fract_z
 _atom_site_occupancy
  Li  Li0  1  0.78743700  0.19098600  0.47378800  1
  Li  Li1  1  0.21256300  0.80901400  0.52621200  1
  Co  Co0  1  0.76177000  0.55399500  0.73990100  1
  Co  Co1  1  0.23823000  0.44600500  0.26009900  1
  P  P0  1  0.70320200  0.74017700  0.34216100  1
  P  P1  1  0.78312100  0.20713800  0.13247700  1
  P  P2  1  0.21687900  0.79286200  0.86752300  1
  P  P3  1  0.29679800  0.25982300  0.65783900  1
  O  O0  1  0.94574600  0.79105200  0.79953100  1
  O  O1  1  0.89869400  0.53625300  0.33546600  1
  O  O2  1  0.77533900  0.83242600  0.47929800  1
  O  O3  1  0.75083900  0.31954500  0.95208100  1
  O  O4  1  0.73800500  0.93634800  0.16681200  1
  O  O5  1  0.58609300  0.32460000  0.64328500  1
  O  O6  1  0.56695300  0.28764200  0.24101600  1
  O  O7  1  0.43304700  0.71235800  0.75898400  1
  O  O8  1  0.41390700  0.67540000  0.35671500  1
  O  O9  1  0.26199500  0.06365200  0.83318800  1
  O  O10  1  0.24916100  0.68045500  0.04791900  1
  O  O11  1  0.22466100  0.16757400  0.52070200  1
  O  O12  1  0.10130600  0.46374700  0.66453400  1
  O  O13  1  0.05425400  0.20894800  0.20046900  1
loop_
_geom_bond_atom_site_label_1
_geom_bond_atom_site_label_2
_geom_bond_distance
_geom_bond_site_symmetry_2
Li0 O5 2.078178 1_555
Li0 O1 2.163811 1_555
Li0 O2 2.181454 1_545
Li0 O6 2.242080 1_555
Li0 O11 2.249549 1_655
Li1 O8 2.078178 1_555
Li1 O12 2.163811 1_555
Li1 O11 2.181454 1_565
Li1 O7 2.242080 1_555
Li1 O2 2.249549 1_455
Co0 O7 1.877325 1_555
Co0 O12 1.900878 1_655
Co0 O3 1.931645 1_555
Co0 O0 1.994669 1_555
Co0 O5 2.118934 1_555
Co0 O2 2.347656 1_555
Co1 O6 1.877325 1_555
Co1 O1 1.900878 1_455
Co1 O10 1.931645 1_555
Co1 O13 1.994669 1_555
Co1 O8 2.118934 1_555
Co1 O11 2.347656 1_555
O0 P2 1.521346 1_655
O1 P0 1.539276 1_555
O2 P0 1.540558 1_555
O3 P1 1.501787 1_556
O4 P0 1.612587 1_555
O4 P1 1.616420 1_565
O5 P3 1.529906 1_555
O6 P1 1.551618 1_555
O7 P2 1.551618 1_555
O8 P0 1.529906 1_555
O9 P3 1.612587 1_555
O9 P2 1.616420 1_545
O10 P2 1.501787 1_554
O11 P3 1.540558 1_555
O12 P3 1.539276 1_555
O13 P1 1.521346 1_455
