# generated using pymatgen
data_Mn3(O2F)2
_symmetry_space_group_name_H-M   'P 1'
_cell_length_a   4.65179007
_cell_length_b   4.65180807
_cell_length_c   9.17830700
_cell_angle_alpha   90.00029762
_cell_angle_beta   90.00008670
_cell_angle_gamma   90.01937450
_symmetry_Int_Tables_number   1
_chemical_formula_structural   Mn3(O2F)2
_chemical_formula_sum   'Mn6 O8 F4'
_cell_volume   198.61152663
_cell_formula_units_Z   2
loop_
 _symmetry_equiv_pos_site_id
 _symmetry_equiv_pos_as_xyz
  1  'x, y, z'
loop_
 _atom_site_type_symbol
 _atom_site_label
 _atom_site_symmetry_multiplicity
 _atom_site_fract_x
 _atom_site_fract_y
 _atom_site_fract_z
 _atom_site_occupancy
  Mn  Mn0  1  0.00000400  0.00000000  0.01499400  1
  Mn  Mn1  1  0.00000100  0.00000300  0.33333200  1
  Mn  Mn2  1  0.00000200  0.00000100  0.65168300  1
  Mn  Mn3  1  0.50000500  0.50000100  0.83330700  1
  Mn  Mn4  1  0.50000400  0.49999900  0.15167700  1
  Mn  Mn5  1  0.49999600  0.50000200  0.51496600  1
  O  O0  1  0.19462900  0.80536300  0.16836300  1
  O  O1  1  0.19458600  0.80541100  0.49826500  1
  O  O2  1  0.30533000  0.30532800  0.99828100  1
  O  O3  1  0.30531700  0.30531600  0.66834700  1
  O  O4  1  0.69466900  0.69466800  0.99828100  1
  O  O5  1  0.69468400  0.69468500  0.66834700  1
  O  O6  1  0.80536600  0.19463300  0.16836200  1
  O  O7  1  0.80541000  0.19459100  0.49826500  1
  F  F0  1  0.18172500  0.81827500  0.83338700  1
  F  F1  1  0.31828300  0.31828000  0.33337900  1
  F  F2  1  0.68171600  0.68171700  0.33337700  1
  F  F3  1  0.81827600  0.18172600  0.83338800  1
loop_
_geom_bond_atom_site_label_1
_geom_bond_atom_site_label_2
_geom_bond_distance
_geom_bond_site_symmetry_2
Mn0 O0 1.903033 1_545
Mn0 O6 1.903041 1_455
Mn0 O2 2.014147 1_554
Mn0 O4 2.014188 1_444
Mn1 O7 1.982648 1_455
Mn1 O1 1.982649 1_545
Mn1 O0 1.983090 1_545
Mn1 O6 1.983095 1_455
Mn2 O1 1.903166 1_545
Mn2 O7 1.903188 1_455
Mn2 O3 2.014032 1_555
Mn2 O5 2.014047 1_445
Mn3 O5 1.982956 1_555
Mn3 O3 1.982968 1_555
Mn3 O4 1.982977 1_555
Mn3 O2 1.983022 1_555
Mn4 O4 1.903086 1_554
Mn4 O2 1.903101 1_554
Mn4 O6 2.015047 1_555
Mn4 O0 2.015083 1_555
Mn5 O3 1.903053 1_555
Mn5 O5 1.903057 1_555
Mn5 O1 2.015356 1_555
Mn5 O7 2.015375 1_555
F0 Mn0 2.051351 1_566
F0 Mn2 2.052085 1_565
F0 Mn3 2.094183 1_555
F1 Mn5 2.050943 1_555
F1 Mn4 2.051819 1_555
F1 Mn1 2.093491 1_555
F2 Mn5 2.050967 1_555
F2 Mn4 2.051776 1_555
F2 Mn1 2.093531 1_665
F3 Mn0 2.051364 1_656
F3 Mn2 2.052091 1_655
F3 Mn3 2.094157 1_555
