# generated using pymatgen
data_Na4Bi2P(CO4)4
_symmetry_space_group_name_H-M   'P 1'
_cell_length_a   10.64945614
_cell_length_b   10.53700979
_cell_length_c   10.22585260
_cell_angle_alpha   61.69402151
_cell_angle_beta   60.59039995
_cell_angle_gamma   57.71557854
_symmetry_Int_Tables_number   1
_chemical_formula_structural   Na4Bi2P(CO4)4
_chemical_formula_sum   'Na8 Bi4 P2 C8 O32'
_cell_volume   809.33656598
_cell_formula_units_Z   2
loop_
 _symmetry_equiv_pos_site_id
 _symmetry_equiv_pos_as_xyz
  1  'x, y, z'
loop_
 _atom_site_type_symbol
 _atom_site_label
 _atom_site_symmetry_multiplicity
 _atom_site_fract_x
 _atom_site_fract_y
 _atom_site_fract_z
 _atom_site_occupancy
  Na  Na0  1  0.95160800  0.54839200  0.95160800  1
  Na  Na1  1  0.95271800  0.54728200  0.54728200  1
  Na  Na2  1  0.70271800  0.29728200  0.29728200  1
  Na  Na3  1  0.70160800  0.29839200  0.70160800  1
  Na  Na4  1  0.54839200  0.95160800  0.54839200  1
  Na  Na5  1  0.54728200  0.95271800  0.95271800  1
  Na  Na6  1  0.29728200  0.70271800  0.70271800  1
  Na  Na7  1  0.29839200  0.70160800  0.29839200  1
  Bi  Bi0  1  0.12500000  0.62500000  0.12500000  1
  Bi  Bi1  1  0.62500000  0.12500000  0.12500000  1
  Bi  Bi2  1  0.12500000  0.12500000  0.12500000  1
  Bi  Bi3  1  0.12500000  0.12500000  0.62500000  1
  P  P0  1  0.50000000  0.50000000  0.50000000  1
  P  P1  1  0.75000000  0.75000000  0.75000000  1
  C  C0  1  0.89286600  0.28661800  0.91328200  1
  C  C1  1  0.96338200  0.35713400  0.34276500  1
  C  C2  1  0.91328200  0.90723500  0.89286600  1
  C  C3  1  0.90723500  0.91328200  0.28661800  1
  C  C4  1  0.34276500  0.33671800  0.96338200  1
  C  C5  1  0.33671800  0.34276500  0.35713400  1
  C  C6  1  0.28661800  0.89286600  0.90723500  1
  C  C7  1  0.35713400  0.96338200  0.33671800  1
  O  O0  1  0.00551700  0.29455700  0.92305400  1
  O  O1  1  0.55458900  0.55678100  0.31823900  1
  O  O2  1  0.77273300  0.27405100  0.03547600  1
  O  O3  1  0.97594900  0.47726700  0.33226000  1
  O  O4  1  0.03547600  0.91774000  0.77273300  1
  O  O5  1  0.95808300  0.34807300  0.22226900  1
  O  O6  1  0.31823900  0.57039100  0.55458900  1
  O  O7  1  0.55678100  0.55458900  0.57039100  1
  O  O8  1  0.47157500  0.22226900  0.34807300  1
  O  O9  1  0.91774000  0.03547600  0.27405100  1
  O  O10  1  0.95544300  0.24448300  0.47312800  1
  O  O11  1  0.57039100  0.31823900  0.55678100  1
  O  O12  1  0.92305400  0.77687200  0.00551700  1
  O  O13  1  0.77687200  0.92305400  0.29455700  1
  O  O14  1  0.90192700  0.29191700  0.77842500  1
  O  O15  1  0.22226900  0.47157500  0.95808300  1
  O  O16  1  0.02773100  0.77842500  0.29191700  1
  O  O17  1  0.34807300  0.95808300  0.47157500  1
  O  O18  1  0.47312800  0.32694600  0.95544300  1
  O  O19  1  0.32694600  0.47312800  0.24448300  1
  O  O20  1  0.67960900  0.93176100  0.69321900  1
  O  O21  1  0.29455700  0.00551700  0.77687200  1
  O  O22  1  0.33226000  0.21452400  0.97594900  1
  O  O23  1  0.77842500  0.02773100  0.90192700  1
  O  O24  1  0.69321900  0.69541100  0.67960900  1
  O  O25  1  0.93176100  0.67960900  0.69541100  1
  O  O26  1  0.29191700  0.90192700  0.02773100  1
  O  O27  1  0.21452400  0.33226000  0.47726700  1
  O  O28  1  0.27405100  0.77273300  0.91774000  1
  O  O29  1  0.47726700  0.97594900  0.21452400  1
  O  O30  1  0.69541100  0.69321900  0.93176100  1
  O  O31  1  0.24448300  0.95544300  0.32694600  1
loop_
_geom_bond_atom_site_label_1
_geom_bond_atom_site_label_2
_geom_bond_distance
_geom_bond_site_symmetry_2
Na0 O30 2.369872 1_555
Na0 O25 2.369872 1_555
Na0 O0 2.550364 1_655
Na0 O12 2.550364 1_556
Na0 O5 2.571391 1_556
Na0 O15 2.571391 1_655
Na1 O24 2.372125 1_555
Na1 O25 2.372125 1_555
Na1 O27 2.499860 1_655
Na1 O3 2.499860 1_555
Na1 O14 2.717944 1_555
Na1 O16 2.717944 1_655
Na2 O11 2.372125 1_555
Na2 O1 2.372125 1_555
Na2 O9 2.499860 1_555
Na2 O2 2.499860 1_555
Na2 O8 2.717944 1_555
Na2 O5 2.717944 1_555
Na3 O11 2.369872 1_555
Na3 O7 2.369872 1_555
Na3 O10 2.550364 1_555
Na3 O18 2.550364 1_555
Na3 O23 2.571391 1_555
Na3 O14 2.571391 1_555
Na4 O20 2.369872 1_555
Na4 O24 2.369872 1_555
Na4 O13 2.550364 1_555
Na4 O21 2.550364 1_565
Na4 O17 2.571391 1_555
Na4 O8 2.571391 1_565
Na5 O30 2.372125 1_555
Na5 O20 2.372125 1_555
Na5 O29 2.499860 1_556
Na5 O22 2.499860 1_565
Na5 O26 2.717944 1_556
Na5 O23 2.717944 1_565
Na6 O7 2.372125 1_555
Na6 O6 2.372125 1_555
Na6 O4 2.499860 1_555
Na6 O28 2.499860 1_555
Na6 O15 2.717944 1_555
Na6 O17 2.717944 1_555
Na7 O1 2.369872 1_555
Na7 O6 2.369872 1_555
Na7 O19 2.550364 1_555
Na7 O31 2.550364 1_555
Na7 O16 2.571391 1_555
Na7 O26 2.571391 1_555
Bi0 O28 2.375167 1_554
Bi0 O3 2.375167 1_455
Bi0 O15 2.385688 1_554
Bi0 O16 2.385688 1_555
Bi0 O19 2.393482 1_555
Bi0 O12 2.393482 1_455
Bi1 O2 2.375167 1_555
Bi1 O29 2.375167 1_545
Bi1 O23 2.385688 1_554
Bi1 O8 2.385688 1_555
Bi1 O18 2.393482 1_554
Bi1 O13 2.393482 1_545
Bi2 O22 2.375167 1_554
Bi2 O9 2.375167 1_455
Bi2 O26 2.385688 1_545
Bi2 O5 2.385688 1_455
Bi2 O0 2.393482 1_554
Bi2 O31 2.393482 1_545
Bi3 O4 2.375167 1_545
Bi3 O27 2.375167 1_555
Bi3 O17 2.385688 1_545
Bi3 O14 2.385688 1_455
Bi3 O10 2.393482 1_455
Bi3 O21 2.393482 1_555
C0 O2 1.292165 1_556
C0 O0 1.299639 1_655
C0 O14 1.310035 1_555
C1 O3 1.292169 1_555
C1 O10 1.299645 1_555
C1 O5 1.310025 1_555
C2 O4 1.292163 1_655
C2 O12 1.299646 1_556
C2 O23 1.310031 1_565
C3 O9 1.292159 1_565
C3 O13 1.299650 1_555
C3 O16 1.310031 1_655
C4 O22 1.292159 1_555
C4 O18 1.299650 1_555
C4 O15 1.310031 1_555
C5 O27 1.292163 1_555
C5 O19 1.299646 1_555
C5 O8 1.310031 1_555
C6 O28 1.292169 1_555
C6 O21 1.299645 1_565
C6 O26 1.310025 1_556
C7 O29 1.292165 1_555
C7 O31 1.299639 1_555
C7 O17 1.310035 1_555
O1 P0 1.551228 1_555
O6 P0 1.551228 1_555
O7 P0 1.551228 1_555
O11 P0 1.551228 1_555
O20 P1 1.551228 1_555
O24 P1 1.551228 1_555
O25 P1 1.551228 1_555
O30 P1 1.551228 1_555
