# generated using pymatgen
data_LiNiP2O7
_symmetry_space_group_name_H-M   'P 1'
_cell_length_a   13.32881700
_cell_length_b   5.07854900
_cell_length_c   9.63256906
_cell_angle_alpha   59.50725056
_cell_angle_beta   90.00000000
_cell_angle_gamma   90.00000000
_symmetry_Int_Tables_number   1
_chemical_formula_structural   LiNiP2O7
_chemical_formula_sum   'Li4 Ni4 P8 O28'
_cell_volume   561.85744587
_cell_formula_units_Z   4
loop_
 _symmetry_equiv_pos_site_id
 _symmetry_equiv_pos_as_xyz
  1  'x, y, z'
loop_
 _atom_site_type_symbol
 _atom_site_label
 _atom_site_symmetry_multiplicity
 _atom_site_fract_x
 _atom_site_fract_y
 _atom_site_fract_z
 _atom_site_occupancy
  Li  Li0  1  0.62859800  0.01392100  0.63981000  1
  Li  Li1  1  0.37140200  0.98607900  0.36019000  1
  Li  Li2  1  0.87140200  0.01392100  0.13981000  1
  Li  Li3  1  0.12859800  0.98607900  0.86019000  1
  Ni  Ni0  1  0.33089900  0.96229000  0.73649400  1
  Ni  Ni1  1  0.16910100  0.96229000  0.23649400  1
  Ni  Ni2  1  0.83089900  0.03771000  0.76350600  1
  Ni  Ni3  1  0.66910100  0.03771000  0.26350600  1
  P  P0  1  0.96772700  0.52753100  0.77531400  1
  P  P1  1  0.53227300  0.52753100  0.27531400  1
  P  P2  1  0.18048800  0.26754600  0.46360300  1
  P  P3  1  0.81951200  0.73245400  0.53639700  1
  P  P4  1  0.68048800  0.73245400  0.03639700  1
  P  P5  1  0.46772700  0.47246900  0.72468600  1
  P  P6  1  0.31951200  0.26754600  0.96360300  1
  P  P7  1  0.03227300  0.47246900  0.22468600  1
  O  O0  1  0.81102500  0.96615400  0.35701300  1
  O  O1  1  0.93736300  0.68233200  0.58341600  1
  O  O2  1  0.77645400  0.42235600  0.57711800  1
  O  O3  1  0.68897500  0.96615400  0.85701300  1
  O  O4  1  0.27069400  0.15171600  0.86069100  1
  O  O5  1  0.22930600  0.15171600  0.36069100  1
  O  O6  1  0.72354600  0.42235600  0.07711800  1
  O  O7  1  0.54228000  0.78306900  0.31500700  1
  O  O8  1  0.22354600  0.57764400  0.42288200  1
  O  O9  1  0.39129000  0.73677400  0.62957900  1
  O  O10  1  0.27645400  0.57764400  0.92288200  1
  O  O11  1  0.72930600  0.84828400  0.13930900  1
  O  O12  1  0.10871000  0.73677400  0.12957900  1
  O  O13  1  0.92874600  0.60529300  0.20506600  1
  O  O14  1  0.07125400  0.39470700  0.79493400  1
  O  O15  1  0.45772000  0.21693100  0.68499300  1
  O  O16  1  0.95772000  0.78306900  0.81500700  1
  O  O17  1  0.57125400  0.60529300  0.70506600  1
  O  O18  1  0.43736300  0.31766800  0.91658400  1
  O  O19  1  0.89129000  0.26322600  0.87042100  1
  O  O20  1  0.31102500  0.03384600  0.14298700  1
  O  O21  1  0.56263700  0.68233200  0.08341600  1
  O  O22  1  0.42874600  0.39470700  0.29493400  1
  O  O23  1  0.06263700  0.31766800  0.41658400  1
  O  O24  1  0.77069400  0.84828400  0.63930900  1
  O  O25  1  0.04228000  0.21693100  0.18499300  1
  O  O26  1  0.18897500  0.03384600  0.64298700  1
  O  O27  1  0.60871000  0.26322600  0.37042100  1
loop_
_geom_bond_atom_site_label_1
_geom_bond_atom_site_label_2
_geom_bond_distance
_geom_bond_site_symmetry_2
Li0 O17 1.990498 1_545
Li0 O24 2.073374 1_545
Li0 O3 2.137472 1_545
Li0 O27 2.252242 1_555
Li0 O15 2.625877 1_555
Li1 O22 1.990498 1_565
Li1 O5 2.073374 1_565
Li1 O20 2.137472 1_565
Li1 O9 2.252242 1_555
Li1 O7 2.625877 1_555
Li2 O13 1.990498 1_545
Li2 O11 2.073374 1_545
Li2 O0 2.137472 1_545
Li2 O19 2.252242 1_554
Li2 O25 2.625877 1_655
Li3 O14 1.990498 1_565
Li3 O4 2.073374 1_565
Li3 O26 2.137472 1_565
Li3 O12 2.252242 1_556
Li3 O16 2.625877 1_455
Ni0 O10 2.001672 1_555
Ni0 O15 2.030954 1_565
Ni0 O4 2.041718 1_565
Ni0 O26 2.046854 1_565
Ni0 O9 2.053601 1_555
Ni1 O8 2.001672 1_555
Ni1 O25 2.030954 1_565
Ni1 O5 2.041718 1_565
Ni1 O20 2.046854 1_565
Ni1 O12 2.053601 1_555
Ni2 O2 2.001672 1_555
Ni2 O16 2.030954 1_545
Ni2 O24 2.041718 1_545
Ni2 O3 2.046854 1_545
Ni2 O19 2.053601 1_555
Ni3 O6 2.001672 1_555
Ni3 O7 2.030954 1_545
Ni3 O11 2.041718 1_545
Ni3 O0 2.046854 1_545
Ni3 O27 2.053601 1_555
O0 P3 1.525086 1_555
O1 P3 1.618759 1_555
O1 P0 1.650424 1_555
O2 P3 1.528552 1_555
O3 P4 1.525086 1_556
O4 P6 1.530986 1_555
O5 P2 1.530986 1_555
O6 P4 1.528552 1_555
O7 P1 1.533536 1_555
O8 P2 1.528552 1_555
O9 P5 1.559175 1_555
O10 P6 1.528552 1_555
O11 P4 1.530986 1_555
O12 P7 1.559175 1_555
O13 P7 1.505146 1_655
O14 P0 1.505146 1_455
O15 P5 1.533536 1_555
O16 P0 1.533536 1_555
O17 P5 1.505146 1_555
O18 P6 1.618759 1_555
O18 P5 1.650424 1_555
O19 P0 1.559175 1_555
O20 P6 1.525086 1_554
O21 P4 1.618759 1_555
O21 P1 1.650424 1_555
O22 P1 1.505146 1_555
O23 P2 1.618759 1_555
O23 P7 1.650424 1_555
O24 P3 1.530986 1_555
O25 P7 1.533536 1_555
O26 P2 1.525086 1_555
O27 P1 1.559175 1_555
