# generated using pymatgen
data_Li3Mn3NiO8
_symmetry_space_group_name_H-M   'P 1'
_cell_length_a   5.81080600
_cell_length_b   5.81080600
_cell_length_c   9.49562835
_cell_angle_alpha   89.68053652
_cell_angle_beta   89.68053652
_cell_angle_gamma   119.13745792
_symmetry_Int_Tables_number   1
_chemical_formula_structural   Li3Mn3NiO8
_chemical_formula_sum   'Li6 Mn6 Ni2 O16'
_cell_volume   280.03365370
_cell_formula_units_Z   2
loop_
 _symmetry_equiv_pos_site_id
 _symmetry_equiv_pos_as_xyz
  1  'x, y, z'
loop_
 _atom_site_type_symbol
 _atom_site_label
 _atom_site_symmetry_multiplicity
 _atom_site_fract_x
 _atom_site_fract_y
 _atom_site_fract_z
 _atom_site_occupancy
  Li  Li0  1  0.16814700  0.82146800  0.44384100  1
  Li  Li1  1  0.17089300  0.34915800  0.44373300  1
  Li  Li2  1  0.65211300  0.82417100  0.44397500  1
  Li  Li3  1  0.34915800  0.17089300  0.94373300  1
  Li  Li4  1  0.82417100  0.65211300  0.94397500  1
  Li  Li5  1  0.82146800  0.16814700  0.94384100  1
  Mn  Mn0  1  0.16737600  0.83306600  0.71375800  1
  Mn  Mn1  1  0.16738600  0.33498500  0.71457600  1
  Mn  Mn2  1  0.66430200  0.83197300  0.71462900  1
  Mn  Mn3  1  0.33498500  0.16738600  0.21457600  1
  Mn  Mn4  1  0.83197300  0.66430200  0.21462900  1
  Mn  Mn5  1  0.83306600  0.16737600  0.21375800  1
  Ni  Ni0  1  0.33562200  0.67048400  0.99302800  1
  Ni  Ni1  1  0.67048400  0.33562200  0.49302800  1
  O  O0  1  0.16225900  0.84914200  0.10341400  1
  O  O1  1  0.03002800  0.51642500  0.83609600  1
  O  O2  1  0.15764500  0.31623100  0.10176300  1
  O  O3  1  0.30244800  0.65148000  0.59419900  1
  O  O4  1  0.47847000  0.96560400  0.83324100  1
  O  O5  1  0.48062300  0.51164900  0.83562800  1
  O  O6  1  0.31623100  0.15764500  0.60176300  1
  O  O7  1  0.69067500  0.84951700  0.10031200  1
  O  O8  1  0.51164900  0.48062300  0.33562800  1
  O  O9  1  0.51642500  0.03002800  0.33609600  1
  O  O10  1  0.01554200  0.03053300  0.32915200  1
  O  O11  1  0.65148000  0.30244800  0.09419900  1
  O  O12  1  0.03053300  0.01554200  0.82915200  1
  O  O13  1  0.84951700  0.69067500  0.60031200  1
  O  O14  1  0.96560400  0.47847000  0.33324100  1
  O  O15  1  0.84914200  0.16225900  0.60341400  1
loop_
_geom_bond_atom_site_label_1
_geom_bond_atom_site_label_2
_geom_bond_distance
_geom_bond_site_symmetry_2
Li0 O9 2.045926 1_565
Li0 O14 2.052649 1_455
Li0 O3 2.090579 1_555
Li0 O10 2.119730 1_565
Li0 O13 2.190811 1_455
Li0 O6 2.283702 1_565
Li1 O10 1.957664 1_555
Li1 O14 1.991596 1_455
Li1 O8 2.013351 1_555
Li1 O3 2.108147 1_555
Li1 O15 2.224137 1_455
Li1 O6 2.261453 1_555
Li2 O9 2.003919 1_565
Li2 O8 2.038479 1_555
Li2 O10 2.140136 1_665
Li2 O13 2.234720 1_555
Li2 O3 2.266352 1_555
Li2 O15 2.307507 1_565
Li3 O12 1.957664 1_555
Li3 O4 1.991596 1_545
Li3 O5 2.013351 1_555
Li3 O11 2.108147 1_556
Li3 O0 2.224137 1_546
Li3 O2 2.261453 1_556
Li4 O1 2.003919 1_655
Li4 O5 2.038479 1_555
Li4 O12 2.140136 1_665
Li4 O7 2.234720 1_556
Li4 O11 2.266352 1_556
Li4 O0 2.307507 1_656
Li5 O1 2.045926 1_655
Li5 O4 2.052649 1_545
Li5 O11 2.090579 1_556
Li5 O12 2.119730 1_655
Li5 O7 2.190811 1_546
Li5 O2 2.283702 1_656
Mn0 O12 1.944619 1_565
Mn0 O13 1.949470 1_455
Mn0 O6 1.953222 1_565
Mn0 O4 1.955771 1_555
Mn0 O3 1.956574 1_555
Mn0 O1 1.976779 1_555
Mn1 O15 1.940988 1_455
Mn1 O12 1.947304 1_555
Mn1 O6 1.956381 1_555
Mn1 O3 1.966156 1_555
Mn1 O1 1.975579 1_555
Mn1 O5 1.976105 1_555
Mn2 O4 1.962210 1_555
Mn2 O13 1.966776 1_555
Mn2 O15 1.977287 1_565
Mn2 O5 1.987896 1_555
Mn2 O12 2.162725 1_665
Mn2 O3 2.172916 1_555
Mn3 O0 1.940988 1_545
Mn3 O10 1.947304 1_555
Mn3 O2 1.956381 1_555
Mn3 O11 1.966156 1_555
Mn3 O9 1.975579 1_555
Mn3 O8 1.976105 1_555
Mn4 O14 1.962210 1_555
Mn4 O7 1.966776 1_555
Mn4 O0 1.977287 1_655
Mn4 O8 1.987896 1_555
Mn4 O10 2.162725 1_665
Mn4 O11 2.172916 1_555
Mn5 O10 1.944619 1_655
Mn5 O7 1.949470 1_545
Mn5 O2 1.953222 1_655
Mn5 O14 1.955771 1_555
Mn5 O11 1.956574 1_555
Mn5 O9 1.976779 1_555
Ni0 O0 2.051836 1_556
Ni0 O2 2.065015 1_556
Ni0 O7 2.078887 1_556
Ni0 O4 2.121962 1_555
Ni0 O5 2.134077 1_555
Ni0 O1 2.161394 1_555
Ni1 O15 2.051836 1_555
Ni1 O6 2.065015 1_555
Ni1 O13 2.078887 1_555
Ni1 O14 2.121962 1_555
Ni1 O8 2.134077 1_555
Ni1 O9 2.161394 1_555
