# generated using pymatgen
data_LiMnV(P2O7)2
_symmetry_space_group_name_H-M   'P 1'
_cell_length_a   8.15058800
_cell_length_b   9.97549253
_cell_length_c   13.66357936
_cell_angle_alpha   109.05206319
_cell_angle_beta   91.70900671
_cell_angle_gamma   90.45208771
_symmetry_Int_Tables_number   1
_chemical_formula_structural   LiMnV(P2O7)2
_chemical_formula_sum   'Li4 Mn4 V4 P16 O56'
_cell_volume   1049.42872072
_cell_formula_units_Z   4
loop_
 _symmetry_equiv_pos_site_id
 _symmetry_equiv_pos_as_xyz
  1  'x, y, z'
loop_
 _atom_site_type_symbol
 _atom_site_label
 _atom_site_symmetry_multiplicity
 _atom_site_fract_x
 _atom_site_fract_y
 _atom_site_fract_z
 _atom_site_occupancy
  Li  Li0  1  0.13656200  0.87141200  0.45697100  1
  Li  Li1  1  0.13655700  0.12189400  0.20681800  1
  Li  Li2  1  0.64212000  0.87947100  0.79183500  1
  Li  Li3  1  0.13713300  0.37229400  0.95638600  1
  Mn  Mn0  1  0.99249200  0.67074800  0.06174400  1
  Mn  Mn1  1  0.99337100  0.42148600  0.31358300  1
  Mn  Mn2  1  0.00714600  0.91274800  0.80825000  1
  Mn  Mn3  1  0.99372100  0.17216600  0.56297000  1
  V  V0  1  0.50525000  0.83849000  0.44115900  1
  V  V1  1  0.50494500  0.08973600  0.19334800  1
  V  V2  1  0.49542200  0.58255200  0.69035000  1
  V  V3  1  0.50569100  0.34035400  0.94160700  1
  P  P0  1  0.21942900  0.90009300  0.00959500  1
  P  P1  1  0.71265100  0.84606600  0.23890200  1
  P  P2  1  0.82385800  0.38829000  0.09094000  1
  P  P3  1  0.21790100  0.64986200  0.25857700  1
  P  P4  1  0.32117500  0.35686400  0.15842700  1
  P  P5  1  0.82239900  0.88738400  0.58985200  1
  P  P6  1  0.71140000  0.59556000  0.49041100  1
  P  P7  1  0.31822600  0.85839800  0.65796100  1
  P  P8  1  0.82365900  0.13839800  0.34089100  1
  P  P9  1  0.21765500  0.40087000  0.50946700  1
  P  P10  1  0.32063500  0.10705700  0.40901800  1
  P  P11  1  0.82483500  0.64076200  0.84073700  1
  P  P12  1  0.71297600  0.34694600  0.73911200  1
  P  P13  1  0.32179200  0.60652100  0.90812500  1
  P  P14  1  0.21875500  0.14981800  0.75903300  1
  P  P15  1  0.71064900  0.09826800  0.99105100  1
  O  O0  1  0.06675400  0.85874000  0.05657200  1
  O  O1  1  0.56024900  0.90313900  0.19601700  1
  O  O2  1  0.85015100  0.97335800  0.27528500  1
  O  O3  1  0.79790600  0.72413900  0.16555800  1
  O  O4  1  0.17374100  0.69271300  0.16358800  1
  O  O5  1  0.96196400  0.46236900  0.05341900  1
  O  O6  1  0.65274900  0.42498300  0.05791900  1
  O  O7  1  0.32870800  0.34975600  0.04367500  1
  O  O8  1  0.66380600  0.81622300  0.33845000  1
  O  O9  1  0.31284300  0.77083600  0.34072700  1
  O  O10  1  0.85059700  0.22208600  0.02490400  1
  O  O11  1  0.34722700  0.52214400  0.22643200  1
  O  O12  1  0.06657400  0.60832400  0.30682200  1
  O  O13  1  0.82734100  0.40541700  0.20549900  1
  O  O14  1  0.96154300  0.96376200  0.55571800  1
  O  O15  1  0.65156300  0.92597600  0.55781400  1
  O  O16  1  0.15570500  0.30694600  0.18287400  1
  O  O17  1  0.46517700  0.28068200  0.19022700  1
  O  O18  1  0.32969100  0.84961200  0.54305800  1
  O  O19  1  0.56053400  0.65312500  0.44622700  1
  O  O20  1  0.66581900  0.06631700  0.08975100  1
  O  O21  1  0.84945200  0.72299100  0.52576700  1
  O  O22  1  0.31402400  0.02063700  0.09205000  1
  O  O23  1  0.79688100  0.47378200  0.41709100  1
  O  O24  1  0.82256800  0.90479500  0.70559900  1
  O  O25  1  0.17315800  0.44364700  0.41417000  1
  O  O26  1  0.96163000  0.21323900  0.30370000  1
  O  O27  1  0.15215000  0.81304200  0.68042700  1
  O  O28  1  0.65233100  0.17597500  0.30835500  1
  O  O29  1  0.46349800  0.78660500  0.69440900  1
  O  O30  1  0.32811200  0.09986600  0.29395800  1
  O  O31  1  0.65886000  0.56803600  0.59024500  1
  O  O32  1  0.31969300  0.52044800  0.58636200  1
  O  O33  1  0.78766400  0.97430100  0.91192400  1
  O  O34  1  0.34662100  0.27151100  0.47606300  1
  O  O35  1  0.17921900  0.94567800  0.91542700  1
  O  O36  1  0.06698700  0.35576700  0.55531700  1
  O  O37  1  0.82684900  0.15575800  0.45562400  1
  O  O38  1  0.96228100  0.72036200  0.80900800  1
  O  O39  1  0.65496400  0.68118000  0.80572000  1
  O  O40  1  0.15531700  0.05598600  0.43280200  1
  O  O41  1  0.46476700  0.03031900  0.44032500  1
  O  O42  1  0.33763000  0.59937700  0.79422700  1
  O  O43  1  0.55907400  0.39825000  0.69421400  1
  O  O44  1  0.84788900  0.47561100  0.77541600  1
  O  O45  1  0.34768600  0.77197900  0.97614300  1
  O  O46  1  0.79966700  0.22425800  0.66717100  1
  O  O47  1  0.82487400  0.65441300  0.95519000  1
  O  O48  1  0.17388800  0.19238100  0.66415600  1
  O  O49  1  0.15618200  0.55706200  0.93205700  1
  O  O50  1  0.46518500  0.53153800  0.94212600  1
  O  O51  1  0.66277300  0.31610300  0.83866100  1
  O  O52  1  0.31076600  0.27177200  0.84183800  1
  O  O53  1  0.35112600  0.02462800  0.72662000  1
  O  O54  1  0.06822000  0.10323500  0.80591600  1
  O  O55  1  0.55845200  0.15170400  0.94563400  1
loop_
_geom_bond_atom_site_label_1
_geom_bond_atom_site_label_2
_geom_bond_distance
_geom_bond_site_symmetry_2
Li0 O40 1.979401 1_565
Li0 O18 1.992654 1_555
Li0 O14 2.007014 1_455
Li0 O9 2.170764 1_555
Li1 O16 1.982885 1_555
Li1 O26 1.990228 1_455
Li1 O30 1.992204 1_555
Li1 O22 2.166991 1_555
Li2 O29 1.951370 1_555
Li2 O33 1.961456 1_555
Li2 O24 1.976651 1_555
Li2 O39 2.051028 1_555
Li3 O49 1.982520 1_555
Li3 O5 1.989721 1_456
Li3 O7 1.995163 1_556
Li3 O52 2.141934 1_555
Mn0 O47 1.932783 1_554
Mn0 O4 1.959597 1_655
Mn0 O0 1.989802 1_655
Mn0 O5 2.057075 1_555
Mn0 O3 2.113146 1_555
Mn0 O49 2.249225 1_654
Mn1 O13 1.939269 1_555
Mn1 O25 1.939459 1_655
Mn1 O12 1.984042 1_655
Mn1 O26 2.051076 1_555
Mn1 O23 2.122216 1_555
Mn1 O16 2.253523 1_655
Mn2 O35 1.943090 1_555
Mn2 O38 1.954245 1_455
Mn2 O54 1.971081 1_565
Mn2 O24 2.009083 1_455
Mn2 O27 2.108077 1_555
Mn2 O33 2.276946 1_455
Mn3 O37 1.936166 1_555
Mn3 O48 1.949552 1_655
Mn3 O36 1.957923 1_655
Mn3 O14 2.062989 1_545
Mn3 O46 2.112587 1_555
Mn3 O40 2.249292 1_655
O0 P0 1.530715 1_555
O1 P1 1.547905 1_555
O1 V1 1.930257 1_565
O2 P8 1.616889 1_565
O2 P1 1.627177 1_555
O3 P1 1.491846 1_555
O4 P3 1.527597 1_555
O5 P2 1.531216 1_555
O6 P2 1.536524 1_555
O6 V3 1.915606 1_554
O7 P4 1.549326 1_555
O7 V3 2.017754 1_554
O8 P1 1.546610 1_555
O8 V0 1.896864 1_555
O9 P3 1.537586 1_555
O9 V0 2.012021 1_555
O10 P15 1.616771 1_554
O10 P2 1.628269 1_555
O11 P4 1.615361 1_555
O11 P3 1.615762 1_555
O12 P3 1.531758 1_555
O13 P2 1.517497 1_555
O14 P5 1.527785 1_555
O15 P5 1.536481 1_555
O15 V0 1.920006 1_555
O16 P4 1.517675 1_555
O17 P4 1.530727 1_555
O17 V1 1.948594 1_555
O18 P7 1.549296 1_555
O18 V0 2.004698 1_555
O19 P6 1.549013 1_555
O19 V0 1.929226 1_555
O20 P15 1.536873 1_554
O20 V1 1.917597 1_555
O21 P5 1.607601 1_555
O21 P6 1.630787 1_555
O22 P0 1.535844 1_545
O22 V1 2.010994 1_555
O23 P6 1.491725 1_555
O24 P5 1.533593 1_555
O25 P9 1.531701 1_555
O26 P8 1.532554 1_555
O27 P7 1.495663 1_555
O28 P8 1.538886 1_555
O28 V1 1.908144 1_555
O29 P7 1.540763 1_555
O29 V2 2.037075 1_555
O30 P10 1.553259 1_555
O30 V1 2.001775 1_555
O31 P6 1.548228 1_555
O31 V2 1.910177 1_555
O32 P9 1.527242 1_555
O32 V2 1.934948 1_555
O33 P15 1.507335 1_565
O34 P10 1.605347 1_555
O34 P9 1.626015 1_555
O35 P0 1.526072 1_556
O36 P9 1.524518 1_555
O37 P8 1.519373 1_555
O38 P11 1.520899 1_555
O39 P11 1.550386 1_555
O39 V2 1.997216 1_555
O40 P10 1.517933 1_555
O41 P10 1.532003 1_555
O41 V0 1.948025 1_545
O42 P13 1.543824 1_555
O42 V2 1.911409 1_555
O43 P12 1.543038 1_555
O43 V2 1.931016 1_555
O44 P11 1.612751 1_555
O44 P12 1.622383 1_555
O45 P0 1.613451 1_556
O45 P13 1.616744 1_555
O46 P12 1.494332 1_555
O47 P11 1.524819 1_555
O48 P14 1.525801 1_555
O49 P13 1.514432 1_555
O50 P13 1.532823 1_555
O50 V3 1.935855 1_555
O51 P12 1.554560 1_555
O51 V3 1.888498 1_555
O52 P14 1.535870 1_555
O52 V3 2.023685 1_555
O53 P14 1.615064 1_555
O53 P7 1.632202 1_545
O54 P14 1.537503 1_555
O55 P15 1.545490 1_555
O55 V3 1.951506 1_555
