# generated using pymatgen
data_Na2P2H14O13
_symmetry_space_group_name_H-M   'P 1'
_cell_length_a   7.89692056
_cell_length_b   7.89692056
_cell_length_c   13.52892312
_cell_angle_alpha   65.39001733
_cell_angle_beta   65.39001733
_cell_angle_gamma   52.75186236
_symmetry_Int_Tables_number   1
_chemical_formula_structural   Na2P2H14O13
_chemical_formula_sum   'Na4 P4 H28 O26'
_cell_volume   594.62549087
_cell_formula_units_Z   2
loop_
 _symmetry_equiv_pos_site_id
 _symmetry_equiv_pos_as_xyz
  1  'x, y, z'
loop_
 _atom_site_type_symbol
 _atom_site_label
 _atom_site_symmetry_multiplicity
 _atom_site_fract_x
 _atom_site_fract_y
 _atom_site_fract_z
 _atom_site_occupancy
  Na  Na0  1  0.14482600  0.38220800  0.23067100  1
  Na  Na1  1  0.61779200  0.85517400  0.26932900  1
  Na  Na2  1  0.85517400  0.61779200  0.76932900  1
  Na  Na3  1  0.38220800  0.14482600  0.73067100  1
  P  P0  1  0.14444100  0.85578600  0.13956400  1
  P  P1  1  0.14421400  0.85555900  0.36043600  1
  P  P2  1  0.85555900  0.14421400  0.86043600  1
  P  P3  1  0.85578600  0.14444100  0.63956400  1
  H  H0  1  0.85447700  0.71035000  0.06809100  1
  H  H1  1  0.28965000  0.14552300  0.43190900  1
  H  H2  1  0.14552300  0.28965000  0.93190900  1
  H  H3  1  0.71035000  0.85447700  0.56809100  1
  H  H4  1  0.34028700  0.08642600  0.10184700  1
  H  H5  1  0.91357400  0.65971300  0.39815300  1
  H  H6  1  0.65971300  0.91357400  0.89815300  1
  H  H7  1  0.08642600  0.34028700  0.60184700  1
  H  H8  1  0.53095100  0.46962600  0.11393000  1
  H  H9  1  0.53037400  0.46904900  0.38607000  1
  H  H10  1  0.46904900  0.53037400  0.88607000  1
  H  H11  1  0.46962600  0.53095100  0.61393000  1
  H  H12  1  0.78567000  0.53585700  0.12461500  1
  H  H13  1  0.46414300  0.21433000  0.37538500  1
  H  H14  1  0.21433000  0.46414300  0.87538500  1
  H  H15  1  0.53585700  0.78567000  0.62461500  1
  H  H16  1  0.73719000  0.37810200  0.01891200  1
  H  H17  1  0.62189800  0.26281000  0.48108800  1
  H  H18  1  0.26281000  0.62189800  0.98108800  1
  H  H19  1  0.37810200  0.73719000  0.51891200  1
  H  H20  1  0.55187600  0.09370900  0.05844300  1
  H  H21  1  0.90629100  0.44812400  0.44155700  1
  H  H22  1  0.44812400  0.90629100  0.94155700  1
  H  H23  1  0.09370900  0.55187600  0.55844300  1
  H  H24  1  0.80513800  0.14296100  0.15210500  1
  H  H25  1  0.85703900  0.19486200  0.34789500  1
  H  H26  1  0.19486200  0.85703900  0.84789500  1
  H  H27  1  0.14296100  0.80513800  0.65210500  1
  O  O0  1  0.21213700  0.01539400  0.05417700  1
  O  O1  1  0.98460600  0.78786300  0.44582300  1
  O  O2  1  0.78786300  0.98460600  0.94582300  1
  O  O3  1  0.01539400  0.21213700  0.55417700  1
  O  O4  1  0.23550300  0.64709900  0.10836300  1
  O  O5  1  0.35290100  0.76449700  0.39163700  1
  O  O6  1  0.76449700  0.35290100  0.89163700  1
  O  O7  1  0.64709900  0.23550300  0.60836300  1
  O  O8  1  0.88643300  0.97450600  0.18275300  1
  O  O9  1  0.02549400  0.11356700  0.31724700  1
  O  O10  1  0.11356700  0.02549400  0.81724700  1
  O  O11  1  0.97450600  0.88643300  0.68275300  1
  O  O12  1  0.23547200  0.76452800  0.25000000  1
  O  O13  1  0.76452800  0.23547200  0.75000000  1
  O  O14  1  0.83978200  0.60642600  0.13882600  1
  O  O15  1  0.39357400  0.16021800  0.36117400  1
  O  O16  1  0.16021800  0.39357400  0.86117400  1
  O  O17  1  0.60642600  0.83978200  0.63882600  1
  O  O18  1  0.42347800  0.11864500  0.12213500  1
  O  O19  1  0.88135500  0.57652200  0.37786500  1
  O  O20  1  0.57652200  0.88135500  0.87786500  1
  O  O21  1  0.11864500  0.42347800  0.62213500  1
  O  O22  1  0.69309700  0.38634500  0.09866700  1
  O  O23  1  0.61365500  0.30690300  0.40133300  1
  O  O24  1  0.30690300  0.61365500  0.90133300  1
  O  O25  1  0.38634500  0.69309700  0.59866700  1
loop_
_geom_bond_atom_site_label_1
_geom_bond_atom_site_label_2
_geom_bond_distance
_geom_bond_site_symmetry_2
Na0 O4 2.360089 1_555
Na0 O18 2.374935 1_555
Na0 O19 2.424568 1_455
Na0 O14 2.445242 1_455
Na0 O15 2.488206 1_555
Na0 O9 2.488299 1_555
Na1 O5 2.360089 1_555
Na1 O19 2.374935 1_555
Na1 O18 2.424568 1_565
Na1 O15 2.445242 1_565
Na1 O14 2.488206 1_555
Na1 O8 2.488299 1_555
Na2 O6 2.360089 1_555
Na2 O20 2.374935 1_555
Na2 O21 2.424568 1_655
Na2 O16 2.445242 1_655
Na2 O17 2.488206 1_555
Na2 O11 2.488299 1_555
Na3 O7 2.360089 1_555
Na3 O21 2.374935 1_555
Na3 O20 2.424568 1_545
Na3 O17 2.445242 1_545
Na3 O16 2.488206 1_555
Na3 O10 2.488299 1_555
H0 O14 0.985622 1_555
H1 O15 0.985622 1_555
H2 O16 0.985622 1_555
H3 O17 0.985622 1_555
H4 O18 0.991133 1_555
H5 O19 0.991133 1_555
H6 O20 0.991133 1_555
H7 O21 0.991133 1_555
H8 O22 0.994088 1_555
H9 O23 0.994088 1_555
H10 O24 0.994088 1_555
H11 O25 0.994088 1_555
H12 O14 0.987956 1_555
H13 O15 0.987956 1_555
H14 O16 0.987956 1_555
H15 O17 0.987956 1_555
H16 O22 1.003923 1_555
H16 O6 1.724884 1_554
H17 O23 1.003923 1_555
H17 O7 1.724884 1_555
H18 O24 1.003923 1_555
H18 O4 1.724884 1_556
H19 O25 1.003923 1_555
H19 O5 1.724884 1_555
H20 O18 0.990607 1_555
H21 O19 0.990607 1_555
H22 O20 0.990607 1_555
H23 O21 0.990607 1_555
H24 O8 1.040282 1_545
H24 O22 1.521983 1_555
H25 O9 1.040282 1_655
H25 O23 1.521983 1_555
H26 O10 1.040282 1_565
H26 O24 1.521983 1_555
H27 O11 1.040282 1_455
H27 O25 1.521983 1_555
O0 P0 1.515759 1_545
O1 P1 1.515759 1_655
O2 P2 1.515759 1_565
O3 P3 1.515759 1_455
O4 P0 1.517609 1_555
O5 P1 1.517609 1_555
O6 P2 1.517609 1_555
O7 P3 1.517609 1_555
O8 P0 1.588714 1_655
O9 P1 1.588714 1_545
O10 P2 1.588714 1_455
O11 P3 1.588714 1_565
O12 P1 1.624510 1_555
O12 P0 1.624510 1_555
O13 P3 1.624510 1_555
O13 P2 1.624510 1_555
