# generated using pymatgen
data_Zn3Fe15Cu39(Ge3S32)2
_symmetry_space_group_name_H-M   'P 1'
_cell_length_a   10.48795364
_cell_length_b   10.47680660
_cell_length_c   20.97767756
_cell_angle_alpha   89.97705023
_cell_angle_beta   89.72313995
_cell_angle_gamma   89.79752376
_symmetry_Int_Tables_number   1
_chemical_formula_structural   Zn3Fe15Cu39(Ge3S32)2
_chemical_formula_sum   'Zn3 Fe15 Cu39 Ge6 S64'
_cell_volume   2304.99123241
_cell_formula_units_Z   1
loop_
 _symmetry_equiv_pos_site_id
 _symmetry_equiv_pos_as_xyz
  1  'x, y, z'
loop_
 _atom_site_type_symbol
 _atom_site_label
 _atom_site_symmetry_multiplicity
 _atom_site_fract_x
 _atom_site_fract_y
 _atom_site_fract_z
 _atom_site_occupancy
  Zn  Zn0  1  0.00252965  0.01163946  0.99810728  1
  Zn  Zn1  1  0.99730060  0.99561579  0.49424309  1
  Zn  Zn2  1  0.49751439  0.98816569  0.99803057  1
  Fe  Fe0  1  0.99824125  0.49903122  0.25061368  1
  Fe  Fe1  1  -0.00027622  0.50000653  0.74981602  1
  Fe  Fe2  1  0.24990322  0.49959096  0.12645727  1
  Fe  Fe3  1  0.25102632  0.50104368  0.62750008  1
  Fe  Fe4  1  0.24894730  0.50055151  0.37253405  1
  Fe  Fe5  1  0.25010015  0.49537736  0.50020056  1
  Fe  Fe6  1  0.25015650  0.49958187  0.87246653  1
  Fe  Fe7  1  0.50096430  0.50073565  0.25041535  1
  Fe  Fe8  1  0.50129574  0.49990315  0.74924065  1
  Fe  Fe9  1  0.74914159  0.99977508  0.24781263  1
  Fe  Fe10  1  0.74925100  0.25535451  0.25043471  1
  Fe  Fe11  1  0.75062668  0.99982895  0.75032257  1
  Fe  Fe12  1  0.75216586  0.25475128  0.74949938  1
  Fe  Fe13  1  0.75079969  0.74353585  0.25049652  1
  Fe  Fe14  1  0.74790808  0.74457789  0.74977943  1
  Cu  Cu0  1  0.00352926  0.99957254  0.25055743  1
  Cu  Cu1  1  0.00687307  0.99299102  0.75089972  1
  Cu  Cu2  1  0.00210968  0.26054452  0.12245391  1
  Cu  Cu3  1  0.00171043  0.25486149  0.62601101  1
  Cu  Cu4  1  0.99582889  0.75149712  0.37480407  1
  Cu  Cu5  1  0.00881974  0.74118746  0.87203869  1
  Cu  Cu6  1  0.24270900  0.25087571  0.99783755  1
  Cu  Cu7  1  0.25051953  0.24543769  0.24952925  1
  Cu  Cu8  1  0.25593619  0.24117342  0.75279702  1
  Cu  Cu9  1  0.25730701  0.74919287  0.99780255  1
  Cu  Cu10  1  0.25071187  0.75270104  0.49932175  1
  Cu  Cu11  1  0.25043843  0.75346991  0.24876619  1
  Cu  Cu12  1  0.24362217  0.75774995  0.75330290  1
  Cu  Cu13  1  0.49171718  0.25863051  0.87226020  1
  Cu  Cu14  1  0.49777676  0.73934900  0.12240474  1
  Cu  Cu15  1  0.49987267  0.25435660  0.37491851  1
  Cu  Cu16  1  0.50495217  0.75277979  0.62577108  1
  Cu  Cu17  1  0.49672394  0.00044559  0.25076988  1
  Cu  Cu18  1  0.49223973  0.00700599  0.75118970  1
  Cu  Cu19  1  0.50247892  0.99824491  0.50449371  1
  Cu  Cu20  1  0.49656035  0.49919212  0.00003101  1
  Cu  Cu21  1  0.50798299  0.50410229  0.49600209  1
  Cu  Cu22  1  0.50112930  0.24989691  0.12774966  1
  Cu  Cu23  1  0.49552063  0.25131596  0.62646205  1
  Cu  Cu24  1  0.49577259  0.74999512  0.87597981  1
  Cu  Cu25  1  0.49928748  0.74122009  0.37466655  1
  Cu  Cu26  1  0.75003850  0.49986287  0.12319464  1
  Cu  Cu27  1  0.74252382  0.99440994  0.62135255  1
  Cu  Cu28  1  0.75609194  0.50368260  0.62026458  1
  Cu  Cu29  1  0.74999493  0.49971928  0.87599803  1
  Cu  Cu30  1  0.74392049  0.50415725  0.37960805  1
  Cu  Cu31  1  0.75010585  0.00007832  0.87695851  1
  Cu  Cu32  1  0.75662279  0.99714509  0.37870070  1
  Cu  Cu33  1  0.00355314  0.25081554  0.37335907  1
  Cu  Cu34  1  0.99850666  0.75030605  0.12772481  1
  Cu  Cu35  1  0.99857196  0.73909993  0.62569265  1
  Cu  Cu36  1  0.00445320  0.24968821  0.87597116  1
  Cu  Cu37  1  0.00353901  0.50075754  0.00004014  1
  Cu  Cu38  1  0.99224835  0.50405559  0.50410855  1
  Ge  Ge0  1  0.24990339  -0.00027605  0.12460452  1
  Ge  Ge1  1  0.25521952  0.00179517  0.62436818  1
  Ge  Ge2  1  0.24738548  -0.00005897  0.37670874  1
  Ge  Ge3  1  0.75385332  0.24930085  0.00088084  1
  Ge  Ge4  1  0.74856083  0.24921267  0.49920451  1
  Ge  Ge5  1  0.74648363  0.75010627  0.00078465  1
  S  S0  1  0.12941432  0.13160987  0.43709808  1
  S  S1  1  0.12455598  0.87158314  0.06342676  1
  S  S2  1  0.13201783  0.12539745  0.93248869  1
  S  S3  1  0.12401445  0.87280363  0.56577812  1
  S  S4  1  0.12232756  0.12605678  0.18569657  1
  S  S5  1  0.12553366  0.12500244  0.68705020  1
  S  S6  1  0.12444151  0.87184627  0.31283680  1
  S  S7  1  0.12526155  0.87825964  0.81582072  1
  S  S8  1  0.13306883  0.38419134  0.06399763  1
  S  S9  1  0.12986464  0.38605953  0.56607853  1
  S  S10  1  0.12858506  0.61879632  0.43662441  1
  S  S11  1  0.13246539  0.61774952  0.93515655  1
  S  S12  1  0.12453726  0.62307051  0.18826516  1
  S  S13  1  0.12561073  0.37886306  0.31066371  1
  S  S14  1  0.12506780  0.37495124  0.81066595  1
  S  S15  1  0.12667949  0.62162386  0.68976009  1
  S  S16  1  0.37345802  0.62183055  0.31080742  1
  S  S17  1  0.37560908  0.62470399  0.81071757  1
  S  S18  1  0.37409557  0.37866093  0.68971408  1
  S  S19  1  0.37475421  0.37684328  0.18852589  1
  S  S20  1  0.36683569  0.61591076  0.06389554  1
  S  S21  1  0.37147085  0.61841029  0.56369188  1
  S  S22  1  0.37070861  0.38607456  0.43423547  1
  S  S23  1  0.36767210  0.38227561  0.93517935  1
  S  S24  1  0.37490922  0.12576591  0.31412626  1
  S  S25  1  0.37463484  0.12267577  0.81622514  1
  S  S26  1  0.37772548  0.87401629  0.18550894  1
  S  S27  1  0.37613763  0.87184699  0.68869412  1
  S  S28  1  0.37560525  0.12851953  0.06343465  1
  S  S29  1  0.37643285  0.12675676  0.56311325  1
  S  S30  1  0.37987438  0.87445167  0.43645039  1
  S  S31  1  0.36819475  0.87491261  0.93241299  1
  S  S32  1  0.62137708  0.12553681  0.43735308  1
  S  S33  1  0.62272954  0.13217426  0.93598515  1
  S  S34  1  0.62881608  0.87140763  0.06614177  1
  S  S35  1  0.62323994  0.86914605  0.56152094  1
  S  S36  1  0.62324241  0.37370416  0.06221582  1
  S  S37  1  0.62363481  0.37324671  0.56293796  1
  S  S38  1  0.62257865  0.62419419  0.93677935  1
  S  S39  1  0.62746655  0.63330577  0.43866363  1
  S  S40  1  0.62985839  0.13123770  0.19238497  1
  S  S41  1  0.63086871  0.12888255  0.69035305  1
  S  S42  1  0.63058104  0.87154073  0.31031809  1
  S  S43  1  0.62868296  0.87205918  0.80972591  1
  S  S44  1  0.62542367  0.37877563  0.31166423  1
  S  S45  1  0.62513467  0.62242945  0.18982165  1
  S  S46  1  0.62541494  0.62126477  0.68841439  1
  S  S47  1  0.62549868  0.37664284  0.80969889  1
  S  S48  1  0.87491239  0.37735659  0.18994906  1
  S  S49  1  0.87472635  0.62063718  0.31168187  1
  S  S50  1  0.87478223  0.37891135  0.68897722  1
  S  S51  1  0.87421994  0.62328002  0.80978759  1
  S  S52  1  0.86937379  0.12791291  0.30992437  1
  S  S53  1  0.87176994  0.12827227  0.80934468  1
  S  S54  1  0.86937496  0.86912138  0.19194859  1
  S  S55  1  0.86847705  0.87034461  0.68960608  1
  S  S56  1  0.87680753  0.62634413  0.06217311  1
  S  S57  1  0.87059623  0.63422842  0.56069642  1
  S  S58  1  0.87599716  0.37360290  0.43714522  1
  S  S59  1  0.87758774  0.37590794  0.93677856  1
  S  S60  1  0.87107676  0.12871039  0.06614790  1
  S  S61  1  0.87636130  0.12847525  0.56378243  1
  S  S62  1  0.86877213  0.86238241  0.43857015  1
  S  S63  1  0.87774890  0.86812954  0.93575067  1
loop_
_geom_bond_atom_site_label_1
_geom_bond_atom_site_label_2
_geom_bond_distance
_geom_bond_site_symmetry_2
Fe0 S49 2.217213 1_555
Fe0 S48 2.224063 1_555
Fe0 S13 2.226990 1_655
Fe0 S12 2.268933 1_655
Fe1 S51 2.226343 1_455
Fe1 S15 2.231159 1_555
Fe1 S50 2.232648 1_455
Fe1 S14 2.253194 1_555
Fe2 S20 2.169163 1_555
Fe2 S8 2.169620 1_555
Fe2 S12 2.248633 1_555
Fe2 S19 2.250999 1_555
Fe3 S9 2.180383 1_555
Fe3 S21 2.211951 1_555
Fe3 S15 2.230637 1_555
Fe3 S18 2.239766 1_555
Fe4 S22 2.179105 1_555
Fe4 S10 2.215785 1_555
Fe4 S16 2.233949 1_555
Fe4 S13 2.238838 1_555
Fe5 S22 2.190986 1_555
Fe5 S9 2.191764 1_555
Fe5 S10 2.253498 1_555
Fe5 S21 2.255032 1_555
Fe6 S11 2.181872 1_555
Fe6 S23 2.182630 1_555
Fe6 S17 2.263155 1_555
Fe6 S14 2.266433 1_555
Fe7 S45 2.220736 1_555
Fe7 S16 2.230652 1_555
Fe7 S44 2.233940 1_555
Fe7 S19 2.269937 1_555
Fe8 S46 2.221203 1_555
Fe8 S47 2.230647 1_555
Fe8 S18 2.232017 1_555
Fe8 S17 2.254585 1_555
Fe9 S54 2.193623 1_555
Fe9 S40 2.194229 1_565
Fe9 S42 2.250573 1_555
Fe9 S52 2.262584 1_565
Fe10 S40 2.183872 1_555
Fe10 S52 2.220197 1_555
Fe10 S48 2.230502 1_555
Fe10 S44 2.231988 1_555
Fe11 S55 2.228148 1_555
Fe11 S43 2.230656 1_555
Fe11 S53 2.233105 1_565
Fe11 S41 2.233874 1_565
Fe12 S53 2.215313 1_555
Fe12 S41 2.219291 1_555
Fe12 S50 2.225423 1_555
Fe12 S47 2.227901 1_555
Fe13 S54 2.186713 1_555
Fe13 S42 2.221973 1_555
Fe13 S45 2.235242 1_555
Fe13 S49 2.235532 1_555
Fe14 S43 2.214302 1_555
Fe14 S55 2.218915 1_555
Fe14 S51 2.226552 1_555
Fe14 S46 2.237345 1_555
Cu0 S6 2.260158 1_555
Cu0 S4 2.270149 1_565
Cu0 S52 2.304267 1_465
Cu0 S54 2.321816 1_455
Cu1 S7 2.201314 1_555
Cu1 S5 2.291342 1_565
Cu1 S55 2.333179 1_455
Cu1 S53 2.343102 1_465
Cu2 S8 2.250197 1_555
Cu2 S60 2.285147 1_455
Cu2 S48 2.292102 1_455
Cu2 S4 2.310239 1_555
Cu3 S50 2.275546 1_455
Cu3 S5 2.275796 1_555
Cu3 S61 2.283856 1_455
Cu3 S9 2.296061 1_555
Cu4 S62 2.210827 1_555
Cu4 S6 2.256739 1_655
Cu4 S49 2.297005 1_555
Cu4 S10 2.357038 1_655
Cu5 S7 2.222985 1_555
Cu5 S11 2.260673 1_555
Cu5 S51 2.292498 1_455
Cu5 S63 2.327127 1_455
Cu6 S2 2.232227 1_555
Cu6 S8 2.274666 1_556
Cu6 S23 2.309810 1_555
Cu6 S28 2.341806 1_556
Cu7 S24 2.261497 1_555
Cu7 S4 2.279395 1_555
Cu7 S19 2.286015 1_555
Cu7 S13 2.299392 1_555
Cu8 S25 2.205730 1_555
Cu8 S5 2.298998 1_555
Cu8 S14 2.300784 1_555
Cu8 S18 2.314526 1_555
Cu9 S31 2.227774 1_555
Cu9 S20 2.279092 1_556
Cu9 S11 2.317031 1_555
Cu9 S1 2.334110 1_556
Cu10 S30 2.279300 1_555
Cu10 S3 2.294384 1_555
Cu10 S10 2.317119 1_555
Cu10 S21 2.325802 1_555
Cu11 S6 2.250201 1_555
Cu11 S26 2.265292 1_555
Cu11 S12 2.291533 1_555
Cu11 S16 2.294085 1_555
Cu12 S7 2.197616 1_555
Cu12 S27 2.278091 1_555
Cu12 S17 2.304546 1_555
Cu12 S15 2.311872 1_555
Cu13 S25 2.223988 1_555
Cu13 S23 2.255131 1_555
Cu13 S47 2.283172 1_555
Cu13 S33 2.331045 1_555
Cu14 S20 2.257216 1_555
Cu14 S34 2.278705 1_555
Cu14 S45 2.300011 1_555
Cu14 S26 2.302418 1_555
Cu15 S32 2.272302 1_555
Cu15 S44 2.277639 1_555
Cu15 S24 2.277949 1_555
Cu15 S22 2.293406 1_555
Cu16 S35 2.198915 1_555
Cu16 S27 2.257397 1_555
Cu16 S46 2.285579 1_555
Cu16 S21 2.381300 1_555
Cu17 S24 2.257353 1_555
Cu17 S26 2.283857 1_545
Cu17 S40 2.307182 1_555
Cu17 S42 2.314613 1_545
Cu18 S25 2.196755 1_555
Cu18 S27 2.288173 1_545
Cu18 S41 2.316666 1_555
Cu18 S43 2.357078 1_545
Cu19 S35 2.205869 1_555
Cu19 S29 2.246235 1_565
Cu19 S32 2.304462 1_565
Cu19 S30 2.324654 1_555
Cu20 S20 2.261246 1_555
Cu20 S36 2.280016 1_555
Cu20 S23 2.282389 1_554
Cu20 S38 2.283948 1_554
Cu21 S39 2.201274 1_555
Cu21 S22 2.304922 1_555
Cu21 S37 2.307721 1_555
Cu21 S21 2.338801 1_555
Cu22 S19 2.263550 1_555
Cu22 S28 2.280546 1_555
Cu22 S36 2.281654 1_555
Cu22 S40 2.282804 1_555
Cu23 S29 2.248978 1_555
Cu23 S18 2.266164 1_555
Cu23 S37 2.281782 1_555
Cu23 S41 2.336857 1_555
Cu24 S31 2.208652 1_555
Cu24 S38 2.266102 1_555
Cu24 S17 2.283733 1_555
Cu24 S43 2.345783 1_555
Cu25 S39 2.212082 1_555
Cu25 S16 2.265129 1_555
Cu25 S30 2.273788 1_555
Cu25 S42 2.361424 1_555
Cu26 S56 2.270884 1_555
Cu26 S36 2.276402 1_555
Cu26 S45 2.300077 1_555
Cu26 S48 2.308233 1_555
Cu27 S35 2.211529 1_555
Cu27 S61 2.323329 1_565
Cu27 S41 2.329146 1_565
Cu27 S55 2.342910 1_555
Cu28 S57 2.206819 1_555
Cu28 S37 2.296612 1_555
Cu28 S50 2.310933 1_555
Cu28 S46 2.326000 1_555
Cu29 S38 2.254944 1_555
Cu29 S59 2.258749 1_555
Cu29 S51 2.301173 1_555
Cu29 S47 2.309280 1_555
Cu30 S39 2.198249 1_555
Cu30 S58 2.290842 1_555
Cu30 S44 2.309051 1_555
Cu30 S49 2.322343 1_555
Cu31 S33 2.281564 1_555
Cu31 S63 2.285998 1_545
Cu31 S53 2.331719 1_555
Cu31 S43 2.332547 1_545
Cu32 S62 2.226063 1_555
Cu32 S32 2.303525 1_565
Cu32 S52 2.313073 1_565
Cu32 S42 2.359894 1_555
Cu33 S0 2.257012 1_555
Cu33 S13 2.272148 1_555
Cu33 S58 2.281880 1_455
Cu33 S52 2.332693 1_455
Cu34 S12 2.267028 1_655
Cu34 S54 2.273909 1_555
Cu34 S1 2.274795 1_655
Cu34 S56 2.288425 1_555
Cu35 S57 2.212928 1_555
Cu35 S15 2.265119 1_655
Cu35 S3 2.295311 1_655
Cu35 S55 2.349580 1_555
Cu36 S2 2.212023 1_555
Cu36 S59 2.262463 1_455
Cu36 S14 2.278776 1_555
Cu36 S53 2.353892 1_455
Cu37 S8 2.267519 1_555
Cu37 S56 2.273538 1_455
Cu37 S11 2.275066 1_554
Cu37 S59 2.290760 1_454
Cu38 S57 2.207111 1_555
Cu38 S9 2.303388 1_655
Cu38 S58 2.314656 1_555
Cu38 S10 2.342007 1_655
Ge0 S4 2.270855 1_555
Ge0 S26 2.273057 1_545
Ge0 S28 2.280415 1_555
Ge0 S1 2.282058 1_545
Ge1 S29 2.230688 1_555
Ge1 S5 2.284049 1_555
Ge1 S3 2.293769 1_545
Ge1 S27 2.299039 1_545
Ge2 S0 2.238935 1_555
Ge2 S30 2.287473 1_545
Ge2 S24 2.290025 1_555
Ge2 S6 2.299852 1_545
Ge3 S60 2.232974 1_555
Ge3 S36 2.280873 1_555
Ge3 S59 2.290339 1_554
Ge3 S33 2.298194 1_554
Ge4 S37 2.272722 1_555
Ge4 S32 2.274200 1_555
Ge4 S58 2.274575 1_555
Ge4 S61 2.288242 1_555
Ge5 S34 2.234224 1_555
Ge5 S56 2.282767 1_555
Ge5 S38 2.293925 1_554
Ge5 S63 2.297390 1_554
S0 Zn1 2.320234 1_445
S1 Zn0 2.381313 1_564
S2 Zn0 2.269727 1_555
S3 Zn1 2.383120 1_455
S28 Zn2 2.377150 1_544
S31 Zn2 2.274399 1_555
S33 Zn2 2.385571 1_545
S34 Zn2 2.332366 1_554
S60 Zn0 2.326548 1_654
S61 Zn1 2.376057 1_545
S62 Zn1 2.271413 1_555
S63 Zn0 2.390903 1_665
