# generated using pymatgen
data_Li4Mn2V3Cr3O16
_symmetry_space_group_name_H-M   'P 1'
_cell_length_a   5.88277537
_cell_length_b   5.88277537
_cell_length_c   9.64238509
_cell_angle_alpha   87.53895434
_cell_angle_beta   87.53895434
_cell_angle_gamma   60.61320595
_symmetry_Int_Tables_number   1
_chemical_formula_structural   Li4Mn2V3Cr3O16
_chemical_formula_sum   'Li4 Mn2 V3 Cr3 O16'
_cell_volume   290.39711412
_cell_formula_units_Z   1
loop_
 _symmetry_equiv_pos_site_id
 _symmetry_equiv_pos_as_xyz
  1  'x, y, z'
loop_
 _atom_site_type_symbol
 _atom_site_label
 _atom_site_symmetry_multiplicity
 _atom_site_fract_x
 _atom_site_fract_y
 _atom_site_fract_z
 _atom_site_occupancy
  Li  Li0  1  0.66312300  0.66312300  0.89501400  1
  Li  Li1  1  0.00931700  0.00931700  0.99460700  1
  Li  Li2  1  0.00443000  0.00443000  0.49474800  1
  Li  Li3  1  0.33295200  0.33295200  0.39564200  1
  Mn  Mn0  1  0.66299500  0.66299500  0.48657700  1
  Mn  Mn1  1  0.33113800  0.33113800  0.98886000  1
  V  V0  1  0.66031200  0.16169600  0.71454800  1
  V  V1  1  0.83200400  0.83200400  0.20916000  1
  V  V2  1  0.16169600  0.66031200  0.71454800  1
  Cr  Cr0  1  0.83158800  0.33996400  0.21566100  1
  Cr  Cr1  1  0.33996400  0.83158800  0.21566100  1
  Cr  Cr2  1  0.16860600  0.16860600  0.71191500  1
  O  O0  1  0.82915700  0.32731900  0.60267400  1
  O  O1  1  0.51356900  0.51356900  0.33255700  1
  O  O2  1  0.68017600  0.68017600  0.10493500  1
  O  O3  1  0.99083100  0.99083100  0.31030900  1
  O  O4  1  0.99338800  0.99338800  0.81077700  1
  O  O5  1  0.32731900  0.82915700  0.60267400  1
  O  O6  1  0.95734500  0.52777800  0.33694600  1
  O  O7  1  0.52777800  0.95734500  0.33694600  1
  O  O8  1  0.16590900  0.16590900  0.09803500  1
  O  O9  1  0.84241500  0.84241500  0.60589200  1
  O  O10  1  0.48473500  0.03351300  0.83338900  1
  O  O11  1  0.03351300  0.48473500  0.83338900  1
  O  O12  1  0.34009100  0.34009100  0.60307800  1
  O  O13  1  0.68300400  0.14808500  0.10657800  1
  O  O14  1  0.47578700  0.47578700  0.84341900  1
  O  O15  1  0.14808500  0.68300400  0.10657800  1
loop_
_geom_bond_atom_site_label_1
_geom_bond_atom_site_label_2
_geom_bond_distance
_geom_bond_site_symmetry_2
Li0 O10 1.974928 1_565
Li0 O11 1.974928 1_655
Li0 O14 1.990646 1_555
Li0 O2 2.040103 1_556
Li1 O4 1.787925 1_445
Li1 O8 1.918962 1_556
Li1 O13 1.968966 1_456
Li1 O15 1.968966 1_546
Li2 O3 1.790625 1_445
Li2 O9 1.918693 1_445
Li2 O0 1.977285 1_455
Li2 O5 1.977285 1_545
Li3 O1 1.903921 1_555
Li3 O12 2.005093 1_555
Li3 O6 2.020544 1_455
Li3 O7 2.020544 1_545
Mn0 O5 2.029258 1_555
Mn0 O0 2.029258 1_555
Mn0 O6 2.060352 1_555
Mn0 O7 2.060352 1_555
Mn0 O1 2.175678 1_555
Mn0 O9 2.203095 1_555
Mn1 O8 1.936299 1_556
Mn1 O14 1.980043 1_555
Mn1 O15 2.154515 1_556
Mn1 O13 2.154515 1_556
Mn1 O10 2.164662 1_555
Mn1 O11 2.164662 1_555
Cr0 O1 1.963710 1_555
Cr0 O3 1.988224 1_545
Cr0 O2 2.021752 1_555
Cr0 O6 2.030558 1_555
Cr0 O8 2.033394 1_655
Cr0 O13 2.072131 1_555
Cr1 O1 1.963710 1_555
Cr1 O3 1.988224 1_455
Cr1 O2 2.021752 1_555
Cr1 O7 2.030558 1_555
Cr1 O8 2.033394 1_565
Cr1 O15 2.072131 1_555
Cr2 O4 1.976774 1_445
Cr2 O12 1.988380 1_555
Cr2 O11 2.029463 1_555
Cr2 O10 2.029463 1_555
Cr2 O0 2.057983 1_455
Cr2 O5 2.057983 1_545
O0 V0 1.966485 1_555
O2 V1 1.882174 1_555
O3 V1 1.926273 1_555
O4 V2 1.963122 1_655
O4 V0 1.963122 1_565
O5 V2 1.966485 1_555
O6 V1 1.964296 1_555
O7 V1 1.964296 1_555
O9 V2 1.967500 1_655
O9 V0 1.967500 1_565
O10 V0 1.880719 1_555
O11 V2 1.880719 1_555
O12 V0 1.985475 1_555
O12 V2 1.985475 1_555
O13 V1 1.876472 1_545
O14 V2 2.061420 1_555
O14 V0 2.061420 1_555
O15 V1 1.876472 1_455
