# generated using pymatgen
data_V2(OF)3
_symmetry_space_group_name_H-M   'P 1'
_cell_length_a   5.15366175
_cell_length_b   5.15366175
_cell_length_c   9.07996231
_cell_angle_alpha   77.48489942
_cell_angle_beta   77.48489942
_cell_angle_gamma   62.37561888
_symmetry_Int_Tables_number   1
_chemical_formula_structural   V2(OF)3
_chemical_formula_sum   'V4 O6 F6'
_cell_volume   206.70576075
_cell_formula_units_Z   2
loop_
 _symmetry_equiv_pos_site_id
 _symmetry_equiv_pos_as_xyz
  1  'x, y, z'
loop_
 _atom_site_type_symbol
 _atom_site_label
 _atom_site_symmetry_multiplicity
 _atom_site_fract_x
 _atom_site_fract_y
 _atom_site_fract_z
 _atom_site_occupancy
  V  V0  1  0.99942200  0.25037100  0.62688000  1
  V  V1  1  0.74962900  0.00057800  0.37312000  1
  V  V2  1  0.45063600  0.75696600  0.13707800  1
  V  V3  1  0.24303400  0.54936400  0.86292200  1
  O  O0  1  0.94509800  0.05490200  0.50000000  1
  O  O1  1  0.45543800  0.54456200  0.00000000  1
  O  O2  1  0.57178000  0.93646000  0.24491500  1
  O  O3  1  0.06354000  0.42822000  0.75508500  1
  O  O4  1  0.13583400  0.79290200  0.24664300  1
  O  O5  1  0.20709800  0.86416600  0.75335700  1
  F  F0  1  0.71264700  0.38297400  0.24418200  1
  F  F1  1  0.61702600  0.28735300  0.75581800  1
  F  F2  1  0.77771900  0.63074800  0.50430000  1
  F  F3  1  0.89621700  0.69436900  0.99634900  1
  F  F4  1  0.36925200  0.22228100  0.49570000  1
  F  F5  1  0.30563100  0.10378300  0.00365100  1
loop_
_geom_bond_atom_site_label_1
_geom_bond_atom_site_label_2
_geom_bond_distance
_geom_bond_site_symmetry_2
O0 V1 1.823395 1_555
O0 V0 1.823395 1_555
O1 V2 1.816616 1_555
O1 V3 1.816616 1_554
O2 V1 1.792882 1_565
O2 V2 1.843187 1_555
O3 V0 1.792882 1_455
O3 V3 1.843187 1_555
O4 V2 1.660678 1_555
O4 V1 1.998123 1_465
O5 V3 1.660678 1_555
O5 V0 1.998123 1_465
F0 V2 1.956350 1_555
F0 V1 2.009786 1_555
F1 V3 1.956350 1_555
F1 V0 2.009786 1_555
F2 V1 1.976716 1_565
F2 V0 1.978800 1_555
F3 V3 1.853691 1_655
F3 V2 2.286952 1_556
F4 V0 1.976716 1_455
F4 V1 1.978800 1_555
F5 V2 1.853691 1_545
F5 V3 2.286952 1_554
