# generated using pymatgen
data_Li13V24O52
_symmetry_space_group_name_H-M   'P 1'
_cell_length_a   11.68691225
_cell_length_b   8.52092076
_cell_length_c   11.17317259
_cell_angle_alpha   97.83840802
_cell_angle_beta   69.86700822
_cell_angle_gamma   76.39282154
_symmetry_Int_Tables_number   1
_chemical_formula_structural   Li13V24O52
_chemical_formula_sum   'Li13 V24 O52'
_cell_volume   986.12773533
_cell_formula_units_Z   1
loop_
 _symmetry_equiv_pos_site_id
 _symmetry_equiv_pos_as_xyz
  1  'x, y, z'
loop_
 _atom_site_type_symbol
 _atom_site_label
 _atom_site_symmetry_multiplicity
 _atom_site_fract_x
 _atom_site_fract_y
 _atom_site_fract_z
 _atom_site_occupancy
  Li  Li0  1  0.15360800  0.87976400  0.58870500  1
  Li  Li1  1  0.00278800  0.99749500  0.99983700  1
  Li  Li2  1  0.25032400  0.24771800  0.99987800  1
  Li  Li3  1  0.49697400  0.50124000  0.00054600  1
  Li  Li4  1  0.75693100  0.74703300  0.98165200  1
  Li  Li5  1  0.34488100  0.61993900  0.41340900  1
  Li  Li6  1  0.09410500  0.37113800  0.41318200  1
  Li  Li7  1  0.59518200  0.86972900  0.41636100  1
  Li  Li8  1  0.54716200  0.02508000  0.19112000  1
  Li  Li9  1  0.65471000  0.38050400  0.58874900  1
  Li  Li10  1  0.90420400  0.63046300  0.58751200  1
  Li  Li11  1  0.40489500  0.12951800  0.58698200  1
  Li  Li12  1  0.84686600  0.11903800  0.41328000  1
  V  V0  1  0.11775100  0.68068700  0.36540200  1
  V  V1  1  0.36342300  0.93052200  0.37062100  1
  V  V2  1  0.50629500  0.82014900  0.99621100  1
  V  V3  1  0.00887500  0.31917900  0.00270600  1
  V  V4  1  0.25357400  0.56779700  0.00160000  1
  V  V5  1  0.24592900  0.92253900  0.99845300  1
  V  V6  1  0.13009900  0.57057000  0.63544600  1
  V  V7  1  0.38104200  0.82017000  0.63492400  1
  V  V8  1  0.60617300  0.53518700  0.36504100  1
  V  V9  1  0.85755900  0.78271200  0.36378000  1
  V  V10  1  0.10802500  0.03323500  0.36351800  1
  V  V11  1  0.35375300  0.28640100  0.37038700  1
  V  V12  1  0.14071100  0.21818200  0.63628000  1
  V  V13  1  0.64355400  0.71631800  0.63437700  1
  V  V14  1  0.39197300  0.46833900  0.63587500  1
  V  V15  1  0.89285500  0.96853600  0.63522300  1
  V  V16  1  0.61947100  0.18444500  0.37072300  1
  V  V17  1  0.86909100  0.43033300  0.36594800  1
  V  V18  1  0.76003400  0.07610100  0.99815500  1
  V  V19  1  0.49608700  0.17876100  0.99749900  1
  V  V20  1  0.74452200  0.42933500  0.00111700  1
  V  V21  1  0.99081200  0.67820200  0.99876500  1
  V  V22  1  0.63170600  0.06949900  0.63428500  1
  V  V23  1  0.88220600  0.31830000  0.63447600  1
  O  O0  1  0.16438000  0.99409100  0.19852100  1
  O  O1  1  0.62035800  0.96172300  0.00531300  1
  O  O2  1  0.11346700  0.45586700  0.00013500  1
  O  O3  1  0.36925300  0.71946200  0.99920700  1
  O  O4  1  0.22100200  0.83320100  0.39199900  1
  O  O5  1  0.03157300  0.75268900  0.58323200  1
  O  O6  1  0.18322800  0.62495300  0.19850300  1
  O  O7  1  0.43642200  0.87875000  0.20196400  1
  O  O8  1  0.31333000  0.87617700  0.80177200  1
  O  O9  1  0.06398000  0.62440800  0.80174500  1
  O  O10  1  0.12583700  0.12367800  0.00081600  1
  O  O11  1  0.37391800  0.37305500  0.00204100  1
  O  O12  1  0.62116800  0.63067100  0.99861700  1
  O  O13  1  0.87611600  0.87583000  0.99918600  1
  O  O14  1  0.71850700  0.99802300  0.41722200  1
  O  O15  1  0.46693500  0.74826400  0.41677900  1
  O  O16  1  0.21793400  0.49765100  0.41622800  1
  O  O17  1  0.27839300  0.66556100  0.60857600  1
  O  O18  1  0.02900100  0.41719800  0.60805500  1
  O  O19  1  0.52910900  0.91490500  0.60788800  1
  O  O20  1  0.12129100  0.77376100  0.00003200  1
  O  O21  1  0.41715300  0.23861100  0.20327000  1
  O  O22  1  0.91223700  0.74451200  0.19947200  1
  O  O23  1  0.66158100  0.49770600  0.20063700  1
  O  O24  1  0.02212500  0.09868300  0.59555400  1
  O  O25  1  0.77118000  0.84994900  0.59589200  1
  O  O26  1  0.27174400  0.34871200  0.59340500  1
  O  O27  1  0.52023800  0.60053600  0.59615500  1
  O  O28  1  0.22715200  0.15194900  0.40560700  1
  O  O29  1  0.47830800  0.40159300  0.40562500  1
  O  O30  1  0.97906300  0.90039000  0.40382900  1
  O  O31  1  0.72869500  0.65102400  0.40507700  1
  O  O32  1  0.33551400  0.50295100  0.80114400  1
  O  O33  1  0.08830000  0.25395000  0.80004700  1
  O  O34  1  0.58694700  0.75459500  0.79958800  1
  O  O35  1  0.87887300  0.22385700  0.99961100  1
  O  O36  1  0.47402000  0.08090300  0.38865900  1
  O  O37  1  0.72078600  0.33556500  0.39219900  1
  O  O38  1  0.97020200  0.58495800  0.39230300  1
  O  O39  1  0.28259600  0.00291700  0.58096400  1
  O  O40  1  0.53193900  0.25252600  0.58084800  1
  O  O41  1  0.78217000  0.50197600  0.58306600  1
  O  O42  1  0.68228900  0.12375200  0.20101400  1
  O  O43  1  0.93543700  0.37435200  0.19943900  1
  O  O44  1  0.56426500  0.12713300  0.80025600  1
  O  O45  1  0.81557800  0.37620400  0.79962200  1
  O  O46  1  0.96877800  0.24672000  0.41648100  1
  O  O47  1  0.77910500  0.16565300  0.60744600  1
  O  O48  1  0.88000200  0.54462900  0.00069900  1
  O  O49  1  0.63406800  0.28296300  0.99988600  1
  O  O50  1  0.39036900  0.02355400  0.99928900  1
  O  O51  1  0.83838800  0.00654500  0.80046000  1
loop_
_geom_bond_atom_site_label_1
_geom_bond_atom_site_label_2
_geom_bond_distance
_geom_bond_site_symmetry_2
Li0 O5 1.994713 1_555
Li0 O4 2.007903 1_555
Li0 O39 2.015062 1_565
Li0 O24 2.092405 1_565
Li0 O17 2.142065 1_555
Li1 O10 1.989809 1_566
Li1 O13 1.998470 1_455
Li1 O20 2.076867 1_556
Li1 O35 2.122992 1_465
Li2 O10 1.987441 1_556
Li2 O11 1.992588 1_556
Li2 O2 2.089161 1_556
Li2 O50 2.201230 1_555
Li3 O11 1.997276 1_555
Li3 O12 2.015348 1_554
Li3 O3 2.098291 1_554
Li3 O49 2.147647 1_554
Li4 O13 2.007858 1_555
Li4 O12 2.030008 1_555
Li4 O1 2.041508 1_556
Li4 O48 2.057222 1_556
Li5 O17 1.992555 1_555
Li5 O15 1.997849 1_555
Li5 O16 1.998020 1_555
Li5 O29 2.097152 1_555
Li5 O4 2.138810 1_555
Li6 O18 1.989913 1_555
Li6 O46 1.993670 1_455
Li6 O16 2.003881 1_555
Li6 O28 2.100717 1_555
Li6 O38 2.139588 1_455
Li7 O19 1.954942 1_555
Li7 O14 2.005116 1_555
Li7 O15 2.010990 1_555
Li7 O31 2.087046 1_555
Li7 O36 2.143234 1_565
Li8 O1 1.894114 1_545
Li8 O42 1.983087 1_555
Li8 O7 1.984158 1_545
Li8 O36 2.012944 1_555
Li8 O21 2.031594 1_555
Li9 O41 1.993139 1_555
Li9 O37 2.007439 1_555
Li9 O40 2.013157 1_555
Li9 O27 2.115082 1_555
Li9 O47 2.137709 1_555
Li10 O38 1.993234 1_555
Li10 O5 1.999195 1_655
Li10 O41 2.000951 1_555
Li10 O25 2.099373 1_555
Li10 O18 2.139928 1_655
Li11 O39 1.995744 1_555
Li11 O40 1.997393 1_555
Li11 O36 2.023431 1_555
Li11 O26 2.105733 1_555
Li11 O19 2.146373 1_545
Li12 O47 1.981333 1_555
Li12 O46 1.992178 1_555
Li12 O14 2.002582 1_545
Li12 O30 2.085384 1_545
Li12 O37 2.170019 1_555
O0 V10 1.684261 1_565
O0 V5 2.040898 1_554
O1 V2 2.014728 1_554
O1 V18 2.073857 1_564
O1 V19 2.098715 1_564
O2 V3 1.872529 1_555
O2 V4 2.083278 1_555
O2 V21 2.095083 1_454
O3 V5 1.977495 1_555
O3 V2 1.979843 1_555
O3 V4 2.074886 1_556
O4 V1 1.986193 1_555
O4 V0 2.027964 1_555
O4 V10 2.031770 1_565
O5 V6 1.985693 1_555
O5 V15 2.001426 1_455
O5 V0 2.220117 1_555
O6 V0 1.701077 1_555
O6 V4 2.006853 1_555
O7 V1 1.721331 1_555
O7 V2 2.098542 1_554
O8 V7 1.700994 1_555
O8 V5 2.007716 1_555
O9 V6 1.694801 1_555
O9 V21 2.007915 1_455
O10 V3 1.882307 1_555
O10 V5 1.933457 1_544
O11 V19 1.896575 1_554
O11 V4 1.908019 1_555
O12 V2 1.851097 1_555
O12 V20 1.974670 1_556
O13 V21 1.887846 1_555
O13 V18 1.918209 1_565
O14 V16 1.976567 1_565
O14 V9 1.998430 1_555
O14 V22 2.212406 1_565
O15 V1 1.976165 1_555
O15 V8 1.988616 1_555
O15 V7 2.223244 1_555
O16 V11 1.966339 1_555
O16 V0 1.991453 1_555
O16 V6 2.234524 1_555
O17 V14 2.011981 1_555
O17 V6 2.029054 1_555
O17 V7 2.035281 1_555
O18 V6 2.015923 1_555
O18 V12 2.016734 1_555
O18 V23 2.034693 1_455
O19 V13 2.020906 1_555
O19 V7 2.025152 1_555
O19 V22 2.034844 1_565
O20 V21 1.893267 1_454
O20 V4 2.054457 1_555
O20 V5 2.141614 1_554
O21 V11 1.702816 1_555
O21 V19 2.096614 1_554
O22 V9 1.678142 1_555
O22 V21 2.045507 1_554
O23 V8 1.679107 1_555
O23 V20 2.034977 1_555
O24 V12 2.033805 1_555
O24 V15 2.042086 1_445
O24 V23 2.052711 1_455
O24 V10 2.364487 1_555
O25 V13 2.048741 1_555
O25 V22 2.050778 1_565
O25 V15 2.054612 1_555
O25 V9 2.365060 1_555
O26 V14 2.059009 1_555
O26 V12 2.062377 1_555
O26 V6 2.069961 1_555
O26 V11 2.272726 1_555
O27 V14 2.045921 1_555
O27 V7 2.048841 1_555
O27 V13 2.051948 1_555
O27 V8 2.355041 1_555
O28 V10 2.041150 1_555
O28 V11 2.043590 1_555
O28 V1 2.050712 1_545
O28 V12 2.350402 1_555
O29 V11 2.049101 1_555
O29 V8 2.051645 1_555
O29 V16 2.054602 1_555
O29 V14 2.346038 1_555
O30 V0 2.046966 1_655
O30 V9 2.051126 1_555
O30 V10 2.056758 1_665
O30 V15 2.357680 1_555
O31 V9 2.048933 1_555
O31 V8 2.051883 1_555
O31 V17 2.061483 1_555
O31 V13 2.336517 1_555
O32 V14 1.689181 1_555
O32 V4 2.043458 1_556
O33 V12 1.674731 1_555
O33 V3 2.065152 1_556
O34 V13 1.686738 1_555
O34 V2 2.004716 1_555
O35 V3 1.891669 1_656
O35 V20 2.052172 1_556
O35 V18 2.084959 1_555
O36 V11 2.054352 1_555
O36 V16 2.056095 1_555
O36 V1 2.059469 1_545
O37 V16 1.986560 1_555
O37 V17 2.028638 1_555
O37 V8 2.031766 1_555
O38 V9 2.016311 1_555
O38 V17 2.021209 1_555
O38 V0 2.025129 1_655
O39 V7 2.000651 1_545
O39 V12 2.012520 1_555
O39 V1 2.144381 1_545
O40 V14 2.004821 1_555
O40 V22 2.006438 1_555
O40 V16 2.142649 1_555
O41 V13 1.992897 1_555
O41 V23 1.998207 1_555
O41 V17 2.213008 1_555
O42 V16 1.731336 1_555
O42 V18 2.070141 1_554
O43 V17 1.697300 1_555
O43 V3 2.004738 1_655
O44 V22 1.692506 1_555
O44 V19 2.011734 1_555
O45 V23 1.684147 1_555
O45 V20 2.054550 1_556
O46 V10 1.989502 1_655
O46 V17 1.989982 1_555
O46 V23 2.221769 1_555
O47 V15 2.015017 1_545
O47 V22 2.025883 1_555
O47 V23 2.028712 1_555
O48 V21 1.911534 1_554
O48 V20 2.049437 1_555
O48 V3 2.152424 1_655
O49 V20 1.996794 1_556
O49 V18 2.006163 1_555
O49 V19 2.021462 1_555
O50 V2 1.920280 1_545
O50 V19 2.008722 1_555
O50 V5 2.069500 1_545
O51 V15 1.688049 1_545
O51 V18 2.015954 1_555
