# generated using pymatgen
data_Li4TiV3O10
_symmetry_space_group_name_H-M   'P 1'
_cell_length_a   6.71680600
_cell_length_b   6.71677600
_cell_length_c   9.19961800
_cell_angle_alpha   90.00035975
_cell_angle_beta   89.99984850
_cell_angle_gamma   89.99737269
_symmetry_Int_Tables_number   1
_chemical_formula_structural   Li4TiV3O10
_chemical_formula_sum   'Li8 Ti2 V6 O20'
_cell_volume   415.04335404
_cell_formula_units_Z   2
loop_
 _symmetry_equiv_pos_site_id
 _symmetry_equiv_pos_as_xyz
  1  'x, y, z'
loop_
 _atom_site_type_symbol
 _atom_site_label
 _atom_site_symmetry_multiplicity
 _atom_site_fract_x
 _atom_site_fract_y
 _atom_site_fract_z
 _atom_site_occupancy
  Li  Li0  1  0.00069000  0.99931500  0.00002100  1
  Li  Li1  1  0.00068500  0.99931200  0.49997800  1
  Li  Li2  1  0.00069300  0.50068500  0.00002300  1
  Li  Li3  1  0.00068500  0.50069300  0.49997600  1
  Li  Li4  1  0.49931100  0.50068500  0.00002200  1
  Li  Li5  1  0.49931500  0.50068800  0.49997800  1
  Li  Li6  1  0.49930400  0.99931400  0.00002200  1
  Li  Li7  1  0.49931400  0.99930600  0.49997800  1
  Ti  Ti0  1  0.74999600  0.24999300  0.24999800  1
  Ti  Ti1  1  0.74999700  0.24999300  0.74999800  1
  V  V0  1  0.24999900  0.25000000  0.30098000  1
  V  V1  1  0.24999900  0.24998000  0.80103700  1
  V  V2  1  0.75000000  0.74999800  0.19902000  1
  V  V3  1  0.74999400  0.74999500  0.69896900  1
  V  V4  1  0.25004000  0.75011000  0.75001100  1
  V  V5  1  0.24999000  0.74996600  0.24999500  1
  O  O0  1  0.25000000  0.25000000  0.11747800  1
  O  O1  1  0.25000000  0.25000100  0.61763200  1
  O  O2  1  0.75000000  0.75000000  0.38252200  1
  O  O3  1  0.75000000  0.75000000  0.88236800  1
  O  O4  1  0.03051600  0.75001400  0.13419300  1
  O  O5  1  0.03051800  0.74970600  0.63413200  1
  O  O6  1  0.25001400  0.53051600  0.36580700  1
  O  O7  1  0.24970700  0.53051500  0.86587000  1
  O  O8  1  0.24998600  0.96948300  0.36580600  1
  O  O9  1  0.25029200  0.96946000  0.86585500  1
  O  O10  1  0.46948300  0.74998600  0.13419300  1
  O  O11  1  0.46947300  0.75029100  0.63413700  1
  O  O12  1  0.53051000  0.25000200  0.36786200  1
  O  O13  1  0.53042500  0.25003500  0.86780100  1
  O  O14  1  0.75000300  0.03050900  0.13213800  1
  O  O15  1  0.75003500  0.03042400  0.63219900  1
  O  O16  1  0.74999700  0.46949000  0.13213800  1
  O  O17  1  0.74996400  0.46957500  0.63219900  1
  O  O18  1  0.96949000  0.24999700  0.36786100  1
  O  O19  1  0.96957400  0.24996400  0.86780100  1
loop_
_geom_bond_atom_site_label_1
_geom_bond_atom_site_label_2
_geom_bond_distance
_geom_bond_site_symmetry_2
Li0 O14 2.087187 1_465
Li0 O19 2.087485 1_464
Li0 O4 2.089893 1_555
Li0 O9 2.091495 1_554
Li0 O0 2.609060 1_565
Li0 O3 2.609851 1_454
Li1 O18 2.087181 1_465
Li1 O15 2.087489 1_465
Li1 O8 2.089891 1_555
Li1 O5 2.091441 1_555
Li1 O2 2.609065 1_455
Li1 O1 2.609850 1_565
Li2 O16 2.087243 1_455
Li2 O19 2.087890 1_454
Li2 O7 2.088260 1_554
Li2 O4 2.090033 1_555
Li2 O0 2.608949 1_555
Li2 O3 2.609781 1_454
Li3 O18 2.087233 1_455
Li3 O17 2.087905 1_455
Li3 O5 2.088263 1_555
Li3 O6 2.090037 1_555
Li3 O2 2.608945 1_455
Li3 O1 2.609780 1_555
Li4 O16 2.087184 1_555
Li4 O13 2.087481 1_554
Li4 O10 2.089875 1_555
Li4 O7 2.091420 1_554
Li4 O0 2.609066 1_555
Li4 O3 2.609855 1_554
Li5 O12 2.087168 1_555
Li5 O17 2.087491 1_555
Li5 O6 2.089891 1_555
Li5 O11 2.091445 1_555
Li5 O2 2.609070 1_555
Li5 O1 2.609846 1_555
Li6 O14 2.087268 1_565
Li6 O13 2.087898 1_564
Li6 O9 2.088344 1_554
Li6 O10 2.090043 1_555
Li6 O0 2.608932 1_565
Li6 O3 2.609773 1_554
Li7 O12 2.087251 1_565
Li7 O15 2.087898 1_565
Li7 O11 2.088307 1_555
Li7 O8 2.090052 1_555
Li7 O2 2.608941 1_555
Li7 O1 2.609769 1_565
O0 V0 1.688148 1_555
O1 V1 1.687256 1_555
O2 V2 1.688148 1_555
O3 V3 1.687201 1_555
O4 V5 1.818820 1_555
O4 V2 1.976302 1_455
O5 V4 1.819498 1_555
O5 V3 1.976382 1_455
O6 V5 1.818741 1_555
O6 V0 1.976292 1_555
O7 V4 1.819785 1_555
O7 V1 1.976431 1_555
O8 V5 1.819089 1_555
O8 V0 1.976303 1_565
O9 V4 1.818359 1_555
O9 V1 1.976301 1_565
O10 V5 1.818919 1_555
O10 V2 1.976312 1_555
O11 V4 1.818981 1_555
O11 V3 1.976352 1_555
O12 Ti0 1.830056 1_555
O12 V0 1.982060 1_555
O13 Ti1 1.830189 1_555
O13 V1 1.981181 1_555
O14 Ti0 1.830015 1_555
O14 V2 1.982054 1_545
O15 Ti1 1.830142 1_555
O15 V3 1.981211 1_545
O16 Ti0 1.830096 1_555
O16 V2 1.982028 1_555
O17 Ti1 1.830224 1_555
O17 V3 1.981146 1_555
O18 Ti0 1.830098 1_555
O18 V0 1.982041 1_655
O19 Ti1 1.830220 1_555
O19 V1 1.981171 1_655
