# generated using pymatgen
data_Yb2Se3
_symmetry_space_group_name_H-M   'P 1'
_cell_length_a   16.02601462
_cell_length_b   15.25856155
_cell_length_c   6.80623532
_cell_angle_alpha   83.83240689
_cell_angle_beta   71.19144228
_cell_angle_gamma   24.97615083
_symmetry_Int_Tables_number   1
_chemical_formula_structural   Yb2Se3
_chemical_formula_sum   'Yb8 Se12'
_cell_volume   589.84155993
_cell_formula_units_Z   4
loop_
 _symmetry_equiv_pos_site_id
 _symmetry_equiv_pos_as_xyz
  1  'x, y, z'
loop_
 _atom_site_type_symbol
 _atom_site_label
 _atom_site_symmetry_multiplicity
 _atom_site_fract_x
 _atom_site_fract_y
 _atom_site_fract_z
 _atom_site_occupancy
  Yb  Yb0  1  0.75046300  0.75046300  0.24953700  1
  Yb  Yb1  1  0.24953700  0.24953700  0.75046300  1
  Yb  Yb2  1  0.49953700  0.49953700  0.00046300  1
  Yb  Yb3  1  0.00046300  0.00046300  0.49953700  1
  Yb  Yb4  1  0.09141200  0.09141200  0.90858800  1
  Yb  Yb5  1  0.90858800  0.90858800  0.09141200  1
  Yb  Yb6  1  0.15858800  0.15858800  0.34141200  1
  Yb  Yb7  1  0.34141200  0.34141200  0.15858800  1
  Se  Se0  1  0.08436200  0.57484200  0.91359100  1
  Se  Se1  1  0.42720500  0.91359100  0.57484200  1
  Se  Se2  1  0.91359100  0.42720500  0.08436200  1
  Se  Se3  1  0.57484200  0.08436200  0.42720500  1
  Se  Se4  1  0.16563800  0.67515800  0.33640900  1
  Se  Se5  1  0.82279500  0.33640900  0.67515800  1
  Se  Se6  1  0.33640900  0.82279500  0.16563800  1
  Se  Se7  1  0.67515800  0.16563800  0.82279500  1
  Se  Se8  1  0.06806000  0.43194000  0.43194000  1
  Se  Se9  1  0.43194000  0.06806000  0.06806000  1
  Se  Se10  1  0.18194000  0.81806000  0.81806000  1
  Se  Se11  1  0.81806000  0.18194000  0.18194000  1
loop_
_geom_bond_atom_site_label_1
_geom_bond_atom_site_label_2
_geom_bond_distance
_geom_bond_site_symmetry_2
Se0 Yb1 2.888923 1_555
Se0 Yb5 2.907204 1_456
Se0 Yb0 2.910891 1_456
Se0 Yb7 2.998180 1_556
Se1 Yb0 2.888923 1_555
Se1 Yb4 2.907204 1_565
Se1 Yb1 2.910891 1_565
Se1 Yb6 2.998180 1_565
Se2 Yb0 2.888923 1_555
Se2 Yb4 2.907204 1_654
Se2 Yb1 2.910891 1_654
Se2 Yb6 2.998180 1_655
Se3 Yb1 2.888923 1_555
Se3 Yb5 2.907204 1_545
Se3 Yb0 2.910891 1_545
Se3 Yb7 2.998180 1_555
Se4 Yb3 2.888923 1_565
Se4 Yb7 2.907204 1_555
Se4 Yb2 2.910891 1_555
Se4 Yb5 2.998180 1_455
Se5 Yb2 2.888923 1_556
Se5 Yb6 2.907204 1_655
Se5 Yb3 2.910891 1_655
Se5 Yb4 2.998180 1_655
Se6 Yb2 2.888923 1_555
Se6 Yb6 2.907204 1_565
Se6 Yb3 2.910891 1_565
Se6 Yb4 2.998180 1_564
Se7 Yb3 2.888923 1_655
Se7 Yb7 2.907204 1_556
Se7 Yb2 2.910891 1_556
Se7 Yb5 2.998180 1_546
Se8 Se9 2.430947 1_555
Se8 Yb6 2.981019 1_555
Se8 Yb7 2.981019 1_555
Se8 Yb0 2.999785 1_455
Se8 Yb1 2.999785 1_555
Se9 Yb6 2.981019 1_555
Se9 Yb7 2.981019 1_555
Se9 Yb0 2.999785 1_545
Se9 Yb1 2.999785 1_554
Se10 Se11 2.430947 1_466
Se10 Yb4 2.981019 1_565
Se10 Yb5 2.981019 1_456
Se10 Yb3 2.999785 1_565
Se10 Yb2 2.999785 1_556
Se11 Yb4 2.981019 1_654
Se11 Yb5 2.981019 1_545
Se11 Yb2 2.999785 1_555
Se11 Yb3 2.999785 1_655
