# generated using pymatgen
data_In(HO)3
_symmetry_space_group_name_H-M   'P 1'
_cell_length_a   7.02440700
_cell_length_b   7.00369518
_cell_length_c   7.05351066
_cell_angle_alpha   111.34406542
_cell_angle_beta   110.35065455
_cell_angle_gamma   106.90121150
_symmetry_Int_Tables_number   1
_chemical_formula_structural   In(HO)3
_chemical_formula_sum   'In4 H12 O12'
_cell_volume   266.19804740
_cell_formula_units_Z   4
loop_
 _symmetry_equiv_pos_site_id
 _symmetry_equiv_pos_as_xyz
  1  'x, y, z'
loop_
 _atom_site_type_symbol
 _atom_site_label
 _atom_site_symmetry_multiplicity
 _atom_site_fract_x
 _atom_site_fract_y
 _atom_site_fract_z
 _atom_site_occupancy
  In  In0  1  0.51152200  0.01121900  0.00759700  1
  In  In1  1  0.00270000  0.47981300  0.01199700  1
  In  In2  1  0.99778800  0.00211100  0.49993800  1
  In  In3  1  0.47935000  0.48797200  0.47575200  1
  H  H0  1  0.82165900  0.45667700  0.28249500  1
  H  H1  1  0.70601100  0.16570700  0.55092900  1
  H  H2  1  0.55913900  0.72556600  0.16771400  1
  H  H3  1  0.89984800  0.71874800  0.63603200  1
  H  H4  1  0.03674000  0.32474000  0.37016100  1
  H  H5  1  0.28948300  0.25853400  0.96664800  1
  H  H6  1  0.71622000  0.65738500  0.94299500  1
  H  H7  1  0.63278600  0.94841200  0.68155700  1
  H  H8  1  0.27750500  0.83174800  0.45577900  1
  H  H9  1  0.34961200  0.03100300  0.31124500  1
  H  H10  1  0.18135300  0.50928500  0.69186800  1
  H  H11  1  0.07720000  0.69350300  0.79143800  1
  O  O0  1  0.83276800  0.32576300  0.17068100  1
  O  O1  1  0.47814300  0.15345000  0.32161500  1
  O  O2  1  0.82642800  0.15649900  0.66996100  1
  O  O3  1  0.30994200  0.47051100  0.15575900  1
  O  O4  1  0.67859000  0.84018400  0.16230800  1
  O  O5  1  0.80241300  0.66463800  0.47055000  1
  O  O6  1  0.16330500  0.33783000  0.50918500  1
  O  O7  1  0.26929600  0.10717000  0.83652800  1
  O  O8  1  0.74498600  0.56077900  0.82203800  1
  O  O9  1  0.15799000  0.83396900  0.32918700  1
  O  O10  1  0.50736100  0.83318100  0.68101600  1
  O  O11  1  0.19886200  0.65508100  0.84978700  1
loop_
_geom_bond_atom_site_label_1
_geom_bond_atom_site_label_2
_geom_bond_distance
_geom_bond_site_symmetry_2
In0 O7 2.151691 1_554
In0 O10 2.168659 1_544
In0 O0 2.174360 1_555
In0 O1 2.200930 1_555
In0 O4 2.209339 1_545
In0 O11 2.318920 1_544
In1 O3 2.073160 1_555
In1 O2 2.190068 1_454
In1 O8 2.203833 1_454
In1 O0 2.213866 1_455
In1 O9 2.244450 1_555
In1 O11 2.418675 1_554
In2 O7 2.139724 1_655
In2 O9 2.187341 1_645
In2 O4 2.196931 1_545
In2 O2 2.207525 1_555
In2 O5 2.252172 1_545
In2 O6 2.265088 1_655
In3 O3 2.090874 1_555
In3 O1 2.190676 1_555
In3 O10 2.226550 1_555
In3 O8 2.253415 1_555
In3 O5 2.267262 1_555
In3 O6 2.297209 1_555
H0 O0 1.013310 1_555
H1 O2 1.000867 1_555
H2 O4 1.001398 1_555
H3 O5 0.972637 1_555
H4 O6 1.020391 1_555
H5 O7 1.048862 1_555
H5 O3 1.518254 1_556
H6 O8 1.002852 1_555
H7 O10 1.004764 1_555
H8 O9 0.999330 1_555
H9 O1 1.007051 1_555
H10 O11 1.141171 1_555
H10 O6 1.337882 1_555
H11 O11 0.970487 1_555
