# generated using pymatgen
data_Cs2NiH12(SO7)2
_symmetry_space_group_name_H-M   'P 1'
_cell_length_a   12.86981800
_cell_length_b   6.43421100
_cell_length_c   9.29136466
_cell_angle_alpha   73.70395597
_cell_angle_beta   90.00000000
_cell_angle_gamma   90.00000000
_symmetry_Int_Tables_number   1
_chemical_formula_structural   Cs2NiH12(SO7)2
_chemical_formula_sum   'Cs4 Ni2 H24 S4 O28'
_cell_volume   738.48064406
_cell_formula_units_Z   2
loop_
 _symmetry_equiv_pos_site_id
 _symmetry_equiv_pos_as_xyz
  1  'x, y, z'
loop_
 _atom_site_type_symbol
 _atom_site_label
 _atom_site_symmetry_multiplicity
 _atom_site_fract_x
 _atom_site_fract_y
 _atom_site_fract_z
 _atom_site_occupancy
  Cs  Cs0  1  0.64292500  0.34369400  0.87411800  1
  Cs  Cs1  1  0.14029600  0.64832900  0.62765000  1
  Cs  Cs2  1  0.35835000  0.64250500  0.12888500  1
  Cs  Cs3  1  0.85817200  0.34551100  0.37556900  1
  Ni  Ni0  1  0.99848800  0.00018000  0.99500900  1
  Ni  Ni1  1  0.49795400  0.99395900  0.49898100  1
  H  H0  1  0.90117500  0.31608000  0.78751300  1
  H  H1  1  0.39871000  0.68771500  0.70320000  1
  H  H2  1  0.09659400  0.69228000  0.20356500  1
  H  H3  1  0.59460900  0.31439800  0.29180800  1
  H  H4  1  0.87341500  0.08480000  0.76319800  1
  H  H5  1  0.37284300  0.91077700  0.73516400  1
  H  H6  1  0.13116600  0.91172800  0.23087400  1
  H  H7  1  0.63374300  0.08367600  0.26729900  1
  H  H8  1  0.90625800  0.92403500  0.28068000  1
  H  H9  1  0.40839200  0.07158800  0.22588300  1
  H  H10  1  0.09611100  0.07468500  0.71898800  1
  H  H11  1  0.59430600  0.92106100  0.78030600  1
  H  H12  1  0.81763500  0.98819800  0.14421800  1
  H  H13  1  0.32070200  0.01222000  0.34601500  1
  H  H14  1  0.17761200  0.01236000  0.85003500  1
  H  H15  1  0.68108000  0.98196600  0.65408000  1
  H  H16  1  0.05734900  0.33285200  0.10118500  1
  H  H17  1  0.55984400  0.67308200  0.40682600  1
  H  H18  1  0.93795500  0.67551800  0.90307400  1
  H  H19  1  0.44039700  0.33493900  0.59285400  1
  H  H20  1  0.13797400  0.30664700  0.97946100  1
  H  H21  1  0.63739700  0.68482600  0.52843800  1
  H  H22  1  0.86010100  0.68577200  0.02695300  1
  H  H23  1  0.35876000  0.30340700  0.47350500  1
  S  S0  1  0.85297400  0.74192200  0.59999200  1
  S  S1  1  0.34805800  0.25966400  0.89299700  1
  S  S2  1  0.14924800  0.25329100  0.39234200  1
  S  S3  1  0.64663700  0.74102900  0.11012500  1
  O  O0  1  0.76088800  0.61482800  0.57653600  1
  O  O1  1  0.25746500  0.38715400  0.92252100  1
  O  O2  1  0.24190300  0.38574600  0.41345700  1
  O  O3  1  0.74236400  0.60973700  0.08646500  1
  O  O4  1  0.92043600  0.79409800  0.46539900  1
  O  O5  1  0.41825600  0.19493100  0.03505500  1
  O  O6  1  0.08128400  0.19470900  0.53310500  1
  O  O7  1  0.58069100  0.80480000  0.96579500  1
  O  O8  1  0.91450500  0.60755500  0.72763800  1
  O  O9  1  0.41702700  0.39050200  0.76871000  1
  O  O10  1  0.08551700  0.39600300  0.26162800  1
  O  O11  1  0.58688100  0.61112000  0.23117800  1
  O  O12  1  0.81649300  0.93605600  0.64658900  1
  O  O13  1  0.31968300  0.05935100  0.85914800  1
  O  O14  1  0.18201400  0.05968800  0.36206900  1
  O  O15  1  0.68225500  0.93975000  0.14702400  1
  O  O16  1  0.88705700  0.15707500  0.83773700  1
  O  O17  1  0.38582500  0.84852800  0.65557300  1
  O  O18  1  0.11117100  0.84926200  0.15533200  1
  O  O19  1  0.61016200  0.15437600  0.34709900  1
  O  O20  1  0.89343500  0.01325500  0.17600100  1
  O  O21  1  0.39073800  0.97939800  0.32746200  1
  O  O22  1  0.10882500  0.99239700  0.82908400  1
  O  O23  1  0.60673000  0.00852900  0.67485200  1
  O  O24  1  0.06090700  0.28847400  0.99770200  1
  O  O25  1  0.56612800  0.71199100  0.49997600  1
  O  O26  1  0.93895200  0.70887800  0.00323100  1
  O  O27  1  0.43974100  0.28760900  0.50552600  1
loop_
_geom_bond_atom_site_label_1
_geom_bond_atom_site_label_2
_geom_bond_distance
_geom_bond_site_symmetry_2
Cs0 O9 3.055579 1_555
Cs0 O15 3.121286 1_546
Cs0 H11 3.142630 1_545
Cs0 O0 3.207203 1_555
Cs0 O3 3.218079 1_556
Cs0 O23 3.245946 1_555
Cs0 O5 3.272524 1_556
Cs0 H21 3.343997 1_555
Cs0 O7 3.404049 1_555
Cs0 O16 3.414029 1_555
Cs0 O7 3.425220 1_545
Cs0 H0 3.435961 1_555
Cs1 O8 3.039626 1_455
Cs1 O14 3.117282 1_565
Cs1 H10 3.142547 1_565
Cs1 O1 3.165484 1_555
Cs1 O4 3.219508 1_455
Cs1 O2 3.226777 1_555
Cs1 O22 3.300471 1_555
Cs1 O6 3.362453 1_555
Cs1 H20 3.389131 1_555
Cs1 H1 3.423063 1_555
Cs1 O17 3.449518 1_555
Cs1 O6 3.460387 1_565
Cs2 O11 3.080062 1_555
Cs2 O2 3.084620 1_555
Cs2 O1 3.135207 1_554
Cs2 O13 3.154363 1_564
Cs2 H9 3.200852 1_565
Cs2 O21 3.243624 1_555
Cs2 O7 3.269059 1_554
Cs2 O5 3.325145 1_555
Cs2 H23 3.330538 1_555
Cs2 H2 3.472354 1_555
Cs2 O18 3.483287 1_555
Cs2 O5 3.499909 1_565
Cs3 O10 3.097439 1_655
Cs3 O3 3.124793 1_555
Cs3 O12 3.137899 1_545
Cs3 H8 3.139472 1_545
Cs3 O0 3.142105 1_555
Cs3 O20 3.230955 1_555
Cs3 O6 3.245291 1_655
Cs3 O4 3.319857 1_555
Cs3 H22 3.362420 1_555
Cs3 O19 3.457285 1_555
Ni0 O26 2.006381 1_546
Ni0 O24 2.028008 1_655
Ni0 O16 2.093603 1_555
Ni0 O22 2.106900 1_645
Ni0 O18 2.110267 1_646
Ni0 O20 2.177705 1_556
Ni1 O25 2.012946 1_555
Ni1 O27 2.049225 1_565
Ni1 O17 2.076276 1_555
Ni1 O19 2.079614 1_565
Ni1 O21 2.129850 1_555
Ni1 O23 2.173655 1_565
H0 O16 1.014655 1_555
H1 O17 1.018320 1_555
H2 O18 1.001106 1_555
H3 O19 1.033077 1_555
H4 O16 0.952616 1_555
H5 O17 0.949436 1_555
H6 O18 0.937402 1_555
H7 O19 1.018857 1_555
H8 O20 0.994692 1_565
H9 O21 0.989981 1_545
H10 O22 1.024481 1_545
H11 O23 0.996427 1_565
H11 O7 1.684349 1_555
H12 O20 1.044787 1_565
H13 O21 0.952459 1_545
H14 O22 0.923113 1_545
H15 O23 1.000287 1_565
H16 O24 1.078045 1_554
H17 O25 0.969478 1_555
H18 O26 1.012098 1_556
H19 O27 0.943316 1_555
H20 O24 1.007481 1_555
H20 O1 1.661125 1_555
H21 O25 0.956993 1_555
H22 O26 1.040244 1_555
H22 O3 1.639900 1_555
H23 O27 1.080778 1_555
H23 O2 1.639474 1_555
O0 S0 1.490222 1_555
O1 S1 1.494584 1_555
O2 S2 1.510160 1_555
O3 S3 1.544009 1_555
O4 S0 1.481482 1_555
O5 S1 1.556702 1_554
O6 S2 1.530046 1_555
O7 S3 1.542147 1_556
O8 S0 1.485164 1_555
O9 S1 1.511470 1_555
O10 S2 1.537882 1_555
O11 S3 1.423922 1_555
O12 S0 1.507191 1_555
O13 S1 1.456332 1_555
O14 S2 1.416087 1_555
O15 S3 1.486112 1_555
