# generated using pymatgen
data_K2NaZn2H5(C2O7)2
_symmetry_space_group_name_H-M   'P 1'
_cell_length_a   11.15380200
_cell_length_b   5.21873700
_cell_length_c   11.63560208
_cell_angle_alpha   66.37375284
_cell_angle_beta   90.00000000
_cell_angle_gamma   90.00000000
_symmetry_Int_Tables_number   1
_chemical_formula_structural   K2NaZn2H5(C2O7)2
_chemical_formula_sum   'K4 Na2 Zn4 H10 C8 O28'
_cell_volume   620.52266095
_cell_formula_units_Z   2
loop_
 _symmetry_equiv_pos_site_id
 _symmetry_equiv_pos_as_xyz
  1  'x, y, z'
loop_
 _atom_site_type_symbol
 _atom_site_label
 _atom_site_symmetry_multiplicity
 _atom_site_fract_x
 _atom_site_fract_y
 _atom_site_fract_z
 _atom_site_occupancy
  K  K0  1  0.83470600  0.03939300  0.92411700  1
  K  K1  1  0.33470600  0.96060700  0.57588300  1
  K  K2  1  0.66529400  0.03939300  0.42411700  1
  K  K3  1  0.16529400  0.96060700  0.07588300  1
  Na  Na0  1  0.50000000  0.00000000  0.00000000  1
  Na  Na1  1  0.00000000  0.00000000  0.50000000  1
  Zn  Zn0  1  0.60323400  0.67424900  0.79473500  1
  Zn  Zn1  1  0.10323400  0.32575100  0.70526500  1
  Zn  Zn2  1  0.89676600  0.67424900  0.29473500  1
  Zn  Zn3  1  0.39676600  0.32575100  0.20526500  1
  H  H0  1  0.00000000  0.50000000  0.00000000  1
  H  H1  1  0.30858600  0.05881800  0.81561000  1
  H  H2  1  0.33135800  0.38398000  0.76831200  1
  H  H3  1  0.83135800  0.61602000  0.73168800  1
  H  H4  1  0.80858600  0.94118200  0.68439000  1
  H  H5  1  0.50000000  0.50000000  0.50000000  1
  H  H6  1  0.19141400  0.05881800  0.31561000  1
  H  H7  1  0.16864200  0.38398000  0.26831200  1
  H  H8  1  0.66864200  0.61602000  0.23168800  1
  H  H9  1  0.69141400  0.94118200  0.18439000  1
  C  C0  1  0.37248700  0.57247700  0.93432100  1
  C  C1  1  0.07511800  0.71005600  0.81999100  1
  C  C2  1  0.57511800  0.28994400  0.68000900  1
  C  C3  1  0.87248700  0.42752300  0.56567900  1
  C  C4  1  0.12751300  0.57247700  0.43432100  1
  C  C5  1  0.42488200  0.71005600  0.31999100  1
  C  C6  1  0.92488200  0.28994400  0.18000900  1
  C  C7  1  0.62751300  0.42752300  0.06567900  1
  O  O0  1  0.62005400  0.66893800  0.96934800  1
  O  O1  1  0.33269900  0.78982700  0.94792800  1
  O  O2  1  0.04612700  0.47070000  0.91126300  1
  O  O3  1  0.06204600  0.93939600  0.83680700  1
  O  O4  1  0.40794000  0.58655900  0.82473300  1
  O  O5  1  0.61533500  0.29259300  0.78355700  1
  O  O6  1  0.78993300  0.75639700  0.75682300  1
  O  O7  1  0.28993300  0.24360300  0.74317700  1
  O  O8  1  0.11533500  0.70740700  0.71644300  1
  O  O9  1  0.90794000  0.41344100  0.67526700  1
  O  O10  1  0.56204600  0.06060400  0.66319300  1
  O  O11  1  0.54612700  0.52930000  0.58873700  1
  O  O12  1  0.83269900  0.21017300  0.55207200  1
  O  O13  1  0.12005400  0.33106200  0.53065200  1
  O  O14  1  0.87994600  0.66893800  0.46934800  1
  O  O15  1  0.16730100  0.78982700  0.44792800  1
  O  O16  1  0.45387300  0.47070000  0.41126300  1
  O  O17  1  0.43795400  0.93939600  0.33680700  1
  O  O18  1  0.09206000  0.58655900  0.32473300  1
  O  O19  1  0.88466500  0.29259300  0.28355700  1
  O  O20  1  0.71006700  0.75639700  0.25682300  1
  O  O21  1  0.21006700  0.24360300  0.24317700  1
  O  O22  1  0.38466500  0.70740700  0.21644300  1
  O  O23  1  0.59206000  0.41344100  0.17526700  1
  O  O24  1  0.93795400  0.06060400  0.16319300  1
  O  O25  1  0.95387300  0.52930000  0.08873700  1
  O  O26  1  0.66730100  0.21017300  0.05207200  1
  O  O27  1  0.37994600  0.33106200  0.03065200  1
loop_
_geom_bond_atom_site_label_1
_geom_bond_atom_site_label_2
_geom_bond_distance
_geom_bond_site_symmetry_2
K0 O26 2.749726 1_556
K0 O3 2.856421 1_645
K0 O9 2.886403 1_555
K0 O25 2.904316 1_546
K0 O6 2.919587 1_545
K0 O5 2.945442 1_555
K0 O0 2.988517 1_545
K0 O24 3.053464 1_556
K0 O2 3.221777 1_655
K1 O15 2.749726 1_555
K1 O10 2.856421 1_565
K1 O4 2.886403 1_555
K1 O16 2.904316 1_565
K1 O7 2.919587 1_565
K1 O8 2.945442 1_555
K1 O13 2.988517 1_565
K1 O17 3.053464 1_555
K1 O11 3.221777 1_555
K2 O12 2.749726 1_555
K2 O17 2.856421 1_545
K2 O23 2.886403 1_555
K2 O11 2.904316 1_545
K2 O20 2.919587 1_545
K2 O19 2.945442 1_555
K2 O14 2.988517 1_545
K2 O10 3.053464 1_555
K2 O16 3.221777 1_555
K3 O1 2.749726 1_554
K3 O24 2.856421 1_465
K3 O18 2.886403 1_555
K3 O2 2.904316 1_564
K3 O21 2.919587 1_565
K3 O22 2.945442 1_555
K3 O27 2.988517 1_565
K3 O3 3.053464 1_554
K3 O25 3.221777 1_455
Na0 O0 2.323623 1_544
Na0 O27 2.323623 1_555
Na0 O26 2.363248 1_555
Na0 O1 2.363248 1_544
Na0 O22 2.691969 1_545
Na0 O5 2.691969 1_554
Na1 O14 2.323623 1_445
Na1 O13 2.323623 1_555
Na1 O15 2.363248 1_545
Na1 O12 2.363248 1_455
Na1 O19 2.691969 1_455
Na1 O8 2.691969 1_545
H0 O2 1.216841 1_554
H0 O25 1.216841 1_455
H1 O7 1.015928 1_555
H1 O1 1.637373 1_545
H2 O7 1.003714 1_555
H2 K1 2.944434 1_555
H3 O6 1.003714 1_555
H3 K0 2.944434 1_555
H4 O6 1.015928 1_555
H4 O12 1.637373 1_565
H5 O11 1.216841 1_555
H5 O16 1.216841 1_555
H6 O21 1.015928 1_555
H6 O15 1.637373 1_545
H7 O21 1.003714 1_555
H7 K3 2.944434 1_555
H8 O20 1.003714 1_555
H8 K2 2.944434 1_555
H9 O20 1.015928 1_555
H9 O26 1.637373 1_565
C0 O1 1.285527 1_555
C0 O4 1.308662 1_555
C0 O27 1.310980 1_556
C1 O8 1.290894 1_555
C1 O3 1.296046 1_555
C1 O2 1.315084 1_555
C2 O5 1.290894 1_555
C2 O10 1.296046 1_555
C2 O11 1.315084 1_555
C3 O12 1.285527 1_555
C3 O9 1.308662 1_555
C3 O14 1.310980 1_555
C4 O15 1.285527 1_555
C4 O18 1.308662 1_555
C4 O13 1.310980 1_555
C5 O22 1.290894 1_555
C5 O17 1.296046 1_555
C5 O16 1.315084 1_555
C6 O19 1.290894 1_555
C6 O24 1.296046 1_555
C6 O25 1.315084 1_555
C7 O26 1.285527 1_555
C7 O23 1.308662 1_555
C7 O0 1.310980 1_554
O0 Zn0 2.029469 1_555
O3 Zn1 2.036051 1_565
O4 Zn0 2.224430 1_555
O5 Zn0 2.051802 1_555
O6 Zn0 2.136167 1_555
O7 Zn1 2.136167 1_555
O8 Zn1 2.051802 1_555
O9 Zn1 2.224430 1_655
O10 Zn0 2.036051 1_545
O13 Zn1 2.029469 1_555
O14 Zn2 2.029469 1_555
O17 Zn3 2.036051 1_565
O18 Zn2 2.224430 1_455
O19 Zn2 2.051802 1_555
O20 Zn2 2.136167 1_555
O21 Zn3 2.136167 1_555
O22 Zn3 2.051802 1_555
O23 Zn3 2.224430 1_555
O24 Zn2 2.036051 1_545
O27 Zn3 2.029469 1_555
