# generated using pymatgen
data_LiFeSiO4
_symmetry_space_group_name_H-M   'P 1'
_cell_length_a   8.08128100
_cell_length_b   8.74980300
_cell_length_c   17.48976488
_cell_angle_alpha   60.34100044
_cell_angle_beta   90.00000000
_cell_angle_gamma   90.00000000
_symmetry_Int_Tables_number   1
_chemical_formula_structural   LiFeSiO4
_chemical_formula_sum   'Li12 Fe12 Si12 O48'
_cell_volume   1074.67006922
_cell_formula_units_Z   12
loop_
 _symmetry_equiv_pos_site_id
 _symmetry_equiv_pos_as_xyz
  1  'x, y, z'
loop_
 _atom_site_type_symbol
 _atom_site_label
 _atom_site_symmetry_multiplicity
 _atom_site_fract_x
 _atom_site_fract_y
 _atom_site_fract_z
 _atom_site_occupancy
  Li  Li0  1  0.47525200  0.22104300  0.05942600  1
  Li  Li1  1  0.53800900  0.86863300  0.40805400  1
  Li  Li2  1  0.34475500  0.50106700  0.74996000  1
  Li  Li3  1  0.84475500  0.49893300  0.75004000  1
  Li  Li4  1  0.03800900  0.13136700  0.09194600  1
  Li  Li5  1  0.97525200  0.77895700  0.44057400  1
  Li  Li6  1  0.02474800  0.22104300  0.55942600  1
  Li  Li7  1  0.96199100  0.86863300  0.90805400  1
  Li  Li8  1  0.15524500  0.50106700  0.24996000  1
  Li  Li9  1  0.65524500  0.49893300  0.25004000  1
  Li  Li10  1  0.46199100  0.13136700  0.59194600  1
  Li  Li11  1  0.52474800  0.77895700  0.94057400  1
  Fe  Fe0  1  0.77563900  0.85979100  0.59409600  1
  Fe  Fe1  1  0.70986800  0.18327000  0.22991800  1
  Fe  Fe2  1  0.78053500  0.46043300  0.92784600  1
  Fe  Fe3  1  0.28053500  0.53956700  0.57215400  1
  Fe  Fe4  1  0.20986800  0.81673000  0.27008200  1
  Fe  Fe5  1  0.27563900  0.14020900  0.90590400  1
  Fe  Fe6  1  0.72436100  0.85979100  0.09409600  1
  Fe  Fe7  1  0.79013200  0.18327000  0.72991800  1
  Fe  Fe8  1  0.71946500  0.46043300  0.42784600  1
  Fe  Fe9  1  0.21946500  0.53956700  0.07215400  1
  Fe  Fe10  1  0.29013200  0.81673000  0.77008200  1
  Fe  Fe11  1  0.22436100  0.14020900  0.40590400  1
  Si  Si0  1  0.17152000  0.85393800  0.59169900  1
  Si  Si1  1  0.32420800  0.18661000  0.22699900  1
  Si  Si2  1  0.17343100  0.46433600  0.92475500  1
  Si  Si3  1  0.67343100  0.53566400  0.57524500  1
  Si  Si4  1  0.82420800  0.81339000  0.27300100  1
  Si  Si5  1  0.67152000  0.14606200  0.90830100  1
  Si  Si6  1  0.32848000  0.85393800  0.09169900  1
  Si  Si7  1  0.17579200  0.18661000  0.72699900  1
  Si  Si8  1  0.32656900  0.46433600  0.42475500  1
  Si  Si9  1  0.82656900  0.53566400  0.07524500  1
  Si  Si10  1  0.67579200  0.81339000  0.77300100  1
  Si  Si11  1  0.82848000  0.14606200  0.40830100  1
  O  O0  1  0.00715500  0.07578500  0.39188400  1
  O  O1  1  0.85372100  0.32162600  0.13575000  1
  O  O2  1  0.71688500  0.97045600  0.47331800  1
  O  O3  1  0.77388100  0.62667600  0.80432600  1
  O  O4  1  0.28637400  0.41766900  0.01252400  1
  O  O5  1  0.50121700  0.23344300  0.17322300  1
  O  O6  1  0.35984200  0.08161200  0.33444600  1
  O  O7  1  0.27069300  0.73697600  0.68561200  1
  O  O8  1  0.99505800  0.36174000  0.96119500  1
  O  O9  1  0.13934100  0.73399500  0.54373900  1
  O  O10  1  0.26846600  0.38659000  0.86740000  1
  O  O11  1  0.21470500  0.06415800  0.19852300  1
  O  O12  1  0.76846600  0.61341000  0.63260000  1
  O  O13  1  0.71470500  0.93584200  0.30147700  1
  O  O14  1  0.63934100  0.26600500  0.95626100  1
  O  O15  1  0.49505800  0.63826000  0.53880500  1
  O  O16  1  0.77069300  0.26302400  0.81438800  1
  O  O17  1  0.85984200  0.91838800  0.16555400  1
  O  O18  1  0.00121700  0.76655700  0.32677700  1
  O  O19  1  0.27388100  0.37332400  0.69567400  1
  O  O20  1  0.78637400  0.58233100  0.48747600  1
  O  O21  1  0.21688500  0.02954400  0.02668200  1
  O  O22  1  0.35372100  0.67837400  0.36425000  1
  O  O23  1  0.50715500  0.92421500  0.10811600  1
  O  O24  1  0.49284500  0.07578500  0.89188400  1
  O  O25  1  0.64627900  0.32162600  0.63575000  1
  O  O26  1  0.78311500  0.97045600  0.97331800  1
  O  O27  1  0.21362600  0.41766900  0.51252400  1
  O  O28  1  0.72611900  0.62667600  0.30432600  1
  O  O29  1  0.99878300  0.23344300  0.67322300  1
  O  O30  1  0.14015800  0.08161200  0.83444600  1
  O  O31  1  0.22930700  0.73697600  0.18561200  1
  O  O32  1  0.50494200  0.36174000  0.46119500  1
  O  O33  1  0.36065900  0.73399500  0.04373900  1
  O  O34  1  0.28529500  0.06415800  0.69852300  1
  O  O35  1  0.23153400  0.38659000  0.36740000  1
  O  O36  1  0.78529500  0.93584200  0.80147700  1
  O  O37  1  0.73153400  0.61341000  0.13260000  1
  O  O38  1  0.86065900  0.26600500  0.45626100  1
  O  O39  1  0.00494200  0.63826000  0.03880500  1
  O  O40  1  0.72930700  0.26302400  0.31438800  1
  O  O41  1  0.64015800  0.91838800  0.66555400  1
  O  O42  1  0.49878300  0.76655700  0.82677700  1
  O  O43  1  0.71362600  0.58233100  0.98747600  1
  O  O44  1  0.22611900  0.37332400  0.19567400  1
  O  O45  1  0.28311500  0.02954400  0.52668200  1
  O  O46  1  0.14627900  0.67837400  0.86425000  1
  O  O47  1  0.99284500  0.92421500  0.60811600  1
loop_
_geom_bond_atom_site_label_1
_geom_bond_atom_site_label_2
_geom_bond_distance
_geom_bond_site_symmetry_2
Li0 O5 2.056876 1_555
Li0 O14 2.113357 1_554
Li0 O4 2.136802 1_555
Li0 O23 2.312610 1_545
Li1 O13 2.185060 1_555
Li1 O6 2.197466 1_565
Li1 O15 2.202525 1_555
Li1 O2 2.278757 1_555
Li1 O22 2.615042 1_555
Li2 O19 1.878584 1_555
Li2 O10 1.888427 1_555
Li2 O7 1.893801 1_555
Li3 O3 1.878584 1_555
Li3 O12 1.888427 1_555
Li3 O16 1.893801 1_555
Li4 O11 2.185060 1_555
Li4 O17 2.197466 1_445
Li4 O8 2.202525 1_454
Li4 O21 2.278757 1_555
Li4 O1 2.615042 1_455
Li5 O18 2.056876 1_655
Li5 O9 2.113357 1_655
Li5 O20 2.136802 1_555
Li5 O0 2.312610 1_665
Li6 O29 2.056876 1_455
Li6 O38 2.113357 1_455
Li6 O27 2.136802 1_555
Li6 O47 2.312610 1_445
Li7 O36 2.185060 1_555
Li7 O30 2.197466 1_665
Li7 O39 2.202525 1_656
Li7 O26 2.278757 1_555
Li7 O46 2.615042 1_655
Li8 O44 1.878584 1_555
Li8 O35 1.888427 1_555
Li8 O31 1.893801 1_555
Li9 O28 1.878584 1_555
Li9 O37 1.888427 1_555
Li9 O40 1.893801 1_555
Li10 O34 2.185060 1_555
Li10 O41 2.197466 1_545
Li10 O32 2.202525 1_555
Li10 O45 2.278757 1_555
Li10 O25 2.615042 1_555
Li11 O42 2.056876 1_555
Li11 O33 2.113357 1_556
Li11 O43 2.136802 1_555
Li11 O24 2.312610 1_565
Fe0 O47 1.896250 1_555
Fe0 O2 1.897603 1_555
Fe0 O41 1.912515 1_555
Fe0 O12 1.915072 1_555
Fe1 O1 1.885809 1_555
Fe1 O13 1.890328 1_545
Fe1 O5 1.894283 1_555
Fe1 O40 1.927315 1_555
Fe2 O8 1.895488 1_555
Fe2 O14 1.899029 1_555
Fe2 O43 1.902238 1_555
Fe2 O3 1.917244 1_555
Fe3 O15 1.895488 1_555
Fe3 O9 1.899029 1_555
Fe3 O27 1.902238 1_555
Fe3 O19 1.917244 1_555
Fe4 O22 1.885809 1_555
Fe4 O11 1.890328 1_565
Fe4 O18 1.894283 1_555
Fe4 O31 1.927315 1_555
Fe5 O24 1.896250 1_555
Fe5 O21 1.897603 1_556
Fe5 O30 1.912515 1_555
Fe5 O10 1.915072 1_555
Fe6 O23 1.896250 1_555
Fe6 O26 1.897603 1_554
Fe6 O17 1.912515 1_555
Fe6 O37 1.915072 1_555
Fe7 O25 1.885809 1_555
Fe7 O36 1.890328 1_545
Fe7 O29 1.894283 1_555
Fe7 O16 1.927315 1_555
Fe8 O32 1.895488 1_555
Fe8 O38 1.899029 1_555
Fe8 O20 1.902238 1_555
Fe8 O28 1.917244 1_555
Fe9 O39 1.895488 1_555
Fe9 O33 1.899029 1_555
Fe9 O4 1.902238 1_555
Fe9 O44 1.917244 1_555
Fe10 O46 1.885809 1_555
Fe10 O34 1.890328 1_565
Fe10 O42 1.894283 1_555
Fe10 O7 1.927315 1_555
Fe11 O0 1.896250 1_555
Fe11 O45 1.897603 1_555
Fe11 O6 1.912515 1_555
Fe11 O35 1.915072 1_555
O0 Si11 1.649305 1_455
O1 Si9 1.647410 1_555
O2 Si11 1.654712 1_565
O3 Si10 1.646725 1_555
O4 Si2 1.654046 1_554
O5 Si1 1.648423 1_555
O6 Si1 1.658252 1_555
O7 Si0 1.650432 1_555
O8 Si2 1.650362 1_655
O9 Si0 1.656457 1_555
O10 Si2 1.653539 1_555
O11 Si1 1.645358 1_555
O12 Si3 1.653539 1_555
O13 Si4 1.645358 1_555
O14 Si5 1.656457 1_555
O15 Si3 1.650362 1_555
O16 Si5 1.650432 1_555
O17 Si4 1.658252 1_555
O18 Si4 1.648423 1_455
O19 Si7 1.646725 1_555
O20 Si3 1.654046 1_555
O21 Si6 1.654712 1_545
O22 Si8 1.647410 1_555
O23 Si6 1.649305 1_555
O24 Si5 1.649305 1_555
O25 Si3 1.647410 1_555
O26 Si5 1.654712 1_565
O27 Si8 1.654046 1_555
O28 Si4 1.646725 1_555
O29 Si7 1.648423 1_655
O30 Si7 1.658252 1_555
O31 Si6 1.650432 1_555
O32 Si8 1.650362 1_555
O33 Si6 1.656457 1_555
O34 Si7 1.645358 1_555
O35 Si8 1.653539 1_555
O36 Si10 1.645358 1_555
O37 Si9 1.653539 1_555
O38 Si11 1.656457 1_555
O39 Si9 1.650362 1_455
O40 Si11 1.650432 1_555
O41 Si10 1.658252 1_555
O42 Si10 1.648423 1_555
O43 Si9 1.654046 1_556
O44 Si1 1.646725 1_555
O45 Si0 1.654712 1_545
O46 Si2 1.647410 1_555
O47 Si0 1.649305 1_655
