# generated using pymatgen
data_Np(SeO3)2
_symmetry_space_group_name_H-M   'P 1'
_cell_length_a   10.92797400
_cell_length_b   7.07502100
_cell_length_c   8.66714094
_cell_angle_alpha   54.69644785
_cell_angle_beta   90.00000000
_cell_angle_gamma   90.00000000
_symmetry_Int_Tables_number   1
_chemical_formula_structural   Np(SeO3)2
_chemical_formula_sum   'Np4 Se8 O24'
_cell_volume   546.87435880
_cell_formula_units_Z   4
loop_
 _symmetry_equiv_pos_site_id
 _symmetry_equiv_pos_as_xyz
  1  'x, y, z'
loop_
 _atom_site_type_symbol
 _atom_site_label
 _atom_site_symmetry_multiplicity
 _atom_site_fract_x
 _atom_site_fract_y
 _atom_site_fract_z
 _atom_site_occupancy
  Np  Np0  1  0.59651400  0.74760100  0.49463300  1
  Np  Np1  1  0.09651400  0.25239900  0.00536700  1
  Np  Np2  1  0.90348600  0.74760100  0.99463300  1
  Np  Np3  1  0.40348600  0.25239900  0.50536700  1
  Se  Se0  1  0.42263300  0.28526800  0.93063000  1
  Se  Se1  1  0.92263300  0.71473200  0.56937000  1
  Se  Se2  1  0.28625500  0.81249900  0.42534900  1
  Se  Se3  1  0.78625500  0.18750100  0.07465100  1
  Se  Se4  1  0.21374500  0.81249900  0.92534900  1
  Se  Se5  1  0.71374500  0.18750100  0.57465100  1
  Se  Se6  1  0.07736700  0.28526800  0.43063000  1
  Se  Se7  1  0.57736700  0.71473200  0.06937000  1
  O  O0  1  0.39880200  0.61846000  0.45045900  1
  O  O1  1  0.01538100  0.47439400  0.71253000  1
  O  O2  1  0.59263500  0.84435500  0.18749400  1
  O  O3  1  0.77961400  0.58114400  0.61863400  1
  O  O4  1  0.27961400  0.41885600  0.88136600  1
  O  O5  1  0.90189200  0.00499200  0.08595200  1
  O  O6  1  0.51538100  0.52560600  0.78747000  1
  O  O7  1  0.24605300  0.95681800  0.19227900  1
  O  O8  1  0.74605300  0.04318200  0.30772100  1
  O  O9  1  0.10119800  0.61846000  0.95045900  1
  O  O10  1  0.40189200  0.99500800  0.41404800  1
  O  O11  1  0.90736500  0.84435500  0.68749400  1
  O  O12  1  0.09263500  0.15564500  0.31250600  1
  O  O13  1  0.59810800  0.00499200  0.58595200  1
  O  O14  1  0.89880200  0.38154000  0.04954100  1
  O  O15  1  0.25394700  0.95681800  0.69227900  1
  O  O16  1  0.75394700  0.04318200  0.80772100  1
  O  O17  1  0.48461900  0.47439400  0.21253000  1
  O  O18  1  0.09810800  0.99500800  0.91404800  1
  O  O19  1  0.72038600  0.58114400  0.11863400  1
  O  O20  1  0.22038600  0.41885600  0.38136600  1
  O  O21  1  0.40736500  0.15564500  0.81250600  1
  O  O22  1  0.98461900  0.52560600  0.28747000  1
  O  O23  1  0.60119800  0.38154000  0.54954100  1
loop_
_geom_bond_atom_site_label_1
_geom_bond_atom_site_label_2
_geom_bond_distance
_geom_bond_site_symmetry_2
Np0 O3 2.254491 1_555
Np0 O6 2.255488 1_555
Np0 O2 2.334639 1_555
Np0 O23 2.347778 1_555
Np0 O13 2.368299 1_565
Np0 O8 2.398431 1_565
Np0 O0 2.460459 1_555
Np0 O10 2.581101 1_555
Np1 O4 2.254491 1_554
Np1 O1 2.255488 1_554
Np1 O12 2.334639 1_555
Np1 O9 2.347778 1_554
Np1 O18 2.368299 1_544
Np1 O7 2.398431 1_545
Np1 O14 2.460459 1_455
Np1 O5 2.581101 1_455
Np2 O19 2.254491 1_556
Np2 O22 2.255488 1_556
Np2 O11 2.334639 1_555
Np2 O14 2.347778 1_556
Np2 O5 2.368299 1_566
Np2 O16 2.398431 1_565
Np2 O9 2.460459 1_655
Np2 O18 2.581101 1_655
Np3 O20 2.254491 1_555
Np3 O17 2.255488 1_555
Np3 O21 2.334639 1_555
Np3 O0 2.347778 1_555
Np3 O10 2.368299 1_545
Np3 O15 2.398431 1_545
Np3 O23 2.460459 1_555
Np3 O13 2.581101 1_555
O0 Se2 1.760506 1_555
O1 Se1 1.737701 1_455
O2 Se7 1.732701 1_555
O3 Se1 1.746953 1_555
O4 Se0 1.746953 1_555
O5 Se3 1.768512 1_555
O6 Se0 1.737701 1_555
O7 Se2 1.712366 1_555
O8 Se3 1.712366 1_555
O9 Se4 1.760506 1_555
O10 Se2 1.768512 1_555
O11 Se1 1.732701 1_555
O12 Se6 1.732701 1_555
O13 Se5 1.768512 1_555
O14 Se3 1.760506 1_555
O15 Se4 1.712366 1_555
O16 Se5 1.712366 1_555
O17 Se7 1.737701 1_555
O18 Se4 1.768512 1_555
O19 Se7 1.746953 1_555
O20 Se6 1.746953 1_555
O21 Se0 1.732701 1_555
O22 Se6 1.737701 1_655
O23 Se5 1.760506 1_555
