# generated using pymatgen
data_Li6V3P8O29
_symmetry_space_group_name_H-M   'P 1'
_cell_length_a   9.79430933
_cell_length_b   9.82501559
_cell_length_c   13.98091303
_cell_angle_alpha   90.01665431
_cell_angle_beta   89.78916940
_cell_angle_gamma   59.72141275
_symmetry_Int_Tables_number   1
_chemical_formula_structural   Li6V3P8O29
_chemical_formula_sum   'Li12 V6 P16 O58'
_cell_volume   1161.83091099
_cell_formula_units_Z   2
loop_
 _symmetry_equiv_pos_site_id
 _symmetry_equiv_pos_as_xyz
  1  'x, y, z'
loop_
 _atom_site_type_symbol
 _atom_site_label
 _atom_site_symmetry_multiplicity
 _atom_site_fract_x
 _atom_site_fract_y
 _atom_site_fract_z
 _atom_site_occupancy
  Li  Li0  1  0.89828700  0.76191900  0.05968300  1
  Li  Li1  1  0.76021700  0.90514800  0.56305700  1
  Li  Li2  1  0.90160700  0.33672600  0.55923000  1
  Li  Li3  1  0.75882500  0.33644400  0.06280900  1
  Li  Li4  1  0.33248200  0.90140000  0.05873400  1
  Li  Li5  1  0.33208400  0.76548500  0.55956700  1
  Li  Li6  1  0.23417700  0.66771600  0.93876600  1
  Li  Li7  1  0.09852400  0.66643800  0.43931100  1
  Li  Li8  1  0.23607200  0.09851500  0.43898000  1
  Li  Li9  1  0.09565100  0.23482700  0.93957100  1
  Li  Li10  1  0.94673700  0.01350900  0.99326600  1
  Li  Li11  1  0.94926000  0.03742900  0.49344400  1
  V  V0  1  0.56280600  0.43267000  0.25403600  1
  V  V1  1  0.43982100  0.56146600  0.74940100  1
  V  V2  1  0.56138900  0.00531500  0.75326100  1
  V  V3  1  0.44206400  0.99639200  0.24857400  1
  V  V4  1  0.00209200  0.56216000  0.24902300  1
  V  V5  1  0.99871200  0.43890500  0.74883600  1
  P  P0  1  0.91160900  0.77691100  0.84127600  1
  P  P1  1  0.77631900  0.91254300  0.34627700  1
  P  P2  1  0.91228100  0.31297300  0.34173800  1
  P  P3  1  0.66645100  0.66235700  0.13043100  1
  P  P4  1  0.66734000  0.67067500  0.63039700  1
  P  P5  1  0.77639200  0.31075300  0.84722700  1
  P  P6  1  0.69777100  0.21947500  0.66078000  1
  P  P7  1  0.31316800  0.91193500  0.84044400  1
  P  P8  1  0.69737000  0.08296200  0.16076000  1
  P  P9  1  0.31219100  0.77522200  0.34098600  1
  P  P10  1  0.22678100  0.68671700  0.15645100  1
  P  P11  1  0.33142700  0.33452800  0.36914000  1
  P  P12  1  0.32890600  0.33476600  0.86938600  1
  P  P13  1  0.09032500  0.68569200  0.65789400  1
  P  P14  1  0.22595400  0.08609900  0.65623000  1
  P  P15  1  0.08943000  0.22490100  0.15757100  1
  O  O0  1  0.00186800  0.77441000  0.56922000  1
  O  O1  1  0.91905800  0.74272000  0.33896400  1
  O  O2  1  0.80115200  0.98709800  0.07903800  1
  O  O3  1  0.74533600  0.91767600  0.83841000  1
  O  O4  1  0.91182800  0.62061800  0.83035000  1
  O  O5  1  0.81181400  0.67299600  0.16947300  1
  O  O6  1  0.91216900  0.46867900  0.32928700  1
  O  O7  1  0.99961600  0.22734500  0.06907900  1
  O  O8  1  0.91927000  0.33586100  0.84049400  1
  O  O9  1  0.67525000  0.81508700  0.67165000  1
  O  O10  1  0.61929000  0.91358700  0.33342900  1
  O  O11  1  0.81418500  0.51484500  0.67213100  1
  O  O12  1  0.66281300  0.66395500  0.02377200  1
  O  O13  1  0.67347700  0.66698800  0.52378400  1
  O  O14  1  0.67500200  0.51058600  0.17229700  1
  O  O15  1  0.47213900  0.90476800  0.82874500  1
  O  O16  1  0.51087000  0.81064900  0.17232800  1
  O  O17  1  0.74566700  0.33948500  0.33990000  1
  O  O18  1  0.79331600  0.19790200  0.75905100  1
  O  O19  1  0.80166400  0.21105500  0.57920300  1
  O  O20  1  0.78410800  0.22709200  0.93896400  1
  O  O21  1  0.62029200  0.46730100  0.83188300  1
  O  O22  1  0.51385100  0.67794000  0.67061400  1
  O  O23  1  0.66724700  0.25201400  0.15895900  1
  O  O24  1  0.47181100  0.62268800  0.32879100  1
  O  O25  1  0.33324200  0.92050100  0.34006500  1
  O  O26  1  0.79410800  0.00832400  0.25899500  1
  O  O27  1  0.78677900  0.98563200  0.43845400  1
  O  O28  1  0.22672500  0.99811500  0.56709000  1
  O  O29  1  0.66595300  0.08193300  0.65846400  1
  O  O30  1  0.54097400  0.37965300  0.67011700  1
  O  O31  1  0.33625300  0.74326500  0.83999700  1
  O  O32  1  0.48131300  0.32888800  0.32360900  1
  O  O33  1  0.38236800  0.53101900  0.16868000  1
  O  O34  1  0.22560900  0.77506400  0.06738300  1
  O  O35  1  0.22469700  0.77445400  0.43038600  1
  O  O36  1  0.20296800  0.79657200  0.24908000  1
  O  O37  1  0.25995300  0.66072900  0.65758500  1
  O  O38  1  0.47891900  0.18965200  0.82352200  1
  O  O39  1  0.54011200  0.08209200  0.16984400  1
  O  O40  1  0.32381100  0.48672000  0.83006800  1
  O  O41  1  0.31953000  0.33243700  0.97530900  1
  O  O42  1  0.32496100  0.34011800  0.47532300  1
  O  O43  1  0.18611800  0.49048900  0.32724500  1
  O  O44  1  0.38079100  0.08721400  0.66869400  1
  O  O45  1  0.32557900  0.18844000  0.32754300  1
  O  O46  1  0.08190400  0.66438700  0.15691300  1
  O  O47  1  0.00622000  0.79393700  0.75041200  1
  O  O48  1  0.99822800  0.77890600  0.93082400  1
  O  O49  1  0.09491400  0.52832500  0.66940300  1
  O  O50  1  0.18365600  0.32729000  0.82485900  1
  O  O51  1  0.09171700  0.37983100  0.16952000  1
  O  O52  1  0.25825200  0.08158700  0.15606800  1
  O  O53  1  0.22487300  0.99938700  0.92983700  1
  O  O54  1  0.20369800  0.99807100  0.74867200  1
  O  O55  1  0.08125300  0.25345000  0.65648700  1
  O  O56  1  0.99980200  0.22296500  0.43093700  1
  O  O57  1  0.00451000  0.20242900  0.25005200  1
loop_
_geom_bond_atom_site_label_1
_geom_bond_atom_site_label_2
_geom_bond_distance
_geom_bond_site_symmetry_2
Li0 O2 1.936038 1_555
Li0 O46 2.069130 1_655
Li0 O48 2.093702 1_554
Li0 O5 2.138717 1_555
Li1 O27 1.983098 1_555
Li1 O29 2.005241 1_565
Li1 O0 2.048162 1_655
Li1 O9 2.124751 1_555
Li2 O19 1.943627 1_555
Li2 O55 2.044685 1_655
Li2 O56 2.072092 1_555
Li2 O11 2.182811 1_555
Li3 O20 1.985214 1_554
Li3 O23 2.010408 1_555
Li3 O7 2.042299 1_555
Li3 O14 2.125390 1_555
Li4 O34 1.990068 1_555
Li4 O52 2.051318 1_565
Li4 O53 2.068091 1_554
Li4 O16 2.195491 1_555
Li5 O28 1.980034 1_555
Li5 O37 2.040415 1_555
Li5 O35 2.072800 1_555
Li5 O22 2.190107 1_555
Li6 O48 2.000606 1_455
Li6 O31 2.048438 1_555
Li6 O34 2.064321 1_556
Li6 O40 2.157967 1_555
Li7 O35 1.997608 1_555
Li7 O0 2.072154 1_555
Li7 O1 2.076036 1_455
Li7 O43 2.161533 1_555
Li8 O56 2.002862 1_455
Li8 O25 2.046355 1_545
Li8 O28 2.068897 1_545
Li8 O45 2.179052 1_555
Li9 O53 2.004374 1_545
Li9 O8 2.043922 1_455
Li9 O7 2.055678 1_456
Li9 O50 2.218251 1_555
Li10 O2 1.974655 1_546
Li10 O20 2.038686 1_555
Li10 O48 2.269968 1_545
Li11 O19 1.984100 1_555
Li11 O27 2.051348 1_545
Li11 O56 2.288976 1_555
O0 P13 1.514713 1_555
O1 P1 1.547733 1_555
O1 V4 1.981414 1_655
O2 P8 1.500380 1_565
O3 P0 1.515169 1_555
O3 V2 1.963804 1_565
O4 P0 1.542040 1_555
O4 V5 1.915720 1_555
O5 P3 1.578492 1_555
O5 V4 1.966063 1_655
O6 P2 1.539188 1_555
O6 V4 1.920297 1_655
O7 P15 1.513861 1_655
O8 P5 1.541159 1_555
O8 V5 2.015019 1_555
O9 P4 1.569230 1_555
O9 V2 1.981475 1_565
O10 P1 1.543992 1_555
O10 V3 1.916765 1_555
O11 P4 1.593498 1_555
O11 V5 1.904745 1_555
O12 P3 1.491645 1_555
O13 P4 1.491231 1_555
O14 P3 1.564636 1_555
O14 V0 1.984716 1_555
O15 P7 1.530867 1_555
O15 V2 1.928310 1_565
O16 P3 1.594362 1_555
O16 V3 1.916834 1_555
O17 P2 1.517621 1_555
O17 V0 1.962122 1_555
O18 P5 1.609021 1_555
O18 P6 1.617995 1_555
O19 P6 1.499859 1_555
O20 P5 1.504995 1_555
O21 P5 1.542887 1_555
O21 V1 1.917464 1_555
O22 P4 1.570592 1_555
O22 V1 1.969822 1_555
O23 P8 1.533728 1_555
O23 V0 2.030141 1_555
O24 P9 1.534400 1_555
O24 V0 1.919947 1_555
O25 P9 1.541693 1_555
O25 V3 2.029794 1_555
O26 P1 1.602954 1_545
O26 P8 1.622116 1_555
O27 P1 1.503855 1_555
O28 P14 1.514333 1_565
O29 P6 1.532657 1_555
O29 V2 2.034718 1_555
O30 P6 1.553514 1_555
O30 V1 1.899285 1_555
O31 P7 1.555495 1_555
O31 V1 1.996457 1_555
O32 P11 1.573044 1_555
O32 V0 1.854313 1_555
O33 P10 1.530635 1_555
O33 V0 1.942981 1_555
O34 P10 1.514897 1_555
O35 P9 1.515020 1_555
O36 P9 1.619700 1_555
O36 P10 1.624679 1_555
O37 P13 1.552234 1_555
O37 V1 1.996821 1_555
O38 P12 1.575687 1_555
O38 V2 1.848089 1_555
O39 P8 1.549309 1_555
O39 V3 1.910732 1_545
O40 P12 1.568156 1_555
O40 V1 1.983628 1_555
O41 P12 1.484305 1_555
O42 P11 1.485471 1_555
O43 P11 1.588742 1_555
O43 V4 1.917186 1_555
O44 P14 1.532651 1_555
O44 V2 1.937731 1_555
O45 P11 1.576164 1_555
O45 V3 1.974733 1_545
O46 P10 1.541270 1_555
O46 V4 2.015763 1_555
O47 P13 1.609549 1_555
O47 P0 1.627346 1_455
O48 P0 1.520560 1_555
O49 P13 1.532501 1_555
O49 V5 1.928885 1_455
O50 P12 1.590175 1_555
O50 V5 1.903985 1_455
O51 P15 1.542639 1_555
O51 V4 1.902903 1_555
O52 P15 1.539172 1_555
O52 V3 2.027952 1_545
O53 P7 1.513352 1_555
O54 P7 1.614857 1_555
O54 P14 1.629287 1_565
O55 P14 1.536935 1_555
O55 V5 2.036203 1_455
O56 P2 1.521887 1_555
O57 P15 1.609263 1_555
O57 P2 1.624828 1_455
