# generated using pymatgen
data_Li2VO2F
_symmetry_space_group_name_H-M   'P 1'
_cell_length_a   5.91392178
_cell_length_b   7.78882733
_cell_length_c   5.91386131
_cell_angle_alpha   79.96254939
_cell_angle_beta   119.77847439
_cell_angle_gamma   111.42632576
_symmetry_Int_Tables_number   1
_chemical_formula_structural   Li2VO2F
_chemical_formula_sum   'Li8 V4 O8 F4'
_cell_volume   220.08734520
_cell_formula_units_Z   4
loop_
 _symmetry_equiv_pos_site_id
 _symmetry_equiv_pos_as_xyz
  1  'x, y, z'
loop_
 _atom_site_type_symbol
 _atom_site_label
 _atom_site_symmetry_multiplicity
 _atom_site_fract_x
 _atom_site_fract_y
 _atom_site_fract_z
 _atom_site_occupancy
  Li  Li0  1  0.16695600  0.66019200  0.66344600  1
  Li  Li1  1  0.66696200  0.66018700  0.16346100  1
  Li  Li2  1  0.49993000  0.00640000  0.50358800  1
  Li  Li3  1  0.99994500  0.00640400  0.00359600  1
  Li  Li4  1  0.34735500  0.34360100  0.82110000  1
  Li  Li5  1  0.84734900  0.34359300  0.32110400  1
  Li  Li6  1  0.31596100  0.32303600  0.34204400  1
  Li  Li7  1  0.81595800  0.32303500  0.84204000  1
  V  V0  1  0.66239700  0.67374100  0.68279400  1
  V  V1  1  0.51259700  0.99300000  0.99221400  1
  V  V2  1  0.16234000  0.67373400  0.18275600  1
  V  V3  1  0.01255000  0.99296500  0.49215700  1
  O  O0  1  0.09753400  0.83338300  0.84756900  1
  O  O1  1  0.59752200  0.83337600  0.34757600  1
  O  O2  1  0.58269400  0.83331500  0.83278400  1
  O  O3  1  0.08268200  0.83331200  0.33276700  1
  O  O4  1  0.25325600  0.51253800  0.48713700  1
  O  O5  1  0.75323000  0.51254500  0.98712400  1
  O  O6  1  0.39749600  0.15415000  0.66354000  1
  O  O7  1  0.89748000  0.15414400  0.16351000  1
  F  F0  1  0.24346800  0.50213700  0.00504200  1
  F  F1  1  0.74349100  0.50214900  0.50505100  1
  F  F2  1  0.92041900  0.16453400  0.65878900  1
  F  F3  1  0.42042600  0.16452800  0.15881000  1
loop_
_geom_bond_atom_site_label_1
_geom_bond_atom_site_label_2
_geom_bond_distance
_geom_bond_site_symmetry_2
Li0 O4 2.011382 1_555
Li0 O2 2.113979 1_555
Li0 O3 2.120048 1_555
Li0 O0 2.129456 1_555
Li1 O5 2.011299 1_554
Li1 O3 2.113909 1_655
Li1 O2 2.120074 1_554
Li1 O1 2.129482 1_555
Li2 O6 2.010994 1_555
Li2 O2 2.113727 1_545
Li2 O3 2.120177 1_545
Li2 O1 2.128650 1_545
Li3 O7 2.010909 1_555
Li3 O3 2.113654 1_645
Li3 O2 2.120191 1_544
Li3 O0 2.128679 1_644
Li4 O6 2.051092 1_555
Li4 O5 2.063696 1_555
Li4 O4 2.116395 1_555
Li5 O7 2.051172 1_555
Li5 O4 2.063830 1_655
Li5 O5 2.116532 1_554
Li6 O4 2.051778 1_555
Li6 O6 2.063661 1_555
Li6 O7 2.116659 1_455
Li7 O5 2.051887 1_555
Li7 O7 2.063576 1_556
Li7 O6 2.116561 1_555
O0 V2 2.087292 1_556
O0 V1 2.087609 1_555
O0 V0 2.170630 1_455
O0 V3 2.170664 1_555
O1 V0 2.087348 1_555
O1 V3 2.087428 1_655
O1 V1 2.170615 1_554
O1 V2 2.170820 1_555
O2 V0 1.944582 1_555
O2 V1 1.944597 1_555
O3 V3 1.944373 1_555
O3 V2 1.944505 1_555
O4 V2 1.962070 1_555
O4 V0 2.067799 1_555
O5 V0 1.961843 1_555
O5 V2 2.067634 1_656
O6 V3 1.962030 1_545
O6 V1 2.067959 1_545
O7 V1 1.961656 1_544
O7 V3 2.067964 1_645
F0 Li0 2.105560 1_554
F0 Li1 2.117669 1_555
F0 V2 2.140115 1_555
F0 Li6 2.172760 1_555
F0 Li7 2.176805 1_454
F0 Li4 2.184465 1_554
F1 Li1 2.105463 1_555
F1 Li0 2.117534 1_655
F1 V0 2.140066 1_555
F1 Li7 2.172766 1_555
F1 Li6 2.176913 1_555
F1 Li5 2.184479 1_555
F2 Li2 2.105355 1_555
F2 Li3 2.119288 1_556
F2 V3 2.139633 1_645
F2 Li4 2.174417 1_655
F2 Li5 2.175357 1_555
F2 Li7 2.183750 1_555
F3 Li3 2.105298 1_455
F3 Li2 2.119158 1_555
F3 V1 2.139398 1_544
F3 Li5 2.174360 1_555
F3 Li4 2.175522 1_554
F3 Li6 2.183734 1_555
