# generated using pymatgen
data_Na9LiFe10(SiO3)20
_symmetry_space_group_name_H-M   'P 1'
_cell_length_a   9.80861900
_cell_length_b   10.38370195
_cell_length_c   11.25028302
_cell_angle_alpha   94.86315076
_cell_angle_beta   98.25649128
_cell_angle_gamma   99.11177322
_symmetry_Int_Tables_number   1
_chemical_formula_structural   Na9LiFe10(SiO3)20
_chemical_formula_sum   'Na9 Li1 Fe10 Si20 O60'
_cell_volume   1112.85469689
_cell_formula_units_Z   1
loop_
 _symmetry_equiv_pos_site_id
 _symmetry_equiv_pos_as_xyz
  1  'x, y, z'
loop_
 _atom_site_type_symbol
 _atom_site_label
 _atom_site_symmetry_multiplicity
 _atom_site_fract_x
 _atom_site_fract_y
 _atom_site_fract_z
 _atom_site_occupancy
  Na  Na0  1  0.99066300  0.71268700  0.98135100  1
  Na  Na1  1  0.80938500  0.48738100  0.61874200  1
  Na  Na2  1  0.79069400  0.91260400  0.58134100  1
  Na  Na3  1  0.60950000  0.68748300  0.21865500  1
  Na  Na4  1  0.39055200  0.31263100  0.78128000  1
  Na  Na5  1  0.20928700  0.08736400  0.41863700  1
  Na  Na6  1  0.40928700  0.88742000  0.81876000  1
  Na  Na7  1  0.19057100  0.51243200  0.38118600  1
  Na  Na8  1  0.00943600  0.28734200  0.01872500  1
  Li  Li0  1  0.59274600  0.12101700  0.18550600  1
  Fe  Fe0  1  0.87008800  0.23085200  0.74054200  1
  Fe  Fe1  1  0.92966300  0.96905600  0.85973000  1
  Fe  Fe2  1  0.72957200  0.16864000  0.45862800  1
  Fe  Fe3  1  0.67014100  0.43063000  0.34028700  1
  Fe  Fe4  1  0.52954400  0.36810500  0.05973500  1
  Fe  Fe5  1  0.47033300  0.63113100  0.94071200  1
  Fe  Fe6  1  0.32974400  0.56901600  0.65950900  1
  Fe  Fe7  1  0.27044200  0.83110000  0.54031800  1
  Fe  Fe8  1  0.07020400  0.03080200  0.14039700  1
  Fe  Fe9  1  0.12986700  0.76915500  0.25939700  1
  Si  Si0  1  0.92433600  0.27558000  0.26860600  1
  Si  Si1  1  0.86081500  0.51863600  0.14056100  1
  Si  Si2  1  0.93906800  0.68115000  0.45946600  1
  Si  Si3  1  0.87472900  0.92353000  0.33083700  1
  Si  Si4  1  0.73865900  0.88166500  0.06027200  1
  Si  Si5  1  0.72535800  0.47647900  0.86930500  1
  Si  Si6  1  0.67409600  0.12318200  0.93228400  1
  Si  Si7  1  0.66086300  0.71875100  0.74042400  1
  Si  Si8  1  0.53922200  0.08144900  0.66005400  1
  Si  Si9  1  0.52536000  0.67667100  0.46904000  1
  Si  Si10  1  0.47474500  0.32358400  0.53061100  1
  Si  Si11  1  0.46164400  0.91962600  0.33916700  1
  Si  Si12  1  0.33960500  0.28025200  0.25928100  1
  Si  Si13  1  0.32606700  0.87720300  0.06917500  1
  Si  Si14  1  0.27485300  0.52351700  0.13073000  1
  Si  Si15  1  0.26084300  0.11878400  0.94035800  1
  Si  Si16  1  0.12531300  0.07642200  0.66927200  1
  Si  Si17  1  0.06067300  0.31864900  0.54033700  1
  Si  Si18  1  0.13910200  0.48129000  0.85957100  1
  Si  Si19  1  0.07464500  0.72358900  0.73066400  1
  O  O0  1  0.94838000  0.15595400  0.17620700  1
  O  O1  1  0.94975900  0.40847500  0.19595700  1
  O  O2  1  0.97111500  0.06453100  0.71270200  1
  O  O3  1  0.95015100  0.66495900  0.18100500  1
  O  O4  1  0.85242700  0.04379700  0.42379600  1
  O  O5  1  0.90261200  0.29121500  0.57586600  1
  O  O6  1  0.89662000  0.90886700  0.02398700  1
  O  O7  1  0.95247000  0.70171100  0.60940800  1
  O  O8  1  0.84981400  0.53462000  0.41886200  1
  O  O9  1  0.76820800  0.26117200  0.30925100  1
  O  O10  1  0.82804100  0.13564000  0.88796200  1
  O  O11  1  0.84987300  0.79118600  0.40434000  1
  O  O12  1  0.65079800  0.24141400  0.02718300  1
  O  O13  1  0.84738300  0.49788900  0.99059700  1
  O  O14  1  0.70267700  0.49115000  0.17615200  1
  O  O15  1  0.69680900  0.10864200  0.62353500  1
  O  O16  1  0.75268000  0.90143400  0.21000600  1
  O  O17  1  0.74793400  0.35611700  0.77662400  1
  O  O18  1  0.64983500  0.73515800  0.01899300  1
  O  O19  1  0.75010100  0.60871500  0.79577600  1
  O  O20  1  0.62900100  0.33561800  0.48724000  1
  O  O21  1  0.64903500  0.99198300  0.00676900  1
  O  O22  1  0.75000700  0.86514700  0.78102600  1
  O  O23  1  0.55118900  0.06655300  0.37683000  1
  O  O24  1  0.64742300  0.69818500  0.59040200  1
  O  O25  1  0.49810300  0.30412600  0.22341300  1
  O  O26  1  0.55281700  0.10218200  0.81013400  1
  O  O27  1  0.54790400  0.55612200  0.37636700  1
  O  O28  1  0.55008900  0.80924500  0.39555700  1
  O  O29  1  0.57135000  0.46387700  0.91281800  1
  O  O30  1  0.42904300  0.53537700  0.08750300  1
  O  O31  1  0.45000400  0.19125800  0.60413300  1
  O  O32  1  0.45206200  0.44378000  0.62335500  1
  O  O33  1  0.44913000  0.90059100  0.18953100  1
  O  O34  1  0.50286300  0.69117000  0.77599200  1
  O  O35  1  0.35284000  0.30182400  0.40924100  1
  O  O36  1  0.44997900  0.93515900  0.61914900  1
  O  O37  1  0.24923800  0.13453700  0.21906300  1
  O  O38  1  0.34988600  0.00883800  0.99513900  1
  O  O39  1  0.37124300  0.66451200  0.51251400  1
  O  O40  1  0.25121000  0.39112900  0.20428500  1
  O  O41  1  0.34981000  0.26530200  0.98076200  1
  O  O42  1  0.25215600  0.64375400  0.22346900  1
  O  O43  1  0.24745000  0.09823400  0.79038400  1
  O  O44  1  0.30382000  0.89175400  0.37571700  1
  O  O45  1  0.29711500  0.50877600  0.82397800  1
  O  O46  1  0.15257200  0.50178700  0.00954300  1
  O  O47  1  0.34808100  0.75625600  0.97678000  1
  O  O48  1  0.15002900  0.20868200  0.59565200  1
  O  O49  1  0.17173500  0.86449600  0.11271800  1
  O  O50  1  0.22881200  0.73555600  0.68731000  1
  O  O51  1  0.15012800  0.46493200  0.58084300  1
  O  O52  1  0.04607800  0.29807900  0.39032400  1
  O  O53  1  0.10275700  0.09125500  0.97588700  1
  O  O54  1  0.09717700  0.70879100  0.42394100  1
  O  O55  1  0.14797400  0.95615800  0.57654800  1
  O  O56  1  0.04975900  0.33491900  0.81896800  1
  O  O57  1  0.02889800  0.93543200  0.28749300  1
  O  O58  1  0.04987300  0.59128700  0.80418900  1
  O  O59  1  0.05195900  0.84382900  0.82337300  1
loop_
_geom_bond_atom_site_label_1
_geom_bond_atom_site_label_2
_geom_bond_distance
_geom_bond_site_symmetry_2
Na0 O6 2.405656 1_556
Na0 O49 2.405801 1_656
Na0 O3 2.414847 1_556
Na0 O59 2.415066 1_655
Na0 O58 2.457077 1_655
Na0 O13 2.459498 1_555
Na0 O19 2.913436 1_555
Na0 O46 2.914281 1_656
Na1 O5 2.401659 1_555
Na1 O20 2.402578 1_555
Na1 O17 2.415329 1_555
Na1 O8 2.415795 1_555
Na1 O7 2.454883 1_555
Na1 O19 2.455908 1_555
Na1 O58 2.912022 1_655
Na1 O24 2.913931 1_555
Na2 O15 2.402593 1_565
Na2 O2 2.402885 1_565
Na2 O4 2.412528 1_565
Na2 O22 2.414918 1_555
Na2 O11 2.455583 1_555
Na2 O24 2.455815 1_555
Na2 O7 2.913242 1_555
Na2 O28 2.913900 1_555
Na3 O14 2.402172 1_555
Na3 O30 2.402920 1_555
Na3 O18 2.414332 1_555
Na3 O27 2.414733 1_555
Na3 O16 2.450520 1_555
Na3 O28 2.457405 1_555
Na3 O11 2.912433 1_555
Na3 O33 2.925026 1_555
Na4 O45 2.402218 1_555
Na4 O29 2.402368 1_555
Na4 O41 2.412503 1_555
Na4 O32 2.415178 1_555
Na4 O43 2.455005 1_555
Na4 O31 2.457838 1_555
Na4 O26 2.913293 1_555
Na4 O48 2.913484 1_555
Na5 O57 2.401633 1_545
Na5 O44 2.403607 1_545
Na5 O37 2.411033 1_555
Na5 O55 2.414883 1_545
Na5 O48 2.455546 1_555
Na5 O35 2.458126 1_555
Na5 O31 2.913770 1_555
Na5 O52 2.921068 1_555
Na6 O50 2.403309 1_555
Na6 O34 2.404077 1_555
Na6 O36 2.414876 1_555
Na6 O47 2.415353 1_555
Na6 O38 2.450927 1_565
Na6 O26 2.458862 1_565
Na6 O43 2.913263 1_565
Na6 O21 2.925083 1_556
Na7 O54 2.404087 1_555
Na7 O39 2.404832 1_555
Na7 O51 2.414090 1_555
Na7 O42 2.414512 1_555
Na7 O40 2.460359 1_555
Na7 O52 2.460663 1_555
Na7 O1 2.912787 1_455
Na7 O35 2.913861 1_555
Na8 O53 2.401351 1_554
Na8 O10 2.403927 1_454
Na8 O0 2.411375 1_455
Na8 O56 2.415076 1_554
Na8 O46 2.455735 1_555
Na8 O1 2.458366 1_455
Na8 O13 2.912026 1_454
Na8 O40 2.920716 1_555
Li0 O9 2.278844 1_555
Li0 O25 2.279041 1_555
Li0 O12 2.345875 1_555
Li0 O23 2.346145 1_555
Li0 O21 2.497973 1_545
Li0 O33 2.497980 1_545
Fe0 O17 1.958571 1_555
Fe0 O56 1.959736 1_655
Fe0 O5 2.056760 1_555
Fe0 O10 2.059984 1_555
Fe0 O2 2.145258 1_555
Fe0 O15 2.150108 1_555
Fe1 O22 1.959879 1_555
Fe1 O59 1.960059 1_655
Fe1 O6 2.052854 1_556
Fe1 O2 2.056151 1_565
Fe1 O53 2.144679 1_665
Fe1 O10 2.151827 1_565
Fe2 O23 1.953632 1_555
Fe2 O4 1.957144 1_555
Fe2 O9 2.057269 1_555
Fe2 O15 2.058435 1_555
Fe2 O20 2.149708 1_555
Fe2 O5 2.151418 1_555
Fe3 O8 1.959915 1_555
Fe3 O27 1.960926 1_555
Fe3 O14 2.051597 1_555
Fe3 O20 2.052197 1_555
Fe3 O25 2.160953 1_555
Fe3 O9 2.161419 1_555
Fe4 O12 1.954017 1_555
Fe4 O41 1.957074 1_554
Fe4 O25 2.057407 1_555
Fe4 O29 2.057488 1_554
Fe4 O14 2.149870 1_555
Fe4 O30 2.150562 1_555
Fe5 O18 1.957896 1_556
Fe5 O47 1.958171 1_555
Fe5 O30 2.054953 1_556
Fe5 O34 2.056047 1_555
Fe5 O45 2.148990 1_555
Fe5 O29 2.153679 1_555
Fe6 O32 1.959742 1_555
Fe6 O51 1.960141 1_555
Fe6 O45 2.054339 1_555
Fe6 O39 2.056049 1_555
Fe6 O34 2.146271 1_555
Fe6 O50 2.146596 1_555
Fe7 O55 1.959674 1_555
Fe7 O36 1.959979 1_555
Fe7 O50 2.056584 1_555
Fe7 O44 2.059031 1_555
Fe7 O39 2.146250 1_555
Fe7 O54 2.147279 1_555
Fe8 O37 1.954537 1_555
Fe8 O0 1.954553 1_455
Fe8 O53 2.055389 1_554
Fe8 O57 2.055915 1_545
Fe8 O6 2.147751 1_445
Fe8 O49 2.147884 1_545
Fe9 O42 1.960197 1_555
Fe9 O3 1.960458 1_455
Fe9 O49 2.052971 1_555
Fe9 O54 2.055740 1_555
Fe9 O57 2.144932 1_555
Fe9 O44 2.152365 1_555
O0 Si0 1.619702 1_555
O1 Si1 1.654920 1_555
O1 Si0 1.665899 1_555
O2 Si16 1.644648 1_655
O3 Si1 1.621716 1_555
O4 Si3 1.622317 1_545
O5 Si17 1.643759 1_655
O6 Si4 1.646085 1_555
O7 Si19 1.655400 1_655
O7 Si2 1.665779 1_555
O8 Si2 1.623436 1_555
O9 Si0 1.648278 1_555
O10 Si6 1.646437 1_555
O11 Si2 1.654221 1_555
O11 Si3 1.666193 1_555
O12 Si6 1.623571 1_554
O13 Si5 1.655065 1_555
O13 Si1 1.666057 1_556
O14 Si1 1.644776 1_555
O15 Si8 1.643648 1_555
O16 Si3 1.651187 1_555
O16 Si4 1.662724 1_555
O17 Si5 1.622115 1_555
O18 Si4 1.622732 1_555
O19 Si7 1.655378 1_555
O19 Si5 1.665323 1_555
O20 Si10 1.644833 1_555
O21 Si4 1.652626 1_555
O21 Si6 1.662900 1_564
O22 Si7 1.621904 1_555
O23 Si11 1.624090 1_545
O24 Si9 1.655787 1_555
O24 Si7 1.666639 1_555
O25 Si12 1.648116 1_555
O26 Si6 1.657907 1_555
O26 Si8 1.667207 1_555
O27 Si9 1.623384 1_555
O28 Si11 1.657980 1_555
O28 Si9 1.667969 1_555
O29 Si5 1.642967 1_555
O30 Si14 1.643594 1_555
O31 Si8 1.655674 1_555
O31 Si10 1.666064 1_555
O32 Si10 1.621636 1_555
O33 Si13 1.652699 1_555
O33 Si11 1.662733 1_555
O34 Si7 1.643432 1_555
O35 Si10 1.654823 1_555
O35 Si12 1.666470 1_555
O36 Si8 1.621762 1_565
O37 Si12 1.619786 1_555
O38 Si15 1.651211 1_555
O38 Si13 1.662659 1_546
O39 Si9 1.643985 1_555
O40 Si12 1.656185 1_555
O40 Si14 1.665930 1_555
O41 Si15 1.622069 1_555
O42 Si14 1.621965 1_555
O43 Si16 1.654067 1_555
O43 Si15 1.666139 1_555
O44 Si11 1.646317 1_555
O45 Si18 1.643619 1_555
O46 Si14 1.655531 1_555
O46 Si18 1.666035 1_554
O47 Si13 1.622763 1_556
O48 Si17 1.655327 1_555
O48 Si16 1.666112 1_555
O49 Si13 1.646088 1_555
O50 Si19 1.643951 1_555
O51 Si17 1.621870 1_555
O52 Si0 1.656326 1_455
O52 Si17 1.665597 1_555
O53 Si15 1.644037 1_555
O54 Si2 1.644286 1_455
O55 Si16 1.621946 1_565
O56 Si18 1.622375 1_555
O57 Si3 1.643951 1_455
O58 Si18 1.655121 1_555
O58 Si19 1.665899 1_555
O59 Si19 1.621748 1_555
