# generated using pymatgen
data_Dy2(SeO4)3
_symmetry_space_group_name_H-M   'P 1'
_cell_length_a   6.73123555
_cell_length_b   6.73123555
_cell_length_c   11.17513951
_cell_angle_alpha   80.47177870
_cell_angle_beta   80.47177870
_cell_angle_gamma   116.86926237
_symmetry_Int_Tables_number   1
_chemical_formula_structural   Dy2(SeO4)3
_chemical_formula_sum   'Dy4 Se6 O24'
_cell_volume   428.49815203
_cell_formula_units_Z   2
loop_
 _symmetry_equiv_pos_site_id
 _symmetry_equiv_pos_as_xyz
  1  'x, y, z'
loop_
 _atom_site_type_symbol
 _atom_site_label
 _atom_site_symmetry_multiplicity
 _atom_site_fract_x
 _atom_site_fract_y
 _atom_site_fract_z
 _atom_site_occupancy
  Dy  Dy0  1  0.70649295  0.95660058  0.59353268  1
  Dy  Dy1  1  0.95660058  0.70649295  0.09353268  1
  Dy  Dy2  1  0.04339942  0.29350705  0.90646732  1
  Dy  Dy3  1  0.29350705  0.04339942  0.40646732  1
  Se  Se0  1  0.52836962  0.78885677  0.92394460  1
  Se  Se1  1  0.78885677  0.52836962  0.42394460  1
  Se  Se2  1  0.11785884  0.88214116  0.75000000  1
  Se  Se3  1  0.88214116  0.11785884  0.25000000  1
  Se  Se4  1  0.21114323  0.47163038  0.57605540  1
  Se  Se5  1  0.47163038  0.21114323  0.07605540  1
  O  O0  1  0.20915778  0.12666627  0.78839144  1
  O  O1  1  0.58209107  0.97409394  0.78976456  1
  O  O2  1  0.07739555  0.68182573  0.87711179  1
  O  O3  1  0.78612196  0.88741226  0.95694631  1
  O  O4  1  0.12666627  0.20915778  0.28839144  1
  O  O5  1  0.46513843  0.57442938  0.60633074  1
  O  O6  1  0.76807774  0.33612118  0.54333545  1
  O  O7  1  0.66387882  0.23192226  0.95666455  1
  O  O8  1  0.42557062  0.53486157  0.89366926  1
  O  O9  1  0.97409394  0.58209107  0.28976456  1
  O  O10  1  0.11258774  0.21387804  0.54305369  1
  O  O11  1  0.31817427  0.92260445  0.62288821  1
  O  O12  1  0.68182573  0.07739555  0.37711179  1
  O  O13  1  0.88741226  0.78612196  0.45694631  1
  O  O14  1  0.02590606  0.41790893  0.71023544  1
  O  O15  1  0.57442938  0.46513843  0.10633074  1
  O  O16  1  0.33612118  0.76807774  0.04333545  1
  O  O17  1  0.23192226  0.66387882  0.45666455  1
  O  O18  1  0.53486157  0.42557062  0.39366926  1
  O  O19  1  0.87333373  0.79084222  0.71160856  1
  O  O20  1  0.21387804  0.11258774  0.04305369  1
  O  O21  1  0.92260445  0.31817427  0.12288821  1
  O  O22  1  0.41790893  0.02590606  0.21023544  1
  O  O23  1  0.79084222  0.87333373  0.21160856  1
loop_
_geom_bond_atom_site_label_1
_geom_bond_atom_site_label_2
_geom_bond_distance
_geom_bond_site_symmetry_2
Dy0 O1 2.256244 1_555
Dy0 O5 2.302402 1_555
Dy0 O19 2.320149 1_555
Dy0 O6 2.346071 1_565
Dy0 O10 2.382541 1_665
Dy0 O12 2.478294 1_565
Dy0 O11 2.478480 1_555
Dy0 O13 2.521385 1_555
Dy1 O9 2.256244 1_555
Dy1 O15 2.302402 1_555
Dy1 O23 2.320149 1_555
Dy1 O16 2.346071 1_655
Dy1 O20 2.382541 1_665
Dy1 O2 2.478294 1_654
Dy1 O21 2.478480 1_555
Dy1 O3 2.521385 1_554
Dy2 O14 2.256244 1_555
Dy2 O8 2.302402 1_555
Dy2 O0 2.320149 1_555
Dy2 O7 2.346071 1_455
Dy2 O3 2.382541 1_445
Dy2 O21 2.478294 1_456
Dy2 O2 2.478480 1_555
Dy2 O20 2.521385 1_556
Dy3 O22 2.256244 1_555
Dy3 O18 2.302402 1_555
Dy3 O4 2.320149 1_555
Dy3 O17 2.346071 1_545
Dy3 O13 2.382541 1_445
Dy3 O11 2.478294 1_545
Dy3 O12 2.478480 1_555
Dy3 O10 2.521385 1_555
O0 Se2 1.636355 1_545
O1 Se0 1.651619 1_555
O2 Se2 1.678071 1_555
O3 Se0 1.684858 1_555
O4 Se3 1.636355 1_455
O5 Se4 1.648028 1_555
O6 Se1 1.636245 1_555
O7 Se5 1.636245 1_556
O8 Se0 1.648028 1_555
O9 Se1 1.651619 1_555
O10 Se4 1.684858 1_555
O11 Se2 1.678071 1_555
O12 Se3 1.678071 1_555
O13 Se1 1.684858 1_555
O14 Se4 1.651619 1_555
O15 Se5 1.648028 1_555
O16 Se0 1.636245 1_554
O17 Se4 1.636245 1_555
O18 Se1 1.648028 1_555
O19 Se2 1.636355 1_655
O20 Se5 1.684858 1_555
O21 Se3 1.678071 1_555
O22 Se5 1.651619 1_555
O23 Se3 1.636355 1_565
