# generated using pymatgen
data_Ni(PO3)3
_symmetry_space_group_name_H-M   'P 1'
_cell_length_a   11.82308723
_cell_length_b   11.82308723
_cell_length_c   9.56713421
_cell_angle_alpha   70.18288558
_cell_angle_beta   70.18288558
_cell_angle_gamma   111.10512214
_symmetry_Int_Tables_number   1
_chemical_formula_structural   Ni(PO3)3
_chemical_formula_sum   'Ni6 P18 O54'
_cell_volume   998.72387465
_cell_formula_units_Z   6
loop_
 _symmetry_equiv_pos_site_id
 _symmetry_equiv_pos_as_xyz
  1  'x, y, z'
loop_
 _atom_site_type_symbol
 _atom_site_label
 _atom_site_symmetry_multiplicity
 _atom_site_fract_x
 _atom_site_fract_y
 _atom_site_fract_z
 _atom_site_occupancy
  Ni  Ni0  1  0.66809800  0.82867200  0.50066700  1
  Ni  Ni1  1  0.82867200  0.66809800  0.00066700  1
  Ni  Ni2  1  0.15847000  0.33529900  0.00362800  1
  Ni  Ni3  1  0.01348100  0.52231700  0.46700200  1
  Ni  Ni4  1  0.33529900  0.15847000  0.50362800  1
  Ni  Ni5  1  0.52231700  0.01348100  0.96700200  1
  P  P0  1  0.91670900  0.85350700  0.17822300  1
  P  P1  1  0.85350700  0.91670900  0.67822300  1
  P  P2  1  0.81667000  0.42276200  0.30524600  1
  P  P3  1  0.48105500  0.75284600  0.31341500  1
  P  P4  1  0.42276200  0.81667000  0.80524600  1
  P  P5  1  0.75284600  0.48105500  0.81341500  1
  P  P6  1  0.16748700  0.87772400  0.21150000  1
  P  P7  1  0.81327800  0.18451200  0.25297400  1
  P  P8  1  0.46514100  0.50319600  0.27429200  1
  P  P9  1  0.87772400  0.16748700  0.71150000  1
  P  P10  1  0.18451200  0.81327800  0.75297400  1
  P  P11  1  0.26712200  0.53936100  0.15284600  1
  P  P12  1  0.50319600  0.46514100  0.77429200  1
  P  P13  1  0.59706500  0.19913000  0.15239100  1
  P  P14  1  0.53936100  0.26712200  0.65284600  1
  P  P15  1  0.19913000  0.59706500  0.65239100  1
  P  P16  1  0.12939100  0.07370500  0.34070700  1
  P  P17  1  0.07370500  0.12939100  0.84070700  1
  O  O0  1  0.94208200  0.98763600  0.02331300  1
  O  O1  1  0.98763600  0.94208200  0.52331300  1
  O  O2  1  0.85105300  0.84884700  0.34686800  1
  O  O3  1  0.83140300  0.72153300  0.18158500  1
  O  O4  1  0.84884700  0.85105300  0.84686800  1
  O  O5  1  0.94519900  0.51602300  0.30136800  1
  O  O6  1  0.72153300  0.83140300  0.68158500  1
  O  O7  1  0.60884900  0.82942400  0.32254600  1
  O  O8  1  0.49112300  0.82914000  0.14347700  1
  O  O9  1  0.81646100  0.48697800  0.13958500  1
  O  O10  1  0.51602300  0.94519900  0.80136800  1
  O  O11  1  0.30942900  0.92887100  0.06662600  1
  O  O12  1  0.82942400  0.60884900  0.82254600  1
  O  O13  1  0.95410000  0.27856800  0.08234500  1
  O  O14  1  0.61324100  0.57666000  0.12619400  1
  O  O15  1  0.82914000  0.49112300  0.64347700  1
  O  O16  1  0.48697800  0.81646100  0.63958500  1
  O  O17  1  0.19079400  0.99449600  0.26683500  1
  O  O18  1  0.92887100  0.30942900  0.56662600  1
  O  O19  1  0.27856800  0.95410000  0.58234500  1
  O  O20  1  0.57666000  0.61324100  0.62619400  1
  O  O21  1  0.99449600  0.19079400  0.76683500  1
  O  O22  1  0.79110600  0.26887700  0.35211000  1
  O  O23  1  0.44402600  0.59652400  0.35844600  1
  O  O24  1  0.07659800  0.89516200  0.12063500  1
  O  O25  1  0.67791400  0.38640500  0.46286500  1
  O  O26  1  0.34189500  0.72051500  0.46710700  1
  O  O27  1  0.26887700  0.79110600  0.85211000  1
  O  O28  1  0.59652400  0.44402600  0.85844600  1
  O  O29  1  0.89516200  0.07659800  0.62063500  1
  O  O30  1  0.38640500  0.67791400  0.96286500  1
  O  O31  1  0.72051500  0.34189500  0.96710700  1
  O  O32  1  0.36250900  0.48596600  0.19746800  1
  O  O33  1  0.68934100  0.14930600  0.21145600  1
  O  O34  1  0.77831500  0.04554900  0.38520400  1
  O  O35  1  0.08405900  0.73363800  0.37344100  1
  O  O36  1  0.20578100  0.58096600  0.27726800  1
  O  O37  1  0.51793300  0.23265900  0.27515800  1
  O  O38  1  0.48596600  0.36250900  0.69746800  1
  O  O39  1  0.39982100  0.36113300  0.43191000  1
  O  O40  1  0.14930600  0.68934100  0.71145600  1
  O  O41  1  0.04554900  0.77831500  0.88520400  1
  O  O42  1  0.73363800  0.08405900  0.87344100  1
  O  O43  1  0.58096600  0.20578100  0.77726800  1
  O  O44  1  0.50745800  0.08708800  0.12961800  1
  O  O45  1  0.16011100  0.43118600  0.14167900  1
  O  O46  1  0.23265900  0.51793300  0.77515800  1
  O  O47  1  0.36113300  0.39982100  0.93191000  1
  O  O48  1  0.08708800  0.50745800  0.62961800  1
  O  O49  1  0.43118600  0.16011100  0.64167900  1
  O  O50  1  0.23377600  0.16372800  0.37232000  1
  O  O51  1  0.09072900  0.15249600  0.22530500  1
  O  O52  1  0.16372800  0.23377600  0.87232000  1
  O  O53  1  0.15249600  0.09072900  0.72530500  1
loop_
_geom_bond_atom_site_label_1
_geom_bond_atom_site_label_2
_geom_bond_distance
_geom_bond_site_symmetry_2
Ni0 O16 2.022459 1_555
Ni0 O2 2.033055 1_555
Ni0 O6 2.039782 1_555
Ni0 O20 2.039891 1_555
Ni0 O34 2.047035 1_565
Ni0 O7 2.048995 1_555
Ni1 O9 2.022459 1_555
Ni1 O4 2.033055 1_554
Ni1 O3 2.039782 1_555
Ni1 O14 2.039891 1_555
Ni1 O41 2.047035 1_654
Ni1 O12 2.048995 1_554
Ni2 O47 2.002010 1_554
Ni2 O52 2.011455 1_554
Ni2 O45 2.011657 1_555
Ni2 O13 2.027806 1_455
Ni2 O51 2.074676 1_555
Ni2 O46 2.084589 1_554
Ni3 O48 2.012818 1_555
Ni3 O5 2.018035 1_455
Ni3 O36 2.039094 1_555
Ni3 O18 2.039126 1_455
Ni3 O35 2.053200 1_555
Ni3 O15 2.059278 1_455
Ni4 O39 2.002010 1_555
Ni4 O50 2.011455 1_555
Ni4 O49 2.011657 1_555
Ni4 O19 2.027806 1_545
Ni4 O53 2.074676 1_555
Ni4 O37 2.084589 1_555
Ni5 O44 2.012818 1_556
Ni5 O10 2.018035 1_545
Ni5 O43 2.039094 1_555
Ni5 O11 2.039126 1_546
Ni5 O42 2.053200 1_555
Ni5 O8 2.059278 1_546
O0 P0 1.601143 1_555
O0 P17 1.604923 1_664
O1 P1 1.601143 1_555
O1 P16 1.604923 1_665
O2 P0 1.506169 1_555
O3 P0 1.504516 1_555
O4 P1 1.506169 1_555
O5 P2 1.501247 1_555
O6 P1 1.504516 1_555
O7 P3 1.506055 1_555
O8 P3 1.506055 1_555
O9 P2 1.508797 1_555
O10 P4 1.501247 1_555
O11 P6 1.492252 1_555
O12 P5 1.506055 1_555
O13 P7 1.505470 1_555
O14 P8 1.488647 1_555
O15 P5 1.506055 1_555
O16 P4 1.508797 1_555
O17 P16 1.579254 1_565
O17 P6 1.607100 1_555
O18 P9 1.492252 1_555
O19 P10 1.505470 1_555
O20 P12 1.488647 1_555
O21 P17 1.579254 1_655
O21 P9 1.607100 1_555
O22 P2 1.600492 1_555
O22 P7 1.619987 1_555
O23 P3 1.594574 1_555
O23 P8 1.610134 1_555
O24 P0 1.599691 1_455
O24 P6 1.619995 1_555
O25 P2 1.589129 1_555
O25 P14 1.598559 1_555
O26 P3 1.593998 1_555
O26 P15 1.601383 1_555
O27 P4 1.600492 1_555
O27 P10 1.619987 1_555
O28 P5 1.594574 1_555
O28 P12 1.610134 1_555
O29 P1 1.599691 1_545
O29 P9 1.619995 1_555
O30 P4 1.589129 1_555
O30 P11 1.598559 1_556
O31 P5 1.593998 1_555
O31 P13 1.601383 1_556
O32 P11 1.584005 1_555
O32 P8 1.606960 1_555
O33 P13 1.584838 1_555
O33 P7 1.595522 1_555
O34 P7 1.489182 1_555
O35 P6 1.496500 1_555
O36 P11 1.501160 1_555
O37 P13 1.499898 1_555
O38 P14 1.584005 1_555
O38 P12 1.606960 1_555
O39 P8 1.500125 1_555
O40 P15 1.584838 1_555
O40 P10 1.595522 1_555
O41 P10 1.489182 1_555
O42 P9 1.496500 1_555
O43 P14 1.501160 1_555
O44 P13 1.505377 1_555
O45 P11 1.505611 1_555
O46 P15 1.499898 1_555
O47 P12 1.500125 1_555
O48 P15 1.505377 1_555
O49 P14 1.505611 1_555
O50 P16 1.507587 1_555
O51 P16 1.499060 1_555
O52 P17 1.507587 1_555
O53 P17 1.499060 1_555
