# generated using pymatgen
data_K2LiTi2(AsO5)2
_symmetry_space_group_name_H-M   'P 1'
_cell_length_a   6.75601400
_cell_length_b   11.05572000
_cell_length_c   13.23673400
_cell_angle_alpha   90.00000000
_cell_angle_beta   90.00000000
_cell_angle_gamma   90.00000000
_symmetry_Int_Tables_number   1
_chemical_formula_structural   K2LiTi2(AsO5)2
_chemical_formula_sum   'K8 Li4 Ti8 As8 O40'
_cell_volume   988.68606606
_cell_formula_units_Z   4
loop_
 _symmetry_equiv_pos_site_id
 _symmetry_equiv_pos_as_xyz
  1  'x, y, z'
loop_
 _atom_site_type_symbol
 _atom_site_label
 _atom_site_symmetry_multiplicity
 _atom_site_fract_x
 _atom_site_fract_y
 _atom_site_fract_z
 _atom_site_occupancy
  K  K0  1  0.61648700  0.08468600  0.09712700  1
  K  K1  1  0.28244800  0.78836100  0.13765600  1
  K  K2  1  0.78244800  0.28836100  0.36234400  1
  K  K3  1  0.11648700  0.58468600  0.40287300  1
  K  K4  1  0.88351300  0.08468600  0.59712700  1
  K  K5  1  0.21755200  0.78836100  0.63765600  1
  K  K6  1  0.71755200  0.28836100  0.86234400  1
  K  K7  1  0.38351300  0.58468600  0.90287300  1
  Li  Li0  1  0.04050700  0.03130000  0.10280200  1
  Li  Li1  1  0.54050700  0.53130000  0.39719800  1
  Li  Li2  1  0.45949300  0.03130000  0.60280200  1
  Li  Li3  1  0.95949300  0.53130000  0.89719800  1
  Ti  Ti0  1  0.00659000  0.51635500  0.13352600  1
  Ti  Ti1  1  0.25938200  0.26741900  0.24838000  1
  Ti  Ti2  1  0.75938200  0.76741900  0.25162000  1
  Ti  Ti3  1  0.50659000  0.01635500  0.36647400  1
  Ti  Ti4  1  0.49341000  0.51635500  0.63352600  1
  Ti  Ti5  1  0.24061800  0.26741900  0.74838000  1
  Ti  Ti6  1  0.74061800  0.76741900  0.75162000  1
  Ti  Ti7  1  0.99341000  0.01635500  0.86647400  1
  As  As0  1  0.83378200  0.77223100  0.00196600  1
  As  As1  1  0.51522900  0.51421400  0.18135300  1
  As  As2  1  0.01522900  0.01421400  0.31864700  1
  As  As3  1  0.33378200  0.27223100  0.49803400  1
  As  As4  1  0.66621800  0.77223100  0.50196600  1
  As  As5  1  0.98477100  0.51421400  0.68135300  1
  As  As6  1  0.48477100  0.01421400  0.81864700  1
  As  As7  1  0.16621800  0.27223100  0.99803400  1
  O  O0  1  0.03142800  0.40554400  0.99717700  1
  O  O1  1  0.99760200  0.65207600  0.00341500  1
  O  O2  1  0.32574700  0.25432300  0.09905800  1
  O  O3  1  0.71153700  0.48763500  0.10153400  1
  O  O4  1  0.67559500  0.77840100  0.10420900  1
  O  O5  1  0.31129100  0.54985800  0.10812100  1
  O  O6  1  0.06095500  0.39394900  0.22085700  1
  O  O7  1  0.95961300  0.64419400  0.21859600  1
  O  O8  1  0.05178600  0.12999200  0.22994100  1
  O  O9  1  0.97609500  0.89793100  0.23261200  1
  O  O10  1  0.47609500  0.39793100  0.26738800  1
  O  O11  1  0.55178600  0.62999200  0.27005900  1
  O  O12  1  0.45961300  0.14419400  0.28140400  1
  O  O13  1  0.56095500  0.89394900  0.27914300  1
  O  O14  1  0.81129100  0.04985800  0.39187900  1
  O  O15  1  0.17559500  0.27840100  0.39579100  1
  O  O16  1  0.21153700  0.98763500  0.39846600  1
  O  O17  1  0.82574700  0.75432300  0.40094200  1
  O  O18  1  0.49760200  0.15207600  0.49658500  1
  O  O19  1  0.53142800  0.90554400  0.50282300  1
  O  O20  1  0.46857200  0.40554400  0.49717700  1
  O  O21  1  0.50239800  0.65207600  0.50341500  1
  O  O22  1  0.17425300  0.25432300  0.59905800  1
  O  O23  1  0.78846300  0.48763500  0.60153400  1
  O  O24  1  0.82440500  0.77840100  0.60420900  1
  O  O25  1  0.18870900  0.54985800  0.60812100  1
  O  O26  1  0.43904500  0.39394900  0.72085700  1
  O  O27  1  0.54038700  0.64419400  0.71859600  1
  O  O28  1  0.44821400  0.12999200  0.72994100  1
  O  O29  1  0.52390500  0.89793100  0.73261200  1
  O  O30  1  0.02390500  0.39793100  0.76738800  1
  O  O31  1  0.94821400  0.62999200  0.77005900  1
  O  O32  1  0.04038700  0.14419400  0.78140400  1
  O  O33  1  0.93904500  0.89394900  0.77914300  1
  O  O34  1  0.68870900  0.04985800  0.89187900  1
  O  O35  1  0.32440500  0.27840100  0.89579100  1
  O  O36  1  0.28846300  0.98763500  0.89846600  1
  O  O37  1  0.67425300  0.75432300  0.90094200  1
  O  O38  1  0.00239800  0.15207600  0.99658500  1
  O  O39  1  0.96857200  0.90554400  0.00282300  1
loop_
_geom_bond_atom_site_label_1
_geom_bond_atom_site_label_2
_geom_bond_distance
_geom_bond_site_symmetry_2
K0 O2 2.715926 1_555
K0 O12 2.739695 1_555
K0 O34 2.787008 1_554
K1 O5 2.672760 1_555
K1 O4 2.695002 1_555
K1 O9 2.707583 1_455
K1 O13 2.900102 1_555
K1 O7 2.906094 1_455
K1 O1 3.021764 1_455
K1 O39 3.059492 1_455
K1 O11 3.073804 1_555
K2 O14 2.672760 1_555
K2 O15 2.695002 1_655
K2 O10 2.707583 1_555
K2 O6 2.900102 1_655
K2 O12 2.906094 1_555
K2 O18 3.021764 1_555
K2 O20 3.059492 1_555
K2 O8 3.073804 1_655
K3 O17 2.715926 1_455
K3 O7 2.739695 1_455
K3 O25 2.787008 1_555
K4 O22 2.715926 1_655
K4 O32 2.739695 1_655
K4 O14 2.787008 1_555
K5 O25 2.672760 1_555
K5 O24 2.695002 1_455
K5 O29 2.707583 1_555
K5 O33 2.900102 1_455
K5 O27 2.906094 1_555
K5 O21 3.021764 1_555
K5 O19 3.059492 1_555
K5 O31 3.073804 1_455
K6 O34 2.672760 1_555
K6 O35 2.695002 1_555
K6 O30 2.707583 1_655
K6 O26 2.900102 1_555
K6 O32 2.906094 1_655
K6 O38 3.021764 1_655
K6 O0 3.059492 1_655
K6 O28 3.073804 1_555
K7 O37 2.715926 1_555
K7 O27 2.739695 1_555
K7 O5 2.787008 1_556
Li0 O38 1.956007 1_554
Li0 O39 1.980041 1_445
Li0 O8 2.007112 1_555
Li0 O9 2.305626 1_445
Li1 O21 1.956007 1_555
Li1 O20 1.980041 1_555
Li1 O11 2.007112 1_555
Li1 O10 2.305626 1_555
Li2 O18 1.956007 1_555
Li2 O19 1.980041 1_545
Li2 O28 2.007112 1_555
Li2 O29 2.305626 1_545
Li3 O1 1.956007 1_556
Li3 O0 1.980041 1_655
Li3 O31 2.007112 1_555
Li3 O30 2.305626 1_655
As0 O4 1.725803 1_555
As0 O37 1.728869 1_554
As0 O1 1.729149 1_555
As0 O39 1.732540 1_555
As1 O3 1.720929 1_555
As1 O5 1.730113 1_555
As1 O10 1.737690 1_555
As1 O11 1.754456 1_555
As2 O16 1.720929 1_545
As2 O14 1.730113 1_455
As2 O9 1.737690 1_445
As2 O8 1.754456 1_555
As3 O15 1.725803 1_555
As3 O22 1.728869 1_555
As3 O18 1.729149 1_555
As3 O20 1.732540 1_555
As4 O24 1.725803 1_555
As4 O17 1.728869 1_555
As4 O21 1.729149 1_555
As4 O19 1.732540 1_555
As5 O23 1.720929 1_555
As5 O25 1.730113 1_655
As5 O30 1.737690 1_655
As5 O31 1.754456 1_555
As6 O36 1.720929 1_545
As6 O34 1.730113 1_555
As6 O29 1.737690 1_545
As6 O28 1.754456 1_555
As7 O35 1.725803 1_555
As7 O2 1.728869 1_556
As7 O38 1.729149 1_555
As7 O0 1.732540 1_555
O0 Ti0 2.187779 1_556
O1 Ti0 2.285015 1_655
O2 Ti1 2.031917 1_555
O3 Ti0 2.062454 1_655
O4 Ti2 2.035316 1_555
O5 Ti0 2.118482 1_555
O6 Ti0 1.817297 1_555
O6 Ti1 1.971480 1_555
O7 Ti0 1.834742 1_655
O7 Ti2 1.969016 1_555
O8 Ti1 2.082084 1_555
O9 Ti2 2.070969 1_555
O10 Ti1 2.070969 1_555
O11 Ti2 2.082084 1_555
O12 Ti3 1.834742 1_555
O12 Ti1 1.969016 1_555
O13 Ti3 1.817297 1_565
O13 Ti2 1.971480 1_555
O14 Ti3 2.118482 1_555
O15 Ti1 2.035316 1_555
O16 Ti3 2.062454 1_565
O17 Ti2 2.031917 1_555
O18 Ti3 2.285015 1_555
O19 Ti3 2.187779 1_565
O20 Ti4 2.187779 1_555
O21 Ti4 2.285015 1_555
O22 Ti5 2.031917 1_555
O23 Ti4 2.062454 1_555
O24 Ti6 2.035316 1_555
O25 Ti4 2.118482 1_555
O26 Ti4 1.817297 1_555
O26 Ti5 1.971480 1_555
O27 Ti4 1.834742 1_555
O27 Ti6 1.969016 1_555
O28 Ti5 2.082084 1_555
O29 Ti6 2.070969 1_555
O30 Ti5 2.070969 1_555
O31 Ti6 2.082084 1_555
O32 Ti7 1.834742 1_455
O32 Ti5 1.969016 1_555
O33 Ti7 1.817297 1_565
O33 Ti6 1.971480 1_555
O34 Ti7 2.118482 1_555
O35 Ti5 2.035316 1_555
O36 Ti7 2.062454 1_465
O37 Ti6 2.031917 1_555
O38 Ti7 2.285015 1_455
O39 Ti7 2.187779 1_564
