# generated using pymatgen
data_Li2Mn5(Si2O7)2
_symmetry_space_group_name_H-M   'P 1'
_cell_length_a   7.65614500
_cell_length_b   8.10484962
_cell_length_c   5.56158156
_cell_angle_alpha   93.44038458
_cell_angle_beta   103.83317150
_cell_angle_gamma   113.66701250
_symmetry_Int_Tables_number   1
_chemical_formula_structural   Li2Mn5(Si2O7)2
_chemical_formula_sum   'Li2 Mn5 Si4 O14'
_cell_volume   302.15554571
_cell_formula_units_Z   1
loop_
 _symmetry_equiv_pos_site_id
 _symmetry_equiv_pos_as_xyz
  1  'x, y, z'
loop_
 _atom_site_type_symbol
 _atom_site_label
 _atom_site_symmetry_multiplicity
 _atom_site_fract_x
 _atom_site_fract_y
 _atom_site_fract_z
 _atom_site_occupancy
  Li  Li0  1  0.46019600  0.22888100  0.10149000  1
  Li  Li1  1  0.53980400  0.77111900  0.89851000  1
  Mn  Mn0  1  0.00000000  0.00000000  0.00000000  1
  Mn  Mn1  1  0.82041200  0.09169800  0.38022900  1
  Mn  Mn2  1  0.70411900  0.63089900  0.58084900  1
  Mn  Mn3  1  0.29588100  0.36910100  0.41915100  1
  Mn  Mn4  1  0.17958800  0.90830200  0.61977100  1
  Si  Si0  1  0.85973000  0.50612200  0.21693500  1
  Si  Si1  1  0.38968900  0.79284200  0.20824300  1
  Si  Si2  1  0.61031100  0.20715800  0.79175700  1
  Si  Si3  1  0.14027000  0.49387800  0.78306500  1
  O  O0  1  0.56868700  0.88426100  0.17672000  1
  O  O1  1  0.96901600  0.79620000  0.32508600  1
  O  O2  1  0.26762900  0.52991500  0.02313400  1
  O  O3  1  0.72463100  0.42425900  0.31454800  1
  O  O4  1  0.27277700  0.02763100  0.18857100  1
  O  O5  1  0.43338000  0.69918700  0.40654500  1
  O  O6  1  0.00267900  0.30352600  0.23775000  1
  O  O7  1  0.99732100  0.69647400  0.76225000  1
  O  O8  1  0.56662000  0.30081300  0.59345500  1
  O  O9  1  0.72722300  0.97236900  0.81142900  1
  O  O10  1  0.27536900  0.57574100  0.68545200  1
  O  O11  1  0.73237100  0.47008500  0.97686600  1
  O  O12  1  0.03098400  0.20380000  0.67491400  1
  O  O13  1  0.43131300  0.11573900  0.82328000  1
loop_
_geom_bond_atom_site_label_1
_geom_bond_atom_site_label_2
_geom_bond_distance
_geom_bond_site_symmetry_2
Li0 O13 1.669485 1_554
Li0 O4 1.871388 1_555
Li0 O3 2.015987 1_555
Li1 O0 1.669485 1_556
Li1 O9 1.871388 1_555
Li1 O10 2.015987 1_555
Mn0 O9 2.015071 1_444
Mn0 O4 2.015071 1_555
Mn0 O12 2.510456 1_554
Mn0 O1 2.510456 1_445
Mn0 O6 2.712321 1_555
Mn0 O7 2.712321 1_444
Mn1 O12 1.868811 1_655
Mn1 O0 1.987231 1_545
Mn1 O6 2.071562 1_655
Mn2 O7 2.057730 1_555
Mn2 O3 2.246724 1_555
Mn2 O5 2.359491 1_555
Mn2 O1 2.712606 1_555
Mn3 O6 2.057730 1_555
Mn3 O10 2.246724 1_555
Mn3 O8 2.359491 1_555
Mn3 O12 2.712606 1_555
Mn4 O1 1.868811 1_455
Mn4 O13 1.987231 1_565
Mn4 O7 2.071562 1_455
O0 Si1 1.331573 1_555
O1 Si0 2.144662 1_555
O2 Si3 1.385910 1_554
O3 Si0 1.251228 1_555
O5 Si1 1.425589 1_555
O6 Si0 2.304862 1_455
O7 Si3 2.304862 1_655
O8 Si2 1.425589 1_555
O10 Si3 1.251228 1_555
O11 Si0 1.385910 1_556
O12 Si3 2.144662 1_555
O13 Si2 1.331573 1_555
