# generated using pymatgen
data_Na3Mn2P2(CO7)2
_symmetry_space_group_name_H-M   'P 1'
_cell_length_a   8.37384600
_cell_length_b   8.42750189
_cell_length_c   9.01112854
_cell_angle_alpha   91.05309945
_cell_angle_beta   91.06590292
_cell_angle_gamma   103.28920265
_symmetry_Int_Tables_number   1
_chemical_formula_structural   Na3Mn2P2(CO7)2
_chemical_formula_sum   'Na6 Mn4 P4 C4 O28'
_cell_volume   618.61739139
_cell_formula_units_Z   2
loop_
 _symmetry_equiv_pos_site_id
 _symmetry_equiv_pos_as_xyz
  1  'x, y, z'
loop_
 _atom_site_type_symbol
 _atom_site_label
 _atom_site_symmetry_multiplicity
 _atom_site_fract_x
 _atom_site_fract_y
 _atom_site_fract_z
 _atom_site_occupancy
  Na  Na0  1  0.61909000  0.62910400  0.75785400  1
  Na  Na1  1  0.88672400  0.34917200  0.75534900  1
  Na  Na2  1  0.37371200  0.87459400  0.76571600  1
  Na  Na3  1  0.89426500  0.85721200  0.24476900  1
  Na  Na4  1  0.61575800  0.12475000  0.24203000  1
  Na  Na5  1  0.38319600  0.38255900  0.23460200  1
  Mn  Mn0  1  0.51131800  0.27080900  0.65562200  1
  Mn  Mn1  1  0.01711700  0.76955600  0.64905100  1
  Mn  Mn2  1  0.47155700  0.73564900  0.34237700  1
  Mn  Mn3  1  0.98321500  0.23673600  0.35346900  1
  P  P0  1  0.73242600  0.97788500  0.57409400  1
  P  P1  1  0.23234500  0.49106600  0.57115700  1
  P  P2  1  0.76976800  0.51083400  0.42770600  1
  P  P3  1  0.26332000  0.02627500  0.42596100  1
  C  C0  1  0.99147200  0.73651000  0.91825900  1
  C  C1  1  0.49124100  0.24224000  0.92328000  1
  C  C2  1  0.51244100  0.75837800  0.07572400  1
  C  C3  1  0.00782900  0.25794700  0.08360900  1
  O  O0  1  0.52776200  0.77456000  0.93922100  1
  O  O1  1  0.02205100  0.27102700  0.94871700  1
  O  O2  1  0.60155400  0.35527100  0.85619800  1
  O  O3  1  0.10183900  0.84880100  0.85379400  1
  O  O4  1  0.89723700  0.63950400  0.81562100  1
  O  O5  1  0.39445800  0.14553400  0.82712800  1
  O  O6  1  0.85671200  0.90758900  0.66727400  1
  O  O7  1  0.35891200  0.43869600  0.67174400  1
  O  O8  1  0.67695500  0.10546900  0.67066300  1
  O  O9  1  0.17182300  0.62230100  0.66560200  1
  O  O10  1  0.58141100  0.83504200  0.53191800  1
  O  O11  1  0.69708300  0.44208600  0.57735400  1
  O  O12  1  0.19398200  0.94144600  0.56986900  1
  O  O13  1  0.08216500  0.34454800  0.53452600  1
  O  O14  1  0.91531200  0.66033000  0.46666900  1
  O  O15  1  0.80808400  0.05192100  0.42638300  1
  O  O16  1  0.30526300  0.55697500  0.42264900  1
  O  O17  1  0.40528200  0.17808100  0.46849700  1
  O  O18  1  0.82874100  0.37379200  0.33946000  1
  O  O19  1  0.64583000  0.56450200  0.32621100  1
  O  O20  1  0.33238600  0.91765500  0.32067200  1
  O  O21  1  0.12713800  0.08711200  0.33745300  1
  O  O22  1  0.60841900  0.85377600  0.17630200  1
  O  O23  1  0.10373400  0.35310800  0.18391700  1
  O  O24  1  0.89517500  0.14741900  0.15043400  1
  O  O25  1  0.39956400  0.64747400  0.13789600  1
  O  O26  1  0.97363000  0.72127900  0.05274900  1
  O  O27  1  0.48280400  0.23132600  0.06045000  1
loop_
_geom_bond_atom_site_label_1
_geom_bond_atom_site_label_2
_geom_bond_distance
_geom_bond_site_symmetry_2
Na0 O0 2.272088 1_555
Na0 O4 2.358601 1_555
Na0 O11 2.444312 1_555
Na0 O2 2.461042 1_555
Na0 O7 2.491548 1_555
Na0 O10 2.759427 1_555
Na0 O6 2.849136 1_555
Na1 O1 2.250747 1_655
Na1 O8 2.473859 1_555
Na1 O4 2.477857 1_555
Na1 O11 2.496125 1_555
Na1 O2 2.581926 1_555
Na1 O13 2.605215 1_655
Na2 O0 2.300570 1_555
Na2 O5 2.306016 1_565
Na2 O3 2.388776 1_555
Na2 O12 2.454508 1_555
Na2 O9 2.532370 1_555
Na2 O10 2.819864 1_555
Na2 O8 2.972921 1_565
Na3 O26 2.251212 1_555
Na3 O22 2.454279 1_555
Na3 O15 2.526127 1_565
Na3 O21 2.529233 1_665
Na3 O24 2.602366 1_565
Na3 O14 2.650593 1_555
Na3 O19 2.952238 1_555
Na4 O27 2.273647 1_555
Na4 O22 2.335373 1_545
Na4 O24 2.462629 1_555
Na4 O15 2.474369 1_555
Na4 O18 2.551420 1_555
Na4 O20 2.717173 1_545
Na4 O17 2.817307 1_555
Na5 O27 2.290579 1_555
Na5 O23 2.331448 1_555
Na5 O25 2.387013 1_555
Na5 O16 2.418354 1_555
Na5 O19 2.490963 1_555
Na5 O17 2.776959 1_555
Mn0 O17 1.954292 1_555
Mn0 O2 1.999753 1_555
Mn0 O11 2.011640 1_555
Mn0 O5 2.025327 1_555
Mn0 O7 2.116880 1_555
Mn0 O8 2.184542 1_555
Mn1 O14 1.951042 1_455
Mn1 O12 1.972821 1_555
Mn1 O6 1.975829 1_455
Mn1 O9 1.994819 1_555
Mn1 O3 2.010327 1_555
Mn1 O4 2.018078 1_455
Mn2 O16 1.960416 1_555
Mn2 O10 1.999938 1_555
Mn2 O25 2.003300 1_555
Mn2 O22 2.034243 1_555
Mn2 O20 2.138565 1_555
Mn2 O19 2.280151 1_555
Mn3 O18 1.925998 1_555
Mn3 O13 1.929529 1_655
Mn3 O21 1.939524 1_655
Mn3 O23 1.993009 1_655
Mn3 O15 2.007895 1_555
Mn3 O24 2.025221 1_555
C0 O26 1.229290 1_556
C0 O3 1.313481 1_655
C0 O4 1.339744 1_555
C1 O27 1.243273 1_556
C1 O5 1.309965 1_555
C1 O2 1.327968 1_555
C2 O0 1.245819 1_554
C2 O25 1.309069 1_555
C2 O22 1.327698 1_555
C3 O1 1.228056 1_554
C3 O23 1.324908 1_555
C3 O24 1.325873 1_455
O6 P0 1.551894 1_555
O7 P1 1.527629 1_555
O8 P0 1.529493 1_545
O9 P1 1.563163 1_555
O10 P0 1.567864 1_555
O11 P2 1.556186 1_555
O12 P3 1.549544 1_565
O13 P1 1.571891 1_555
O14 P2 1.567754 1_555
O15 P0 1.562859 1_545
O16 P1 1.540781 1_555
O17 P3 1.569284 1_555
O18 P2 1.566239 1_555
O19 P2 1.521126 1_555
O20 P3 1.518053 1_565
O21 P3 1.565051 1_555
