# generated using pymatgen
data_LiCuBO3
_symmetry_space_group_name_H-M   'P 1'
_cell_length_a   16.81835200
_cell_length_b   5.16818700
_cell_length_c   5.24498900
_cell_angle_alpha   90.00067123
_cell_angle_beta   89.99955738
_cell_angle_gamma   89.99891002
_symmetry_Int_Tables_number   1
_chemical_formula_structural   LiCuBO3
_chemical_formula_sum   'Li8 Cu8 B8 O24'
_cell_volume   455.89647975
_cell_formula_units_Z   8
loop_
 _symmetry_equiv_pos_site_id
 _symmetry_equiv_pos_as_xyz
  1  'x, y, z'
loop_
 _atom_site_type_symbol
 _atom_site_label
 _atom_site_symmetry_multiplicity
 _atom_site_fract_x
 _atom_site_fract_y
 _atom_site_fract_z
 _atom_site_occupancy
  Li  Li0  1  0.26420400  0.25104400  0.50626800  1
  Li  Li1  1  0.26421300  0.24893200  0.00622200  1
  Li  Li2  1  0.23576000  0.75102800  0.50625600  1
  Li  Li3  1  0.23576200  0.74895200  0.00624500  1
  Li  Li4  1  0.76417700  0.25106700  0.99372700  1
  Li  Li5  1  0.76417400  0.24896700  0.49373700  1
  Li  Li6  1  0.73577000  0.75102300  0.99373900  1
  Li  Li7  1  0.73577000  0.74895800  0.49373700  1
  Cu  Cu0  1  0.06859500  0.99527200  0.31101400  1
  Cu  Cu1  1  0.06854300  0.50476600  0.81099800  1
  Cu  Cu2  1  0.43167200  0.00480200  0.81071600  1
  Cu  Cu3  1  0.43129000  0.49538400  0.31090600  1
  Cu  Cu4  1  0.56858900  0.99523600  0.18912000  1
  Cu  Cu5  1  0.56874200  0.50468300  0.68896400  1
  Cu  Cu6  1  0.93148700  0.49528500  0.18924400  1
  Cu  Cu7  1  0.93133500  0.00461800  0.68918800  1
  B  B0  1  0.12544600  0.48716600  0.29644800  1
  B  B1  1  0.12543500  0.01285000  0.79646100  1
  B  B2  1  0.37455000  0.98720700  0.29645800  1
  B  B3  1  0.37453900  0.51285500  0.79650100  1
  B  B4  1  0.62547600  0.48715900  0.20351800  1
  B  B5  1  0.62546200  0.01282100  0.70357300  1
  B  B6  1  0.87456200  0.98712200  0.20352300  1
  B  B7  1  0.87455300  0.51285100  0.70354000  1
  O  O0  1  0.10202600  0.66571300  0.48604600  1
  O  O1  1  0.10202700  0.83458400  0.98633800  1
  O  O2  1  0.06499300  0.14758600  0.66285200  1
  O  O3  1  0.06499300  0.35210300  0.16312100  1
  O  O4  1  0.29544300  0.95423200  0.25179100  1
  O  O5  1  0.29543400  0.54568000  0.75179400  1
  O  O6  1  0.20452100  0.45426000  0.25181600  1
  O  O7  1  0.20452100  0.04571100  0.75180900  1
  O  O8  1  0.43498100  0.64724200  0.66266100  1
  O  O9  1  0.43501000  0.85194700  0.16349100  1
  O  O10  1  0.39788400  0.16598300  0.48575100  1
  O  O11  1  0.39788300  0.33481900  0.98658600  1
  O  O12  1  0.60203600  0.66551400  0.01380000  1
  O  O13  1  0.60204100  0.83441500  0.51387500  1
  O  O14  1  0.56503900  0.14779600  0.83704400  1
  O  O15  1  0.56505500  0.35224800  0.33709400  1
  O  O16  1  0.79546800  0.95432100  0.24815100  1
  O  O17  1  0.79547000  0.54567800  0.74814500  1
  O  O18  1  0.70455600  0.45432200  0.24813500  1
  O  O19  1  0.70455000  0.04571100  0.74814600  1
  O  O20  1  0.93502100  0.64805100  0.83682700  1
  O  O21  1  0.93503900  0.85245300  0.33722900  1
  O  O22  1  0.89795500  0.16549400  0.01346800  1
  O  O23  1  0.89795100  0.33408800  0.51393100  1
loop_
_geom_bond_atom_site_label_1
_geom_bond_atom_site_label_2
_geom_bond_distance
_geom_bond_site_symmetry_2
Li0 O7 1.947391 1_555
Li0 O6 1.972755 1_555
Li0 O5 2.062273 1_555
Li0 O4 2.100128 1_545
Li0 O10 2.293370 1_555
Li1 O6 1.947602 1_555
Li1 O7 1.972711 1_554
Li1 O4 2.062665 1_545
Li1 O5 2.099685 1_554
Li1 O11 2.293832 1_554
Li2 O5 1.947335 1_555
Li2 O4 1.972778 1_555
Li2 O7 2.062559 1_565
Li2 O6 2.099859 1_555
Li2 O0 2.294455 1_555
Li3 O4 1.947236 1_555
Li3 O5 1.972784 1_554
Li3 O6 2.062698 1_555
Li3 O7 2.099828 1_564
Li3 O1 2.294698 1_554
Li4 O19 1.947103 1_555
Li4 O18 1.972148 1_556
Li4 O17 2.062648 1_555
Li4 O16 2.099950 1_546
Li4 O22 2.295309 1_556
Li5 O18 1.947091 1_555
Li5 O19 1.972217 1_555
Li5 O16 2.062762 1_545
Li5 O17 2.099777 1_555
Li5 O23 2.294968 1_555
Li6 O17 1.947719 1_555
Li6 O16 1.972971 1_556
Li6 O19 2.062655 1_565
Li6 O18 2.099372 1_556
Li6 O12 2.294611 1_556
Li7 O16 1.947762 1_555
Li7 O17 1.972920 1_555
Li7 O18 2.062453 1_555
Li7 O19 2.099599 1_565
Li7 O13 2.294479 1_555
Cu0 O1 1.976284 1_554
Cu0 O3 2.001591 1_565
Cu0 O2 2.007174 1_565
Cu0 O0 2.014920 1_555
Cu0 O21 2.368366 1_455
Cu1 O0 1.978364 1_555
Cu1 O2 2.003726 1_555
Cu1 O3 2.009248 1_556
Cu1 O1 2.017037 1_555
Cu1 O20 2.368431 1_455
Cu2 O10 1.980396 1_555
Cu2 O8 2.005232 1_545
Cu2 O9 2.012678 1_546
Cu2 O11 2.020589 1_555
Cu2 O14 2.365670 1_555
Cu3 O11 1.974305 1_554
Cu3 O9 1.999407 1_555
Cu3 O8 2.005898 1_555
Cu3 O10 2.013680 1_555
Cu3 O15 2.372178 1_555
Cu4 O13 1.977050 1_555
Cu4 O15 2.002566 1_565
Cu4 O14 2.008812 1_564
Cu4 O12 2.016374 1_555
Cu4 O9 2.369316 1_555
Cu5 O12 1.976676 1_556
Cu5 O14 2.002292 1_555
Cu5 O15 2.007619 1_555
Cu5 O13 2.015208 1_555
Cu5 O8 2.371221 1_555
Cu6 O23 1.977965 1_555
Cu6 O21 2.003343 1_555
Cu6 O20 2.010866 1_554
Cu6 O22 2.018188 1_555
Cu6 O3 2.368099 1_655
Cu7 O22 1.974655 1_556
Cu7 O20 1.999861 1_545
Cu7 O21 2.007508 1_545
Cu7 O23 2.014849 1_555
Cu7 O2 2.370270 1_655
B0 O6 1.361019 1_555
B0 O0 1.412625 1_555
B0 O3 1.417749 1_555
B1 O7 1.361195 1_555
B1 O1 1.412676 1_545
B1 O2 1.417504 1_555
B2 O4 1.361630 1_555
B2 O10 1.411884 1_565
B2 O9 1.417378 1_555
B3 O5 1.361531 1_555
B3 O11 1.412366 1_555
B3 O8 1.417230 1_555
B4 O18 1.361047 1_555
B4 O12 1.412533 1_555
B4 O15 1.417621 1_555
B5 O19 1.361179 1_555
B5 O13 1.412537 1_545
B5 O14 1.417509 1_555
B6 O16 1.361266 1_555
B6 O22 1.413622 1_565
B6 O21 1.418008 1_555
B7 O17 1.361075 1_555
B7 O23 1.413292 1_555
B7 O20 1.418175 1_555
