# generated using pymatgen
data_VPH5NO6
_symmetry_space_group_name_H-M   'P 1'
_cell_length_a   6.87949700
_cell_length_b   9.16343300
_cell_length_c   9.66373400
_cell_angle_alpha   90.00000000
_cell_angle_beta   90.00000000
_cell_angle_gamma   90.00000000
_symmetry_Int_Tables_number   1
_chemical_formula_structural   VPH5NO6
_chemical_formula_sum   'V4 P4 H20 N4 O24'
_cell_volume   609.19995364
_cell_formula_units_Z   4
loop_
 _symmetry_equiv_pos_site_id
 _symmetry_equiv_pos_as_xyz
  1  'x, y, z'
loop_
 _atom_site_type_symbol
 _atom_site_label
 _atom_site_symmetry_multiplicity
 _atom_site_fract_x
 _atom_site_fract_y
 _atom_site_fract_z
 _atom_site_occupancy
  V  V0  1  0.47249200  0.50977500  0.02061800  1
  V  V1  1  0.52750800  0.49022500  0.52061800  1
  V  V2  1  0.02750800  0.50977500  0.52061800  1
  V  V3  1  0.97249200  0.49022500  0.02061800  1
  P  P0  1  0.20585500  0.79618100  0.95334900  1
  P  P1  1  0.79414500  0.20381900  0.45334900  1
  P  P2  1  0.29414500  0.79618100  0.45334900  1
  P  P3  1  0.70585500  0.20381900  0.95334900  1
  H  H0  1  0.85135200  0.83674200  0.73751100  1
  H  H1  1  0.14864800  0.16325800  0.23751100  1
  H  H2  1  0.64864800  0.83674200  0.23751100  1
  H  H3  1  0.35135200  0.16325800  0.73751100  1
  H  H4  1  0.66703200  0.89092500  0.83748600  1
  H  H5  1  0.33296800  0.10907500  0.33748600  1
  H  H6  1  0.83296800  0.89092500  0.33748600  1
  H  H7  1  0.16703200  0.10907500  0.83748600  1
  H  H8  1  0.67532500  0.75879100  0.39134300  1
  H  H9  1  0.32467500  0.24120900  0.89134300  1
  H  H10  1  0.82467500  0.75879100  0.89134300  1
  H  H11  1  0.17532500  0.24120900  0.39134300  1
  H  H12  1  0.66248800  0.72087600  0.76725600  1
  H  H13  1  0.33751200  0.27912400  0.26725600  1
  H  H14  1  0.83751200  0.72087600  0.26725600  1
  H  H15  1  0.16248800  0.27912400  0.76725600  1
  H  H16  1  0.25829800  0.88721200  0.16360900  1
  H  H17  1  0.74170200  0.11278800  0.66360900  1
  H  H18  1  0.24170200  0.88721200  0.66360900  1
  H  H19  1  0.75829800  0.11278800  0.16360900  1
  N  N0  1  0.74834400  0.80229700  0.80725900  1
  N  N1  1  0.25165600  0.19770300  0.30725900  1
  N  N2  1  0.75165600  0.80229700  0.30725900  1
  N  N3  1  0.24834400  0.19770300  0.80725900  1
  O  O0  1  0.21903600  0.45416700  0.96791300  1
  O  O1  1  0.78096400  0.54583300  0.46791300  1
  O  O2  1  0.28096400  0.45416700  0.46791300  1
  O  O3  1  0.71903600  0.54583300  0.96791300  1
  O  O4  1  0.02613000  0.70030200  0.99431900  1
  O  O5  1  0.97387000  0.29969800  0.49431900  1
  O  O6  1  0.47387000  0.70030200  0.49431900  1
  O  O7  1  0.52613000  0.29969800  0.99431900  1
  O  O8  1  0.39620600  0.70440500  0.95861200  1
  O  O9  1  0.60379400  0.29559500  0.45861200  1
  O  O10  1  0.10379400  0.70440500  0.45861200  1
  O  O11  1  0.89620600  0.29559500  0.95861200  1
  O  O12  1  0.22218300  0.92057800  0.06617300  1
  O  O13  1  0.77781700  0.07942200  0.56617300  1
  O  O14  1  0.27781700  0.92057800  0.56617300  1
  O  O15  1  0.72218300  0.07942200  0.06617300  1
  O  O16  1  0.47057000  0.51959600  0.18888600  1
  O  O17  1  0.52943000  0.48040400  0.68888600  1
  O  O18  1  0.02943000  0.51959600  0.68888600  1
  O  O19  1  0.97057000  0.48040400  0.18888600  1
  O  O20  1  0.17217300  0.87144600  0.81610700  1
  O  O21  1  0.82782700  0.12855400  0.31610700  1
  O  O22  1  0.32782700  0.87144600  0.31610700  1
  O  O23  1  0.67217300  0.12855400  0.81610700  1
loop_
_geom_bond_atom_site_label_1
_geom_bond_atom_site_label_2
_geom_bond_distance
_geom_bond_site_symmetry_2
H0 N0 1.027673 1_555
H1 N1 1.027673 1_555
H2 N2 1.027673 1_555
H3 N3 1.027673 1_555
H4 N0 1.028496 1_555
H5 N1 1.028496 1_555
H6 N2 1.028496 1_555
H7 N3 1.028496 1_555
H8 N2 1.046396 1_555
H9 N3 1.046396 1_555
H10 N0 1.046396 1_555
H11 N1 1.046396 1_555
H12 N0 1.027115 1_555
H13 N1 1.027115 1_555
H14 N2 1.027115 1_555
H15 N3 1.027115 1_555
H16 O12 1.020692 1_555
H16 O22 1.556104 1_555
H17 O13 1.020692 1_555
H17 O23 1.556104 1_555
H18 O14 1.020692 1_555
H18 O20 1.556104 1_555
H19 O15 1.020692 1_555
H19 O21 1.556104 1_555
O0 V3 1.801482 1_456
O0 V0 1.886632 1_556
O1 V2 1.801482 1_655
O1 V1 1.886632 1_555
O2 V1 1.801482 1_555
O2 V2 1.886632 1_555
O3 V0 1.801482 1_556
O3 V3 1.886632 1_556
O4 P0 1.567606 1_555
O4 V3 1.976482 1_456
O5 P1 1.567606 1_555
O5 V2 1.976482 1_655
O6 P2 1.567606 1_555
O6 V1 1.976482 1_555
O7 P3 1.567606 1_555
O7 V0 1.976482 1_556
O8 P0 1.557138 1_555
O8 V0 1.953273 1_556
O9 P1 1.557138 1_555
O9 V1 1.953273 1_555
O10 P2 1.557138 1_555
O10 V2 1.953273 1_555
O11 P3 1.557138 1_555
O11 V3 1.953273 1_556
O12 P0 1.581377 1_554
O13 P1 1.581377 1_555
O14 P2 1.581377 1_555
O15 P3 1.581377 1_554
O16 V0 1.628639 1_555
O17 V1 1.628639 1_555
O18 V2 1.628639 1_555
O19 V3 1.628639 1_555
O20 P0 1.512730 1_555
O21 P1 1.512730 1_555
O22 P2 1.512730 1_555
O23 P3 1.512730 1_555
