# generated using pymatgen
data_LiMnF4
_symmetry_space_group_name_H-M   'P 1'
_cell_length_a   4.74999600
_cell_length_b   5.74591300
_cell_length_c   10.09515900
_cell_angle_alpha   90.00000000
_cell_angle_beta   90.00000000
_cell_angle_gamma   90.00000000
_symmetry_Int_Tables_number   1
_chemical_formula_structural   LiMnF4
_chemical_formula_sum   'Li4 Mn4 F16'
_cell_volume   275.52781832
_cell_formula_units_Z   4
loop_
 _symmetry_equiv_pos_site_id
 _symmetry_equiv_pos_as_xyz
  1  'x, y, z'
loop_
 _atom_site_type_symbol
 _atom_site_label
 _atom_site_symmetry_multiplicity
 _atom_site_fract_x
 _atom_site_fract_y
 _atom_site_fract_z
 _atom_site_occupancy
  Li  Li0  1  0.00000000  0.00000000  0.50000000  1
  Li  Li1  1  0.00000000  0.00000000  0.00000000  1
  Li  Li2  1  0.50000000  0.50000000  0.50000000  1
  Li  Li3  1  0.50000000  0.50000000  0.00000000  1
  Mn  Mn0  1  0.00000000  0.31704300  0.75000000  1
  Mn  Mn1  1  0.00000000  0.68295700  0.25000000  1
  Mn  Mn2  1  0.50000000  0.81704300  0.75000000  1
  Mn  Mn3  1  0.50000000  0.18295700  0.25000000  1
  F  F0  1  0.19667800  0.69743500  0.09260800  1
  F  F1  1  0.19667800  0.30256500  0.59260800  1
  F  F2  1  0.23499600  0.05363600  0.82946600  1
  F  F3  1  0.23499600  0.94636400  0.32946600  1
  F  F4  1  0.26500400  0.55363600  0.82946600  1
  F  F5  1  0.26500400  0.44636400  0.32946600  1
  F  F6  1  0.30332200  0.80256500  0.59260800  1
  F  F7  1  0.30332200  0.19743500  0.09260800  1
  F  F8  1  0.69667800  0.80256500  0.90739200  1
  F  F9  1  0.69667800  0.19743500  0.40739200  1
  F  F10  1  0.73499600  0.55363600  0.67053400  1
  F  F11  1  0.73499600  0.44636400  0.17053400  1
  F  F12  1  0.76500400  0.94636400  0.17053400  1
  F  F13  1  0.76500400  0.05363600  0.67053400  1
  F  F14  1  0.80332200  0.30256500  0.90739200  1
  F  F15  1  0.80332200  0.69743500  0.40739200  1
loop_
_geom_bond_atom_site_label_1
_geom_bond_atom_site_label_2
_geom_bond_distance
_geom_bond_site_symmetry_2
F0 Mn1 1.845069 1_555
F0 Li3 2.058356 1_555
F0 Li1 2.183853 1_565
F1 Mn0 1.845069 1_555
F1 Li2 2.058356 1_555
F1 Li0 2.183853 1_555
F2 Mn2 2.018946 1_545
F2 Mn0 2.044567 1_555
F2 Li1 2.074788 1_556
F3 Mn3 2.018946 1_565
F3 Mn1 2.044567 1_555
F3 Li0 2.074788 1_565
F4 Mn0 2.018946 1_555
F4 Mn2 2.044567 1_555
F4 Li3 2.074788 1_556
F5 Mn1 2.018946 1_555
F5 Mn3 2.044567 1_555
F5 Li2 2.074788 1_555
F6 Mn2 1.845069 1_555
F6 Li0 2.058356 1_565
F6 Li2 2.183853 1_555
F7 Mn3 1.845069 1_555
F7 Li1 2.058356 1_555
F7 Li3 2.183853 1_555
F8 Mn2 1.845069 1_555
F8 Li1 2.058356 1_666
F8 Li3 2.183853 1_556
F9 Mn3 1.845069 1_555
F9 Li0 2.058356 1_655
F9 Li2 2.183853 1_555
F10 Mn0 2.018946 1_655
F10 Mn2 2.044567 1_555
F10 Li2 2.074788 1_555
F11 Mn1 2.018946 1_655
F11 Mn3 2.044567 1_555
F11 Li3 2.074788 1_555
F12 Mn3 2.018946 1_565
F12 Mn1 2.044567 1_655
F12 Li1 2.074788 1_665
F13 Mn2 2.018946 1_545
F13 Mn0 2.044567 1_655
F13 Li0 2.074788 1_655
F14 Mn0 1.845069 1_655
F14 Li3 2.058356 1_556
F14 Li1 2.183853 1_656
F15 Mn1 1.845069 1_655
F15 Li2 2.058356 1_555
F15 Li0 2.183853 1_665
