# generated using pymatgen
data_Mn3(O2F)2
_symmetry_space_group_name_H-M   'P 1'
_cell_length_a   5.51418896
_cell_length_b   5.51418896
_cell_length_c   7.60519720
_cell_angle_alpha   69.99804280
_cell_angle_beta   69.99804280
_cell_angle_gamma   69.46960523
_symmetry_Int_Tables_number   1
_chemical_formula_structural   Mn3(O2F)2
_chemical_formula_sum   'Mn6 O8 F4'
_cell_volume   196.90839825
_cell_formula_units_Z   2
loop_
 _symmetry_equiv_pos_site_id
 _symmetry_equiv_pos_as_xyz
  1  'x, y, z'
loop_
 _atom_site_type_symbol
 _atom_site_label
 _atom_site_symmetry_multiplicity
 _atom_site_fract_x
 _atom_site_fract_y
 _atom_site_fract_z
 _atom_site_occupancy
  Mn  Mn0  1  0.33720100  0.33720100  0.17189200  1
  Mn  Mn1  1  0.00000000  0.00000000  0.00000000  1
  Mn  Mn2  1  0.31581600  0.31581600  0.65289000  1
  Mn  Mn3  1  0.00000000  0.00000000  0.50000000  1
  Mn  Mn4  1  0.66279900  0.66279900  0.82810800  1
  Mn  Mn5  1  0.68418400  0.68418400  0.34711000  1
  O  O0  1  0.30193900  0.69806100  0.00000000  1
  O  O1  1  0.63263400  0.02058600  0.65634800  1
  O  O2  1  0.91030500  0.91030500  0.28865200  1
  O  O3  1  0.08969500  0.08969500  0.71134800  1
  O  O4  1  0.02058600  0.63263400  0.65634800  1
  O  O5  1  0.69806100  0.30193900  0.00000000  1
  O  O6  1  0.36736600  0.97941400  0.34365200  1
  O  O7  1  0.97941400  0.36736600  0.34365200  1
  F  F0  1  0.53701100  0.53701100  0.64367300  1
  F  F1  1  0.21832700  0.21832700  0.96818200  1
  F  F2  1  0.78167300  0.78167300  0.03181800  1
  F  F3  1  0.46298900  0.46298900  0.35632700  1
loop_
_geom_bond_atom_site_label_1
_geom_bond_atom_site_label_2
_geom_bond_distance
_geom_bond_site_symmetry_2
Mn0 O6 1.944682 1_545
Mn0 O7 1.944682 1_455
Mn0 O0 1.956844 1_555
Mn0 O5 1.956844 1_555
Mn1 O0 1.897305 1_545
Mn1 O5 1.897305 1_455
Mn1 O3 1.998606 1_554
Mn1 O2 1.998606 1_445
Mn2 O3 1.907634 1_555
Mn2 O1 1.926196 1_555
Mn2 O4 1.926196 1_555
Mn3 O4 1.952831 1_545
Mn3 O1 1.952831 1_455
Mn3 O7 1.952831 1_455
Mn3 O6 1.952831 1_545
Mn3 O2 2.081367 1_445
Mn3 O3 2.081367 1_555
Mn4 O1 1.944682 1_565
Mn4 O4 1.944682 1_655
Mn4 O5 1.956844 1_556
Mn4 O0 1.956844 1_556
Mn5 O2 1.907634 1_555
Mn5 O7 1.926196 1_555
Mn5 O6 1.926196 1_555
F0 Mn2 1.976564 1_555
F0 Mn5 2.088478 1_555
F0 Mn4 2.144361 1_555
F1 Mn1 1.890846 1_556
F1 Mn2 2.183285 1_555
F1 Mn0 2.224941 1_556
F2 Mn1 1.890846 1_665
F2 Mn5 2.183285 1_555
F2 Mn4 2.224941 1_554
F3 Mn5 1.976564 1_555
F3 Mn2 2.088478 1_555
F3 Mn0 2.144361 1_555
