# generated using pymatgen
data_Li2CrCo(PO4)2
_symmetry_space_group_name_H-M   'P 1'
_cell_length_a   4.77221666
_cell_length_b   10.30849506
_cell_length_c   6.14365600
_cell_angle_alpha   89.99904306
_cell_angle_beta   90.00056133
_cell_angle_gamma   88.37649458
_symmetry_Int_Tables_number   1
_chemical_formula_structural   Li2CrCo(PO4)2
_chemical_formula_sum   'Li4 Cr2 Co2 P4 O16'
_cell_volume   302.11197388
_cell_formula_units_Z   2
loop_
 _symmetry_equiv_pos_site_id
 _symmetry_equiv_pos_as_xyz
  1  'x, y, z'
loop_
 _atom_site_type_symbol
 _atom_site_label
 _atom_site_symmetry_multiplicity
 _atom_site_fract_x
 _atom_site_fract_y
 _atom_site_fract_z
 _atom_site_occupancy
  Li  Li0  1  0.00059500  0.00031300  0.99968800  1
  Li  Li1  1  0.00059500  0.00031500  0.50031100  1
  Li  Li2  1  0.50064300  0.49962800  0.99886200  1
  Li  Li3  1  0.50065100  0.49962900  0.50113900  1
  Cr  Cr0  1  0.54129400  0.78152400  0.24999800  1
  Cr  Cr1  1  0.45842500  0.21825600  0.74999900  1
  Co  Co0  1  0.98098400  0.28296500  0.24999300  1
  Co  Co1  1  0.02170200  0.71915200  0.75000100  1
  P  P0  1  0.41813300  0.09300200  0.24999800  1
  P  P1  1  0.58289900  0.90693000  0.75000200  1
  P  P2  1  0.91603000  0.40496700  0.75000300  1
  P  P3  1  0.08194200  0.59508100  0.24999900  1
  O  O0  1  0.69648800  0.04755300  0.74999600  1
  O  O1  1  0.30579600  0.95197200  0.24998700  1
  O  O2  1  0.73967700  0.09644400  0.25001100  1
  O  O3  1  0.26173600  0.90465000  0.75000000  1
  O  O4  1  0.24111100  0.39920200  0.75000000  1
  O  O5  1  0.75723500  0.60067200  0.25000100  1
  O  O6  1  0.20689800  0.45403500  0.24999000  1
  O  O7  1  0.79090900  0.54572800  0.75000800  1
  O  O8  1  0.27467200  0.16326700  0.05170900  1
  O  O9  1  0.27461300  0.16324500  0.44828300  1
  O  O10  1  0.72593300  0.83552600  0.55208800  1
  O  O11  1  0.72594300  0.83552800  0.94791600  1
  O  O12  1  0.79026700  0.33619700  0.54516300  1
  O  O13  1  0.79027200  0.33619400  0.95485300  1
  O  O14  1  0.20727800  0.66401600  0.04506300  1
  O  O15  1  0.20728100  0.66401200  0.45493800  1
loop_
_geom_bond_atom_site_label_1
_geom_bond_atom_site_label_2
_geom_bond_distance
_geom_bond_site_symmetry_2
Li0 O0 2.157874 1_455
Li0 O1 2.166370 1_546
Li0 O8 2.181550 1_556
Li0 O3 2.192976 1_545
Li0 O2 2.197210 1_456
Li0 O11 2.197908 1_445
Li1 O0 2.157871 1_455
Li1 O1 2.166515 1_545
Li1 O9 2.181182 1_555
Li1 O3 2.192949 1_545
Li1 O2 2.197062 1_455
Li1 O10 2.197970 1_445
Li2 O7 2.125893 1_555
Li2 O6 2.145623 1_556
Li2 O13 2.165638 1_555
Li2 O14 2.185820 1_556
Li2 O4 2.239640 1_555
Li2 O5 2.244382 1_556
Li3 O7 2.125923 1_555
Li3 O6 2.145735 1_555
Li3 O12 2.165586 1_555
Li3 O15 2.185785 1_555
Li3 O4 2.239655 1_555
Li3 O5 2.244344 1_555
Cr0 O1 2.058740 1_555
Cr0 O5 2.104463 1_555
Cr0 O11 2.135068 1_554
Cr0 O10 2.135086 1_555
Cr0 O14 2.388048 1_555
Cr0 O15 2.388072 1_555
Cr1 O0 2.067348 1_555
Cr1 O4 2.108358 1_555
Cr1 O8 2.134080 1_556
Cr1 O9 2.134294 1_555
Cr1 O12 2.383018 1_555
Cr1 O13 2.383081 1_555
Co0 O6 2.092820 1_655
Co0 O13 2.094963 1_554
Co0 O12 2.095172 1_555
Co0 O9 2.207400 1_655
Co0 O8 2.207470 1_655
Co0 O2 2.269041 1_555
Co1 O14 2.089224 1_556
Co1 O15 2.089277 1_555
Co1 O7 2.126183 1_455
Co1 O10 2.194038 1_455
Co1 O11 2.194063 1_455
Co1 O3 2.256724 1_555
O0 P1 1.561967 1_545
O1 P0 1.563687 1_565
O2 P0 1.535892 1_555
O3 P1 1.533505 1_555
O4 P2 1.550811 1_455
O5 P3 1.549011 1_655
O6 P3 1.555796 1_555
O7 P2 1.553364 1_555
O8 P0 1.565016 1_555
O9 P0 1.565044 1_555
O10 P1 1.567722 1_555
O11 P1 1.567703 1_555
O12 P2 1.571822 1_555
O13 P2 1.571866 1_555
O14 P3 1.572268 1_555
O15 P3 1.572279 1_555
