# generated using pymatgen
data_Li4Ti3V3(WO8)2
_symmetry_space_group_name_H-M   'P 1'
_cell_length_a   6.01259562
_cell_length_b   6.01259562
_cell_length_c   9.87631019
_cell_angle_alpha   88.66454073
_cell_angle_beta   88.66454073
_cell_angle_gamma   59.81030671
_symmetry_Int_Tables_number   1
_chemical_formula_structural   Li4Ti3V3(WO8)2
_chemical_formula_sum   'Li4 Ti3 V3 W2 O16'
_cell_volume   308.50272433
_cell_formula_units_Z   1
loop_
 _symmetry_equiv_pos_site_id
 _symmetry_equiv_pos_as_xyz
  1  'x, y, z'
loop_
 _atom_site_type_symbol
 _atom_site_label
 _atom_site_symmetry_multiplicity
 _atom_site_fract_x
 _atom_site_fract_y
 _atom_site_fract_z
 _atom_site_occupancy
  Li  Li0  1  0.66520600  0.66520600  0.10107900  1
  Li  Li1  1  0.99616300  0.99616300  0.01154300  1
  Li  Li2  1  0.00269300  0.00269300  0.50574800  1
  Li  Li3  1  0.33245100  0.33245100  0.59874000  1
  Ti  Ti0  1  0.33644600  0.83890700  0.78566800  1
  Ti  Ti1  1  0.83890700  0.33644600  0.78566800  1
  Ti  Ti2  1  0.17358400  0.17358400  0.27988200  1
  V  V0  1  0.82607200  0.82607200  0.78794500  1
  V  V1  1  0.18542300  0.65176600  0.28880600  1
  V  V2  1  0.65176600  0.18542300  0.28880600  1
  W  W0  1  0.66979200  0.66979200  0.51080000  1
  W  W1  1  0.33933300  0.33933300  0.01247200  1
  O  O0  1  0.33677100  0.83611400  0.40496800  1
  O  O1  1  0.52239900  0.52239900  0.65728800  1
  O  O2  1  0.65062300  0.65062300  0.89421000  1
  O  O3  1  0.00528800  0.00528800  0.69166200  1
  O  O4  1  0.00715300  0.00715300  0.19771100  1
  O  O5  1  0.83611400  0.33677100  0.40496800  1
  O  O6  1  0.50731800  0.96119200  0.65554900  1
  O  O7  1  0.96119200  0.50731800  0.65554900  1
  O  O8  1  0.16299400  0.16299400  0.89152400  1
  O  O9  1  0.82996000  0.82996000  0.41095200  1
  O  O10  1  0.03809800  0.47427300  0.15752400  1
  O  O11  1  0.47427300  0.03809800  0.15752400  1
  O  O12  1  0.31935600  0.31935600  0.39900100  1
  O  O13  1  0.16986200  0.67457800  0.90054900  1
  O  O14  1  0.48573000  0.48573000  0.15549600  1
  O  O15  1  0.67457800  0.16986200  0.90054900  1
loop_
_geom_bond_atom_site_label_1
_geom_bond_atom_site_label_2
_geom_bond_distance
_geom_bond_site_symmetry_2
Li0 O14 1.932595 1_555
Li0 O11 2.023677 1_565
Li0 O10 2.023677 1_655
Li0 O2 2.052822 1_554
Li1 O4 1.845290 1_665
Li1 O15 2.011357 1_564
Li1 O13 2.011357 1_654
Li1 O8 2.078104 1_664
Li2 O3 1.837071 1_555
Li2 O0 1.989606 1_545
Li2 O5 1.989606 1_455
Li2 O9 2.051650 1_445
Li3 O12 1.981059 1_555
Li3 O7 2.002946 1_455
Li3 O6 2.002946 1_545
Li3 O1 2.077604 1_555
O0 W0 2.033921 1_555
O0 V1 2.120191 1_555
O0 Ti2 2.131524 1_565
O1 W0 2.081879 1_555
O1 Ti0 2.094211 1_555
O1 Ti1 2.094211 1_555
O2 Ti1 1.971350 1_555
O2 Ti0 1.971350 1_555
O2 V0 2.084009 1_555
O3 Ti1 1.966441 1_455
O3 Ti0 1.966441 1_545
O3 V0 2.073341 1_445
O4 Ti2 1.934980 1_555
O4 V1 2.043548 1_545
O4 V2 2.043548 1_455
O5 W0 2.033921 1_555
O5 V2 2.120191 1_555
O5 Ti2 2.131524 1_655
O6 Ti0 1.975275 1_555
O6 W0 2.097153 1_555
O6 V0 2.131728 1_555
O7 Ti1 1.975275 1_555
O7 W0 2.097153 1_555
O7 V0 2.131728 1_555
O8 Ti1 1.994491 1_455
O8 Ti0 1.994491 1_545
O8 W1 2.218966 1_556
O9 W0 1.916112 1_555
O9 V1 2.192746 1_655
O9 V2 2.192746 1_565
O10 Ti2 1.963509 1_555
O10 W1 2.108632 1_555
O10 V1 2.161817 1_555
O11 Ti2 1.963509 1_555
O11 W1 2.108632 1_555
O11 V2 2.161817 1_555
O12 Ti2 1.946578 1_555
O12 V1 2.036731 1_555
O12 V2 2.036731 1_555
O13 Ti0 2.038830 1_555
O13 W1 2.050888 1_556
O13 V0 2.122633 1_455
O14 V2 2.031729 1_555
O14 V1 2.031729 1_555
O14 W1 2.107140 1_555
O15 Ti1 2.038830 1_555
O15 W1 2.050888 1_556
O15 V0 2.122633 1_545
