# generated using pymatgen
data_Li5Fe7O3F13
_symmetry_space_group_name_H-M   'P 1'
_cell_length_a   6.20394600
_cell_length_b   6.21579028
_cell_length_c   10.70332799
_cell_angle_alpha   90.08282925
_cell_angle_beta   106.53988683
_cell_angle_gamma   119.92956172
_symmetry_Int_Tables_number   1
_chemical_formula_structural   Li5Fe7O3F13
_chemical_formula_sum   'Li5 Fe7 O3 F13'
_cell_volume   337.74828228
_cell_formula_units_Z   1
loop_
 _symmetry_equiv_pos_site_id
 _symmetry_equiv_pos_as_xyz
  1  'x, y, z'
loop_
 _atom_site_type_symbol
 _atom_site_label
 _atom_site_symmetry_multiplicity
 _atom_site_fract_x
 _atom_site_fract_y
 _atom_site_fract_z
 _atom_site_occupancy
  Li  Li0  1  0.48133200  0.75097400  0.24966300  1
  Li  Li1  1  0.89349800  0.19195100  0.56717200  1
  Li  Li2  1  0.11039900  0.80728700  0.43742000  1
  Li  Li3  1  0.00530800  0.75686800  0.74598400  1
  Li  Li4  1  0.13096900  0.32024600  0.93611100  1
  Fe  Fe0  1  0.91996000  0.68146200  0.07763900  1
  Fe  Fe1  1  0.49528500  0.00161900  0.00620400  1
  Fe  Fe2  1  0.98500700  0.25242100  0.24733200  1
  Fe  Fe3  1  0.49729400  0.24127200  0.24330200  1
  Fe  Fe4  1  0.48539800  0.49960800  0.50374200  1
  Fe  Fe5  1  0.49208600  0.25762900  0.74308900  1
  Fe  Fe6  1  0.48247500  0.73258800  0.74045100  1
  O  O0  1  0.75092600  0.35467500  0.13019800  1
  O  O1  1  0.29663400  0.90029000  0.13260500  1
  O  O2  1  0.28232400  0.39850300  0.62751200  1
  F  F0  1  0.74557200  0.10990200  0.37279800  1
  F  F1  1  0.75152300  0.87697400  0.12936900  1
  F  F2  1  0.24892000  0.62049300  0.37176800  1
  F  F3  1  0.25261100  0.38058900  0.13297100  1
  F  F4  1  0.23322600  0.13406600  0.36566700  1
  F  F5  1  0.70328100  0.59122200  0.37496300  1
  F  F6  1  0.76000200  0.86568800  0.63101100  1
  F  F7  1  0.76198200  0.63541500  0.86536100  1
  F  F8  1  0.75435200  0.38927400  0.63538300  1
  F  F9  1  0.25762800  0.12013100  0.86381700  1
  F  F10  1  0.25396000  0.88441100  0.63211500  1
  F  F11  1  0.71392400  0.09777700  0.86590300  1
  F  F12  1  0.25412200  0.64666500  0.87044800  1
loop_
_geom_bond_atom_site_label_1
_geom_bond_atom_site_label_2
_geom_bond_distance
_geom_bond_site_symmetry_2
Li0 O1 1.997835 1_555
Li1 O2 1.975995 1_655
Fe0 O1 1.923610 1_655
Fe0 O0 1.937975 1_555
Fe1 O1 1.980695 1_545
Fe1 O0 2.100640 1_555
Fe2 O0 1.992856 1_555
Fe3 O1 1.991426 1_545
Fe3 O0 2.102048 1_555
Fe4 O2 1.974783 1_555
Fe5 O2 2.052855 1_555
Fe6 O2 1.969884 1_555
F0 Li1 1.968095 1_555
F0 Li0 2.124529 1_545
F0 Fe2 2.149605 1_555
F0 Fe3 2.236789 1_555
F1 Fe0 2.114258 1_555
F1 Fe2 2.171514 1_565
F1 Fe1 2.214497 1_565
F1 Li0 2.236672 1_555
F2 Li2 1.979278 1_555
F2 Li0 2.086603 1_555
F2 Fe4 2.153011 1_555
F2 Fe2 2.168087 1_455
F3 Li4 1.989923 1_554
F3 Li0 2.143948 1_555
F3 Fe2 2.174690 1_455
F3 Fe3 2.177798 1_555
F4 Li2 2.022235 1_545
F4 Fe2 2.130607 1_455
F4 Fe4 2.218332 1_555
F4 Fe3 2.231171 1_555
F5 Li2 2.069085 1_655
F5 Fe4 2.084788 1_555
F5 Fe3 2.131308 1_555
F5 Li0 2.235500 1_555
F6 Li1 1.978819 1_565
F6 Li3 2.061857 1_655
F6 Fe4 2.176499 1_555
F6 Fe6 2.179618 1_555
F7 Li3 2.108354 1_655
F7 Fe0 2.157581 1_556
F7 Fe5 2.202391 1_555
F7 Fe6 2.210584 1_555
F8 Li1 2.048261 1_555
F8 Fe5 2.094776 1_555
F8 Li3 2.106911 1_655
F8 Fe4 2.246298 1_555
F9 Li4 2.020438 1_555
F9 Fe5 2.085380 1_555
F9 Li3 2.116626 1_545
F9 Fe1 2.201552 1_556
F10 Li2 1.969759 1_555
F10 Li3 2.084830 1_555
F10 Fe5 2.132625 1_565
F10 Fe6 2.155739 1_555
F11 Li4 2.119185 1_655
F11 Fe6 2.158326 1_545
F11 Fe1 2.192155 1_556
F11 Fe5 2.224323 1_555
F12 Li4 1.989299 1_555
F12 Li3 2.124534 1_555
F12 Fe6 2.144226 1_555
F12 Fe1 2.162553 1_566
