# generated using pymatgen
data_Li9V3(WO4)7
_symmetry_space_group_name_H-M   'P 1'
_cell_length_a   8.55141267
_cell_length_b   8.55141267
_cell_length_c   8.55141226
_cell_angle_alpha   89.87868543
_cell_angle_beta   89.87868543
_cell_angle_gamma   89.87868581
_symmetry_Int_Tables_number   1
_chemical_formula_structural   Li9V3(WO4)7
_chemical_formula_sum   'Li9 V3 W7 O28'
_cell_volume   625.33200597
_cell_formula_units_Z   1
loop_
 _symmetry_equiv_pos_site_id
 _symmetry_equiv_pos_as_xyz
  1  'x, y, z'
loop_
 _atom_site_type_symbol
 _atom_site_label
 _atom_site_symmetry_multiplicity
 _atom_site_fract_x
 _atom_site_fract_y
 _atom_site_fract_z
 _atom_site_occupancy
  Li  Li0  1  0.90654700  0.35756800  0.64536400  1
  Li  Li1  1  0.90654700  0.64536400  0.35756800  1
  Li  Li2  1  0.64536400  0.35756800  0.90654700  1
  Li  Li3  1  0.64536400  0.90654700  0.35756800  1
  Li  Li4  1  0.35163600  0.09033900  0.35163600  1
  Li  Li5  1  0.35163600  0.35163600  0.09033900  1
  Li  Li6  1  0.35756800  0.64536400  0.90654700  1
  Li  Li7  1  0.35756800  0.90654700  0.64536400  1
  Li  Li8  1  0.09033900  0.35163600  0.35163600  1
  V  V0  1  0.63288800  0.11518400  0.63288800  1
  V  V1  1  0.63288800  0.63288800  0.11518400  1
  V  V2  1  0.11518400  0.63288800  0.63288800  1
  W  W0  1  0.64294800  0.35841600  0.35841600  1
  W  W1  1  0.65234200  0.65234200  0.65234200  1
  W  W2  1  0.35841600  0.35841600  0.64294800  1
  W  W3  1  0.35841600  0.64294800  0.35841600  1
  W  W4  1  0.99976400  0.99976400  0.49799400  1
  W  W5  1  0.99976400  0.49799400  0.99976400  1
  W  W6  1  0.49799400  0.99976400  0.99976400  1
  O  O0  1  0.85218700  0.38280100  0.38280100  1
  O  O1  1  0.86655000  0.61568000  0.61568000  1
  O  O2  1  0.87714900  0.12468100  0.62159400  1
  O  O3  1  0.87714900  0.62159400  0.12468100  1
  O  O4  1  0.87844100  0.37633900  0.87844100  1
  O  O5  1  0.87844100  0.87844100  0.37633900  1
  O  O6  1  0.62159400  0.12468100  0.87714900  1
  O  O7  1  0.62159400  0.87714900  0.12468100  1
  O  O8  1  0.60988000  0.38059100  0.60988000  1
  O  O9  1  0.60988000  0.60988000  0.38059100  1
  O  O10  1  0.61586100  0.14470700  0.38049400  1
  O  O11  1  0.61586100  0.38049400  0.14470700  1
  O  O12  1  0.61568000  0.61568000  0.86655000  1
  O  O13  1  0.61568000  0.86655000  0.61568000  1
  O  O14  1  0.38049400  0.14470700  0.61586100  1
  O  O15  1  0.38049400  0.61586100  0.14470700  1
  O  O16  1  0.38280100  0.38280100  0.85218700  1
  O  O17  1  0.38280100  0.85218700  0.38280100  1
  O  O18  1  0.39435400  0.39435400  0.39435400  1
  O  O19  1  0.38059100  0.60988000  0.60988000  1
  O  O20  1  0.37838000  0.12292700  0.12292700  1
  O  O21  1  0.37633900  0.87844100  0.87844100  1
  O  O22  1  0.12292700  0.12292700  0.37838000  1
  O  O23  1  0.12292700  0.37838000  0.12292700  1
  O  O24  1  0.12468100  0.62159400  0.87714900  1
  O  O25  1  0.12468100  0.87714900  0.62159400  1
  O  O26  1  0.14470700  0.38049400  0.61586100  1
  O  O27  1  0.14470700  0.61586100  0.38049400  1
loop_
_geom_bond_atom_site_label_1
_geom_bond_atom_site_label_2
_geom_bond_distance
_geom_bond_site_symmetry_2
Li0 O4 2.013776 1_555
Li0 O2 2.018586 1_555
Li0 O26 2.061347 1_655
Li0 O1 2.246786 1_555
Li0 O0 2.303453 1_555
Li0 O8 2.562753 1_555
Li1 O5 2.013776 1_555
Li1 O3 2.018586 1_555
Li1 O27 2.061347 1_655
Li1 O1 2.246786 1_555
Li1 O0 2.303453 1_555
Li1 O9 2.562753 1_555
Li2 O4 2.013776 1_555
Li2 O6 2.018586 1_555
Li2 O11 2.061347 1_556
Li2 O12 2.246786 1_555
Li2 O16 2.303453 1_555
Li2 O8 2.562752 1_555
Li3 O5 2.013776 1_555
Li3 O7 2.018586 1_555
Li3 O10 2.061347 1_565
Li3 O13 2.246786 1_555
Li3 O17 2.303453 1_555
Li3 O9 2.562753 1_555
Li4 O20 1.987744 1_555
Li4 O22 1.987744 1_555
Li4 O17 2.070080 1_545
Li4 O14 2.321567 1_555
Li4 O10 2.321567 1_555
Li4 O18 2.652213 1_555
Li5 O23 1.987744 1_555
Li5 O20 1.987744 1_555
Li5 O16 2.070080 1_554
Li5 O11 2.321567 1_555
Li5 O15 2.321567 1_555
Li5 O18 2.652213 1_555
Li6 O21 2.013776 1_555
Li6 O24 2.018586 1_555
Li6 O15 2.061347 1_556
Li6 O12 2.246786 1_555
Li6 O16 2.303453 1_555
Li6 O19 2.562752 1_555
Li7 O21 2.013776 1_555
Li7 O25 2.018586 1_555
Li7 O14 2.061347 1_565
Li7 O13 2.246786 1_555
Li7 O17 2.303453 1_555
Li7 O19 2.562753 1_555
Li8 O23 1.987744 1_555
Li8 O22 1.987744 1_555
Li8 O0 2.070080 1_455
Li8 O26 2.321567 1_555
Li8 O27 2.321567 1_555
Li8 O18 2.652213 1_555
O0 W0 1.814350 1_555
O1 W1 1.883495 1_555
O1 V2 2.136974 1_655
O2 W4 1.831121 1_545
O2 V0 2.092544 1_555
O3 W5 1.831121 1_554
O3 V1 2.092544 1_555
O4 W5 1.802418 1_555
O5 W4 1.802418 1_555
O6 W6 1.831121 1_545
O6 V0 2.092544 1_555
O7 W6 1.831121 1_554
O7 V1 2.092544 1_555
O8 W0 2.176912 1_555
O8 W2 2.176913 1_555
O8 V0 2.285806 1_555
O8 W1 2.381534 1_555
O9 W0 2.176913 1_555
O9 W3 2.176913 1_555
O9 V1 2.285806 1_555
O9 W1 2.381534 1_555
O10 W0 1.851824 1_555
O10 V0 2.177653 1_555
O11 W0 1.851824 1_555
O11 V1 2.177653 1_555
O12 W1 1.883495 1_555
O12 V1 2.136974 1_556
O13 W1 1.883495 1_555
O13 V0 2.136974 1_565
O14 W2 1.851824 1_555
O14 V0 2.177653 1_555
O15 W3 1.851824 1_555
O15 V1 2.177653 1_555
O16 W2 1.814350 1_555
O17 W3 1.814350 1_555
O18 W2 2.168620 1_555
O18 W0 2.168620 1_555
O18 W3 2.168620 1_555
O19 W3 2.176912 1_555
O19 W2 2.176913 1_555
O19 V2 2.285806 1_555
O19 W1 2.381534 1_555
O20 W6 1.805649 1_544
O21 W6 1.802418 1_555
O22 W4 1.805649 1_445
O23 W5 1.805649 1_454
O24 W5 1.831121 1_455
O24 V2 2.092544 1_555
O25 W4 1.831121 1_455
O25 V2 2.092544 1_555
O26 W2 1.851824 1_555
O26 V2 2.177653 1_555
O27 W3 1.851824 1_555
O27 V2 2.177653 1_555
