# generated using pymatgen
data_Li4Mn3Cr3(SbO8)2
_symmetry_space_group_name_H-M   'P 1'
_cell_length_a   5.99294761
_cell_length_b   5.99294761
_cell_length_c   9.75710428
_cell_angle_alpha   88.60550435
_cell_angle_beta   88.60550435
_cell_angle_gamma   59.43137429
_symmetry_Int_Tables_number   1
_chemical_formula_structural   Li4Mn3Cr3(SbO8)2
_chemical_formula_sum   'Li4 Mn3 Cr3 Sb2 O16'
_cell_volume   301.60942253
_cell_formula_units_Z   1
loop_
 _symmetry_equiv_pos_site_id
 _symmetry_equiv_pos_as_xyz
  1  'x, y, z'
loop_
 _atom_site_type_symbol
 _atom_site_label
 _atom_site_symmetry_multiplicity
 _atom_site_fract_x
 _atom_site_fract_y
 _atom_site_fract_z
 _atom_site_occupancy
  Li  Li0  1  0.66327100  0.66327100  0.09299100  1
  Li  Li1  1  0.00069100  0.00069100  0.01134000  1
  Li  Li2  1  0.00379200  0.00379200  0.51143200  1
  Li  Li3  1  0.33403300  0.33403300  0.59863600  1
  Mn  Mn0  1  0.83201600  0.83201600  0.78869500  1
  Mn  Mn1  1  0.17012700  0.66258400  0.28746500  1
  Mn  Mn2  1  0.66258400  0.17012700  0.28746500  1
  Cr  Cr0  1  0.34001600  0.83118000  0.78586400  1
  Cr  Cr1  1  0.83118000  0.34001600  0.78586400  1
  Cr  Cr2  1  0.17062100  0.17062100  0.28500400  1
  Sb  Sb0  1  0.66868100  0.66868100  0.51515600  1
  Sb  Sb1  1  0.32899500  0.32899500  0.01271500  1
  O  O0  1  0.33821500  0.83978000  0.40819300  1
  O  O1  1  0.51863700  0.51863700  0.66043200  1
  O  O2  1  0.67040400  0.67040400  0.88637100  1
  O  O3  1  0.99695200  0.99695200  0.69720800  1
  O  O4  1  0.99968200  0.99968200  0.19922700  1
  O  O5  1  0.83978000  0.33821500  0.40819300  1
  O  O6  1  0.51114700  0.96581400  0.65313300  1
  O  O7  1  0.96581400  0.51114700  0.65313300  1
  O  O8  1  0.16496400  0.16496400  0.90071800  1
  O  O9  1  0.83876600  0.83876600  0.40807800  1
  O  O10  1  0.02849500  0.47064900  0.15045800  1
  O  O11  1  0.47064900  0.02849500  0.15045800  1
  O  O12  1  0.33477900  0.33477900  0.38469500  1
  O  O13  1  0.16897900  0.66851400  0.90839700  1
  O  O14  1  0.47794300  0.47794300  0.15243200  1
  O  O15  1  0.66851400  0.16897900  0.90839700  1
loop_
_geom_bond_atom_site_label_1
_geom_bond_atom_site_label_2
_geom_bond_distance
_geom_bond_site_symmetry_2
Li0 O11 1.973816 1_565
Li0 O10 1.973816 1_655
Li0 O14 1.998877 1_555
Li0 O2 2.015300 1_554
Li1 O4 1.832969 1_445
Li1 O8 1.996440 1_554
Li1 O15 1.998717 1_454
Li1 O13 1.998717 1_544
Li2 O3 1.812039 1_445
Li2 O5 1.985891 1_455
Li2 O0 1.985891 1_545
Li2 O9 2.016212 1_445
Li3 O6 1.966446 1_545
Li3 O7 1.966446 1_455
Li3 O1 2.030100 1_555
Li3 O12 2.087241 1_555
Mn0 O2 1.910148 1_555
Mn0 O3 1.912797 1_555
Mn0 O15 2.109183 1_565
Mn0 O13 2.109183 1_655
Mn0 O7 2.143374 1_555
Mn0 O6 2.143374 1_555
Mn1 O12 1.927731 1_555
Mn1 O4 1.930046 1_455
Mn1 O14 2.059064 1_555
Mn1 O9 2.063330 1_455
Mn1 O0 2.176397 1_555
Mn1 O10 2.225687 1_555
Mn2 O12 1.927731 1_555
Mn2 O4 1.930046 1_545
Mn2 O14 2.059064 1_555
Mn2 O9 2.063330 1_545
Mn2 O5 2.176397 1_555
Mn2 O11 2.225687 1_555
Cr0 O2 1.979521 1_555
Cr0 O3 1.982279 1_455
Cr0 O6 2.026377 1_555
Cr0 O1 2.039717 1_555
Cr0 O8 2.067655 1_565
Cr0 O13 2.080951 1_555
Cr1 O2 1.979521 1_555
Cr1 O3 1.982279 1_545
Cr1 O7 2.026377 1_555
Cr1 O1 2.039717 1_555
Cr1 O8 2.067655 1_655
Cr1 O15 2.080951 1_555
Cr2 O4 1.987529 1_445
Cr2 O12 1.989826 1_555
Cr2 O11 2.015850 1_555
Cr2 O10 2.015850 1_555
Cr2 O5 2.074100 1_455
Cr2 O0 2.074100 1_545
O0 Sb0 2.011425 1_555
O1 Sb0 2.079598 1_555
O5 Sb0 2.011425 1_555
O6 Sb0 2.054136 1_555
O7 Sb0 2.054136 1_555
O8 Sb1 2.052879 1_556
O9 Sb0 2.030436 1_555
O10 Sb1 2.037847 1_555
O11 Sb1 2.037847 1_555
O13 Sb1 2.014382 1_556
O14 Sb1 2.093066 1_555
O15 Sb1 2.014382 1_556
