# generated using pymatgen
data_Ti3CoCu2(PO4)6
_symmetry_space_group_name_H-M   'P 1'
_cell_length_a   8.53979040
_cell_length_b   8.53979040
_cell_length_c   8.53978979
_cell_angle_alpha   60.24929384
_cell_angle_beta   60.24929384
_cell_angle_gamma   60.24928809
_symmetry_Int_Tables_number   1
_chemical_formula_structural   Ti3CoCu2(PO4)6
_chemical_formula_sum   'Ti3 Co1 Cu2 P6 O24'
_cell_volume   442.86411692
_cell_formula_units_Z   1
loop_
 _symmetry_equiv_pos_site_id
 _symmetry_equiv_pos_as_xyz
  1  'x, y, z'
loop_
 _atom_site_type_symbol
 _atom_site_label
 _atom_site_symmetry_multiplicity
 _atom_site_fract_x
 _atom_site_fract_y
 _atom_site_fract_z
 _atom_site_occupancy
  Ti  Ti0  1  0.14110000  0.14110000  0.14110000  1
  Ti  Ti1  1  0.35736300  0.35736300  0.35736300  1
  Ti  Ti2  1  0.64311100  0.64311100  0.64311100  1
  Co  Co0  1  0.85912200  0.85912200  0.85912200  1
  Cu  Cu0  1  0.99792000  0.99792000  0.99792000  1
  Cu  Cu1  1  0.49954200  0.49954200  0.49954200  1
  P  P0  1  0.95618400  0.54415200  0.24564200  1
  P  P1  1  0.24564200  0.95618400  0.54415200  1
  P  P2  1  0.54415200  0.24564200  0.95618400  1
  P  P3  1  0.46513700  0.75227300  0.03946600  1
  P  P4  1  0.75227300  0.03946600  0.46513700  1
  P  P5  1  0.03946600  0.46513700  0.75227300  1
  O  O0  1  0.49892400  0.31004200  0.11853700  1
  O  O1  1  0.11853700  0.49892400  0.31004200  1
  O  O2  1  0.26643100  0.91424000  0.05506500  1
  O  O3  1  0.31004200  0.11853700  0.49892400  1
  O  O4  1  0.62257100  0.80984100  0.00744600  1
  O  O5  1  0.43903400  0.58653700  0.23461800  1
  O  O6  1  0.91424000  0.05506500  0.26643100  1
  O  O7  1  0.58653700  0.23461800  0.43903400  1
  O  O8  1  0.00080000  0.37825800  0.18804800  1
  O  O9  1  0.23461800  0.43903400  0.58653700  1
  O  O10  1  0.94426100  0.73786200  0.08006300  1
  O  O11  1  0.18804800  0.00080000  0.37825800  1
  O  O12  1  0.80984100  0.00744600  0.62257100  1
  O  O13  1  0.05506500  0.26643100  0.91424000  1
  O  O14  1  0.76418000  0.55688700  0.41340000  1
  O  O15  1  0.00744600  0.62257100  0.80984100  1
  O  O16  1  0.41340000  0.76418000  0.55688700  1
  O  O17  1  0.08006300  0.94426100  0.73786200  1
  O  O18  1  0.55688700  0.41340000  0.76418000  1
  O  O19  1  0.37825800  0.18804800  0.00080000  1
  O  O20  1  0.68975100  0.87777300  0.50442500  1
  O  O21  1  0.73786200  0.08006300  0.94426100  1
  O  O22  1  0.87777300  0.50442500  0.68975100  1
  O  O23  1  0.50442500  0.68975100  0.87777300  1
loop_
_geom_bond_atom_site_label_1
_geom_bond_atom_site_label_2
_geom_bond_distance
_geom_bond_site_symmetry_2
Co0 O12 1.907237 1_565
Co0 O15 1.907237 1_655
Co0 O4 1.907237 1_556
Co0 O10 1.958595 1_556
Co0 O21 1.958595 1_565
Co0 O17 1.958595 1_655
Cu0 O17 2.186101 1_655
Cu0 O21 2.186101 1_565
Cu0 O10 2.186101 1_556
Cu0 O6 2.268260 1_566
Cu0 O2 2.268260 1_656
Cu0 O13 2.268260 1_665
Cu1 O18 2.231425 1_555
Cu1 O16 2.231425 1_555
Cu1 O14 2.231425 1_555
Cu1 O5 2.246887 1_555
Cu1 O7 2.246887 1_555
Cu1 O9 2.246887 1_555
O0 P2 1.545439 1_554
O0 Ti1 1.915870 1_555
O1 P0 1.545439 1_455
O1 Ti1 1.915870 1_555
O2 P3 1.561894 1_555
O2 Ti0 2.003239 1_565
O3 P1 1.545439 1_545
O3 Ti1 1.915870 1_555
O4 P3 1.510534 1_555
O5 P3 1.560058 1_555
O5 Ti1 2.002141 1_555
O6 P4 1.561894 1_555
O6 Ti0 2.003240 1_655
O7 P4 1.560058 1_555
O7 Ti1 2.002141 1_555
O8 P0 1.537517 1_455
O8 Ti0 1.902340 1_555
O9 P5 1.560058 1_555
O9 Ti1 2.002141 1_555
O10 P0 1.549377 1_555
O11 P1 1.537517 1_545
O11 Ti0 1.902340 1_555
O12 P4 1.510534 1_555
O13 P5 1.561894 1_555
O13 Ti0 2.003239 1_556
O14 P0 1.548904 1_555
O14 Ti2 2.030877 1_555
O15 P5 1.510534 1_555
O16 P1 1.548904 1_555
O16 Ti2 2.030877 1_555
O17 P1 1.549377 1_555
O18 P2 1.548904 1_555
O18 Ti2 2.030877 1_555
O19 P2 1.537518 1_554
O19 Ti0 1.902341 1_555
O20 P4 1.548690 1_565
O20 Ti2 1.883002 1_555
O21 P2 1.549377 1_555
O22 P5 1.548690 1_655
O22 Ti2 1.883002 1_555
O23 P3 1.548690 1_556
O23 Ti2 1.883002 1_555
