# generated using pymatgen
data_BaSrI4
_symmetry_space_group_name_H-M   'P 1'
_cell_length_a   14.43269120
_cell_length_b   14.43269120
_cell_length_c   14.43269201
_cell_angle_alpha   114.46724342
_cell_angle_beta   114.46724342
_cell_angle_gamma   114.46724355
_symmetry_Int_Tables_number   1
_chemical_formula_structural   BaSrI4
_chemical_formula_sum   'Ba6 Sr6 I24'
_cell_volume   1761.45526704
_cell_formula_units_Z   6
loop_
 _symmetry_equiv_pos_site_id
 _symmetry_equiv_pos_as_xyz
  1  'x, y, z'
loop_
 _atom_site_type_symbol
 _atom_site_label
 _atom_site_symmetry_multiplicity
 _atom_site_fract_x
 _atom_site_fract_y
 _atom_site_fract_z
 _atom_site_occupancy
  Ba  Ba0  1  0.85716200  0.28416100  0.10812600  1
  Ba  Ba1  1  0.78416100  0.35716200  0.60812600  1
  Ba  Ba2  1  0.28416100  0.10812600  0.85716200  1
  Ba  Ba3  1  0.60812600  0.78416100  0.35716200  1
  Ba  Ba4  1  0.35716200  0.60812600  0.78416100  1
  Ba  Ba5  1  0.10812600  0.85716200  0.28416100  1
  Sr  Sr0  1  0.91646500  0.09450200  0.32986700  1
  Sr  Sr1  1  0.59450200  0.41646500  0.82986700  1
  Sr  Sr2  1  0.82986700  0.59450200  0.41646500  1
  Sr  Sr3  1  0.09450200  0.32986700  0.91646500  1
  Sr  Sr4  1  0.41646500  0.82986700  0.59450200  1
  Sr  Sr5  1  0.32986700  0.91646500  0.09450200  1
  I  I0  1  0.90882500  0.07842200  0.10170300  1
  I  I1  1  0.88454400  0.15430400  0.57325900  1
  I  I2  1  0.75166400  0.09149900  0.77334500  1
  I  I3  1  0.99534100  0.39295100  0.46378700  1
  I  I4  1  0.89295100  0.49534100  0.96378700  1
  I  I5  1  0.59149900  0.25166400  0.27334500  1
  I  I6  1  0.65430400  0.38454400  0.07325900  1
  I  I7  1  0.38454400  0.07325900  0.65430400  1
  I  I8  1  0.57842200  0.40882500  0.60170300  1
  I  I9  1  0.96378700  0.89295100  0.49534100  1
  I  I10  1  0.60170300  0.57842200  0.40882500  1
  I  I11  1  0.77334500  0.75166400  0.09149900  1
  I  I12  1  0.25166400  0.27334500  0.59149900  1
  I  I13  1  0.07842200  0.10170300  0.90882500  1
  I  I14  1  0.39295100  0.46378700  0.99534100  1
  I  I15  1  0.40882500  0.60170300  0.57842200  1
  I  I16  1  0.57325900  0.88454400  0.15430400  1
  I  I17  1  0.27334500  0.59149900  0.25166400  1
  I  I18  1  0.15430400  0.57325900  0.88454400  1
  I  I19  1  0.49534100  0.96378700  0.89295100  1
  I  I20  1  0.46378700  0.99534100  0.39295100  1
  I  I21  1  0.07325900  0.65430400  0.38454400  1
  I  I22  1  0.09149900  0.77334500  0.75166400  1
  I  I23  1  0.10170300  0.90882500  0.07842200  1
loop_
_geom_bond_atom_site_label_1
_geom_bond_atom_site_label_2
_geom_bond_distance
_geom_bond_site_symmetry_2
Ba0 I0 3.323397 1_555
Ba0 I21 3.524141 1_655
Ba0 I2 3.558945 1_554
Ba0 I19 3.600660 1_544
Ba0 I6 3.717704 1_555
Ba0 I3 3.878388 1_555
Ba1 I8 3.323397 1_555
Ba1 I18 3.524141 1_655
Ba1 I5 3.558945 1_555
Ba1 I20 3.600660 1_545
Ba1 I1 3.717704 1_555
Ba1 I4 3.878388 1_555
Ba2 I13 3.323397 1_555
Ba2 I6 3.524141 1_556
Ba2 I22 3.558945 1_545
Ba2 I9 3.600660 1_445
Ba2 I7 3.717705 1_555
Ba2 I14 3.878387 1_555
Ba3 I10 3.323397 1_555
Ba3 I1 3.524141 1_565
Ba3 I17 3.558945 1_555
Ba3 I14 3.600660 1_554
Ba3 I16 3.717705 1_555
Ba3 I9 3.878387 1_555
Ba4 I15 3.323397 1_555
Ba4 I16 3.524141 1_556
Ba4 I12 3.558945 1_555
Ba4 I3 3.600660 1_455
Ba4 I18 3.717705 1_555
Ba4 I19 3.878387 1_555
Ba5 I23 3.323397 1_555
Ba5 I7 3.524141 1_565
Ba5 I11 3.558945 1_455
Ba5 I4 3.600660 1_454
Ba5 I21 3.717705 1_555
Ba5 I20 3.878387 1_555
I0 Sr0 3.155151 1_555
I1 Sr3 3.308851 1_655
I1 Sr0 3.529228 1_555
I2 Sr4 3.282691 1_545
I2 Sr3 3.483130 1_655
I3 Sr0 3.287066 1_555
I4 Sr1 3.287066 1_555
I5 Sr5 3.282691 1_545
I5 Sr2 3.483130 1_555
I6 Sr2 3.308851 1_555
I6 Sr1 3.529228 1_554
I7 Sr1 3.308850 1_555
I7 Sr4 3.529228 1_545
I8 Sr1 3.155151 1_555
I9 Sr2 3.287066 1_555
I10 Sr2 3.155150 1_555
I11 Sr1 3.282691 1_554
I11 Sr0 3.483130 1_565
I12 Sr0 3.282691 1_455
I12 Sr1 3.483130 1_555
I13 Sr3 3.155150 1_555
I14 Sr3 3.287066 1_555
I15 Sr4 3.155150 1_555
I16 Sr0 3.308850 1_565
I16 Sr5 3.529228 1_555
I17 Sr3 3.282691 1_554
I17 Sr4 3.483130 1_555
I18 Sr5 3.308851 1_556
I18 Sr3 3.529228 1_555
I19 Sr4 3.287066 1_555
I20 Sr5 3.287066 1_555
I21 Sr4 3.308851 1_555
I21 Sr2 3.529228 1_455
I22 Sr2 3.282691 1_455
I22 Sr5 3.483130 1_556
I23 Sr5 3.155150 1_555
