# generated using pymatgen
data_Na2Co3O4
_symmetry_space_group_name_H-M   'P 1'
_cell_length_a   5.34502200
_cell_length_b   7.77077600
_cell_length_c   10.91854600
_cell_angle_alpha   90.00000000
_cell_angle_beta   90.00000000
_cell_angle_gamma   90.00000000
_symmetry_Int_Tables_number   1
_chemical_formula_structural   Na2Co3O4
_chemical_formula_sum   'Na8 Co12 O16'
_cell_volume   453.50146611
_cell_formula_units_Z   4
loop_
 _symmetry_equiv_pos_site_id
 _symmetry_equiv_pos_as_xyz
  1  'x, y, z'
loop_
 _atom_site_type_symbol
 _atom_site_label
 _atom_site_symmetry_multiplicity
 _atom_site_fract_x
 _atom_site_fract_y
 _atom_site_fract_z
 _atom_site_occupancy
  Na  Na0  1  0.00000000  0.00000000  0.00000000  1
  Na  Na1  1  0.00000000  0.50000000  0.00000000  1
  Na  Na2  1  0.51695500  0.75000000  0.02735600  1
  Na  Na3  1  0.01695500  0.25000000  0.47264400  1
  Na  Na4  1  0.50000000  0.00000000  0.50000000  1
  Na  Na5  1  0.50000000  0.50000000  0.50000000  1
  Na  Na6  1  0.98304500  0.75000000  0.52735600  1
  Na  Na7  1  0.48304500  0.25000000  0.97264400  1
  Co  Co0  1  0.80172300  0.25000000  0.20163300  1
  Co  Co1  1  0.85164800  0.58426700  0.26066200  1
  Co  Co2  1  0.85164800  0.91573300  0.26066200  1
  Co  Co3  1  0.35164800  0.08426700  0.23933800  1
  Co  Co4  1  0.35164800  0.41573300  0.23933800  1
  Co  Co5  1  0.30172300  0.75000000  0.29836700  1
  Co  Co6  1  0.69827700  0.25000000  0.70163300  1
  Co  Co7  1  0.64835200  0.58426700  0.76066200  1
  Co  Co8  1  0.64835200  0.91573300  0.76066200  1
  Co  Co9  1  0.14835200  0.08426700  0.73933800  1
  Co  Co10  1  0.14835200  0.41573300  0.73933800  1
  Co  Co11  1  0.19827700  0.75000000  0.79836700  1
  O  O0  1  0.64354100  0.47228600  0.13415200  1
  O  O1  1  0.64354100  0.02771400  0.13415200  1
  O  O2  1  0.07697300  0.75000000  0.15262200  1
  O  O3  1  0.14691100  0.25000000  0.14153500  1
  O  O4  1  0.64691100  0.75000000  0.35846500  1
  O  O5  1  0.57697300  0.25000000  0.34737800  1
  O  O6  1  0.14354100  0.52771400  0.36584800  1
  O  O7  1  0.14354100  0.97228600  0.36584800  1
  O  O8  1  0.85645900  0.02771400  0.63415200  1
  O  O9  1  0.85645900  0.47228600  0.63415200  1
  O  O10  1  0.42302700  0.75000000  0.65262200  1
  O  O11  1  0.35308900  0.25000000  0.64153500  1
  O  O12  1  0.85308900  0.75000000  0.85846500  1
  O  O13  1  0.92302700  0.25000000  0.84737800  1
  O  O14  1  0.35645900  0.52771400  0.86584800  1
  O  O15  1  0.35645900  0.97228600  0.86584800  1
loop_
_geom_bond_atom_site_label_1
_geom_bond_atom_site_label_2
_geom_bond_distance
_geom_bond_site_symmetry_2
Na0 O1 2.412872 1_455
Na0 O15 2.412872 1_544
Na0 O2 2.592345 1_545
Na0 O13 2.592345 1_454
Na0 O12 2.603611 1_444
Na0 O3 2.603611 1_555
Na1 O0 2.412872 1_455
Na1 O14 2.412872 1_554
Na1 O2 2.592345 1_555
Na1 O13 2.592345 1_454
Na1 O3 2.603611 1_555
Na1 O12 2.603611 1_454
Na2 O0 2.544539 1_555
Na2 O1 2.544539 1_565
Na2 O12 2.574573 1_554
Na2 O15 2.613292 1_554
Na2 O14 2.613292 1_554
Na2 O2 2.720519 1_555
Na3 O7 2.544539 1_545
Na3 O6 2.544539 1_555
Na3 O11 2.574573 1_555
Na3 O8 2.613292 1_455
Na3 O9 2.613292 1_455
Na3 O5 2.720519 1_455
Na4 O7 2.412872 1_545
Na4 O8 2.412872 1_555
Na4 O5 2.592345 1_555
Na4 O10 2.592345 1_545
Na4 O11 2.603611 1_555
Na4 O4 2.603611 1_545
Na5 O6 2.412872 1_555
Na5 O9 2.412872 1_555
Na5 O5 2.592345 1_555
Na5 O10 2.592345 1_555
Na5 O11 2.603611 1_555
Na5 O4 2.603611 1_555
Na6 O8 2.544539 1_565
Na6 O9 2.544539 1_555
Na6 O4 2.574573 1_555
Na6 O6 2.613292 1_655
Na6 O7 2.613292 1_655
Na6 O10 2.720519 1_655
Na7 O14 2.544539 1_555
Na7 O15 2.544539 1_545
Na7 O3 2.574573 1_556
Na7 O0 2.613292 1_556
Na7 O1 2.613292 1_556
Na7 O13 2.720519 1_555
Co0 O3 1.958249 1_655
Co0 O5 1.993845 1_555
Co0 O0 2.059466 1_555
Co0 O1 2.059466 1_555
Co1 O0 1.975477 1_555
Co1 O6 1.986523 1_655
Co1 O4 1.999126 1_555
Co1 O2 2.121478 1_655
Co2 O1 1.975477 1_565
Co2 O7 1.986523 1_655
Co2 O4 1.999126 1_555
Co2 O2 2.121478 1_655
Co3 O7 1.975477 1_545
Co3 O1 1.986523 1_555
Co3 O3 1.999126 1_555
Co3 O5 2.121478 1_555
Co4 O6 1.975477 1_555
Co4 O0 1.986523 1_555
Co4 O3 1.999126 1_555
Co4 O5 2.121478 1_555
Co5 O4 1.958249 1_555
Co5 O2 1.993845 1_555
Co5 O7 2.059466 1_555
Co5 O6 2.059466 1_555
Co6 O11 1.958249 1_555
Co6 O13 1.993845 1_555
Co6 O9 2.059466 1_555
Co6 O8 2.059466 1_555
Co7 O9 1.975477 1_555
Co7 O14 1.986523 1_555
Co7 O12 1.999126 1_555
Co7 O10 2.121478 1_555
Co8 O8 1.975477 1_565
Co8 O15 1.986523 1_555
Co8 O12 1.999126 1_555
Co8 O10 2.121478 1_555
Co9 O15 1.975477 1_545
Co9 O8 1.986523 1_455
Co9 O11 1.999126 1_555
Co9 O13 2.121478 1_455
Co10 O14 1.975477 1_555
Co10 O9 1.986523 1_455
Co10 O11 1.999126 1_555
Co10 O13 2.121478 1_455
Co11 O12 1.958249 1_455
Co11 O10 1.993845 1_555
Co11 O14 2.059466 1_555
Co11 O15 2.059466 1_555
