# generated using pymatgen
data_FeOF
_symmetry_space_group_name_H-M   'P 1'
_cell_length_a   9.49101077
_cell_length_b   14.17751803
_cell_length_c   3.07830600
_cell_angle_alpha   90.00000000
_cell_angle_beta   90.00000000
_cell_angle_gamma   90.08701308
_symmetry_Int_Tables_number   1
_chemical_formula_structural   FeOF
_chemical_formula_sum   'Fe12 O12 F12'
_cell_volume   414.21322669
_cell_formula_units_Z   12
loop_
 _symmetry_equiv_pos_site_id
 _symmetry_equiv_pos_as_xyz
  1  'x, y, z'
loop_
 _atom_site_type_symbol
 _atom_site_label
 _atom_site_symmetry_multiplicity
 _atom_site_fract_x
 _atom_site_fract_y
 _atom_site_fract_z
 _atom_site_occupancy
  Fe  Fe0  1  0.01021800  0.00648300  0.00000000  1
  Fe  Fe1  1  0.99011100  0.34013800  0.00000000  1
  Fe  Fe2  1  0.02285600  0.66114200  0.00000000  1
  Fe  Fe3  1  0.21561800  0.17584000  0.50000000  1
  Fe  Fe4  1  0.22917700  0.49135800  0.50000000  1
  Fe  Fe5  1  0.26346000  0.80653800  0.50000000  1
  Fe  Fe6  1  0.52043900  0.33520800  0.00000000  1
  Fe  Fe7  1  0.49567400  0.00692200  0.00000000  1
  Fe  Fe8  1  0.51682100  0.66051300  0.00000000  1
  Fe  Fe9  1  0.75116800  0.18839500  0.50000000  1
  Fe  Fe10  1  0.74427600  0.49264700  0.50000000  1
  Fe  Fe11  1  0.74030600  0.82511100  0.50000000  1
  O  O0  1  0.08676700  0.27418800  0.50000000  1
  O  O1  1  0.10164600  0.60126100  0.50000000  1
  O  O2  1  0.13921300  0.10268500  0.00000000  1
  O  O3  1  0.15463000  0.76938000  0.00000000  1
  O  O4  1  0.14759600  0.43285600  0.00000000  1
  O  O5  1  0.41698500  0.72113900  0.50000000  1
  O  O6  1  0.58915900  0.26634400  0.50000000  1
  O  O7  1  0.60499400  0.59811000  0.50000000  1
  O  O8  1  0.65097000  0.43634600  0.00000000  1
  O  O9  1  0.66045400  0.76854200  0.00000000  1
  O  O10  1  0.84833600  0.23367000  0.00000000  1
  O  O11  1  0.89561700  0.40504400  0.50000000  1
  F  F0  1  0.09959100  0.93721800  0.50000000  1
  F  F1  1  0.33498600  0.23370300  0.00000000  1
  F  F2  1  0.35085600  0.55654600  0.00000000  1
  F  F3  1  0.35077600  0.89583500  0.00000000  1
  F  F4  1  0.39193200  0.07319700  0.50000000  1
  F  F5  1  0.40033700  0.39723700  0.50000000  1
  F  F6  1  0.60567700  0.93802800  0.50000000  1
  F  F7  1  0.65833900  0.10123800  0.00000000  1
  F  F8  1  0.85564500  0.90043400  0.00000000  1
  F  F9  1  0.85030300  0.57199400  0.00000000  1
  F  F10  1  0.89723800  0.05990300  0.50000000  1
  F  F11  1  0.90783200  0.73480500  0.50000000  1
loop_
_geom_bond_atom_site_label_1
_geom_bond_atom_site_label_2
_geom_bond_distance
_geom_bond_site_symmetry_2
Fe0 O2 1.831409 1_555
Fe1 O4 1.988989 1_655
Fe1 O11 2.005644 1_555
Fe1 O11 2.005644 1_554
Fe1 O10 2.020615 1_555
Fe1 O0 2.021730 1_655
Fe1 O0 2.021730 1_654
Fe2 O1 1.910722 1_554
Fe2 O1 1.910722 1_555
Fe2 O3 1.978174 1_555
Fe3 O0 1.856040 1_555
Fe3 O2 1.992049 1_556
Fe3 O2 1.992049 1_555
Fe4 O4 1.911671 1_555
Fe4 O4 1.911671 1_556
Fe4 O1 1.974495 1_555
Fe5 O5 1.895897 1_555
Fe5 O3 1.926593 1_555
Fe5 O3 1.926593 1_556
Fe6 O8 1.893524 1_555
Fe6 O6 1.936368 1_555
Fe6 O6 1.936368 1_554
Fe8 O7 1.963234 1_554
Fe8 O7 1.963234 1_555
Fe8 O5 2.002022 1_554
Fe8 O5 2.002022 1_555
Fe8 O9 2.048849 1_555
Fe9 O6 1.894931 1_555
Fe9 O10 1.905179 1_556
Fe9 O10 1.905179 1_555
Fe10 O11 1.900303 1_555
Fe10 O8 1.946333 1_556
Fe10 O8 1.946333 1_555
Fe10 O7 1.997280 1_555
Fe11 O9 1.893341 1_555
Fe11 O9 1.893341 1_556
F0 Fe0 2.013795 1_566
F0 Fe0 2.013795 1_565
F0 Fe5 2.420789 1_555
F1 Fe3 2.079102 1_555
F1 Fe3 2.079102 1_554
F1 Fe6 2.271863 1_555
F2 Fe4 2.133916 1_555
F2 Fe4 2.133916 1_554
F2 Fe8 2.155640 1_555
F3 Fe7 2.089283 1_565
F3 Fe5 2.157628 1_554
F3 Fe5 2.157628 1_555
F4 Fe7 2.055273 1_556
F4 Fe7 2.055273 1_555
F4 Fe3 2.219309 1_555
F5 Fe4 2.103842 1_555
F5 Fe6 2.108260 1_556
F5 Fe6 2.108260 1_555
F6 Fe11 2.049810 1_555
F6 Fe7 2.101462 1_566
F6 Fe7 2.101462 1_565
F7 Fe7 2.040890 1_555
F7 Fe9 2.160740 1_554
F7 Fe9 2.160740 1_555
F8 Fe0 2.099070 1_665
F8 Fe11 2.168910 1_555
F8 Fe11 2.168910 1_554
F9 Fe2 2.067177 1_655
F9 Fe10 2.154924 1_555
F9 Fe10 2.154924 1_554
F10 Fe0 2.023579 1_656
F10 Fe0 2.023579 1_655
F10 Fe9 2.290900 1_555
F11 Fe11 2.042905 1_555
F11 Fe2 2.157530 1_655
F11 Fe2 2.157530 1_656
