# generated using pymatgen
data_LiFeCO3F2
_symmetry_space_group_name_H-M   'P 1'
_cell_length_a   5.93161200
_cell_length_b   6.46656500
_cell_length_c   8.56993500
_cell_angle_alpha   90.00000000
_cell_angle_beta   90.00000000
_cell_angle_gamma   90.00000000
_symmetry_Int_Tables_number   1
_chemical_formula_structural   LiFeCO3F2
_chemical_formula_sum   'Li4 Fe4 C4 O12 F8'
_cell_volume   328.71832130
_cell_formula_units_Z   4
loop_
 _symmetry_equiv_pos_site_id
 _symmetry_equiv_pos_as_xyz
  1  'x, y, z'
loop_
 _atom_site_type_symbol
 _atom_site_label
 _atom_site_symmetry_multiplicity
 _atom_site_fract_x
 _atom_site_fract_y
 _atom_site_fract_z
 _atom_site_occupancy
  Li  Li0  1  0.69923700  0.25000000  0.27186200  1
  Li  Li1  1  0.19923700  0.25000000  0.22813800  1
  Li  Li2  1  0.30076300  0.75000000  0.72813800  1
  Li  Li3  1  0.80076300  0.75000000  0.77186200  1
  Fe  Fe0  1  0.00366300  0.25000000  0.57668300  1
  Fe  Fe1  1  0.50366300  0.25000000  0.92331700  1
  Fe  Fe2  1  0.49633700  0.75000000  0.07668300  1
  Fe  Fe3  1  0.99633700  0.75000000  0.42331700  1
  C  C0  1  0.45923900  0.25000000  0.56000500  1
  C  C1  1  0.95923900  0.25000000  0.93999500  1
  C  C2  1  0.04076100  0.75000000  0.06000500  1
  C  C3  1  0.54076100  0.75000000  0.43999500  1
  O  O0  1  0.80381700  0.25000000  0.04722200  1
  O  O1  1  0.30381700  0.25000000  0.45277800  1
  O  O2  1  0.66517100  0.25000000  0.51847900  1
  O  O3  1  0.16517100  0.25000000  0.98152100  1
  O  O4  1  0.88094800  0.25000000  0.79944100  1
  O  O5  1  0.38094800  0.25000000  0.70055900  1
  O  O6  1  0.83482900  0.75000000  0.01847900  1
  O  O7  1  0.11905200  0.75000000  0.20055900  1
  O  O8  1  0.61905200  0.75000000  0.29944100  1
  O  O9  1  0.33482900  0.75000000  0.48152100  1
  O  O10  1  0.69618300  0.75000000  0.54722200  1
  O  O11  1  0.19618300  0.75000000  0.95277800  1
  F  F0  1  0.45624200  0.05047600  0.14080500  1
  F  F1  1  0.95624200  0.05047600  0.35919500  1
  F  F2  1  0.45624200  0.44952400  0.14080500  1
  F  F3  1  0.95624200  0.44952400  0.35919500  1
  F  F4  1  0.54375800  0.55047600  0.85919500  1
  F  F5  1  0.04375800  0.55047600  0.64080500  1
  F  F6  1  0.04375800  0.94952400  0.64080500  1
  F  F7  1  0.54375800  0.94952400  0.85919500  1
loop_
_geom_bond_atom_site_label_1
_geom_bond_atom_site_label_2
_geom_bond_distance
_geom_bond_site_symmetry_2
Li0 O0 2.022625 1_555
Li0 O2 2.123129 1_555
Li1 O1 2.022625 1_555
Li1 O3 2.123129 1_554
Li2 O11 2.022625 1_555
Li2 O9 2.123129 1_555
Li3 O10 2.022625 1_555
Li3 O6 2.123129 1_556
Fe0 O4 2.043086 1_455
Fe0 O2 2.068835 1_455
Fe0 O1 2.073006 1_555
Fe0 O5 2.476943 1_555
Fe1 O5 2.043086 1_555
Fe1 O3 2.068835 1_555
Fe1 O0 2.073006 1_556
Fe1 O4 2.476943 1_555
Fe2 O8 2.043086 1_555
Fe2 O6 2.068835 1_555
Fe2 O11 2.073006 1_554
Fe2 O7 2.476943 1_555
Fe3 O7 2.043086 1_655
Fe3 O9 2.068835 1_655
Fe3 O10 2.073006 1_555
Fe3 O8 2.476943 1_555
C0 O2 1.272293 1_555
C0 O5 1.290958 1_555
C0 O1 1.301666 1_555
C1 O3 1.272293 1_655
C1 O4 1.290958 1_555
C1 O0 1.301666 1_556
C2 O6 1.272293 1_455
C2 O7 1.290958 1_555
C2 O11 1.301666 1_554
C3 O9 1.272293 1_555
C3 O8 1.290958 1_555
C3 O10 1.301666 1_555
F0 Fe2 2.033217 1_545
F0 Li1 2.132798 1_555
F0 Li0 2.236888 1_555
F0 Fe1 2.284249 1_554
F1 Fe3 2.033217 1_545
F1 Li0 2.132798 1_555
F1 Li1 2.236888 1_655
F1 Fe0 2.284249 1_655
F2 Fe2 2.033217 1_555
F2 Li1 2.132798 1_555
F2 Li0 2.236888 1_555
F2 Fe1 2.284249 1_554
F3 Fe3 2.033217 1_555
F3 Li0 2.132798 1_555
F3 Li1 2.236888 1_655
F3 Fe0 2.284249 1_655
F4 Fe1 2.033217 1_555
F4 Li3 2.132798 1_555
F4 Li2 2.236888 1_555
F4 Fe2 2.284249 1_556
F5 Fe0 2.033217 1_555
F5 Li2 2.132798 1_555
F5 Li3 2.236888 1_455
F5 Fe3 2.284249 1_455
F6 Fe0 2.033217 1_565
F6 Li2 2.132798 1_555
F6 Li3 2.236888 1_455
F6 Fe3 2.284249 1_455
F7 Fe1 2.033217 1_565
F7 Li3 2.132798 1_555
F7 Li2 2.236888 1_555
F7 Fe2 2.284249 1_556
