# generated using pymatgen
data_Al2CuO4
_symmetry_space_group_name_H-M   'P 1'
_cell_length_a   5.82222913
_cell_length_b   5.82222913
_cell_length_c   5.82222913
_cell_angle_alpha   122.65032850
_cell_angle_beta   121.64120534
_cell_angle_gamma   86.32431034
_symmetry_Int_Tables_number   1
_chemical_formula_structural   Al2CuO4
_chemical_formula_sum   'Al4 Cu2 O8'
_cell_volume   134.71504489
_cell_formula_units_Z   2
loop_
 _symmetry_equiv_pos_site_id
 _symmetry_equiv_pos_as_xyz
  1  'x, y, z'
loop_
 _atom_site_type_symbol
 _atom_site_label
 _atom_site_symmetry_multiplicity
 _atom_site_fract_x
 _atom_site_fract_y
 _atom_site_fract_z
 _atom_site_occupancy
  Al  Al0  1  0.61217100  0.86217100  0.75000000  1
  Al  Al1  1  0.38782900  0.13782900  0.25000000  1
  Al  Al2  1  0.00000000  0.50000000  0.50000000  1
  Al  Al3  1  0.50000000  0.50000000  0.00000000  1
  Cu  Cu0  1  0.00000000  0.00000000  0.50000000  1
  Cu  Cu1  1  0.00000000  0.50000000  0.00000000  1
  O  O0  1  0.77259500  0.26918400  0.50341100  1
  O  O1  1  0.26577300  0.26918400  0.99658900  1
  O  O2  1  0.73422700  0.73081600  0.00341100  1
  O  O3  1  0.26653300  0.28243600  0.51590300  1
  O  O4  1  0.26653300  0.75063000  0.98409700  1
  O  O5  1  0.22740500  0.73081600  0.49658900  1
  O  O6  1  0.73346700  0.24937000  0.01590300  1
  O  O7  1  0.73346700  0.71756400  0.48409700  1
loop_
_geom_bond_atom_site_label_1
_geom_bond_atom_site_label_2
_geom_bond_distance
_geom_bond_site_symmetry_2
Al0 O7 1.807979 1_555
Al0 O6 1.807979 1_566
Al0 O2 1.820584 1_556
Al0 O5 1.820584 1_555
Al1 O4 1.807979 1_544
Al1 O3 1.807979 1_555
Al1 O0 1.820584 1_555
Al1 O1 1.820584 1_554
Al2 O4 1.935205 1_555
Al2 O3 1.935205 1_555
Al2 O6 1.935205 1_455
Al2 O7 1.935205 1_455
Al2 O5 1.960579 1_555
Al2 O0 1.960579 1_455
Al3 O3 1.935205 1_554
Al3 O7 1.935205 1_555
Al3 O6 1.935205 1_555
Al3 O4 1.935205 1_554
Al3 O1 1.960579 1_554
Al3 O2 1.960579 1_555
Cu0 O1 1.984339 1_555
Cu0 O2 1.984339 1_445
Cu0 O5 1.984339 1_545
Cu0 O0 1.984339 1_455
Cu0 O3 2.265597 1_555
Cu0 O7 2.265597 1_445
Cu1 O1 1.984339 1_554
Cu1 O5 1.984339 1_555
Cu1 O2 1.984339 1_455
Cu1 O0 1.984339 1_454
Cu1 O4 2.265597 1_554
Cu1 O6 2.265597 1_455
