# generated using pymatgen
data_Li3MnCr2O6
_symmetry_space_group_name_H-M   'P 1'
_cell_length_a   2.94076277
_cell_length_b   6.81067904
_cell_length_c   11.80375179
_cell_angle_alpha   77.24304517
_cell_angle_beta   90.00033427
_cell_angle_gamma   77.53222087
_symmetry_Int_Tables_number   1
_chemical_formula_structural   Li3MnCr2O6
_chemical_formula_sum   'Li6 Mn2 Cr4 O12'
_cell_volume   224.85690454
_cell_formula_units_Z   2
loop_
 _symmetry_equiv_pos_site_id
 _symmetry_equiv_pos_as_xyz
  1  'x, y, z'
loop_
 _atom_site_type_symbol
 _atom_site_label
 _atom_site_symmetry_multiplicity
 _atom_site_fract_x
 _atom_site_fract_y
 _atom_site_fract_z
 _atom_site_occupancy
  Li  Li0  1  0.33332400  0.33334900  0.08333200  1
  Li  Li1  1  0.33333800  0.33332400  0.58333000  1
  Li  Li2  1  0.00717400  0.98569200  0.25472300  1
  Li  Li3  1  0.00720300  0.98563300  0.75472200  1
  Li  Li4  1  0.65948700  0.68098500  0.41194300  1
  Li  Li5  1  0.65946200  0.68103600  0.91194000  1
  Mn  Mn0  1  0.33333500  0.33333000  0.83333700  1
  Mn  Mn1  1  0.33333200  0.33333500  0.33333500  1
  Cr  Cr0  1  0.00405500  0.99187300  0.99984800  1
  Cr  Cr1  1  0.66262700  0.67477700  0.66682100  1
  Cr  Cr2  1  0.00406300  0.99185900  0.49982700  1
  Cr  Cr3  1  0.66260400  0.67480400  0.16684400  1
  O  O0  1  0.50172000  0.99649900  0.88298800  1
  O  O1  1  0.50173100  0.99649800  0.38296200  1
  O  O2  1  0.16492800  0.67017900  0.28370300  1
  O  O3  1  0.16495100  0.67016200  0.78367900  1
  O  O4  1  0.16166100  0.67673200  0.04781300  1
  O  O5  1  0.16169300  0.67670100  0.54778000  1
  O  O6  1  0.50500700  0.98992800  0.61885500  1
  O  O7  1  0.50497400  0.98996400  0.11888600  1
  O  O8  1  0.82235400  0.35537700  0.21618900  1
  O  O9  1  0.82236700  0.35535700  0.71618300  1
  O  O10  1  0.84430800  0.31130100  0.45047500  1
  O  O11  1  0.84430000  0.31130700  0.95048300  1
loop_
_geom_bond_atom_site_label_1
_geom_bond_atom_site_label_2
_geom_bond_distance
_geom_bond_site_symmetry_2
Li0 O11 2.178555 1_554
Li0 O8 2.178605 1_455
Li0 O11 2.178720 1_454
Li0 O8 2.178766 1_555
Li0 O7 2.226475 1_545
Li0 O4 2.226480 1_555
Li1 O9 2.178575 1_455
Li1 O10 2.178585 1_555
Li1 O10 2.178736 1_455
Li1 O9 2.178742 1_555
Li1 O5 2.226425 1_555
Li1 O6 2.226562 1_545
Li2 O2 2.048110 1_555
Li2 O1 2.123041 1_555
Li2 O1 2.123217 1_455
Li2 O7 2.170840 1_555
Li2 O7 2.171083 1_455
Li2 O8 2.396872 1_465
Li3 O3 2.047852 1_555
Li3 O0 2.123328 1_555
Li3 O0 2.123545 1_455
Li3 O6 2.171108 1_555
Li3 O6 2.171289 1_455
Li3 O9 2.397125 1_465
Li4 O1 2.048109 1_555
Li4 O2 2.123054 1_555
Li4 O2 2.123221 1_655
Li4 O5 2.170828 1_555
Li4 O5 2.171070 1_655
Li4 O10 2.396867 1_555
Li5 O0 2.047803 1_555
Li5 O3 2.123292 1_555
Li5 O3 2.123516 1_655
Li5 O4 2.171154 1_556
Li5 O4 2.171329 1_656
Li5 O11 2.397155 1_555
Mn0 O11 2.000870 1_555
Mn0 O9 2.000934 1_455
Mn0 O11 2.001082 1_455
Mn0 O9 2.001142 1_555
Mn0 O0 2.183365 1_545
Mn0 O3 2.183374 1_555
Mn1 O10 2.000828 1_555
Mn1 O8 2.000867 1_455
Mn1 O10 2.001017 1_455
Mn1 O8 2.001064 1_555
Mn1 O1 2.183393 1_545
Mn1 O2 2.183440 1_555
Cr0 O0 2.011545 1_555
Cr0 O0 2.011628 1_455
Cr0 O7 2.031767 1_556
Cr0 O7 2.031930 1_456
Cr0 O4 2.043496 1_556
Cr0 O11 2.071750 1_465
Cr1 O3 2.011551 1_555
Cr1 O3 2.011611 1_655
Cr1 O5 2.031792 1_555
Cr1 O5 2.031923 1_655
Cr1 O6 2.043561 1_555
Cr1 O9 2.071659 1_555
Cr2 O1 2.011594 1_555
Cr2 O1 2.011636 1_455
Cr2 O6 2.031693 1_555
Cr2 O6 2.031796 1_455
Cr2 O5 2.043598 1_555
Cr2 O10 2.071793 1_465
Cr3 O2 2.011561 1_555
Cr3 O2 2.011599 1_655
Cr3 O4 2.031721 1_555
Cr3 O4 2.031823 1_655
Cr3 O7 2.043614 1_555
Cr3 O8 2.071693 1_555
