# generated using pymatgen
data_Li2CrSiO4
_symmetry_space_group_name_H-M   'P 1'
_cell_length_a   5.39829400
_cell_length_b   10.23588600
_cell_length_c   14.07890800
_cell_angle_alpha   90.00000000
_cell_angle_beta   90.00000000
_cell_angle_gamma   90.00000000
_symmetry_Int_Tables_number   1
_chemical_formula_structural   Li2CrSiO4
_chemical_formula_sum   'Li16 Cr8 Si8 O32'
_cell_volume   777.94867355
_cell_formula_units_Z   8
loop_
 _symmetry_equiv_pos_site_id
 _symmetry_equiv_pos_as_xyz
  1  'x, y, z'
loop_
 _atom_site_type_symbol
 _atom_site_label
 _atom_site_symmetry_multiplicity
 _atom_site_fract_x
 _atom_site_fract_y
 _atom_site_fract_z
 _atom_site_occupancy
  Li  Li0  1  0.89770500  0.91879900  0.57547800  1
  Li  Li1  1  0.50826700  0.95388700  0.95152000  1
  Li  Li2  1  0.90053900  0.24419200  0.21426200  1
  Li  Li3  1  0.45595900  0.18106800  0.29899000  1
  Li  Li4  1  0.90053900  0.25580800  0.71426200  1
  Li  Li5  1  0.45595900  0.31893200  0.79899000  1
  Li  Li6  1  0.50826700  0.54611300  0.45152000  1
  Li  Li7  1  0.89770500  0.58120100  0.07547800  1
  Li  Li8  1  0.49173300  0.45388700  0.95152000  1
  Li  Li9  1  0.10229500  0.41879900  0.57547800  1
  Li  Li10  1  0.54404100  0.68106800  0.29899000  1
  Li  Li11  1  0.09946100  0.74419200  0.21426200  1
  Li  Li12  1  0.54404100  0.81893200  0.79899000  1
  Li  Li13  1  0.09946100  0.75580800  0.71426200  1
  Li  Li14  1  0.10229500  0.08120100  0.07547800  1
  Li  Li15  1  0.49173300  0.04611300  0.45152000  1
  Cr  Cr0  1  0.34794700  0.07505800  0.66966600  1
  Cr  Cr1  1  0.04279100  0.18556200  0.43943700  1
  Cr  Cr2  1  0.04279100  0.31443800  0.93943700  1
  Cr  Cr3  1  0.34794700  0.42494200  0.16966600  1
  Cr  Cr4  1  0.65205300  0.57505800  0.66966600  1
  Cr  Cr5  1  0.95720900  0.68556200  0.43943700  1
  Cr  Cr6  1  0.95720900  0.81443800  0.93943700  1
  Cr  Cr7  1  0.65205300  0.92494200  0.16966600  1
  Si  Si0  1  0.04113600  0.99532900  0.80360600  1
  Si  Si1  1  0.56715100  0.19664500  0.06757800  1
  Si  Si2  1  0.56715100  0.30335500  0.56757800  1
  Si  Si3  1  0.04113600  0.50467100  0.30360600  1
  Si  Si4  1  0.95886400  0.49532900  0.80360600  1
  Si  Si5  1  0.43284900  0.69664500  0.06757800  1
  Si  Si6  1  0.43284900  0.80335500  0.56757800  1
  Si  Si7  1  0.95886400  0.00467100  0.30360600  1
  O  O0  1  0.22313000  0.04522800  0.35292300  1
  O  O1  1  0.94096400  0.05624100  0.19233800  1
  O  O2  1  0.46196800  0.04457400  0.07453400  1
  O  O3  1  0.75879200  0.09502800  0.36534700  1
  O  O4  1  0.12992400  0.14928800  0.78892400  1
  O  O5  1  0.56506900  0.23662300  0.67608200  1
  O  O6  1  0.37207100  0.21836800  0.50333900  1
  O  O7  1  0.85060300  0.19837300  0.02644000  1
  O  O8  1  0.37207100  0.28163200  0.00333900  1
  O  O9  1  0.85060300  0.30162700  0.52644000  1
  O  O10  1  0.56506900  0.26337700  0.17608200  1
  O  O11  1  0.12992400  0.35071200  0.28892400  1
  O  O12  1  0.46196800  0.45542600  0.57453400  1
  O  O13  1  0.75879200  0.40497200  0.86534700  1
  O  O14  1  0.22313000  0.45477200  0.85292300  1
  O  O15  1  0.94096400  0.44375900  0.69233800  1
  O  O16  1  0.05903600  0.55624100  0.19233800  1
  O  O17  1  0.77687000  0.54522800  0.35292300  1
  O  O18  1  0.24120800  0.59502800  0.36534700  1
  O  O19  1  0.53803200  0.54457400  0.07453400  1
  O  O20  1  0.43493100  0.73662300  0.67608200  1
  O  O21  1  0.87007600  0.64928800  0.78892400  1
  O  O22  1  0.14939700  0.69837300  0.02644000  1
  O  O23  1  0.62792900  0.71836800  0.50333900  1
  O  O24  1  0.14939700  0.80162700  0.52644000  1
  O  O25  1  0.62792900  0.78163200  0.00333900  1
  O  O26  1  0.43493100  0.76337700  0.17608200  1
  O  O27  1  0.87007600  0.85071200  0.28892400  1
  O  O28  1  0.24120800  0.90497200  0.86534700  1
  O  O29  1  0.53803200  0.95542600  0.57453400  1
  O  O30  1  0.05903600  0.94375900  0.69233800  1
  O  O31  1  0.77687000  0.95477200  0.85292300  1
loop_
_geom_bond_atom_site_label_1
_geom_bond_atom_site_label_2
_geom_bond_distance
_geom_bond_site_symmetry_2
Li0 O30 1.879001 1_655
Li0 O24 1.939382 1_655
Li0 O29 1.977530 1_555
Li1 O28 1.949612 1_555
Li1 O2 1.980814 1_566
Li1 O31 2.007362 1_555
Li1 O25 2.014532 1_556
Li2 O10 1.899237 1_555
Li2 O11 1.956299 1_655
Li2 O1 1.960632 1_555
Li3 O10 2.012726 1_555
Li3 O0 2.022286 1_555
Li3 O3 2.078684 1_555
Li3 O11 2.476506 1_555
Li4 O5 1.899237 1_555
Li4 O4 1.956299 1_655
Li4 O15 1.960632 1_555
Li5 O5 2.012726 1_555
Li5 O14 2.022286 1_555
Li5 O13 2.078684 1_555
Li5 O4 2.476506 1_555
Li6 O18 1.949612 1_555
Li6 O12 1.980814 1_555
Li6 O17 2.007362 1_555
Li6 O23 2.014532 1_555
Li7 O16 1.879001 1_655
Li7 O22 1.939382 1_655
Li7 O19 1.977530 1_555
Li8 O13 1.949612 1_555
Li8 O19 1.980814 1_556
Li8 O14 2.007362 1_555
Li8 O8 2.014532 1_556
Li9 O15 1.879001 1_455
Li9 O9 1.939382 1_455
Li9 O12 1.977530 1_555
Li10 O26 2.012726 1_555
Li10 O17 2.022286 1_555
Li10 O18 2.078684 1_555
Li10 O27 2.476506 1_555
Li11 O26 1.899237 1_555
Li11 O27 1.956299 1_455
Li11 O16 1.960632 1_555
Li12 O20 2.012726 1_555
Li12 O31 2.022286 1_555
Li12 O28 2.078684 1_555
Li12 O21 2.476506 1_555
Li13 O20 1.899237 1_555
Li13 O21 1.956299 1_455
Li13 O30 1.960632 1_555
Li14 O1 1.879001 1_455
Li14 O7 1.939382 1_455
Li14 O2 1.977530 1_555
Li15 O3 1.949612 1_555
Li15 O29 1.980814 1_545
Li15 O0 2.007362 1_555
Li15 O6 2.014532 1_555
Cr0 O5 2.029009 1_555
Cr0 O30 2.083400 1_545
Cr0 O29 2.084783 1_545
Cr0 O4 2.186697 1_555
Cr1 O9 1.997045 1_455
Cr1 O6 2.020359 1_555
Cr1 O3 2.072984 1_455
Cr1 O0 2.120069 1_555
Cr2 O7 1.997045 1_456
Cr2 O8 2.020359 1_556
Cr2 O13 2.072984 1_455
Cr2 O14 2.120069 1_555
Cr3 O10 2.029009 1_555
Cr3 O16 2.083400 1_555
Cr3 O19 2.084783 1_555
Cr3 O11 2.186697 1_555
Cr4 O20 2.029009 1_555
Cr4 O15 2.083400 1_555
Cr4 O12 2.084783 1_555
Cr4 O21 2.186697 1_555
Cr5 O24 1.997045 1_655
Cr5 O23 2.020359 1_555
Cr5 O18 2.072984 1_655
Cr5 O17 2.120069 1_555
Cr6 O22 1.997045 1_656
Cr6 O25 2.020359 1_556
Cr6 O28 2.072984 1_655
Cr6 O31 2.120069 1_555
Cr7 O26 2.029009 1_555
Cr7 O1 2.083400 1_565
Cr7 O2 2.084783 1_565
Cr7 O27 2.186697 1_555
O0 Si7 1.639993 1_455
O1 Si7 1.655899 1_555
O2 Si1 1.659802 1_555
O3 Si7 1.666584 1_555
O4 Si0 1.660103 1_545
O5 Si2 1.673414 1_555
O6 Si2 1.638213 1_555
O7 Si1 1.636197 1_555
O8 Si1 1.638213 1_555
O9 Si2 1.636197 1_555
O10 Si1 1.673414 1_555
O11 Si3 1.660103 1_555
O12 Si2 1.659802 1_555
O13 Si4 1.666584 1_555
O14 Si4 1.639993 1_455
O15 Si4 1.655899 1_555
O16 Si3 1.655899 1_555
O17 Si3 1.639993 1_655
O18 Si3 1.666584 1_555
O19 Si5 1.659802 1_555
O20 Si6 1.673414 1_555
O21 Si4 1.660103 1_555
O22 Si5 1.636197 1_555
O23 Si6 1.638213 1_555
O24 Si6 1.636197 1_555
O25 Si5 1.638213 1_555
O26 Si5 1.673414 1_555
O27 Si7 1.660103 1_565
O28 Si0 1.666584 1_555
O29 Si6 1.659802 1_555
O30 Si0 1.655899 1_555
O31 Si0 1.639993 1_655
