# generated using pymatgen
data_Na6B4Sb2SO16
_symmetry_space_group_name_H-M   'P 1'
_cell_length_a   10.13884210
_cell_length_b   10.13884210
_cell_length_c   10.13884210
_cell_angle_alpha   60.00000000
_cell_angle_beta   60.00000000
_cell_angle_gamma   60.00000000
_symmetry_Int_Tables_number   1
_chemical_formula_structural   Na6B4Sb2SO16
_chemical_formula_sum   'Na12 B8 Sb4 S2 O32'
_cell_volume   736.97045982
_cell_formula_units_Z   2
loop_
 _symmetry_equiv_pos_site_id
 _symmetry_equiv_pos_as_xyz
  1  'x, y, z'
loop_
 _atom_site_type_symbol
 _atom_site_label
 _atom_site_symmetry_multiplicity
 _atom_site_fract_x
 _atom_site_fract_y
 _atom_site_fract_z
 _atom_site_occupancy
  Na  Na0  1  0.53809300  0.96190700  0.96190700  1
  Na  Na1  1  0.53809300  0.53809300  0.96190700  1
  Na  Na2  1  0.53809300  0.96190700  0.53809300  1
  Na  Na3  1  0.96190700  0.53809300  0.96190700  1
  Na  Na4  1  0.28809300  0.28809300  0.71190700  1
  Na  Na5  1  0.28809300  0.71190700  0.71190700  1
  Na  Na6  1  0.96190700  0.96190700  0.53809300  1
  Na  Na7  1  0.96190700  0.53809300  0.53809300  1
  Na  Na8  1  0.71190700  0.28809300  0.71190700  1
  Na  Na9  1  0.28809300  0.71190700  0.28809300  1
  Na  Na10  1  0.71190700  0.28809300  0.28809300  1
  Na  Na11  1  0.71190700  0.71190700  0.28809300  1
  B  B0  1  0.34325200  0.34325200  0.97024500  1
  B  B1  1  0.34325200  0.34325200  0.34325200  1
  B  B2  1  0.34325200  0.97024500  0.34325200  1
  B  B3  1  0.97024500  0.34325200  0.34325200  1
  B  B4  1  0.27975500  0.90674800  0.90674800  1
  B  B5  1  0.90674800  0.27975500  0.90674800  1
  B  B6  1  0.90674800  0.90674800  0.90674800  1
  B  B7  1  0.90674800  0.90674800  0.27975500  1
  Sb  Sb0  1  0.62500000  0.12500000  0.12500000  1
  Sb  Sb1  1  0.12500000  0.12500000  0.12500000  1
  Sb  Sb2  1  0.12500000  0.62500000  0.12500000  1
  Sb  Sb3  1  0.12500000  0.12500000  0.62500000  1
  S  S0  1  0.50000000  0.50000000  0.50000000  1
  S  S1  1  0.75000000  0.75000000  0.75000000  1
  O  O0  1  0.56028400  0.56028400  0.31914800  1
  O  O1  1  0.56028400  0.31914800  0.56028400  1
  O  O2  1  0.56028400  0.56028400  0.56028400  1
  O  O3  1  0.31914800  0.56028400  0.56028400  1
  O  O4  1  0.49135900  0.21980400  0.96688400  1
  O  O5  1  0.32195200  0.49135900  0.96688400  1
  O  O6  1  0.49135900  0.32195200  0.21980400  1
  O  O7  1  0.21980400  0.32195200  0.96688400  1
  O  O8  1  0.49135900  0.96688400  0.32195200  1
  O  O9  1  0.32195200  0.96688400  0.21980400  1
  O  O10  1  0.21980400  0.49135900  0.32195200  1
  O  O11  1  0.32195200  0.21980400  0.49135900  1
  O  O12  1  0.96688400  0.49135900  0.21980400  1
  O  O13  1  0.21980400  0.96688400  0.49135900  1
  O  O14  1  0.96688400  0.21980400  0.32195200  1
  O  O15  1  0.28311600  0.92804800  0.75864100  1
  O  O16  1  0.96688400  0.32195200  0.49135900  1
  O  O17  1  0.28311600  0.03019600  0.92804800  1
  O  O18  1  0.03019600  0.28311600  0.75864100  1
  O  O19  1  0.28311600  0.75864100  0.03019600  1
  O  O20  1  0.92804800  0.03019600  0.75864100  1
  O  O21  1  0.03019600  0.75864100  0.92804800  1
  O  O22  1  0.92804800  0.28311600  0.03019600  1
  O  O23  1  0.75864100  0.28311600  0.92804800  1
  O  O24  1  0.03019600  0.92804800  0.28311600  1
  O  O25  1  0.75864100  0.92804800  0.03019600  1
  O  O26  1  0.92804800  0.75864100  0.28311600  1
  O  O27  1  0.75864100  0.03019600  0.28311600  1
  O  O28  1  0.93085200  0.68971600  0.68971600  1
  O  O29  1  0.68971600  0.93085200  0.68971600  1
  O  O30  1  0.68971600  0.68971600  0.68971600  1
  O  O31  1  0.68971600  0.68971600  0.93085200  1
loop_
_geom_bond_atom_site_label_1
_geom_bond_atom_site_label_2
_geom_bond_distance
_geom_bond_site_symmetry_2
Na0 O4 2.435815 1_565
Na0 O9 2.435819 1_556
Na0 O17 2.477947 1_565
Na0 O25 2.477957 1_556
Na0 O29 2.494149 1_555
Na0 O31 2.494149 1_555
Na1 O6 2.435820 1_556
Na1 O5 2.435825 1_555
Na1 O23 2.477950 1_555
Na1 O19 2.477952 1_556
Na1 O31 2.494149 1_555
Na1 O30 2.494149 1_555
Na2 O11 2.435820 1_565
Na2 O8 2.435825 1_555
Na2 O15 2.477950 1_555
Na2 O27 2.477952 1_565
Na2 O29 2.494149 1_555
Na2 O30 2.494149 1_555
Na3 O12 2.435815 1_556
Na3 O7 2.435819 1_655
Na3 O22 2.477947 1_556
Na3 O21 2.477957 1_655
Na3 O28 2.494149 1_555
Na3 O31 2.494149 1_555
Na4 O18 2.435815 1_555
Na4 O17 2.435819 1_555
Na4 O7 2.477947 1_555
Na4 O11 2.477957 1_555
Na4 O1 2.494149 1_555
Na4 O3 2.494149 1_555
Na5 O21 2.435820 1_555
Na5 O15 2.435825 1_555
Na5 O5 2.477950 1_555
Na5 O13 2.477952 1_555
Na5 O3 2.494149 1_555
Na5 O2 2.494149 1_555
Na6 O13 2.435815 1_655
Na6 O14 2.435819 1_565
Na6 O24 2.477947 1_655
Na6 O20 2.477957 1_565
Na6 O28 2.494149 1_555
Na6 O29 2.494149 1_555
Na7 O10 2.435820 1_655
Na7 O16 2.435825 1_555
Na7 O26 2.477950 1_555
Na7 O18 2.477952 1_655
Na7 O28 2.494149 1_555
Na7 O30 2.494149 1_555
Na8 O20 2.435820 1_555
Na8 O23 2.435825 1_555
Na8 O16 2.477950 1_555
Na8 O4 2.477952 1_555
Na8 O1 2.494149 1_555
Na8 O2 2.494149 1_555
Na9 O19 2.435815 1_555
Na9 O24 2.435819 1_555
Na9 O9 2.477947 1_555
Na9 O10 2.477957 1_555
Na9 O3 2.494149 1_555
Na9 O0 2.494149 1_555
Na10 O27 2.435815 1_555
Na10 O22 2.435819 1_555
Na10 O14 2.477947 1_555
Na10 O6 2.477957 1_555
Na10 O1 2.494149 1_555
Na10 O0 2.494149 1_555
Na11 O25 2.435820 1_555
Na11 O26 2.435825 1_555
Na11 O8 2.477950 1_555
Na11 O12 2.477952 1_555
Na11 O0 2.494149 1_555
Na11 O2 2.494149 1_555
B0 O5 1.390900 1_555
B0 O4 1.390907 1_555
B0 O7 1.390920 1_555
B1 O6 1.390908 1_555
B1 O11 1.390908 1_555
B1 O10 1.390908 1_555
B2 O8 1.390900 1_555
B2 O13 1.390907 1_555
B2 O9 1.390920 1_555
B3 O16 1.390900 1_555
B3 O12 1.390907 1_555
B3 O14 1.390920 1_555
B4 O15 1.390900 1_555
B4 O19 1.390907 1_556
B4 O17 1.390920 1_565
B5 O23 1.390900 1_555
B5 O18 1.390907 1_655
B5 O22 1.390920 1_556
B6 O25 1.390908 1_556
B6 O21 1.390908 1_655
B6 O20 1.390908 1_565
B7 O26 1.390900 1_555
B7 O27 1.390907 1_565
B7 O24 1.390920 1_655
O0 S0 1.497153 1_555
O1 S0 1.497153 1_555
O2 S0 1.497153 1_555
O3 S0 1.497153 1_555
O4 Sb0 2.158393 1_556
O5 Sb2 2.158391 1_556
O6 Sb0 2.158385 1_555
O7 Sb1 2.158386 1_556
O8 Sb0 2.158391 1_565
O9 Sb1 2.158386 1_565
O10 Sb2 2.158385 1_555
O11 Sb3 2.158385 1_555
O12 Sb2 2.158393 1_655
O13 Sb3 2.158393 1_565
O14 Sb1 2.158386 1_655
O15 Sb3 2.158391 1_565
O16 Sb3 2.158391 1_655
O17 Sb1 2.158386 1_556
O18 Sb3 2.158393 1_555
O19 Sb2 2.158393 1_555
O20 Sb3 2.158385 1_655
O21 Sb2 2.158385 1_556
O22 Sb1 2.158386 1_655
O23 Sb0 2.158391 1_556
O24 Sb1 2.158386 1_565
O25 Sb0 2.158385 1_565
O26 Sb2 2.158391 1_655
O27 Sb0 2.158393 1_555
O28 S1 1.497153 1_555
O29 S1 1.497153 1_555
O30 S1 1.497153 1_555
O31 S1 1.497153 1_555
