# generated using pymatgen
data_Y2O3
_symmetry_space_group_name_H-M   'P 1'
_cell_length_a   5.78225934
_cell_length_b   6.03196199
_cell_length_c   5.78225836
_cell_angle_alpha   118.63978926
_cell_angle_beta   60.00001186
_cell_angle_gamma   118.63978868
_symmetry_Int_Tables_number   1
_chemical_formula_structural   Y2O3
_chemical_formula_sum   'Y4 O6'
_cell_volume   145.46822333
_cell_formula_units_Z   2
loop_
 _symmetry_equiv_pos_site_id
 _symmetry_equiv_pos_as_xyz
  1  'x, y, z'
loop_
 _atom_site_type_symbol
 _atom_site_label
 _atom_site_symmetry_multiplicity
 _atom_site_fract_x
 _atom_site_fract_y
 _atom_site_fract_z
 _atom_site_occupancy
  Y  Y0  1  0.14169881  0.42509542  0.14169881  1
  Y  Y1  1  0.35830119  0.07490458  0.35830119  1
  Y  Y2  1  0.64169781  0.92509442  0.64169781  1
  Y  Y3  1  0.85830219  0.57490558  0.85830219  1
  O  O0  1  0.25000000  0.75000000  0.54282692  1
  O  O1  1  0.04282692  0.25000000  0.75000000  1
  O  O2  1  0.45717308  0.25000000  0.04282692  1
  O  O3  1  0.54282692  0.75000000  0.95717308  1
  O  O4  1  0.95717308  0.75000000  0.25000000  1
  O  O5  1  0.75000000  0.25000000  0.45717308  1
loop_
_geom_bond_atom_site_label_1
_geom_bond_atom_site_label_2
_geom_bond_distance
_geom_bond_site_symmetry_2
O0 Y2 2.234957 1_555
O0 Y3 2.234960 1_455
O0 Y0 2.351872 1_555
O0 Y1 2.351876 1_565
O1 Y1 2.234961 1_555
O1 Y0 2.234964 1_556
O1 Y3 2.351875 1_455
O1 Y2 2.351880 1_445
O2 Y1 2.234959 1_555
O2 Y0 2.234959 1_555
O2 Y2 2.351878 1_544
O2 Y3 2.351878 1_554
O3 Y2 2.234962 1_555
O3 Y3 2.234962 1_555
O3 Y1 2.351874 1_566
O3 Y0 2.351874 1_556
O4 Y3 2.234957 1_554
O4 Y2 2.234960 1_555
O4 Y1 2.351872 1_665
O4 Y0 2.351876 1_655
O5 Y0 2.234961 1_655
O5 Y1 2.234964 1_555
O5 Y2 2.351875 1_545
O5 Y3 2.351880 1_555
