# generated using pymatgen
data_Li2MnCr2O6
_symmetry_space_group_name_H-M   'P 1'
_cell_length_a   5.07241722
_cell_length_b   5.07241722
_cell_length_c   10.14641000
_cell_angle_alpha   90.00000000
_cell_angle_beta   90.00000000
_cell_angle_gamma   119.62509264
_symmetry_Int_Tables_number   1
_chemical_formula_structural   Li2MnCr2O6
_chemical_formula_sum   'Li4 Mn2 Cr4 O12'
_cell_volume   226.93490180
_cell_formula_units_Z   2
loop_
 _symmetry_equiv_pos_site_id
 _symmetry_equiv_pos_as_xyz
  1  'x, y, z'
loop_
 _atom_site_type_symbol
 _atom_site_label
 _atom_site_symmetry_multiplicity
 _atom_site_fract_x
 _atom_site_fract_y
 _atom_site_fract_z
 _atom_site_occupancy
  Li  Li0  1  0.65389100  0.15389100  0.75000000  1
  Li  Li1  1  0.84610900  0.34610900  0.25000000  1
  Li  Li2  1  0.15389100  0.65389100  0.75000000  1
  Li  Li3  1  0.34610900  0.84610900  0.25000000  1
  Mn  Mn0  1  0.00000000  0.00000000  0.00000000  1
  Mn  Mn1  1  0.50000000  0.50000000  0.50000000  1
  Cr  Cr0  1  0.83633700  0.16366300  0.50000000  1
  Cr  Cr1  1  0.66366300  0.33633700  0.00000000  1
  Cr  Cr2  1  0.33633700  0.66366300  0.00000000  1
  Cr  Cr3  1  0.16366300  0.83633700  0.50000000  1
  O  O0  1  0.67482100  0.00532800  0.10557700  1
  O  O1  1  0.32517900  0.99467200  0.89442300  1
  O  O2  1  0.50532800  0.17482100  0.39442300  1
  O  O3  1  0.82517900  0.49467200  0.60557700  1
  O  O4  1  0.18190000  0.18190000  0.59990800  1
  O  O5  1  0.31810000  0.31810000  0.09990800  1
  O  O6  1  0.68190000  0.68190000  0.90009200  1
  O  O7  1  0.99467200  0.32517900  0.89442300  1
  O  O8  1  0.81810000  0.81810000  0.40009200  1
  O  O9  1  0.17482100  0.50532800  0.39442300  1
  O  O10  1  0.49467200  0.82517900  0.60557700  1
  O  O11  1  0.00532800  0.67482100  0.10557700  1
loop_
_geom_bond_atom_site_label_1
_geom_bond_atom_site_label_2
_geom_bond_distance
_geom_bond_site_symmetry_2
Li0 O1 2.061158 1_545
Li0 O10 2.061158 1_545
Li0 O3 2.098904 1_555
Li0 O7 2.098904 1_555
Li1 O11 2.061158 1_655
Li1 O9 2.061158 1_655
Li1 O0 2.098904 1_555
Li1 O2 2.098904 1_555
Li2 O7 2.061158 1_455
Li2 O3 2.061158 1_455
Li2 O10 2.098904 1_555
Li2 O1 2.098904 1_555
Li3 O0 2.061158 1_565
Li3 O2 2.061158 1_565
Li3 O11 2.098904 1_555
Li3 O9 2.098904 1_555
Mn0 O5 1.913286 1_555
Mn0 O6 1.913286 1_444
Mn0 O0 1.978129 1_455
Mn0 O11 1.978129 1_545
Mn0 O1 1.978129 1_544
Mn0 O7 1.978129 1_454
Mn1 O4 1.913286 1_555
Mn1 O8 1.913286 1_555
Mn1 O9 1.978129 1_555
Mn1 O2 1.978129 1_555
Mn1 O3 1.978129 1_555
Mn1 O10 1.978129 1_555
Cr0 O4 1.987033 1_655
Cr0 O8 1.987033 1_545
Cr0 O2 2.015881 1_555
Cr0 O3 2.015881 1_555
Cr0 O9 2.038905 1_655
Cr0 O10 2.038905 1_545
Cr1 O6 1.987033 1_554
Cr1 O5 1.987033 1_555
Cr1 O0 2.015881 1_555
Cr1 O7 2.015881 1_554
Cr1 O11 2.038905 1_655
Cr1 O1 2.038905 1_544
Cr2 O6 1.987033 1_554
Cr2 O5 1.987033 1_555
Cr2 O11 2.015881 1_555
Cr2 O1 2.015881 1_554
Cr2 O0 2.038905 1_565
Cr2 O7 2.038905 1_454
Cr3 O8 1.987033 1_455
Cr3 O4 1.987033 1_565
Cr3 O9 2.015881 1_555
Cr3 O10 2.015881 1_555
Cr3 O2 2.038905 1_565
Cr3 O3 2.038905 1_455
