# generated using pymatgen
data_Mn2P4O13
_symmetry_space_group_name_H-M   'P 1'
_cell_length_a   8.79443902
_cell_length_b   8.79443902
_cell_length_c   8.25885200
_cell_angle_alpha   90.00000000
_cell_angle_beta   90.00000000
_cell_angle_gamma   132.01134756
_symmetry_Int_Tables_number   1
_chemical_formula_structural   Mn2P4O13
_chemical_formula_sum   'Mn4 P8 O26'
_cell_volume   474.60462245
_cell_formula_units_Z   2
loop_
 _symmetry_equiv_pos_site_id
 _symmetry_equiv_pos_as_xyz
  1  'x, y, z'
loop_
 _atom_site_type_symbol
 _atom_site_label
 _atom_site_symmetry_multiplicity
 _atom_site_fract_x
 _atom_site_fract_y
 _atom_site_fract_z
 _atom_site_occupancy
  Mn  Mn0  1  0.58491500  0.87570800  0.13714500  1
  Mn  Mn1  1  0.12429200  0.41508500  0.36285500  1
  Mn  Mn2  1  0.87570800  0.58491500  0.86285500  1
  Mn  Mn3  1  0.41508500  0.12429200  0.63714500  1
  P  P0  1  0.72168000  0.84059500  0.77900400  1
  P  P1  1  0.15940500  0.27832000  0.72099600  1
  P  P2  1  0.05816300  0.38610800  0.00773200  1
  P  P3  1  0.61389200  0.94183700  0.49226800  1
  P  P4  1  0.38610800  0.05816300  0.99226800  1
  P  P5  1  0.94183700  0.61389200  0.50773200  1
  P  P6  1  0.27832000  0.15940500  0.27900400  1
  P  P7  1  0.84059500  0.72168000  0.22099600  1
  O  O0  1  0.25383300  0.30930000  0.31345700  1
  O  O1  1  0.69070000  0.74616700  0.18654300  1
  O  O2  1  0.93892100  0.06107900  0.75000000  1
  O  O3  1  0.20894800  0.38044300  0.89380500  1
  O  O4  1  0.61955700  0.79105200  0.60619500  1
  O  O5  1  0.15529000  0.40246500  0.59853400  1
  O  O6  1  0.59753500  0.84471000  0.90146600  1
  O  O7  1  0.89188400  0.17977400  0.08072400  1
  O  O8  1  0.82022600  0.10811600  0.41927600  1
  O  O9  1  0.46131200  0.79281000  0.35807500  1
  O  O10  1  0.20719000  0.53868800  0.14192500  1
  O  O11  1  0.52755600  0.00126000  0.60968600  1
  O  O12  1  0.99874000  0.47244400  0.89031400  1
  O  O13  1  0.47244400  0.99874000  0.10968600  1
  O  O14  1  0.00126000  0.52755600  0.39031400  1
  O  O15  1  0.53868800  0.20719000  0.85807500  1
  O  O16  1  0.79281000  0.46131200  0.64192500  1
  O  O17  1  0.10811600  0.82022600  0.58072400  1
  O  O18  1  0.17977400  0.89188400  0.91927600  1
  O  O19  1  0.84471000  0.59753500  0.09853400  1
  O  O20  1  0.40246500  0.15529000  0.40146600  1
  O  O21  1  0.38044300  0.20894800  0.10619500  1
  O  O22  1  0.79105200  0.61955700  0.39380500  1
  O  O23  1  0.06107900  0.93892100  0.25000000  1
  O  O24  1  0.30930000  0.25383300  0.68654300  1
  O  O25  1  0.74616700  0.69070000  0.81345700  1
loop_
_geom_bond_atom_site_label_1
_geom_bond_atom_site_label_2
_geom_bond_distance
_geom_bond_site_symmetry_2
Mn0 O13 1.906059 1_555
Mn0 O1 1.936100 1_555
Mn0 O6 1.978826 1_554
Mn0 O9 1.995394 1_555
Mn0 O7 2.234450 1_565
Mn0 O10 2.577228 1_555
Mn1 O14 1.906059 1_555
Mn1 O0 1.936100 1_555
Mn1 O5 1.978826 1_555
Mn1 O10 1.995394 1_555
Mn1 O8 2.234450 1_455
Mn1 O9 2.577228 1_555
Mn2 O12 1.906059 1_555
Mn2 O25 1.936100 1_555
Mn2 O19 1.978826 1_556
Mn2 O16 1.995394 1_555
Mn2 O18 2.234450 1_655
Mn2 O15 2.577228 1_555
Mn3 O11 1.906059 1_555
Mn3 O24 1.936100 1_555
Mn3 O20 1.978826 1_555
Mn3 O15 1.995394 1_555
Mn3 O17 2.234450 1_545
Mn3 O16 2.577228 1_555
O0 P6 1.498364 1_555
O1 P7 1.498364 1_555
O2 P1 1.583839 1_655
O2 P0 1.583839 1_545
O3 P1 1.584161 1_555
O3 P2 1.653687 1_556
O4 P0 1.584161 1_555
O4 P3 1.653687 1_555
O5 P1 1.506358 1_555
O6 P0 1.506358 1_555
O7 P2 1.497550 1_655
O8 P3 1.497550 1_545
O9 P3 1.546774 1_555
O10 P2 1.546774 1_555
O11 P3 1.523523 1_545
O12 P2 1.523523 1_656
O13 P4 1.523523 1_564
O14 P5 1.523523 1_455
O15 P4 1.546774 1_555
O16 P5 1.546774 1_555
O17 P5 1.497550 1_455
O18 P4 1.497550 1_565
O19 P7 1.506358 1_555
O20 P6 1.506358 1_555
O21 P6 1.584161 1_555
O21 P4 1.653687 1_554
O22 P7 1.584161 1_555
O22 P5 1.653687 1_555
O23 P7 1.583839 1_455
O23 P6 1.583839 1_565
O24 P1 1.498364 1_555
O25 P0 1.498364 1_555
