# generated using pymatgen
data_BaLaCl5
_symmetry_space_group_name_H-M   'P 1'
_cell_length_a   14.09299700
_cell_length_b   7.79738600
_cell_length_c   10.74138466
_cell_angle_alpha   70.20311410
_cell_angle_beta   90.00000000
_cell_angle_gamma   90.00000000
_symmetry_Int_Tables_number   1
_chemical_formula_structural   BaLaCl5
_chemical_formula_sum   'Ba4 La4 Cl20'
_cell_volume   1110.59509762
_cell_formula_units_Z   4
loop_
 _symmetry_equiv_pos_site_id
 _symmetry_equiv_pos_as_xyz
  1  'x, y, z'
loop_
 _atom_site_type_symbol
 _atom_site_label
 _atom_site_symmetry_multiplicity
 _atom_site_fract_x
 _atom_site_fract_y
 _atom_site_fract_z
 _atom_site_occupancy
  Ba  Ba0  1  0.97938300  0.53136400  0.74333900  1
  Ba  Ba1  1  0.47938300  0.46863600  0.75666100  1
  Ba  Ba2  1  0.52061700  0.53136400  0.24333900  1
  Ba  Ba3  1  0.02061700  0.46863600  0.25666100  1
  La  La0  1  0.74661000  0.89399600  0.90005400  1
  La  La1  1  0.75339000  0.89399600  0.40005400  1
  La  La2  1  0.24661000  0.10600400  0.59994600  1
  La  La3  1  0.25339000  0.10600400  0.09994600  1
  Cl  Cl0  1  0.09792300  0.87458000  0.69225900  1
  Cl  Cl1  1  0.80351800  0.83667400  0.66536400  1
  Cl  Cl2  1  0.36707600  0.82005400  0.64026200  1
  Cl  Cl3  1  0.89302300  0.63451600  0.99598900  1
  Cl  Cl4  1  0.61336300  0.60376800  0.94688500  1
  Cl  Cl5  1  0.40207700  0.87458000  0.19225900  1
  Cl  Cl6  1  0.69648200  0.83667400  0.16536400  1
  Cl  Cl7  1  0.13292400  0.82005400  0.14026200  1
  Cl  Cl8  1  0.60697700  0.63451600  0.49598900  1
  Cl  Cl9  1  0.88663700  0.60376800  0.44688500  1
  Cl  Cl10  1  0.11336300  0.39623200  0.55311500  1
  Cl  Cl11  1  0.39302300  0.36548400  0.50401100  1
  Cl  Cl12  1  0.86707600  0.17994600  0.85973800  1
  Cl  Cl13  1  0.30351800  0.16332600  0.83463600  1
  Cl  Cl14  1  0.59792300  0.12542000  0.80774100  1
  Cl  Cl15  1  0.38663700  0.39623200  0.05311500  1
  Cl  Cl16  1  0.10697700  0.36548400  0.00401100  1
  Cl  Cl17  1  0.63292400  0.17994600  0.35973800  1
  Cl  Cl18  1  0.19648200  0.16332600  0.33463600  1
  Cl  Cl19  1  0.90207700  0.12542000  0.30774100  1
loop_
_geom_bond_atom_site_label_1
_geom_bond_atom_site_label_2
_geom_bond_distance
_geom_bond_site_symmetry_2
Ba0 Cl12 3.042369 1_555
Ba0 Cl0 3.042902 1_655
Ba0 Cl16 3.208292 1_656
Ba0 Cl10 3.210725 1_655
Ba0 Cl9 3.308980 1_555
Ba0 Cl3 3.312326 1_555
Ba0 Cl1 3.340812 1_555
Ba1 Cl2 3.042369 1_555
Ba1 Cl14 3.042902 1_555
Ba1 Cl8 3.208292 1_555
Ba1 Cl4 3.210725 1_555
Ba1 Cl15 3.308980 1_556
Ba1 Cl11 3.312326 1_555
Ba1 Cl13 3.340812 1_555
Ba2 Cl17 3.042369 1_555
Ba2 Cl5 3.042902 1_555
Ba2 Cl11 3.208292 1_555
Ba2 Cl15 3.210725 1_555
Ba2 Cl4 3.308980 1_554
Ba2 Cl8 3.312326 1_555
Ba2 Cl6 3.340812 1_555
Ba3 Cl7 3.042369 1_555
Ba3 Cl19 3.042902 1_455
Ba3 Cl3 3.208292 1_454
Ba3 Cl9 3.210725 1_455
Ba3 Cl10 3.308980 1_555
Ba3 Cl16 3.312326 1_555
Ba3 Cl18 3.340812 1_555
Cl0 La2 2.723658 1_565
Cl1 La1 2.820884 1_555
Cl1 La0 2.821547 1_555
Cl2 La2 2.717934 1_565
Cl3 La0 2.828572 1_555
Cl4 La0 2.851231 1_555
Cl5 La3 2.723658 1_565
Cl6 La0 2.820884 1_554
Cl6 La1 2.821547 1_555
Cl7 La3 2.717934 1_565
Cl8 La1 2.828572 1_555
Cl9 La1 2.851231 1_555
Cl10 La2 2.851231 1_555
Cl11 La2 2.828572 1_555
Cl12 La0 2.717934 1_545
Cl13 La3 2.820884 1_556
Cl13 La2 2.821547 1_555
Cl14 La0 2.723658 1_545
Cl15 La3 2.851231 1_555
Cl16 La3 2.828572 1_555
Cl17 La1 2.717934 1_545
Cl18 La2 2.820884 1_555
Cl18 La3 2.821547 1_555
Cl19 La1 2.723658 1_545
