# generated using pymatgen
data_BaV10O17
_symmetry_space_group_name_H-M   'P 1'
_cell_length_a   10.11343856
_cell_length_b   10.11343856
_cell_length_c   14.37217630
_cell_angle_alpha   52.31984594
_cell_angle_beta   52.31984594
_cell_angle_gamma   34.72930113
_symmetry_Int_Tables_number   1
_chemical_formula_structural   BaV10O17
_chemical_formula_sum   'Ba2 V20 O34'
_cell_volume   643.17863963
_cell_formula_units_Z   2
loop_
 _symmetry_equiv_pos_site_id
 _symmetry_equiv_pos_as_xyz
  1  'x, y, z'
loop_
 _atom_site_type_symbol
 _atom_site_label
 _atom_site_symmetry_multiplicity
 _atom_site_fract_x
 _atom_site_fract_y
 _atom_site_fract_z
 _atom_site_occupancy
  Ba  Ba0  1  0.61949300  0.38050700  0.25000000  1
  Ba  Ba1  1  0.38050700  0.61949300  0.75000000  1
  V  V0  1  0.60448800  0.85885500  0.60955600  1
  V  V1  1  0.10673900  0.35184300  0.61946200  1
  V  V2  1  0.96059000  0.22058300  0.58567900  1
  V  V3  1  0.03923900  0.78338200  0.60396400  1
  V  V4  1  0.52826800  0.28478500  0.59410100  1
  V  V5  1  0.03941000  0.77941700  0.41432100  1
  V  V6  1  0.89326100  0.64815700  0.38053800  1
  V  V7  1  0.39551200  0.14114500  0.39044400  1
  V  V8  1  0.96076100  0.21661800  0.39603600  1
  V  V9  1  0.47173200  0.71521500  0.40589900  1
  V  V10  1  0.78338200  0.03923900  0.10396400  1
  V  V11  1  0.28478500  0.52826800  0.09410100  1
  V  V12  1  0.35184300  0.10673900  0.11946200  1
  V  V13  1  0.85885500  0.60448800  0.10955600  1
  V  V14  1  0.22058300  0.96059000  0.08567900  1
  V  V15  1  0.71521500  0.47173200  0.90589900  1
  V  V16  1  0.21661800  0.96076100  0.89603600  1
  V  V17  1  0.77941700  0.03941000  0.91432100  1
  V  V18  1  0.64815700  0.89326100  0.88053800  1
  V  V19  1  0.14114500  0.39551200  0.89044400  1
  O  O0  1  0.25144100  0.49119100  0.71485900  1
  O  O1  1  0.72644600  0.98700200  0.72201500  1
  O  O2  1  0.93560800  0.67497500  0.60244300  1
  O  O3  1  0.42094600  0.17273200  0.61045400  1
  O  O4  1  0.81508700  0.53263200  0.58021900  1
  O  O5  1  0.28192300  0.06877500  0.58094200  1
  O  O6  1  0.15302200  0.92890500  0.53709000  1
  O  O7  1  0.67145700  0.39731800  0.53790200  1
  O  O8  1  0.32854300  0.60268200  0.46209800  1
  O  O9  1  0.84697800  0.07109500  0.46291000  1
  O  O10  1  0.18491300  0.46736800  0.41978100  1
  O  O11  1  0.71807700  0.93122500  0.41905800  1
  O  O12  1  0.06439200  0.32502500  0.39755700  1
  O  O13  1  0.57905400  0.82726800  0.38954600  1
  O  O14  1  0.27355400  0.01299800  0.27798500  1
  O  O15  1  0.74855900  0.50880900  0.28514100  1
  O  O16  1  0.12731900  0.87268100  0.25000000  1
  O  O17  1  0.49119100  0.25144100  0.21485900  1
  O  O18  1  0.98700200  0.72644600  0.22201500  1
  O  O19  1  0.67497500  0.93560800  0.10244300  1
  O  O20  1  0.17273200  0.42094600  0.11045400  1
  O  O21  1  0.53263200  0.81508700  0.08021900  1
  O  O22  1  0.06877500  0.28192300  0.08094200  1
  O  O23  1  0.92890500  0.15302200  0.03709000  1
  O  O24  1  0.39731800  0.67145700  0.03790200  1
  O  O25  1  0.60268200  0.32854300  0.96209800  1
  O  O26  1  0.07109500  0.84697800  0.96291000  1
  O  O27  1  0.93122500  0.71807700  0.91905800  1
  O  O28  1  0.46736800  0.18491300  0.91978100  1
  O  O29  1  0.32502500  0.06439200  0.89755700  1
  O  O30  1  0.82726800  0.57905400  0.88954600  1
  O  O31  1  0.50880900  0.74855900  0.78514100  1
  O  O32  1  0.01299800  0.27355400  0.77798500  1
  O  O33  1  0.87268100  0.12731900  0.75000000  1
loop_
_geom_bond_atom_site_label_1
_geom_bond_atom_site_label_2
_geom_bond_distance
_geom_bond_site_symmetry_2
Ba0 O15 2.834372 1_555
Ba0 O17 2.834372 1_555
Ba0 O16 2.971132 1_555
Ba0 O10 3.034172 1_555
Ba0 O21 3.034172 1_555
Ba0 O16 3.065620 1_645
Ba0 O9 3.084724 1_555
Ba0 O23 3.084724 1_555
Ba0 O8 3.088634 1_555
Ba0 O24 3.088634 1_555
Ba0 O11 3.092258 1_545
Ba0 O22 3.092258 1_655
Ba1 O31 2.834372 1_555
Ba1 O0 2.834372 1_555
Ba1 O33 2.971132 1_555
Ba1 O28 3.034172 1_555
Ba1 O4 3.034172 1_555
Ba1 O33 3.065620 1_465
Ba1 O26 3.084724 1_555
Ba1 O6 3.084724 1_555
Ba1 O25 3.088634 1_555
Ba1 O7 3.088634 1_555
Ba1 O27 3.092258 1_455
Ba1 O5 3.092258 1_565
O0 V3 1.969257 1_555
O0 V19 1.973967 1_555
O0 V4 2.022513 1_555
O1 V18 1.761935 1_555
O1 V3 2.031901 1_655
O1 V4 2.069085 1_565
O2 V1 1.994614 1_655
O2 V3 2.060819 1_655
O2 V0 2.064127 1_555
O2 V5 2.095073 1_655
O3 V1 1.928252 1_555
O3 V0 1.964147 1_545
O3 V4 1.975315 1_555
O4 V1 2.066348 1_655
O4 V2 2.082366 1_555
O4 V0 2.156755 1_555
O4 V6 2.207175 1_555
O5 V1 2.010603 1_555
O5 V7 2.106791 1_555
O5 V0 2.123047 1_545
O5 V2 2.139878 1_455
O6 V3 2.028883 1_555
O6 V2 2.097009 1_465
O6 V8 2.159872 1_465
O6 V9 2.171843 1_555
O7 V4 2.049403 1_555
O7 V8 2.128601 1_555
O7 V9 2.137644 1_555
O7 V2 2.140113 1_555
O8 V9 2.049403 1_555
O8 V3 2.128601 1_555
O8 V4 2.137644 1_555
O8 V5 2.140113 1_555
O9 V8 2.028883 1_555
O9 V5 2.097009 1_645
O9 V3 2.159872 1_645
O9 V4 2.171843 1_555
O10 V6 2.066348 1_455
O10 V5 2.082366 1_555
O10 V7 2.156755 1_555
O10 V1 2.207175 1_555
O11 V6 2.010603 1_555
O11 V0 2.106791 1_555
O11 V7 2.123047 1_565
O11 V5 2.139878 1_655
O12 V6 1.994614 1_455
O12 V8 2.060819 1_455
O12 V7 2.064127 1_555
O12 V2 2.095073 1_455
O13 V6 1.928252 1_555
O13 V7 1.964147 1_565
O13 V9 1.975315 1_555
O14 V12 1.761935 1_555
O14 V8 2.031901 1_455
O14 V9 2.069085 1_545
O15 V8 1.969257 1_555
O15 V13 1.973967 1_555
O15 V9 2.022513 1_555
O16 V5 1.829161 1_555
O16 V14 1.829161 1_555
O17 V10 1.969257 1_555
O17 V7 1.973967 1_555
O17 V11 2.022513 1_555
O18 V6 1.761935 1_555
O18 V10 2.031901 1_565
O18 V11 2.069085 1_655
O19 V12 1.994614 1_565
O19 V10 2.060819 1_565
O19 V13 2.064127 1_555
O19 V17 2.095073 1_564
O20 V12 1.928252 1_555
O20 V13 1.964147 1_455
O20 V11 1.975315 1_555
O21 V12 2.066348 1_565
O21 V14 2.082366 1_555
O21 V13 2.156755 1_555
O21 V18 2.207175 1_554
O22 V12 2.010603 1_555
O22 V19 2.106791 1_554
O22 V13 2.123047 1_455
O22 V14 2.139878 1_545
O23 V10 2.028883 1_555
O23 V14 2.097009 1_645
O23 V16 2.159872 1_644
O23 V15 2.171843 1_554
O24 V11 2.049403 1_555
O24 V16 2.128601 1_554
O24 V15 2.137644 1_554
O24 V14 2.140113 1_555
O25 V15 2.049403 1_555
O25 V10 2.128601 1_556
O25 V11 2.137644 1_556
O25 V17 2.140113 1_555
O26 V16 2.028883 1_555
O26 V17 2.097009 1_465
O26 V10 2.159872 1_466
O26 V11 2.171843 1_556
O27 V18 2.010603 1_555
O27 V13 2.106791 1_556
O27 V19 2.123047 1_655
O27 V17 2.139878 1_565
O28 V18 2.066348 1_545
O28 V17 2.082366 1_555
O28 V19 2.156755 1_555
O28 V12 2.207175 1_556
O29 V18 1.994614 1_545
O29 V16 2.060819 1_545
O29 V19 2.064127 1_555
O29 V14 2.095073 1_546
O30 V18 1.928252 1_555
O30 V19 1.964147 1_655
O30 V15 1.975315 1_555
O31 V16 1.969257 1_555
O31 V0 1.973967 1_555
O31 V15 2.022513 1_555
O32 V1 1.761935 1_555
O32 V16 2.031901 1_545
O32 V15 2.069085 1_455
O33 V17 1.829161 1_555
O33 V2 1.829161 1_555
