# generated using pymatgen
data_Mn5NiO12
_symmetry_space_group_name_H-M   'P 1'
_cell_length_a   5.02989933
_cell_length_b   5.02989933
_cell_length_c   9.71011407
_cell_angle_alpha   89.99660470
_cell_angle_beta   89.99660470
_cell_angle_gamma   120.06735070
_symmetry_Int_Tables_number   1
_chemical_formula_structural   Mn5NiO12
_chemical_formula_sum   'Mn5 Ni1 O12'
_cell_volume   212.60741351
_cell_formula_units_Z   1
loop_
 _symmetry_equiv_pos_site_id
 _symmetry_equiv_pos_as_xyz
  1  'x, y, z'
loop_
 _atom_site_type_symbol
 _atom_site_label
 _atom_site_symmetry_multiplicity
 _atom_site_fract_x
 _atom_site_fract_y
 _atom_site_fract_z
 _atom_site_occupancy
  Mn  Mn0  1  0.16662100  0.83337900  0.50000000  1
  Mn  Mn1  1  0.33334700  0.66665300  0.00000000  1
  Mn  Mn2  1  0.50000000  0.50000000  0.50000000  1
  Mn  Mn3  1  0.66665300  0.33334700  0.00000000  1
  Mn  Mn4  1  0.83337900  0.16662100  0.50000000  1
  Ni  Ni0  1  0.00000000  0.00000000  0.00000000  1
  O  O0  1  0.00016100  0.67247000  0.90254800  1
  O  O1  1  0.32753000  0.99983900  0.09745200  1
  O  O2  1  0.16677100  0.50016300  0.59910000  1
  O  O3  1  0.49983700  0.83322900  0.40090000  1
  O  O4  1  0.32776900  0.32776900  0.90257800  1
  O  O5  1  0.16669700  0.16669700  0.40102400  1
  O  O6  1  0.67223100  0.67223100  0.09742200  1
  O  O7  1  0.83330300  0.83330300  0.59897600  1
  O  O8  1  0.50016300  0.16677100  0.59910000  1
  O  O9  1  0.83322900  0.49983700  0.40090000  1
  O  O10  1  0.99983900  0.32753000  0.09745200  1
  O  O11  1  0.67247000  0.00016100  0.90254800  1
loop_
_geom_bond_atom_site_label_1
_geom_bond_atom_site_label_2
_geom_bond_distance
_geom_bond_site_symmetry_2
Mn0 O7 1.932268 1_455
Mn0 O5 1.932268 1_565
Mn0 O8 1.932351 1_565
Mn0 O9 1.932351 1_455
Mn0 O2 1.932916 1_555
Mn0 O3 1.932916 1_555
Mn1 O11 1.936865 1_564
Mn1 O10 1.936865 1_455
Mn1 O6 1.937378 1_555
Mn1 O4 1.937378 1_554
Mn1 O0 1.937580 1_554
Mn1 O1 1.937580 1_555
Mn2 O7 1.931036 1_555
Mn2 O5 1.931036 1_555
Mn2 O2 1.933001 1_555
Mn2 O8 1.933001 1_555
Mn2 O3 1.933001 1_555
Mn2 O9 1.933001 1_555
Mn3 O0 1.936865 1_654
Mn3 O1 1.936865 1_545
Mn3 O6 1.937378 1_555
Mn3 O4 1.937378 1_554
Mn3 O11 1.937580 1_554
Mn3 O10 1.937580 1_555
Mn4 O7 1.932268 1_545
Mn4 O5 1.932268 1_655
Mn4 O2 1.932351 1_655
Mn4 O3 1.932351 1_545
Mn4 O8 1.932916 1_555
Mn4 O9 1.932916 1_555
Ni0 O6 1.899212 1_445
Ni0 O4 1.899212 1_554
Ni0 O10 1.900268 1_455
Ni0 O0 1.900268 1_544
Ni0 O11 1.900268 1_454
Ni0 O1 1.900268 1_545
