# generated using pymatgen
data_Li2MnCO4
_symmetry_space_group_name_H-M   'P 1'
_cell_length_a   5.11996000
_cell_length_b   6.85482900
_cell_length_c   11.04103526
_cell_angle_alpha   84.40064780
_cell_angle_beta   90.00000000
_cell_angle_gamma   90.00000000
_symmetry_Int_Tables_number   1
_chemical_formula_structural   Li2MnCO4
_chemical_formula_sum   'Li8 Mn4 C4 O16'
_cell_volume   385.65218480
_cell_formula_units_Z   4
loop_
 _symmetry_equiv_pos_site_id
 _symmetry_equiv_pos_as_xyz
  1  'x, y, z'
loop_
 _atom_site_type_symbol
 _atom_site_label
 _atom_site_symmetry_multiplicity
 _atom_site_fract_x
 _atom_site_fract_y
 _atom_site_fract_z
 _atom_site_occupancy
  Li  Li0  1  0.65332100  0.88214700  0.78592800  1
  Li  Li1  1  0.84667900  0.88214700  0.28592800  1
  Li  Li2  1  0.81492000  0.78070100  0.57079800  1
  Li  Li3  1  0.68508000  0.78070100  0.07079800  1
  Li  Li4  1  0.31492000  0.21929900  0.92920200  1
  Li  Li5  1  0.18508000  0.21929900  0.42920200  1
  Li  Li6  1  0.15332100  0.11785300  0.71407200  1
  Li  Li7  1  0.34667900  0.11785300  0.21407200  1
  Mn  Mn0  1  0.85375400  0.48468200  0.84360000  1
  Mn  Mn1  1  0.35375400  0.51531800  0.65640000  1
  Mn  Mn2  1  0.64624600  0.48468200  0.34360000  1
  Mn  Mn3  1  0.14624600  0.51531800  0.15640000  1
  C  C0  1  0.18684900  0.81343700  0.93584200  1
  C  C1  1  0.31315100  0.81343700  0.43584200  1
  C  C2  1  0.68684900  0.18656300  0.56415800  1
  C  C3  1  0.81315100  0.18656300  0.06415800  1
  O  O0  1  0.29884100  0.94003800  0.85669700  1
  O  O1  1  0.20115900  0.94003800  0.35669700  1
  O  O2  1  0.93632700  0.77626000  0.92747200  1
  O  O3  1  0.56367300  0.77626000  0.42747200  1
  O  O4  1  0.17622400  0.72374800  0.52320700  1
  O  O5  1  0.67342600  0.64473900  0.71032500  1
  O  O6  1  0.32377600  0.72374800  0.02320700  1
  O  O7  1  0.82657400  0.64473900  0.21032500  1
  O  O8  1  0.17342600  0.35526100  0.78967500  1
  O  O9  1  0.67622400  0.27625200  0.97679300  1
  O  O10  1  0.32657400  0.35526100  0.28967500  1
  O  O11  1  0.82377600  0.27625200  0.47679300  1
  O  O12  1  0.43632700  0.22374000  0.57252800  1
  O  O13  1  0.06367300  0.22374000  0.07252800  1
  O  O14  1  0.79884100  0.05996200  0.64330300  1
  O  O15  1  0.70115900  0.05996200  0.14330300  1
loop_
_geom_bond_atom_site_label_1
_geom_bond_atom_site_label_2
_geom_bond_distance
_geom_bond_site_symmetry_2
Li0 O5 1.902859 1_555
Li0 O0 2.030384 1_555
Li0 O14 2.036175 1_565
Li0 O2 2.201668 1_555
Li1 O7 1.902859 1_555
Li1 O1 2.030384 1_655
Li1 O15 2.036175 1_565
Li1 O3 2.201668 1_555
Li2 O5 1.867208 1_555
Li2 O4 1.972445 1_655
Li2 O3 2.041884 1_555
Li2 O14 2.147362 1_565
Li3 O7 1.867208 1_555
Li3 O6 1.972445 1_555
Li3 O2 2.041884 1_554
Li3 O15 2.147362 1_565
Li4 O8 1.867208 1_555
Li4 O9 1.972445 1_555
Li4 O13 2.041884 1_556
Li4 O0 2.147362 1_545
Li5 O10 1.867208 1_555
Li5 O11 1.972445 1_455
Li5 O12 2.041884 1_555
Li5 O1 2.147362 1_545
Li6 O8 1.902859 1_555
Li6 O14 2.030384 1_455
Li6 O0 2.036175 1_545
Li6 O12 2.201668 1_555
Li7 O10 1.902859 1_555
Li7 O15 2.030384 1_555
Li7 O1 2.036175 1_545
Li7 O13 2.201668 1_555
Mn0 O5 1.976472 1_555
Mn0 O8 1.980764 1_655
Mn0 O9 2.149449 1_555
Mn0 O2 2.322139 1_555
Mn1 O8 1.976472 1_555
Mn1 O5 1.980764 1_555
Mn1 O4 2.149449 1_555
Mn1 O12 2.322139 1_555
Mn2 O7 1.976472 1_555
Mn2 O10 1.980764 1_555
Mn2 O11 2.149449 1_555
Mn2 O3 2.322139 1_555
Mn3 O10 1.976472 1_555
Mn3 O7 1.980764 1_455
Mn3 O6 2.149449 1_555
Mn3 O13 2.322139 1_555
C0 O6 1.297765 1_556
C0 O0 1.302890 1_555
C0 O2 1.312747 1_455
C1 O4 1.297765 1_555
C1 O1 1.302890 1_555
C1 O3 1.312747 1_555
C2 O11 1.297765 1_555
C2 O14 1.302890 1_555
C2 O12 1.312747 1_555
C3 O9 1.297765 1_554
C3 O15 1.302890 1_555
C3 O13 1.312747 1_655
