# generated using pymatgen
data_La5MnRe3O16
_symmetry_space_group_name_H-M   'P 1'
_cell_length_a   8.12547908
_cell_length_b   11.45566056
_cell_length_c   16.06610170
_cell_angle_alpha   105.59437285
_cell_angle_beta   89.90215442
_cell_angle_gamma   110.79375328
_symmetry_Int_Tables_number   1
_chemical_formula_structural   La5MnRe3O16
_chemical_formula_sum   'La20 Mn4 Re12 O64'
_cell_volume   1339.28881610
_cell_formula_units_Z   4
loop_
 _symmetry_equiv_pos_site_id
 _symmetry_equiv_pos_as_xyz
  1  'x, y, z'
loop_
 _atom_site_type_symbol
 _atom_site_label
 _atom_site_symmetry_multiplicity
 _atom_site_fract_x
 _atom_site_fract_y
 _atom_site_fract_z
 _atom_site_occupancy
  La  La0  1  0.74994700  0.49989300  0.87482400  1
  La  La1  1  0.75001200  0.50006400  0.37504900  1
  La  La2  1  0.25000700  0.50004400  0.62501200  1
  La  La3  1  0.25001400  0.50000600  0.12510700  1
  La  La4  1  0.34342000  0.20084300  0.91486200  1
  La  La5  1  0.34266900  0.20115100  0.41531300  1
  La  La6  1  0.84241800  0.20101000  0.66548900  1
  La  La7  1  0.84284800  0.20095700  0.16542500  1
  La  La8  1  0.15781800  0.79898800  0.83428800  1
  La  La9  1  0.15686600  0.79901600  0.33479600  1
  La  La10  1  0.65704100  0.79890900  0.58489900  1
  La  La11  1  0.65690400  0.79915500  0.08493000  1
  La  La12  1  0.86811400  0.20980800  0.91783400  1
  La  La13  1  0.86867000  0.21014100  0.41803900  1
  La  La14  1  0.36885100  0.20977500  0.66822200  1
  La  La15  1  0.36855200  0.20999600  0.16808400  1
  La  La16  1  0.63101400  0.79004700  0.83168000  1
  La  La17  1  0.63160200  0.79018800  0.33196100  1
  La  La18  1  0.13155500  0.79005400  0.58202900  1
  La  La19  1  0.13170300  0.79005200  0.08216000  1
  Mn  Mn0  1  0.00011000  0.99999900  0.74997700  1
  Mn  Mn1  1  0.49985700  0.99997200  0.50001300  1
  Mn  Mn2  1  0.99986500  0.99999400  0.25004300  1
  Mn  Mn3  1  0.50016500  0.00001900  0.99993600  1
  Re  Re0  1  0.50008800  0.99989500  0.74971800  1
  Re  Re1  1  0.49989700  0.00010900  0.25029800  1
  Re  Re2  1  0.99990700  0.00010700  0.50032000  1
  Re  Re3  1  0.00010500  0.99988400  0.99968000  1
  Re  Re4  1  0.30301200  0.60529100  0.92841500  1
  Re  Re5  1  0.30317100  0.60553700  0.42823000  1
  Re  Re6  1  0.80309600  0.60538300  0.67834100  1
  Re  Re7  1  0.80306800  0.60541700  0.17825900  1
  Re  Re8  1  0.19687300  0.39454300  0.82171400  1
  Re  Re9  1  0.19695100  0.39466100  0.32166000  1
  Re  Re10  1  0.69690600  0.39461600  0.57169300  1
  Re  Re11  1  0.69690900  0.39455700  0.07169600  1
  O  O0  1  0.21936100  0.43422700  0.95471400  1
  O  O1  1  0.21935400  0.43422200  0.45459200  1
  O  O2  1  0.71932300  0.43425400  0.70467300  1
  O  O3  1  0.71936500  0.43411300  0.20463100  1
  O  O4  1  0.28061600  0.56571600  0.79538600  1
  O  O5  1  0.28070400  0.56586200  0.29531300  1
  O  O6  1  0.78064400  0.56571700  0.54535400  1
  O  O7  1  0.78059100  0.56581100  0.04533900  1
  O  O8  1  0.34039600  0.67523100  0.05735500  1
  O  O9  1  0.34049900  0.67535500  0.55728700  1
  O  O10  1  0.84049600  0.67538000  0.80730800  1
  O  O11  1  0.84037500  0.67527700  0.30731900  1
  O  O12  1  0.15955500  0.32468900  0.69276800  1
  O  O13  1  0.15955500  0.32467200  0.19262100  1
  O  O14  1  0.65947000  0.32459500  0.44267700  1
  O  O15  1  0.65966000  0.32480700  0.94267400  1
  O  O16  1  0.39917000  0.79848200  0.92540400  1
  O  O17  1  0.39919800  0.79864800  0.42539500  1
  O  O18  1  0.89911800  0.79841800  0.67535600  1
  O  O19  1  0.89921800  0.79849700  0.17533300  1
  O  O20  1  0.10084300  0.20153300  0.82466300  1
  O  O21  1  0.10082700  0.20156100  0.32461900  1
  O  O22  1  0.60085200  0.20141400  0.57456800  1
  O  O23  1  0.60074300  0.20143800  0.07465000  1
  O  O24  1  0.40961100  0.81679500  0.74251100  1
  O  O25  1  0.40953900  0.81732000  0.24259300  1
  O  O26  1  0.90991300  0.81758100  0.49261800  1
  O  O27  1  0.90990400  0.81769300  0.99262100  1
  O  O28  1  0.09017400  0.18222900  0.00730300  1
  O  O29  1  0.09000300  0.18244600  0.50745800  1
  O  O30  1  0.59053200  0.18320400  0.75742200  1
  O  O31  1  0.59032200  0.18270500  0.25747500  1
  O  O32  1  0.55446300  0.63540100  0.92563700  1
  O  O33  1  0.55501200  0.63538500  0.42588000  1
  O  O34  1  0.05475400  0.63528700  0.67579500  1
  O  O35  1  0.05500200  0.63545400  0.17570600  1
  O  O36  1  0.94528600  0.36479500  0.82424500  1
  O  O37  1  0.94507600  0.36450500  0.32431200  1
  O  O38  1  0.44527500  0.36465100  0.57417100  1
  O  O39  1  0.44513900  0.36453400  0.07426100  1
  O  O40  1  0.08082400  0.63466500  0.92889600  1
  O  O41  1  0.08034100  0.63457700  0.42915000  1
  O  O42  1  0.58052200  0.63446600  0.67904000  1
  O  O43  1  0.58041000  0.63466600  0.17898600  1
  O  O44  1  0.41951800  0.36565400  0.82098700  1
  O  O45  1  0.41945500  0.36522400  0.32108000  1
  O  O46  1  0.91946100  0.36543800  0.57091500  1
  O  O47  1  0.91945100  0.36529900  0.07094700  1
  O  O48  1  0.23960400  0.99646300  0.96813100  1
  O  O49  1  0.23940800  0.99640400  0.46838800  1
  O  O50  1  0.74021100  0.99637600  0.71835000  1
  O  O51  1  0.73988000  0.99657300  0.21799200  1
  O  O52  1  0.25988700  0.00356300  0.78172300  1
  O  O53  1  0.26001400  0.00349900  0.28195400  1
  O  O54  1  0.76049700  0.00369800  0.53152500  1
  O  O55  1  0.76051800  0.00345500  0.03193400  1
  O  O56  1  0.07755700  0.03762400  0.62464300  1
  O  O57  1  0.07687600  0.03799400  0.12436100  1
  O  O58  1  0.57704600  0.03761800  0.37441700  1
  O  O59  1  0.57702900  0.03823900  0.87460300  1
  O  O60  1  0.42330300  0.96189200  0.12563000  1
  O  O61  1  0.42265000  0.96223400  0.62534900  1
  O  O62  1  0.92276600  0.96247200  0.87561200  1
  O  O63  1  0.92283300  0.96192300  0.37539000  1
loop_
_geom_bond_atom_site_label_1
_geom_bond_atom_site_label_2
_geom_bond_distance
_geom_bond_site_symmetry_2
La0 O15 2.424351 1_555
La0 O10 2.424634 1_555
La0 O36 2.576494 1_555
La0 O32 2.581497 1_555
La0 O44 2.585131 1_555
La0 O40 2.589646 1_655
La0 O2 2.620029 1_555
La0 O7 2.625594 1_556
La1 O11 2.424285 1_555
La1 O14 2.425665 1_555
La1 O33 2.576711 1_555
La1 O37 2.578913 1_555
La1 O41 2.585639 1_655
La1 O45 2.587311 1_555
La1 O6 2.622416 1_555
La1 O3 2.624078 1_555
La2 O9 2.425184 1_555
La2 O12 2.425939 1_555
La2 O34 2.577638 1_555
La2 O38 2.579145 1_555
La2 O42 2.586538 1_555
La2 O46 2.587232 1_455
La2 O4 2.623482 1_555
La2 O1 2.624148 1_555
La3 O13 2.423131 1_555
La3 O8 2.424639 1_555
La3 O35 2.577289 1_555
La3 O39 2.578860 1_555
La3 O43 2.585689 1_555
La3 O47 2.587684 1_455
La3 O5 2.620814 1_555
La3 O0 2.623742 1_554
La4 O15 2.427149 1_555
La4 O20 2.451962 1_555
La4 O28 2.516703 1_556
La4 O52 2.541725 1_555
La4 O48 2.568718 1_545
La4 O44 2.630691 1_555
La4 O39 2.661328 1_556
La5 O14 2.429892 1_555
La5 O21 2.450453 1_555
La5 O29 2.510040 1_555
La5 O53 2.546627 1_555
La5 O49 2.570626 1_545
La5 O45 2.628341 1_555
La5 O38 2.654335 1_555
La6 O12 2.432610 1_655
La6 O22 2.450799 1_555
La6 O30 2.503467 1_555
La6 O54 2.550596 1_555
La6 O50 2.567495 1_545
La6 O46 2.635707 1_555
La6 O36 2.654307 1_555
La7 O13 2.429662 1_655
La7 O23 2.453310 1_555
La7 O31 2.508458 1_555
La7 O55 2.547063 1_555
La7 O51 2.562240 1_545
La7 O47 2.633812 1_555
La7 O37 2.654681 1_555
La8 O10 2.433646 1_455
La8 O16 2.451801 1_555
La8 O24 2.501342 1_555
La8 O48 2.550536 1_555
La8 O52 2.564162 1_565
La8 O40 2.635189 1_555
La8 O34 2.650829 1_555
La9 O11 2.428327 1_455
La9 O17 2.452530 1_555
La9 O25 2.510871 1_555
La9 O49 2.547214 1_555
La9 O53 2.565789 1_565
La9 O41 2.633168 1_555
La9 O35 2.657067 1_555
La10 O9 2.428403 1_555
La10 O18 2.450134 1_555
La10 O26 2.512710 1_555
La10 O50 2.546107 1_555
La10 O54 2.573828 1_565
La10 O42 2.630579 1_555
La10 O33 2.656124 1_555
La11 O8 2.428824 1_555
La11 O19 2.452023 1_555
La11 O27 2.513875 1_554
La11 O51 2.542096 1_555
La11 O55 2.565369 1_565
La11 O43 2.629950 1_555
La11 O32 2.660624 1_554
La12 O20 2.422191 1_655
La12 O59 2.431174 1_555
La12 O15 2.462321 1_555
La12 O28 2.465646 1_656
La12 O36 2.539292 1_555
La12 O47 2.553078 1_556
La13 O21 2.421459 1_655
La13 O58 2.438851 1_555
La13 O29 2.461278 1_655
La13 O14 2.463002 1_555
La13 O37 2.535542 1_555
La13 O46 2.549647 1_555
La14 O22 2.422367 1_555
La14 O56 2.435313 1_555
La14 O30 2.454304 1_555
La14 O12 2.467536 1_555
La14 O38 2.544125 1_555
La14 O44 2.550901 1_555
La15 O23 2.421776 1_555
La15 O57 2.436948 1_555
La15 O31 2.461241 1_555
La15 O13 2.463395 1_555
La15 O39 2.538276 1_555
La15 O45 2.550766 1_555
La16 O16 2.422169 1_555
La16 O62 2.439488 1_555
La16 O24 2.453335 1_555
La16 O10 2.466742 1_555
La16 O32 2.540911 1_555
La16 O42 2.548157 1_555
La17 O17 2.422979 1_555
La17 O63 2.432947 1_555
La17 O25 2.461876 1_555
La17 O11 2.463803 1_555
La17 O33 2.541819 1_555
La17 O43 2.551591 1_555
La18 O18 2.421983 1_455
La18 O61 2.434041 1_555
La18 O26 2.462102 1_455
La18 O9 2.463264 1_555
La18 O34 2.539576 1_555
La18 O41 2.550183 1_555
La19 O19 2.420930 1_455
La19 O60 2.435516 1_555
La19 O8 2.462517 1_555
La19 O27 2.465079 1_454
La19 O35 2.535329 1_555
La19 O40 2.554819 1_554
Mn0 O20 2.147579 1_565
Mn0 O18 2.147724 1_455
Mn0 O52 2.156067 1_565
Mn0 O50 2.156321 1_455
Mn0 O56 2.214997 1_565
Mn0 O62 2.219087 1_455
Mn1 O17 2.145384 1_555
Mn1 O22 2.146181 1_565
Mn1 O49 2.160909 1_555
Mn1 O54 2.161291 1_565
Mn1 O61 2.215051 1_555
Mn1 O58 2.218678 1_565
Mn2 O19 2.147348 1_555
Mn2 O21 2.147402 1_665
Mn2 O51 2.159501 1_555
Mn2 O53 2.159891 1_665
Mn2 O63 2.216217 1_555
Mn2 O57 2.221077 1_665
Mn3 O23 2.146660 1_556
Mn3 O16 2.146940 1_545
Mn3 O55 2.162141 1_556
Mn3 O48 2.162520 1_545
Mn3 O59 2.216296 1_555
Mn3 O60 2.221504 1_546
O0 Re4 1.994800 1_555
O0 Re8 2.055727 1_555
O1 Re5 1.997910 1_555
O1 Re9 2.054775 1_555
O2 Re6 1.995727 1_555
O2 Re10 2.055453 1_555
O3 Re7 1.997879 1_555
O3 Re11 2.054833 1_555
O4 Re8 1.996162 1_555
O4 Re4 2.056287 1_555
O5 Re9 1.996601 1_555
O5 Re5 2.054428 1_555
O6 Re10 1.995489 1_555
O6 Re6 2.055538 1_555
O7 Re11 1.997239 1_555
O7 Re7 2.054547 1_555
O8 Re4 1.990619 1_554
O9 Re5 1.992272 1_555
O10 Re6 1.991069 1_555
O11 Re7 1.992347 1_555
O12 Re8 1.990635 1_555
O13 Re9 1.992142 1_555
O14 Re10 1.991826 1_555
O15 Re11 1.991687 1_556
O16 Re4 2.083376 1_555
O17 Re5 2.081652 1_555
O18 Re6 2.081578 1_555
O19 Re7 2.081767 1_555
O20 Re8 2.081132 1_555
O21 Re9 2.082144 1_555
O22 Re10 2.082824 1_555
O23 Re11 2.082323 1_555
O24 Re0 1.930898 1_555
O25 Re1 1.925736 1_565
O26 Re2 1.922946 1_565
O27 Re3 1.921724 1_655
O28 Re3 1.921293 1_544
O29 Re2 1.923018 1_455
O30 Re0 1.931305 1_545
O31 Re1 1.925614 1_555
O32 Re4 1.950143 1_555
O33 Re5 1.953378 1_555
O34 Re6 1.951997 1_455
O35 Re7 1.953923 1_455
O36 Re8 1.951754 1_655
O37 Re9 1.953299 1_655
O38 Re10 1.951575 1_555
O39 Re11 1.952654 1_555
O40 Re4 1.950024 1_555
O41 Re5 1.952970 1_555
O42 Re6 1.951306 1_555
O43 Re7 1.952910 1_555
O44 Re8 1.950751 1_555
O45 Re9 1.952850 1_555
O46 Re10 1.951644 1_555
O47 Re11 1.952016 1_555
O48 Re3 2.021297 1_555
O49 Re2 2.023770 1_465
O50 Re0 2.025837 1_555
O51 Re1 2.028489 1_565
O52 Re0 2.029450 1_545
O53 Re1 2.024636 1_555
O54 Re2 2.019829 1_555
O55 Re3 2.025283 1_644
O56 Re2 1.980551 1_455
O57 Re3 1.983181 1_544
O58 Re1 1.976463 1_555
O59 Re0 1.986192 1_545
O60 Re1 1.982441 1_565
O61 Re0 1.980561 1_555
O62 Re3 1.976243 1_655
O63 Re2 1.987435 1_565
