# generated using pymatgen
data_LiNiPO4
_symmetry_space_group_name_H-M   'P 1'
_cell_length_a   6.09203738
_cell_length_b   7.38725175
_cell_length_c   7.52104932
_cell_angle_alpha   82.36680417
_cell_angle_beta   81.71926975
_cell_angle_gamma   99.82908819
_symmetry_Int_Tables_number   1
_chemical_formula_structural   LiNiPO4
_chemical_formula_sum   'Li4 Ni4 P4 O16'
_cell_volume   325.69814478
_cell_formula_units_Z   4
loop_
 _symmetry_equiv_pos_site_id
 _symmetry_equiv_pos_as_xyz
  1  'x, y, z'
loop_
 _atom_site_type_symbol
 _atom_site_label
 _atom_site_symmetry_multiplicity
 _atom_site_fract_x
 _atom_site_fract_y
 _atom_site_fract_z
 _atom_site_occupancy
  Li  Li0  1  0.77661000  0.01426700  0.51267000  1
  Li  Li1  1  0.27662000  0.01423800  0.01262800  1
  Li  Li2  1  0.22336600  0.98573200  0.48732100  1
  Li  Li3  1  0.72335300  0.98577100  0.98736100  1
  Ni  Ni0  1  0.13556300  0.40676700  0.10440900  1
  Ni  Ni1  1  0.86443500  0.59330500  0.89560800  1
  Ni  Ni2  1  0.63584000  0.40679800  0.60442100  1
  Ni  Ni3  1  0.36412300  0.59311700  0.39564000  1
  P  P0  1  0.91550900  0.73603100  0.26984600  1
  P  P1  1  0.41569500  0.73605700  0.76987400  1
  P  P2  1  0.08449700  0.26397600  0.73012200  1
  P  P3  1  0.58429700  0.26394100  0.23012800  1
  O  O0  1  0.10485900  0.61559800  0.27155700  1
  O  O1  1  0.60514700  0.61578500  0.77135200  1
  O  O2  1  0.89513800  0.38439700  0.72847200  1
  O  O3  1  0.39485700  0.38422300  0.22865900  1
  O  O4  1  0.30275900  0.38308300  0.60758500  1
  O  O5  1  0.80227100  0.38296700  0.10726100  1
  O  O6  1  0.69729100  0.61689100  0.39241600  1
  O  O7  1  0.19773200  0.61702500  0.89275200  1
  O  O8  1  0.00961000  0.08330000  0.65747600  1
  O  O9  1  0.50956200  0.08323300  0.15750000  1
  O  O10  1  0.99037600  0.91670200  0.34251000  1
  O  O11  1  0.49043000  0.91677500  0.84249300  1
  O  O12  1  0.36928600  0.78443200  0.57237700  1
  O  O13  1  0.86952600  0.78453000  0.07222000  1
  O  O14  1  0.63070800  0.21556700  0.42762200  1
  O  O15  1  0.13053900  0.21549000  0.92772100  1
loop_
_geom_bond_atom_site_label_1
_geom_bond_atom_site_label_2
_geom_bond_distance
_geom_bond_site_symmetry_2
Li0 O14 1.942386 1_555
Li0 O8 1.951079 1_655
Li0 O10 1.984602 1_545
Li1 O15 1.942485 1_554
Li1 O9 1.951097 1_555
Li1 O11 1.984234 1_544
Li2 O12 1.942473 1_555
Li2 O10 1.951054 1_455
Li2 O8 1.984553 1_565
Li3 O13 1.942671 1_556
Li3 O11 1.950989 1_555
Li3 O9 1.984176 1_566
Ni0 O3 1.967208 1_555
Ni0 O5 2.004639 1_455
Ni0 O7 2.014616 1_554
Ni0 O15 2.063794 1_554
Ni0 O0 2.131019 1_555
Ni1 O1 1.967127 1_555
Ni1 O7 2.004717 1_655
Ni1 O5 2.014973 1_556
Ni1 O13 2.063074 1_556
Ni1 O2 2.131422 1_555
Ni2 O2 1.966195 1_555
Ni2 O4 2.003070 1_555
Ni2 O6 2.015831 1_555
Ni2 O14 2.064143 1_555
Ni2 O1 2.130854 1_555
Ni3 O0 1.966244 1_555
Ni3 O6 2.003494 1_555
Ni3 O4 2.015288 1_555
Ni3 O12 2.064273 1_555
Ni3 O3 2.130577 1_555
O0 P0 1.572870 1_455
O1 P1 1.572500 1_555
O2 P2 1.572837 1_655
O3 P3 1.572487 1_555
O4 P2 1.556821 1_555
O5 P3 1.556418 1_555
O6 P0 1.556822 1_555
O7 P1 1.556421 1_555
O8 P2 1.531573 1_555
O9 P3 1.531523 1_555
O10 P0 1.531586 1_555
O11 P1 1.531553 1_555
O12 P1 1.558349 1_555
O13 P0 1.558465 1_555
O14 P3 1.558331 1_555
O15 P2 1.558388 1_555
