# generated using pymatgen
data_Ho2WO6
_symmetry_space_group_name_H-M   'P 1'
_cell_length_a   5.19434332
_cell_length_b   9.01439248
_cell_length_c   9.85030711
_cell_angle_alpha   90.00000000
_cell_angle_beta   90.00000000
_cell_angle_gamma   90.00000000
_symmetry_Int_Tables_number   1
_chemical_formula_structural   Ho2WO6
_chemical_formula_sum   'Ho8 W4 O24'
_cell_volume   461.22929629
_cell_formula_units_Z   4
loop_
 _symmetry_equiv_pos_site_id
 _symmetry_equiv_pos_as_xyz
  1  'x, y, z'
loop_
 _atom_site_type_symbol
 _atom_site_label
 _atom_site_symmetry_multiplicity
 _atom_site_fract_x
 _atom_site_fract_y
 _atom_site_fract_z
 _atom_site_occupancy
  Ho  Ho0  1  0.01873566  0.39652955  0.03419949  1
  Ho  Ho1  1  0.03809459  0.28051466  0.62766601  1
  Ho  Ho2  1  0.46190541  0.71948534  0.12766601  1
  Ho  Ho3  1  0.48126434  0.60347045  0.53419949  1
  Ho  Ho4  1  0.51873566  0.10347045  0.96580051  1
  Ho  Ho5  1  0.53809459  0.21948534  0.37233399  1
  Ho  Ho6  1  0.96190541  0.78051466  0.87233399  1
  Ho  Ho7  1  0.98126434  0.89652955  0.46580051  1
  W  W0  1  0.03900918  0.00501742  0.15309449  1
  W  W1  1  0.46099082  0.99498258  0.65309449  1
  W  W2  1  0.53900918  0.49498258  0.84690551  1
  W  W3  1  0.96099082  0.50501742  0.34690551  1
  O  O0  1  0.08486758  0.65691422  0.46967175  1
  O  O1  1  0.17664942  0.54682028  0.20164996  1
  O  O2  1  0.18004344  0.86199436  0.68103493  1
  O  O3  1  0.19431679  0.85945171  0.26458833  1
  O  O4  1  0.23204951  0.38564051  0.43221240  1
  O  O5  1  0.25173308  0.08971754  0.50547428  1
  O  O6  1  0.24826692  0.91028246  0.00547428  1
  O  O7  1  0.26795049  0.61435949  0.93221240  1
  O  O8  1  0.30568321  0.14054829  0.76458833  1
  O  O9  1  0.31995656  0.13800564  0.18103493  1
  O  O10  1  0.32335058  0.45317972  0.70164996  1
  O  O11  1  0.41513242  0.34308578  0.96967175  1
  O  O12  1  0.58486758  0.84308578  0.53032825  1
  O  O13  1  0.67664942  0.95317972  0.79835004  1
  O  O14  1  0.68004344  0.63800564  0.31896507  1
  O  O15  1  0.69431679  0.64054829  0.73541167  1
  O  O16  1  0.73204951  0.11435949  0.56778760  1
  O  O17  1  0.75173308  0.41028246  0.49452572  1
  O  O18  1  0.74826692  0.58971754  0.99452572  1
  O  O19  1  0.76795049  0.88564051  0.06778760  1
  O  O20  1  0.80568321  0.35945171  0.23541167  1
  O  O21  1  0.81995656  0.36199436  0.81896507  1
  O  O22  1  0.82335058  0.04682028  0.29835004  1
  O  O23  1  0.91513242  0.15691422  0.03032825  1
loop_
_geom_bond_atom_site_label_1
_geom_bond_atom_site_label_2
_geom_bond_distance
_geom_bond_site_symmetry_2
Ho0 O11 2.208093 1_554
Ho0 O23 2.226343 1_455
Ho0 O18 2.271390 1_454
Ho0 O1 2.286679 1_555
Ho0 O20 2.294506 1_455
Ho0 O21 2.378646 1_454
Ho0 O7 2.557483 1_554
Ho1 O16 2.262391 1_455
Ho1 O10 2.269182 1_555
Ho1 O17 2.302364 1_455
Ho1 O8 2.311479 1_555
Ho1 O21 2.318221 1_455
Ho1 O4 2.370595 1_555
Ho1 O5 2.374511 1_555
Ho2 O19 2.262391 1_555
Ho2 O1 2.269182 1_555
Ho2 O18 2.302364 1_554
Ho2 O3 2.311479 1_555
Ho2 O14 2.318221 1_555
Ho2 O7 2.370595 1_554
Ho2 O6 2.374511 1_555
Ho3 O0 2.208093 1_555
Ho3 O12 2.226343 1_555
Ho3 O17 2.271390 1_555
Ho3 O10 2.286679 1_555
Ho3 O15 2.294506 1_555
Ho3 O14 2.378646 1_555
Ho3 O4 2.557483 1_555
Ho4 O23 2.208093 1_556
Ho4 O11 2.226343 1_555
Ho4 O6 2.271390 1_546
Ho4 O13 2.286679 1_545
Ho4 O8 2.294506 1_555
Ho4 O9 2.378646 1_556
Ho4 O19 2.557483 1_546
Ho5 O4 2.262391 1_555
Ho5 O22 2.269182 1_555
Ho5 O5 2.302364 1_555
Ho5 O20 2.311479 1_555
Ho5 O9 2.318221 1_555
Ho5 O16 2.370595 1_555
Ho5 O17 2.374511 1_555
Ho6 O7 2.262391 1_655
Ho6 O13 2.269182 1_555
Ho6 O6 2.302364 1_656
Ho6 O15 2.311479 1_555
Ho6 O2 2.318221 1_655
Ho6 O19 2.370595 1_556
Ho6 O18 2.374511 1_555
Ho7 O12 2.208093 1_555
Ho7 O0 2.226343 1_655
Ho7 O5 2.271390 1_665
Ho7 O22 2.286679 1_565
Ho7 O3 2.294506 1_655
Ho7 O2 2.378646 1_655
Ho7 O16 2.557483 1_565
O0 W3 1.936821 1_455
O1 W3 1.855823 1_455
O2 W1 1.908547 1_555
O3 W0 1.891767 1_565
O4 W3 1.961250 1_455
O5 W1 2.006283 1_545
O6 W0 2.006283 1_565
O7 W2 1.961250 1_555
O8 W1 1.891767 1_545
O9 W0 1.908547 1_555
O10 W2 1.855823 1_555
O11 W2 1.936821 1_555
O12 W1 1.936821 1_555
O13 W1 1.855823 1_555
O14 W3 1.908547 1_555
O15 W2 1.891767 1_555
O16 W1 1.961250 1_545
O17 W3 2.006283 1_555
O18 W2 2.006283 1_555
O19 W0 1.961250 1_665
O20 W3 1.891767 1_555
O21 W2 1.908547 1_555
O22 W0 1.855823 1_655
O23 W0 1.936821 1_655
