# generated using pymatgen
data_Li5Fe8(BO3)8
_symmetry_space_group_name_H-M   'P 1'
_cell_length_a   5.25555000
_cell_length_b   5.25798573
_cell_length_c   20.20398808
_cell_angle_alpha   90.86279047
_cell_angle_beta   89.96815607
_cell_angle_gamma   119.89890113
_symmetry_Int_Tables_number   1
_chemical_formula_structural   Li5Fe8(BO3)8
_chemical_formula_sum   'Li5 Fe8 B8 O24'
_cell_volume   483.93121835
_cell_formula_units_Z   1
loop_
 _symmetry_equiv_pos_site_id
 _symmetry_equiv_pos_as_xyz
  1  'x, y, z'
loop_
 _atom_site_type_symbol
 _atom_site_label
 _atom_site_symmetry_multiplicity
 _atom_site_fract_x
 _atom_site_fract_y
 _atom_site_fract_z
 _atom_site_occupancy
  Li  Li0  1  0.67320900  0.65245000  0.32961900  1
  Li  Li1  1  0.64565400  0.66766100  0.08012400  1
  Li  Li2  1  0.64537500  0.66672800  0.58284700  1
  Li  Li3  1  0.33238200  0.34208800  0.45113200  1
  Li  Li4  1  0.34056100  0.34053500  0.94646400  1
  Fe  Fe0  1  0.01369700  0.67552600  0.19030800  1
  Fe  Fe1  1  0.01573300  0.67685900  0.69120000  1
  Fe  Fe2  1  0.31680600  0.00539600  0.06452100  1
  Fe  Fe3  1  0.31614300  0.00125000  0.56468100  1
  Fe  Fe4  1  0.67634600  0.00700800  0.43958100  1
  Fe  Fe5  1  0.67878000  0.99503400  0.93990300  1
  Fe  Fe6  1  0.00960400  0.32237300  0.31297100  1
  Fe  Fe7  1  0.99373700  0.33152500  0.81740700  1
  B  B0  1  0.99228700  0.33223000  0.06365500  1
  B  B1  1  0.99302900  0.32951200  0.56407800  1
  B  B2  1  0.67400800  0.00902100  0.18697000  1
  B  B3  1  0.67328300  0.00977600  0.68901800  1
  B  B4  1  0.33979700  0.99871700  0.31432500  1
  B  B5  1  0.33513000  0.00184100  0.81561500  1
  B  B6  1  0.00309100  0.67104700  0.43872200  1
  B  B7  1  0.00517500  0.67233600  0.93982900  1
  O  O0  1  0.90234700  0.27587800  0.20923200  1
  O  O1  1  0.89673000  0.27479400  0.71489200  1
  O  O2  1  0.73752000  0.07249100  0.04731600  1
  O  O3  1  0.97331800  0.57691200  0.08659200  1
  O  O4  1  0.73914200  0.06824000  0.54782100  1
  O  O5  1  0.97236900  0.57251800  0.58743200  1
  O  O6  1  0.40490900  0.98263800  0.17074900  1
  O  O7  1  0.73476200  0.65868300  0.43257700  1
  O  O8  1  0.40796900  0.98738200  0.67046900  1
  O  O9  1  0.73745700  0.65251300  0.94363000  1
  O  O10  1  0.71144300  0.76976000  0.17953300  1
  O  O11  1  0.71828900  0.77735200  0.67895100  1
  O  O12  1  0.34996400  0.26264200  0.32032900  1
  O  O13  1  0.29157600  0.23396100  0.82336900  1
  O  O14  1  0.26264800  0.35406100  0.05554700  1
  O  O15  1  0.58199300  0.97174700  0.33129400  1
  O  O16  1  0.26576900  0.35463400  0.55606600  1
  O  O17  1  0.59774200  0.01793400  0.83334500  1
  O  O18  1  0.02251200  0.42240800  0.42284300  1
  O  O19  1  0.02662300  0.42636500  0.91793900  1
  O  O20  1  0.25236500  0.92854000  0.45920600  1
  O  O21  1  0.26122900  0.92761400  0.95818500  1
  O  O22  1  0.07683900  0.74642200  0.29238200  1
  O  O23  1  0.10868100  0.73243600  0.79030800  1
loop_
_geom_bond_atom_site_label_1
_geom_bond_atom_site_label_2
_geom_bond_distance
_geom_bond_site_symmetry_2
Li0 O12 1.907779 1_555
Li0 O15 1.962184 1_555
Li0 O22 2.067495 1_655
Li0 O7 2.102599 1_555
Li1 O14 1.919572 1_555
Li1 O3 2.007868 1_555
Li1 O2 2.054496 1_565
Li1 O10 2.055456 1_555
Li2 O16 1.917400 1_555
Li2 O11 1.999978 1_555
Li2 O5 2.014337 1_555
Li2 O4 2.051338 1_565
Li3 O18 1.962429 1_555
Li3 O7 1.972833 1_555
Li3 O20 2.007632 1_545
Li3 O16 2.153987 1_555
Li4 O9 1.906989 1_555
Li4 O19 2.002309 1_555
Li4 O21 2.014114 1_545
Li4 O14 2.247947 1_556
Li4 O13 2.525950 1_555
Fe0 O10 1.898569 1_455
Fe0 O6 1.923379 1_555
Fe0 O0 1.924132 1_455
Fe0 O22 2.087212 1_555
Fe0 O3 2.136115 1_455
Fe1 O11 1.900520 1_455
Fe1 O8 1.937747 1_555
Fe1 O1 1.949745 1_455
Fe1 O23 2.043205 1_555
Fe1 O5 2.142334 1_455
Fe2 O14 2.001266 1_555
Fe2 O2 2.087910 1_555
Fe2 O3 2.123254 1_445
Fe2 O21 2.173337 1_544
Fe2 O6 2.213389 1_545
Fe3 O16 2.013226 1_555
Fe3 O4 2.098658 1_555
Fe3 O5 2.127711 1_445
Fe3 O20 2.155979 1_545
Fe3 O8 2.201672 1_545
Fe4 O7 2.005327 1_545
Fe4 O18 2.062728 1_655
Fe4 O20 2.092837 1_545
Fe4 O4 2.206510 1_555
Fe4 O15 2.228048 1_545
Fe5 O9 1.975363 1_555
Fe5 O21 2.074911 1_555
Fe5 O19 2.139737 1_665
Fe5 O2 2.195358 1_566
Fe5 O17 2.211516 1_565
Fe6 O12 1.970341 1_555
Fe6 O15 2.115538 1_445
Fe6 O22 2.124036 1_555
Fe6 O0 2.149182 1_455
Fe6 O18 2.266812 1_555
Fe7 O13 1.878952 1_655
Fe7 O17 1.935944 1_555
Fe7 O23 1.968033 1_655
Fe7 O19 2.070764 1_655
Fe7 O1 2.114184 1_555
B0 O14 1.377193 1_655
B0 O2 1.389530 1_555
B0 O3 1.410576 1_555
B1 O16 1.381995 1_655
B1 O4 1.391035 1_555
B1 O5 1.409644 1_555
B2 O10 1.372935 1_545
B2 O0 1.383514 1_555
B2 O6 1.389370 1_545
B3 O11 1.368005 1_545
B3 O8 1.390738 1_545
B3 O1 1.393353 1_555
B4 O12 1.365406 1_565
B4 O15 1.392751 1_555
B4 O22 1.421791 1_555
B5 O13 1.356184 1_555
B5 O17 1.386924 1_555
B5 O23 1.408028 1_545
B6 O7 1.384523 1_455
B6 O20 1.391420 1_555
B6 O18 1.393859 1_555
B7 O9 1.360273 1_455
B7 O21 1.391010 1_555
B7 O19 1.417398 1_555
