# generated using pymatgen
data_LiFe2(BO3)2
_symmetry_space_group_name_H-M   'P 1'
_cell_length_a   5.24061526
_cell_length_b   9.15571646
_cell_length_c   11.32480559
_cell_angle_alpha   66.50654905
_cell_angle_beta   77.06653165
_cell_angle_gamma   89.07226698
_symmetry_Int_Tables_number   1
_chemical_formula_structural   LiFe2(BO3)2
_chemical_formula_sum   'Li4 Fe8 B8 O24'
_cell_volume   484.07230648
_cell_formula_units_Z   4
loop_
 _symmetry_equiv_pos_site_id
 _symmetry_equiv_pos_as_xyz
  1  'x, y, z'
loop_
 _atom_site_type_symbol
 _atom_site_label
 _atom_site_symmetry_multiplicity
 _atom_site_fract_x
 _atom_site_fract_y
 _atom_site_fract_z
 _atom_site_occupancy
  Li  Li0  1  0.96780000  0.96143500  0.40661000  1
  Li  Li1  1  0.70918200  0.73128200  0.90564200  1
  Li  Li2  1  0.51763700  0.49523600  0.65417100  1
  Li  Li3  1  0.23683000  0.24929400  0.15508900  1
  Fe  Fe0  1  0.98359900  0.64106800  0.37594700  1
  Fe  Fe1  1  0.73910100  0.07287900  0.88244600  1
  Fe  Fe2  1  0.50712600  0.85140800  0.63199000  1
  Fe  Fe3  1  0.76794200  0.43633200  0.12785000  1
  Fe  Fe4  1  0.22463500  0.55989600  0.87767400  1
  Fe  Fe5  1  0.47654400  0.15335400  0.38469100  1
  Fe  Fe6  1  0.03536000  0.33671400  0.63031300  1
  Fe  Fe7  1  0.24863500  0.93141600  0.12823400  1
  B  B0  1  0.97874900  0.30562300  0.37550700  1
  B  B1  1  0.73562400  0.39960600  0.87369300  1
  B  B2  1  0.53767200  0.18577300  0.63405900  1
  B  B3  1  0.75781800  0.11279900  0.12880600  1
  B  B4  1  0.47019500  0.81633500  0.38087700  1
  B  B5  1  0.23596200  0.89705900  0.87641100  1
  B  B6  1  0.00968800  0.68187000  0.62570000  1
  B  B7  1  0.26952100  0.59643600  0.12677400  1
  O  O0  1  0.97275700  0.90241700  0.88021000  1
  O  O1  1  0.88736700  0.28570700  0.84719400  1
  O  O2  1  0.83876600  0.49608000  0.92739700  1
  O  O3  1  0.86960400  0.81496000  0.61933100  1
  O  O4  1  0.91426300  0.56629100  0.59601300  1
  O  O5  1  0.75457100  0.14913300  0.68778200  1
  O  O6  1  0.74518400  0.32676800  0.32965800  1
  O  O7  1  0.49462500  0.42223700  0.84909600  1
  O  O8  1  0.38545900  0.79144600  0.82854900  1
  O  O9  1  0.56557500  0.93468300  0.42423400  1
  O  O10  1  0.61162600  0.69381200  0.38501400  1
  O  O11  1  0.36910500  0.98519300  0.92090100  1
  O  O12  1  0.64010200  0.02858800  0.07590800  1
  O  O13  1  0.40841700  0.31565000  0.62613600  1
  O  O14  1  0.45573900  0.08218700  0.57959400  1
  O  O15  1  0.59685600  0.22035900  0.17178900  1
  O  O16  1  0.54001400  0.59920100  0.10664500  1
  O  O17  1  0.25272000  0.67089700  0.66305300  1
  O  O18  1  0.23212800  0.84478000  0.34437300  1
  O  O19  1  0.05957000  0.40381000  0.42361700  1
  O  O20  1  0.12448400  0.18041000  0.36232700  1
  O  O21  1  0.14940600  0.48510600  0.09191400  1
  O  O22  1  0.12866700  0.69763400  0.17078100  1
  O  O23  1  0.00770500  0.10116900  0.14448700  1
loop_
_geom_bond_atom_site_label_1
_geom_bond_atom_site_label_2
_geom_bond_distance
_geom_bond_site_symmetry_2
Li0 O18 1.916155 1_655
Li0 O20 2.003149 1_665
Li0 O9 2.081469 1_555
Li0 O3 2.181360 1_555
Li1 O0 1.994541 1_555
Li1 O8 2.047715 1_555
Li1 O16 2.089645 1_556
Li1 O2 2.182597 1_555
Li2 O13 1.913105 1_555
Li2 O7 2.010317 1_555
Li2 O4 2.065623 1_555
Li2 O17 2.125646 1_555
Li3 O23 1.882173 1_555
Li3 O15 1.941496 1_555
Li3 O21 2.065508 1_555
Li3 O20 2.113255 1_555
Fe0 O10 1.990785 1_555
Fe0 O19 2.074107 1_655
Fe0 O22 2.123046 1_655
Fe0 O18 2.154390 1_655
Fe0 O4 2.248144 1_555
Fe1 O1 1.962161 1_555
Fe1 O0 1.972708 1_545
Fe1 O11 1.996896 1_545
Fe1 O12 2.005836 1_556
Fe1 O5 2.012131 1_555
Fe2 O3 1.906865 1_555
Fe2 O14 1.985611 1_565
Fe2 O17 2.007635 1_555
Fe2 O8 2.016097 1_555
Fe2 O9 2.113177 1_555
Fe3 O16 1.869037 1_555
Fe3 O21 1.970099 1_655
Fe3 O15 2.008671 1_555
Fe3 O2 2.056609 1_554
Fe3 O6 2.073094 1_555
Fe4 O7 1.938488 1_555
Fe4 O2 2.003483 1_455
Fe4 O8 2.102831 1_555
Fe4 O21 2.183315 1_556
Fe4 O17 2.199395 1_555
Fe5 O20 1.916749 1_555
Fe5 O9 1.942950 1_545
Fe5 O6 1.944735 1_555
Fe5 O14 2.014017 1_555
Fe5 O15 2.177130 1_555
Fe6 O13 1.953282 1_555
Fe6 O5 2.073757 1_455
Fe6 O4 2.094749 1_455
Fe6 O19 2.143801 1_555
Fe6 O1 2.257590 1_455
Fe7 O23 2.025874 1_565
Fe7 O22 2.072347 1_555
Fe7 O12 2.108560 1_565
Fe7 O11 2.139838 1_554
Fe7 O18 2.233272 1_555
B0 O19 1.338107 1_655
B0 O20 1.406020 1_655
B0 O6 1.414919 1_555
B1 O7 1.348572 1_555
B1 O1 1.387718 1_555
B1 O2 1.425898 1_555
B2 O13 1.340502 1_555
B2 O5 1.381752 1_555
B2 O14 1.436115 1_555
B3 O23 1.357327 1_655
B3 O12 1.372221 1_555
B3 O15 1.445616 1_555
B4 O10 1.325395 1_555
B4 O18 1.389169 1_555
B4 O9 1.488837 1_555
B5 O0 1.371061 1_455
B5 O11 1.375354 1_555
B5 O8 1.430338 1_555
B6 O4 1.363440 1_455
B6 O3 1.397723 1_455
B6 O17 1.419272 1_555
B7 O22 1.353907 1_555
B7 O16 1.383461 1_555
B7 O21 1.429661 1_555
