# generated using pymatgen
data_LiLaTi2O6
_symmetry_space_group_name_H-M   'P 1'
_cell_length_a   5.55939900
_cell_length_b   5.55185500
_cell_length_c   7.76769300
_cell_angle_alpha   89.99924026
_cell_angle_beta   90.00000000
_cell_angle_gamma   90.00000000
_symmetry_Int_Tables_number   1
_chemical_formula_structural   LiLaTi2O6
_chemical_formula_sum   'Li2 La2 Ti4 O12'
_cell_volume   239.74966684
_cell_formula_units_Z   2
loop_
 _symmetry_equiv_pos_site_id
 _symmetry_equiv_pos_as_xyz
  1  'x, y, z'
loop_
 _atom_site_type_symbol
 _atom_site_label
 _atom_site_symmetry_multiplicity
 _atom_site_fract_x
 _atom_site_fract_y
 _atom_site_fract_z
 _atom_site_occupancy
  Li  Li0  1  0.50000000  0.00000000  0.50000000  1
  Li  Li1  1  0.50000000  0.00000000  0.00000000  1
  La  La0  1  0.00907900  0.50000000  0.75000000  1
  La  La1  1  0.99092100  0.50000000  0.25000000  1
  Ti  Ti0  1  0.50000000  0.50000000  0.50000000  1
  Ti  Ti1  1  0.00000000  0.00000000  0.50000000  1
  Ti  Ti2  1  0.00000000  0.00000000  0.00000000  1
  Ti  Ti3  1  0.50000000  0.50000000  0.00000000  1
  O  O0  1  0.76856300  0.26903800  0.98215200  1
  O  O1  1  0.74950200  0.75000000  0.98027000  1
  O  O2  1  0.74950200  0.25000000  0.51973000  1
  O  O3  1  0.45543900  0.50000000  0.75000000  1
  O  O4  1  0.76856300  0.73096200  0.51784800  1
  O  O5  1  0.23143700  0.26903800  0.48215200  1
  O  O6  1  0.03779900  0.00000000  0.75000000  1
  O  O7  1  0.54456100  0.50000000  0.25000000  1
  O  O8  1  0.96220100  0.00000000  0.25000000  1
  O  O9  1  0.25049800  0.75000000  0.48027000  1
  O  O10  1  0.25049800  0.25000000  0.01973000  1
  O  O11  1  0.23143700  0.73096200  0.01784800  1
loop_
_geom_bond_atom_site_label_1
_geom_bond_atom_site_label_2
_geom_bond_distance
_geom_bond_site_symmetry_2
Li0 O9 1.968230 1_545
Li0 O2 1.968230 1_555
Li0 O4 2.116466 1_545
Li0 O5 2.116466 1_555
Li1 O10 1.968230 1_555
Li1 O1 1.968230 1_544
Li1 O0 2.116466 1_554
Li1 O11 2.116466 1_545
La0 O3 2.481493 1_555
La0 O0 2.585322 1_455
La0 O4 2.585322 1_455
La0 O2 2.684838 1_455
La0 O1 2.684838 1_455
La0 O11 2.738822 1_556
La0 O5 2.738822 1_555
La0 O6 2.780516 1_555
La0 O6 2.780516 1_565
La0 O9 2.849122 1_555
La0 O10 2.849122 1_556
La0 O3 3.077906 1_455
La1 O7 2.481493 1_555
La1 O5 2.585322 1_655
La1 O11 2.585322 1_655
La1 O10 2.684838 1_655
La1 O9 2.684838 1_655
La1 O4 2.738822 1_555
La1 O0 2.738822 1_554
La1 O8 2.780516 1_555
La1 O8 2.780516 1_565
La1 O1 2.849122 1_554
La1 O2 2.849122 1_555
La1 O7 3.077906 1_655
O0 Ti3 1.972975 1_556
O0 Ti2 1.976286 1_656
O1 Ti3 1.968227 1_556
O1 Ti2 1.972137 1_666
O2 Ti0 1.968227 1_555
O2 Ti1 1.972137 1_655
O3 Ti0 1.957661 1_555
O3 Ti3 1.957661 1_556
O4 Ti0 1.972975 1_555
O4 Ti1 1.976286 1_665
O5 Ti0 1.972975 1_555
O5 Ti1 1.976286 1_555
O6 Ti1 1.953260 1_555
O6 Ti2 1.953260 1_556
O7 Ti0 1.957661 1_555
O7 Ti3 1.957661 1_555
O8 Ti2 1.953260 1_655
O8 Ti1 1.953260 1_655
O9 Ti0 1.968227 1_555
O9 Ti1 1.972137 1_565
O10 Ti3 1.968227 1_555
O10 Ti2 1.972137 1_555
O11 Ti3 1.972975 1_555
O11 Ti2 1.976286 1_565
