# generated using pymatgen
data_Li3Fe5OF11
_symmetry_space_group_name_H-M   'P 1'
_cell_length_a   5.25608145
_cell_length_b   5.68770688
_cell_length_c   9.45684111
_cell_angle_alpha   86.64649737
_cell_angle_beta   72.56108210
_cell_angle_gamma   116.84259771
_symmetry_Int_Tables_number   1
_chemical_formula_structural   Li3Fe5OF11
_chemical_formula_sum   'Li3 Fe5 O1 F11'
_cell_volume   234.33524056
_cell_formula_units_Z   1
loop_
 _symmetry_equiv_pos_site_id
 _symmetry_equiv_pos_as_xyz
  1  'x, y, z'
loop_
 _atom_site_type_symbol
 _atom_site_label
 _atom_site_symmetry_multiplicity
 _atom_site_fract_x
 _atom_site_fract_y
 _atom_site_fract_z
 _atom_site_occupancy
  Li  Li0  1  0.02168800  0.03410500  0.99593400  1
  Li  Li1  1  0.52829600  0.29714200  0.26791700  1
  Li  Li2  1  0.51418900  0.76964300  0.75798300  1
  Fe  Fe0  1  0.98540700  0.49853400  0.49697900  1
  Fe  Fe1  1  0.30959400  0.77263900  0.14430000  1
  Fe  Fe2  1  0.30480900  0.23415200  0.64830600  1
  Fe  Fe3  1  0.77955400  0.00960400  0.40110700  1
  Fe  Fe4  1  0.80646500  0.50542500  0.90734900  1
  O  O0  1  0.61024300  0.25746800  0.45675900  1
  F  F0  1  0.08051600  0.86101100  0.35324700  1
  F  F1  1  0.23018700  0.42234400  0.28822600  1
  F  F2  1  0.20944200  0.89422800  0.80530700  1
  F  F3  1  0.39637300  0.15599800  0.04017600  1
  F  F4  1  0.37468700  0.64385300  0.54602800  1
  F  F5  1  0.09400600  0.33905400  0.84869900  1
  F  F6  1  0.90880500  0.58838600  0.10723700  1
  F  F7  1  0.60216200  0.75012000  0.94654500  1
  F  F8  1  0.70458900  0.51214200  0.70887800  1
  F  F9  1  0.70018800  0.99862200  0.19158400  1
  F  F10  1  0.88855800  0.07992800  0.61231700  1
loop_
_geom_bond_atom_site_label_1
_geom_bond_atom_site_label_2
_geom_bond_distance
_geom_bond_site_symmetry_2
Li1 O0 1.981758 1_555
Fe0 O0 1.995466 1_555
Fe2 O0 1.978065 1_555
Fe3 O0 1.998867 1_555
F0 Fe3 2.060208 1_465
F0 Fe0 2.163806 1_455
F0 Fe1 2.200815 1_555
F0 Li1 2.387222 1_565
F1 Li1 1.960205 1_555
F1 Fe1 2.141867 1_555
F1 Fe0 2.195804 1_455
F1 Fe3 2.330348 1_455
F2 Li2 1.974980 1_555
F2 Fe2 2.129923 1_565
F2 Fe4 2.145471 1_455
F2 Li0 2.160362 1_565
F3 Li0 1.956762 1_554
F3 Fe4 2.095289 1_554
F3 Fe1 2.124477 1_545
F3 Li1 2.521588 1_555
F4 Fe0 2.042361 1_455
F4 Fe3 2.157512 1_565
F4 Fe2 2.291506 1_555
F4 Li2 2.375324 1_555
F5 Li0 1.973930 1_555
F5 Fe4 2.082715 1_455
F5 Fe2 2.155402 1_555
F5 Li2 2.312017 1_555
F6 Li1 1.986205 1_555
F6 Fe1 2.037308 1_655
F6 Fe4 2.137721 1_554
F6 Li0 2.417003 1_664
F7 Li2 1.980747 1_555
F7 Fe1 2.088233 1_556
F7 Fe4 2.097364 1_555
F7 Li0 2.275628 1_665
F8 Fe4 2.103199 1_555
F8 Li2 2.118220 1_555
F8 Fe0 2.132761 1_555
F8 Fe2 2.251769 1_555
F9 Li0 2.023349 1_664
F9 Fe1 2.073945 1_555
F9 Fe3 2.142507 1_565
F9 Li1 2.314743 1_565
F10 Li2 1.959309 1_545
F10 Fe2 2.102393 1_655
F10 Fe3 2.247262 1_555
F10 Fe0 2.320863 1_555
