# generated using pymatgen
data_Na4Co2O5
_symmetry_space_group_name_H-M   'P 1'
_cell_length_a   9.69830500
_cell_length_b   10.79080600
_cell_length_c   11.52112145
_cell_angle_alpha   88.21151924
_cell_angle_beta   90.00000000
_cell_angle_gamma   90.00000000
_symmetry_Int_Tables_number   1
_chemical_formula_structural   Na4Co2O5
_chemical_formula_sum   'Na32 Co16 O40'
_cell_volume   1205.12712557
_cell_formula_units_Z   8
loop_
 _symmetry_equiv_pos_site_id
 _symmetry_equiv_pos_as_xyz
  1  'x, y, z'
loop_
 _atom_site_type_symbol
 _atom_site_label
 _atom_site_symmetry_multiplicity
 _atom_site_fract_x
 _atom_site_fract_y
 _atom_site_fract_z
 _atom_site_occupancy
  Na  Na0  1  0.33337700  0.97946200  0.74082200  1
  Na  Na1  1  0.16662300  0.97946200  0.24082200  1
  Na  Na2  1  0.12960700  0.92809100  0.95299100  1
  Na  Na3  1  0.61549500  0.90058300  0.94691600  1
  Na  Na4  1  0.37039300  0.92809100  0.45299100  1
  Na  Na5  1  0.88450500  0.90058300  0.44691600  1
  Na  Na6  1  0.58768500  0.81815700  0.66102000  1
  Na  Na7  1  0.91231500  0.81815700  0.16102000  1
  Na  Na8  1  0.36106400  0.68808300  0.83185200  1
  Na  Na9  1  0.13893600  0.68808300  0.33185200  1
  Na  Na10  1  0.87215300  0.60069500  0.52840100  1
  Na  Na11  1  0.62784700  0.60069500  0.02840100  1
  Na  Na12  1  0.37198500  0.56927800  0.56886700  1
  Na  Na13  1  0.12801500  0.56927800  0.06886700  1
  Na  Na14  1  0.09237400  0.52926900  0.74134600  1
  Na  Na15  1  0.59237400  0.47073100  0.75865400  1
  Na  Na16  1  0.40762600  0.52926900  0.24134600  1
  Na  Na17  1  0.90762600  0.47073100  0.25865400  1
  Na  Na18  1  0.87198500  0.43072200  0.93113300  1
  Na  Na19  1  0.62801500  0.43072200  0.43113300  1
  Na  Na20  1  0.37215300  0.39930500  0.97159900  1
  Na  Na21  1  0.12784700  0.39930500  0.47159900  1
  Na  Na22  1  0.86106400  0.31191700  0.66814800  1
  Na  Na23  1  0.63893600  0.31191700  0.16814800  1
  Na  Na24  1  0.08768500  0.18184300  0.83898000  1
  Na  Na25  1  0.41231500  0.18184300  0.33898000  1
  Na  Na26  1  0.11549500  0.09941700  0.55308400  1
  Na  Na27  1  0.62960700  0.07190900  0.54700900  1
  Na  Na28  1  0.38450500  0.09941700  0.05308400  1
  Na  Na29  1  0.87039300  0.07190900  0.04700900  1
  Na  Na30  1  0.83337700  0.02053800  0.75917800  1
  Na  Na31  1  0.66662300  0.02053800  0.25917800  1
  Co  Co0  1  0.02606700  0.83633400  0.72669800  1
  Co  Co1  1  0.47393300  0.83633400  0.22669800  1
  Co  Co2  1  0.18048000  0.77041500  0.56559300  1
  Co  Co3  1  0.31952000  0.77041500  0.06559300  1
  Co  Co4  1  0.93286900  0.73171800  0.93576000  1
  Co  Co5  1  0.56713100  0.73171800  0.43576000  1
  Co  Co6  1  0.78386000  0.66473000  0.76890300  1
  Co  Co7  1  0.71614000  0.66473000  0.26890300  1
  Co  Co8  1  0.28386000  0.33527000  0.73109700  1
  Co  Co9  1  0.21614000  0.33527000  0.23109700  1
  Co  Co10  1  0.43286900  0.26828200  0.56424000  1
  Co  Co11  1  0.06713100  0.26828200  0.06424000  1
  Co  Co12  1  0.68048000  0.22958500  0.93440700  1
  Co  Co13  1  0.81952000  0.22958500  0.43440700  1
  Co  Co14  1  0.52606700  0.16366600  0.77330200  1
  Co  Co15  1  0.97393300  0.16366600  0.27330200  1
  O  O0  1  0.09159300  0.98519000  0.74921500  1
  O  O1  1  0.40840700  0.98519000  0.24921500  1
  O  O2  1  0.36810900  0.88454700  0.96034700  1
  O  O3  1  0.87834100  0.88555800  0.95347600  1
  O  O4  1  0.13189100  0.88454700  0.46034700  1
  O  O5  1  0.62165900  0.88555800  0.45347600  1
  O  O6  1  0.85881000  0.79882400  0.66682300  1
  O  O7  1  0.33986800  0.79194100  0.63779300  1
  O  O8  1  0.64119000  0.79882400  0.16682300  1
  O  O9  1  0.16013200  0.79194100  0.13779300  1
  O  O10  1  0.08954000  0.71599900  0.84922000  1
  O  O11  1  0.62233100  0.69383900  0.83107400  1
  O  O12  1  0.41046000  0.71599900  0.34922000  1
  O  O13  1  0.87766900  0.69383900  0.33107400  1
  O  O14  1  0.12595800  0.61660200  0.54607700  1
  O  O15  1  0.61123000  0.61541900  0.53715500  1
  O  O16  1  0.37404200  0.61660200  0.04607700  1
  O  O17  1  0.88877000  0.61541900  0.03715500  1
  O  O18  1  0.84823800  0.51743300  0.73660800  1
  O  O19  1  0.65176200  0.51743300  0.23660800  1
  O  O20  1  0.34823800  0.48256700  0.76339200  1
  O  O21  1  0.15176200  0.48256700  0.26339200  1
  O  O22  1  0.11123000  0.38458100  0.96284500  1
  O  O23  1  0.62595800  0.38339800  0.95392300  1
  O  O24  1  0.38877000  0.38458100  0.46284500  1
  O  O25  1  0.87404200  0.38339800  0.45392300  1
  O  O26  1  0.12233100  0.30616100  0.66892600  1
  O  O27  1  0.58954000  0.28400100  0.65078000  1
  O  O28  1  0.37766900  0.30616100  0.16892600  1
  O  O29  1  0.91046000  0.28400100  0.15078000  1
  O  O30  1  0.83986800  0.20805900  0.86220700  1
  O  O31  1  0.35881000  0.20117600  0.83317700  1
  O  O32  1  0.66013200  0.20805900  0.36220700  1
  O  O33  1  0.14119000  0.20117600  0.33317700  1
  O  O34  1  0.37834100  0.11444200  0.54652400  1
  O  O35  1  0.86810900  0.11545300  0.53965300  1
  O  O36  1  0.12165900  0.11444200  0.04652400  1
  O  O37  1  0.63189100  0.11545300  0.03965300  1
  O  O38  1  0.59159300  0.01481000  0.75078500  1
  O  O39  1  0.90840700  0.01481000  0.25078500  1
loop_
_geom_bond_atom_site_label_1
_geom_bond_atom_site_label_2
_geom_bond_distance
_geom_bond_site_symmetry_2
Na0 O0 2.347781 1_555
Na0 O7 2.378538 1_555
Na0 O38 2.536278 1_565
Na0 O31 2.660044 1_565
Na0 O34 2.668179 1_565
Na0 O2 2.719834 1_555
Na1 O1 2.347781 1_555
Na1 O9 2.378538 1_555
Na1 O39 2.536278 1_465
Na1 O33 2.660044 1_565
Na1 O36 2.668179 1_565
Na1 O4 2.719834 1_555
Na2 O36 2.312155 1_566
Na2 O2 2.361303 1_555
Na2 O0 2.436614 1_555
Na2 O3 2.479673 1_455
Na2 O9 2.565935 1_556
Na2 O10 2.643679 1_555
Na3 O2 2.410082 1_555
Na3 O38 2.550530 1_565
Na3 O3 2.555280 1_555
Na3 O37 2.587947 1_566
Na3 O11 2.636011 1_555
Na3 O8 2.741020 1_556
Na4 O34 2.312155 1_565
Na4 O4 2.361303 1_555
Na4 O1 2.436614 1_555
Na4 O5 2.479673 1_555
Na4 O7 2.565935 1_555
Na4 O12 2.643679 1_555
Na5 O4 2.410082 1_655
Na5 O39 2.550530 1_565
Na5 O5 2.555280 1_555
Na5 O35 2.587947 1_565
Na5 O13 2.636011 1_555
Na5 O6 2.741020 1_555
Na6 O11 2.363675 1_555
Na6 O38 2.389781 1_565
Na6 O7 2.435717 1_555
Na6 O5 2.499308 1_555
Na6 O6 2.638398 1_555
Na6 O15 2.658869 1_555
Na7 O13 2.363675 1_555
Na7 O39 2.389781 1_565
Na7 O9 2.435717 1_655
Na7 O3 2.499308 1_554
Na7 O8 2.638398 1_555
Na7 O17 2.658869 1_555
Na8 O20 2.380101 1_555
Na8 O7 2.478013 1_555
Na8 O11 2.534617 1_555
Na8 O16 2.565843 1_556
Na8 O2 2.624232 1_555
Na8 O10 2.658747 1_555
Na9 O21 2.380101 1_555
Na9 O9 2.478013 1_555
Na9 O13 2.534617 1_455
Na9 O14 2.565843 1_555
Na9 O4 2.624232 1_555
Na9 O12 2.658747 1_555
Na10 O13 2.457424 1_555
Na10 O14 2.476286 1_655
Na10 O25 2.521972 1_555
Na10 O15 2.537696 1_555
Na10 O18 2.545710 1_555
Na10 O6 2.709946 1_555
Na11 O11 2.457424 1_554
Na11 O16 2.476286 1_555
Na11 O23 2.521972 1_554
Na11 O17 2.537696 1_555
Na11 O19 2.545710 1_555
Na11 O8 2.709946 1_555
Na12 O24 2.375430 1_555
Na12 O15 2.398685 1_555
Na12 O20 2.412547 1_555
Na12 O14 2.452460 1_555
Na12 O7 2.572888 1_555
Na12 O12 2.966416 1_555
Na13 O22 2.375430 1_554
Na13 O17 2.398685 1_455
Na13 O21 2.412547 1_555
Na13 O16 2.452460 1_555
Na13 O9 2.572888 1_555
Na13 O10 2.966416 1_554
Na14 O18 2.371868 1_455
Na14 O10 2.400373 1_555
Na14 O14 2.433739 1_555
Na14 O20 2.543240 1_555
Na14 O26 2.588837 1_555
Na14 O22 2.955449 1_555
Na15 O20 2.371868 1_555
Na15 O27 2.400373 1_555
Na15 O23 2.433739 1_555
Na15 O18 2.543240 1_555
Na15 O11 2.588837 1_555
Na15 O15 2.955449 1_555
Na16 O19 2.371868 1_555
Na16 O12 2.400373 1_555
Na16 O16 2.433739 1_555
Na16 O21 2.543240 1_555
Na16 O28 2.588837 1_555
Na16 O24 2.955449 1_555
Na17 O21 2.371868 1_655
Na17 O29 2.400373 1_555
Na17 O25 2.433739 1_555
Na17 O19 2.543240 1_555
Na17 O13 2.588837 1_555
Na17 O17 2.955449 1_555
Na18 O17 2.375430 1_556
Na18 O22 2.398685 1_655
Na18 O18 2.412547 1_555
Na18 O23 2.452460 1_555
Na18 O30 2.572888 1_555
Na18 O29 2.966416 1_556
Na19 O15 2.375430 1_555
Na19 O24 2.398685 1_555
Na19 O19 2.412547 1_555
Na19 O25 2.452460 1_555
Na19 O32 2.572888 1_555
Na19 O27 2.966416 1_555
Na20 O28 2.457424 1_556
Na20 O23 2.476286 1_555
Na20 O16 2.521972 1_556
Na20 O22 2.537696 1_555
Na20 O20 2.545710 1_555
Na20 O31 2.709946 1_555
Na21 O26 2.457424 1_555
Na21 O25 2.476286 1_455
Na21 O14 2.521972 1_555
Na21 O24 2.537696 1_555
Na21 O21 2.545710 1_555
Na21 O33 2.709946 1_555
Na22 O18 2.380101 1_555
Na22 O30 2.478013 1_555
Na22 O26 2.534617 1_655
Na22 O25 2.565843 1_555
Na22 O35 2.624232 1_555
Na22 O27 2.658747 1_555
Na23 O19 2.380101 1_555
Na23 O32 2.478013 1_555
Na23 O28 2.534617 1_555
Na23 O23 2.565843 1_554
Na23 O37 2.624232 1_555
Na23 O29 2.658747 1_555
Na24 O26 2.363675 1_555
Na24 O0 2.389781 1_545
Na24 O30 2.435717 1_455
Na24 O36 2.499308 1_556
Na24 O31 2.638398 1_555
Na24 O22 2.658869 1_555
Na25 O28 2.363675 1_555
Na25 O1 2.389781 1_545
Na25 O32 2.435717 1_555
Na25 O34 2.499308 1_555
Na25 O33 2.638398 1_555
Na25 O24 2.658869 1_555
Na26 O35 2.410082 1_455
Na26 O0 2.550530 1_545
Na26 O34 2.555280 1_555
Na26 O4 2.587947 1_545
Na26 O26 2.636011 1_555
Na26 O33 2.741020 1_555
Na27 O5 2.312155 1_545
Na27 O35 2.361303 1_555
Na27 O38 2.436614 1_555
Na27 O34 2.479673 1_555
Na27 O32 2.565935 1_555
Na27 O27 2.643679 1_555
Na28 O37 2.410082 1_555
Na28 O1 2.550530 1_545
Na28 O36 2.555280 1_555
Na28 O2 2.587947 1_544
Na28 O28 2.636011 1_555
Na28 O31 2.741020 1_554
Na29 O3 2.312155 1_544
Na29 O37 2.361303 1_555
Na29 O39 2.436614 1_555
Na29 O36 2.479673 1_655
Na29 O30 2.565935 1_554
Na29 O29 2.643679 1_555
Na30 O38 2.347781 1_555
Na30 O30 2.378538 1_555
Na30 O0 2.536278 1_645
Na30 O6 2.660044 1_545
Na30 O3 2.668179 1_545
Na30 O35 2.719834 1_555
Na31 O39 2.347781 1_555
Na31 O32 2.378538 1_555
Na31 O1 2.536278 1_545
Na31 O8 2.660044 1_545
Na31 O5 2.668179 1_545
Na31 O37 2.719834 1_555
Co0 O0 1.754218 1_555
Co0 O6 1.813384 1_455
Co0 O10 1.985761 1_555
Co1 O1 1.754218 1_555
Co1 O8 1.813384 1_555
Co1 O12 1.985761 1_555
Co2 O14 1.763030 1_555
Co2 O4 1.765193 1_555
Co2 O7 1.774099 1_555
Co3 O16 1.763030 1_555
Co3 O2 1.765193 1_554
Co3 O9 1.774099 1_555
Co4 O17 1.740972 1_556
Co4 O3 1.760188 1_555
Co4 O10 1.828146 1_655
Co5 O15 1.740972 1_555
Co5 O5 1.760188 1_555
Co5 O12 1.828146 1_555
Co6 O11 1.754955 1_555
Co6 O18 1.758277 1_555
Co6 O6 1.974603 1_555
Co7 O13 1.754955 1_555
Co7 O19 1.758277 1_555
Co7 O8 1.974603 1_555
Co8 O26 1.754955 1_555
Co8 O20 1.758277 1_555
Co8 O31 1.974603 1_555
Co9 O28 1.754955 1_555
Co9 O21 1.758277 1_555
Co9 O33 1.974603 1_555
Co10 O24 1.740972 1_555
Co10 O34 1.760188 1_555
Co10 O27 1.828146 1_555
Co11 O22 1.740972 1_554
Co11 O36 1.760188 1_555
Co11 O29 1.828146 1_455
Co12 O23 1.763030 1_555
Co12 O37 1.765193 1_556
Co12 O30 1.774099 1_555
Co13 O25 1.763030 1_555
Co13 O35 1.765193 1_555
Co13 O32 1.774099 1_555
Co14 O38 1.754218 1_555
Co14 O31 1.813384 1_555
Co14 O27 1.985761 1_555
Co15 O39 1.754218 1_555
Co15 O33 1.813384 1_655
Co15 O29 1.985761 1_555
