# generated using pymatgen
data_VCo3(PO4)4
_symmetry_space_group_name_H-M   'P 1'
_cell_length_a   4.86060617
_cell_length_b   9.86322428
_cell_length_c   5.91284700
_cell_angle_alpha   90.00000000
_cell_angle_beta   90.00000000
_cell_angle_gamma   91.40720491
_symmetry_Int_Tables_number   1
_chemical_formula_structural   VCo3(PO4)4
_chemical_formula_sum   'V1 Co3 P4 O16'
_cell_volume   283.38377738
_cell_formula_units_Z   1
loop_
 _symmetry_equiv_pos_site_id
 _symmetry_equiv_pos_as_xyz
  1  'x, y, z'
loop_
 _atom_site_type_symbol
 _atom_site_label
 _atom_site_symmetry_multiplicity
 _atom_site_fract_x
 _atom_site_fract_y
 _atom_site_fract_z
 _atom_site_occupancy
  V  V0  1  0.97658100  0.27233000  0.25000000  1
  Co  Co0  1  0.03086600  0.72370400  0.75000000  1
  Co  Co1  1  0.46644000  0.23100600  0.75000000  1
  Co  Co2  1  0.55362800  0.77404500  0.25000000  1
  P  P0  1  0.09222200  0.59755300  0.25000000  1
  P  P1  1  0.39245300  0.09718600  0.25000000  1
  P  P2  1  0.58430700  0.90165300  0.75000000  1
  P  P3  1  0.92746300  0.40448600  0.75000000  1
  O  O0  1  0.15128000  0.44010600  0.25000000  1
  O  O1  1  0.24578900  0.66524700  0.04680500  1
  O  O2  1  0.24578900  0.66524700  0.45319500  1
  O  O3  1  0.23635300  0.39214300  0.75000000  1
  O  O4  1  0.27080500  0.87284700  0.75000000  1
  O  O5  1  0.24128900  0.17120600  0.04964400  1
  O  O6  1  0.24128900  0.17120600  0.45035600  1
  O  O7  1  0.34371200  0.94530800  0.25000000  1
  O  O8  1  0.64952400  0.05188300  0.75000000  1
  O  O9  1  0.72625900  0.82740900  0.54373900  1
  O  O10  1  0.72625900  0.82740900  0.95626100  1
  O  O11  1  0.70466300  0.13339100  0.25000000  1
  O  O12  1  0.78065400  0.61176000  0.25000000  1
  O  O13  1  0.78054400  0.33283100  0.54277700  1
  O  O14  1  0.78054400  0.33283100  0.95722300  1
  O  O15  1  0.85128300  0.55721400  0.75000000  1
loop_
_geom_bond_atom_site_label_1
_geom_bond_atom_site_label_2
_geom_bond_distance
_geom_bond_site_symmetry_2
Co0 O15 1.840681 1_455
Co0 O4 1.854671 1_555
Co0 O2 2.129136 1_555
Co0 O1 2.129136 1_556
Co0 O10 2.190921 1_455
Co0 O9 2.190921 1_455
Co1 O3 1.965707 1_555
Co1 O8 1.997618 1_555
Co1 O5 2.157064 1_556
Co1 O6 2.157064 1_555
Co1 O14 2.183021 1_555
Co1 O13 2.183021 1_555
Co2 O12 1.966347 1_555
Co2 O9 1.993993 1_555
Co2 O10 1.993993 1_554
Co2 O7 1.994773 1_555
Co2 O2 2.180608 1_555
Co2 O1 2.180608 1_555
O0 P0 1.586160 1_555
O0 V0 1.841312 1_455
O1 P0 1.556273 1_555
O2 P0 1.556273 1_555
O3 P3 1.509297 1_455
O4 P2 1.543197 1_555
O5 P1 1.581982 1_555
O5 V0 2.028979 1_455
O6 P1 1.581982 1_555
O6 V0 2.028979 1_455
O7 P1 1.510867 1_565
O8 P2 1.507649 1_545
O9 P2 1.588874 1_555
O10 P2 1.588874 1_555
O11 P1 1.550419 1_555
O11 V0 1.880387 1_555
O12 P0 1.524301 1_655
O13 P3 1.576697 1_555
O13 V0 2.070948 1_555
O14 P3 1.576697 1_555
O14 V0 2.070948 1_556
O15 P3 1.560037 1_555
