# generated using pymatgen
data_TiCr(PO4)2
_symmetry_space_group_name_H-M   'P 1'
_cell_length_a   8.59399600
_cell_length_b   8.60681222
_cell_length_c   8.63609573
_cell_angle_alpha   60.18645137
_cell_angle_beta   61.08447812
_cell_angle_gamma   60.06216817
_symmetry_Int_Tables_number   1
_chemical_formula_structural   TiCr(PO4)2
_chemical_formula_sum   'Ti3 Cr3 P6 O24'
_cell_volume   456.14135382
_cell_formula_units_Z   3
loop_
 _symmetry_equiv_pos_site_id
 _symmetry_equiv_pos_as_xyz
  1  'x, y, z'
loop_
 _atom_site_type_symbol
 _atom_site_label
 _atom_site_symmetry_multiplicity
 _atom_site_fract_x
 _atom_site_fract_y
 _atom_site_fract_z
 _atom_site_occupancy
  Ti  Ti0  1  0.06331900  0.64474700  0.64756400  1
  Ti  Ti1  1  0.43289200  0.85682400  0.85341900  1
  Ti  Ti2  1  0.93670200  0.35558900  0.35201300  1
  Cr  Cr0  1  0.00049400  0.99930900  0.00093800  1
  Cr  Cr1  1  0.57176300  0.14205900  0.14384300  1
  Cr  Cr2  1  0.49719200  0.50075500  0.50097100  1
  P  P0  1  0.25127500  0.54003500  0.95950700  1
  P  P1  1  0.25533200  0.24917700  0.53817000  1
  P  P2  1  0.25240100  0.95634800  0.24965900  1
  P  P3  1  0.74877100  0.04480200  0.75106700  1
  P  P4  1  0.74646500  0.75149000  0.45819300  1
  P  P5  1  0.75041300  0.45677900  0.04146700  1
  O  O0  1  0.07109700  0.30767500  0.50067900  1
  O  O1  1  0.07105500  0.11749900  0.31042700  1
  O  O2  1  0.07257300  0.49997400  0.12216000  1
  O  O3  1  0.23570500  0.73635600  0.94175500  1
  O  O4  1  0.43239100  0.38115800  0.99177400  1
  O  O5  1  0.25292900  0.56126500  0.76935500  1
  O  O6  1  0.24286800  0.08452600  0.72991800  1
  O  O7  1  0.26129400  0.41458500  0.56205200  1
  O  O8  1  0.56979200  0.00317700  0.81103500  1
  O  O9  1  0.26555000  0.76033900  0.41508800  1
  O  O10  1  0.77010400  0.05624200  0.91429600  1
  O  O11  1  0.57059600  0.80558500  0.62065500  1
  O  O12  1  0.43121200  0.19664500  0.37975100  1
  O  O13  1  0.22935000  0.94462800  0.08654500  1
  O  O14  1  0.73046700  0.24011400  0.58526700  1
  O  O15  1  0.43142900  0.99199500  0.19173300  1
  O  O16  1  0.73548600  0.58492400  0.44118600  1
  O  O17  1  0.75887200  0.91533900  0.26830600  1
  O  O18  1  0.74338500  0.44211400  0.23131300  1
  O  O19  1  0.56938700  0.61987400  0.00297500  1
  O  O20  1  0.76469600  0.26242600  0.05865200  1
  O  O21  1  0.92679500  0.49864100  0.88067100  1
  O  O22  1  0.92784900  0.88543500  0.68923500  1
  O  O23  1  0.92810500  0.69156800  0.49835800  1
loop_
_geom_bond_atom_site_label_1
_geom_bond_atom_site_label_2
_geom_bond_distance
_geom_bond_site_symmetry_2
Cr0 O13 2.184628 1_555
Cr0 O10 2.195446 1_464
Cr0 O20 2.246883 1_465
Cr0 O3 2.248157 1_554
Cr0 O17 2.316815 1_455
Cr0 O6 2.336270 1_564
Cr1 O4 1.941088 1_554
Cr1 O15 1.958304 1_545
Cr1 O12 1.958572 1_555
Cr1 O17 2.000684 1_545
Cr1 O20 2.034859 1_555
Cr1 O10 2.076660 1_554
Cr2 O9 2.201255 1_555
Cr2 O14 2.209083 1_555
Cr2 O7 2.239603 1_555
Cr2 O16 2.252022 1_555
Cr2 O5 2.335373 1_555
Cr2 O18 2.343633 1_555
O0 P1 1.550221 1_555
O0 Ti2 1.893297 1_455
O1 P2 1.550276 1_545
O1 Ti2 1.905396 1_455
O2 P0 1.552859 1_554
O2 Ti2 1.897919 1_455
O3 P0 1.559831 1_555
O3 Ti1 2.060543 1_555
O4 P0 1.512072 1_555
O5 P0 1.553050 1_555
O5 Ti0 2.003789 1_555
O6 P1 1.551908 1_555
O6 Ti1 2.014126 1_545
O7 P1 1.564254 1_555
O7 Ti0 2.059096 1_555
O8 P3 1.535461 1_555
O8 Ti1 1.925910 1_545
O9 P2 1.571345 1_555
O9 Ti0 2.099173 1_555
O10 P3 1.560899 1_555
O11 P4 1.538234 1_555
O11 Ti1 1.922465 1_555
O12 P1 1.514609 1_555
O13 P2 1.569988 1_555
O13 Ti1 2.114735 1_554
O14 P3 1.568842 1_555
O14 Ti2 2.121739 1_555
O15 P2 1.511888 1_555
O16 P4 1.563161 1_555
O16 Ti2 2.072741 1_555
O17 P4 1.539722 1_555
O18 P5 1.553611 1_555
O18 Ti2 2.017219 1_555
O19 P5 1.535469 1_555
O19 Ti1 1.913498 1_554
O20 P5 1.549528 1_555
O21 P5 1.538811 1_556
O21 Ti0 1.918827 1_655
O22 P3 1.536769 1_565
O22 Ti0 1.924885 1_655
O23 P4 1.537934 1_555
O23 Ti0 1.907182 1_655
