# generated using pymatgen
data_Li10Fe9CoO20
_symmetry_space_group_name_H-M   'P 1'
_cell_length_a   2.97297400
_cell_length_b   5.97913600
_cell_length_c   21.25559247
_cell_angle_alpha   82.45842055
_cell_angle_beta   90.00000000
_cell_angle_gamma   90.00000000
_symmetry_Int_Tables_number   1
_chemical_formula_structural   Li10Fe9CoO20
_chemical_formula_sum   'Li10 Fe9 Co1 O20'
_cell_volume   374.56717478
_cell_formula_units_Z   1
loop_
 _symmetry_equiv_pos_site_id
 _symmetry_equiv_pos_as_xyz
  1  'x, y, z'
loop_
 _atom_site_type_symbol
 _atom_site_label
 _atom_site_symmetry_multiplicity
 _atom_site_fract_x
 _atom_site_fract_y
 _atom_site_fract_z
 _atom_site_occupancy
  Li  Li0  1  0.50000000  0.50000000  0.00000000  1
  Li  Li1  1  0.00000000  0.70308600  0.09827000  1
  Li  Li2  1  0.50000000  0.89966800  0.20065000  1
  Li  Li3  1  0.00000000  0.10025400  0.29990500  1
  Li  Li4  1  0.00000000  0.50000000  0.50000000  1
  Li  Li5  1  0.50000000  0.29999000  0.40003000  1
  Li  Li6  1  0.50000000  0.70001000  0.59997000  1
  Li  Li7  1  0.00000000  0.89974600  0.70009500  1
  Li  Li8  1  0.50000000  0.10033200  0.79935000  1
  Li  Li9  1  0.00000000  0.29691400  0.90173000  1
  Fe  Fe0  1  0.50000000  0.39918600  0.19870500  1
  Fe  Fe1  1  0.00000000  0.19528200  0.09778000  1
  Fe  Fe2  1  0.00000000  0.59923200  0.29975600  1
  Fe  Fe3  1  0.50000000  0.79987500  0.39996800  1
  Fe  Fe4  1  0.00000000  0.00000000  0.50000000  1
  Fe  Fe5  1  0.00000000  0.40076800  0.70024400  1
  Fe  Fe6  1  0.50000000  0.20012500  0.60003200  1
  Fe  Fe7  1  0.50000000  0.60081400  0.80129500  1
  Fe  Fe8  1  0.00000000  0.80471800  0.90222000  1
  Co  Co0  1  0.50000000  0.00000000  0.00000000  1
  O  O0  1  0.00000000  0.78058800  0.99824600  1
  O  O1  1  0.50000000  0.03552700  0.90638600  1
  O  O2  1  0.00000000  0.21941200  0.00175400  1
  O  O3  1  0.50000000  0.43300500  0.10106400  1
  O  O4  1  0.50000000  0.96447300  0.09361400  1
  O  O5  1  0.00000000  0.63510900  0.20215600  1
  O  O6  1  0.00000000  0.16385500  0.19620100  1
  O  O7  1  0.50000000  0.36508500  0.29676200  1
  O  O8  1  0.00000000  0.56495600  0.39718800  1
  O  O9  1  0.50000000  0.83488200  0.30264000  1
  O  O10  1  0.00000000  0.03501500  0.40272700  1
  O  O11  1  0.50000000  0.76495200  0.49726100  1
  O  O12  1  0.00000000  0.43504400  0.60281200  1
  O  O13  1  0.00000000  0.96498500  0.59727300  1
  O  O14  1  0.50000000  0.23504800  0.50273900  1
  O  O15  1  0.00000000  0.36489100  0.79784400  1
  O  O16  1  0.50000000  0.63491500  0.70323800  1
  O  O17  1  0.50000000  0.16511800  0.69736000  1
  O  O18  1  0.00000000  0.83614500  0.80379900  1
  O  O19  1  0.50000000  0.56699500  0.89893600  1
loop_
_geom_bond_atom_site_label_1
_geom_bond_atom_site_label_2
_geom_bond_distance
_geom_bond_site_symmetry_2
Li0 O3 2.132895 1_555
Li0 O19 2.132895 1_554
Li0 O0 2.238125 1_554
Li0 O0 2.238125 1_654
Li0 O2 2.238125 1_655
Li0 O2 2.238125 1_555
Li1 O0 2.115726 1_554
Li1 O4 2.149743 1_555
Li1 O4 2.149743 1_455
Li1 O3 2.189918 1_555
Li1 O3 2.189918 1_455
Li1 O5 2.192163 1_555
Li2 O9 2.151565 1_555
Li2 O6 2.162069 1_565
Li2 O6 2.162069 1_665
Li2 O5 2.167851 1_555
Li2 O5 2.167851 1_655
Li2 O4 2.257184 1_555
Li3 O7 2.166492 1_455
Li3 O7 2.166492 1_555
Li3 O10 2.169095 1_555
Li3 O9 2.169427 1_545
Li3 O9 2.169427 1_445
Li3 O6 2.187116 1_555
Li4 O11 2.167594 1_455
Li4 O11 2.167594 1_555
Li4 O14 2.167594 1_455
Li4 O14 2.167594 1_555
Li4 O8 2.168806 1_555
Li4 O12 2.168806 1_555
Li5 O14 2.166648 1_555
Li5 O8 2.167505 1_655
Li5 O8 2.167505 1_555
Li5 O10 2.167756 1_555
Li5 O10 2.167756 1_655
Li5 O7 2.178384 1_555
Li6 O11 2.166648 1_555
Li6 O12 2.167505 1_555
Li6 O12 2.167505 1_655
Li6 O13 2.167756 1_655
Li6 O13 2.167756 1_555
Li6 O16 2.178384 1_555
Li7 O16 2.166492 1_455
Li7 O16 2.166492 1_555
Li7 O13 2.169095 1_555
Li7 O17 2.169427 1_565
Li7 O17 2.169427 1_465
Li7 O18 2.187116 1_555
Li8 O17 2.151565 1_555
Li8 O18 2.162069 1_645
Li8 O18 2.162069 1_545
Li8 O15 2.167851 1_555
Li8 O15 2.167851 1_655
Li8 O1 2.257184 1_555
Li9 O2 2.115726 1_556
Li9 O1 2.149743 1_555
Li9 O1 2.149743 1_455
Li9 O19 2.189918 1_455
Li9 O19 2.189918 1_555
Li9 O15 2.192163 1_555
Fe0 O6 2.052315 1_655
Fe0 O6 2.052315 1_555
Fe0 O5 2.057188 1_555
Fe0 O5 2.057188 1_655
Fe0 O3 2.058661 1_555
Fe0 O7 2.067404 1_555
Fe1 O2 2.027206 1_555
Fe1 O4 2.038153 1_445
Fe1 O4 2.038153 1_545
Fe1 O3 2.064189 1_555
Fe1 O3 2.064189 1_455
Fe1 O6 2.075710 1_555
Fe2 O7 2.048675 1_555
Fe2 O7 2.048675 1_455
Fe2 O8 2.054149 1_555
Fe2 O9 2.054582 1_455
Fe2 O9 2.054582 1_555
Fe2 O5 2.057412 1_555
Fe3 O11 2.051088 1_555
Fe3 O8 2.051307 1_655
Fe3 O8 2.051307 1_555
Fe3 O9 2.051812 1_555
Fe3 O10 2.052164 1_565
Fe3 O10 2.052164 1_665
Fe4 O10 2.050648 1_555
Fe4 O13 2.050648 1_545
Fe4 O11 2.051734 1_545
Fe4 O14 2.051734 1_455
Fe4 O14 2.051734 1_555
Fe4 O11 2.051734 1_445
Fe5 O16 2.048675 1_555
Fe5 O16 2.048675 1_455
Fe5 O12 2.054149 1_555
Fe5 O17 2.054582 1_455
Fe5 O17 2.054582 1_555
Fe5 O15 2.057412 1_555
Fe6 O14 2.051088 1_555
Fe6 O12 2.051307 1_555
Fe6 O12 2.051307 1_655
Fe6 O17 2.051812 1_555
Fe6 O13 2.052164 1_545
Fe6 O13 2.052164 1_645
Fe7 O18 2.052315 1_655
Fe7 O18 2.052315 1_555
Fe7 O15 2.057188 1_555
Fe7 O15 2.057188 1_655
Fe7 O19 2.058661 1_555
Fe7 O16 2.067404 1_555
Fe8 O0 2.027206 1_555
Fe8 O1 2.038153 1_465
Fe8 O1 2.038153 1_565
Fe8 O19 2.064189 1_455
Fe8 O19 2.064189 1_555
Fe8 O18 2.075710 1_555
Co0 O1 1.973211 1_554
Co0 O4 1.973211 1_545
Co0 O2 1.986187 1_555
Co0 O2 1.986187 1_655
Co0 O0 1.986187 1_644
Co0 O0 1.986187 1_544
