# generated using pymatgen
data_Li2AlPCO7
_symmetry_space_group_name_H-M   'P 1'
_cell_length_a   6.19153500
_cell_length_b   5.01940700
_cell_length_c   8.36991026
_cell_angle_alpha   86.25234151
_cell_angle_beta   90.00000000
_cell_angle_gamma   90.00000000
_symmetry_Int_Tables_number   1
_chemical_formula_structural   Li2AlPCO7
_chemical_formula_sum   'Li4 Al2 P2 C2 O14'
_cell_volume   259.56244350
_cell_formula_units_Z   2
loop_
 _symmetry_equiv_pos_site_id
 _symmetry_equiv_pos_as_xyz
  1  'x, y, z'
loop_
 _atom_site_type_symbol
 _atom_site_label
 _atom_site_symmetry_multiplicity
 _atom_site_fract_x
 _atom_site_fract_y
 _atom_site_fract_z
 _atom_site_occupancy
  Li  Li0  1  0.01674400  0.77408700  0.78930800  1
  Li  Li1  1  0.48325600  0.77408700  0.78930800  1
  Li  Li2  1  0.51674400  0.22591300  0.21069200  1
  Li  Li3  1  0.98325600  0.22591300  0.21069200  1
  Al  Al0  1  0.25000000  0.20917400  0.65429000  1
  Al  Al1  1  0.75000000  0.79082600  0.34571000  1
  P  P0  1  0.75000000  0.27665100  0.57378200  1
  P  P1  1  0.25000000  0.72334900  0.42621800  1
  C  C0  1  0.25000000  0.26658700  0.93855300  1
  C  C1  1  0.75000000  0.73341300  0.06144700  1
  O  O0  1  0.75000000  0.69672200  0.91295900  1
  O  O1  1  0.25000000  0.03125700  0.87936400  1
  O  O2  1  0.25000000  0.46443800  0.82569200  1
  O  O3  1  0.94933500  0.18958800  0.67318800  1
  O  O4  1  0.55066500  0.18958800  0.67318800  1
  O  O5  1  0.25000000  0.85688300  0.58949300  1
  O  O6  1  0.75000000  0.58431400  0.53622600  1
  O  O7  1  0.25000000  0.41568600  0.46377400  1
  O  O8  1  0.75000000  0.14311700  0.41050700  1
  O  O9  1  0.44933500  0.81041200  0.32681200  1
  O  O10  1  0.05066500  0.81041200  0.32681200  1
  O  O11  1  0.75000000  0.53556200  0.17430800  1
  O  O12  1  0.75000000  0.96874300  0.12063600  1
  O  O13  1  0.25000000  0.30327800  0.08704100  1
loop_
_geom_bond_atom_site_label_1
_geom_bond_atom_site_label_2
_geom_bond_distance
_geom_bond_site_symmetry_2
Li0 O0 1.974085 1_455
Li0 O1 2.108879 1_565
Li0 O2 2.128925 1_555
Li0 O5 2.228147 1_555
Li0 O3 2.281103 1_465
Li1 O0 1.974085 1_555
Li1 O1 2.108879 1_565
Li1 O2 2.128925 1_555
Li1 O5 2.228147 1_555
Li1 O4 2.281103 1_565
Li2 O13 1.974085 1_555
Li2 O12 2.108879 1_545
Li2 O11 2.128925 1_555
Li2 O8 2.228147 1_555
Li2 O9 2.281103 1_545
Li3 O13 1.974085 1_655
Li3 O12 2.108879 1_545
Li3 O11 2.128925 1_555
Li3 O8 2.228147 1_555
Li3 O10 2.281103 1_645
Al0 O7 1.844221 1_555
Al0 O4 1.870327 1_555
Al0 O3 1.870327 1_455
Al0 O5 1.883179 1_545
Al0 O2 1.984965 1_555
Al0 O1 2.031374 1_555
Al1 O6 1.844221 1_555
Al1 O10 1.870327 1_655
Al1 O9 1.870327 1_555
Al1 O8 1.883179 1_565
Al1 O11 1.984965 1_555
Al1 O12 2.031374 1_555
C0 O13 1.268254 1_556
C0 O1 1.310420 1_555
C0 O2 1.325119 1_555
C1 O0 1.268254 1_554
C1 O12 1.310420 1_555
C1 O11 1.325119 1_555
O3 P0 1.535878 1_555
O4 P0 1.535878 1_555
O5 P1 1.560955 1_555
O6 P0 1.555690 1_555
O7 P1 1.555690 1_555
O8 P0 1.560955 1_555
O9 P1 1.535878 1_555
O10 P1 1.535878 1_555
