# generated using pymatgen
data_ZnSb
_symmetry_space_group_name_H-M   'P 1'
_cell_length_a   6.22274292
_cell_length_b   7.73399725
_cell_length_c   8.14016788
_cell_angle_alpha   90.00000000
_cell_angle_beta   90.00000000
_cell_angle_gamma   90.00000000
_symmetry_Int_Tables_number   1
_chemical_formula_structural   ZnSb
_chemical_formula_sum   'Zn8 Sb8'
_cell_volume   391.75922728
_cell_formula_units_Z   8
loop_
 _symmetry_equiv_pos_site_id
 _symmetry_equiv_pos_as_xyz
  1  'x, y, z'
loop_
 _atom_site_type_symbol
 _atom_site_label
 _atom_site_symmetry_multiplicity
 _atom_site_fract_x
 _atom_site_fract_y
 _atom_site_fract_z
 _atom_site_occupancy
  Zn  Zn0  1  0.46076497  0.10378246  0.87345371  1
  Zn  Zn1  1  0.96076497  0.39621754  0.12654629  1
  Zn  Zn2  1  0.53923503  0.60378246  0.62654629  1
  Zn  Zn3  1  0.03923503  0.89621754  0.37345371  1
  Zn  Zn4  1  0.53923503  0.89621754  0.12654629  1
  Zn  Zn5  1  0.03923503  0.60378246  0.87345371  1
  Zn  Zn6  1  0.46076497  0.39621754  0.37345371  1
  Zn  Zn7  1  0.96076497  0.10378246  0.62654629  1
  Sb  Sb0  1  0.14089299  0.08405623  0.10877972  1
  Sb  Sb1  1  0.64089299  0.41594377  0.89122028  1
  Sb  Sb2  1  0.85910701  0.58405623  0.39122028  1
  Sb  Sb3  1  0.35910701  0.91594377  0.60877972  1
  Sb  Sb4  1  0.85910701  0.91594377  0.89122028  1
  Sb  Sb5  1  0.35910701  0.58405623  0.10877972  1
  Sb  Sb6  1  0.14089299  0.41594377  0.60877972  1
  Sb  Sb7  1  0.64089299  0.08405623  0.39122028  1
loop_
_geom_bond_atom_site_label_1
_geom_bond_atom_site_label_2
_geom_bond_distance
_geom_bond_site_symmetry_2
Zn0 Zn4 2.657054 1_546
Zn1 Zn5 2.657054 1_654
Zn2 Zn6 2.657054 1_555
Zn3 Zn7 2.657054 1_465
Sb0 Zn1 2.665696 1_455
Sb0 Zn3 2.674410 1_545
Sb0 Zn0 2.766729 1_554
Sb0 Sb4 2.810962 1_444
Sb0 Zn4 2.876757 1_545
Sb1 Zn0 2.665696 1_555
Sb1 Zn2 2.674410 1_555
Sb1 Zn1 2.766729 1_556
Sb1 Sb5 2.810962 1_556
Sb1 Zn5 2.876757 1_655
Sb2 Zn3 2.665696 1_655
Sb2 Zn1 2.674410 1_555
Sb2 Zn2 2.766729 1_555
Sb2 Sb6 2.810962 1_655
Sb2 Zn6 2.876757 1_555
Sb3 Zn2 2.665696 1_555
Sb3 Zn0 2.674410 1_565
Sb3 Zn3 2.766729 1_555
Sb3 Sb7 2.810962 1_565
Sb3 Zn7 2.876757 1_465
Sb4 Zn5 2.665696 1_655
Sb4 Zn7 2.674410 1_565
Sb4 Zn4 2.766729 1_556
Sb4 Zn0 2.876757 1_565
Sb5 Zn4 2.665696 1_555
Sb5 Zn6 2.674410 1_555
Sb5 Zn5 2.766729 1_554
Sb5 Zn1 2.876757 1_455
Sb6 Zn7 2.665696 1_455
Sb6 Zn5 2.674410 1_555
Sb6 Zn6 2.766729 1_555
Sb6 Zn2 2.876757 1_555
Sb7 Zn6 2.665696 1_555
Sb7 Zn4 2.674410 1_545
Sb7 Zn7 2.766729 1_555
Sb7 Zn3 2.876757 1_645
