# generated using pymatgen
data_LiCu5(PO4)2
_symmetry_space_group_name_H-M   'P 1'
_cell_length_a   5.62092700
_cell_length_b   6.23277164
_cell_length_c   10.30148568
_cell_angle_alpha   89.48498812
_cell_angle_beta   88.27299265
_cell_angle_gamma   88.19528264
_symmetry_Int_Tables_number   1
_chemical_formula_structural   LiCu5(PO4)2
_chemical_formula_sum   'Li2 Cu10 P4 O16'
_cell_volume   360.54723462
_cell_formula_units_Z   2
loop_
 _symmetry_equiv_pos_site_id
 _symmetry_equiv_pos_as_xyz
  1  'x, y, z'
loop_
 _atom_site_type_symbol
 _atom_site_label
 _atom_site_symmetry_multiplicity
 _atom_site_fract_x
 _atom_site_fract_y
 _atom_site_fract_z
 _atom_site_occupancy
  Li  Li0  1  0.13867200  0.00406100  0.25336900  1
  Li  Li1  1  0.68916800  0.24430900  0.75725300  1
  Cu  Cu0  1  0.25511700  0.99553700  0.77071400  1
  Cu  Cu1  1  0.37752300  0.27386000  0.48893500  1
  Cu  Cu2  1  0.33248500  0.21712600  0.99028700  1
  Cu  Cu3  1  0.64881900  0.28751300  0.27733800  1
  Cu  Cu4  1  0.74339900  0.51314900  0.01622400  1
  Cu  Cu5  1  0.74589700  0.49800800  0.50338900  1
  Cu  Cu6  1  0.63425900  0.69870300  0.27772900  1
  Cu  Cu7  1  0.64833000  0.75517500  0.77310200  1
  Cu  Cu8  1  0.37217300  0.73425700  0.50068400  1
  Cu  Cu9  1  0.36561500  0.76349200  0.98722900  1
  P  P0  1  0.83261000  0.00743100  0.00337300  1
  P  P1  1  0.85350000  0.00110300  0.50265600  1
  P  P2  1  0.15723000  0.48840700  0.73979300  1
  P  P3  1  0.17419100  0.50495100  0.23660400  1
  O  O0  1  0.83165600  0.00873700  0.35278100  1
  O  O1  1  0.11666800  0.99734600  0.54188800  1
  O  O2  1  0.84429200  0.99742600  0.85315200  1
  O  O3  1  0.08209500  0.00716400  0.06335200  1
  O  O4  1  0.71499500  0.19697400  0.56795800  1
  O  O5  1  0.68546300  0.21221100  0.04958200  1
  O  O6  1  0.32153100  0.29471400  0.78630700  1
  O  O7  1  0.29213300  0.29006200  0.28819200  1
  O  O8  1  0.17704700  0.50643700  0.08690800  1
  O  O9  1  0.91809500  0.50722300  0.29622800  1
  O  O10  1  0.15776900  0.49737300  0.58942700  1
  O  O11  1  0.90102800  0.47902500  0.79666900  1
  O  O12  1  0.28788400  0.71377300  0.28793200  1
  O  O13  1  0.28287000  0.68921600  0.79311000  1
  O  O14  1  0.72084900  0.80204700  0.56088800  1
  O  O15  1  0.69663800  0.81319000  0.06435200  1
loop_
_geom_bond_atom_site_label_1
_geom_bond_atom_site_label_2
_geom_bond_distance
_geom_bond_site_symmetry_2
Li0 O0 1.979532 1_455
Li0 O3 1.992386 1_555
Li0 O12 2.003648 1_545
Li0 O7 2.043854 1_555
Li1 O11 1.967922 1_555
Li1 O4 1.975165 1_555
Li1 O2 2.010998 1_545
Li1 O6 2.093337 1_555
Cu0 O6 1.922269 1_565
Cu0 O13 1.923073 1_555
Cu0 O2 2.435998 1_455
Cu0 O1 2.504376 1_555
Cu1 O10 2.092523 1_555
Cu1 O4 2.125885 1_555
Cu1 O7 2.137758 1_555
Cu1 O1 2.347717 1_545
Cu2 O3 2.072286 1_556
Cu2 O5 2.092711 1_556
Cu2 O6 2.154241 1_555
Cu2 O8 2.210485 1_556
Cu3 O7 2.004225 1_555
Cu3 O9 2.087379 1_555
Cu3 O0 2.142582 1_555
Cu3 O5 2.398344 1_555
Cu4 O5 1.939702 1_555
Cu4 O15 1.946785 1_555
Cu4 O11 2.412828 1_554
Cu4 O8 2.563862 1_655
Cu5 O14 1.989991 1_555
Cu5 O4 1.996032 1_555
Cu5 O9 2.317582 1_555
Cu5 O10 2.503660 1_655
Cu6 O12 1.945971 1_555
Cu6 O9 1.974923 1_555
Cu6 O15 2.324839 1_555
Cu6 O0 2.403443 1_565
Cu7 O2 2.086856 1_555
Cu7 O13 2.111274 1_555
Cu7 O11 2.213191 1_555
Cu7 O14 2.230007 1_555
Cu8 O10 2.118822 1_555
Cu8 O14 2.129420 1_555
Cu8 O1 2.181527 1_555
Cu8 O12 2.261764 1_555
Cu9 O15 2.078225 1_556
Cu9 O13 2.125032 1_555
Cu9 O8 2.180955 1_556
Cu9 O3 2.292354 1_566
O0 P1 1.552679 1_555
O1 P1 1.544585 1_465
O2 P0 1.548647 1_566
O3 P0 1.549316 1_455
O4 P1 1.572377 1_555
O5 P0 1.568584 1_555
O6 P2 1.576700 1_555
O7 P3 1.571082 1_555
O8 P3 1.541638 1_555
O9 P3 1.547641 1_655
O10 P2 1.549414 1_555
O11 P2 1.540910 1_655
O12 P3 1.570705 1_555
O13 P2 1.567900 1_555
O14 P1 1.572576 1_565
O15 P0 1.568473 1_565
