# generated using pymatgen
data_Li8Cr(FeO4)3
_symmetry_space_group_name_H-M   'P 1'
_cell_length_a   8.53103900
_cell_length_b   4.95696200
_cell_length_c   4.99697472
_cell_angle_alpha   89.76870533
_cell_angle_beta   90.00000000
_cell_angle_gamma   90.00000000
_symmetry_Int_Tables_number   1
_chemical_formula_structural   Li8Cr(FeO4)3
_chemical_formula_sum   'Li8 Cr1 Fe3 O12'
_cell_volume   211.31052560
_cell_formula_units_Z   1
loop_
 _symmetry_equiv_pos_site_id
 _symmetry_equiv_pos_as_xyz
  1  'x, y, z'
loop_
 _atom_site_type_symbol
 _atom_site_label
 _atom_site_symmetry_multiplicity
 _atom_site_fract_x
 _atom_site_fract_y
 _atom_site_fract_z
 _atom_site_occupancy
  Li  Li0  1  0.76681800  0.00000000  0.50000000  1
  Li  Li1  1  0.08048400  0.00000000  0.50000000  1
  Li  Li2  1  0.74495700  0.00000000  0.00000000  1
  Li  Li3  1  0.43289900  0.00000000  0.00000000  1
  Li  Li4  1  0.93319200  0.50000000  0.50000000  1
  Li  Li5  1  0.24419200  0.50000000  0.50000000  1
  Li  Li6  1  0.58233800  0.50000000  0.00000000  1
  Li  Li7  1  0.26884000  0.50000000  0.00000000  1
  Cr  Cr0  1  0.09737200  0.00000000  0.00000000  1
  Fe  Fe0  1  0.41450600  0.00000000  0.50000000  1
  Fe  Fe1  1  0.59868700  0.50000000  0.50000000  1
  Fe  Fe2  1  0.91625500  0.50000000  0.00000000  1
  O  O0  1  0.25226500  0.14837900  0.75816100  1
  O  O1  1  0.58503300  0.18183000  0.72016100  1
  O  O2  1  0.93298300  0.17367000  0.78546100  1
  O  O3  1  0.08292300  0.32316100  0.21953300  1
  O  O4  1  0.43018500  0.32148200  0.28092100  1
  O  O5  1  0.75822400  0.35333300  0.25086200  1
  O  O6  1  0.75822400  0.64666700  0.74913800  1
  O  O7  1  0.43018500  0.67851800  0.71907900  1
  O  O8  1  0.08292300  0.67683900  0.78046700  1
  O  O9  1  0.93298300  0.82633000  0.21453900  1
  O  O10  1  0.58503300  0.81817000  0.27983900  1
  O  O11  1  0.25226500  0.85162100  0.24183900  1
loop_
_geom_bond_atom_site_label_1
_geom_bond_atom_site_label_2
_geom_bond_distance
_geom_bond_site_symmetry_2
Li0 O1 2.106116 1_555
Li0 O10 2.106116 1_545
Li0 O6 2.145983 1_545
Li0 O5 2.145983 1_555
Li0 O2 2.189802 1_555
Li0 O9 2.189802 1_545
Li1 O0 2.088157 1_555
Li1 O11 2.088157 1_545
Li1 O2 2.090255 1_455
Li1 O9 2.090255 1_445
Li1 O8 2.124275 1_545
Li1 O3 2.124275 1_555
Li2 O9 2.110909 1_545
Li2 O2 2.110909 1_554
Li2 O10 2.149175 1_545
Li2 O1 2.149175 1_554
Li2 O6 2.160910 1_544
Li2 O5 2.160910 1_555
Li3 O0 2.090179 1_554
Li3 O11 2.090179 1_545
Li3 O10 2.107613 1_545
Li3 O1 2.107613 1_554
Li3 O4 2.128052 1_555
Li3 O7 2.128052 1_544
Li4 O6 2.076961 1_555
Li4 O5 2.076961 1_555
Li4 O8 2.091443 1_655
Li4 O3 2.091443 1_655
Li4 O2 2.152384 1_555
Li4 O9 2.152384 1_555
Li5 O7 2.122965 1_555
Li5 O4 2.122965 1_555
Li5 O8 2.152972 1_555
Li5 O3 2.152972 1_555
Li5 O11 2.165341 1_555
Li5 O0 2.165341 1_555
Li6 O5 2.084242 1_555
Li6 O6 2.084242 1_554
Li6 O4 2.104382 1_555
Li6 O7 2.104382 1_554
Li6 O10 2.112140 1_555
Li6 O1 2.112140 1_554
Li7 O3 2.116518 1_555
Li7 O8 2.116518 1_554
Li7 O11 2.129633 1_555
Li7 O0 2.129633 1_554
Li7 O4 2.153636 1_555
Li7 O7 2.153636 1_554
Cr0 O0 1.933979 1_554
Cr0 O11 1.933979 1_545
Cr0 O3 1.949068 1_555
Cr0 O8 1.949068 1_544
Cr0 O9 1.962062 1_445
Cr0 O2 1.962062 1_454
Fe0 O7 1.934353 1_545
Fe0 O4 1.934353 1_555
Fe0 O0 2.031867 1_555
Fe0 O11 2.031867 1_545
Fe0 O1 2.036433 1_555
Fe0 O10 2.036433 1_545
Fe1 O1 1.922833 1_555
Fe1 O10 1.922833 1_555
Fe1 O6 1.984465 1_555
Fe1 O5 1.984465 1_555
Fe1 O7 2.013881 1_555
Fe1 O4 2.013881 1_555
Fe2 O9 1.949435 1_555
Fe2 O2 1.949435 1_554
Fe2 O5 1.977411 1_555
Fe2 O6 1.977411 1_554
Fe2 O3 1.996424 1_655
Fe2 O8 1.996424 1_654
