# generated using pymatgen
data_Yb6Cl13
_symmetry_space_group_name_H-M   'P 1'
_cell_length_a   6.59277700
_cell_length_b   6.87991029
_cell_length_c   20.91472152
_cell_angle_alpha   97.82065760
_cell_angle_beta   98.80617868
_cell_angle_gamma   89.96489755
_symmetry_Int_Tables_number   1
_chemical_formula_structural   Yb6Cl13
_chemical_formula_sum   'Yb12 Cl26'
_cell_volume   928.54367647
_cell_formula_units_Z   2
loop_
 _symmetry_equiv_pos_site_id
 _symmetry_equiv_pos_as_xyz
  1  'x, y, z'
loop_
 _atom_site_type_symbol
 _atom_site_label
 _atom_site_symmetry_multiplicity
 _atom_site_fract_x
 _atom_site_fract_y
 _atom_site_fract_z
 _atom_site_occupancy
  Yb  Yb0  1  0.65941600  0.34779600  0.25857500  1
  Yb  Yb1  1  0.34058400  0.65220400  0.74142500  1
  Yb  Yb2  1  0.81825800  0.49309200  0.58111400  1
  Yb  Yb3  1  0.18174200  0.50690800  0.41888600  1
  Yb  Yb4  1  0.89636600  0.15246200  0.74374700  1
  Yb  Yb5  1  0.10363400  0.84753800  0.25625300  1
  Yb  Yb6  1  0.98016000  0.62432500  0.90685700  1
  Yb  Yb7  1  0.01984000  0.37567500  0.09314300  1
  Yb  Yb8  1  0.57550000  0.87887600  0.09350800  1
  Yb  Yb9  1  0.42450000  0.12112400  0.90649200  1
  Yb  Yb10  1  0.73872300  0.00980300  0.41989400  1
  Yb  Yb11  1  0.26127700  0.99019700  0.58010600  1
  Cl  Cl0  1  0.73920500  0.11414600  0.01267300  1
  Cl  Cl1  1  0.26079500  0.88585400  0.98732700  1
  Cl  Cl2  1  0.38799100  0.21577200  0.14263700  1
  Cl  Cl3  1  0.61200900  0.78422800  0.85736300  1
  Cl  Cl4  1  0.89271200  0.10299000  0.17569000  1
  Cl  Cl5  1  0.10728800  0.89701000  0.82431000  1
  Cl  Cl6  1  0.48941300  0.01713100  0.29180400  1
  Cl  Cl7  1  0.51058700  0.98286900  0.70819600  1
  Cl  Cl8  1  0.98129900  0.17740200  0.33893700  1
  Cl  Cl9  1  0.01870100  0.82259800  0.66106300  1
  Cl  Cl10  1  0.57427700  0.37460200  0.43019000  1
  Cl  Cl11  1  0.42572300  0.62539800  0.56981000  1
  Cl  Cl12  1  0.05822500  0.25104500  0.49989800  1
  Cl  Cl13  1  0.94177500  0.74895500  0.50010200  1
  Cl  Cl14  1  0.63533400  0.13045800  0.56447800  1
  Cl  Cl15  1  0.36466600  0.86954200  0.43552200  1
  Cl  Cl16  1  0.13343300  0.31955800  0.66072000  1
  Cl  Cl17  1  0.86656700  0.68044200  0.33928000  1
  Cl  Cl18  1  0.69336400  0.48101700  0.70906400  1
  Cl  Cl19  1  0.30663600  0.51898300  0.29093600  1
  Cl  Cl20  1  0.21371800  0.39791400  0.82377900  1
  Cl  Cl21  1  0.78628200  0.60208600  0.17622100  1
  Cl  Cl22  1  0.74358900  0.28650800  0.85930100  1
  Cl  Cl23  1  0.25641100  0.71349200  0.14069900  1
  Cl  Cl24  1  0.22527200  0.38463600  0.98647400  1
  Cl  Cl25  1  0.77472800  0.61536400  0.01352600  1
loop_
_geom_bond_atom_site_label_1
_geom_bond_atom_site_label_2
_geom_bond_distance
_geom_bond_site_symmetry_2
Cl0 Yb7 2.778424 1_655
Cl0 Yb9 2.803009 1_554
Cl0 Yb8 2.819333 1_545
Cl1 Yb6 2.778424 1_455
Cl1 Yb8 2.803009 1_556
Cl1 Yb9 2.819333 1_565
Cl2 Yb8 2.773722 1_545
Cl2 Yb7 2.776719 1_555
Cl2 Yb0 2.825047 1_555
Cl3 Yb9 2.773722 1_565
Cl3 Yb6 2.776719 1_555
Cl3 Yb1 2.825047 1_555
Cl4 Yb8 2.808452 1_545
Cl4 Yb5 2.819041 1_645
Cl4 Yb0 2.868106 1_555
Cl4 Yb7 2.920455 1_655
Cl5 Yb9 2.808452 1_565
Cl5 Yb4 2.819041 1_465
Cl5 Yb1 2.868106 1_555
Cl5 Yb6 2.920455 1_455
Cl6 Yb5 2.751619 1_545
Cl6 Yb0 2.754348 1_555
Cl6 Yb10 2.927356 1_555
Cl7 Yb4 2.751619 1_565
Cl7 Yb1 2.754348 1_555
Cl7 Yb11 2.927356 1_555
Cl8 Yb3 2.824344 1_655
Cl8 Yb10 2.848991 1_555
Cl8 Yb0 2.853701 1_555
Cl8 Yb5 2.854487 1_645
Cl9 Yb2 2.824344 1_455
Cl9 Yb11 2.848991 1_555
Cl9 Yb1 2.853701 1_555
Cl9 Yb4 2.854487 1_465
Cl10 Yb10 2.727975 1_555
Cl10 Yb3 2.729470 1_555
Cl10 Yb2 3.310935 1_555
Cl11 Yb11 2.727975 1_555
Cl11 Yb2 2.729470 1_555
Cl11 Yb3 3.310935 1_555
Cl12 Yb3 2.805090 1_555
Cl12 Yb11 2.820558 1_545
Cl12 Yb10 2.856703 1_455
Cl12 Yb2 2.865489 1_455
Cl13 Yb2 2.805090 1_555
Cl13 Yb10 2.820558 1_565
Cl13 Yb11 2.856703 1_655
Cl13 Yb3 2.865489 1_655
Cl14 Yb2 2.727432 1_555
Cl14 Yb11 2.730403 1_545
Cl14 Yb10 3.200800 1_555
Cl15 Yb3 2.727432 1_555
Cl15 Yb10 2.730403 1_565
Cl15 Yb11 3.200800 1_555
Cl16 Yb2 2.827305 1_455
Cl16 Yb11 2.842663 1_545
Cl16 Yb4 2.855905 1_455
Cl16 Yb1 2.863307 1_555
Cl17 Yb3 2.827305 1_655
Cl17 Yb10 2.842663 1_565
Cl17 Yb5 2.855905 1_655
Cl17 Yb0 2.863307 1_555
Cl18 Yb1 2.741573 1_555
Cl18 Yb4 2.751758 1_555
Cl18 Yb2 2.929388 1_555
Cl19 Yb0 2.741573 1_555
Cl19 Yb5 2.751758 1_555
Cl19 Yb3 2.929388 1_555
Cl20 Yb6 2.810004 1_455
Cl20 Yb1 2.826649 1_555
Cl20 Yb4 2.862457 1_455
Cl20 Yb9 2.950807 1_555
Cl21 Yb7 2.810004 1_655
Cl21 Yb0 2.826649 1_555
Cl21 Yb5 2.862457 1_655
Cl21 Yb8 2.950807 1_555
Cl22 Yb9 2.763795 1_555
Cl22 Yb6 2.779181 1_555
Cl22 Yb4 2.800616 1_555
Cl23 Yb8 2.763795 1_555
Cl23 Yb7 2.779181 1_555
Cl23 Yb5 2.800616 1_555
Cl24 Yb9 2.766712 1_555
Cl24 Yb7 2.788896 1_556
Cl24 Yb6 2.832595 1_455
Cl25 Yb8 2.766712 1_555
Cl25 Yb6 2.788896 1_554
Cl25 Yb7 2.832595 1_655
