# generated using pymatgen
data_LiFe23O32
_symmetry_space_group_name_H-M   'P 1'
_cell_length_a   8.57177971
_cell_length_b   8.57177971
_cell_length_c   8.57177866
_cell_angle_alpha   89.98407432
_cell_angle_beta   89.98407432
_cell_angle_gamma   89.98407181
_symmetry_Int_Tables_number   1
_chemical_formula_structural   LiFe23O32
_chemical_formula_sum   'Li1 Fe23 O32'
_cell_volume   629.81485607
_cell_formula_units_Z   1
loop_
 _symmetry_equiv_pos_site_id
 _symmetry_equiv_pos_as_xyz
  1  'x, y, z'
loop_
 _atom_site_type_symbol
 _atom_site_label
 _atom_site_symmetry_multiplicity
 _atom_site_fract_x
 _atom_site_fract_y
 _atom_site_fract_z
 _atom_site_occupancy
  Li  Li0  1  0.00000000  0.00000000  0.00000000  1
  Fe  Fe0  1  0.12306900  0.62348700  0.12306900  1
  Fe  Fe1  1  0.00526800  0.75372600  0.75372600  1
  Fe  Fe2  1  0.00000000  0.50000000  0.50000000  1
  Fe  Fe3  1  0.99473200  0.24627400  0.24627400  1
  Fe  Fe4  1  0.87693100  0.87693100  0.37651300  1
  Fe  Fe5  1  0.87693100  0.37651300  0.87693100  1
  Fe  Fe6  1  0.75372600  0.00526800  0.75372600  1
  Fe  Fe7  1  0.74859800  0.25140200  0.50000000  1
  Fe  Fe8  1  0.75372600  0.75372600  0.00526800  1
  Fe  Fe9  1  0.74859800  0.50000000  0.25140200  1
  Fe  Fe10  1  0.62984600  0.62984600  0.62984600  1
  Fe  Fe11  1  0.62348700  0.12306900  0.12306900  1
  Fe  Fe12  1  0.50000000  0.00000000  0.50000000  1
  Fe  Fe13  1  0.50000000  0.25140200  0.74859800  1
  Fe  Fe14  1  0.50000000  0.74859800  0.25140200  1
  Fe  Fe15  1  0.50000000  0.50000000  0.00000000  1
  Fe  Fe16  1  0.37651300  0.87693100  0.87693100  1
  Fe  Fe17  1  0.37015400  0.37015400  0.37015400  1
  Fe  Fe18  1  0.25140200  0.74859800  0.50000000  1
  Fe  Fe19  1  0.25140200  0.50000000  0.74859800  1
  Fe  Fe20  1  0.24627400  0.99473200  0.24627400  1
  Fe  Fe21  1  0.24627400  0.24627400  0.99473200  1
  Fe  Fe22  1  0.12306900  0.12306900  0.62348700  1
  O  O0  1  0.00081800  0.73904500  0.51103700  1
  O  O1  1  0.01023400  0.01023400  0.25352100  1
  O  O2  1  0.01023400  0.25352100  0.01023400  1
  O  O3  1  0.99918200  0.26095500  0.48896300  1
  O  O4  1  0.00081800  0.51103700  0.73904500  1
  O  O5  1  0.98976600  0.98976600  0.74647900  1
  O  O6  1  0.98976600  0.74647900  0.98976600  1
  O  O7  1  0.99918200  0.48896300  0.26095500  1
  O  O8  1  0.76173500  0.76173500  0.76173500  1
  O  O9  1  0.75987800  0.50017800  0.50017800  1
  O  O10  1  0.76012000  0.24736100  0.24736100  1
  O  O11  1  0.75263900  0.75263900  0.23988000  1
  O  O12  1  0.74647900  0.98976600  0.98976600  1
  O  O13  1  0.73904500  0.00081800  0.51103700  1
  O  O14  1  0.75263900  0.23988000  0.75263900  1
  O  O15  1  0.73904500  0.51103700  0.00081800  1
  O  O16  1  0.51103700  0.00081800  0.73904500  1
  O  O17  1  0.51103700  0.73904500  0.00081800  1
  O  O18  1  0.49982200  0.49982200  0.24012200  1
  O  O19  1  0.50017800  0.50017800  0.75987800  1
  O  O20  1  0.49982200  0.24012200  0.49982200  1
  O  O21  1  0.50017800  0.75987800  0.50017800  1
  O  O22  1  0.48896300  0.99918200  0.26095500  1
  O  O23  1  0.48896300  0.26095500  0.99918200  1
  O  O24  1  0.26095500  0.99918200  0.48896300  1
  O  O25  1  0.24736100  0.24736100  0.76012000  1
  O  O26  1  0.26095500  0.48896300  0.99918200  1
  O  O27  1  0.25352100  0.01023400  0.01023400  1
  O  O28  1  0.24736100  0.76012000  0.24736100  1
  O  O29  1  0.23988000  0.75263900  0.75263900  1
  O  O30  1  0.24012200  0.49982200  0.49982200  1
  O  O31  1  0.23826500  0.23826500  0.23826500  1
loop_
_geom_bond_atom_site_label_1
_geom_bond_atom_site_label_2
_geom_bond_distance
_geom_bond_site_symmetry_2
Li0 O1 2.176714 1_555
Li0 O5 2.176714 1_444
Li0 O27 2.176714 1_555
Li0 O2 2.176714 1_555
Li0 O6 2.176714 1_444
Li0 O12 2.176714 1_444
Fe0 O28 1.908892 1_555
Fe0 O6 1.929280 1_454
Fe0 O26 1.963044 1_554
Fe0 O7 1.963044 1_455
Fe1 O29 2.011080 1_555
Fe1 O6 2.028540 1_455
Fe1 O5 2.028540 1_455
Fe1 O0 2.084474 1_555
Fe1 O4 2.084475 1_555
Fe1 O8 2.089730 1_455
Fe2 O4 2.051264 1_555
Fe2 O7 2.051264 1_455
Fe2 O0 2.051264 1_555
Fe2 O3 2.051264 1_455
Fe2 O30 2.058273 1_555
Fe2 O9 2.058273 1_455
Fe3 O10 2.011080 1_555
Fe3 O2 2.028540 1_655
Fe3 O1 2.028540 1_655
Fe3 O3 2.084474 1_555
Fe3 O7 2.084475 1_555
Fe3 O31 2.089730 1_655
Fe4 O11 1.908892 1_555
Fe4 O1 1.929280 1_665
Fe4 O0 1.963044 1_655
Fe4 O13 1.963044 1_565
Fe5 O14 1.908892 1_555
Fe5 O2 1.929280 1_656
Fe5 O15 1.963044 1_556
Fe5 O4 1.963044 1_655
Fe6 O14 2.011080 1_555
Fe6 O12 2.028540 1_545
Fe6 O5 2.028540 1_545
Fe6 O13 2.084474 1_555
Fe6 O16 2.084475 1_555
Fe6 O8 2.089730 1_545
Fe7 O9 2.134672 1_555
Fe7 O20 2.134672 1_555
Fe7 O3 2.151588 1_555
Fe7 O13 2.151588 1_555
Fe7 O14 2.168075 1_555
Fe7 O10 2.168075 1_555
Fe8 O11 2.011080 1_555
Fe8 O6 2.028540 1_554
Fe8 O12 2.028540 1_554
Fe8 O17 2.084475 1_555
Fe8 O15 2.084475 1_555
Fe8 O8 2.089730 1_554
Fe9 O9 2.134672 1_555
Fe9 O18 2.134672 1_555
Fe9 O15 2.151587 1_555
Fe9 O7 2.151588 1_555
Fe9 O10 2.168075 1_555
Fe9 O11 2.168075 1_555
Fe10 O9 1.926773 1_555
Fe10 O21 1.926773 1_555
Fe10 O19 1.926773 1_555
Fe10 O8 1.958668 1_555
Fe11 O10 1.908892 1_555
Fe11 O12 1.929280 1_544
Fe11 O23 1.963044 1_554
Fe11 O22 1.963044 1_545
Fe12 O16 2.051264 1_555
Fe12 O22 2.051264 1_545
Fe12 O13 2.051264 1_555
Fe12 O24 2.051264 1_545
Fe12 O20 2.058273 1_555
Fe12 O21 2.058273 1_545
Fe13 O20 2.134672 1_555
Fe13 O19 2.134672 1_555
Fe13 O23 2.151587 1_555
Fe13 O16 2.151588 1_555
Fe13 O14 2.168075 1_555
Fe13 O25 2.168075 1_555
Fe14 O21 2.134672 1_555
Fe14 O18 2.134672 1_555
Fe14 O17 2.151587 1_555
Fe14 O22 2.151588 1_555
Fe14 O28 2.168075 1_555
Fe14 O11 2.168075 1_555
Fe15 O17 2.051264 1_555
Fe15 O15 2.051264 1_555
Fe15 O26 2.051264 1_554
Fe15 O23 2.051264 1_554
Fe15 O18 2.058273 1_555
Fe15 O19 2.058273 1_554
Fe16 O29 1.908892 1_555
Fe16 O27 1.929280 1_566
Fe16 O17 1.963044 1_556
Fe16 O16 1.963044 1_565
Fe17 O20 1.926773 1_555
Fe17 O30 1.926773 1_555
Fe17 O18 1.926773 1_555
Fe17 O31 1.958668 1_555
Fe18 O21 2.134672 1_555
Fe18 O30 2.134672 1_555
Fe18 O24 2.151588 1_555
Fe18 O0 2.151588 1_555
Fe18 O29 2.168075 1_555
Fe18 O28 2.168075 1_555
Fe19 O30 2.134672 1_555
Fe19 O19 2.134672 1_555
Fe19 O26 2.151587 1_555
Fe19 O4 2.151588 1_555
Fe19 O29 2.168075 1_555
Fe19 O25 2.168075 1_555
Fe20 O28 2.011080 1_555
Fe20 O27 2.028540 1_565
Fe20 O1 2.028540 1_565
Fe20 O24 2.084474 1_555
Fe20 O22 2.084475 1_555
Fe20 O31 2.089730 1_565
Fe21 O25 2.011080 1_555
Fe21 O2 2.028540 1_556
Fe21 O27 2.028540 1_556
Fe21 O26 2.084475 1_555
Fe21 O23 2.084475 1_555
Fe21 O31 2.089730 1_556
Fe22 O25 1.908892 1_555
Fe22 O5 1.929280 1_445
Fe22 O24 1.963044 1_545
Fe22 O3 1.963044 1_455
