# generated using pymatgen
data_LiSn(PO3)3
_symmetry_space_group_name_H-M   'P 1'
_cell_length_a   7.76455200
_cell_length_b   10.54054200
_cell_length_c   12.24109800
_cell_angle_alpha   90.00000000
_cell_angle_beta   90.00000000
_cell_angle_gamma   90.00000000
_symmetry_Int_Tables_number   1
_chemical_formula_structural   LiSn(PO3)3
_chemical_formula_sum   'Li4 Sn4 P12 O36'
_cell_volume   1001.84312152
_cell_formula_units_Z   4
loop_
 _symmetry_equiv_pos_site_id
 _symmetry_equiv_pos_as_xyz
  1  'x, y, z'
loop_
 _atom_site_type_symbol
 _atom_site_label
 _atom_site_symmetry_multiplicity
 _atom_site_fract_x
 _atom_site_fract_y
 _atom_site_fract_z
 _atom_site_occupancy
  Li  Li0  1  0.94841500  0.37354500  0.01329200  1
  Li  Li1  1  0.55158500  0.62645500  0.51329200  1
  Li  Li2  1  0.44841500  0.12645500  0.98670800  1
  Li  Li3  1  0.05158500  0.87354500  0.48670800  1
  Sn  Sn0  1  0.19698500  0.22803500  0.64864100  1
  Sn  Sn1  1  0.30301500  0.77196500  0.14864100  1
  Sn  Sn2  1  0.69698600  0.27196500  0.35135900  1
  Sn  Sn3  1  0.80301400  0.72803500  0.85135900  1
  P  P0  1  0.18185800  0.02361200  0.29515300  1
  P  P1  1  0.18561300  0.46750700  0.18200800  1
  P  P2  1  0.24362300  0.70448600  0.87320200  1
  P  P3  1  0.25637700  0.29551400  0.37320200  1
  P  P4  1  0.31438700  0.53249300  0.68200800  1
  P  P5  1  0.31814200  0.97638800  0.79515300  1
  P  P6  1  0.68185800  0.47638800  0.70484700  1
  P  P7  1  0.68561300  0.03249300  0.81799200  1
  P  P8  1  0.74362300  0.79551400  0.12679800  1
  P  P9  1  0.75637700  0.20448600  0.62679800  1
  P  P10  1  0.81438700  0.96750700  0.31799200  1
  P  P11  1  0.81814200  0.52361200  0.20484700  1
  O  O0  1  0.02164000  0.56410300  0.20022900  1
  O  O1  1  0.06309100  0.65198600  0.88045200  1
  O  O2  1  0.14753200  0.37108600  0.28445400  1
  O  O3  1  0.15631900  0.45421900  0.70097700  1
  O  O4  1  0.22444500  0.84379300  0.82411900  1
  O  O5  1  0.23448500  0.99553400  0.17932700  1
  O  O6  1  0.21480000  0.92730300  0.38292700  1
  O  O7  1  0.16391600  0.39269400  0.07903100  1
  O  O8  1  0.14807300  0.29255100  0.47528700  1
  O  O9  1  0.35192700  0.70744900  0.97528700  1
  O  O10  1  0.33608400  0.60730600  0.57903100  1
  O  O11  1  0.28520000  0.07269700  0.88292700  1
  O  O12  1  0.26551500  0.00446600  0.67932700  1
  O  O13  1  0.27555500  0.15620700  0.32411900  1
  O  O14  1  0.34368100  0.54578100  0.20097700  1
  O  O15  1  0.35246800  0.62891400  0.78445400  1
  O  O16  1  0.43690900  0.34801400  0.38045200  1
  O  O17  1  0.47836000  0.43589700  0.70022900  1
  O  O18  1  0.52164000  0.93589700  0.79977100  1
  O  O19  1  0.56309100  0.84801400  0.11954800  1
  O  O20  1  0.64753200  0.12891400  0.71554600  1
  O  O21  1  0.65631900  0.04578100  0.29902300  1
  O  O22  1  0.72444500  0.65620700  0.17588100  1
  O  O23  1  0.73448500  0.50446600  0.82067300  1
  O  O24  1  0.71480000  0.57269700  0.61707300  1
  O  O25  1  0.66391600  0.10730600  0.92096900  1
  O  O26  1  0.64807300  0.20744900  0.52471300  1
  O  O27  1  0.85192700  0.79255100  0.02471300  1
  O  O28  1  0.83608400  0.89269400  0.42096900  1
  O  O29  1  0.78520000  0.42730300  0.11707300  1
  O  O30  1  0.76551500  0.49553400  0.32067300  1
  O  O31  1  0.77555500  0.34379300  0.67588100  1
  O  O32  1  0.84368100  0.95421900  0.79902300  1
  O  O33  1  0.85246800  0.87108600  0.21554600  1
  O  O34  1  0.93690900  0.15198600  0.61954800  1
  O  O35  1  0.97836000  0.06410300  0.29977100  1
loop_
_geom_bond_atom_site_label_1
_geom_bond_atom_site_label_2
_geom_bond_distance
_geom_bond_site_symmetry_2
Li0 O7 1.867656 1_655
Li0 O29 1.881756 1_555
Li1 O10 1.867656 1_555
Li1 O24 1.881756 1_555
Li2 O25 1.867656 1_555
Li2 O11 1.881756 1_555
Li3 O28 1.867656 1_455
Li3 O6 1.881756 1_555
O0 P11 1.637674 1_455
O0 P1 1.645420 1_555
O1 P2 1.509638 1_555
O1 Sn3 2.201656 1_455
O2 P3 1.590276 1_555
O2 P1 1.641036 1_555
O3 P4 1.496983 1_555
O3 Sn0 2.488790 1_555
O4 P2 1.593513 1_555
O4 P5 1.615040 1_555
O5 P0 1.504935 1_565
O5 Sn1 2.444894 1_555
O6 P0 1.500131 1_565
O7 P1 1.496400 1_555
O8 P3 1.506560 1_555
O8 Sn0 2.260475 1_555
O9 P2 1.506560 1_555
O9 Sn1 2.260475 1_556
O10 P4 1.496400 1_555
O11 P5 1.500131 1_545
O12 P5 1.504935 1_545
O12 Sn0 2.444894 1_555
O13 P3 1.593513 1_555
O13 P0 1.615040 1_555
O14 P1 1.496983 1_555
O14 Sn1 2.488790 1_555
O15 P2 1.590276 1_555
O15 P4 1.641036 1_555
O16 P3 1.509638 1_555
O16 Sn2 2.201656 1_555
O17 P6 1.637674 1_555
O17 P4 1.645420 1_555
O18 P5 1.637674 1_555
O18 P7 1.645420 1_565
O19 P8 1.509638 1_555
O19 Sn1 2.201649 1_555
O20 P9 1.590276 1_555
O20 P7 1.641036 1_555
O21 P10 1.496983 1_545
O21 Sn2 2.488791 1_555
O22 P8 1.593513 1_555
O22 P11 1.615040 1_555
O23 P6 1.504935 1_555
O23 Sn3 2.444892 1_555
O24 P6 1.500131 1_555
O25 P7 1.496400 1_555
O26 P9 1.506560 1_555
O26 Sn2 2.260476 1_555
O27 P8 1.506560 1_555
O27 Sn3 2.260476 1_554
O28 P10 1.496400 1_555
O29 P11 1.500131 1_555
O30 P11 1.504935 1_555
O30 Sn2 2.444892 1_555
O31 P9 1.593513 1_555
O31 P6 1.615040 1_555
O32 P7 1.496983 1_565
O32 Sn3 2.488791 1_555
O33 P8 1.590276 1_555
O33 P10 1.641036 1_555
O34 P9 1.509638 1_555
O34 Sn0 2.201649 1_655
O35 P0 1.637674 1_655
O35 P10 1.645420 1_545
