# generated using pymatgen
data_Na3Mn2P2(CO7)2
_symmetry_space_group_name_H-M   'P 1'
_cell_length_a   8.97367743
_cell_length_b   6.58601500
_cell_length_c   10.38944206
_cell_angle_alpha   90.00000000
_cell_angle_beta   88.49255696
_cell_angle_gamma   90.00000000
_symmetry_Int_Tables_number   1
_chemical_formula_structural   Na3Mn2P2(CO7)2
_chemical_formula_sum   'Na6 Mn4 P4 C4 O28'
_cell_volume   613.81156463
_cell_formula_units_Z   2
loop_
 _symmetry_equiv_pos_site_id
 _symmetry_equiv_pos_as_xyz
  1  'x, y, z'
loop_
 _atom_site_type_symbol
 _atom_site_label
 _atom_site_symmetry_multiplicity
 _atom_site_fract_x
 _atom_site_fract_y
 _atom_site_fract_z
 _atom_site_occupancy
  Na  Na0  1  0.24365500  0.47429800  0.62315200  1
  Na  Na1  1  0.24365500  0.02570200  0.12315200  1
  Na  Na2  1  0.76081400  0.50916300  0.87659900  1
  Na  Na3  1  0.76001700  0.99044000  0.87915900  1
  Na  Na4  1  0.76001700  0.50956000  0.37915900  1
  Na  Na5  1  0.76081400  0.99083700  0.37659900  1
  Mn  Mn0  1  0.34400500  0.74740100  0.89384500  1
  Mn  Mn1  1  0.34400500  0.75259900  0.39384400  1
  Mn  Mn2  1  0.64979800  0.24729500  0.60893500  1
  Mn  Mn3  1  0.64979800  0.25270500  0.10893500  1
  P  P0  1  0.42400300  0.24968200  0.85626900  1
  P  P1  1  0.42400300  0.25031800  0.35626900  1
  P  P2  1  0.57190700  0.74756100  0.64271700  1
  P  P3  1  0.57190700  0.75243900  0.14271700  1
  C  C0  1  0.07579600  0.75178200  0.86538200  1
  C  C1  1  0.07579600  0.74821800  0.36538200  1
  C  C2  1  0.92274400  0.24710400  0.63427200  1
  C  C3  1  0.92274400  0.25289600  0.13427300  1
  O  O0  1  0.05842200  0.24884400  0.64527500  1
  O  O1  1  0.05842200  0.25115600  0.14527500  1
  O  O2  1  0.13981900  0.76110800  0.97721400  1
  O  O3  1  0.13981900  0.73889200  0.47721400  1
  O  O4  1  0.17430500  0.74245700  0.76984300  1
  O  O5  1  0.17430500  0.75754300  0.26984300  1
  O  O6  1  0.33082500  0.06212600  0.89533100  1
  O  O7  1  0.32761300  0.43778000  0.88595300  1
  O  O8  1  0.32761300  0.06222000  0.38595300  1
  O  O9  1  0.33082500  0.43787400  0.39533100  1
  O  O10  1  0.46488000  0.24956800  0.70865600  1
  O  O11  1  0.42455000  0.74094400  0.57048400  1
  O  O12  1  0.46488000  0.25043200  0.20865600  1
  O  O13  1  0.42455000  0.75905600  0.07048400  1
  O  O14  1  0.57509300  0.25264300  0.92781200  1
  O  O15  1  0.53723400  0.74867500  0.79192000  1
  O  O16  1  0.57509300  0.24735700  0.42781200  1
  O  O17  1  0.53723400  0.75132500  0.29192000  1
  O  O18  1  0.67198800  0.56169300  0.60921500  1
  O  O19  1  0.66869200  0.93452200  0.60653500  1
  O  O20  1  0.66869200  0.56547800  0.10653500  1
  O  O21  1  0.67198800  0.93830700  0.10921500  1
  O  O22  1  0.82403600  0.24585300  0.73217000  1
  O  O23  1  0.82403600  0.25414700  0.23217000  1
  O  O24  1  0.85269600  0.24724000  0.52327200  1
  O  O25  1  0.85269600  0.25276000  0.02327200  1
  O  O26  1  0.93796700  0.75071800  0.85169800  1
  O  O27  1  0.93796700  0.74928200  0.35169800  1
loop_
_geom_bond_atom_site_label_1
_geom_bond_atom_site_label_2
_geom_bond_distance
_geom_bond_site_symmetry_2
Na0 O0 2.236172 1_555
Na0 O4 2.403993 1_555
Na0 O11 2.443721 1_555
Na0 O9 2.484833 1_555
Na0 O3 2.505633 1_555
Na0 O10 2.648317 1_555
Na0 O7 2.861564 1_555
Na1 O1 2.236172 1_555
Na1 O5 2.403993 1_545
Na1 O13 2.443721 1_545
Na1 O6 2.484833 1_554
Na1 O2 2.505633 1_544
Na1 O12 2.648317 1_555
Na1 O8 2.861564 1_555
Na2 O26 2.259070 1_555
Na2 O22 2.352873 1_555
Na2 O14 2.422442 1_555
Na2 O25 2.433039 1_556
Na2 O20 2.534545 1_556
Na2 O15 2.716712 1_555
Na2 O18 2.930644 1_555
Na3 O26 2.258331 1_555
Na3 O22 2.333593 1_565
Na3 O14 2.438695 1_565
Na3 O25 2.446163 1_566
Na3 O21 2.520991 1_556
Na3 O15 2.729264 1_555
Na4 O27 2.258331 1_555
Na4 O23 2.333593 1_555
Na4 O16 2.438695 1_555
Na4 O24 2.446163 1_555
Na4 O18 2.520991 1_555
Na4 O17 2.729264 1_555
Na5 O27 2.259070 1_555
Na5 O23 2.352873 1_565
Na5 O16 2.422442 1_565
Na5 O24 2.433039 1_565
Na5 O19 2.534545 1_555
Na5 O17 2.716712 1_555
Na5 O21 2.930644 1_555
Mn0 O13 1.991479 1_556
Mn0 O15 2.007858 1_555
Mn0 O2 2.008033 1_555
Mn0 O4 2.020656 1_555
Mn0 O7 2.046266 1_555
Mn0 O6 2.076189 1_565
Mn1 O11 1.991488 1_555
Mn1 O17 2.007852 1_555
Mn1 O3 2.008038 1_555
Mn1 O5 2.020649 1_555
Mn1 O8 2.046265 1_565
Mn1 O9 2.076189 1_555
Mn2 O10 1.933068 1_555
Mn2 O24 2.005474 1_555
Mn2 O16 2.014156 1_555
Mn2 O22 2.046803 1_555
Mn2 O19 2.066990 1_545
Mn2 O18 2.080192 1_555
Mn3 O12 1.933068 1_555
Mn3 O25 2.005474 1_555
Mn3 O14 2.014156 1_554
Mn3 O23 2.046803 1_555
Mn3 O20 2.066990 1_555
Mn3 O21 2.080192 1_545
C0 O26 1.248707 1_455
C0 O2 1.311074 1_555
C0 O4 1.313122 1_555
C1 O27 1.248707 1_455
C1 O3 1.311074 1_555
C1 O5 1.313122 1_555
C2 O0 1.225929 1_655
C2 O24 1.327855 1_555
C2 O22 1.331077 1_555
C3 O1 1.225928 1_655
C3 O25 1.327864 1_555
C3 O23 1.331069 1_555
O6 P0 1.540073 1_555
O7 P0 1.537504 1_555
O8 P1 1.537504 1_555
O9 P1 1.540073 1_555
O10 P0 1.567462 1_555
O11 P2 1.538138 1_555
O12 P1 1.567462 1_555
O13 P3 1.538138 1_555
O14 P0 1.563384 1_555
O15 P2 1.573026 1_555
O16 P1 1.563384 1_555
O17 P3 1.573026 1_555
O18 P2 1.552344 1_555
O19 P2 1.547457 1_555
O20 P3 1.547457 1_555
O21 P3 1.552344 1_555
