# generated using pymatgen
data_LuTa3O9
_symmetry_space_group_name_H-M   'P 1'
_cell_length_a   7.39410680
_cell_length_b   5.16740988
_cell_length_c   8.21882338
_cell_angle_alpha   87.48595757
_cell_angle_beta   90.00000000
_cell_angle_gamma   90.00000000
_symmetry_Int_Tables_number   1
_chemical_formula_structural   LuTa3O9
_chemical_formula_sum   'Lu2 Ta6 O18'
_cell_volume   313.72567972
_cell_formula_units_Z   2
loop_
 _symmetry_equiv_pos_site_id
 _symmetry_equiv_pos_as_xyz
  1  'x, y, z'
loop_
 _atom_site_type_symbol
 _atom_site_label
 _atom_site_symmetry_multiplicity
 _atom_site_fract_x
 _atom_site_fract_y
 _atom_site_fract_z
 _atom_site_occupancy
  Lu  Lu0  1  0.25000000  0.96780737  0.43468960  1
  Lu  Lu1  1  0.75000000  0.03219263  0.56531040  1
  Ta  Ta0  1  0.00000000  0.00000000  0.00000000  1
  Ta  Ta1  1  0.50000000  0.00000000  0.00000000  1
  Ta  Ta2  1  0.00795657  0.52911675  0.69636277  1
  Ta  Ta3  1  0.49204343  0.52911675  0.69636277  1
  Ta  Ta4  1  0.99204343  0.47088325  0.30363723  1
  Ta  Ta5  1  0.50795657  0.47088325  0.30363723  1
  O  O0  1  0.25000000  0.89211113  0.97590440  1
  O  O1  1  0.93113853  0.85809633  0.78187180  1
  O  O2  1  0.56886147  0.85809633  0.78187180  1
  O  O3  1  0.95234787  0.74587225  0.46692362  1
  O  O4  1  0.54765213  0.74587225  0.46692362  1
  O  O5  1  0.25000000  0.67727485  0.64909862  1
  O  O6  1  0.93994070  0.66878562  0.11786006  1
  O  O7  1  0.56005930  0.66878562  0.11786006  1
  O  O8  1  0.25000000  0.58792894  0.31370267  1
  O  O9  1  0.75000000  0.41207106  0.68629733  1
  O  O10  1  0.06005930  0.33121438  0.88213994  1
  O  O11  1  0.43994070  0.33121438  0.88213994  1
  O  O12  1  0.75000000  0.32272515  0.35090138  1
  O  O13  1  0.04765213  0.25412775  0.53307638  1
  O  O14  1  0.45234787  0.25412775  0.53307638  1
  O  O15  1  0.06886147  0.14190367  0.21812820  1
  O  O16  1  0.43113853  0.14190367  0.21812820  1
  O  O17  1  0.75000000  0.10788887  0.02409560  1
loop_
_geom_bond_atom_site_label_1
_geom_bond_atom_site_label_2
_geom_bond_distance
_geom_bond_site_symmetry_2
Lu0 O8 2.239047 1_555
Lu0 O5 2.264315 1_555
Lu0 O14 2.277370 1_565
Lu0 O13 2.277370 1_565
Lu0 O15 2.372911 1_565
Lu0 O16 2.372911 1_565
Lu0 O3 2.490499 1_455
Lu0 O4 2.490499 1_555
Lu1 O9 2.239047 1_555
Lu1 O12 2.264315 1_555
Lu1 O3 2.277370 1_545
Lu1 O4 2.277370 1_545
Lu1 O1 2.372911 1_545
Lu1 O2 2.372911 1_545
Lu1 O13 2.490499 1_655
Lu1 O14 2.490499 1_555
O0 Ta0 1.943391 1_566
O0 Ta1 1.943391 1_566
O1 Ta2 1.952241 1_655
O1 Ta0 2.031317 1_666
O2 Ta3 1.952241 1_555
O2 Ta1 2.031317 1_566
O3 Ta4 2.018330 1_555
O3 Ta2 2.189579 1_655
O4 Ta5 2.018330 1_555
O4 Ta3 2.189579 1_555
O5 Ta3 1.978370 1_555
O5 Ta2 1.978370 1_555
O6 Ta4 1.840806 1_555
O6 Ta0 1.979745 1_665
O7 Ta5 1.840806 1_555
O7 Ta1 1.979745 1_565
O8 Ta5 2.003762 1_555
O8 Ta4 2.003762 1_455
O9 Ta2 2.003762 1_655
O9 Ta3 2.003762 1_555
O10 Ta2 1.840806 1_555
O10 Ta0 1.979745 1_556
O11 Ta3 1.840806 1_555
O11 Ta1 1.979745 1_556
O12 Ta5 1.978370 1_555
O12 Ta4 1.978370 1_555
O13 Ta2 2.018330 1_555
O13 Ta4 2.189579 1_455
O14 Ta3 2.018330 1_555
O14 Ta5 2.189579 1_555
O15 Ta4 1.952241 1_455
O15 Ta0 2.031317 1_555
O16 Ta5 1.952241 1_555
O16 Ta1 2.031317 1_555
O17 Ta1 1.943391 1_555
O17 Ta0 1.943391 1_655
