# generated using pymatgen
data_Li3Mn2P2(O4F)2
_symmetry_space_group_name_H-M   'P 1'
_cell_length_a   5.12094500
_cell_length_b   13.09264800
_cell_length_c   13.21546327
_cell_angle_alpha   60.31340962
_cell_angle_beta   90.00000000
_cell_angle_gamma   90.00000000
_symmetry_Int_Tables_number   1
_chemical_formula_structural   Li3Mn2P2(O4F)2
_chemical_formula_sum   'Li12 Mn8 P8 O32 F8'
_cell_volume   769.75680604
_cell_formula_units_Z   4
loop_
 _symmetry_equiv_pos_site_id
 _symmetry_equiv_pos_as_xyz
  1  'x, y, z'
loop_
 _atom_site_type_symbol
 _atom_site_label
 _atom_site_symmetry_multiplicity
 _atom_site_fract_x
 _atom_site_fract_y
 _atom_site_fract_z
 _atom_site_occupancy
  Li  Li0  1  0.47853600  0.15186200  0.17647000  1
  Li  Li1  1  0.01173200  0.07467400  0.34567700  1
  Li  Li2  1  0.52146400  0.15186200  0.67647000  1
  Li  Li3  1  0.98826800  0.07467400  0.84567700  1
  Li  Li4  1  0.52708600  0.41212400  0.40618700  1
  Li  Li5  1  0.01599000  0.57297200  0.09016200  1
  Li  Li6  1  0.52183500  0.65059600  0.16875700  1
  Li  Li7  1  0.47291400  0.41212400  0.90618700  1
  Li  Li8  1  0.98401000  0.57297200  0.59016200  1
  Li  Li9  1  0.47816500  0.65059600  0.66875700  1
  Li  Li10  1  0.52170800  0.90406000  0.18196900  1
  Li  Li11  1  0.47829200  0.90406000  0.68196900  1
  Mn  Mn0  1  0.97906100  0.07095200  0.10844500  1
  Mn  Mn1  1  0.02093900  0.07095200  0.60844500  1
  Mn  Mn2  1  0.47589000  0.41573700  0.17625900  1
  Mn  Mn3  1  0.96751800  0.57374400  0.32114900  1
  Mn  Mn4  1  0.52411000  0.41573700  0.67625900  1
  Mn  Mn5  1  0.03248200  0.57374400  0.82114900  1
  Mn  Mn6  1  0.48146900  0.92081500  0.40321700  1
  Mn  Mn7  1  0.51853100  0.92081500  0.90321700  1
  P  P0  1  0.51710900  0.16113900  0.42287000  1
  P  P1  1  0.96593900  0.34010800  0.07330200  1
  P  P2  1  0.48289100  0.16113900  0.92287000  1
  P  P3  1  0.03406100  0.34010800  0.57330200  1
  P  P4  1  0.47432900  0.66012100  0.42020500  1
  P  P5  1  0.03111500  0.84142400  0.08223900  1
  P  P6  1  0.52567100  0.66012100  0.92020500  1
  P  P7  1  0.96888500  0.84142400  0.58223900  1
  O  O0  1  0.62601200  0.11733500  0.04324700  1
  O  O1  1  0.07088900  0.21165700  0.12164200  1
  O  O2  1  0.38717700  0.10611500  0.35510400  1
  O  O3  1  0.80546000  0.11930400  0.45046900  1
  O  O4  1  0.37398800  0.11733500  0.54324700  1
  O  O5  1  0.66226800  0.34035100  0.07982300  1
  O  O6  1  0.08536000  0.39165200  0.14471600  1
  O  O7  1  0.49659800  0.29575800  0.35405900  1
  O  O8  1  0.92911100  0.21165700  0.62164200  1
  O  O9  1  0.61282300  0.10611500  0.85510400  1
  O  O10  1  0.19454000  0.11930400  0.95046900  1
  O  O11  1  0.93383800  0.40985000  0.44494300  1
  O  O12  1  0.33773200  0.34035100  0.57982300  1
  O  O13  1  0.40605500  0.60703200  0.04368000  1
  O  O14  1  0.91464000  0.39165200  0.64471600  1
  O  O15  1  0.50340200  0.29575800  0.85405900  1
  O  O16  1  0.93665200  0.71139800  0.15897200  1
  O  O17  1  0.61257200  0.60345400  0.35279200  1
  O  O18  1  0.06616200  0.40985000  0.94494300  1
  O  O19  1  0.18121000  0.62619400  0.42822700  1
  O  O20  1  0.59394500  0.60703200  0.54368000  1
  O  O21  1  0.33551400  0.84517800  0.07915900  1
  O  O22  1  0.91356500  0.91045900  0.14064700  1
  O  O23  1  0.51759900  0.79350000  0.35163400  1
  O  O24  1  0.06334800  0.71139800  0.65897200  1
  O  O25  1  0.38742800  0.60345400  0.85279200  1
  O  O26  1  0.81879000  0.62619400  0.92822700  1
  O  O27  1  0.08223900  0.89060100  0.45952700  1
  O  O28  1  0.66448600  0.84517800  0.57915900  1
  O  O29  1  0.08643500  0.91045900  0.64064700  1
  O  O30  1  0.48240100  0.79350000  0.85163400  1
  O  O31  1  0.91776100  0.89060100  0.95952700  1
  F  F0  1  0.75790500  0.03028700  0.26767600  1
  F  F1  1  0.24209500  0.03028700  0.76767600  1
  F  F2  1  0.75149100  0.50945100  0.21736900  1
  F  F3  1  0.25972600  0.52445700  0.26478700  1
  F  F4  1  0.24850900  0.50945100  0.71736900  1
  F  F5  1  0.74027400  0.52445700  0.76478700  1
  F  F6  1  0.27364200  0.00437200  0.21485500  1
  F  F7  1  0.72635800  0.00437200  0.71485500  1
loop_
_geom_bond_atom_site_label_1
_geom_bond_atom_site_label_2
_geom_bond_distance
_geom_bond_site_symmetry_2
Li0 O0 2.159341 1_555
Li0 O2 2.179479 1_555
Li0 O1 2.221227 1_555
Li0 O5 2.341932 1_555
Li1 O2 1.983000 1_555
Li1 O3 2.043682 1_455
Li1 O27 2.147233 1_545
Li2 O4 2.159341 1_555
Li2 O9 2.179479 1_555
Li2 O8 2.221227 1_555
Li2 O12 2.341932 1_555
Li3 O9 1.983000 1_555
Li3 O10 2.043682 1_655
Li3 O31 2.147233 1_545
Li4 O7 1.964618 1_555
Li4 O11 2.141684 1_555
Li4 O12 2.225535 1_555
Li4 O17 2.283377 1_555
Li5 O13 2.072410 1_555
Li5 O6 2.141582 1_555
Li5 O26 2.146644 1_454
Li5 O16 2.430864 1_455
Li6 O13 2.083973 1_555
Li6 O17 2.241679 1_555
Li6 O16 2.249651 1_555
Li6 O21 2.411375 1_555
Li7 O15 1.964618 1_555
Li7 O18 2.141684 1_555
Li7 O5 2.225535 1_556
Li7 O25 2.283377 1_555
Li8 O20 2.072410 1_555
Li8 O14 2.141582 1_555
Li8 O19 2.146644 1_655
Li8 O24 2.430864 1_655
Li9 O20 2.083973 1_555
Li9 O25 2.241679 1_555
Li9 O24 2.249651 1_555
Li9 O28 2.411375 1_555
Li10 O23 1.976966 1_555
Li10 O22 2.070428 1_555
Li10 O21 2.094511 1_555
Li10 O0 2.524438 1_565
Li11 O30 1.976966 1_555
Li11 O29 2.070428 1_555
Li11 O28 2.094511 1_555
Li11 O4 2.524438 1_565
Mn0 O22 1.955307 1_545
Mn0 O0 1.965086 1_555
Mn0 O1 1.990852 1_655
Mn0 O10 2.160525 1_654
Mn1 O29 1.955307 1_545
Mn1 O4 1.965086 1_555
Mn1 O8 1.990852 1_455
Mn1 O3 2.160525 1_455
Mn2 O7 2.084209 1_555
Mn2 O6 2.098318 1_555
Mn2 O5 2.180659 1_555
Mn2 O13 2.263616 1_555
Mn3 O17 1.947096 1_555
Mn3 O11 1.957932 1_555
Mn3 O16 2.010121 1_555
Mn3 O19 2.152689 1_655
Mn4 O15 2.084209 1_555
Mn4 O14 2.098318 1_555
Mn4 O12 2.180659 1_555
Mn4 O20 2.263616 1_555
Mn5 O25 1.947096 1_555
Mn5 O18 1.957932 1_555
Mn5 O24 2.010121 1_555
Mn5 O26 2.152689 1_455
Mn6 O23 2.098330 1_555
Mn6 O27 2.144386 1_555
Mn6 O28 2.232638 1_555
Mn6 O2 2.235018 1_565
Mn7 O30 2.098330 1_555
Mn7 O31 2.144386 1_555
Mn7 O21 2.232638 1_556
Mn7 O9 2.235018 1_565
O0 P2 1.578968 1_554
O1 P1 1.568792 1_455
O2 P0 1.550093 1_555
O3 P0 1.554218 1_555
O4 P0 1.578968 1_555
O5 P1 1.557559 1_555
O6 P1 1.533286 1_455
O7 P0 1.535216 1_555
O8 P3 1.568792 1_655
O9 P2 1.550093 1_555
O10 P2 1.554218 1_555
O11 P3 1.562198 1_655
O12 P3 1.557559 1_555
O13 P6 1.548419 1_554
O14 P3 1.533286 1_655
O15 P2 1.535216 1_555
O16 P5 1.565406 1_655
O17 P4 1.581143 1_555
O18 P1 1.562198 1_456
O19 P4 1.554041 1_555
O20 P4 1.548419 1_555
O21 P5 1.559481 1_555
O22 P5 1.570406 1_655
O23 P4 1.533734 1_555
O24 P7 1.565406 1_455
O25 P6 1.581143 1_555
O26 P6 1.554041 1_555
O27 P7 1.532049 1_455
O28 P7 1.559481 1_555
O29 P7 1.570406 1_455
O30 P6 1.533734 1_555
O31 P5 1.532049 1_656
F0 Li1 1.919181 1_655
F0 Li0 2.032929 1_555
F0 Mn6 2.173430 1_545
F0 Mn0 2.210086 1_555
F1 Li3 1.919181 1_455
F1 Li2 2.032929 1_555
F1 Mn7 2.173430 1_545
F1 Mn1 2.210086 1_555
F2 Li5 1.991870 1_655
F2 Li6 2.008697 1_555
F2 Mn2 2.110153 1_555
F2 Mn3 2.226416 1_555
F2 Li4 2.453858 1_555
F3 Mn3 1.920014 1_455
F3 Li6 2.015845 1_555
F3 Li4 2.192550 1_555
F3 Li5 2.415601 1_555
F3 Mn2 2.503959 1_555
F4 Li8 1.991870 1_455
F4 Li9 2.008697 1_555
F4 Mn4 2.110153 1_555
F4 Mn5 2.226416 1_555
F4 Li7 2.453858 1_555
F5 Mn5 1.920014 1_655
F5 Li9 2.015845 1_555
F5 Li7 2.192550 1_555
F5 Li8 2.415601 1_555
F5 Mn4 2.503959 1_555
F6 Mn0 1.949075 1_455
F6 Li10 2.023087 1_545
F6 Li0 2.029009 1_555
F6 Mn6 2.414258 1_545
F7 Mn1 1.949075 1_655
F7 Li11 2.023087 1_545
F7 Li2 2.029009 1_555
F7 Mn7 2.414258 1_545
