# generated using pymatgen
data_Th4P6O23
_symmetry_space_group_name_H-M   'P 1'
_cell_length_a   7.08697661
_cell_length_b   10.45191869
_cell_length_c   12.88501297
_cell_angle_alpha   90.00000000
_cell_angle_beta   90.00000000
_cell_angle_gamma   90.00000000
_symmetry_Int_Tables_number   1
_chemical_formula_structural   Th4P6O23
_chemical_formula_sum   'Th8 P12 O46'
_cell_volume   954.42516556
_cell_formula_units_Z   2
loop_
 _symmetry_equiv_pos_site_id
 _symmetry_equiv_pos_as_xyz
  1  'x, y, z'
loop_
 _atom_site_type_symbol
 _atom_site_label
 _atom_site_symmetry_multiplicity
 _atom_site_fract_x
 _atom_site_fract_y
 _atom_site_fract_z
 _atom_site_occupancy
  Th  Th0  1  0.00000000  0.48893640  0.91558148  1
  Th  Th1  1  0.50000000  0.02250787  0.81684839  1
  Th  Th2  1  0.00000000  0.02045357  0.68424700  1
  Th  Th3  1  0.50000000  0.48936726  0.58861087  1
  Th  Th4  1  0.00000000  0.51106360  0.41558148  1
  Th  Th5  1  0.50000000  0.97749213  0.31684839  1
  Th  Th6  1  0.00000000  0.97954643  0.18424700  1
  Th  Th7  1  0.50000000  0.51063274  0.08861087  1
  P  P0  1  0.00000000  0.12456627  0.91720492  1
  P  P1  1  0.50000000  0.37588975  0.86595568  1
  P  P2  1  0.21052379  0.72387188  0.74143714  1
  P  P3  1  0.78947621  0.72387188  0.74143714  1
  P  P4  1  0.00000000  0.37298171  0.63733437  1
  P  P5  1  0.50000000  0.12592042  0.58313888  1
  P  P6  1  0.00000000  0.87543373  0.41720492  1
  P  P7  1  0.50000000  0.62411025  0.36595568  1
  P  P8  1  0.78947621  0.27612812  0.24143714  1
  P  P9  1  0.21052379  0.27612812  0.24143714  1
  P  P10  1  0.00000000  0.62701829  0.13733437  1
  P  P11  1  0.50000000  0.87407958  0.08313888  1
  O  O0  1  0.50000000  0.94622489  0.98017888  1
  O  O1  1  0.00000000  0.26640669  0.93726573  1
  O  O2  1  0.66869061  0.42491898  0.93063156  1
  O  O3  1  0.33130939  0.42491898  0.93063156  1
  O  O4  1  0.50000000  0.23111755  0.86069390  1
  O  O5  1  0.16751009  0.08145704  0.84786647  1
  O  O6  1  0.83248991  0.08145704  0.84786647  1
  O  O7  1  0.80664993  0.65310489  0.84214689  1
  O  O8  1  0.19335007  0.65310489  0.84214689  1
  O  O9  1  0.50000000  0.43136958  0.75750755  1
  O  O10  1  0.28050188  0.86159616  0.75465351  1
  O  O11  1  0.71949812  0.86159616  0.75465351  1
  O  O12  1  0.00000000  0.43119547  0.74506108  1
  O  O13  1  0.00000000  0.75633252  0.69822326  1
  O  O14  1  0.69413223  0.65348324  0.65535638  1
  O  O15  1  0.30586777  0.65348324  0.65535638  1
  O  O16  1  0.66948097  0.08258863  0.65133817  1
  O  O17  1  0.33051903  0.08258863  0.65133817  1
  O  O18  1  0.00000000  0.22794476  0.64531351  1
  O  O19  1  0.83177893  0.42062456  0.57193957  1
  O  O20  1  0.16822107  0.42062456  0.57193957  1
  O  O21  1  0.50000000  0.26821951  0.56504987  1
  O  O22  1  0.00000000  0.95020131  0.51935225  1
  O  O23  1  0.50000000  0.05377511  0.48017888  1
  O  O24  1  0.00000000  0.73359331  0.43726573  1
  O  O25  1  0.66869061  0.57508102  0.43063156  1
  O  O26  1  0.33130939  0.57508102  0.43063156  1
  O  O27  1  0.50000000  0.76888245  0.36069390  1
  O  O28  1  0.16751009  0.91854296  0.34786647  1
  O  O29  1  0.83248991  0.91854296  0.34786647  1
  O  O30  1  0.19335007  0.34689511  0.34214689  1
  O  O31  1  0.80664993  0.34689511  0.34214689  1
  O  O32  1  0.50000000  0.56863042  0.25750755  1
  O  O33  1  0.71949812  0.13840384  0.25465351  1
  O  O34  1  0.28050188  0.13840384  0.25465351  1
  O  O35  1  0.00000000  0.56880453  0.24506108  1
  O  O36  1  0.00000000  0.24366748  0.19822326  1
  O  O37  1  0.69413223  0.34651676  0.15535638  1
  O  O38  1  0.30586777  0.34651676  0.15535638  1
  O  O39  1  0.66948097  0.91741137  0.15133817  1
  O  O40  1  0.33051903  0.91741137  0.15133817  1
  O  O41  1  0.00000000  0.77205524  0.14531351  1
  O  O42  1  0.16822107  0.57937544  0.07193957  1
  O  O43  1  0.83177893  0.57937544  0.07193957  1
  O  O44  1  0.50000000  0.73178049  0.06504987  1
  O  O45  1  0.00000000  0.04979869  0.01935225  1
loop_
_geom_bond_atom_site_label_1
_geom_bond_atom_site_label_2
_geom_bond_distance
_geom_bond_site_symmetry_2
O0 P11 1.525968 1_556
O0 Th1 2.250484 1_565
O1 P0 1.504870 1_555
O1 Th0 2.342584 1_555
O2 P1 1.544769 1_555
O2 Th0 2.449148 1_655
O2 Th7 2.524946 1_556
O3 P1 1.544769 1_555
O3 Th0 2.449148 1_555
O3 Th7 2.524946 1_556
O4 P1 1.514665 1_555
O4 Th1 2.252374 1_555
O5 P0 1.552588 1_555
O5 Th1 2.468143 1_555
O5 Th2 2.502101 1_555
O6 P0 1.552588 1_655
O6 Th1 2.468143 1_555
O6 Th2 2.502101 1_655
O7 P3 1.498594 1_555
O7 Th0 2.391060 1_655
O8 P2 1.498594 1_555
O8 Th0 2.391060 1_555
O9 P1 1.512895 1_555
O9 Th3 2.259085 1_555
O10 P2 1.532012 1_555
O10 Th1 2.427058 1_565
O10 Th2 2.744374 1_565
O11 P3 1.532012 1_555
O11 Th1 2.427058 1_565
O11 Th2 2.744374 1_665
O12 P4 1.515558 1_555
O12 Th0 2.278534 1_555
O13 P3 1.628233 1_455
O13 P2 1.628233 1_555
O13 Th2 2.766439 1_565
O14 P3 1.492661 1_555
O14 Th3 2.361108 1_555
O15 P2 1.492661 1_555
O15 Th3 2.361108 1_555
O16 P5 1.555628 1_555
O16 Th2 2.467450 1_655
O16 Th1 2.526852 1_555
O17 P5 1.555628 1_555
O17 Th2 2.467450 1_555
O17 Th1 2.526852 1_555
O18 P4 1.519397 1_555
O18 Th2 2.225947 1_555
O19 P4 1.542482 1_655
O19 Th3 2.468002 1_555
O19 Th4 2.524625 1_655
O20 P4 1.542482 1_555
O20 Th3 2.468002 1_555
O20 Th4 2.524625 1_555
O21 P5 1.505451 1_555
O21 Th3 2.331270 1_555
O22 P6 1.530683 1_555
O22 Th2 2.247973 1_565
O23 P5 1.525968 1_555
O23 Th5 2.250484 1_545
O24 P6 1.504870 1_555
O24 Th4 2.342584 1_555
O25 P7 1.544769 1_555
O25 Th4 2.449148 1_655
O25 Th3 2.524946 1_555
O26 P7 1.544769 1_555
O26 Th4 2.449148 1_555
O26 Th3 2.524946 1_555
O27 P7 1.514665 1_555
O27 Th5 2.252374 1_555
O28 P6 1.552588 1_555
O28 Th5 2.468143 1_555
O28 Th6 2.502101 1_555
O29 P6 1.552588 1_655
O29 Th5 2.468143 1_555
O29 Th6 2.502101 1_655
O30 P9 1.498594 1_555
O30 Th4 2.391060 1_555
O31 P8 1.498594 1_555
O31 Th4 2.391060 1_655
O32 P7 1.512895 1_555
O32 Th7 2.259085 1_555
O33 P8 1.532012 1_555
O33 Th5 2.427058 1_545
O33 Th6 2.744374 1_645
O34 P9 1.532012 1_555
O34 Th5 2.427058 1_545
O34 Th6 2.744374 1_545
O35 P10 1.515558 1_555
O35 Th4 2.278534 1_555
O36 P8 1.628233 1_455
O36 P9 1.628233 1_555
O36 Th6 2.766439 1_545
O37 P8 1.492661 1_555
O37 Th7 2.361108 1_555
O38 P9 1.492661 1_555
O38 Th7 2.361108 1_555
O39 P11 1.555628 1_555
O39 Th6 2.467450 1_655
O39 Th5 2.526852 1_555
O40 P11 1.555628 1_555
O40 Th6 2.467450 1_555
O40 Th5 2.526852 1_555
O41 P10 1.519397 1_555
O41 Th6 2.225947 1_555
O42 P10 1.542482 1_555
O42 Th7 2.468002 1_555
O42 Th0 2.524625 1_554
O43 P10 1.542482 1_655
O43 Th7 2.468002 1_555
O43 Th0 2.524625 1_654
O44 P11 1.505451 1_555
O44 Th7 2.331270 1_555
O45 P0 1.530683 1_554
O45 Th6 2.247973 1_545
