# generated using pymatgen
data_Li4Ti2Si4O13
_symmetry_space_group_name_H-M   'P 1'
_cell_length_a   5.07568300
_cell_length_b   13.81293800
_cell_length_c   14.20419900
_cell_angle_alpha   90.00000000
_cell_angle_beta   90.00000000
_cell_angle_gamma   90.00000000
_symmetry_Int_Tables_number   1
_chemical_formula_structural   Li4Ti2Si4O13
_chemical_formula_sum   'Li16 Ti8 Si16 O52'
_cell_volume   995.85773542
_cell_formula_units_Z   4
loop_
 _symmetry_equiv_pos_site_id
 _symmetry_equiv_pos_as_xyz
  1  'x, y, z'
loop_
 _atom_site_type_symbol
 _atom_site_label
 _atom_site_symmetry_multiplicity
 _atom_site_fract_x
 _atom_site_fract_y
 _atom_site_fract_z
 _atom_site_occupancy
  Li  Li0  1  0.17859200  0.04037700  0.22220000  1
  Li  Li1  1  0.66813700  0.10830300  0.92178000  1
  Li  Li2  1  0.65534800  0.13401600  0.10874800  1
  Li  Li3  1  0.25002800  0.21172500  0.83720500  1
  Li  Li4  1  0.75002800  0.28827500  0.33720500  1
  Li  Li5  1  0.15534800  0.36598400  0.60874800  1
  Li  Li6  1  0.16813700  0.39169700  0.42178000  1
  Li  Li7  1  0.67859200  0.45962300  0.72220000  1
  Li  Li8  1  0.32140800  0.54037700  0.22220000  1
  Li  Li9  1  0.83186300  0.60830300  0.92178000  1
  Li  Li10  1  0.84465200  0.63401600  0.10874800  1
  Li  Li11  1  0.24997200  0.71172500  0.83720500  1
  Li  Li12  1  0.74997200  0.78827500  0.33720500  1
  Li  Li13  1  0.34465200  0.86598400  0.60874800  1
  Li  Li14  1  0.33186300  0.89169700  0.42178000  1
  Li  Li15  1  0.82140800  0.95962300  0.72220000  1
  Ti  Ti0  1  0.35049300  0.08247400  0.62418400  1
  Ti  Ti1  1  0.18656400  0.16898600  0.42423900  1
  Ti  Ti2  1  0.68656400  0.33101400  0.92423900  1
  Ti  Ti3  1  0.85049300  0.41752600  0.12418400  1
  Ti  Ti4  1  0.14950700  0.58247400  0.62418400  1
  Ti  Ti5  1  0.31343600  0.66898600  0.42423900  1
  Ti  Ti6  1  0.81343600  0.83101400  0.92423900  1
  Ti  Ti7  1  0.64950700  0.91752600  0.12418400  1
  Si  Si0  1  0.16155700  0.02176400  0.99944900  1
  Si  Si1  1  0.68961000  0.06153600  0.31649900  1
  Si  Si2  1  0.84556600  0.18947600  0.72927500  1
  Si  Si3  1  0.18153900  0.22505600  0.04784200  1
  Si  Si4  1  0.68153900  0.27494400  0.54784200  1
  Si  Si5  1  0.34556600  0.31052400  0.22927500  1
  Si  Si6  1  0.18961000  0.43846400  0.81649900  1
  Si  Si7  1  0.66155700  0.47823600  0.49944900  1
  Si  Si8  1  0.33844300  0.52176400  0.99944900  1
  Si  Si9  1  0.81039000  0.56153600  0.31649900  1
  Si  Si10  1  0.65443400  0.68947600  0.72927500  1
  Si  Si11  1  0.31846100  0.72505600  0.04784200  1
  Si  Si12  1  0.81846100  0.77494400  0.54784200  1
  Si  Si13  1  0.15443400  0.81052400  0.22927500  1
  Si  Si14  1  0.31039000  0.93846400  0.81649900  1
  Si  Si15  1  0.83844300  0.97823600  0.49944900  1
  O  O0  1  0.43995000  0.02376600  0.05417300  1
  O  O1  1  0.76885400  0.03565000  0.20750100  1
  O  O2  1  0.21611800  0.03321500  0.88472200  1
  O  O3  1  0.04766700  0.06466800  0.52100300  1
  O  O4  1  0.37503300  0.07430100  0.33759000  1
  O  O5  1  0.67423500  0.09351800  0.70593500  1
  O  O6  1  0.99993000  0.12489700  0.02616900  1
  O  O7  1  0.86065600  0.15589300  0.34685100  1
  O  O8  1  0.15883100  0.17693800  0.70360000  1
  O  O9  1  0.48532900  0.18477100  0.52591000  1
  O  O10  1  0.24626200  0.21642200  0.16187100  1
  O  O11  1  0.82296600  0.21551400  0.84152900  1
  O  O12  1  0.45524600  0.21771000  0.98858700  1
  O  O13  1  0.95524600  0.28229000  0.48858700  1
  O  O14  1  0.32296600  0.28448600  0.34152900  1
  O  O15  1  0.74626200  0.28357800  0.66187100  1
  O  O16  1  0.98532900  0.31522900  0.02591000  1
  O  O17  1  0.65883100  0.32306200  0.20360000  1
  O  O18  1  0.36065600  0.34410700  0.84685100  1
  O  O19  1  0.49993000  0.37510300  0.52616900  1
  O  O20  1  0.17423500  0.40648200  0.20593500  1
  O  O21  1  0.87503300  0.42569900  0.83759000  1
  O  O22  1  0.54766700  0.43533200  0.02100300  1
  O  O23  1  0.71611800  0.46678500  0.38472200  1
  O  O24  1  0.26885400  0.46435000  0.70750100  1
  O  O25  1  0.93995000  0.47623400  0.55417300  1
  O  O26  1  0.06005000  0.52376600  0.05417300  1
  O  O27  1  0.73114600  0.53565000  0.20750100  1
  O  O28  1  0.28388200  0.53321500  0.88472200  1
  O  O29  1  0.45233300  0.56466800  0.52100300  1
  O  O30  1  0.12496700  0.57430100  0.33759000  1
  O  O31  1  0.82576500  0.59351800  0.70593500  1
  O  O32  1  0.50007000  0.62489700  0.02616900  1
  O  O33  1  0.63934400  0.65589300  0.34685100  1
  O  O34  1  0.34116900  0.67693800  0.70360000  1
  O  O35  1  0.01467100  0.68477100  0.52591000  1
  O  O36  1  0.25373800  0.71642200  0.16187100  1
  O  O37  1  0.67703400  0.71551400  0.84152900  1
  O  O38  1  0.04475400  0.71771000  0.98858700  1
  O  O39  1  0.54475400  0.78229000  0.48858700  1
  O  O40  1  0.17703400  0.78448600  0.34152900  1
  O  O41  1  0.75373800  0.78357800  0.66187100  1
  O  O42  1  0.51467100  0.81522900  0.02591000  1
  O  O43  1  0.84116900  0.82306200  0.20360000  1
  O  O44  1  0.13934400  0.84410700  0.84685100  1
  O  O45  1  0.00007000  0.87510300  0.52616900  1
  O  O46  1  0.32576500  0.90648200  0.20593500  1
  O  O47  1  0.62496700  0.92569900  0.83759000  1
  O  O48  1  0.95233300  0.93533200  0.02100300  1
  O  O49  1  0.78388200  0.96678500  0.38472200  1
  O  O50  1  0.23114600  0.96435000  0.70750100  1
  O  O51  1  0.56005000  0.97623400  0.55417300  1
loop_
_geom_bond_atom_site_label_1
_geom_bond_atom_site_label_2
_geom_bond_distance
_geom_bond_site_symmetry_2
Li0 O4 1.974873 1_555
Li0 O46 2.007979 1_545
Li0 O1 2.091174 1_455
Li0 O10 2.601048 1_555
Li1 O11 2.027318 1_555
Li1 O12 2.086129 1_555
Li1 O6 2.255490 1_556
Li1 O0 2.498277 1_556
Li1 O2 2.572288 1_555
Li2 O0 2.028636 1_555
Li2 O1 2.036082 1_555
Li2 O6 2.109664 1_555
Li2 O12 2.298078 1_554
Li2 O10 2.485243 1_555
Li3 O18 1.917756 1_555
Li3 O8 2.011621 1_555
Li3 O11 2.169133 1_455
Li3 O12 2.390696 1_555
Li3 O2 2.562241 1_555
Li4 O7 1.917756 1_555
Li4 O17 2.011621 1_555
Li4 O14 2.169133 1_555
Li4 O13 2.390696 1_555
Li4 O23 2.562241 1_555
Li5 O25 2.028636 1_455
Li5 O24 2.036082 1_555
Li5 O19 2.109664 1_555
Li5 O13 2.298078 1_455
Li5 O15 2.485243 1_455
Li6 O14 2.027318 1_555
Li6 O13 2.086129 1_455
Li6 O19 2.255490 1_555
Li6 O25 2.498277 1_455
Li6 O23 2.572288 1_455
Li7 O21 1.974873 1_555
Li7 O31 2.007979 1_555
Li7 O24 2.091174 1_555
Li7 O15 2.601048 1_555
Li8 O30 1.974873 1_555
Li8 O20 2.007979 1_555
Li8 O27 2.091174 1_555
Li8 O36 2.601048 1_555
Li9 O37 2.027318 1_555
Li9 O38 2.086129 1_655
Li9 O32 2.255490 1_556
Li9 O26 2.498277 1_656
Li9 O28 2.572288 1_655
Li10 O26 2.028636 1_655
Li10 O27 2.036082 1_555
Li10 O32 2.109664 1_555
Li10 O38 2.298078 1_654
Li10 O36 2.485243 1_655
Li11 O44 1.917756 1_555
Li11 O34 2.011621 1_555
Li11 O37 2.169133 1_555
Li11 O38 2.390696 1_555
Li11 O28 2.562241 1_555
Li12 O33 1.917756 1_555
Li12 O43 2.011621 1_555
Li12 O40 2.169133 1_655
Li12 O39 2.390696 1_555
Li12 O49 2.562241 1_555
Li13 O51 2.028636 1_555
Li13 O50 2.036082 1_555
Li13 O45 2.109664 1_555
Li13 O39 2.298078 1_555
Li13 O41 2.485243 1_555
Li14 O40 2.027318 1_555
Li14 O39 2.086129 1_555
Li14 O45 2.255490 1_555
Li14 O51 2.498277 1_555
Li14 O49 2.572288 1_555
Li15 O47 1.974873 1_555
Li15 O5 2.007979 1_565
Li15 O50 2.091174 1_655
Li15 O41 2.601048 1_555
O0 Si0 1.612961 1_554
O0 Ti7 2.067314 1_545
O1 Si1 1.639098 1_555
O1 Ti7 2.104699 1_545
O2 Si0 1.660519 1_555
O2 Si14 1.697337 1_545
O3 Si15 1.626908 1_445
O3 Ti1 2.112451 1_555
O3 Ti0 2.137991 1_555
O4 Si1 1.634095 1_555
O4 Ti1 2.034813 1_555
O5 Si2 1.619568 1_555
O5 Ti0 2.017875 1_555
O6 Si0 1.687142 1_654
O6 Si3 1.690713 1_655
O7 Si1 1.624288 1_555
O7 Ti1 1.994347 1_655
O8 Si2 1.640488 1_455
O8 Ti0 1.980256 1_555
O9 Si4 1.624891 1_555
O9 Ti0 2.100848 1_555
O9 Ti1 2.105399 1_555
O10 Si3 1.656968 1_555
O10 Si5 1.691227 1_555
O11 Si2 1.638559 1_555
O11 Ti2 2.098769 1_555
O12 Si3 1.627489 1_556
O12 Ti2 2.159476 1_555
O13 Si4 1.627489 1_555
O13 Ti1 2.159476 1_655
O14 Si5 1.638559 1_555
O14 Ti1 2.098769 1_555
O15 Si4 1.656968 1_555
O15 Si2 1.691227 1_555
O16 Si3 1.624891 1_655
O16 Ti3 2.100848 1_555
O16 Ti2 2.105399 1_554
O17 Si5 1.640488 1_555
O17 Ti3 1.980256 1_555
O18 Si6 1.624288 1_555
O18 Ti2 1.994347 1_555
O19 Si7 1.687142 1_555
O19 Si4 1.690713 1_555
O20 Si5 1.619568 1_555
O20 Ti3 2.017875 1_455
O21 Si6 1.634095 1_655
O21 Ti2 2.034813 1_555
O22 Si8 1.626908 1_554
O22 Ti2 2.112451 1_554
O22 Ti3 2.137991 1_555
O23 Si7 1.660519 1_555
O23 Si9 1.697337 1_555
O24 Si6 1.639098 1_555
O24 Ti4 2.104699 1_555
O25 Si7 1.612961 1_555
O25 Ti4 2.067314 1_655
O26 Si8 1.612961 1_554
O26 Ti3 2.067314 1_455
O27 Si9 1.639098 1_555
O27 Ti3 2.104699 1_555
O28 Si8 1.660519 1_555
O28 Si6 1.697337 1_555
O29 Si7 1.626908 1_555
O29 Ti5 2.112451 1_555
O29 Ti4 2.137991 1_555
O30 Si9 1.634095 1_455
O30 Ti5 2.034813 1_555
O31 Si10 1.619568 1_555
O31 Ti4 2.017875 1_655
O32 Si8 1.687142 1_554
O32 Si11 1.690713 1_555
O33 Si9 1.624288 1_555
O33 Ti5 1.994347 1_555
O34 Si10 1.640488 1_555
O34 Ti4 1.980256 1_555
O35 Si12 1.624891 1_455
O35 Ti4 2.100848 1_555
O35 Ti5 2.105399 1_555
O36 Si11 1.656968 1_555
O36 Si13 1.691227 1_555
O37 Si10 1.638559 1_555
O37 Ti6 2.098769 1_555
O38 Si11 1.627489 1_556
O38 Ti6 2.159476 1_455
O39 Si12 1.627489 1_555
O39 Ti5 2.159476 1_555
O40 Si13 1.638559 1_555
O40 Ti5 2.098769 1_555
O41 Si12 1.656968 1_555
O41 Si10 1.691227 1_555
O42 Si11 1.624891 1_555
O42 Ti7 2.100848 1_555
O42 Ti6 2.105399 1_554
O43 Si13 1.640488 1_655
O43 Ti7 1.980256 1_555
O44 Si14 1.624288 1_555
O44 Ti6 1.994347 1_455
O45 Si15 1.687142 1_455
O45 Si12 1.690713 1_455
O46 Si13 1.619568 1_555
O46 Ti7 2.017875 1_555
O47 Si14 1.634095 1_555
O47 Ti6 2.034813 1_555
O48 Si0 1.626908 1_664
O48 Ti6 2.112451 1_554
O48 Ti7 2.137991 1_555
O49 Si15 1.660519 1_555
O49 Si1 1.697337 1_565
O50 Si14 1.639098 1_555
O50 Ti0 2.104699 1_565
O51 Si15 1.612961 1_555
O51 Ti0 2.067314 1_565
