# generated using pymatgen
data_Li7Fe4NiO12
_symmetry_space_group_name_H-M   'P 1'
_cell_length_a   4.98027900
_cell_length_b   5.64738729
_cell_length_c   7.55951612
_cell_angle_alpha   79.74204326
_cell_angle_beta   89.86961333
_cell_angle_gamma   89.80326750
_symmetry_Int_Tables_number   1
_chemical_formula_structural   Li7Fe4NiO12
_chemical_formula_sum   'Li7 Fe4 Ni1 O12'
_cell_volume   209.21567080
_cell_formula_units_Z   1
loop_
 _symmetry_equiv_pos_site_id
 _symmetry_equiv_pos_as_xyz
  1  'x, y, z'
loop_
 _atom_site_type_symbol
 _atom_site_label
 _atom_site_symmetry_multiplicity
 _atom_site_fract_x
 _atom_site_fract_y
 _atom_site_fract_z
 _atom_site_occupancy
  Li  Li0  1  0.50010100  0.88168000  0.69367800  1
  Li  Li1  1  0.49946400  0.88584000  0.18861300  1
  Li  Li2  1  0.99525500  0.69959600  0.85143000  1
  Li  Li3  1  0.00243800  0.68708400  0.33794700  1
  Li  Li4  1  0.99906800  0.38324500  0.18819400  1
  Li  Li5  1  0.49728700  0.18566200  0.85027400  1
  Li  Li6  1  0.50550400  0.18863500  0.34309000  1
  Fe  Fe0  1  0.00473900  0.02601700  0.51151700  1
  Fe  Fe1  1  0.49530800  0.53709900  0.01939300  1
  Fe  Fe2  1  0.50068300  0.53974500  0.51120100  1
  Fe  Fe3  1  0.99893700  0.03219400  0.02433400  1
  Ni  Ni0  1  0.00075600  0.37992100  0.69065400  1
  O  O0  1  0.67215300  0.84968600  0.94643800  1
  O  O1  1  0.32732800  0.85819700  0.44725700  1
  O  O2  1  0.83226800  0.70100900  0.59196900  1
  O  O3  1  0.17618800  0.71841500  0.08903500  1
  O  O4  1  0.34539700  0.53251500  0.76656700  1
  O  O5  1  0.63947300  0.53498800  0.26571500  1
  O  O6  1  0.82275700  0.35578900  0.93777000  1
  O  O7  1  0.17568300  0.35772600  0.44990900  1
  O  O8  1  0.68493100  0.21307100  0.59226800  1
  O  O9  1  0.32516000  0.22333200  0.09157200  1
  O  O10  1  0.14208200  0.04541500  0.77038600  1
  O  O11  1  0.85998400  0.03430500  0.26709400  1
loop_
_geom_bond_atom_site_label_1
_geom_bond_atom_site_label_2
_geom_bond_distance
_geom_bond_site_symmetry_2
Li0 O0 2.073942 1_555
Li0 O1 2.079460 1_555
Li0 O4 2.099293 1_555
Li0 O8 2.105978 1_565
Li0 O10 2.132003 1_565
Li0 O2 2.151952 1_555
Li1 O0 2.063412 1_554
Li1 O3 2.078997 1_555
Li1 O5 2.081563 1_555
Li1 O9 2.101883 1_565
Li1 O1 2.113477 1_555
Li1 O11 2.114496 1_565
Li2 O0 2.006441 1_555
Li2 O3 2.031143 1_656
Li2 O10 2.075039 1_665
Li2 O6 2.119302 1_555
Li2 O2 2.123127 1_555
Li2 O4 2.131182 1_655
Li3 O3 2.048359 1_555
Li3 O11 2.062382 1_465
Li3 O7 2.086157 1_555
Li3 O2 2.111359 1_455
Li3 O5 2.117972 1_455
Li3 O1 2.129771 1_555
Li4 O9 2.050857 1_655
Li4 O11 2.075497 1_555
Li4 O3 2.103793 1_655
Li4 O5 2.109169 1_555
Li4 O6 2.119405 1_554
Li4 O7 2.148062 1_655
Li5 O6 2.056671 1_555
Li5 O9 2.058467 1_556
Li5 O10 2.075162 1_555
Li5 O4 2.088092 1_555
Li5 O0 2.094576 1_545
Li5 O8 2.141616 1_555
Li6 O5 2.052532 1_555
Li6 O9 2.081853 1_555
Li6 O11 2.090330 1_555
Li6 O1 2.091577 1_545
Li6 O8 2.113491 1_555
Li6 O7 2.126005 1_555
Fe0 O1 1.966029 1_545
Fe0 O11 1.977628 1_455
Fe0 O2 2.021737 1_445
Fe0 O7 2.036990 1_555
Fe0 O8 2.058891 1_455
Fe0 O10 2.095800 1_555
Fe1 O9 1.954352 1_555
Fe1 O0 1.964143 1_554
Fe1 O5 1.995265 1_555
Fe1 O3 2.007129 1_555
Fe1 O4 2.057954 1_554
Fe1 O6 2.073064 1_554
Fe2 O1 1.973571 1_555
Fe2 O5 1.983460 1_555
Fe2 O7 2.018820 1_555
Fe2 O2 2.035250 1_555
Fe2 O8 2.051661 1_555
Fe2 O4 2.071648 1_555
Fe3 O3 1.959878 1_645
Fe3 O11 1.961827 1_555
Fe3 O6 2.025687 1_554
Fe3 O10 2.035247 1_654
Fe3 O9 2.067445 1_655
Fe3 O0 2.071184 1_544
Ni0 O10 2.003646 1_555
Ni0 O2 2.014781 1_455
Ni0 O7 2.039619 1_555
Ni0 O8 2.044539 1_455
Ni0 O6 2.048600 1_455
Ni0 O4 2.051531 1_555
