# generated using pymatgen
data_LiFe(PO3)4
_symmetry_space_group_name_H-M   'P 1'
_cell_length_a   8.99082940
_cell_length_b   8.99082940
_cell_length_c   9.96470854
_cell_angle_alpha   58.98368769
_cell_angle_beta   58.98368769
_cell_angle_gamma   49.49209477
_symmetry_Int_Tables_number   1
_chemical_formula_structural   LiFe(PO3)4
_chemical_formula_sum   'Li2 Fe2 P8 O24'
_cell_volume   504.30992958
_cell_formula_units_Z   2
loop_
 _symmetry_equiv_pos_site_id
 _symmetry_equiv_pos_as_xyz
  1  'x, y, z'
loop_
 _atom_site_type_symbol
 _atom_site_label
 _atom_site_symmetry_multiplicity
 _atom_site_fract_x
 _atom_site_fract_y
 _atom_site_fract_z
 _atom_site_occupancy
  Li  Li0  1  0.83468900  0.16531100  0.25000000  1
  Li  Li1  1  0.16531100  0.83468900  0.75000000  1
  Fe  Fe0  1  0.28178000  0.71822000  0.25000000  1
  Fe  Fe1  1  0.71822000  0.28178000  0.75000000  1
  P  P0  1  0.67961000  0.04015600  0.11108500  1
  P  P1  1  0.27010100  0.43577000  0.16163100  1
  P  P2  1  0.56423000  0.72989900  0.33836900  1
  P  P3  1  0.95984400  0.32039000  0.38891500  1
  P  P4  1  0.04015600  0.67961000  0.61108500  1
  P  P5  1  0.43577000  0.27010100  0.66163100  1
  P  P6  1  0.72989900  0.56423000  0.83836900  1
  P  P7  1  0.32039000  0.95984400  0.88891500  1
  O  O0  1  0.15582400  0.59585000  0.03928000  1
  O  O1  1  0.45303100  0.23451300  0.10130000  1
  O  O2  1  0.76035500  0.02385900  0.21777400  1
  O  O3  1  0.65058100  0.85700800  0.16649600  1
  O  O4  1  0.20043200  0.94633300  0.07029000  1
  O  O5  1  0.14299200  0.34941900  0.33350400  1
  O  O6  1  0.97614100  0.23964500  0.28222600  1
  O  O7  1  0.51558300  0.63663800  0.28423400  1
  O  O8  1  0.36336200  0.48441700  0.21576600  1
  O  O9  1  0.76548700  0.54696900  0.39870000  1
  O  O10  1  0.40415000  0.84417600  0.46072000  1
  O  O11  1  0.05366700  0.79956800  0.42971000  1
  O  O12  1  0.94633300  0.20043200  0.57029000  1
  O  O13  1  0.59585000  0.15582400  0.53928000  1
  O  O14  1  0.23451300  0.45303100  0.60130000  1
  O  O15  1  0.63663800  0.51558300  0.78423400  1
  O  O16  1  0.48441700  0.36336200  0.71576600  1
  O  O17  1  0.02385900  0.76035500  0.71777400  1
  O  O18  1  0.85700800  0.65058200  0.66649600  1
  O  O19  1  0.79956800  0.05366700  0.92971000  1
  O  O20  1  0.34941900  0.14299200  0.83350400  1
  O  O21  1  0.23964500  0.97614100  0.78222600  1
  O  O22  1  0.54696900  0.76548700  0.89870000  1
  O  O23  1  0.84417600  0.40415000  0.96072000  1
loop_
_geom_bond_atom_site_label_1
_geom_bond_atom_site_label_2
_geom_bond_distance
_geom_bond_site_symmetry_2
Li0 O6 1.978234 1_555
Li0 O2 1.978234 1_555
Li0 O23 2.556006 1_554
Li0 O13 2.556006 1_555
Li1 O21 1.978234 1_555
Li1 O17 1.978234 1_555
Li1 O10 2.556006 1_555
Li1 O0 2.556006 1_556
Fe0 O8 1.884472 1_555
Fe0 O7 1.884472 1_555
Fe0 O11 1.887896 1_555
Fe0 O4 1.887896 1_555
Fe1 O16 1.884472 1_555
Fe1 O15 1.884472 1_555
Fe1 O19 1.887896 1_555
Fe1 O12 1.887896 1_555
O0 P1 1.474804 1_555
O1 P1 1.605157 1_555
O1 P0 1.617885 1_555
O2 P0 1.474919 1_555
O3 P0 1.599144 1_565
O3 P2 1.614695 1_555
O4 P7 1.542587 1_554
O5 P3 1.599144 1_455
O5 P1 1.614695 1_555
O6 P3 1.474919 1_555
O7 P2 1.539834 1_555
O8 P1 1.539834 1_555
O9 P2 1.605157 1_555
O9 P3 1.617885 1_555
O10 P2 1.474804 1_555
O11 P4 1.542587 1_555
O12 P3 1.542587 1_555
O13 P5 1.474804 1_555
O14 P5 1.605157 1_555
O14 P4 1.617885 1_555
O15 P6 1.539834 1_555
O16 P5 1.539834 1_555
O17 P4 1.474919 1_555
O18 P4 1.599138 1_655
O18 P6 1.614698 1_555
O19 P0 1.542587 1_556
O20 P7 1.599144 1_545
O20 P5 1.614695 1_555
O21 P7 1.474919 1_555
O22 P6 1.605157 1_555
O22 P7 1.617885 1_555
O23 P6 1.474804 1_555
