# generated using pymatgen
data_RbHSO4
_symmetry_space_group_name_H-M   'P 1'
_cell_length_a   4.78317100
_cell_length_b   14.69723700
_cell_length_c   15.13329219
_cell_angle_alpha   60.65813359
_cell_angle_beta   90.00000000
_cell_angle_gamma   90.00000000
_symmetry_Int_Tables_number   1
_chemical_formula_structural   RbHSO4
_chemical_formula_sum   'Rb8 H8 S8 O32'
_cell_volume   927.38009504
_cell_formula_units_Z   8
loop_
 _symmetry_equiv_pos_site_id
 _symmetry_equiv_pos_as_xyz
  1  'x, y, z'
loop_
 _atom_site_type_symbol
 _atom_site_label
 _atom_site_symmetry_multiplicity
 _atom_site_fract_x
 _atom_site_fract_y
 _atom_site_fract_z
 _atom_site_occupancy
  Rb  Rb0  1  0.93973400  0.87756700  0.90979500  1
  Rb  Rb1  1  0.06026600  0.87756700  0.40979500  1
  Rb  Rb2  1  0.53699500  0.61833300  0.83892100  1
  Rb  Rb3  1  0.46300500  0.61833300  0.33892100  1
  Rb  Rb4  1  0.32043800  0.12100500  0.59124200  1
  Rb  Rb5  1  0.67956200  0.12100500  0.09124200  1
  Rb  Rb6  1  0.86211300  0.39487300  0.67720600  1
  Rb  Rb7  1  0.13788700  0.39487300  0.17720600  1
  H  H0  1  0.36981000  0.87314900  0.61994600  1
  H  H1  1  0.63019000  0.87314900  0.11994600  1
  H  H2  1  0.67209000  0.73119900  0.55199500  1
  H  H3  1  0.32791000  0.73119900  0.05199500  1
  H  H4  1  0.05873400  0.16486600  0.78276500  1
  H  H5  1  0.94126600  0.16486600  0.28276500  1
  H  H6  1  0.45577600  0.35448800  0.88881700  1
  H  H7  1  0.54422400  0.35448800  0.38881700  1
  S  S0  1  0.93583700  0.86476400  0.67705700  1
  S  S1  1  0.06416300  0.86476400  0.17705700  1
  S  S2  1  0.35848100  0.61476500  0.59636500  1
  S  S3  1  0.64151900  0.61476500  0.09636500  1
  S  S4  1  0.46491500  0.10647200  0.84840400  1
  S  S5  1  0.53508500  0.10647200  0.34840400  1
  S  S6  1  0.04761200  0.36455000  0.94550800  1
  S  S7  1  0.95238800  0.36455000  0.44550800  1
  O  O0  1  0.86446600  0.95585600  0.68772200  1
  O  O1  1  0.13553400  0.95585600  0.18772200  1
  O  O2  1  0.70449300  0.83340400  0.63255600  1
  O  O3  1  0.29550700  0.83340400  0.13255600  1
  O  O4  1  0.04879800  0.77753600  0.77020000  1
  O  O5  1  0.95120200  0.77753600  0.27020000  1
  O  O6  1  0.17836100  0.90319100  0.59266500  1
  O  O7  1  0.82163900  0.90319100  0.09266500  1
  O  O8  1  0.29931000  0.55348100  0.54597700  1
  O  O9  1  0.70069000  0.55348100  0.04597700  1
  O  O10  1  0.54137100  0.56080600  0.68457500  1
  O  O11  1  0.45862900  0.56080600  0.18457500  1
  O  O12  1  0.54732300  0.71311900  0.51112800  1
  O  O13  1  0.45267700  0.71311900  0.01112800  1
  O  O14  1  0.11488200  0.66396300  0.61281400  1
  O  O15  1  0.88511800  0.66396300  0.11281400  1
  O  O16  1  0.45153300  0.00579900  0.84957600  1
  O  O17  1  0.54846700  0.00579900  0.34957600  1
  O  O18  1  0.36593800  0.10195300  0.94113000  1
  O  O19  1  0.63406200  0.10195300  0.44113000  1
  O  O20  1  0.25756200  0.18314000  0.75809100  1
  O  O21  1  0.74243800  0.18314000  0.25809100  1
  O  O22  1  0.73538700  0.15948200  0.81228200  1
  O  O23  1  0.26461300  0.15948200  0.31228200  1
  O  O24  1  0.06358700  0.47165300  0.92788000  1
  O  O25  1  0.93641300  0.47165300  0.42788000  1
  O  O26  1  0.25500400  0.35519200  0.86777200  1
  O  O27  1  0.74499600  0.35519200  0.36777200  1
  O  O28  1  0.13227200  0.28630500  0.04837100  1
  O  O29  1  0.86772800  0.28630500  0.54837100  1
  O  O30  1  0.77831500  0.33928600  0.91523900  1
  O  O31  1  0.22168500  0.33928600  0.41523900  1
loop_
_geom_bond_atom_site_label_1
_geom_bond_atom_site_label_2
_geom_bond_distance
_geom_bond_site_symmetry_2
H0 O6 1.012579 1_555
H0 O2 1.682587 1_555
H1 O7 1.012579 1_555
H1 O3 1.682587 1_555
H2 O12 0.985038 1_555
H2 Rb1 2.858160 1_655
H3 O13 0.985038 1_555
H3 Rb0 2.858160 1_454
H4 O20 1.008826 1_555
H4 O22 1.600999 1_455
H4 Rb6 3.093793 1_455
H5 O21 1.008826 1_555
H5 O23 1.600999 1_655
H5 Rb7 3.093793 1_655
H6 O26 1.010215 1_555
H6 O30 1.581883 1_555
H7 O27 1.010215 1_555
H7 O31 1.581883 1_555
O0 S0 1.465176 1_555
O0 Rb0 2.993010 1_555
O0 Rb4 3.050705 1_665
O0 Rb4 3.364730 1_565
O1 S1 1.465176 1_555
O1 Rb1 2.993010 1_555
O1 Rb5 3.050705 1_465
O1 Rb5 3.364730 1_565
O2 S0 1.481430 1_555
O2 Rb2 3.272912 1_555
O3 S1 1.481430 1_555
O3 Rb3 3.272912 1_555
O4 S0 1.466747 1_455
O4 Rb2 3.102329 1_555
O4 Rb0 3.152803 1_455
O4 Rb2 3.188184 1_455
O5 S1 1.466747 1_655
O5 Rb3 3.102329 1_555
O5 Rb1 3.152803 1_655
O5 Rb3 3.188184 1_655
O6 S0 1.608979 1_455
O6 Rb1 3.023402 1_555
O6 Rb4 3.262333 1_565
O7 S1 1.608979 1_655
O7 Rb0 3.023402 1_554
O7 Rb5 3.262333 1_565
O8 S2 1.464905 1_555
O8 Rb3 2.900513 1_555
O8 Rb6 3.035459 1_455
O8 Rb6 3.476739 1_555
O9 S3 1.464905 1_555
O9 Rb2 2.900513 1_554
O9 Rb7 3.035459 1_655
O9 Rb7 3.476739 1_555
O10 S2 1.462414 1_555
O10 Rb2 2.847195 1_555
O10 Rb6 2.929192 1_555
O11 S3 1.462414 1_555
O11 Rb3 2.847195 1_555
O11 Rb7 2.929192 1_555
O12 S2 1.655879 1_555
O12 Rb1 3.160410 1_555
O12 Rb3 3.528869 1_555
O13 S3 1.655879 1_555
O13 Rb0 3.160410 1_554
O13 Rb2 3.528869 1_554
O14 S2 1.455622 1_555
O14 Rb1 3.148104 1_555
O15 S3 1.455622 1_555
O15 Rb0 3.148104 1_554
O16 S4 1.472397 1_555
O16 Rb0 2.855190 1_545
O16 Rb0 2.948220 1_445
O16 Rb4 3.472251 1_555
O17 S5 1.472397 1_555
O17 Rb1 2.855190 1_545
O17 Rb1 2.948220 1_645
O17 Rb5 3.472251 1_555
O18 S4 1.451314 1_555
O18 Rb5 2.848286 1_556
O19 S5 1.451314 1_555
O19 Rb4 2.848286 1_555
O20 S4 1.616177 1_555
O20 Rb4 3.091879 1_555
O20 Rb6 3.320670 1_455
O21 S5 1.616177 1_555
O21 Rb5 3.091879 1_555
O21 Rb7 3.320670 1_655
O22 S4 1.470416 1_555
O22 Rb6 3.095805 1_555
O23 S5 1.470416 1_555
O23 Rb7 3.095805 1_555
O24 S6 1.464004 1_555
O24 Rb2 2.956854 1_555
O24 Rb2 3.155910 1_455
O24 Rb7 3.385759 1_556
O25 S7 1.464004 1_555
O25 Rb3 2.956854 1_555
O25 Rb3 3.155910 1_655
O25 Rb6 3.385759 1_555
O26 S6 1.595448 1_555
O26 Rb6 3.246578 1_455
O27 S7 1.595448 1_555
O27 Rb7 3.246578 1_655
O28 S6 1.468068 1_554
O28 Rb7 3.065465 1_555
O28 Rb5 3.076906 1_455
O28 Rb5 3.410458 1_555
O29 S7 1.468068 1_555
O29 Rb6 3.065465 1_555
O29 Rb4 3.076906 1_655
O29 Rb4 3.410458 1_555
O30 S6 1.474305 1_655
O30 Rb5 3.038940 1_556
O30 Rb6 3.304532 1_555
O31 S7 1.474305 1_455
O31 Rb4 3.038940 1_555
O31 Rb7 3.304532 1_555
