# generated using pymatgen
data_Li4Mn3Ni2Sb3O16
_symmetry_space_group_name_H-M   'P 1'
_cell_length_a   6.15549646
_cell_length_b   6.15549646
_cell_length_c   9.74752142
_cell_angle_alpha   89.04288297
_cell_angle_beta   89.04288297
_cell_angle_gamma   59.05877556
_symmetry_Int_Tables_number   1
_chemical_formula_structural   Li4Mn3Ni2Sb3O16
_chemical_formula_sum   'Li4 Mn3 Ni2 Sb3 O16'
_cell_volume   316.71840246
_cell_formula_units_Z   1
loop_
 _symmetry_equiv_pos_site_id
 _symmetry_equiv_pos_as_xyz
  1  'x, y, z'
loop_
 _atom_site_type_symbol
 _atom_site_label
 _atom_site_symmetry_multiplicity
 _atom_site_fract_x
 _atom_site_fract_y
 _atom_site_fract_z
 _atom_site_occupancy
  Li  Li0  1  0.66325100  0.66325100  0.12406800  1
  Li  Li1  1  0.98909900  0.98909900  0.00709500  1
  Li  Li2  1  0.99437000  0.99437000  0.49404600  1
  Li  Li3  1  0.32710100  0.32710100  0.60410700  1
  Mn  Mn0  1  0.83197900  0.83197900  0.78327500  1
  Mn  Mn1  1  0.16875900  0.66230300  0.28531100  1
  Mn  Mn2  1  0.66230300  0.16875900  0.28531100  1
  Ni  Ni0  1  0.67265000  0.67265000  0.49796200  1
  Ni  Ni1  1  0.34306800  0.34306800  0.02064600  1
  Sb  Sb0  1  0.33893500  0.83119200  0.78419400  1
  Sb  Sb1  1  0.83119200  0.33893500  0.78419400  1
  Sb  Sb2  1  0.17092700  0.17092700  0.28519400  1
  O  O0  1  0.32107000  0.84713200  0.39809000  1
  O  O1  1  0.51510300  0.51510300  0.66482700  1
  O  O2  1  0.65487500  0.65487500  0.90251100  1
  O  O3  1  0.01125700  0.01125700  0.67788700  1
  O  O4  1  0.00849600  0.00849600  0.18616700  1
  O  O5  1  0.84713200  0.32107000  0.39809000  1
  O  O6  1  0.50992600  0.96320900  0.66554700  1
  O  O7  1  0.96320900  0.50992600  0.66554700  1
  O  O8  1  0.15626700  0.15626700  0.89730100  1
  O  O9  1  0.84519900  0.84519900  0.38957600  1
  O  O10  1  0.03558800  0.48017900  0.16179000  1
  O  O11  1  0.48017900  0.03558800  0.16179000  1
  O  O12  1  0.32614600  0.32614600  0.39946600  1
  O  O13  1  0.16802300  0.68643400  0.89615800  1
  O  O14  1  0.47815900  0.47815900  0.17585700  1
  O  O15  1  0.68643400  0.16802300  0.89615800  1
loop_
_geom_bond_atom_site_label_1
_geom_bond_atom_site_label_2
_geom_bond_distance
_geom_bond_site_symmetry_2
Li0 O10 2.004098 1_655
Li0 O11 2.004098 1_565
Li0 O14 2.036518 1_555
Li0 O2 2.163215 1_554
Li1 O4 1.761788 1_665
Li1 O13 1.941861 1_654
Li1 O15 1.941861 1_564
Li1 O8 2.068407 1_664
Li2 O3 1.804553 1_665
Li2 O9 1.911211 1_555
Li2 O5 1.957459 1_565
Li2 O0 1.957459 1_655
Li3 O12 1.994965 1_555
Li3 O6 2.006988 1_545
Li3 O7 2.006988 1_455
Li3 O1 2.109893 1_555
Mn0 O6 2.073073 1_555
Mn0 O7 2.073073 1_555
Mn0 O15 2.104654 1_565
Mn0 O13 2.104654 1_655
Mn0 O3 2.160431 1_665
Mn0 O2 2.205719 1_555
Mn1 O14 1.950101 1_555
Mn1 O9 1.982924 1_455
Mn1 O4 2.061442 1_565
Mn1 O12 2.087117 1_555
Mn1 O10 2.097971 1_555
Mn1 O0 2.134238 1_555
Mn2 O14 1.950101 1_555
Mn2 O9 1.982924 1_545
Mn2 O4 2.061442 1_655
Mn2 O12 2.087117 1_555
Mn2 O11 2.097971 1_555
Mn2 O5 2.134238 1_555
Ni0 O5 2.104773 1_555
Ni0 O0 2.104773 1_555
Ni0 O9 2.111274 1_555
Ni0 O7 2.251962 1_555
Ni0 O6 2.251962 1_555
Ni0 O1 2.321255 1_555
Ni1 O14 2.113531 1_555
Ni1 O10 2.120517 1_555
Ni1 O11 2.120517 1_555
Ni1 O15 2.171828 1_554
Ni1 O13 2.171828 1_554
Ni1 O8 2.354112 1_554
O0 Sb2 2.025876 1_565
O1 Sb1 2.044322 1_555
O1 Sb0 2.044322 1_555
O2 Sb1 2.037838 1_555
O2 Sb0 2.037838 1_555
O3 Sb1 2.025630 1_455
O3 Sb0 2.025630 1_545
O4 Sb2 2.005890 1_555
O5 Sb2 2.025876 1_655
O6 Sb0 1.978181 1_555
O7 Sb1 1.978181 1_555
O8 Sb0 2.049990 1_545
O8 Sb1 2.049990 1_455
O10 Sb2 2.022589 1_555
O11 Sb2 2.022589 1_555
O12 Sb2 2.018989 1_555
O13 Sb0 1.996250 1_555
O15 Sb1 1.996250 1_555
