# generated using pymatgen
data_LiMnO2
_symmetry_space_group_name_H-M   'P 1'
_cell_length_a   5.25135800
_cell_length_b   5.86962664
_cell_length_c   7.31584440
_cell_angle_alpha   91.01424041
_cell_angle_beta   93.44491523
_cell_angle_gamma   90.71548048
_symmetry_Int_Tables_number   1
_chemical_formula_structural   LiMnO2
_chemical_formula_sum   'Li6 Mn6 O12'
_cell_volume   225.03652601
_cell_formula_units_Z   6
loop_
 _symmetry_equiv_pos_site_id
 _symmetry_equiv_pos_as_xyz
  1  'x, y, z'
loop_
 _atom_site_type_symbol
 _atom_site_label
 _atom_site_symmetry_multiplicity
 _atom_site_fract_x
 _atom_site_fract_y
 _atom_site_fract_z
 _atom_site_occupancy
  Li  Li0  1  0.90642500  0.12589400  0.67873900  1
  Li  Li1  1  0.09357500  0.87410600  0.32126100  1
  Li  Li2  1  0.40538100  0.37010700  0.67324800  1
  Li  Li3  1  0.73720800  0.88043600  0.00810500  1
  Li  Li4  1  0.59461900  0.62989300  0.32675200  1
  Li  Li5  1  0.26279200  0.11956400  0.99189500  1
  Mn  Mn0  1  0.91104900  0.62318100  0.66479500  1
  Mn  Mn1  1  0.08895100  0.37681900  0.33520500  1
  Mn  Mn2  1  0.41585800  0.88436900  0.66723500  1
  Mn  Mn3  1  0.74638600  0.36572600  0.99491900  1
  Mn  Mn4  1  0.58414200  0.11563100  0.33276500  1
  Mn  Mn5  1  0.25361400  0.63427400  0.00508100  1
  O  O0  1  0.78068800  0.37136800  0.48971500  1
  O  O1  1  0.73148000  0.86055900  0.52060000  1
  O  O2  1  0.21931200  0.62863200  0.51028500  1
  O  O3  1  0.26852000  0.13944100  0.47940000  1
  O  O4  1  0.88736600  0.13740400  0.17327800  1
  O  O5  1  0.91927000  0.59941800  0.16695800  1
  O  O6  1  0.38973700  0.38677600  0.16942900  1
  O  O7  1  0.41310800  0.86903400  0.16353500  1
  O  O8  1  0.08073000  0.40058200  0.83304200  1
  O  O9  1  0.11263400  0.86259600  0.82672200  1
  O  O10  1  0.58689200  0.13096600  0.83646500  1
  O  O11  1  0.61026300  0.61322400  0.83057100  1
loop_
_geom_bond_atom_site_label_1
_geom_bond_atom_site_label_2
_geom_bond_distance
_geom_bond_site_symmetry_2
Li0 O10 2.093016 1_555
Li0 O1 2.093028 1_545
Li0 O0 2.099738 1_555
Li0 O8 2.118078 1_655
Li0 O9 2.166398 1_645
Li0 O3 2.466233 1_655
Li1 O7 2.093016 1_555
Li1 O3 2.093028 1_565
Li1 O2 2.099738 1_555
Li1 O5 2.118078 1_455
Li1 O4 2.166398 1_465
Li1 O1 2.466233 1_455
Li2 O3 2.036188 1_555
Li2 O10 2.064124 1_555
Li2 O11 2.067198 1_555
Li2 O8 2.131876 1_555
Li2 O2 2.154029 1_555
Li2 O0 2.450559 1_555
Li3 O4 2.036717 1_565
Li3 O10 2.082671 1_564
Li3 O11 2.094998 1_554
Li3 O7 2.103947 1_555
Li3 O5 2.226909 1_555
Li3 O9 2.444023 1_654
Li4 O1 2.036188 1_555
Li4 O7 2.064124 1_555
Li4 O6 2.067198 1_555
Li4 O5 2.131876 1_555
Li4 O0 2.154029 1_555
Li4 O2 2.450559 1_555
Li5 O9 2.036717 1_545
Li5 O7 2.082671 1_546
Li5 O6 2.094998 1_556
Li5 O10 2.103947 1_555
Li5 O8 2.226909 1_555
Li5 O4 2.444023 1_456
Mn0 O1 1.977040 1_555
Mn0 O8 1.992575 1_655
Mn0 O0 2.023906 1_555
Mn0 O2 2.029573 1_655
Mn0 O11 2.049300 1_555
Mn0 O9 2.062034 1_655
Mn1 O3 1.977040 1_555
Mn1 O5 1.992575 1_455
Mn1 O2 2.023906 1_555
Mn1 O0 2.029573 1_455
Mn1 O6 2.049300 1_555
Mn1 O4 2.062034 1_455
Mn2 O1 2.032639 1_555
Mn2 O9 2.033895 1_555
Mn2 O10 2.050611 1_565
Mn2 O2 2.096383 1_555
Mn2 O3 2.168531 1_565
Mn2 O11 2.228079 1_555
Mn3 O10 1.934427 1_555
Mn3 O4 2.004334 1_556
Mn3 O11 2.012832 1_555
Mn3 O5 2.015023 1_556
Mn3 O8 2.185527 1_655
Mn3 O6 2.332482 1_556
Mn4 O3 2.032639 1_555
Mn4 O4 2.033895 1_555
Mn4 O7 2.050611 1_545
Mn4 O0 2.096383 1_555
Mn4 O1 2.168531 1_545
Mn4 O6 2.228079 1_555
Mn5 O7 1.934427 1_555
Mn5 O9 2.004334 1_554
Mn5 O6 2.012832 1_555
Mn5 O8 2.015023 1_554
Mn5 O5 2.185527 1_455
Mn5 O11 2.332482 1_554
