# generated using pymatgen
data_Li3Ti(CoO3)2
_symmetry_space_group_name_H-M   'P 1'
_cell_length_a   6.59785338
_cell_length_b   6.59785338
_cell_length_c   5.97896627
_cell_angle_alpha   75.97299495
_cell_angle_beta   75.97299495
_cell_angle_gamma   26.04989296
_symmetry_Int_Tables_number   1
_chemical_formula_structural   Li3Ti(CoO3)2
_chemical_formula_sum   'Li3 Ti1 Co2 O6'
_cell_volume   110.70684633
_cell_formula_units_Z   1
loop_
 _symmetry_equiv_pos_site_id
 _symmetry_equiv_pos_as_xyz
  1  'x, y, z'
loop_
 _atom_site_type_symbol
 _atom_site_label
 _atom_site_symmetry_multiplicity
 _atom_site_fract_x
 _atom_site_fract_y
 _atom_site_fract_z
 _atom_site_occupancy
  Li  Li0  1  0.50000000  0.50000000  0.50000000  1
  Li  Li1  1  0.16984900  0.16984900  0.16528700  1
  Li  Li2  1  0.83015100  0.83015100  0.83471300  1
  Ti  Ti0  1  0.50000000  0.50000000  0.00000000  1
  Co  Co0  1  0.17343300  0.17343300  0.65708300  1
  Co  Co1  1  0.82656700  0.82656700  0.34291700  1
  O  O0  1  0.65696200  0.65696200  0.91023400  1
  O  O1  1  0.33188300  0.33188300  0.57686700  1
  O  O2  1  0.34303800  0.34303800  0.08976600  1
  O  O3  1  0.99929100  0.99929100  0.22546100  1
  O  O4  1  0.00070900  0.00070900  0.77453900  1
  O  O5  1  0.66811700  0.66811700  0.42313300  1
loop_
_geom_bond_atom_site_label_1
_geom_bond_atom_site_label_2
_geom_bond_distance
_geom_bond_site_symmetry_2
Li0 O5 2.094851 1_555
Li0 O1 2.094851 1_555
Li0 O3 2.216543 1_455
Li0 O3 2.216543 1_545
Li0 O4 2.216543 1_655
Li0 O4 2.216543 1_565
Li1 O3 2.131896 1_445
Li1 O5 2.138050 1_545
Li1 O5 2.138050 1_455
Li1 O2 2.158980 1_555
Li1 O0 2.165592 1_454
Li1 O0 2.165592 1_544
Li2 O4 2.131896 1_665
Li2 O1 2.138050 1_565
Li2 O1 2.138050 1_655
Li2 O0 2.158980 1_555
Li2 O2 2.165592 1_656
Li2 O2 2.165592 1_566
Co0 O1 1.973208 1_555
Co0 O5 2.054256 1_545
Co0 O5 2.054256 1_455
Co0 O0 2.094623 1_545
Co0 O0 2.094623 1_455
Co0 O4 2.155974 1_555
Co1 O5 1.973208 1_555
Co1 O1 2.054256 1_565
Co1 O1 2.054256 1_655
Co1 O2 2.094623 1_565
Co1 O2 2.094623 1_655
Co1 O3 2.155974 1_555
O0 Ti0 1.954800 1_556
O2 Ti0 1.954800 1_555
O3 Ti0 2.005564 1_655
O3 Ti0 2.005564 1_565
O4 Ti0 2.005564 1_456
O4 Ti0 2.005564 1_546
