# generated using pymatgen
data_Er2P4O13
_symmetry_space_group_name_H-M   'P 1'
_cell_length_a   6.86152977
_cell_length_b   6.86152977
_cell_length_c   12.94670522
_cell_angle_alpha   76.01252330
_cell_angle_beta   76.01252330
_cell_angle_gamma   59.00422301
_symmetry_Int_Tables_number   1
_chemical_formula_structural   Er2P4O13
_chemical_formula_sum   'Er4 P8 O26'
_cell_volume   501.94563570
_cell_formula_units_Z   2
loop_
 _symmetry_equiv_pos_site_id
 _symmetry_equiv_pos_as_xyz
  1  'x, y, z'
loop_
 _atom_site_type_symbol
 _atom_site_label
 _atom_site_symmetry_multiplicity
 _atom_site_fract_x
 _atom_site_fract_y
 _atom_site_fract_z
 _atom_site_occupancy
  Er  Er0  1  0.69163700  0.69620600  0.44887800  1
  Er  Er1  1  0.69620600  0.69163700  0.94887800  1
  Er  Er2  1  0.30379400  0.30836300  0.05112200  1
  Er  Er3  1  0.30836300  0.30379400  0.55112200  1
  P  P0  1  0.83872100  0.13765500  0.36652700  1
  P  P1  1  0.76005100  0.77309700  0.15955100  1
  P  P2  1  0.86234500  0.16127900  0.13347300  1
  P  P3  1  0.22690300  0.23994900  0.34044900  1
  P  P4  1  0.77309700  0.76005100  0.65955100  1
  P  P5  1  0.13765500  0.83872100  0.86652700  1
  P  P6  1  0.23994900  0.22690300  0.84044900  1
  P  P7  1  0.16127900  0.86234500  0.63347300  1
  O  O0  1  0.67293500  0.31702700  0.44089100  1
  O  O1  1  0.87687200  0.89712600  0.39694000  1
  O  O2  1  0.89894800  0.90746100  0.15304400  1
  O  O3  1  0.89712600  0.87687200  0.89694000  1
  O  O4  1  0.92454900  0.57377100  0.09452600  1
  O  O5  1  0.90746100  0.89894800  0.65304400  1
  O  O6  1  0.69331000  0.70478900  0.27662900  1
  O  O7  1  0.42622900  0.07545100  0.40547400  1
  O  O8  1  0.31702700  0.67293500  0.94089100  1
  O  O9  1  0.56156500  0.92597900  0.09306600  1
  O  O10  1  0.29521100  0.30669000  0.22337100  1
  O  O11  1  0.92597900  0.56156500  0.59306600  1
  O  O12  1  0.75356100  0.24643900  0.25000000  1
  O  O13  1  0.07402100  0.43843500  0.40693400  1
  O  O14  1  0.70478900  0.69331000  0.77662900  1
  O  O15  1  0.43843500  0.07402100  0.90693400  1
  O  O16  1  0.68297300  0.32706500  0.05910900  1
  O  O17  1  0.57377100  0.92454900  0.59452600  1
  O  O18  1  0.30669000  0.29521100  0.72337100  1
  O  O19  1  0.09253900  0.10105200  0.34695600  1
  O  O20  1  0.07545100  0.42622900  0.90547400  1
  O  O21  1  0.10287400  0.12312800  0.10306000  1
  O  O22  1  0.10105200  0.09253900  0.84695600  1
  O  O23  1  0.24643900  0.75356100  0.75000000  1
  O  O24  1  0.12312800  0.10287400  0.60306000  1
  O  O25  1  0.32706500  0.68297300  0.55910900  1
loop_
_geom_bond_atom_site_label_1
_geom_bond_atom_site_label_2
_geom_bond_distance
_geom_bond_site_symmetry_2
Er0 O6 2.213953 1_555
Er0 O1 2.216208 1_555
Er0 O13 2.302856 1_655
Er0 O7 2.304485 1_565
Er0 O11 2.451762 1_555
Er0 O17 2.459781 1_555
Er0 O25 2.597699 1_555
Er0 O0 2.697516 1_555
Er1 O14 2.213953 1_555
Er1 O3 2.216208 1_555
Er1 O15 2.302856 1_565
Er1 O20 2.304485 1_655
Er1 O9 2.451762 1_556
Er1 O4 2.459781 1_556
Er1 O16 2.597699 1_556
Er1 O8 2.697516 1_555
Er2 O10 2.213953 1_555
Er2 O21 2.216208 1_555
Er2 O9 2.302856 1_545
Er2 O4 2.304485 1_455
Er2 O15 2.451762 1_554
Er2 O20 2.459781 1_554
Er2 O8 2.597699 1_554
Er2 O16 2.697516 1_555
Er3 O18 2.213953 1_555
Er3 O24 2.216208 1_555
Er3 O11 2.302856 1_455
Er3 O17 2.304485 1_545
Er3 O13 2.451762 1_555
Er3 O7 2.459781 1_555
Er3 O0 2.597699 1_555
Er3 O25 2.697516 1_555
O0 P0 1.528765 1_555
O1 P0 1.496023 1_565
O2 P2 1.589753 1_565
O2 P1 1.610584 1_555
O3 P5 1.496023 1_655
O4 P1 1.536415 1_555
O5 P7 1.589753 1_655
O5 P4 1.610584 1_555
O6 P1 1.506329 1_555
O7 P3 1.536415 1_555
O8 P5 1.528765 1_555
O9 P1 1.534569 1_555
O10 P3 1.506329 1_555
O11 P4 1.534569 1_555
O12 P2 1.614666 1_555
O12 P0 1.614666 1_555
O13 P3 1.534569 1_555
O14 P4 1.506329 1_555
O15 P6 1.534569 1_555
O16 P2 1.528765 1_555
O17 P4 1.536415 1_555
O18 P6 1.506329 1_555
O19 P0 1.589753 1_455
O19 P3 1.610584 1_555
O20 P6 1.536415 1_555
O21 P2 1.496023 1_455
O22 P5 1.589753 1_545
O22 P6 1.610584 1_555
O23 P5 1.614666 1_555
O23 P7 1.614666 1_555
O24 P7 1.496023 1_545
O25 P7 1.528765 1_555
