# generated using pymatgen
data_Mn7Fe(PO4)12
_symmetry_space_group_name_H-M   'P 1'
_cell_length_a   8.50179100
_cell_length_b   8.50277504
_cell_length_c   11.84341101
_cell_angle_alpha   90.00256391
_cell_angle_beta   90.00116590
_cell_angle_gamma   90.00558620
_symmetry_Int_Tables_number   1
_chemical_formula_structural   Mn7Fe(PO4)12
_chemical_formula_sum   'Mn7 Fe1 P12 O48'
_cell_volume   856.14615824
_cell_formula_units_Z   1
loop_
 _symmetry_equiv_pos_site_id
 _symmetry_equiv_pos_as_xyz
  1  'x, y, z'
loop_
 _atom_site_type_symbol
 _atom_site_label
 _atom_site_symmetry_multiplicity
 _atom_site_fract_x
 _atom_site_fract_y
 _atom_site_fract_z
 _atom_site_occupancy
  Mn  Mn0  1  0.96505000  0.24997700  0.38270000  1
  Mn  Mn1  1  0.53509500  0.25062900  0.61797600  1
  Mn  Mn2  1  0.03542100  0.24980000  0.88239400  1
  Mn  Mn3  1  0.46451400  0.24997500  0.11734800  1
  Mn  Mn4  1  0.53579400  0.75047600  0.88214200  1
  Mn  Mn5  1  0.96459200  0.75017100  0.11752200  1
  Mn  Mn6  1  0.03604200  0.74928700  0.61781300  1
  Fe  Fe0  1  0.46342800  0.74991900  0.38156200  1
  P  P0  1  0.24969300  0.03877200  0.50092400  1
  P  P1  1  0.75004600  0.46299700  0.99990800  1
  P  P2  1  0.24998600  0.53723100  0.00001200  1
  P  P3  1  0.75167600  0.96371900  0.50027000  1
  P  P4  1  0.39190700  0.10700400  0.85451600  1
  P  P5  1  0.10792900  0.10688500  0.14540800  1
  P  P6  1  0.60802300  0.39114300  0.35430400  1
  P  P7  1  0.89218400  0.39280800  0.64560500  1
  P  P8  1  0.10655000  0.60719100  0.35359800  1
  P  P9  1  0.39148000  0.60592700  0.64645600  1
  P  P10  1  0.60808900  0.89355900  0.14400500  1
  P  P11  1  0.89204300  0.89301300  0.85445400  1
  O  O0  1  0.64088800  0.05894400  0.57659700  1
  O  O1  1  0.85991800  0.06033500  0.42326200  1
  O  O2  1  0.90076500  0.07443000  0.84091100  1
  O  O3  1  0.60097300  0.07518900  0.15781400  1
  O  O4  1  0.15864600  0.14876400  0.41949100  1
  O  O5  1  0.34016800  0.14742900  0.58284700  1
  O  O6  1  0.43784500  0.15900900  0.97320000  1
  O  O7  1  0.06162700  0.15899300  0.02682300  1
  O  O8  1  0.22273200  0.15332700  0.82343100  1
  O  O9  1  0.27714200  0.15334300  0.17641200  1
  O  O10  1  0.51403200  0.17906600  0.77257400  1
  O  O11  1  0.98657200  0.17880600  0.22772700  1
  O  O12  1  0.01410300  0.32115000  0.72780100  1
  O  O13  1  0.48574500  0.31835200  0.27287500  1
  O  O14  1  0.77791900  0.34482300  0.32315700  1
  O  O15  1  0.72308000  0.34630600  0.67680300  1
  O  O16  1  0.56232000  0.33994200  0.47332700  1
  O  O17  1  0.93809000  0.34088600  0.52690500  1
  O  O18  1  0.84062900  0.35343100  0.91857700  1
  O  O19  1  0.65926800  0.35379100  0.08142300  1
  O  O20  1  0.09800900  0.42547300  0.34100500  1
  O  O21  1  0.40007500  0.42449100  0.66013000  1
  O  O22  1  0.14060000  0.44116300  0.92351200  1
  O  O23  1  0.35945400  0.44126800  0.07655000  1
  O  O24  1  0.64061300  0.55888600  0.92344500  1
  O  O25  1  0.85950000  0.55887100  0.07630200  1
  O  O26  1  0.60348900  0.57026400  0.34020900  1
  O  O27  1  0.90071800  0.57428000  0.65858800  1
  O  O28  1  0.34059200  0.64685200  0.91867300  1
  O  O29  1  0.15921700  0.64618100  0.08161500  1
  O  O30  1  0.06181100  0.65918400  0.47305300  1
  O  O31  1  0.43798100  0.65764000  0.52950900  1
  O  O32  1  0.22222300  0.65324000  0.67760900  1
  O  O33  1  0.27329700  0.65210200  0.32195800  1
  O  O34  1  0.51390700  0.67825800  0.72856300  1
  O  O35  1  0.98370000  0.67982300  0.27241000  1
  O  O36  1  0.01405900  0.82102300  0.77234300  1
  O  O37  1  0.48732300  0.82207200  0.22403200  1
  O  O38  1  0.72301700  0.84651800  0.82306600  1
  O  O39  1  0.77728000  0.84692900  0.17610700  1
  O  O40  1  0.56278600  0.84129800  0.02518400  1
  O  O41  1  0.93821200  0.84096700  0.97298100  1
  O  O42  1  0.66271200  0.85474400  0.42016700  1
  O  O43  1  0.84149200  0.85419900  0.58215300  1
  O  O44  1  0.09919400  0.92569600  0.15870700  1
  O  O45  1  0.40082700  0.92572400  0.84087100  1
  O  O46  1  0.14030300  0.94159000  0.57706900  1
  O  O47  1  0.35559100  0.94446400  0.42331400  1
loop_
_geom_bond_atom_site_label_1
_geom_bond_atom_site_label_2
_geom_bond_distance
_geom_bond_site_symmetry_2
Mn0 O17 1.888602 1_555
Mn0 O1 1.905146 1_555
Mn0 O4 1.907823 1_655
Mn0 O14 1.918082 1_555
Mn0 O20 1.935991 1_655
Mn0 O11 1.941224 1_555
Mn1 O16 1.888177 1_555
Mn1 O5 1.920713 1_555
Mn1 O15 1.923836 1_555
Mn1 O0 1.925045 1_555
Mn1 O21 1.937172 1_555
Mn1 O10 1.937745 1_555
Mn2 O7 1.889934 1_556
Mn2 O22 1.919347 1_555
Mn2 O8 1.922698 1_555
Mn2 O18 1.924305 1_455
Mn2 O12 1.937326 1_555
Mn2 O2 1.942945 1_455
Mn3 O6 1.887864 1_554
Mn3 O23 1.917598 1_555
Mn3 O19 1.923939 1_555
Mn3 O9 1.924033 1_555
Mn3 O13 1.939929 1_555
Mn3 O3 1.945428 1_555
Mn4 O40 1.875857 1_556
Mn4 O24 1.920303 1_555
Mn4 O38 1.920898 1_555
Mn4 O28 1.928069 1_555
Mn4 O34 1.928716 1_555
Mn4 O45 1.943281 1_555
Mn5 O41 1.891271 1_554
Mn5 O25 1.918856 1_555
Mn5 O39 1.922119 1_555
Mn5 O29 1.923758 1_655
Mn5 O35 1.936315 1_555
Mn5 O44 1.942797 1_655
Mn6 O30 1.890561 1_555
Mn6 O32 1.916825 1_555
Mn6 O46 1.921446 1_555
Mn6 O43 1.926187 1_455
Mn6 O36 1.938145 1_555
Mn6 O27 1.941875 1_455
Fe0 O31 1.932032 1_555
Fe0 O33 1.950033 1_555
Fe0 O47 1.954886 1_555
Fe0 O42 1.968161 1_555
Fe0 O37 1.974476 1_555
Fe0 O26 1.997891 1_555
O0 P3 1.536238 1_545
O1 P3 1.534111 1_545
O2 P11 1.552636 1_545
O3 P10 1.554171 1_545
O4 P0 1.550544 1_555
O5 P0 1.544786 1_555
O6 P4 1.524378 1_555
O7 P5 1.524406 1_555
O8 P4 1.536052 1_555
O9 P5 1.536339 1_555
O10 P4 1.547659 1_555
O11 P5 1.545669 1_655
O12 P7 1.547072 1_455
O13 P6 1.547140 1_555
O14 P6 1.541967 1_555
O15 P7 1.536141 1_555
O16 P6 1.525658 1_555
O17 P7 1.524315 1_555
O18 P1 1.545607 1_555
O19 P1 1.545913 1_554
O20 P8 1.553972 1_555
O21 P9 1.552921 1_555
O22 P2 1.533857 1_556
O23 P2 1.534210 1_555
O24 P1 1.533170 1_555
O25 P1 1.532589 1_554
O26 P6 1.532643 1_555
O27 P7 1.552340 1_555
O28 P2 1.546007 1_556
O29 P2 1.545259 1_555
O30 P8 1.530243 1_555
O31 P9 1.506003 1_555
O32 P9 1.539083 1_555
O33 P8 1.515222 1_555
O34 P9 1.551452 1_555
O35 P8 1.548214 1_655
O36 P11 1.548098 1_455
O37 P10 1.523784 1_555
O38 P11 1.536025 1_555
O39 P10 1.539780 1_555
O40 P10 1.525134 1_555
O41 P11 1.523328 1_555
O42 P3 1.526569 1_555
O43 P3 1.546256 1_555
O44 P5 1.550419 1_565
O45 P4 1.551686 1_565
O46 P0 1.536536 1_565
O47 P0 1.516103 1_565
