# generated using pymatgen
data_Li9Al(NiO4)2
_symmetry_space_group_name_H-M   'P 1'
_cell_length_a   6.37031200
_cell_length_b   7.51001500
_cell_length_c   15.82697900
_cell_angle_alpha   90.00000000
_cell_angle_beta   90.00000000
_cell_angle_gamma   90.00000000
_symmetry_Int_Tables_number   1
_chemical_formula_structural   Li9Al(NiO4)2
_chemical_formula_sum   'Li36 Al4 Ni8 O32'
_cell_volume   757.18069714
_cell_formula_units_Z   4
loop_
 _symmetry_equiv_pos_site_id
 _symmetry_equiv_pos_as_xyz
  1  'x, y, z'
loop_
 _atom_site_type_symbol
 _atom_site_label
 _atom_site_symmetry_multiplicity
 _atom_site_fract_x
 _atom_site_fract_y
 _atom_site_fract_z
 _atom_site_occupancy
  Li  Li0  1  0.51927700  0.53654700  0.56953400  1
  Li  Li1  1  0.98072300  0.53654700  0.56953400  1
  Li  Li2  1  0.25000000  0.33937400  0.63878900  1
  Li  Li3  1  0.50702800  0.10147600  0.61935700  1
  Li  Li4  1  0.99297200  0.10147600  0.61935700  1
  Li  Li5  1  0.75000000  0.32932200  0.66103500  1
  Li  Li6  1  0.25000000  0.80466200  0.69371500  1
  Li  Li7  1  0.00792900  0.55070800  0.71191900  1
  Li  Li8  1  0.49207100  0.55070800  0.71191900  1
  Li  Li9  1  0.50792900  0.05070800  0.78808100  1
  Li  Li10  1  0.99207100  0.05070800  0.78808100  1
  Li  Li11  1  0.75000000  0.30466200  0.80628500  1
  Li  Li12  1  0.25000000  0.82932200  0.83896500  1
  Li  Li13  1  0.49297200  0.60147600  0.88064300  1
  Li  Li14  1  0.00702800  0.60147600  0.88064300  1
  Li  Li15  1  0.75000000  0.83937400  0.86121100  1
  Li  Li16  1  0.01927700  0.03654700  0.93046600  1
  Li  Li17  1  0.48072300  0.03654700  0.93046600  1
  Li  Li18  1  0.51927700  0.96345300  0.06953400  1
  Li  Li19  1  0.98072300  0.96345300  0.06953400  1
  Li  Li20  1  0.25000000  0.16062600  0.13878900  1
  Li  Li21  1  0.99297200  0.39852400  0.11935700  1
  Li  Li22  1  0.50702800  0.39852400  0.11935700  1
  Li  Li23  1  0.75000000  0.17067800  0.16103500  1
  Li  Li24  1  0.25000000  0.69533800  0.19371500  1
  Li  Li25  1  0.00792900  0.94929200  0.21191900  1
  Li  Li26  1  0.49207100  0.94929200  0.21191900  1
  Li  Li27  1  0.50792900  0.44929200  0.28808100  1
  Li  Li28  1  0.99207100  0.44929200  0.28808100  1
  Li  Li29  1  0.75000000  0.19533800  0.30628500  1
  Li  Li30  1  0.25000000  0.67067800  0.33896500  1
  Li  Li31  1  0.49297200  0.89852400  0.38064300  1
  Li  Li32  1  0.00702800  0.89852400  0.38064300  1
  Li  Li33  1  0.75000000  0.66062600  0.36121100  1
  Li  Li34  1  0.01927700  0.46345300  0.43046600  1
  Li  Li35  1  0.48072300  0.46345300  0.43046600  1
  Al  Al0  1  0.75000000  0.84120600  0.50553800  1
  Al  Al1  1  0.25000000  0.34120600  0.99446200  1
  Al  Al2  1  0.75000000  0.65879400  0.00553800  1
  Al  Al3  1  0.25000000  0.15879400  0.49446200  1
  Ni  Ni0  1  0.25000000  0.76672100  0.53138800  1
  Ni  Ni1  1  0.75000000  0.79796500  0.69998900  1
  Ni  Ni2  1  0.25000000  0.29796500  0.80001100  1
  Ni  Ni3  1  0.75000000  0.26672100  0.96861200  1
  Ni  Ni4  1  0.25000000  0.73327900  0.03138800  1
  Ni  Ni5  1  0.75000000  0.70203500  0.19998900  1
  Ni  Ni6  1  0.25000000  0.20203500  0.30001100  1
  Ni  Ni7  1  0.75000000  0.23327900  0.46861200  1
  O  O0  1  0.47427200  0.28924200  0.52233800  1
  O  O1  1  0.02572800  0.28924200  0.52233800  1
  O  O2  1  0.25000000  0.00317500  0.58273300  1
  O  O3  1  0.25000000  0.59248600  0.62902700  1
  O  O4  1  0.75000000  0.56943600  0.64269400  1
  O  O5  1  0.75000000  0.96095300  0.60180400  1
  O  O6  1  0.00594900  0.27599300  0.72100500  1
  O  O7  1  0.49405100  0.27599300  0.72100500  1
  O  O8  1  0.50594900  0.77599300  0.77899500  1
  O  O9  1  0.99405100  0.77599300  0.77899500  1
  O  O10  1  0.25000000  0.46095300  0.89819600  1
  O  O11  1  0.25000000  0.06943600  0.85730600  1
  O  O12  1  0.75000000  0.09248600  0.87097300  1
  O  O13  1  0.75000000  0.50317500  0.91726700  1
  O  O14  1  0.97427200  0.78924200  0.97766200  1
  O  O15  1  0.52572800  0.78924200  0.97766200  1
  O  O16  1  0.47427200  0.21075800  0.02233800  1
  O  O17  1  0.02572800  0.21075800  0.02233800  1
  O  O18  1  0.25000000  0.49682500  0.08273300  1
  O  O19  1  0.25000000  0.90751400  0.12902700  1
  O  O20  1  0.75000000  0.93056400  0.14269400  1
  O  O21  1  0.75000000  0.53904700  0.10180400  1
  O  O22  1  0.00594900  0.22400700  0.22100500  1
  O  O23  1  0.49405100  0.22400700  0.22100500  1
  O  O24  1  0.50594900  0.72400700  0.27899500  1
  O  O25  1  0.99405100  0.72400700  0.27899500  1
  O  O26  1  0.25000000  0.03904700  0.39819600  1
  O  O27  1  0.25000000  0.43056400  0.35730600  1
  O  O28  1  0.75000000  0.40751400  0.37097300  1
  O  O29  1  0.75000000  0.99682500  0.41726700  1
  O  O30  1  0.97427200  0.71075800  0.47766200  1
  O  O31  1  0.52572800  0.71075800  0.47766200  1
loop_
_geom_bond_atom_site_label_1
_geom_bond_atom_site_label_2
_geom_bond_distance
_geom_bond_site_symmetry_2
Li0 O4 1.887323 1_555
Li0 O31 1.956448 1_555
Li0 O3 2.001402 1_555
Li0 O0 2.022273 1_555
Li1 O4 1.887323 1_555
Li1 O30 1.956448 1_555
Li1 O3 2.001402 1_655
Li1 O1 2.022273 1_655
Li2 O3 1.907144 1_555
Li2 O6 2.082499 1_555
Li2 O7 2.082499 1_555
Li2 O0 2.362155 1_555
Li2 O1 2.362155 1_555
Li3 O2 1.887300 1_555
Li3 O5 1.893834 1_545
Li3 O7 2.076716 1_555
Li3 O0 2.095187 1_555
Li4 O2 1.887300 1_655
Li4 O5 1.893834 1_545
Li4 O6 2.076716 1_655
Li4 O1 2.095187 1_655
Li5 O4 1.826475 1_555
Li5 O7 1.928659 1_555
Li5 O6 1.928659 1_655
Li6 O3 1.894008 1_555
Li6 O9 2.127572 1_455
Li6 O8 2.127572 1_555
Li6 O2 2.303892 1_565
Li7 O4 1.979876 1_455
Li7 O9 1.999334 1_455
Li7 O3 2.048798 1_555
Li7 O6 2.068158 1_555
Li8 O4 1.979876 1_555
Li8 O8 1.999334 1_555
Li8 O3 2.048798 1_555
Li8 O7 2.068158 1_555
Li9 O11 1.979876 1_555
Li9 O7 1.999334 1_555
Li9 O12 2.048798 1_555
Li9 O8 2.068158 1_545
Li10 O11 1.979876 1_655
Li10 O6 1.999334 1_655
Li10 O12 2.048798 1_555
Li10 O9 2.068158 1_545
Li11 O12 1.894008 1_555
Li11 O7 2.127572 1_555
Li11 O6 2.127572 1_655
Li11 O13 2.303892 1_555
Li12 O11 1.826475 1_565
Li12 O9 1.928659 1_455
Li12 O8 1.928659 1_555
Li13 O13 1.887300 1_555
Li13 O10 1.893834 1_555
Li13 O8 2.076716 1_555
Li13 O15 2.095187 1_555
Li14 O13 1.887300 1_455
Li14 O10 1.893834 1_555
Li14 O9 2.076716 1_455
Li14 O14 2.095187 1_455
Li15 O12 1.907144 1_565
Li15 O9 2.082499 1_555
Li15 O8 2.082499 1_555
Li15 O14 2.362155 1_555
Li15 O15 2.362155 1_555
Li16 O11 1.887323 1_555
Li16 O17 1.956448 1_556
Li16 O12 2.001402 1_455
Li16 O14 2.022273 1_445
Li17 O11 1.887323 1_555
Li17 O16 1.956448 1_556
Li17 O12 2.001402 1_555
Li17 O15 2.022273 1_545
Li18 O20 1.887323 1_555
Li18 O15 1.956448 1_554
Li18 O19 2.001402 1_555
Li18 O16 2.022273 1_565
Li19 O20 1.887323 1_555
Li19 O14 1.956448 1_554
Li19 O19 2.001402 1_655
Li19 O17 2.022273 1_665
Li20 O19 1.907144 1_545
Li20 O22 2.082499 1_555
Li20 O23 2.082499 1_555
Li20 O16 2.362155 1_555
Li20 O17 2.362155 1_555
Li21 O18 1.887300 1_655
Li21 O21 1.893834 1_555
Li21 O22 2.076716 1_655
Li21 O17 2.095187 1_655
Li22 O18 1.887300 1_555
Li22 O21 1.893834 1_555
Li22 O23 2.076716 1_555
Li22 O16 2.095187 1_555
Li23 O20 1.826475 1_545
Li23 O23 1.928659 1_555
Li23 O22 1.928659 1_655
Li24 O19 1.894008 1_555
Li24 O25 2.127572 1_455
Li24 O24 2.127572 1_555
Li24 O18 2.303892 1_555
Li25 O20 1.979876 1_455
Li25 O25 1.999334 1_455
Li25 O19 2.048798 1_555
Li25 O22 2.068158 1_565
Li26 O20 1.979876 1_555
Li26 O24 1.999334 1_555
Li26 O19 2.048798 1_555
Li26 O23 2.068158 1_565
Li27 O27 1.979876 1_555
Li27 O23 1.999334 1_555
Li27 O28 2.048798 1_555
Li27 O24 2.068158 1_555
Li28 O27 1.979876 1_655
Li28 O22 1.999334 1_655
Li28 O28 2.048798 1_555
Li28 O25 2.068158 1_555
Li29 O28 1.894008 1_555
Li29 O22 2.127572 1_655
Li29 O23 2.127572 1_555
Li29 O29 2.303892 1_545
Li30 O27 1.826475 1_555
Li30 O24 1.928659 1_555
Li30 O25 1.928659 1_455
Li31 O29 1.887300 1_555
Li31 O26 1.893834 1_565
Li31 O24 2.076716 1_555
Li31 O31 2.095187 1_555
Li32 O29 1.887300 1_455
Li32 O26 1.893834 1_565
Li32 O25 2.076716 1_455
Li32 O30 2.095187 1_455
Li33 O28 1.907144 1_555
Li33 O24 2.082499 1_555
Li33 O25 2.082499 1_555
Li33 O31 2.362155 1_555
Li33 O30 2.362155 1_555
Li34 O27 1.887323 1_555
Li34 O1 1.956448 1_555
Li34 O28 2.001402 1_455
Li34 O30 2.022273 1_455
Li35 O27 1.887323 1_555
Li35 O0 1.956448 1_555
Li35 O28 2.001402 1_555
Li35 O31 2.022273 1_555
Al0 O5 1.769209 1_555
Al0 O31 1.787605 1_555
Al0 O30 1.787605 1_555
Al0 O29 1.821441 1_555
Al1 O10 1.769209 1_555
Al1 O16 1.787605 1_556
Al1 O17 1.787605 1_556
Al1 O18 1.821441 1_556
Al2 O21 1.769209 1_555
Al2 O14 1.787605 1_554
Al2 O15 1.787605 1_554
Al2 O13 1.821441 1_554
Al3 O26 1.769209 1_555
Al3 O1 1.787605 1_555
Al3 O0 1.787605 1_555
Al3 O2 1.821441 1_555
Ni0 O2 1.952882 1_565
Ni0 O30 1.996217 1_455
Ni0 O31 1.996217 1_555
Ni0 O3 2.024904 1_555
Ni1 O4 1.941091 1_555
Ni1 O5 1.978158 1_555
Ni1 O9 2.001956 1_555
Ni1 O8 2.001956 1_555
Ni2 O11 1.941091 1_555
Ni2 O10 1.978158 1_555
Ni2 O7 2.001956 1_555
Ni2 O6 2.001956 1_555
Ni3 O13 1.952882 1_555
Ni3 O16 1.996217 1_556
Ni3 O17 1.996217 1_656
Ni3 O12 2.024904 1_555
Ni4 O18 1.952882 1_555
Ni4 O15 1.996217 1_554
Ni4 O14 1.996217 1_454
Ni4 O19 2.024904 1_555
Ni5 O20 1.941091 1_555
Ni5 O21 1.978158 1_555
Ni5 O25 2.001956 1_555
Ni5 O24 2.001956 1_555
Ni6 O27 1.941091 1_555
Ni6 O26 1.978158 1_555
Ni6 O22 2.001956 1_555
Ni6 O23 2.001956 1_555
Ni7 O29 1.952882 1_545
Ni7 O1 1.996217 1_655
Ni7 O0 1.996217 1_555
Ni7 O28 2.024904 1_555
