# generated using pymatgen
data_CsMnH24(SO10)2
_symmetry_space_group_name_H-M   'P 1'
_cell_length_a   12.48457100
_cell_length_b   12.48457100
_cell_length_c   12.48457100
_cell_angle_alpha   90.00000000
_cell_angle_beta   90.00000000
_cell_angle_gamma   90.00000000
_symmetry_Int_Tables_number   1
_chemical_formula_structural   CsMnH24(SO10)2
_chemical_formula_sum   'Cs4 Mn4 H96 S8 O80'
_cell_volume   1945.90157960
_cell_formula_units_Z   4
loop_
 _symmetry_equiv_pos_site_id
 _symmetry_equiv_pos_as_xyz
  1  'x, y, z'
loop_
 _atom_site_type_symbol
 _atom_site_label
 _atom_site_symmetry_multiplicity
 _atom_site_fract_x
 _atom_site_fract_y
 _atom_site_fract_z
 _atom_site_occupancy
  Cs  Cs0  1  0.00000000  0.00000000  0.50000000  1
  Cs  Cs1  1  0.00000000  0.50000000  0.00000000  1
  Cs  Cs2  1  0.50000000  0.00000000  0.00000000  1
  Cs  Cs3  1  0.50000000  0.50000000  0.50000000  1
  Mn  Mn0  1  0.50000000  0.50000000  0.00000000  1
  Mn  Mn1  1  0.50000000  0.00000000  0.50000000  1
  Mn  Mn2  1  0.00000000  0.50000000  0.50000000  1
  Mn  Mn3  1  0.00000000  0.00000000  0.00000000  1
  H  H0  1  0.22213900  0.50908100  0.23147500  1
  H  H1  1  0.77786100  0.00908100  0.26852500  1
  H  H2  1  0.27786100  0.49091900  0.73147500  1
  H  H3  1  0.72213900  0.99091900  0.76852500  1
  H  H4  1  0.23147500  0.22213900  0.50908100  1
  H  H5  1  0.26852500  0.77786100  0.00908100  1
  H  H6  1  0.73147500  0.27786100  0.49091900  1
  H  H7  1  0.76852500  0.72213900  0.99091900  1
  H  H8  1  0.50908100  0.23147500  0.22213900  1
  H  H9  1  0.00908100  0.26852500  0.77786100  1
  H  H10  1  0.49091900  0.73147500  0.27786100  1
  H  H11  1  0.99091900  0.76852500  0.72213900  1
  H  H12  1  0.77786100  0.49091900  0.76852500  1
  H  H13  1  0.22213900  0.99091900  0.73147500  1
  H  H14  1  0.72213900  0.50908100  0.26852500  1
  H  H15  1  0.27786100  0.00908100  0.23147500  1
  H  H16  1  0.76852500  0.77786100  0.49091900  1
  H  H17  1  0.73147500  0.22213900  0.99091900  1
  H  H18  1  0.26852500  0.72213900  0.50908100  1
  H  H19  1  0.23147500  0.27786100  0.00908100  1
  H  H20  1  0.49091900  0.76852500  0.77786100  1
  H  H21  1  0.99091900  0.73147500  0.22213900  1
  H  H22  1  0.50908100  0.26852500  0.72213900  1
  H  H23  1  0.00908100  0.23147500  0.27786100  1
  H  H24  1  0.18224900  0.62718500  0.22303500  1
  H  H25  1  0.81775100  0.12718500  0.27696500  1
  H  H26  1  0.31775100  0.37281500  0.72303500  1
  H  H27  1  0.68224900  0.87281500  0.77696500  1
  H  H28  1  0.22303500  0.18224900  0.62718500  1
  H  H29  1  0.27696500  0.81775100  0.12718500  1
  H  H30  1  0.72303500  0.31775100  0.37281500  1
  H  H31  1  0.77696500  0.68224900  0.87281500  1
  H  H32  1  0.62718500  0.22303500  0.18224900  1
  H  H33  1  0.12718500  0.27696500  0.81775100  1
  H  H34  1  0.37281500  0.72303500  0.31775100  1
  H  H35  1  0.87281500  0.77696500  0.68224900  1
  H  H36  1  0.81775100  0.37281500  0.77696500  1
  H  H37  1  0.18224900  0.87281500  0.72303500  1
  H  H38  1  0.68224900  0.62718500  0.27696500  1
  H  H39  1  0.31775100  0.12718500  0.22303500  1
  H  H40  1  0.77696500  0.81775100  0.37281500  1
  H  H41  1  0.72303500  0.18224900  0.87281500  1
  H  H42  1  0.27696500  0.68224900  0.62718500  1
  H  H43  1  0.22303500  0.31775100  0.12718500  1
  H  H44  1  0.37281500  0.77696500  0.81775100  1
  H  H45  1  0.87281500  0.72303500  0.18224900  1
  H  H46  1  0.62718500  0.27696500  0.68224900  1
  H  H47  1  0.12718500  0.22303500  0.31775100  1
  H  H48  1  0.47812400  0.70811000  0.93485500  1
  H  H49  1  0.52187600  0.20811000  0.56514500  1
  H  H50  1  0.02187600  0.29189000  0.43485500  1
  H  H51  1  0.97812400  0.79189000  0.06514500  1
  H  H52  1  0.93485500  0.47812400  0.70811000  1
  H  H53  1  0.56514500  0.52187600  0.20811000  1
  H  H54  1  0.43485500  0.02187600  0.29189000  1
  H  H55  1  0.06514500  0.97812400  0.79189000  1
  H  H56  1  0.70811000  0.93485500  0.47812400  1
  H  H57  1  0.20811000  0.56514500  0.52187600  1
  H  H58  1  0.29189000  0.43485500  0.02187600  1
  H  H59  1  0.79189000  0.06514500  0.97812400  1
  H  H60  1  0.52187600  0.29189000  0.06514500  1
  H  H61  1  0.47812400  0.79189000  0.43485500  1
  H  H62  1  0.97812400  0.70811000  0.56514500  1
  H  H63  1  0.02187600  0.20811000  0.93485500  1
  H  H64  1  0.06514500  0.52187600  0.29189000  1
  H  H65  1  0.43485500  0.47812400  0.79189000  1
  H  H66  1  0.56514500  0.97812400  0.70811000  1
  H  H67  1  0.93485500  0.02187600  0.20811000  1
  H  H68  1  0.29189000  0.06514500  0.52187600  1
  H  H69  1  0.79189000  0.43485500  0.47812400  1
  H  H70  1  0.70811000  0.56514500  0.97812400  1
  H  H71  1  0.20811000  0.93485500  0.02187600  1
  H  H72  1  0.52389400  0.70440400  0.06054500  1
  H  H73  1  0.47610600  0.20440400  0.43945500  1
  H  H74  1  0.97610600  0.29559600  0.56054500  1
  H  H75  1  0.02389400  0.79559600  0.93945500  1
  H  H76  1  0.06054500  0.52389400  0.70440400  1
  H  H77  1  0.43945500  0.47610600  0.20440400  1
  H  H78  1  0.56054500  0.97610600  0.29559600  1
  H  H79  1  0.93945500  0.02389400  0.79559600  1
  H  H80  1  0.70440400  0.06054500  0.52389400  1
  H  H81  1  0.20440400  0.43945500  0.47610600  1
  H  H82  1  0.29559600  0.56054500  0.97610600  1
  H  H83  1  0.79559600  0.93945500  0.02389400  1
  H  H84  1  0.47610600  0.29559600  0.93945500  1
  H  H85  1  0.52389400  0.79559600  0.56054500  1
  H  H86  1  0.02389400  0.70440400  0.43945500  1
  H  H87  1  0.97610600  0.20440400  0.06054500  1
  H  H88  1  0.93945500  0.47610600  0.29559600  1
  H  H89  1  0.56054500  0.52389400  0.79559600  1
  H  H90  1  0.43945500  0.02389400  0.70440400  1
  H  H91  1  0.06054500  0.97610600  0.20440400  1
  H  H92  1  0.29559600  0.93945500  0.47610600  1
  H  H93  1  0.79559600  0.56054500  0.52389400  1
  H  H94  1  0.70440400  0.43945500  0.02389400  1
  H  H95  1  0.20440400  0.06054500  0.97610600  1
  S  S0  1  0.17209900  0.82790100  0.32790100  1
  S  S1  1  0.82790100  0.32790100  0.17209900  1
  S  S2  1  0.32790100  0.17209900  0.82790100  1
  S  S3  1  0.67209900  0.67209900  0.67209900  1
  S  S4  1  0.82790100  0.17209900  0.67209900  1
  S  S5  1  0.17209900  0.67209900  0.82790100  1
  S  S6  1  0.67209900  0.82790100  0.17209900  1
  S  S7  1  0.32790100  0.32790100  0.32790100  1
  O  O0  1  0.24160000  0.75840000  0.25840000  1
  O  O1  1  0.75840000  0.25840000  0.24160000  1
  O  O2  1  0.25840000  0.24160000  0.75840000  1
  O  O3  1  0.74160000  0.74160000  0.74160000  1
  O  O4  1  0.75840000  0.24160000  0.74160000  1
  O  O5  1  0.24160000  0.74160000  0.75840000  1
  O  O6  1  0.74160000  0.75840000  0.24160000  1
  O  O7  1  0.25840000  0.25840000  0.25840000  1
  O  O8  1  0.06293200  0.77976200  0.33676100  1
  O  O9  1  0.93706800  0.27976200  0.16323900  1
  O  O10  1  0.43706800  0.22023800  0.83676100  1
  O  O11  1  0.56293200  0.72023800  0.66323900  1
  O  O12  1  0.33676100  0.06293200  0.77976200  1
  O  O13  1  0.16323900  0.93706800  0.27976200  1
  O  O14  1  0.83676100  0.43706800  0.22023800  1
  O  O15  1  0.66323900  0.56293200  0.72023800  1
  O  O16  1  0.77976200  0.33676100  0.06293200  1
  O  O17  1  0.27976200  0.16323900  0.93706800  1
  O  O18  1  0.22023800  0.83676100  0.43706800  1
  O  O19  1  0.72023800  0.66323900  0.56293200  1
  O  O20  1  0.93706800  0.22023800  0.66323900  1
  O  O21  1  0.06293200  0.72023800  0.83676100  1
  O  O22  1  0.56293200  0.77976200  0.16323900  1
  O  O23  1  0.43706800  0.27976200  0.33676100  1
  O  O24  1  0.66323900  0.93706800  0.22023800  1
  O  O25  1  0.83676100  0.06293200  0.72023800  1
  O  O26  1  0.16323900  0.56293200  0.77976200  1
  O  O27  1  0.33676100  0.43706800  0.27976200  1
  O  O28  1  0.22023800  0.66323900  0.93706800  1
  O  O29  1  0.72023800  0.83676100  0.06293200  1
  O  O30  1  0.77976200  0.16323900  0.56293200  1
  O  O31  1  0.27976200  0.33676100  0.43706800  1
  O  O32  1  0.15876800  0.55257100  0.21146300  1
  O  O33  1  0.84123200  0.05257100  0.28853700  1
  O  O34  1  0.34123200  0.44742900  0.71146300  1
  O  O35  1  0.65876800  0.94742900  0.78853700  1
  O  O36  1  0.21146300  0.15876800  0.55257100  1
  O  O37  1  0.28853700  0.84123200  0.05257100  1
  O  O38  1  0.71146300  0.34123200  0.44742900  1
  O  O39  1  0.78853700  0.65876800  0.94742900  1
  O  O40  1  0.55257100  0.21146300  0.15876800  1
  O  O41  1  0.05257100  0.28853700  0.84123200  1
  O  O42  1  0.44742900  0.71146300  0.34123200  1
  O  O43  1  0.94742900  0.78853700  0.65876800  1
  O  O44  1  0.84123200  0.44742900  0.78853700  1
  O  O45  1  0.15876800  0.94742900  0.71146300  1
  O  O46  1  0.65876800  0.55257100  0.28853700  1
  O  O47  1  0.34123200  0.05257100  0.21146300  1
  O  O48  1  0.78853700  0.84123200  0.44742900  1
  O  O49  1  0.71146300  0.15876800  0.94742900  1
  O  O50  1  0.28853700  0.65876800  0.55257100  1
  O  O51  1  0.21146300  0.34123200  0.05257100  1
  O  O52  1  0.44742900  0.78853700  0.84123200  1
  O  O53  1  0.94742900  0.71146300  0.15876800  1
  O  O54  1  0.55257100  0.28853700  0.65876800  1
  O  O55  1  0.05257100  0.21146300  0.34123200  1
  O  O56  1  0.50048500  0.66108800  0.99769000  1
  O  O57  1  0.49951500  0.16108800  0.50231000  1
  O  O58  1  0.99951500  0.33891200  0.49769000  1
  O  O59  1  0.00048500  0.83891200  0.00231000  1
  O  O60  1  0.99769000  0.50048500  0.66108800  1
  O  O61  1  0.50231000  0.49951500  0.16108800  1
  O  O62  1  0.49769000  0.99951500  0.33891200  1
  O  O63  1  0.00231000  0.00048500  0.83891200  1
  O  O64  1  0.66108800  0.99769000  0.50048500  1
  O  O65  1  0.16108800  0.50231000  0.49951500  1
  O  O66  1  0.33891200  0.49769000  0.99951500  1
  O  O67  1  0.83891200  0.00231000  0.00048500  1
  O  O68  1  0.49951500  0.33891200  0.00231000  1
  O  O69  1  0.50048500  0.83891200  0.49769000  1
  O  O70  1  0.00048500  0.66108800  0.50231000  1
  O  O71  1  0.99951500  0.16108800  0.99769000  1
  O  O72  1  0.00231000  0.49951500  0.33891200  1
  O  O73  1  0.49769000  0.50048500  0.83891200  1
  O  O74  1  0.50231000  0.00048500  0.66108800  1
  O  O75  1  0.99769000  0.99951500  0.16108800  1
  O  O76  1  0.33891200  0.00231000  0.49951500  1
  O  O77  1  0.83891200  0.49769000  0.50048500  1
  O  O78  1  0.66108800  0.50231000  0.00048500  1
  O  O79  1  0.16108800  0.99769000  0.99951500  1
loop_
_geom_bond_atom_site_label_1
_geom_bond_atom_site_label_2
_geom_bond_distance
_geom_bond_site_symmetry_2
Cs0 O45 3.365920 1_545
Cs0 O43 3.365920 1_445
Cs0 O48 3.365920 1_445
Cs0 O36 3.365920 1_555
Cs0 O55 3.365920 1_555
Cs0 O33 3.365920 1_455
Cs0 O13 3.511521 1_545
Cs0 O20 3.511521 1_455
Cs0 O18 3.511521 1_545
Cs0 O30 3.511521 1_455
Cs0 O8 3.511521 1_545
Cs0 O25 3.511521 1_455
Cs1 O44 3.365920 1_454
Cs1 O32 3.365920 1_555
Cs1 O51 3.365920 1_555
Cs1 O39 3.365920 1_454
Cs1 O53 3.365920 1_455
Cs1 O41 3.365920 1_554
Cs1 O28 3.511521 1_554
Cs1 O14 3.511521 1_455
Cs1 O9 3.511521 1_455
Cs1 O26 3.511521 1_554
Cs1 O16 3.511521 1_455
Cs1 O21 3.511521 1_554
Cs2 O49 3.365920 1_554
Cs2 O37 3.365920 1_545
Cs2 O40 3.365920 1_555
Cs2 O35 3.365920 1_544
Cs2 O52 3.365920 1_544
Cs2 O47 3.365920 1_555
Cs2 O24 3.511521 1_545
Cs2 O17 3.511521 1_554
Cs2 O10 3.511521 1_554
Cs2 O22 3.511521 1_545
Cs2 O29 3.511521 1_545
Cs2 O12 3.511521 1_554
Cs3 O34 3.365920 1_555
Cs3 O38 3.365920 1_555
Cs3 O50 3.365920 1_555
Cs3 O42 3.365920 1_555
Cs3 O46 3.365920 1_555
Cs3 O54 3.365920 1_555
Cs3 O23 3.511521 1_555
Cs3 O31 3.511521 1_555
Cs3 O27 3.511521 1_555
Cs3 O11 3.511521 1_555
Cs3 O15 3.511521 1_555
Cs3 O19 3.511521 1_555
Mn0 O56 2.011330 1_554
Mn0 O61 2.011330 1_555
Mn0 O68 2.011330 1_555
Mn0 O66 2.011330 1_554
Mn0 O78 2.011330 1_555
Mn0 O73 2.011330 1_554
Mn1 O64 2.011330 1_545
Mn1 O76 2.011330 1_555
Mn1 O62 2.011330 1_545
Mn1 O74 2.011330 1_555
Mn1 O69 2.011330 1_545
Mn1 O57 2.011330 1_555
Mn2 O77 2.011330 1_455
Mn2 O65 2.011330 1_555
Mn2 O70 2.011330 1_555
Mn2 O72 2.011330 1_555
Mn2 O60 2.011330 1_455
Mn2 O58 2.011330 1_455
Mn3 O67 2.011330 1_455
Mn3 O71 2.011330 1_454
Mn3 O63 2.011330 1_554
Mn3 O75 2.011330 1_445
Mn3 O59 2.011330 1_545
Mn3 O79 2.011330 1_544
H0 O32 0.991541 1_555
H1 O33 0.991541 1_555
H2 O34 0.991541 1_555
H3 O35 0.991541 1_555
H4 O36 0.991541 1_555
H5 O37 0.991541 1_555
H6 O38 0.991541 1_555
H7 O39 0.991541 1_555
H8 O40 0.991541 1_555
H9 O41 0.991541 1_555
H10 O42 0.991541 1_555
H11 O43 0.991541 1_555
H12 O44 0.991541 1_555
H13 O45 0.991541 1_555
H14 O46 0.991541 1_555
H15 O47 0.991541 1_555
H16 O48 0.991541 1_555
H17 O49 0.991541 1_555
H18 O50 0.991541 1_555
H19 O51 0.991541 1_555
H20 O52 0.991541 1_555
H21 O53 0.991541 1_555
H22 O54 0.991541 1_555
H23 O55 0.991541 1_555
H24 O32 0.987191 1_555
H25 O33 0.987191 1_555
H26 O34 0.987191 1_555
H27 O35 0.987191 1_555
H28 O36 0.987191 1_555
H29 O37 0.987191 1_555
H30 O38 0.987191 1_555
H31 O39 0.987191 1_555
H32 O40 0.987191 1_555
H33 O41 0.987191 1_555
H34 O42 0.987191 1_555
H35 O43 0.987191 1_555
H36 O44 0.987191 1_555
H37 O45 0.987191 1_555
H38 O46 0.987191 1_555
H39 O47 0.987191 1_555
H40 O48 0.987191 1_555
H41 O49 0.987191 1_555
H42 O50 0.987191 1_555
H43 O51 0.987191 1_555
H44 O52 0.987191 1_555
H45 O53 0.987191 1_555
H46 O54 0.987191 1_555
H47 O55 0.987191 1_555
H48 O56 1.018799 1_555
H48 O52 1.587847 1_555
H49 O57 1.018799 1_555
H49 O54 1.587847 1_555
H50 O58 1.018799 1_455
H50 O55 1.587847 1_555
H51 O59 1.018799 1_655
H51 O53 1.587847 1_555
H52 O60 1.018799 1_555
H52 O44 1.587847 1_555
H53 O61 1.018799 1_555
H53 O46 1.587847 1_555
H54 O62 1.018799 1_545
H54 O47 1.587847 1_555
H55 O63 1.018799 1_565
H55 O45 1.587847 1_555
H56 O64 1.018799 1_555
H56 O48 1.587847 1_555
H57 O65 1.018799 1_555
H57 O50 1.587847 1_555
H58 O66 1.018799 1_554
H58 O51 1.587847 1_555
H59 O67 1.018799 1_556
H59 O49 1.587847 1_555
H60 O68 1.018799 1_555
H60 O40 1.587847 1_555
H61 O69 1.018799 1_555
H61 O42 1.587847 1_555
H62 O70 1.018799 1_655
H62 O43 1.587847 1_555
H63 O71 1.018799 1_455
H63 O41 1.587847 1_555
H64 O72 1.018799 1_555
H64 O32 1.587847 1_555
H65 O73 1.018799 1_555
H65 O34 1.587847 1_555
H66 O74 1.018799 1_565
H66 O35 1.587847 1_555
H67 O75 1.018799 1_545
H67 O33 1.587847 1_555
H68 O76 1.018799 1_555
H68 O36 1.587847 1_555
H69 O77 1.018799 1_555
H69 O38 1.587847 1_555
H70 O78 1.018799 1_556
H70 O39 1.587847 1_555
H71 O79 1.018799 1_554
H71 O37 1.587847 1_555
H72 O56 0.996814 1_554
H72 O22 1.663255 1_555
H73 O57 0.996814 1_555
H73 O23 1.663255 1_555
H74 O58 0.996814 1_555
H74 O20 1.663255 1_555
H75 O59 0.996814 1_556
H75 O21 1.663255 1_555
H76 O60 0.996814 1_455
H76 O26 1.663255 1_555
H77 O61 0.996814 1_555
H77 O27 1.663255 1_555
H78 O62 0.996814 1_555
H78 O24 1.663255 1_555
H79 O63 0.996814 1_655
H79 O25 1.663255 1_555
H80 O64 0.996814 1_545
H80 O30 1.663255 1_555
H81 O65 0.996814 1_555
H81 O31 1.663255 1_555
H82 O66 0.996814 1_555
H82 O28 1.663255 1_555
H83 O67 0.996814 1_565
H83 O29 1.663255 1_555
H84 O68 0.996814 1_556
H84 O10 1.663255 1_555
H85 O69 0.996814 1_555
H85 O11 1.663255 1_555
H86 O70 0.996814 1_555
H86 O8 1.663255 1_555
H87 O71 0.996814 1_554
H87 O9 1.663255 1_555
H88 O72 0.996814 1_655
H88 O14 1.663255 1_555
H89 O73 0.996814 1_555
H89 O15 1.663255 1_555
H90 O74 0.996814 1_555
H90 O12 1.663255 1_555
H91 O75 0.996814 1_455
H91 O13 1.663255 1_555
H92 O76 0.996814 1_565
H92 O18 1.663255 1_555
H93 O77 0.996814 1_555
H93 O19 1.663255 1_555
H94 O78 0.996814 1_555
H94 O16 1.663255 1_555
H95 O79 0.996814 1_545
H95 O17 1.663255 1_555
O0 S0 1.502883 1_555
O1 S1 1.502883 1_555
O2 S2 1.502883 1_555
O3 S3 1.502883 1_555
O4 S4 1.502883 1_555
O5 S5 1.502883 1_555
O6 S6 1.502883 1_555
O7 S7 1.502883 1_555
O8 S0 1.493631 1_555
O9 S1 1.493631 1_555
O10 S2 1.493631 1_555
O11 S3 1.493631 1_555
O12 S2 1.493631 1_555
O13 S0 1.493631 1_555
O14 S1 1.493631 1_555
O15 S3 1.493631 1_555
O16 S1 1.493631 1_555
O17 S2 1.493631 1_555
O18 S0 1.493631 1_555
O19 S3 1.493631 1_555
O20 S4 1.493631 1_555
O21 S5 1.493631 1_555
O22 S6 1.493631 1_555
O23 S7 1.493631 1_555
O24 S6 1.493631 1_555
O25 S4 1.493631 1_555
O26 S5 1.493631 1_555
O27 S7 1.493631 1_555
O28 S5 1.493631 1_555
O29 S6 1.493631 1_555
O30 S4 1.493631 1_555
O31 S7 1.493631 1_555
