# generated using pymatgen
data_Mn6O5F7
_symmetry_space_group_name_H-M   'P 1'
_cell_length_a   5.74097900
_cell_length_b   4.74222100
_cell_length_c   15.63151868
_cell_angle_alpha   89.50528572
_cell_angle_beta   90.00000000
_cell_angle_gamma   90.00000000
_symmetry_Int_Tables_number   1
_chemical_formula_structural   Mn6O5F7
_chemical_formula_sum   'Mn12 O10 F14'
_cell_volume   425.55209465
_cell_formula_units_Z   2
loop_
 _symmetry_equiv_pos_site_id
 _symmetry_equiv_pos_as_xyz
  1  'x, y, z'
loop_
 _atom_site_type_symbol
 _atom_site_label
 _atom_site_symmetry_multiplicity
 _atom_site_fract_x
 _atom_site_fract_y
 _atom_site_fract_z
 _atom_site_occupancy
  Mn  Mn0  1  0.84431500  0.96134600  0.41929900  1
  Mn  Mn1  1  0.18513200  0.98970400  0.24559700  1
  Mn  Mn2  1  0.86381300  0.99218900  0.08155900  1
  Mn  Mn3  1  0.81486800  0.98970400  0.74559700  1
  Mn  Mn4  1  0.13618700  0.99218900  0.58155900  1
  Mn  Mn5  1  0.15568500  0.96134600  0.91929900  1
  Mn  Mn6  1  0.66590600  0.52464000  0.58527600  1
  Mn  Mn7  1  0.65416500  0.53305700  0.91984500  1
  Mn  Mn8  1  0.62508700  0.48895400  0.25053300  1
  Mn  Mn9  1  0.33409400  0.52464000  0.08527600  1
  Mn  Mn10  1  0.34583500  0.53305700  0.41984500  1
  Mn  Mn11  1  0.37491300  0.48895400  0.75053300  1
  O  O0  1  0.88248000  0.79615100  0.63759300  1
  O  O1  1  0.89541500  0.78323600  0.97416600  1
  O  O2  1  0.11752000  0.79615100  0.13759300  1
  O  O3  1  0.10458500  0.78323600  0.47416600  1
  O  O4  1  0.39074000  0.71167200  0.30978900  1
  O  O5  1  0.62092500  0.72072800  0.47618100  1
  O  O6  1  0.60926000  0.71167200  0.80978900  1
  O  O7  1  0.37907500  0.72072800  0.97618100  1
  O  O8  1  0.37796800  0.29906200  0.18984100  1
  O  O9  1  0.62203200  0.29906200  0.68984100  1
  F  F0  1  0.87835700  0.74110900  0.29926800  1
  F  F1  1  0.12164300  0.74110900  0.79926800  1
  F  F2  1  0.61243300  0.74979000  0.13893100  1
  F  F3  1  0.38756700  0.74979000  0.63893100  1
  F  F4  1  0.63179200  0.28034900  0.02863800  1
  F  F5  1  0.61356500  0.23018900  0.36669400  1
  F  F6  1  0.36820800  0.28034900  0.52863800  1
  F  F7  1  0.38643500  0.23018900  0.86669400  1
  F  F8  1  0.86407200  0.23525900  0.19361200  1
  F  F9  1  0.87946500  0.25043200  0.52460400  1
  F  F10  1  0.10513100  0.21213500  0.35857400  1
  F  F11  1  0.12053500  0.25043200  0.02460400  1
  F  F12  1  0.89486900  0.21213500  0.85857400  1
  F  F13  1  0.13592800  0.23525900  0.69361200  1
loop_
_geom_bond_atom_site_label_1
_geom_bond_atom_site_label_2
_geom_bond_distance
_geom_bond_site_symmetry_2
Mn0 O3 1.915495 1_655
Mn0 O5 1.928690 1_555
Mn1 O2 1.967272 1_555
Mn1 O8 2.028630 1_565
Mn1 O4 2.028729 1_555
Mn2 O2 1.933614 1_655
Mn2 O1 1.965099 1_554
Mn3 O0 1.967272 1_555
Mn3 O9 2.028630 1_565
Mn3 O6 2.028729 1_555
Mn4 O0 1.933614 1_455
Mn4 O3 1.965099 1_555
Mn5 O1 1.915495 1_455
Mn5 O7 1.928690 1_555
Mn6 O5 1.952465 1_555
Mn6 O9 1.961942 1_555
Mn6 O0 1.972487 1_555
Mn7 O6 1.928299 1_555
Mn7 O1 2.015989 1_555
Mn7 O7 2.018718 1_555
Mn8 O8 1.933505 1_555
Mn8 O4 1.949466 1_555
Mn9 O7 1.952465 1_554
Mn9 O8 1.961942 1_555
Mn9 O2 1.972487 1_555
Mn10 O4 1.928299 1_555
Mn10 O3 2.015989 1_555
Mn10 O5 2.018718 1_555
Mn11 O9 1.933505 1_555
Mn11 O6 1.949466 1_555
F0 Mn8 2.034728 1_555
F0 Mn0 2.164072 1_555
F0 Mn1 2.275598 1_655
F1 Mn11 2.034728 1_555
F1 Mn5 2.164072 1_555
F1 Mn3 2.275598 1_455
F2 Mn2 2.047089 1_555
F2 Mn9 2.100550 1_555
F2 Mn8 2.131044 1_555
F3 Mn4 2.047089 1_555
F3 Mn6 2.100550 1_555
F3 Mn11 2.131044 1_555
F4 Mn2 2.075203 1_545
F4 Mn7 2.075933 1_554
F4 Mn9 2.250458 1_555
F5 Mn0 2.009573 1_545
F5 Mn8 2.183748 1_555
F5 Mn10 2.266322 1_555
F6 Mn4 2.075203 1_545
F6 Mn10 2.075933 1_555
F6 Mn6 2.250458 1_555
F7 Mn5 2.009573 1_545
F7 Mn11 2.183748 1_555
F7 Mn7 2.266322 1_555
F8 Mn8 2.034690 1_555
F8 Mn2 2.105118 1_545
F8 Mn1 2.323224 1_645
F9 Mn6 2.028507 1_555
F9 Mn4 2.108493 1_645
F9 Mn0 2.160707 1_545
F10 Mn1 2.115304 1_545
F10 Mn0 2.130254 1_445
F10 Mn10 2.273364 1_555
F11 Mn9 2.028507 1_555
F11 Mn2 2.108493 1_445
F11 Mn5 2.160707 1_544
F12 Mn3 2.115304 1_545
F12 Mn5 2.130254 1_645
F12 Mn7 2.273364 1_555
F13 Mn11 2.034690 1_555
F13 Mn4 2.105118 1_545
F13 Mn3 2.323224 1_445
