# generated using pymatgen
data_LiMnPO4
_symmetry_space_group_name_H-M   'P 1'
_cell_length_a   10.67574403
_cell_length_b   5.68131802
_cell_length_c   5.54552400
_cell_angle_alpha   90.00016333
_cell_angle_beta   89.99990004
_cell_angle_gamma   89.99115916
_symmetry_Int_Tables_number   1
_chemical_formula_structural   LiMnPO4
_chemical_formula_sum   'Li4 Mn4 P4 O16'
_cell_volume   336.34876417
_cell_formula_units_Z   4
loop_
 _symmetry_equiv_pos_site_id
 _symmetry_equiv_pos_as_xyz
  1  'x, y, z'
loop_
 _atom_site_type_symbol
 _atom_site_label
 _atom_site_symmetry_multiplicity
 _atom_site_fract_x
 _atom_site_fract_y
 _atom_site_fract_z
 _atom_site_occupancy
  Li  Li0  1  0.04015300  0.37165500  0.92521900  1
  Li  Li1  1  0.45985200  0.87164000  0.42520700  1
  Li  Li2  1  0.54013800  0.12833800  0.92520400  1
  Li  Li3  1  0.95983600  0.62834800  0.42522000  1
  Mn  Mn0  1  0.17494600  0.92261500  0.02326400  1
  Mn  Mn1  1  0.32478500  0.42326600  0.52320600  1
  Mn  Mn2  1  0.67521800  0.57673900  0.02321300  1
  Mn  Mn3  1  0.82515700  0.07750900  0.52326400  1
  P  P0  1  0.09966700  0.14616400  0.51926200  1
  P  P1  1  0.40038100  0.64618000  0.01924500  1
  P  P2  1  0.59961300  0.35379400  0.51925600  1
  P  P3  1  0.90032400  0.85381600  0.01926200  1
  O  O0  1  0.98359500  0.31537700  0.53438900  1
  O  O1  1  0.05276300  0.89324900  0.52134400  1
  O  O2  1  0.31453900  0.70412000  0.79888800  1
  O  O3  1  0.31657100  0.70474200  0.24664000  1
  O  O4  1  0.18338500  0.20471700  0.74668700  1
  O  O5  1  0.18541800  0.20409800  0.29886100  1
  O  O6  1  0.44722500  0.39324000  0.02134600  1
  O  O7  1  0.51641400  0.81529300  0.03438800  1
  O  O8  1  0.48356800  0.18468700  0.53439100  1
  O  O9  1  0.55276400  0.60673800  0.52134500  1
  O  O10  1  0.81457600  0.79589500  0.79884500  1
  O  O11  1  0.81660800  0.79527600  0.24670200  1
  O  O12  1  0.68342300  0.29525400  0.74665200  1
  O  O13  1  0.68545300  0.29587600  0.29889300  1
  O  O14  1  0.94722500  0.10674100  0.02134600  1
  O  O15  1  0.01640300  0.68463100  0.03438500  1
loop_
_geom_bond_atom_site_label_1
_geom_bond_atom_site_label_2
_geom_bond_distance
_geom_bond_site_symmetry_2
Li0 O14 1.879908 1_456
Li0 O15 1.895343 1_556
Li0 O4 2.053639 1_555
Li0 O0 2.272509 1_455
Li1 O9 1.879536 1_555
Li1 O8 1.895779 1_565
Li1 O3 2.054238 1_555
Li1 O7 2.272490 1_555
Li2 O6 1.879545 1_556
Li2 O7 1.895783 1_546
Li2 O12 2.054277 1_555
Li2 O8 2.272486 1_555
Li3 O1 1.879837 1_655
Li3 O0 1.895338 1_555
Li3 O11 2.053549 1_555
Li3 O15 2.272565 1_655
Mn0 O15 2.167339 1_555
Mn0 O5 2.214894 1_565
Mn0 O4 2.220201 1_564
Mn0 O2 2.304224 1_554
Mn0 O3 2.313454 1_555
Mn0 O14 2.646472 1_465
Mn1 O8 2.171133 1_555
Mn1 O2 2.212495 1_555
Mn1 O3 2.217477 1_555
Mn1 O5 2.304886 1_555
Mn1 O4 2.314502 1_555
Mn1 O9 2.647832 1_555
Mn2 O7 2.171218 1_555
Mn2 O13 2.212525 1_555
Mn2 O12 2.217484 1_554
Mn2 O10 2.304857 1_554
Mn2 O11 2.314419 1_555
Mn2 O6 2.648030 1_555
Mn3 O0 2.166053 1_555
Mn3 O10 2.215435 1_545
Mn3 O11 2.220723 1_545
Mn3 O13 2.304591 1_555
Mn3 O12 2.313855 1_555
Mn3 O1 2.645645 1_645
O0 P0 1.570469 1_655
O1 P0 1.521757 1_565
O2 P1 1.562492 1_556
O3 P1 1.581559 1_555
O4 P0 1.581186 1_555
O5 P0 1.562163 1_555
O6 P1 1.521536 1_555
O7 P1 1.570032 1_555
O8 P2 1.570110 1_555
O9 P2 1.521574 1_555
O10 P3 1.562199 1_556
O11 P3 1.581224 1_555
O12 P2 1.581541 1_555
O13 P2 1.562475 1_555
O14 P3 1.521801 1_545
O15 P3 1.570430 1_455
