# generated using pymatgen
data_Li11U4(WO5)8
_symmetry_space_group_name_H-M   'P 1'
_cell_length_a   12.97289000
_cell_length_b   7.68763900
_cell_length_c   7.81317326
_cell_angle_alpha   89.98508421
_cell_angle_beta   90.00000000
_cell_angle_gamma   90.00000000
_symmetry_Int_Tables_number   1
_chemical_formula_structural   Li11U4(WO5)8
_chemical_formula_sum   'Li11 U4 W8 O40'
_cell_volume   779.21473691
_cell_formula_units_Z   1
loop_
 _symmetry_equiv_pos_site_id
 _symmetry_equiv_pos_as_xyz
  1  'x, y, z'
loop_
 _atom_site_type_symbol
 _atom_site_label
 _atom_site_symmetry_multiplicity
 _atom_site_fract_x
 _atom_site_fract_y
 _atom_site_fract_z
 _atom_site_occupancy
  Li  Li0  1  0.49275500  0.50000000  0.00000000  1
  Li  Li1  1  0.49444200  0.22723400  0.83321800  1
  Li  Li2  1  0.50354700  0.76587500  0.82501200  1
  Li  Li3  1  0.99383100  0.25106900  0.69024000  1
  Li  Li4  1  0.00540000  0.75095800  0.68978500  1
  Li  Li5  1  0.01239400  0.00000000  0.50000000  1
  Li  Li6  1  0.98767500  0.50000000  0.50000000  1
  Li  Li7  1  0.99383100  0.74893100  0.30976000  1
  Li  Li8  1  0.00540000  0.24904200  0.31021500  1
  Li  Li9  1  0.50354700  0.23412500  0.17498800  1
  Li  Li10  1  0.49444200  0.77276600  0.16678200  1
  U  U0  1  0.98092100  0.00000000  0.00000000  1
  U  U1  1  0.02057300  0.50000000  0.00000000  1
  U  U2  1  0.47836700  0.00000000  0.50000000  1
  U  U3  1  0.52053300  0.50000000  0.50000000  1
  W  W0  1  0.74497600  0.25048600  0.99042200  1
  W  W1  1  0.25642300  0.75007800  0.99032400  1
  W  W2  1  0.75692300  0.75043300  0.50954400  1
  W  W3  1  0.24322100  0.25050300  0.50958400  1
  W  W4  1  0.75692300  0.24956700  0.49045600  1
  W  W5  1  0.24322100  0.74949700  0.49041600  1
  W  W6  1  0.74497600  0.74951400  0.00957800  1
  W  W7  1  0.25642300  0.24992200  0.00967600  1
  O  O0  1  0.78474300  0.00000000  0.00000000  1
  O  O1  1  0.74120400  0.50000000  0.00000000  1
  O  O2  1  0.26945300  0.00000000  0.00000000  1
  O  O3  1  0.21272600  0.50000000  0.00000000  1
  O  O4  1  0.90513800  0.27599000  0.99337500  1
  O  O5  1  0.09859600  0.77965300  0.99363000  1
  O  O6  1  0.60562400  0.22439100  0.99613400  1
  O  O7  1  0.39487000  0.69946200  0.99342600  1
  O  O8  1  0.98124500  0.99984200  0.75226900  1
  O  O9  1  0.01972500  0.50014700  0.75189100  1
  O  O10  1  0.75282700  0.75042300  0.75423400  1
  O  O11  1  0.24924500  0.24995400  0.75477700  1
  O  O12  1  0.75207700  0.24958700  0.74522800  1
  O  O13  1  0.24876100  0.75048300  0.74528700  1
  O  O14  1  0.47757100  0.99807600  0.74118500  1
  O  O15  1  0.51936700  0.50029100  0.74456800  1
  O  O16  1  0.89782400  0.70741700  0.50455400  1
  O  O17  1  0.10246300  0.20769200  0.50533800  1
  O  O18  1  0.59956200  0.77892900  0.50600100  1
  O  O19  1  0.40023200  0.27943800  0.50525000  1
  O  O20  1  0.76990200  0.00000000  0.50000000  1
  O  O21  1  0.28373100  0.00000000  0.50000000  1
  O  O22  1  0.22980400  0.50000000  0.50000000  1
  O  O23  1  0.71604000  0.50000000  0.50000000  1
  O  O24  1  0.59956200  0.22107100  0.49399900  1
  O  O25  1  0.40023200  0.72056200  0.49475000  1
  O  O26  1  0.89782400  0.29258300  0.49544600  1
  O  O27  1  0.10246300  0.79230800  0.49466200  1
  O  O28  1  0.51936700  0.49970900  0.25543200  1
  O  O29  1  0.47757100  0.00192400  0.25881500  1
  O  O30  1  0.75207700  0.75041300  0.25477200  1
  O  O31  1  0.24876100  0.24951700  0.25471300  1
  O  O32  1  0.75282700  0.24957700  0.24576600  1
  O  O33  1  0.24924500  0.75004600  0.24522300  1
  O  O34  1  0.98124500  0.00015800  0.24773100  1
  O  O35  1  0.01972500  0.49985300  0.24810900  1
  O  O36  1  0.60562400  0.77560900  0.00386600  1
  O  O37  1  0.39487000  0.30053800  0.00657400  1
  O  O38  1  0.90513800  0.72401000  0.00662500  1
  O  O39  1  0.09859600  0.22034700  0.00637000  1
loop_
_geom_bond_atom_site_label_1
_geom_bond_atom_site_label_2
_geom_bond_distance
_geom_bond_site_symmetry_2
Li0 O37 1.991585 1_555
Li0 O7 1.991585 1_554
Li0 O28 2.025375 1_555
Li0 O15 2.025375 1_554
Li1 O14 1.915503 1_545
Li1 O6 1.923823 1_555
Li1 O37 1.954767 1_556
Li1 O15 2.233838 1_555
Li2 O36 1.926661 1_556
Li2 O14 1.930911 1_555
Li2 O7 1.994860 1_555
Li2 O15 2.146258 1_555
Li3 O26 1.992285 1_555
Li3 O8 1.997782 1_545
Li3 O9 2.002970 1_655
Li3 O17 2.045622 1_655
Li4 O9 1.996810 1_555
Li4 O8 1.999463 1_455
Li4 O27 2.002634 1_555
Li4 O16 2.038240 1_455
Li5 O27 1.978987 1_545
Li5 O17 1.978987 1_555
Li5 O34 2.012018 1_455
Li5 O8 2.012018 1_445
Li6 O16 1.975490 1_555
Li6 O26 1.975490 1_555
Li6 O9 2.011509 1_655
Li6 O35 2.011509 1_655
Li7 O16 1.992285 1_555
Li7 O34 1.997782 1_565
Li7 O35 2.002970 1_655
Li7 O27 2.045622 1_655
Li8 O35 1.996810 1_555
Li8 O34 1.999463 1_455
Li8 O17 2.002634 1_555
Li8 O26 2.038240 1_455
Li9 O6 1.926661 1_554
Li9 O29 1.930911 1_555
Li9 O37 1.994860 1_555
Li9 O28 2.146258 1_555
Li10 O29 1.915503 1_565
Li10 O36 1.923823 1_555
Li10 O7 1.954767 1_554
Li10 O28 2.233838 1_555
O0 W0 1.994939 1_554
O0 W6 1.994939 1_545
O0 U0 2.544996 1_555
O1 W6 1.920276 1_555
O1 W0 1.920276 1_554
O2 W1 1.930232 1_544
O2 W7 1.930232 1_555
O3 W7 2.005749 1_555
O3 W1 2.005749 1_554
O3 U1 2.492780 1_555
O4 W0 2.087122 1_555
O4 U1 2.282754 1_656
O4 U0 2.338977 1_556
O5 W1 2.060220 1_555
O5 U0 2.280886 1_466
O5 U1 2.376738 1_556
O6 W0 1.819441 1_555
O7 W1 1.837884 1_555
O8 U0 1.935570 1_566
O9 U1 1.938550 1_556
O10 W2 1.912544 1_555
O10 W6 1.997655 1_556
O11 W3 1.917332 1_555
O11 W7 1.993746 1_556
O12 W0 1.917971 1_555
O12 W4 1.991570 1_555
O13 W1 1.917097 1_555
O13 W5 1.992664 1_555
O14 U2 1.884503 1_565
O15 U3 1.910914 1_555
O16 W2 1.857977 1_555
O17 W3 1.855758 1_555
O18 W2 2.053333 1_555
O18 U2 2.315701 1_565
O18 U3 2.377268 1_555
O19 W3 2.049275 1_555
O19 U3 2.304852 1_555
O19 U2 2.375717 1_555
O20 W2 1.927379 1_545
O20 W4 1.927379 1_555
O21 W3 1.997619 1_555
O21 W5 1.997619 1_545
O21 U2 2.524991 1_555
O22 W5 1.927360 1_555
O22 W3 1.927360 1_555
O23 W2 1.998367 1_555
O23 W4 1.998367 1_555
O23 U3 2.536291 1_555
O24 W4 2.053333 1_555
O24 U2 2.315701 1_555
O24 U3 2.377268 1_555
O25 W5 2.049275 1_555
O25 U3 2.304852 1_555
O25 U2 2.375717 1_565
O26 W4 1.857977 1_555
O27 W5 1.855758 1_555
O28 U3 1.910914 1_555
O29 U2 1.884503 1_555
O30 W6 1.917971 1_555
O30 W2 1.991570 1_555
O31 W7 1.917097 1_555
O31 W3 1.992664 1_555
O32 W4 1.912544 1_555
O32 W0 1.997655 1_554
O33 W5 1.917332 1_555
O33 W1 1.993746 1_554
O34 U0 1.935570 1_555
O35 U1 1.938550 1_555
O36 W6 1.819441 1_555
O37 W7 1.837884 1_555
O38 W6 2.087122 1_555
O38 U1 2.282754 1_655
O38 U0 2.338977 1_565
O39 W7 2.060220 1_555
O39 U0 2.280886 1_455
O39 U1 2.376738 1_555
