# generated using pymatgen
data_V3HPb5O13
_symmetry_space_group_name_H-M   'P 1'
_cell_length_a   10.36120101
_cell_length_b   10.36120101
_cell_length_c   7.56335400
_cell_angle_alpha   90.00000000
_cell_angle_beta   90.00000000
_cell_angle_gamma   119.99999366
_symmetry_Int_Tables_number   1
_chemical_formula_structural   V3HPb5O13
_chemical_formula_sum   'V6 H2 Pb10 O26'
_cell_volume   703.17801750
_cell_formula_units_Z   2
loop_
 _symmetry_equiv_pos_site_id
 _symmetry_equiv_pos_as_xyz
  1  'x, y, z'
loop_
 _atom_site_type_symbol
 _atom_site_label
 _atom_site_symmetry_multiplicity
 _atom_site_fract_x
 _atom_site_fract_y
 _atom_site_fract_z
 _atom_site_occupancy
  V  V0  1  0.39933900  0.36943400  0.74398000  1
  V  V1  1  0.63056600  0.02990500  0.74398000  1
  V  V2  1  0.97009500  0.60066100  0.74398000  1
  V  V3  1  0.60066100  0.63056600  0.24398000  1
  V  V4  1  0.36943400  0.97009500  0.24398000  1
  V  V5  1  0.02990500  0.39933900  0.24398000  1
  H  H0  1  0.00000000  0.00000000  0.93640900  1
  H  H1  1  0.00000000  0.00000000  0.43640900  1
  Pb  Pb0  1  0.33333300  0.66666700  0.49928800  1
  Pb  Pb1  1  0.66666700  0.33333300  0.48333400  1
  Pb  Pb2  1  0.66666700  0.33333300  0.99928800  1
  Pb  Pb3  1  0.33333300  0.66666700  0.98333400  1
  Pb  Pb4  1  0.25128800  0.00741400  0.75047300  1
  Pb  Pb5  1  0.99258600  0.24387400  0.75047300  1
  Pb  Pb6  1  0.75612600  0.74871200  0.75047300  1
  Pb  Pb7  1  0.74871200  0.99258600  0.25047300  1
  Pb  Pb8  1  0.00741400  0.75612600  0.25047300  1
  Pb  Pb9  1  0.24387400  0.25128800  0.25047300  1
  O  O0  1  0.32723900  0.49070400  0.74714000  1
  O  O1  1  0.50929600  0.83653500  0.74714000  1
  O  O2  1  0.16346500  0.67276100  0.74714000  1
  O  O3  1  0.67276100  0.50929600  0.24714000  1
  O  O4  1  0.49070400  0.16346500  0.24714000  1
  O  O5  1  0.83653500  0.32723900  0.24714000  1
  O  O6  1  0.59512900  0.47027700  0.74083000  1
  O  O7  1  0.52972300  0.12485200  0.74083000  1
  O  O8  1  0.87514800  0.40487100  0.74083000  1
  O  O9  1  0.40487100  0.52972300  0.24083000  1
  O  O10  1  0.47027700  0.87514800  0.24083000  1
  O  O11  1  0.12485200  0.59512900  0.24083000  1
  O  O12  1  0.33692500  0.25000300  0.56193700  1
  O  O13  1  0.74999700  0.08692200  0.56193700  1
  O  O14  1  0.91307800  0.66307500  0.56193700  1
  O  O15  1  0.65388200  0.75031500  0.42552200  1
  O  O16  1  0.24968500  0.90356700  0.42552200  1
  O  O17  1  0.09643300  0.34611800  0.42552200  1
  O  O18  1  0.66307500  0.74999700  0.06193700  1
  O  O19  1  0.25000300  0.91307800  0.06193700  1
  O  O20  1  0.08692200  0.33692500  0.06193700  1
  O  O21  1  0.34611800  0.24968500  0.92552200  1
  O  O22  1  0.75031500  0.09643300  0.92552200  1
  O  O23  1  0.90356700  0.65388200  0.92552200  1
  O  O24  1  0.00000000  0.00000000  0.80741400  1
  O  O25  1  0.00000000  0.00000000  0.30741400  1
loop_
_geom_bond_atom_site_label_1
_geom_bond_atom_site_label_2
_geom_bond_distance
_geom_bond_site_symmetry_2
H0 O24 0.975635 1_555
H1 O25 0.975635 1_555
O0 V0 1.753883 1_555
O0 Pb3 2.530647 1_555
O0 Pb0 2.593642 1_555
O1 V1 1.753883 1_565
O1 Pb3 2.530644 1_555
O1 Pb0 2.593639 1_555
O2 V2 1.753883 1_455
O2 Pb3 2.530640 1_555
O2 Pb0 2.593635 1_555
O3 V3 1.753883 1_555
O3 Pb1 2.530647 1_555
O3 Pb2 2.593642 1_554
O4 V4 1.753883 1_545
O4 Pb1 2.530644 1_555
O4 Pb2 2.593639 1_554
O5 V5 1.753883 1_655
O5 Pb1 2.530640 1_555
O5 Pb2 2.593635 1_554
O6 V0 1.757263 1_555
O6 Pb6 2.509645 1_555
O6 Pb1 2.721636 1_555
O6 Pb2 2.726847 1_555
O7 V1 1.757263 1_555
O7 Pb4 2.509645 1_555
O7 Pb1 2.721630 1_555
O7 Pb2 2.726842 1_555
O8 V2 1.757263 1_555
O8 Pb5 2.509645 1_555
O8 Pb1 2.721629 1_555
O8 Pb2 2.726840 1_555
O9 V3 1.757263 1_555
O9 Pb9 2.509645 1_555
O9 Pb3 2.721636 1_554
O9 Pb0 2.726847 1_555
O10 V4 1.757263 1_555
O10 Pb7 2.509645 1_555
O10 Pb3 2.721630 1_554
O10 Pb0 2.726842 1_555
O11 V5 1.757263 1_555
O11 Pb8 2.509645 1_555
O11 Pb3 2.721629 1_554
O11 Pb0 2.726840 1_555
O12 V0 1.744985 1_555
O12 Pb9 2.547925 1_555
O12 Pb4 2.628342 1_555
O13 V1 1.744985 1_555
O13 Pb7 2.547925 1_545
O13 Pb5 2.628343 1_555
O14 V2 1.744985 1_555
O14 Pb8 2.547925 1_655
O14 Pb6 2.628342 1_555
O15 V3 1.744892 1_555
O15 Pb7 2.559892 1_555
O15 Pb6 2.679650 1_555
O16 V4 1.744892 1_555
O16 Pb8 2.559892 1_555
O16 Pb4 2.679650 1_565
O17 V5 1.744892 1_555
O17 Pb9 2.559892 1_555
O17 Pb5 2.679650 1_455
O18 V3 1.744985 1_555
O18 Pb6 2.547925 1_554
O18 Pb7 2.628342 1_555
O19 V4 1.744985 1_555
O19 Pb4 2.547925 1_564
O19 Pb8 2.628343 1_555
O20 V5 1.744985 1_555
O20 Pb5 2.547925 1_454
O20 Pb9 2.628342 1_555
O21 V0 1.744892 1_555
O21 Pb4 2.559892 1_555
O21 Pb9 2.679650 1_556
O22 V1 1.744892 1_555
O22 Pb5 2.559892 1_555
O22 Pb7 2.679650 1_546
O23 V2 1.744892 1_555
O23 Pb6 2.559892 1_555
O23 Pb8 2.679650 1_656
O24 Pb5 2.601987 1_455
O24 Pb4 2.601987 1_555
O24 Pb6 2.601987 1_445
O25 Pb8 2.601987 1_545
O25 Pb7 2.601987 1_445
O25 Pb9 2.601987 1_555
