# generated using pymatgen
data_VOF3
_symmetry_space_group_name_H-M   'P 1'
_cell_length_a   6.38242700
_cell_length_b   6.41910100
_cell_length_c   10.78271376
_cell_angle_alpha   67.33637657
_cell_angle_beta   90.00000000
_cell_angle_gamma   90.00000000
_symmetry_Int_Tables_number   1
_chemical_formula_structural   VOF3
_chemical_formula_sum   'V4 O4 F12'
_cell_volume   407.65022403
_cell_formula_units_Z   4
loop_
 _symmetry_equiv_pos_site_id
 _symmetry_equiv_pos_as_xyz
  1  'x, y, z'
loop_
 _atom_site_type_symbol
 _atom_site_label
 _atom_site_symmetry_multiplicity
 _atom_site_fract_x
 _atom_site_fract_y
 _atom_site_fract_z
 _atom_site_occupancy
  V  V0  1  0.50595800  0.90857400  0.99787300  1
  V  V1  1  0.97671300  0.39999100  0.00036100  1
  V  V2  1  0.49404200  0.90857400  0.49787300  1
  V  V3  1  0.02328700  0.39999100  0.50036100  1
  O  O0  1  0.09201400  0.43049800  0.12409900  1
  O  O1  1  0.38071700  0.74770300  0.94071300  1
  O  O2  1  0.61928300  0.74770300  0.44071300  1
  O  O3  1  0.90798600  0.43049800  0.62409900  1
  F  F0  1  0.06680300  0.66279400  0.36994900  1
  F  F1  1  0.74337500  0.77090600  0.06467300  1
  F  F2  1  0.56019200  0.15932100  0.85935500  1
  F  F3  1  0.26032000  0.25570100  0.56330700  1
  F  F4  1  0.86280000  0.23672700  0.43880500  1
  F  F5  1  0.43980800  0.15932100  0.35935500  1
  F  F6  1  0.73968000  0.25570100  0.06330700  1
  F  F7  1  0.63660300  0.92453800  0.63360700  1
  F  F8  1  0.93319700  0.66279400  0.86994900  1
  F  F9  1  0.25662500  0.77090600  0.56467300  1
  F  F10  1  0.36339700  0.92453800  0.13360700  1
  F  F11  1  0.13720000  0.23672700  0.93880500  1
loop_
_geom_bond_atom_site_label_1
_geom_bond_atom_site_label_2
_geom_bond_distance
_geom_bond_site_symmetry_2
O0 V1 1.600445 1_455
O1 V0 1.604888 1_555
O2 V2 1.604888 1_555
O3 V3 1.600445 1_655
F0 V3 1.752782 1_555
F1 V0 1.762198 1_554
F2 V0 1.757473 1_545
F3 V3 1.767140 1_555
F4 V3 1.767517 1_655
F5 V2 1.757473 1_545
F6 V1 1.767140 1_555
F7 V2 1.759557 1_555
F8 V1 1.752782 1_556
F9 V2 1.762198 1_555
F10 V0 1.759557 1_554
F11 V1 1.767517 1_456
