# generated using pymatgen
data_P3W2O13
_symmetry_space_group_name_H-M   'P 1'
_cell_length_a   6.33985839
_cell_length_b   7.51521364
_cell_length_c   11.35456818
_cell_angle_alpha   76.92987113
_cell_angle_beta   86.65171405
_cell_angle_gamma   78.65816339
_symmetry_Int_Tables_number   1
_chemical_formula_structural   P3W2O13
_chemical_formula_sum   'P6 W4 O26'
_cell_volume   516.63171664
_cell_formula_units_Z   2
loop_
 _symmetry_equiv_pos_site_id
 _symmetry_equiv_pos_as_xyz
  1  'x, y, z'
loop_
 _atom_site_type_symbol
 _atom_site_label
 _atom_site_symmetry_multiplicity
 _atom_site_fract_x
 _atom_site_fract_y
 _atom_site_fract_z
 _atom_site_occupancy
  P  P0  1  0.11506628  0.46180630  0.31743589  1
  P  P1  1  0.25870769  0.79068697  0.32978382  1
  P  P2  1  0.27263038  0.94075667  0.88467674  1
  P  P3  1  0.72736962  0.05924333  0.11532326  1
  P  P4  1  0.74129231  0.20931303  0.67021618  1
  P  P5  1  0.88493372  0.53819370  0.68256411  1
  W  W0  1  0.19873186  0.20822852  0.09364876  1
  W  W1  1  0.24548184  0.19831953  0.59613796  1
  W  W2  1  0.75451816  0.80168047  0.40386204  1
  W  W3  1  0.80126814  0.79177148  0.90635124  1
  O  O0  1  0.13497876  0.35467493  0.21860675  1
  O  O1  1  0.07157373  0.79500843  0.41996099  1
  O  O2  1  0.11072918  0.45516320  0.65266743  1
  O  O3  1  0.23586797  0.10527755  0.77709800  1
  O  O4  1  0.10352288  0.81939951  0.89224781  1
  O  O5  1  0.23898202  0.34247420  0.42761857  1
  O  O6  1  0.24349035  0.62638527  0.26410364  1
  O  O7  1  0.18372846  0.38360663  0.96888352  1
  O  O8  1  0.26008137  0.01240622  0.00098545  1
  O  O9  1  0.24538858  0.96685712  0.23721480  1
  O  O10  1  0.31914449  0.97969089  0.57232083  1
  O  O11  1  0.50896313  0.18577777  0.12094743  1
  O  O12  1  0.47238126  0.73179706  0.39446358  1
  O  O13  1  0.52761874  0.26820294  0.60553642  1
  O  O14  1  0.49103687  0.81422223  0.87905257  1
  O  O15  1  0.68085551  0.02030911  0.42767917  1
  O  O16  1  0.75461142  0.03314288  0.76278520  1
  O  O17  1  0.73991863  0.98759378  -0.00098545  1
  O  O18  1  0.81627154  0.61639337  0.03111648  1
  O  O19  1  0.75650965  0.37361473  0.73589636  1
  O  O20  1  0.76101798  0.65752580  0.57238143  1
  O  O21  1  0.89647712  0.18060049  0.10775219  1
  O  O22  1  0.76413203  0.89472245  0.22290200  1
  O  O23  1  0.88927082  0.54483680  0.34733257  1
  O  O24  1  0.92842627  0.20499157  0.58003901  1
  O  O25  1  0.86502124  0.64532507  0.78139325  1
loop_
_geom_bond_atom_site_label_1
_geom_bond_atom_site_label_2
_geom_bond_distance
_geom_bond_site_symmetry_2
O0 P0 1.508475 1_555
O0 W0 1.962668 1_555
O1 P1 1.521516 1_555
O1 W2 2.018790 1_455
O2 P5 1.497174 1_455
O2 W1 2.171488 1_555
O3 P2 1.520508 1_545
O3 W1 2.016643 1_555
O4 P2 1.525444 1_555
O4 W3 1.961221 1_455
O5 P0 1.522129 1_555
O5 W1 1.972506 1_555
O6 P0 1.599731 1_555
O6 P1 1.600583 1_555
O7 W0 1.695593 1_556
O8 P2 1.527367 1_544
O8 W0 1.962505 1_555
O9 P1 1.483833 1_555
O9 W0 2.131464 1_565
O10 W1 1.695649 1_565
O11 P3 1.524759 1_555
O11 W0 1.977365 1_555
O12 P1 1.517803 1_555
O12 W2 1.975810 1_555
O13 P4 1.517803 1_555
O13 W1 1.975810 1_555
O14 P2 1.524759 1_555
O14 W3 1.977365 1_555
O15 W2 1.695649 1_545
O16 P4 1.483833 1_555
O16 W3 2.131464 1_545
O17 P3 1.527367 1_565
O17 W3 1.962505 1_554
O18 W3 1.695593 1_554
O19 P5 1.599731 1_555
O19 P4 1.600583 1_555
O20 P5 1.522129 1_555
O20 W2 1.972506 1_555
O21 P3 1.525444 1_555
O21 W0 1.961221 1_655
O22 P3 1.520508 1_565
O22 W2 2.016643 1_555
O23 P0 1.497174 1_655
O23 W2 2.171488 1_555
O24 P4 1.521516 1_555
O24 W1 2.018790 1_655
O25 P5 1.508475 1_555
O25 W3 1.962668 1_555
