# generated using pymatgen
data_FeOF
_symmetry_space_group_name_H-M   'P 1'
_cell_length_a   3.12805100
_cell_length_b   9.64299700
_cell_length_c   14.33449109
_cell_angle_alpha   89.56607134
_cell_angle_beta   90.00000000
_cell_angle_gamma   90.00000000
_symmetry_Int_Tables_number   1
_chemical_formula_structural   FeOF
_chemical_formula_sum   'Fe12 O12 F12'
_cell_volume   432.37012749
_cell_formula_units_Z   12
loop_
 _symmetry_equiv_pos_site_id
 _symmetry_equiv_pos_as_xyz
  1  'x, y, z'
loop_
 _atom_site_type_symbol
 _atom_site_label
 _atom_site_symmetry_multiplicity
 _atom_site_fract_x
 _atom_site_fract_y
 _atom_site_fract_z
 _atom_site_occupancy
  Fe  Fe0  1  0.00000000  0.00561600  0.00503900  1
  Fe  Fe1  1  0.00000000  0.49241100  0.00974100  1
  Fe  Fe2  1  0.50000000  0.24407300  0.15447600  1
  Fe  Fe3  1  0.50000000  0.75848900  0.18746100  1
  Fe  Fe4  1  0.00000000  0.99221200  0.34141400  1
  Fe  Fe5  1  0.00000000  0.51667400  0.33296000  1
  Fe  Fe6  1  0.50000000  0.74747700  0.48649500  1
  Fe  Fe7  1  0.50000000  0.22276300  0.49849100  1
  Fe  Fe8  1  0.00000000  0.00616100  0.66961100  1
  Fe  Fe9  1  0.00000000  0.49805700  0.67762600  1
  Fe  Fe10  1  0.50000000  0.24496000  0.81561200  1
  Fe  Fe11  1  0.50000000  0.75380400  0.81523400  1
  O  O0  1  0.50000000  0.40895400  0.06611400  1
  O  O1  1  0.00000000  0.15336300  0.10266000  1
  O  O2  1  0.00000000  0.85512600  0.23435600  1
  O  O3  1  0.50000000  0.59180700  0.26763400  1
  O  O4  1  0.50000000  0.90375400  0.39955600  1
  O  O5  1  0.00000000  0.14922200  0.43630200  1
  O  O6  1  0.00000000  0.65030500  0.43695800  1
  O  O7  1  0.50000000  0.09312100  0.60347700  1
  O  O8  1  0.50000000  0.40580500  0.72974300  1
  O  O9  1  0.50000000  0.90708000  0.72886600  1
  O  O10  1  0.00000000  0.15281900  0.76912000  1
  O  O11  1  0.00000000  0.65716500  0.76708600  1
  F  F0  1  0.50000000  0.89179300  0.06536900  1
  F  F1  1  0.00000000  0.65986500  0.10035700  1
  F  F2  1  0.00000000  0.34250200  0.23496100  1
  F  F3  1  0.50000000  0.10400400  0.26911600  1
  F  F4  1  0.50000000  0.39831700  0.39929000  1
  F  F5  1  0.00000000  0.34865800  0.56314500  1
  F  F6  1  0.00000000  0.84290100  0.56499600  1
  F  F7  1  0.50000000  0.59851700  0.60155700  1
  F  F8  1  0.00000000  0.34988200  0.89900700  1
  F  F9  1  0.00000000  0.85021300  0.89886500  1
  F  F10  1  0.50000000  0.10197200  0.93071300  1
  F  F11  1  0.50000000  0.60015800  0.93658800  1
loop_
_geom_bond_atom_site_label_1
_geom_bond_atom_site_label_2
_geom_bond_distance
_geom_bond_site_symmetry_2
Fe0 O1 2.004547 1_555
Fe1 O0 1.933127 1_455
Fe1 O0 1.933127 1_555
Fe2 O1 1.942378 1_555
Fe2 O1 1.942378 1_655
Fe2 O0 2.025281 1_555
Fe3 O2 1.943173 1_555
Fe3 O2 1.943173 1_655
Fe3 O3 1.968814 1_555
Fe4 O4 1.964086 1_455
Fe4 O4 1.964086 1_555
Fe4 O2 2.033043 1_555
Fe4 O5 2.042938 1_565
Fe5 O3 1.959001 1_455
Fe5 O3 1.959001 1_555
Fe5 O6 1.977867 1_555
Fe6 O4 1.948235 1_555
Fe6 O6 1.959210 1_655
Fe6 O6 1.959210 1_555
Fe7 O5 1.937352 1_555
Fe7 O5 1.937352 1_655
Fe7 O7 1.949137 1_555
Fe8 O7 2.008982 1_455
Fe8 O7 2.008982 1_555
Fe8 O10 2.016241 1_555
Fe8 O9 2.016980 1_545
Fe8 O9 2.016980 1_445
Fe9 O8 1.945658 1_455
Fe9 O8 1.945658 1_555
Fe9 O11 2.007054 1_555
Fe10 O10 1.920611 1_555
Fe10 O10 1.920611 1_655
Fe10 O8 1.972779 1_555
Fe11 O9 1.920841 1_555
Fe11 O11 1.949533 1_655
Fe11 O11 1.949533 1_555
F0 Fe0 2.093894 1_565
F0 Fe0 2.093894 1_665
F0 Fe3 2.163620 1_555
F1 Fe1 2.080011 1_555
F1 Fe3 2.219820 1_555
F1 Fe3 2.219820 1_455
F2 Fe2 2.166725 1_555
F2 Fe2 2.166725 1_455
F2 Fe5 2.197717 1_555
F3 Fe2 2.119242 1_555
F3 Fe4 2.159952 1_645
F3 Fe4 2.159952 1_545
F4 Fe5 2.153224 1_655
F4 Fe5 2.153224 1_555
F4 Fe7 2.202591 1_555
F5 Fe7 2.189966 1_555
F5 Fe7 2.189966 1_455
F5 Fe9 2.191863 1_555
F6 Fe6 2.138882 1_555
F6 Fe6 2.138882 1_455
F6 Fe8 2.182438 1_565
F7 Fe9 2.134858 1_555
F7 Fe9 2.134858 1_655
F7 Fe6 2.178943 1_555
F8 Fe1 2.107513 1_556
F8 Fe10 2.217476 1_455
F8 Fe10 2.217476 1_555
F9 Fe0 2.143953 1_566
F9 Fe11 2.182770 1_555
F9 Fe11 2.182770 1_455
F10 Fe0 2.104674 1_556
F10 Fe0 2.104674 1_656
F10 Fe10 2.142181 1_555
F11 Fe1 2.146809 1_556
F11 Fe1 2.146809 1_656
F11 Fe11 2.276434 1_555
