# generated using pymatgen
data_TbCuAs2
_symmetry_space_group_name_H-M   'P 1'
_cell_length_a   3.88371110
_cell_length_b   3.88371110
_cell_length_c   9.94603484
_cell_angle_alpha   90.00000000
_cell_angle_beta   90.00000000
_cell_angle_gamma   90.00000000
_symmetry_Int_Tables_number   1
_chemical_formula_structural   TbCuAs2
_chemical_formula_sum   'Tb2 Cu2 As4'
_cell_volume   150.01815114
_cell_formula_units_Z   2
loop_
 _symmetry_equiv_pos_site_id
 _symmetry_equiv_pos_as_xyz
  1  'x, y, z'
loop_
 _atom_site_type_symbol
 _atom_site_label
 _atom_site_symmetry_multiplicity
 _atom_site_fract_x
 _atom_site_fract_y
 _atom_site_fract_z
 _atom_site_occupancy
  Tb  Tb0  1  0.75000000  0.75000000  0.76292744  1
  Tb  Tb1  1  0.25000000  0.25000000  0.23707256  1
  Cu  Cu0  1  0.25000000  0.75000000  0.50000000  1
  Cu  Cu1  1  0.75000000  0.25000000  0.50000000  1
  As  As0  1  0.75000000  0.25000000  0.00000000  1
  As  As1  1  0.25000000  0.75000000  0.00000000  1
  As  As2  1  0.75000000  0.75000000  0.34301237  1
  As  As3  1  0.25000000  0.25000000  0.65698763  1
loop_
_geom_bond_atom_site_label_1
_geom_bond_atom_site_label_2
_geom_bond_distance
_geom_bond_site_symmetry_2
As0 As1 2.746198 1_655
As0 As1 2.746198 1_645
As0 As1 2.746198 1_545
As0 As1 2.746198 1_555
As0 Tb0 3.054611 1_554
As0 Tb0 3.054611 1_544
As0 Tb1 3.054611 1_555
As0 Tb1 3.054611 1_655
As1 Tb0 3.054611 1_454
As1 Tb0 3.054611 1_554
As1 Tb1 3.054611 1_565
As1 Tb1 3.054611 1_555
As2 Cu0 2.491744 1_655
As2 Cu1 2.491744 1_565
As2 Cu0 2.491744 1_555
As2 Cu1 2.491744 1_555
As2 Tb1 2.941403 1_555
As2 Tb1 2.941403 1_565
As2 Tb1 2.941403 1_655
As2 Tb1 2.941403 1_665
As3 Cu1 2.491744 1_455
As3 Cu0 2.491744 1_545
As3 Cu0 2.491744 1_555
As3 Cu1 2.491744 1_555
As3 Tb0 2.941403 1_555
As3 Tb0 2.941403 1_455
As3 Tb0 2.941403 1_545
As3 Tb0 2.941403 1_445
