# generated using pymatgen
data_Li3Co(NiO2)4
_symmetry_space_group_name_H-M   'P 1'
_cell_length_a   5.83323565
_cell_length_b   5.83323565
_cell_length_c   5.80980798
_cell_angle_alpha   60.14741784
_cell_angle_beta   60.14741784
_cell_angle_gamma   59.14464762
_symmetry_Int_Tables_number   1
_chemical_formula_structural   Li3Co(NiO2)4
_chemical_formula_sum   'Li3 Co1 Ni4 O8'
_cell_volume   139.16545334
_cell_formula_units_Z   1
loop_
 _symmetry_equiv_pos_site_id
 _symmetry_equiv_pos_as_xyz
  1  'x, y, z'
loop_
 _atom_site_type_symbol
 _atom_site_label
 _atom_site_symmetry_multiplicity
 _atom_site_fract_x
 _atom_site_fract_y
 _atom_site_fract_z
 _atom_site_occupancy
  Li  Li0  1  0.00000000  0.50000000  0.50000000  1
  Li  Li1  1  0.00000000  0.00000000  0.50000000  1
  Li  Li2  1  0.50000000  0.00000000  0.50000000  1
  Co  Co0  1  0.50000000  0.50000000  0.00000000  1
  Ni  Ni0  1  0.50000000  0.00000000  0.00000000  1
  Ni  Ni1  1  0.00000000  0.00000000  0.00000000  1
  Ni  Ni2  1  0.50000000  0.50000000  0.50000000  1
  Ni  Ni3  1  0.00000000  0.50000000  0.00000000  1
  O  O0  1  0.26354200  0.73743600  0.76228100  1
  O  O1  1  0.73645800  0.26256400  0.23771900  1
  O  O2  1  0.26988200  0.26988200  0.21181000  1
  O  O3  1  0.73011800  0.73011800  0.78819000  1
  O  O4  1  0.24964500  0.24964500  0.77872700  1
  O  O5  1  0.75035500  0.75035500  0.22127300  1
  O  O6  1  0.73743600  0.26354200  0.76228100  1
  O  O7  1  0.26256400  0.73645800  0.23771900  1
loop_
_geom_bond_atom_site_label_1
_geom_bond_atom_site_label_2
_geom_bond_distance
_geom_bond_site_symmetry_2
Li0 O7 2.078785 1_555
Li0 O6 2.078785 1_455
Li0 O2 2.128228 1_555
Li0 O3 2.128228 1_455
Li0 O5 2.165074 1_455
Li0 O4 2.165074 1_555
Li1 O1 2.150482 1_455
Li1 O0 2.150482 1_545
Li1 O6 2.150482 1_455
Li1 O7 2.150482 1_545
Li1 O3 2.248127 1_445
Li1 O2 2.248127 1_555
Li2 O1 2.078785 1_555
Li2 O0 2.078785 1_545
Li2 O3 2.128228 1_545
Li2 O2 2.128228 1_555
Li2 O5 2.165074 1_545
Li2 O4 2.165074 1_555
Co0 O2 1.917635 1_555
Co0 O3 1.917635 1_554
Co0 O7 1.939285 1_555
Co0 O0 1.939285 1_554
Co0 O6 1.939285 1_554
Co0 O1 1.939285 1_555
Ni0 O5 1.931289 1_545
Ni0 O4 1.931289 1_554
Ni0 O3 1.977648 1_544
Ni0 O2 1.977648 1_555
Ni0 O6 2.086866 1_554
Ni0 O7 2.086866 1_545
Ni1 O7 2.047814 1_545
Ni1 O1 2.047814 1_455
Ni1 O0 2.047814 1_544
Ni1 O6 2.047814 1_454
Ni1 O5 2.083671 1_445
Ni1 O4 2.083671 1_554
Ni2 O7 2.047403 1_555
Ni2 O1 2.047403 1_555
Ni2 O0 2.047403 1_555
Ni2 O6 2.047403 1_555
Ni2 O4 2.089662 1_555
Ni2 O5 2.089662 1_555
Ni3 O5 1.931289 1_455
Ni3 O4 1.931289 1_554
Ni3 O3 1.977648 1_454
Ni3 O2 1.977648 1_555
Ni3 O0 2.086866 1_554
Ni3 O1 2.086866 1_455
