# generated using pymatgen
data_V3O5F
_symmetry_space_group_name_H-M   'P 1'
_cell_length_a   5.52878500
_cell_length_b   5.53492337
_cell_length_c   7.24441507
_cell_angle_alpha   70.94830287
_cell_angle_beta   70.86440208
_cell_angle_gamma   73.67542685
_symmetry_Int_Tables_number   1
_chemical_formula_structural   V3O5F
_chemical_formula_sum   'V6 O10 F2'
_cell_volume   194.16995647
_cell_formula_units_Z   2
loop_
 _symmetry_equiv_pos_site_id
 _symmetry_equiv_pos_as_xyz
  1  'x, y, z'
loop_
 _atom_site_type_symbol
 _atom_site_label
 _atom_site_symmetry_multiplicity
 _atom_site_fract_x
 _atom_site_fract_y
 _atom_site_fract_z
 _atom_site_occupancy
  V  V0  1  0.64598100  0.66393300  0.84775200  1
  V  V1  1  0.36240400  0.31132700  0.66793900  1
  V  V2  1  0.64355100  0.65213500  0.34128300  1
  V  V3  1  0.32995700  0.33196700  0.16439700  1
  V  V4  1  0.00979600  0.02936200  0.49660200  1
  V  V5  1  0.00285200  0.01116400  0.98206000  1
  O  O0  1  0.35281500  0.95430100  0.34440000  1
  O  O1  1  0.22393100  0.22418400  0.97293700  1
  O  O2  1  0.57471200  0.57315800  0.62955900  1
  O  O3  1  0.10213800  0.10091100  0.69704000  1
  O  O4  1  0.76714300  0.77340800  0.04247500  1
  O  O5  1  0.43280000  0.43153400  0.36257000  1
  O  O6  1  0.30113300  0.71165500  0.99193100  1
  O  O7  1  0.65304000  0.01824900  0.66564500  1
  O  O8  1  0.95227000  0.36596200  0.34005700  1
  O  O9  1  0.70875400  0.31107700  0.98805900  1
  F  F0  1  0.03873800  0.63309500  0.66649400  1
  F  F1  1  0.89798500  0.90257800  0.29879700  1
loop_
_geom_bond_atom_site_label_1
_geom_bond_atom_site_label_2
_geom_bond_distance
_geom_bond_site_symmetry_2
O0 V4 1.862845 1_565
O0 V2 1.967492 1_555
O0 V3 2.065427 1_565
O1 V5 1.896011 1_555
O1 V3 1.973112 1_556
O1 V1 2.025737 1_555
O2 V2 1.916705 1_555
O2 V0 1.986041 1_555
O2 V1 2.008633 1_555
O3 V4 1.871107 1_555
O3 V5 1.884697 1_555
O3 V1 2.013537 1_555
O4 V5 1.958499 1_664
O4 V2 1.985662 1_555
O4 V0 2.052213 1_554
O5 V2 1.852401 1_555
O5 V3 1.978873 1_555
O5 V1 2.026884 1_555
O6 V0 1.840444 1_555
O6 V5 1.983930 1_565
O6 V3 2.056945 1_556
O7 V1 1.936099 1_555
O7 V4 1.956876 1_655
O7 V0 1.976905 1_545
O8 V4 1.839096 1_655
O8 V2 1.975272 1_555
O8 V3 2.051456 1_655
O9 V0 1.876749 1_555
O9 V5 1.970985 1_655
O9 V3 2.058549 1_556
F0 V4 2.126146 1_565
F0 V0 2.130080 1_455
F0 V1 2.140722 1_555
F1 V5 2.094234 1_664
F1 V4 2.099794 1_665
F1 V2 2.128112 1_555
