# generated using pymatgen
data_SrLa3Mn4O12
_symmetry_space_group_name_H-M   'P 1'
_cell_length_a   7.87811964
_cell_length_b   7.87811964
_cell_length_c   7.87811919
_cell_angle_alpha   90.57167052
_cell_angle_beta   90.57167052
_cell_angle_gamma   90.57166712
_symmetry_Int_Tables_number   1
_chemical_formula_structural   SrLa3Mn4O12
_chemical_formula_sum   'Sr2 La6 Mn8 O24'
_cell_volume   488.88014597
_cell_formula_units_Z   2
loop_
 _symmetry_equiv_pos_site_id
 _symmetry_equiv_pos_as_xyz
  1  'x, y, z'
loop_
 _atom_site_type_symbol
 _atom_site_label
 _atom_site_symmetry_multiplicity
 _atom_site_fract_x
 _atom_site_fract_y
 _atom_site_fract_z
 _atom_site_occupancy
  Sr  Sr0  1  0.75000000  0.75000000  0.75000000  1
  Sr  Sr1  1  0.25000000  0.25000000  0.25000000  1
  La  La0  1  0.75000000  0.24812300  0.25187700  1
  La  La1  1  0.25187700  0.75000000  0.24812300  1
  La  La2  1  0.74812300  0.25000000  0.75187700  1
  La  La3  1  0.24812300  0.25187700  0.75000000  1
  La  La4  1  0.25000000  0.75187700  0.74812300  1
  La  La5  1  0.75187700  0.74812300  0.25000000  1
  Mn  Mn0  1  0.50000000  0.50000000  0.50000000  1
  Mn  Mn1  1  0.50000000  0.00000000  0.00000000  1
  Mn  Mn2  1  0.00000000  0.50000000  0.00000000  1
  Mn  Mn3  1  0.00000000  0.50000000  0.50000000  1
  Mn  Mn4  1  0.50000000  0.00000000  0.50000000  1
  Mn  Mn5  1  0.00000000  0.00000000  0.50000000  1
  Mn  Mn6  1  0.00000000  0.00000000  0.00000000  1
  Mn  Mn7  1  0.50000000  0.50000000  0.00000000  1
  O  O0  1  0.74996400  0.03435400  0.97419900  1
  O  O1  1  0.02580100  0.25003600  0.96564600  1
  O  O2  1  0.25000000  0.53052200  0.96947800  1
  O  O3  1  0.52347500  0.75000000  0.97652500  1
  O  O4  1  0.02347500  0.47652500  0.25000000  1
  O  O5  1  0.47419900  0.53435400  0.24996400  1
  O  O6  1  0.75003600  0.52580100  0.46564600  1
  O  O7  1  0.53052200  0.96947800  0.25000000  1
  O  O8  1  0.03052200  0.75000000  0.46947800  1
  O  O9  1  0.96564600  0.02580100  0.25003600  1
  O  O10  1  0.46564600  0.75003600  0.52580100  1
  O  O11  1  0.75000000  0.97652500  0.52347500  1
  O  O12  1  0.25000000  0.02347500  0.47652500  1
  O  O13  1  0.53435400  0.24996400  0.47419900  1
  O  O14  1  0.03435400  0.97419900  0.74996400  1
  O  O15  1  0.96947800  0.25000000  0.53052200  1
  O  O16  1  0.46947800  0.03052200  0.75000000  1
  O  O17  1  0.24996400  0.47419900  0.53435400  1
  O  O18  1  0.52580100  0.46564600  0.75003600  1
  O  O19  1  0.97652500  0.52347500  0.75000000  1
  O  O20  1  0.47652500  0.25000000  0.02347500  1
  O  O21  1  0.75000000  0.46947800  0.03052200  1
  O  O22  1  0.97419900  0.74996400  0.03435400  1
  O  O23  1  0.25003600  0.96564600  0.02580100  1
loop_
_geom_bond_atom_site_label_1
_geom_bond_atom_site_label_2
_geom_bond_distance
_geom_bond_site_symmetry_2
La0 O13 2.452236 1_555
La0 O9 2.452236 1_555
La0 O21 2.478465 1_555
La0 O0 2.747391 1_554
La0 O6 2.747391 1_555
La0 O15 2.780632 1_555
La0 O7 2.780632 1_545
La0 O20 2.793479 1_555
La0 O4 2.793479 1_655
La1 O23 2.452236 1_555
La1 O5 2.452236 1_555
La1 O8 2.478465 1_555
La1 O10 2.747391 1_555
La1 O22 2.747391 1_455
La1 O2 2.780632 1_554
La1 O7 2.780632 1_555
La1 O12 2.793479 1_565
La1 O4 2.793479 1_555
La2 O0 2.452236 1_555
La2 O18 2.452236 1_555
La2 O15 2.478465 1_555
La2 O13 2.747391 1_555
La2 O1 2.747391 1_655
La2 O21 2.780632 1_556
La2 O16 2.780632 1_555
La2 O11 2.793479 1_545
La2 O19 2.793479 1_555
La3 O1 2.452236 1_555
La3 O17 2.452236 1_555
La3 O16 2.478465 1_555
La3 O14 2.747391 1_545
La3 O18 2.747391 1_555
La3 O15 2.780632 1_455
La3 O2 2.780632 1_555
La3 O12 2.793479 1_555
La3 O20 2.793479 1_556
La4 O10 2.452236 1_555
La4 O14 2.452236 1_555
La4 O2 2.478465 1_555
La4 O23 2.747391 1_556
La4 O17 2.747391 1_555
La4 O8 2.780632 1_555
La4 O16 2.780632 1_565
La4 O3 2.793479 1_555
La4 O19 2.793479 1_455
La5 O22 2.452236 1_555
La5 O6 2.452236 1_555
La5 O7 2.478465 1_555
La5 O9 2.747391 1_565
La5 O5 2.747391 1_555
La5 O8 2.780632 1_655
La5 O21 2.780632 1_555
La5 O3 2.793479 1_554
La5 O11 2.793479 1_555
Mn0 O18 1.999619 1_555
Mn0 O5 1.999619 1_555
Mn0 O10 1.999619 1_555
Mn0 O13 1.999619 1_555
Mn0 O6 1.999619 1_555
Mn0 O17 1.999619 1_555
Mn1 O20 1.986992 1_555
Mn1 O3 1.986992 1_544
Mn1 O23 1.997735 1_545
Mn1 O0 1.997735 1_554
Mn1 O16 1.998960 1_554
Mn1 O7 1.998960 1_545
Mn2 O19 1.986991 1_454
Mn2 O4 1.986991 1_555
Mn2 O22 1.997735 1_455
Mn2 O1 1.997735 1_554
Mn2 O21 1.998960 1_455
Mn2 O2 1.998960 1_554
Mn3 O19 1.986991 1_455
Mn3 O4 1.986991 1_555
Mn3 O17 1.997735 1_555
Mn3 O6 1.997735 1_455
Mn3 O8 1.998960 1_555
Mn3 O15 1.998960 1_455
Mn4 O12 1.986992 1_555
Mn4 O11 1.986992 1_545
Mn4 O13 1.997735 1_555
Mn4 O10 1.997735 1_545
Mn4 O7 1.998960 1_545
Mn4 O16 1.998960 1_555
Mn5 O12 1.986992 1_555
Mn5 O11 1.986992 1_445
Mn5 O9 1.997735 1_455
Mn5 O14 1.997735 1_545
Mn5 O8 1.998960 1_545
Mn5 O15 1.998960 1_455
Mn6 O9 1.999619 1_455
Mn6 O14 1.999619 1_544
Mn6 O23 1.999619 1_545
Mn6 O0 1.999619 1_454
Mn6 O1 1.999619 1_554
Mn6 O22 1.999619 1_445
Mn7 O20 1.986992 1_555
Mn7 O3 1.986992 1_554
Mn7 O5 1.997735 1_555
Mn7 O18 1.997735 1_554
Mn7 O21 1.998960 1_555
Mn7 O2 1.998960 1_554
O0 Sr0 2.838864 1_545
O1 Sr1 2.838864 1_556
O3 Sr0 2.536352 1_555
O4 Sr1 2.536352 1_555
O5 Sr1 2.838864 1_555
O6 Sr0 2.838864 1_555
O9 Sr1 2.838864 1_655
O10 Sr0 2.838864 1_555
O11 Sr0 2.536352 1_555
O12 Sr1 2.536352 1_555
O13 Sr1 2.838864 1_555
O14 Sr0 2.838864 1_455
O17 Sr1 2.838864 1_555
O18 Sr0 2.838864 1_555
O19 Sr0 2.536352 1_555
O20 Sr1 2.536352 1_555
O22 Sr0 2.838864 1_554
O23 Sr1 2.838864 1_565
