# generated using pymatgen
data_Li2Si2NiO6
_symmetry_space_group_name_H-M   'P 1'
_cell_length_a   7.13199200
_cell_length_b   9.82224800
_cell_length_c   10.04092200
_cell_angle_alpha   90.00000000
_cell_angle_beta   90.00000000
_cell_angle_gamma   90.00000000
_symmetry_Int_Tables_number   1
_chemical_formula_structural   Li2Si2NiO6
_chemical_formula_sum   'Li12 Si12 Ni6 O36'
_cell_volume   703.38861747
_cell_formula_units_Z   6
loop_
 _symmetry_equiv_pos_site_id
 _symmetry_equiv_pos_as_xyz
  1  'x, y, z'
loop_
 _atom_site_type_symbol
 _atom_site_label
 _atom_site_symmetry_multiplicity
 _atom_site_fract_x
 _atom_site_fract_y
 _atom_site_fract_z
 _atom_site_occupancy
  Li  Li0  1  0.78821800  0.24362000  0.00000000  1
  Li  Li1  1  0.77040700  0.76849100  0.00000000  1
  Li  Li2  1  0.28884800  0.45682300  0.22535000  1
  Li  Li3  1  0.22075200  0.03556700  0.22918700  1
  Li  Li4  1  0.77924800  0.53556700  0.27081300  1
  Li  Li5  1  0.71115200  0.95682300  0.27465000  1
  Li  Li6  1  0.22959300  0.26849100  0.50000000  1
  Li  Li7  1  0.21178200  0.74362000  0.50000000  1
  Li  Li8  1  0.71115200  0.95682300  0.72535000  1
  Li  Li9  1  0.77924800  0.53556700  0.72918700  1
  Li  Li10  1  0.22075200  0.03556700  0.77081300  1
  Li  Li11  1  0.28884800  0.45682300  0.77465000  1
  Si  Si0  1  0.98039500  0.52575600  0.00000000  1
  Si  Si1  1  0.51709900  0.96963900  0.00000000  1
  Si  Si2  1  0.02320100  0.75315600  0.22633300  1
  Si  Si3  1  0.47596300  0.74308100  0.22671800  1
  Si  Si4  1  0.52403700  0.24308100  0.27328200  1
  Si  Si5  1  0.97679900  0.25315600  0.27366700  1
  Si  Si6  1  0.48290100  0.46963900  0.50000000  1
  Si  Si7  1  0.01960500  0.02575600  0.50000000  1
  Si  Si8  1  0.97679900  0.25315600  0.72633300  1
  Si  Si9  1  0.52403700  0.24308100  0.72671800  1
  Si  Si10  1  0.47596300  0.74308100  0.77328200  1
  Si  Si11  1  0.02320100  0.75315600  0.77366700  1
  Ni  Ni0  1  0.24899700  0.24653700  0.00000000  1
  Ni  Ni1  1  0.98009400  0.02333200  0.00000000  1
  Ni  Ni2  1  0.51803700  0.46571100  0.00000000  1
  Ni  Ni3  1  0.01990600  0.52333200  0.50000000  1
  Ni  Ni4  1  0.48196300  0.96571100  0.50000000  1
  Ni  Ni5  1  0.75100300  0.74653700  0.50000000  1
  O  O0  1  0.30615300  0.03129100  0.00000000  1
  O  O1  1  0.69710000  0.06849400  0.00000000  1
  O  O2  1  0.18950800  0.46208500  0.00000000  1
  O  O3  1  0.79899800  0.42883400  0.00000000  1
  O  O4  1  0.04548100  0.19393500  0.13097500  1
  O  O5  1  0.55697400  0.86050400  0.12323400  1
  O  O6  1  0.94484500  0.63323700  0.12505400  1
  O  O7  1  0.44447200  0.30174400  0.13341400  1
  O  O8  1  0.94659100  0.89863700  0.17265900  1
  O  O9  1  0.53664300  0.59187600  0.17888300  1
  O  O10  1  0.75048100  0.25795700  0.27647600  1
  O  O11  1  0.24951900  0.75795700  0.22352400  1
  O  O12  1  0.46335700  0.09187600  0.32111700  1
  O  O13  1  0.05340900  0.39863700  0.32734100  1
  O  O14  1  0.55552800  0.80174400  0.36658600  1
  O  O15  1  0.05515500  0.13323700  0.37494600  1
  O  O16  1  0.44302600  0.36050400  0.37676600  1
  O  O17  1  0.95451900  0.69393500  0.36902500  1
  O  O18  1  0.69384700  0.53129100  0.50000000  1
  O  O19  1  0.30290000  0.56849400  0.50000000  1
  O  O20  1  0.20100200  0.92883400  0.50000000  1
  O  O21  1  0.81049200  0.96208500  0.50000000  1
  O  O22  1  0.95451900  0.69393500  0.63097500  1
  O  O23  1  0.44302600  0.36050400  0.62323400  1
  O  O24  1  0.05515500  0.13323700  0.62505400  1
  O  O25  1  0.55552800  0.80174400  0.63341400  1
  O  O26  1  0.05340900  0.39863700  0.67265900  1
  O  O27  1  0.46335700  0.09187600  0.67888300  1
  O  O28  1  0.24951900  0.75795700  0.77647600  1
  O  O29  1  0.75048100  0.25795700  0.72352400  1
  O  O30  1  0.53664300  0.59187600  0.82111700  1
  O  O31  1  0.94659100  0.89863700  0.82734100  1
  O  O32  1  0.44447200  0.30174400  0.86658600  1
  O  O33  1  0.94484500  0.63323700  0.87494600  1
  O  O34  1  0.55697400  0.86050400  0.87676600  1
  O  O35  1  0.04548100  0.19393500  0.86902500  1
loop_
_geom_bond_atom_site_label_1
_geom_bond_atom_site_label_2
_geom_bond_distance
_geom_bond_site_symmetry_2
Li0 O3 1.820842 1_555
Li0 O1 1.838793 1_555
Li0 O4 2.309580 1_655
Li0 O35 2.309580 1_654
Li1 O5 2.159867 1_555
Li1 O34 2.159867 1_554
Li1 O33 2.211186 1_554
Li1 O6 2.211186 1_555
Li1 O8 2.493708 1_555
Li1 O31 2.493708 1_554
Li2 O13 2.048151 1_555
Li2 O7 2.098634 1_555
Li2 O16 2.101343 1_555
Li2 O9 2.258452 1_555
Li2 O2 2.371612 1_555
Li3 O12 2.037580 1_555
Li3 O15 2.111201 1_555
Li3 O4 2.225920 1_555
Li3 O0 2.380859 1_555
Li3 O8 2.440150 1_445
Li4 O9 2.037580 1_555
Li4 O6 2.111201 1_555
Li4 O17 2.225920 1_555
Li4 O18 2.380859 1_555
Li4 O13 2.440150 1_655
Li5 O8 2.048151 1_555
Li5 O14 2.098634 1_555
Li5 O5 2.101343 1_555
Li5 O12 2.258452 1_565
Li5 O21 2.371612 1_555
Li6 O23 2.159867 1_555
Li6 O16 2.159867 1_555
Li6 O15 2.211186 1_555
Li6 O24 2.211186 1_555
Li6 O13 2.493708 1_555
Li6 O26 2.493708 1_555
Li7 O20 1.820842 1_555
Li7 O19 1.838793 1_555
Li7 O22 2.309580 1_455
Li7 O17 2.309580 1_455
Li8 O31 2.048151 1_555
Li8 O25 2.098634 1_555
Li8 O34 2.101343 1_555
Li8 O27 2.258452 1_565
Li8 O21 2.371612 1_555
Li9 O30 2.037580 1_555
Li9 O33 2.111201 1_555
Li9 O22 2.225920 1_555
Li9 O18 2.380859 1_555
Li9 O26 2.440150 1_655
Li10 O27 2.037580 1_555
Li10 O24 2.111201 1_555
Li10 O35 2.225920 1_555
Li10 O0 2.380859 1_556
Li10 O31 2.440150 1_445
Li11 O26 2.048151 1_555
Li11 O32 2.098634 1_555
Li11 O23 2.101343 1_555
Li11 O30 2.258452 1_555
Li11 O2 2.371612 1_556
Ni0 O32 2.008023 1_554
Ni0 O7 2.008023 1_555
Ni0 O4 2.025645 1_555
Ni0 O35 2.025645 1_554
Ni0 O0 2.153139 1_555
Ni0 O2 2.159259 1_555
Ni1 O1 2.066483 1_555
Ni1 O8 2.136060 1_545
Ni1 O31 2.136060 1_544
Ni1 O4 2.180590 1_655
Ni1 O35 2.180590 1_654
Ni1 O0 2.326764 1_655
Ni2 O3 2.036286 1_555
Ni2 O7 2.159535 1_555
Ni2 O32 2.159535 1_554
Ni2 O9 2.186193 1_555
Ni2 O30 2.186193 1_554
Ni2 O2 2.343337 1_555
Ni3 O19 2.066483 1_555
Ni3 O13 2.136060 1_555
Ni3 O26 2.136060 1_555
Ni3 O22 2.180590 1_455
Ni3 O17 2.180590 1_455
Ni3 O18 2.326764 1_455
Ni4 O20 2.036286 1_555
Ni4 O25 2.159535 1_555
Ni4 O14 2.159535 1_555
Ni4 O12 2.186193 1_565
Ni4 O27 2.186193 1_565
Ni4 O21 2.343337 1_555
Ni5 O25 2.008023 1_555
Ni5 O14 2.008023 1_555
Ni5 O22 2.025645 1_555
Ni5 O17 2.025645 1_555
Ni5 O18 2.153139 1_555
Ni5 O21 2.159259 1_555
O0 Si1 1.621764 1_545
O1 Si1 1.609613 1_545
O2 Si0 1.617209 1_455
O3 Si0 1.606239 1_555
O4 Si5 1.622066 1_455
O5 Si3 1.656420 1_555
O5 Si1 1.661647 1_555
O6 Si2 1.653433 1_655
O6 Si0 1.659962 1_555
O7 Si4 1.620607 1_555
O8 Si2 1.622000 1_655
O9 Si3 1.619791 1_555
O10 Si5 1.615033 1_555
O10 Si4 1.621910 1_555
O11 Si2 1.615033 1_555
O11 Si3 1.621910 1_555
O12 Si4 1.619791 1_555
O13 Si5 1.622000 1_455
O14 Si3 1.620607 1_555
O15 Si5 1.653433 1_455
O15 Si7 1.659962 1_555
O16 Si4 1.656420 1_555
O16 Si6 1.661647 1_555
O17 Si2 1.622066 1_655
O18 Si6 1.621764 1_555
O19 Si6 1.609613 1_555
O20 Si7 1.606239 1_565
O21 Si7 1.617209 1_665
O22 Si11 1.622066 1_655
O23 Si9 1.656420 1_555
O23 Si6 1.661647 1_555
O24 Si8 1.653433 1_455
O24 Si7 1.659962 1_555
O25 Si10 1.620607 1_555
O26 Si8 1.622000 1_455
O27 Si9 1.619791 1_555
O28 Si11 1.615033 1_555
O28 Si10 1.621910 1_555
O29 Si8 1.615033 1_555
O29 Si9 1.621910 1_555
O30 Si10 1.619791 1_555
O31 Si11 1.622000 1_655
O32 Si9 1.620607 1_555
O33 Si11 1.653433 1_655
O33 Si0 1.659962 1_556
O34 Si10 1.656420 1_555
O34 Si1 1.661647 1_556
O35 Si8 1.622066 1_455
