# generated using pymatgen
data_LiVF6
_symmetry_space_group_name_H-M   'P 1'
_cell_length_a   5.32869730
_cell_length_b   5.32869582
_cell_length_c   5.32869553
_cell_angle_alpha   59.99999766
_cell_angle_beta   90.00000000
_cell_angle_gamma   59.99999687
_symmetry_Int_Tables_number   1
_chemical_formula_structural   LiVF6
_chemical_formula_sum   'Li1 V1 F6'
_cell_volume   106.99114938
_cell_formula_units_Z   1
loop_
 _symmetry_equiv_pos_site_id
 _symmetry_equiv_pos_as_xyz
  1  'x, y, z'
loop_
 _atom_site_type_symbol
 _atom_site_label
 _atom_site_symmetry_multiplicity
 _atom_site_fract_x
 _atom_site_fract_y
 _atom_site_fract_z
 _atom_site_occupancy
  Li  Li0  1  -0.00000000  0.00000000  0.00000000  1
  V  V0  1  0.50000000  0.00000000  0.50000000  1
  F  F0  1  0.73712408  0.52575185  0.73712408  1
  F  F1  1  0.73712408  -0.00000000  0.73712408  1
  F  F2  1  0.73712408  -0.00000000  0.26287592  1
  F  F3  1  0.26287592  0.47424815  0.26287592  1
  F  F4  1  0.26287592  0.00000000  0.73712408  1
  F  F5  1  0.26287592  0.00000000  0.26287592  1
loop_
_geom_bond_atom_site_label_1
_geom_bond_atom_site_label_2
_geom_bond_distance
_geom_bond_site_symmetry_2
F0 V0 1.786946 1_565
F0 Li0 1.981010 1_656
F1 V0 1.786947 1_555
F1 Li0 1.981011 1_656
F2 V0 1.786947 1_555
F2 Li0 1.981011 1_655
F3 V0 1.786946 1_555
F3 Li0 1.981010 1_565
F4 V0 1.786947 1_555
F4 Li0 1.981011 1_556
F5 V0 1.786947 1_555
F5 Li0 1.981011 1_555
