# generated using pymatgen
data_Li2Cr3SbO8
_symmetry_space_group_name_H-M   'P 1'
_cell_length_a   5.96407400
_cell_length_b   9.66574152
_cell_length_c   5.95483993
_cell_angle_alpha   89.93543071
_cell_angle_beta   60.05108843
_cell_angle_gamma   89.96854043
_symmetry_Int_Tables_number   1
_chemical_formula_structural   Li2Cr3SbO8
_chemical_formula_sum   'Li4 Cr6 Sb2 O16'
_cell_volume   297.44179499
_cell_formula_units_Z   2
loop_
 _symmetry_equiv_pos_site_id
 _symmetry_equiv_pos_as_xyz
  1  'x, y, z'
loop_
 _atom_site_type_symbol
 _atom_site_label
 _atom_site_symmetry_multiplicity
 _atom_site_fract_x
 _atom_site_fract_y
 _atom_site_fract_z
 _atom_site_occupancy
  Li  Li0  1  0.33335700  0.90397400  0.33339500  1
  Li  Li1  1  0.66665700  0.40398700  0.66674700  1
  Li  Li2  1  0.00006900  0.99072200  0.99997300  1
  Li  Li3  1  0.99992800  0.49073600  0.00005200  1
  Cr  Cr0  1  0.17103600  0.21383500  0.65798500  1
  Cr  Cr1  1  0.83019200  0.71397400  0.34080200  1
  Cr  Cr2  1  0.34063000  0.71398500  0.83021300  1
  Cr  Cr3  1  0.65936600  0.21395500  0.17093200  1
  Cr  Cr4  1  0.16994300  0.21399800  0.17083200  1
  Cr  Cr5  1  0.82913400  0.71389300  0.82906700  1
  Sb  Sb0  1  0.33344400  0.48782400  0.33344200  1
  Sb  Sb1  1  0.66655000  0.98783500  0.66689300  1
  O  O0  1  0.33407000  0.10711000  0.33230400  1
  O  O1  1  0.66593300  0.60715400  0.66639700  1
  O  O2  1  0.99987800  0.30580500  0.99991400  1
  O  O3  1  0.00013400  0.80583000  0.99980800  1
  O  O4  1  0.66893200  0.59514000  0.16532800  1
  O  O5  1  0.16543700  0.59513200  0.16548600  1
  O  O6  1  0.83455500  0.09510800  0.33089700  1
  O  O7  1  0.16530100  0.59526000  0.66903600  1
  O  O8  1  0.83472500  0.09524200  0.83433600  1
  O  O9  1  0.33103800  0.09511400  0.83426700  1
  O  O10  1  0.48107500  0.34306900  0.03753900  1
  O  O11  1  0.48147600  0.34392400  0.48202800  1
  O  O12  1  0.03666500  0.34406100  0.48177100  1
  O  O13  1  0.96332700  0.84410400  0.51843100  1
  O  O14  1  0.51890400  0.84310800  0.51861800  1
  O  O15  1  0.51854000  0.84396000  0.96350400  1
loop_
_geom_bond_atom_site_label_1
_geom_bond_atom_site_label_2
_geom_bond_distance
_geom_bond_site_symmetry_2
Li0 O0 1.963463 1_565
Li0 O15 1.995284 1_554
Li0 O13 1.997840 1_455
Li0 O14 2.000942 1_555
Li1 O1 1.963763 1_555
Li1 O11 1.995461 1_555
Li1 O12 1.997905 1_655
Li1 O10 2.001186 1_556
Li2 O3 1.787119 1_555
Li2 O8 1.983370 1_465
Li2 O6 1.984152 1_466
Li2 O9 1.985791 1_565
Li3 O2 1.787497 1_554
Li3 O7 1.983529 1_654
Li3 O5 1.984275 1_655
Li3 O4 1.985997 1_555
Cr0 O0 1.972655 1_555
Cr0 O2 1.976341 1_455
Cr0 O12 2.040410 1_555
Cr0 O11 2.041949 1_555
Cr0 O9 2.079814 1_555
Cr0 O8 2.082463 1_455
Cr1 O3 1.969972 1_654
Cr1 O1 1.971062 1_555
Cr1 O14 2.040475 1_555
Cr1 O13 2.043054 1_555
Cr1 O5 2.079218 1_655
Cr1 O4 2.084109 1_555
Cr2 O3 1.970857 1_555
Cr2 O1 1.972909 1_555
Cr2 O14 2.038989 1_555
Cr2 O15 2.044206 1_555
Cr2 O5 2.076245 1_556
Cr2 O7 2.082642 1_555
Cr3 O2 1.970929 1_554
Cr3 O0 1.972924 1_555
Cr3 O10 2.039307 1_555
Cr3 O11 2.043772 1_555
Cr3 O6 2.075727 1_555
Cr3 O8 2.082976 1_554
Cr4 O2 1.969724 1_454
Cr4 O0 1.971435 1_555
Cr4 O10 2.039476 1_555
Cr4 O12 2.043354 1_555
Cr4 O6 2.080051 1_455
Cr4 O9 2.083670 1_554
Cr5 O1 1.973551 1_555
Cr5 O3 1.975321 1_655
Cr5 O13 2.040584 1_555
Cr5 O15 2.042519 1_555
Cr5 O4 2.079842 1_556
Cr5 O7 2.082066 1_655
O4 Sb0 2.020304 1_555
O5 Sb0 2.019222 1_555
O6 Sb1 2.019178 1_545
O7 Sb0 2.019962 1_555
O8 Sb1 2.019913 1_545
O9 Sb1 2.020255 1_545
O10 Sb0 2.071929 1_555
O11 Sb0 2.067074 1_555
O12 Sb0 2.069536 1_555
O13 Sb1 2.069353 1_555
O14 Sb1 2.071801 1_555
O15 Sb1 2.066866 1_555
