# generated using pymatgen
data_Li4CrFe3O8
_symmetry_space_group_name_H-M   'P 1'
_cell_length_a   5.18540996
_cell_length_b   5.96264301
_cell_length_c   10.75287223
_cell_angle_alpha   106.08938426
_cell_angle_beta   85.44782127
_cell_angle_gamma   73.28918068
_symmetry_Int_Tables_number   1
_chemical_formula_structural   Li4CrFe3O8
_chemical_formula_sum   'Li8 Cr2 Fe6 O16'
_cell_volume   301.34768381
_cell_formula_units_Z   2
loop_
 _symmetry_equiv_pos_site_id
 _symmetry_equiv_pos_as_xyz
  1  'x, y, z'
loop_
 _atom_site_type_symbol
 _atom_site_label
 _atom_site_symmetry_multiplicity
 _atom_site_fract_x
 _atom_site_fract_y
 _atom_site_fract_z
 _atom_site_occupancy
  Li  Li0  1  0.00142200  0.12401600  0.74972700  1
  Li  Li1  1  0.99975800  0.00001600  0.00074100  1
  Li  Li2  1  0.99829700  0.25140200  0.50050900  1
  Li  Li3  1  0.00158200  0.37372500  0.24955000  1
  Li  Li4  1  0.00027500  0.62498000  0.74916600  1
  Li  Li5  1  0.99868300  0.50088800  0.00021400  1
  Li  Li6  1  0.99996200  0.74967200  0.50079700  1
  Li  Li7  1  0.00001600  0.87531500  0.24929200  1
  Cr  Cr0  1  0.50023400  0.68731600  0.62483800  1
  Cr  Cr1  1  0.49977600  0.93767700  0.12516200  1
  Fe  Fe0  1  0.49982300  0.06242200  0.87498100  1
  Fe  Fe1  1  0.49992400  0.18761800  0.62517900  1
  Fe  Fe2  1  0.49999400  0.31250700  0.37501600  1
  Fe  Fe3  1  0.50021600  0.56257400  0.87498600  1
  Fe  Fe4  1  0.50005500  0.43737200  0.12482700  1
  Fe  Fe5  1  0.49997600  0.81251000  0.37503100  1
  O  O0  1  0.27150800  0.08699400  0.30975700  1
  O  O1  1  0.72950100  0.03732500  0.43921500  1
  O  O2  1  0.26921700  0.33868200  0.81155000  1
  O  O3  1  0.73076400  0.28630800  0.93841500  1
  O  O4  1  0.72776300  0.16149000  0.18889600  1
  O  O5  1  0.27127600  0.21114300  0.06126300  1
  O  O6  1  0.27220800  0.46354100  0.56113300  1
  O  O7  1  0.72875600  0.41384600  0.68870500  1
  O  O8  1  0.27047700  0.58767500  0.31080800  1
  O  O9  1  0.72851100  0.53800200  0.44026600  1
  O  O10  1  0.27256000  0.83618000  0.80911000  1
  O  O11  1  0.72746700  0.78882300  0.94086500  1
  O  O12  1  0.27232800  0.71396700  0.06099500  1
  O  O13  1  0.27128500  0.96167100  0.56129000  1
  O  O14  1  0.72867400  0.66332400  0.18873700  1
  O  O15  1  0.72771400  0.91101800  0.68897500  1
loop_
_geom_bond_atom_site_label_1
_geom_bond_atom_site_label_2
_geom_bond_distance
_geom_bond_site_symmetry_2
Li0 O13 2.164401 1_545
Li0 O10 2.166166 1_545
Li0 O3 2.168285 1_455
Li0 O2 2.169242 1_555
Li0 O15 2.185870 1_445
Li0 O7 2.187864 1_455
Li1 O4 2.167030 1_555
Li1 O12 2.167503 1_645
Li1 O5 2.168223 1_655
Li1 O11 2.170548 1_544
Li1 O3 2.173007 1_554
Li1 O10 2.197329 1_644
Li2 O7 2.161690 1_555
Li2 O9 2.163240 1_555
Li2 O1 2.170059 1_555
Li2 O6 2.182989 1_655
Li2 O13 2.186723 1_645
Li2 O0 2.191067 1_655
Li3 O5 2.162789 1_555
Li3 O0 2.163878 1_555
Li3 O8 2.169893 1_555
Li3 O4 2.183041 1_455
Li3 O14 2.186194 1_455
Li3 O9 2.190449 1_455
Li4 O6 2.165891 1_555
Li4 O15 2.167052 1_455
Li4 O7 2.168131 1_455
Li4 O10 2.170688 1_555
Li4 O2 2.173273 1_555
Li4 O11 2.197901 1_455
Li5 O14 2.165441 1_555
Li5 O11 2.166545 1_554
Li5 O2 2.167802 1_654
Li5 O3 2.169375 1_554
Li5 O12 2.185986 1_655
Li5 O5 2.187514 1_655
Li6 O6 2.167583 1_655
Li6 O15 2.167808 1_555
Li6 O9 2.170166 1_555
Li6 O13 2.170876 1_655
Li6 O1 2.177332 1_565
Li6 O8 2.178620 1_655
Li7 O4 2.168146 1_465
Li7 O12 2.168929 1_555
Li7 O0 2.170247 1_565
Li7 O14 2.171052 1_455
Li7 O8 2.176872 1_555
Li7 O1 2.178078 1_465
Cr0 O10 2.039363 1_555
Cr0 O15 2.042126 1_555
Cr0 O7 2.042877 1_555
Cr0 O9 2.043137 1_555
Cr0 O6 2.043750 1_555
Cr0 O13 2.045471 1_555
Cr1 O11 2.039613 1_554
Cr1 O12 2.042094 1_555
Cr1 O5 2.043025 1_565
Cr1 O0 2.043319 1_565
Cr1 O4 2.043817 1_565
Cr1 O14 2.045538 1_555
Fe0 O15 2.054832 1_545
Fe0 O11 2.054888 1_545
Fe0 O3 2.055656 1_555
Fe0 O10 2.056054 1_545
Fe0 O2 2.056199 1_555
Fe0 O5 2.058498 1_556
Fe1 O6 2.053104 1_555
Fe1 O15 2.054571 1_545
Fe1 O13 2.056083 1_545
Fe1 O7 2.057327 1_555
Fe1 O1 2.057723 1_555
Fe1 O2 2.063453 1_555
Fe2 O1 2.054356 1_555
Fe2 O8 2.054373 1_555
Fe2 O4 2.055577 1_555
Fe2 O6 2.055584 1_555
Fe2 O0 2.056551 1_555
Fe2 O9 2.056580 1_555
Fe3 O12 2.054852 1_556
Fe3 O10 2.054889 1_555
Fe3 O2 2.055925 1_555
Fe3 O11 2.056053 1_555
Fe3 O3 2.056099 1_555
Fe3 O7 2.058475 1_555
Fe4 O4 2.053060 1_555
Fe4 O12 2.054661 1_555
Fe4 O14 2.056068 1_555
Fe4 O5 2.057194 1_555
Fe4 O8 2.057872 1_555
Fe4 O3 2.063811 1_554
Fe5 O1 2.055450 1_565
Fe5 O8 2.055514 1_555
Fe5 O9 2.056294 1_555
Fe5 O0 2.056315 1_565
Fe5 O13 2.058567 1_555
Fe5 O14 2.058884 1_555
