# generated using pymatgen
data_LiMn2P2HO8
_symmetry_space_group_name_H-M   'P 1'
_cell_length_a   5.16799306
_cell_length_b   8.89772601
_cell_length_c   8.75643715
_cell_angle_alpha   85.16208992
_cell_angle_beta   78.23629548
_cell_angle_gamma   105.41813513
_symmetry_Int_Tables_number   1
_chemical_formula_structural   LiMn2P2HO8
_chemical_formula_sum   'Li2 Mn4 P4 H2 O16'
_cell_volume   375.89049407
_cell_formula_units_Z   2
loop_
 _symmetry_equiv_pos_site_id
 _symmetry_equiv_pos_as_xyz
  1  'x, y, z'
loop_
 _atom_site_type_symbol
 _atom_site_label
 _atom_site_symmetry_multiplicity
 _atom_site_fract_x
 _atom_site_fract_y
 _atom_site_fract_z
 _atom_site_occupancy
  Li  Li0  1  0.61374900  0.29667600  0.19504200  1
  Li  Li1  1  0.38626100  0.70335300  0.80498800  1
  Mn  Mn0  1  0.77317900  0.39474700  0.78339200  1
  Mn  Mn1  1  0.22674900  0.60491400  0.21616000  1
  Mn  Mn2  1  0.32880900  0.12200400  0.59593200  1
  Mn  Mn3  1  0.67115100  0.87799400  0.40409100  1
  P  P0  1  0.86519800  0.74993600  0.06345700  1
  P  P1  1  0.13482500  0.25011500  0.93659500  1
  P  P2  1  0.10035400  0.74350100  0.57222000  1
  P  P3  1  0.89965200  0.25649700  0.42778900  1
  H  H0  1  0.90008000  0.93922400  0.87679400  1
  H  H1  1  0.09993300  0.06081800  0.12326400  1
  O  O0  1  0.10523600  0.12590600  0.82227000  1
  O  O1  1  0.89480400  0.87412500  0.17775500  1
  O  O2  1  0.37416200  0.40004300  0.86661600  1
  O  O3  1  0.62591100  0.59998800  0.13342800  1
  O  O4  1  0.81770500  0.76841200  0.57124000  1
  O  O5  1  0.18230400  0.23164600  0.42878400  1
  O  O6  1  0.14021100  0.70905900  0.01473300  1
  O  O7  1  0.85983500  0.29100500  0.98528900  1
  O  O8  1  0.73793200  0.26342800  0.59915000  1
  O  O9  1  0.26205000  0.73653900  0.40085400  1
  O  O10  1  0.78948100  0.82504700  0.91190100  1
  O  O11  1  0.21053200  0.17498700  0.08815400  1
  O  O12  1  0.69716400  0.11726500  0.37443900  1
  O  O13  1  0.30284300  0.88277800  0.62558100  1
  O  O14  1  0.92202400  0.40363500  0.31376900  1
  O  O15  1  0.07786700  0.59635800  0.68631500  1
loop_
_geom_bond_atom_site_label_1
_geom_bond_atom_site_label_2
_geom_bond_distance
_geom_bond_site_symmetry_2
Li0 O7 2.022543 1_554
Li0 O14 2.135592 1_555
Li0 O12 2.328280 1_555
Li0 O11 2.481368 1_555
Li0 O5 2.597877 1_555
Li0 O3 2.688655 1_555
Li1 O6 2.022488 1_556
Li1 O15 2.135811 1_555
Li1 O13 2.328430 1_555
Li1 O10 2.481520 1_555
Li1 O4 2.597886 1_555
Li1 O2 2.688743 1_555
Mn0 O15 2.028569 1_655
Mn0 O2 2.056776 1_555
Mn0 O8 2.079855 1_555
Mn0 O7 2.108425 1_555
Mn1 O14 2.027633 1_455
Mn1 O3 2.055779 1_555
Mn1 O9 2.084855 1_555
Mn1 O6 2.106168 1_555
Mn2 O5 2.066623 1_555
Mn2 O13 2.087322 1_545
Mn2 O0 2.088875 1_555
Mn2 O8 2.161082 1_555
Mn2 O12 2.436865 1_555
Mn3 O4 2.066518 1_555
Mn3 O12 2.087663 1_565
Mn3 O1 2.088939 1_555
Mn3 O9 2.161121 1_555
Mn3 O13 2.436814 1_555
H0 O10 1.010052 1_555
H0 O0 1.683610 1_665
H1 O11 1.009996 1_555
H1 O1 1.683624 1_445
O0 P1 1.551173 1_555
O1 P0 1.550873 1_555
O2 P1 1.536457 1_555
O3 P0 1.536429 1_555
O4 P2 1.536189 1_655
O5 P3 1.536017 1_455
O6 P0 1.545347 1_455
O7 P1 1.545266 1_655
O8 P3 1.576549 1_555
O9 P2 1.576615 1_555
O10 P0 1.600667 1_556
O11 P1 1.600724 1_554
O12 P3 1.567060 1_555
O13 P2 1.567366 1_555
O14 P3 1.541475 1_555
O15 P2 1.541710 1_555
