# generated using pymatgen
data_Na2FePCO7
_symmetry_space_group_name_H-M   'P 1'
_cell_length_a   10.34882667
_cell_length_b   8.36248772
_cell_length_c   8.39091806
_cell_angle_alpha   77.38755727
_cell_angle_beta   71.22449715
_cell_angle_gamma   107.54380937
_symmetry_Int_Tables_number   1
_chemical_formula_structural   Na2FePCO7
_chemical_formula_sum   'Na8 Fe4 P4 C4 O28'
_cell_volume   614.24133469
_cell_formula_units_Z   4
loop_
 _symmetry_equiv_pos_site_id
 _symmetry_equiv_pos_as_xyz
  1  'x, y, z'
loop_
 _atom_site_type_symbol
 _atom_site_label
 _atom_site_symmetry_multiplicity
 _atom_site_fract_x
 _atom_site_fract_y
 _atom_site_fract_z
 _atom_site_occupancy
  Na  Na0  1  0.91850100  0.70636600  0.54973300  1
  Na  Na1  1  0.91900600  0.20962800  0.05585200  1
  Na  Na2  1  0.73184800  0.74774100  0.27027400  1
  Na  Na3  1  0.73146800  0.47806800  0.00195000  1
  Na  Na4  1  0.26302400  0.74998100  0.23975400  1
  Na  Na5  1  0.26425100  0.25185400  0.73524400  1
  Na  Na6  1  0.07260700  0.28110200  0.44935800  1
  Na  Na7  1  0.08688200  0.79283500  0.93902400  1
  Fe  Fe0  1  0.65684100  0.30006800  0.44977500  1
  Fe  Fe1  1  0.65353800  0.82116500  0.92856900  1
  Fe  Fe2  1  0.34545800  0.19696700  0.06705800  1
  Fe  Fe3  1  0.34595800  0.69728300  0.56721400  1
  P  P0  1  0.57610100  0.55656300  0.69139000  1
  P  P1  1  0.57563000  0.05815300  0.19268700  1
  P  P2  1  0.42609200  0.44484800  0.30931400  1
  P  P3  1  0.42226800  0.94271300  0.81123900  1
  C  C0  1  0.93688800  0.48663100  0.26667400  1
  C  C1  1  0.93526200  0.97494200  0.77836400  1
  C  C2  1  0.06529100  0.01677900  0.22128500  1
  C  C3  1  0.06509000  0.52140400  0.72608300  1
  O  O0  1  0.92477700  0.92850400  0.30122000  1
  O  O1  1  0.92474500  0.44436100  0.81736900  1
  O  O2  1  0.87430000  0.33824100  0.40628600  1
  O  O3  1  0.87085900  0.82615200  0.91999600  1
  O  O4  1  0.84410400  0.53407600  0.21131800  1
  O  O5  1  0.84348800  0.02235300  0.72225000  1
  O  O6  1  0.67688100  0.97922600  0.08387500  1
  O  O7  1  0.67040300  0.66207600  0.77528600  1
  O  O8  1  0.68182000  0.49433900  0.56595200  1
  O  O9  1  0.67456400  0.18040000  0.26012700  1
  O  O10  1  0.57097100  0.59631800  0.15375600  1
  O  O11  1  0.56712900  0.08964000  0.65942500  1
  O  O12  1  0.53016400  0.17738500  0.06968400  1
  O  O13  1  0.53029800  0.67938600  0.57232000  1
  O  O14  1  0.46336600  0.82333700  0.94105800  1
  O  O15  1  0.47343300  0.33042100  0.43388900  1
  O  O16  1  0.43214700  0.90516900  0.34384200  1
  O  O17  1  0.43322800  0.39890500  0.83773700  1
  O  O18  1  0.32456500  0.82565400  0.73926800  1
  O  O19  1  0.32490400  0.52183000  0.42003900  1
  O  O20  1  0.32798800  0.32857300  0.23709600  1
  O  O21  1  0.32074800  0.01921900  0.92193500  1
  O  O22  1  0.15812600  0.96996900  0.27573700  1
  O  O23  1  0.15828000  0.46820800  0.77372200  1
  O  O24  1  0.12767700  0.16425400  0.08027700  1
  O  O25  1  0.12746200  0.66371700  0.57967500  1
  O  O26  1  0.07667800  0.57653300  0.19111200  1
  O  O27  1  0.07488700  0.06419600  0.70244100  1
loop_
_geom_bond_atom_site_label_1
_geom_bond_atom_site_label_2
_geom_bond_distance
_geom_bond_site_symmetry_2
Na0 O25 2.375355 1_655
Na0 O0 2.439611 1_555
Na0 O8 2.494706 1_555
Na0 O7 2.510743 1_555
Na0 O22 2.667528 1_655
Na0 O1 2.806763 1_555
Na1 O24 2.365238 1_655
Na1 O1 2.449258 1_554
Na1 O9 2.459703 1_555
Na1 O6 2.560955 1_545
Na1 O23 2.678546 1_654
Na1 O0 2.796290 1_545
Na2 O0 2.241527 1_555
Na2 O10 2.376697 1_555
Na2 O4 2.460553 1_555
Na2 O13 2.519191 1_555
Na2 O6 2.536041 1_555
Na2 O3 2.646883 1_554
Na2 O8 2.670144 1_555
Na3 O1 2.239503 1_554
Na3 O10 2.353192 1_555
Na3 O4 2.452107 1_555
Na3 O12 2.537955 1_555
Na3 O7 2.542897 1_554
Na3 O3 2.642471 1_554
Na3 O9 2.678847 1_555
Na4 O26 2.251282 1_555
Na4 O16 2.370643 1_555
Na4 O22 2.426825 1_555
Na4 O14 2.484630 1_554
Na4 O19 2.537400 1_555
Na4 O25 2.557219 1_555
Na4 O21 2.842430 1_564
Na5 O27 2.249593 1_555
Na5 O17 2.333097 1_555
Na5 O23 2.409092 1_555
Na5 O15 2.530871 1_555
Na5 O21 2.554378 1_555
Na5 O24 2.594546 1_556
Na5 O19 2.820576 1_555
Na6 O2 2.358784 1_455
Na6 O27 2.485204 1_555
Na6 O20 2.518590 1_555
Na6 O5 2.606825 1_455
Na6 O19 2.670528 1_555
Na6 O26 2.888157 1_555
Na7 O18 2.381854 1_555
Na7 O3 2.384702 1_455
Na7 O26 2.414007 1_556
Na7 O21 2.521482 1_565
Na7 O4 2.661420 1_456
Na7 O27 2.732561 1_565
Fe0 O11 1.914415 1_555
Fe0 O15 2.030605 1_555
Fe0 O9 2.045876 1_555
Fe0 O8 2.063265 1_555
Fe0 O2 2.070499 1_555
Fe0 O4 2.257486 1_555
Fe1 O14 1.942725 1_555
Fe1 O7 2.048752 1_555
Fe1 O5 2.058001 1_565
Fe1 O6 2.065448 1_556
Fe1 O10 2.067947 1_556
Fe1 O3 2.214271 1_555
Fe2 O12 1.973662 1_555
Fe2 O17 1.977493 1_554
Fe2 O20 1.979707 1_555
Fe2 O21 2.125890 1_554
Fe2 O22 2.138337 1_545
Fe2 O24 2.149600 1_555
Fe3 O13 1.971169 1_555
Fe3 O16 1.974035 1_555
Fe3 O18 1.974845 1_555
Fe3 O19 2.120624 1_555
Fe3 O23 2.141361 1_555
Fe3 O25 2.157543 1_555
C0 O26 1.267180 1_655
C0 O2 1.312972 1_555
C0 O4 1.315848 1_555
C1 O27 1.265080 1_665
C1 O5 1.309303 1_565
C1 O3 1.322550 1_555
C2 O0 1.272065 1_445
C2 O22 1.310033 1_545
C2 O24 1.314799 1_555
C3 O1 1.271021 1_455
C3 O23 1.310307 1_555
C3 O25 1.315341 1_555
O6 P1 1.559318 1_565
O7 P0 1.555921 1_555
O8 P0 1.554574 1_555
O9 P1 1.551824 1_555
O10 P2 1.558656 1_555
O11 P3 1.535086 1_545
O12 P1 1.557827 1_555
O13 P0 1.558224 1_555
O14 P3 1.563121 1_555
O15 P2 1.556854 1_555
O16 P1 1.544029 1_565
O17 P0 1.543147 1_555
O18 P3 1.549136 1_555
O19 P2 1.554198 1_555
O20 P2 1.549719 1_555
O21 P3 1.553196 1_545
