# generated using pymatgen
data_LiFe2(BO3)2
_symmetry_space_group_name_H-M   'P 1'
_cell_length_a   5.25187100
_cell_length_b   9.10990897
_cell_length_c   11.31420305
_cell_angle_alpha   113.11543035
_cell_angle_beta   103.15344014
_cell_angle_gamma   89.27219097
_symmetry_Int_Tables_number   1
_chemical_formula_structural   LiFe2(BO3)2
_chemical_formula_sum   'Li4 Fe8 B8 O24'
_cell_volume   483.01840840
_cell_formula_units_Z   4
loop_
 _symmetry_equiv_pos_site_id
 _symmetry_equiv_pos_as_xyz
  1  'x, y, z'
loop_
 _atom_site_type_symbol
 _atom_site_label
 _atom_site_symmetry_multiplicity
 _atom_site_fract_x
 _atom_site_fract_y
 _atom_site_fract_z
 _atom_site_occupancy
  Li  Li0  1  0.02819600  0.03200900  0.40012300  1
  Li  Li1  1  0.53152900  0.53474000  0.41446600  1
  Li  Li2  1  0.98381100  0.00752600  0.66283800  1
  Li  Li3  1  0.74669300  0.73960100  0.14102300  1
  Fe  Fe0  1  0.03628500  0.34924900  0.37803600  1
  Fe  Fe1  1  0.27299300  0.92893800  0.87612000  1
  Fe  Fe2  1  0.46492100  0.16538800  0.62925000  1
  Fe  Fe3  1  0.23534900  0.56134400  0.13260400  1
  Fe  Fe4  1  0.76711500  0.43387500  0.87215200  1
  Fe  Fe5  1  0.53085600  0.85198400  0.38583800  1
  Fe  Fe6  1  0.97809000  0.64946400  0.63132100  1
  Fe  Fe7  1  0.73396300  0.07318300  0.13045200  1
  B  B0  1  0.01743600  0.68196600  0.37144800  1
  B  B1  1  0.27414000  0.60789100  0.88798700  1
  B  B2  1  0.48683100  0.82196800  0.62912900  1
  B  B3  1  0.23544500  0.89207900  0.12825400  1
  B  B4  1  0.51788400  0.18461700  0.37191300  1
  B  B5  1  0.76553900  0.10612700  0.87977400  1
  B  B6  1  0.96982400  0.31005000  0.62247500  1
  B  B7  1  0.73433500  0.40024300  0.13114000  1
  O  O0  1  0.00614800  0.06749800  0.85620100  1
  O  O1  1  0.14146000  0.71446400  0.84206200  1
  O  O2  1  0.13599800  0.51606600  0.93202800  1
  O  O3  1  0.07667800  0.16409600  0.60255100  1
  O  O4  1  0.05930900  0.41607600  0.58058000  1
  O  O5  1  0.25642900  0.85264800  0.67785400  1
  O  O6  1  0.26006400  0.65311600  0.33438000  1
  O  O7  1  0.53582300  0.59632800  0.89803200  1
  O  O8  1  0.63721300  0.22411400  0.84970300  1
  O  O9  1  0.41191300  0.07881000  0.41273200  1
  O  O10  1  0.40819300  0.32087100  0.37529800  1
  O  O11  1  0.63887100  0.01915700  0.93222600  1
  O  O12  1  0.36406200  0.98262300  0.08056500  1
  O  O13  1  0.59881500  0.68241400  0.60981000  1
  O  O14  1  0.58831900  0.93739900  0.59520800  1
  O  O15  1  0.37600900  0.77873200  0.16390900  1
  O  O16  1  0.48120000  0.41676700  0.13906600  1
  O  O17  1  0.75632000  0.34345200  0.68275000  1
  O  O18  1  0.75287900  0.14727300  0.32657200  1
  O  O19  1  0.91249600  0.57937400  0.41307600  1
  O  O20  1  0.89486900  0.81314700  0.36171800  1
  O  O21  1  0.85860200  0.50649100  0.09404400  1
  O  O22  1  0.87412100  0.28548200  0.16253200  1
  O  O23  1  0.98176800  0.91265700  0.13924600  1
loop_
_geom_bond_atom_site_label_1
_geom_bond_atom_site_label_2
_geom_bond_distance
_geom_bond_site_symmetry_2
Li0 O20 1.967526 1_445
Li0 O18 1.996424 1_455
Li0 O9 2.026454 1_555
Li0 O3 2.082496 1_555
Li1 O10 1.906681 1_555
Li1 O13 2.035085 1_555
Li1 O6 2.038826 1_555
Li1 O19 2.051523 1_555
Li2 O3 1.915869 1_655
Li2 O0 2.011178 1_655
Li2 O5 2.023778 1_645
Li2 O14 2.057770 1_545
Li3 O23 2.023774 1_555
Li3 O15 2.030619 1_555
Li3 O21 2.088510 1_555
Li3 O20 2.259369 1_555
Li3 O7 2.514354 1_554
Fe0 O10 1.972626 1_555
Fe0 O19 2.098787 1_455
Fe0 O4 2.101699 1_555
Fe0 O18 2.184921 1_455
Fe0 O22 2.227833 1_455
Fe1 O0 1.908615 1_565
Fe1 O1 1.940403 1_555
Fe1 O11 1.961153 1_565
Fe1 O5 2.052133 1_555
Fe1 O12 2.105400 1_556
Fe2 O3 1.991585 1_555
Fe2 O17 2.051916 1_555
Fe2 O14 2.081683 1_545
Fe2 O9 2.208819 1_555
Fe2 O8 2.294266 1_555
Fe3 O16 1.842996 1_555
Fe3 O21 1.953479 1_455
Fe3 O15 1.990084 1_555
Fe3 O6 2.072897 1_555
Fe3 O2 2.079415 1_554
Fe4 O7 1.878146 1_555
Fe4 O8 1.937697 1_555
Fe4 O2 1.952963 1_655
Fe4 O17 1.958014 1_555
Fe4 O21 2.264141 1_556
Fe5 O20 1.999721 1_555
Fe5 O9 2.076704 1_565
Fe5 O6 2.122289 1_555
Fe5 O14 2.131046 1_555
Fe5 O15 2.276036 1_555
Fe6 O13 1.984578 1_555
Fe6 O4 2.040109 1_655
Fe6 O1 2.178362 1_655
Fe6 O5 2.189410 1_655
Fe6 O19 2.236997 1_555
Fe7 O22 1.943560 1_555
Fe7 O23 1.961926 1_545
Fe7 O12 1.987267 1_545
Fe7 O18 2.028442 1_555
Fe7 O11 2.037510 1_554
B0 O19 1.369637 1_455
B0 O20 1.380622 1_455
B0 O6 1.420159 1_555
B1 O7 1.359198 1_555
B1 O1 1.382843 1_555
B1 O2 1.407707 1_555
B2 O13 1.353240 1_555
B2 O14 1.400497 1_555
B2 O5 1.421359 1_555
B3 O23 1.369794 1_455
B3 O15 1.395026 1_555
B3 O12 1.399017 1_555
B4 O10 1.352264 1_555
B4 O9 1.390056 1_555
B4 O18 1.429165 1_555
B5 O0 1.363882 1_655
B5 O8 1.374643 1_555
B5 O11 1.408794 1_555
B6 O4 1.360473 1_655
B6 O3 1.391737 1_655
B6 O17 1.411166 1_555
B7 O16 1.355237 1_555
B7 O22 1.382563 1_555
B7 O21 1.413726 1_555
