# generated using pymatgen
data_Lu2WO6
_symmetry_space_group_name_H-M   'P 1'
_cell_length_a   5.10277320
_cell_length_b   8.88837963
_cell_length_c   9.70610128
_cell_angle_alpha   90.00000000
_cell_angle_beta   90.00000000
_cell_angle_gamma   90.00000000
_symmetry_Int_Tables_number   1
_chemical_formula_structural   Lu2WO6
_chemical_formula_sum   'Lu8 W4 O24'
_cell_volume   440.22396397
_cell_formula_units_Z   4
loop_
 _symmetry_equiv_pos_site_id
 _symmetry_equiv_pos_as_xyz
  1  'x, y, z'
loop_
 _atom_site_type_symbol
 _atom_site_label
 _atom_site_symmetry_multiplicity
 _atom_site_fract_x
 _atom_site_fract_y
 _atom_site_fract_z
 _atom_site_occupancy
  Lu  Lu0  1  0.01302930  0.39580235  0.03318542  1
  Lu  Lu1  1  0.04103747  0.28104846  0.62662768  1
  Lu  Lu2  1  0.45896253  0.71895154  0.12662768  1
  Lu  Lu3  1  0.48697070  0.60419765  0.53318542  1
  Lu  Lu4  1  0.51302930  0.10419765  0.96681458  1
  Lu  Lu5  1  0.54103747  0.21895154  0.37337232  1
  Lu  Lu6  1  0.95896253  0.78104846  0.87337232  1
  Lu  Lu7  1  0.98697070  0.89580235  0.46681458  1
  W  W0  1  0.03649943  0.00495454  0.15475675  1
  W  W1  1  0.46350057  0.99504546  0.65475675  1
  W  W2  1  0.53649943  0.49504546  0.84524325  1
  W  W3  1  0.96350057  0.50495454  0.34524325  1
  O  O0  1  0.09470204  0.65917191  0.46768670  1
  O  O1  1  0.17950384  0.54429987  0.19588179  1
  O  O2  1  0.17577574  0.86081070  0.68182548  1
  O  O3  1  0.19934802  0.85732091  0.26564066  1
  O  O4  1  0.23749979  0.38287048  0.43030719  1
  O  O5  1  0.25410746  0.08888658  0.50280106  1
  O  O6  1  0.24589254  0.91111342  0.00280106  1
  O  O7  1  0.26250021  0.61712952  0.93030719  1
  O  O8  1  0.30065198  0.14267909  0.76564066  1
  O  O9  1  0.32422426  0.13918930  0.18182548  1
  O  O10  1  0.32049616  0.45570013  0.69588179  1
  O  O11  1  0.40529796  0.34082809  0.96768670  1
  O  O12  1  0.59470204  0.84082809  0.53231330  1
  O  O13  1  0.67950384  0.95570013  0.80411821  1
  O  O14  1  0.67577574  0.63918930  0.31817452  1
  O  O15  1  0.69934802  0.64267909  0.73435934  1
  O  O16  1  0.73749979  0.11712952  0.56969281  1
  O  O17  1  0.75410746  0.41111342  0.49719894  1
  O  O18  1  0.74589254  0.58888658  0.99719894  1
  O  O19  1  0.76250021  0.88287048  0.06969281  1
  O  O20  1  0.80065198  0.35732091  0.23435934  1
  O  O21  1  0.82422426  0.36081070  0.81817452  1
  O  O22  1  0.82049616  0.04429987  0.30411821  1
  O  O23  1  0.90529796  0.15917191  0.03231330  1
loop_
_geom_bond_atom_site_label_1
_geom_bond_atom_site_label_2
_geom_bond_distance
_geom_bond_site_symmetry_2
Lu0 O11 2.156283 1_554
Lu0 O23 2.173932 1_455
Lu0 O18 2.219349 1_454
Lu0 O1 2.226537 1_555
Lu0 O20 2.259232 1_455
Lu0 O21 2.319516 1_454
Lu0 O7 2.547085 1_554
Lu1 O16 2.197089 1_455
Lu1 O10 2.212511 1_555
Lu1 O17 2.249078 1_455
Lu1 O8 2.255686 1_555
Lu1 O21 2.276654 1_455
Lu1 O4 2.335605 1_555
Lu1 O5 2.354549 1_555
Lu2 O19 2.197089 1_555
Lu2 O1 2.212511 1_555
Lu2 O18 2.249078 1_554
Lu2 O3 2.255686 1_555
Lu2 O14 2.276654 1_555
Lu2 O7 2.335605 1_554
Lu2 O6 2.354549 1_555
Lu3 O0 2.156283 1_555
Lu3 O12 2.173932 1_555
Lu3 O17 2.219349 1_555
Lu3 O10 2.226537 1_555
Lu3 O15 2.259232 1_555
Lu3 O14 2.319516 1_555
Lu3 O4 2.547085 1_555
Lu4 O23 2.156283 1_556
Lu4 O11 2.173932 1_555
Lu4 O6 2.219349 1_546
Lu4 O13 2.226537 1_545
Lu4 O8 2.259232 1_555
Lu4 O9 2.319516 1_556
Lu4 O19 2.547085 1_546
Lu5 O4 2.197089 1_555
Lu5 O22 2.212511 1_555
Lu5 O5 2.249078 1_555
Lu5 O20 2.255686 1_555
Lu5 O9 2.276654 1_555
Lu5 O16 2.335605 1_555
Lu5 O17 2.354549 1_555
Lu6 O7 2.197089 1_655
Lu6 O13 2.212511 1_555
Lu6 O6 2.249078 1_656
Lu6 O15 2.255686 1_555
Lu6 O2 2.276654 1_655
Lu6 O19 2.335605 1_556
Lu6 O18 2.354549 1_555
Lu7 O12 2.156283 1_555
Lu7 O0 2.173932 1_655
Lu7 O5 2.219349 1_665
Lu7 O22 2.226537 1_565
Lu7 O3 2.259232 1_655
Lu7 O2 2.319516 1_655
Lu7 O16 2.547085 1_565
O0 W3 1.933795 1_455
O1 W3 1.854417 1_455
O2 W1 1.910021 1_555
O3 W0 1.889649 1_565
O4 W3 1.952953 1_455
O5 W1 2.003172 1_545
O6 W0 2.003172 1_565
O7 W2 1.952953 1_555
O8 W1 1.889649 1_545
O9 W0 1.910021 1_555
O10 W2 1.854417 1_555
O11 W2 1.933795 1_555
O12 W1 1.933795 1_555
O13 W1 1.854417 1_555
O14 W3 1.910021 1_555
O15 W2 1.889649 1_555
O16 W1 1.952953 1_545
O17 W3 2.003172 1_555
O18 W2 2.003172 1_555
O19 W0 1.952953 1_665
O20 W3 1.889649 1_555
O21 W2 1.910021 1_555
O22 W0 1.854417 1_655
O23 W0 1.933795 1_655
