# generated using pymatgen
data_Li3Cu3TeO8
_symmetry_space_group_name_H-M   'P 1'
_cell_length_a   6.03290334
_cell_length_b   6.03290334
_cell_length_c   6.03290358
_cell_angle_alpha   60.33517752
_cell_angle_beta   60.33517752
_cell_angle_gamma   60.33518384
_symmetry_Int_Tables_number   1
_chemical_formula_structural   Li3Cu3TeO8
_chemical_formula_sum   'Li3 Cu3 Te1 O8'
_cell_volume   156.43899247
_cell_formula_units_Z   1
loop_
 _symmetry_equiv_pos_site_id
 _symmetry_equiv_pos_as_xyz
  1  'x, y, z'
loop_
 _atom_site_type_symbol
 _atom_site_label
 _atom_site_symmetry_multiplicity
 _atom_site_fract_x
 _atom_site_fract_y
 _atom_site_fract_z
 _atom_site_occupancy
  Li  Li0  1  0.50000000  0.00000000  0.00000000  1
  Li  Li1  1  0.00000000  0.00000000  0.50000000  1
  Li  Li2  1  0.00000000  0.50000000  0.00000000  1
  Cu  Cu0  1  0.00000000  0.50000000  0.50000000  1
  Cu  Cu1  1  0.50000000  0.50000000  0.00000000  1
  Cu  Cu2  1  0.50000000  0.00000000  0.50000000  1
  Te  Te0  1  0.00000000  0.00000000  0.00000000  1
  O  O0  1  0.73166000  0.73166000  0.73166000  1
  O  O1  1  0.77624100  0.22789100  0.22789100  1
  O  O2  1  0.22789100  0.22789100  0.77624100  1
  O  O3  1  0.26834000  0.26834000  0.26834000  1
  O  O4  1  0.22789100  0.77624100  0.22789100  1
  O  O5  1  0.22375900  0.77210900  0.77210900  1
  O  O6  1  0.77210900  0.77210900  0.22375900  1
  O  O7  1  0.77210900  0.22375900  0.77210900  1
loop_
_geom_bond_atom_site_label_1
_geom_bond_atom_site_label_2
_geom_bond_distance
_geom_bond_site_symmetry_2
Li0 O7 2.128321 1_554
Li0 O4 2.128321 1_545
Li0 O6 2.128321 1_545
Li0 O2 2.128321 1_554
Li0 O0 2.304294 1_544
Li0 O3 2.304294 1_555
Li1 O5 2.128321 1_545
Li1 O7 2.128321 1_455
Li1 O4 2.128321 1_545
Li1 O1 2.128321 1_455
Li1 O0 2.304294 1_445
Li1 O3 2.304294 1_555
Li2 O5 2.128321 1_554
Li2 O1 2.128321 1_455
Li2 O6 2.128321 1_455
Li2 O2 2.128321 1_554
Li2 O0 2.304294 1_454
Li2 O3 2.304294 1_555
Cu0 O3 1.995381 1_555
Cu0 O0 1.995381 1_455
Cu0 O4 2.165250 1_555
Cu0 O7 2.165250 1_455
Cu0 O2 2.165250 1_555
Cu0 O6 2.165250 1_455
Cu1 O3 1.995380 1_555
Cu1 O0 1.995380 1_554
Cu1 O4 2.165250 1_555
Cu1 O1 2.165250 1_555
Cu1 O7 2.165250 1_554
Cu1 O5 2.165250 1_554
Cu2 O3 1.995381 1_555
Cu2 O0 1.995381 1_545
Cu2 O1 2.165250 1_555
Cu2 O5 2.165250 1_545
Cu2 O2 2.165250 1_555
Cu2 O6 2.165250 1_545
O1 Te0 1.949232 1_655
O2 Te0 1.949232 1_556
O4 Te0 1.949232 1_565
O5 Te0 1.949232 1_566
O6 Te0 1.949232 1_665
O7 Te0 1.949232 1_656
