# generated using pymatgen
data_Ti3Mn2Nb(PO4)6
_symmetry_space_group_name_H-M   'P 1'
_cell_length_a   8.69164530
_cell_length_b   8.69164636
_cell_length_c   8.69164557
_cell_angle_alpha   60.58613488
_cell_angle_beta   60.58613399
_cell_angle_gamma   60.58613540
_symmetry_Int_Tables_number   1
_chemical_formula_structural   Ti3Mn2Nb(PO4)6
_chemical_formula_sum   'Ti3 Mn2 Nb1 P6 O24'
_cell_volume   470.43865179
_cell_formula_units_Z   1
loop_
 _symmetry_equiv_pos_site_id
 _symmetry_equiv_pos_as_xyz
  1  'x, y, z'
loop_
 _atom_site_type_symbol
 _atom_site_label
 _atom_site_symmetry_multiplicity
 _atom_site_fract_x
 _atom_site_fract_y
 _atom_site_fract_z
 _atom_site_occupancy
  Ti  Ti0  1  0.14541000  0.14541000  0.14541000  1
  Ti  Ti1  1  0.35521100  0.35521100  0.35521100  1
  Ti  Ti2  1  0.64515300  0.64515300  0.64515300  1
  Mn  Mn0  1  0.00096000  0.00096000  0.00096000  1
  Mn  Mn1  1  0.49927000  0.49927000  0.49927000  1
  Nb  Nb0  1  0.85672300  0.85672300  0.85672300  1
  P  P0  1  0.04510800  0.74906300  0.45207500  1
  P  P1  1  0.45207500  0.04510800  0.74906300  1
  P  P2  1  0.25566800  0.53839200  0.95700000  1
  P  P3  1  0.53839200  0.95700000  0.25566800  1
  P  P4  1  0.95700000  0.25566800  0.53839200  1
  P  P5  1  0.74906300  0.45207500  0.04510800  1
  O  O0  1  0.11551900  0.31403000  0.50040100  1
  O  O1  1  0.31403000  0.50040100  0.11551900  1
  O  O2  1  0.06023500  0.91185600  0.26228900  1
  O  O3  1  0.50040100  0.11551900  0.31403000  1
  O  O4  1  0.00733100  0.81176600  0.61023800  1
  O  O5  1  0.23623300  0.58820300  0.43918400  1
  O  O6  1  0.26228900  0.06023500  0.91185600  1
  O  O7  1  0.43918400  0.23623300  0.58820300  1
  O  O8  1  0.19018800  0.38330300  0.99672300  1
  O  O9  1  0.58820300  0.43918400  0.23623300  1
  O  O10  1  0.09327500  0.73215700  0.94144300  1
  O  O11  1  0.38330300  0.99672300  0.19018800  1
  O  O12  1  0.61023800  0.00733100  0.81176600  1
  O  O13  1  0.91185600  0.26228900  0.06023500  1
  O  O14  1  0.41420900  0.55700200  0.76404400  1
  O  O15  1  0.81176600  0.61023800  0.00733100  1
  O  O16  1  0.55700200  0.76404400  0.41420900  1
  O  O17  1  0.73215700  0.94144300  0.09327500  1
  O  O18  1  0.76404400  0.41420900  0.55700200  1
  O  O19  1  0.99672300  0.19018800  0.38330300  1
  O  O20  1  0.49618100  0.88506700  0.68908500  1
  O  O21  1  0.94144300  0.09327500  0.73215700  1
  O  O22  1  0.68908500  0.49618100  0.88506700  1
  O  O23  1  0.88506700  0.68908500  0.49618100  1
loop_
_geom_bond_atom_site_label_1
_geom_bond_atom_site_label_2
_geom_bond_distance
_geom_bond_site_symmetry_2
Mn0 O6 2.248122 1_554
Mn0 O2 2.248122 1_545
Mn0 O13 2.248122 1_455
Mn0 O17 2.303912 1_445
Mn0 O21 2.303912 1_454
Mn0 O10 2.303912 1_544
Mn1 O5 2.266607 1_555
Mn1 O9 2.266607 1_555
Mn1 O7 2.266608 1_555
Mn1 O18 2.278848 1_555
Mn1 O14 2.278848 1_555
Mn1 O16 2.278848 1_555
Nb0 O12 2.005296 1_565
Nb0 O4 2.005296 1_655
Nb0 O15 2.005297 1_556
Nb0 O10 2.111679 1_655
Nb0 O17 2.111680 1_556
Nb0 O21 2.111680 1_565
O0 P4 1.529623 1_455
O0 Ti1 1.940951 1_555
O1 P2 1.529623 1_554
O1 Ti1 1.940951 1_555
O2 P0 1.554839 1_555
O2 Ti0 2.100641 1_565
O3 P3 1.529623 1_545
O3 Ti1 1.940951 1_555
O4 P0 1.552864 1_555
O5 P0 1.554558 1_555
O5 Ti1 2.087229 1_555
O6 P1 1.554839 1_555
O6 Ti0 2.100641 1_556
O7 P1 1.554558 1_555
O7 Ti1 2.087229 1_555
O8 P2 1.537388 1_555
O8 Ti0 1.941303 1_556
O9 P5 1.554557 1_555
O9 Ti1 2.087229 1_555
O10 P2 1.573454 1_555
O11 P3 1.537388 1_555
O11 Ti0 1.941303 1_565
O12 P1 1.552864 1_555
O13 P5 1.554840 1_555
O13 Ti0 2.100641 1_655
O14 P2 1.555701 1_555
O14 Ti2 2.092749 1_555
O15 P5 1.552864 1_555
O16 P3 1.555701 1_555
O16 Ti2 2.092749 1_555
O17 P3 1.573454 1_555
O18 P4 1.555701 1_555
O18 Ti2 2.092750 1_555
O19 P4 1.537388 1_555
O19 Ti0 1.941303 1_655
O20 P1 1.531617 1_565
O20 Ti2 1.953211 1_555
O21 P4 1.573454 1_555
O22 P5 1.531617 1_556
O22 Ti2 1.953211 1_555
O23 P0 1.531617 1_655
O23 Ti2 1.953211 1_555
