# generated using pymatgen
data_Li3MnV(PO4)3
_symmetry_space_group_name_H-M   'P 1'
_cell_length_a   8.65192489
_cell_length_b   8.65192489
_cell_length_c   6.33491501
_cell_angle_alpha   74.10233169
_cell_angle_beta   74.10233169
_cell_angle_gamma   95.19333876
_symmetry_Int_Tables_number   1
_chemical_formula_structural   Li3MnV(PO4)3
_chemical_formula_sum   'Li6 Mn2 V2 P6 O24'
_cell_volume   431.54205073
_cell_formula_units_Z   2
loop_
 _symmetry_equiv_pos_site_id
 _symmetry_equiv_pos_as_xyz
  1  'x, y, z'
loop_
 _atom_site_type_symbol
 _atom_site_label
 _atom_site_symmetry_multiplicity
 _atom_site_fract_x
 _atom_site_fract_y
 _atom_site_fract_z
 _atom_site_occupancy
  Li  Li0  1  0.99831000  0.00169000  0.50000000  1
  Li  Li1  1  0.71066800  0.28933200  0.00000000  1
  Li  Li2  1  0.50052500  0.50201800  0.24702000  1
  Li  Li3  1  0.49798200  0.49947500  0.75298000  1
  Li  Li4  1  0.28896100  0.71103900  0.50000000  1
  Li  Li5  1  0.00391500  0.99608500  0.00000000  1
  Mn  Mn0  1  0.62530500  0.94229300  0.88006100  1
  Mn  Mn1  1  0.05770700  0.37469500  0.11993900  1
  V  V0  1  0.94300600  0.62229200  0.39158600  1
  V  V1  1  0.37770800  0.05699400  0.60841400  1
  P  P0  1  0.71299700  0.28700300  0.50000000  1
  P  P1  1  0.86564500  0.66531600  0.88609700  1
  P  P2  1  0.66082700  0.86140900  0.38554600  1
  P  P3  1  0.33468400  0.13435500  0.11390300  1
  P  P4  1  0.13859100  0.33917300  0.61445400  1
  P  P5  1  0.28611300  0.71388700  0.00000000  1
  O  O0  1  0.98963800  0.65565600  0.66099900  1
  O  O1  1  0.94763600  0.60990900  0.07976400  1
  O  O2  1  0.73688600  0.17194800  0.72189100  1
  O  O3  1  0.82805200  0.26311400  0.27810900  1
  O  O4  1  0.84257400  0.84195700  0.36210600  1
  O  O5  1  0.73656800  0.46101800  0.52277400  1
  O  O6  1  0.85453200  0.85033000  0.84396400  1
  O  O7  1  0.70433500  0.54869600  0.95476500  1
  O  O8  1  0.59927100  0.95229300  0.57291300  1
  O  O9  1  0.66353700  0.98502400  0.15312000  1
  O  O10  1  0.53898200  0.26343200  0.47722600  1
  O  O11  1  0.54260900  0.70154500  0.45741400  1
  O  O12  1  0.45130400  0.29566500  0.04523500  1
  O  O13  1  0.46302200  0.73851900  0.01742400  1
  O  O14  1  0.34434400  0.01036200  0.33900100  1
  O  O15  1  0.39009100  0.05236400  0.92023600  1
  O  O16  1  0.29845500  0.45739100  0.54258600  1
  O  O17  1  0.15804300  0.15742600  0.63789400  1
  O  O18  1  0.26148100  0.53697800  0.98257600  1
  O  O19  1  0.14967000  0.14546800  0.15603600  1
  O  O20  1  0.17401800  0.74067400  0.21911900  1
  O  O21  1  0.25932600  0.82598200  0.78088100  1
  O  O22  1  0.04770700  0.40072900  0.42708700  1
  O  O23  1  0.01497600  0.33646300  0.84688000  1
loop_
_geom_bond_atom_site_label_1
_geom_bond_atom_site_label_2
_geom_bond_distance
_geom_bond_site_symmetry_2
Li0 O6 2.160371 1_545
Li0 O19 2.160371 1_655
Li0 O17 2.336156 1_655
Li0 O4 2.336156 1_545
Li1 O12 2.190713 1_555
Li1 O7 2.190713 1_554
Li1 O3 2.233792 1_555
Li1 O2 2.233792 1_554
Li1 O9 2.495780 1_545
Li1 O23 2.495780 1_654
Li2 O7 2.091209 1_554
Li2 O16 2.097578 1_555
Li2 O13 2.270674 1_555
Li2 O10 2.288989 1_555
Li2 O11 2.510311 1_555
Li2 O12 2.532533 1_555
Li3 O12 2.091209 1_556
Li3 O11 2.097578 1_555
Li3 O18 2.270674 1_555
Li3 O5 2.288989 1_555
Li3 O16 2.510311 1_555
Li3 O7 2.532533 1_555
Li4 O16 2.148483 1_555
Li4 O11 2.148483 1_555
Li4 O21 2.233043 1_555
Li4 O20 2.233043 1_555
Li4 O0 2.457049 1_455
Li4 O14 2.457049 1_565
Li5 O17 2.285125 1_564
Li5 O4 2.285125 1_455
Li5 O19 2.307709 1_565
Li5 O6 2.307709 1_454
Mn0 O13 1.969505 1_556
Mn0 O9 1.969773 1_556
Mn0 O2 1.978908 1_565
Mn0 O8 1.998898 1_555
Mn0 O6 2.180723 1_555
Mn0 O15 2.305001 1_565
Mn1 O18 1.969505 1_554
Mn1 O23 1.969773 1_554
Mn1 O3 1.978908 1_455
Mn1 O22 1.998898 1_555
Mn1 O19 2.180723 1_555
Mn1 O1 2.305001 1_455
O0 P1 1.560355 1_555
O0 V0 1.945510 1_555
O1 P1 1.566643 1_554
O1 V0 1.997128 1_555
O2 P0 1.561844 1_555
O3 P0 1.561844 1_555
O4 P2 1.567383 1_555
O4 V0 2.143672 1_555
O5 P0 1.551986 1_555
O5 V0 1.981939 1_555
O6 P1 1.565462 1_555
O7 P1 1.525489 1_555
O8 P2 1.597377 1_555
O8 V1 2.176154 1_565
O9 P2 1.557625 1_555
O10 P0 1.551986 1_555
O10 V1 1.981939 1_555
O11 P2 1.519961 1_555
O12 P3 1.525489 1_555
O13 P5 1.564206 1_555
O14 P3 1.560355 1_555
O14 V1 1.945510 1_555
O15 P3 1.566643 1_556
O15 V1 1.997128 1_555
O16 P4 1.519961 1_555
O17 P4 1.567383 1_555
O17 V1 2.143672 1_555
O18 P5 1.564206 1_556
O19 P3 1.565462 1_555
O20 P5 1.549365 1_555
O20 V0 2.014340 1_455
O21 P5 1.549365 1_556
O21 V1 2.014340 1_565
O22 P4 1.597377 1_555
O22 V0 2.176154 1_455
O23 P4 1.557625 1_555
