# generated using pymatgen
data_Ba6Na2P2Ru2O17
_symmetry_space_group_name_H-M   'P 1'
_cell_length_a   5.86927230
_cell_length_b   5.86927230
_cell_length_c   29.62474800
_cell_angle_alpha   90.00000000
_cell_angle_beta   90.00000000
_cell_angle_gamma   120.00000338
_symmetry_Int_Tables_number   1
_chemical_formula_structural   Ba6Na2P2Ru2O17
_chemical_formula_sum   'Ba12 Na4 P4 Ru4 O34'
_cell_volume   883.79959673
_cell_formula_units_Z   2
loop_
 _symmetry_equiv_pos_site_id
 _symmetry_equiv_pos_as_xyz
  1  'x, y, z'
loop_
 _atom_site_type_symbol
 _atom_site_label
 _atom_site_symmetry_multiplicity
 _atom_site_fract_x
 _atom_site_fract_y
 _atom_site_fract_z
 _atom_site_occupancy
  Ba  Ba0  1  0.33333300  0.66666700  0.17767800  1
  Ba  Ba1  1  0.33333300  0.66666700  0.58986600  1
  Ba  Ba2  1  0.00000000  0.00000000  0.00000000  1
  Ba  Ba3  1  0.00000000  0.00000000  0.25000000  1
  Ba  Ba4  1  0.33333300  0.66666700  0.32232200  1
  Ba  Ba5  1  0.00000000  0.00000000  0.50000000  1
  Ba  Ba6  1  0.00000000  0.00000000  0.75000000  1
  Ba  Ba7  1  0.33333300  0.66666700  0.91013400  1
  Ba  Ba8  1  0.66666700  0.33333300  0.08986600  1
  Ba  Ba9  1  0.66666700  0.33333300  0.82232200  1
  Ba  Ba10  1  0.66666700  0.33333300  0.67767800  1
  Ba  Ba11  1  0.66666700  0.33333300  0.41013400  1
  Na  Na0  1  0.00000000  0.00000000  0.12195500  1
  Na  Na1  1  0.00000000  0.00000000  0.37804500  1
  Na  Na2  1  0.00000000  0.00000000  0.62195500  1
  Na  Na3  1  0.00000000  0.00000000  0.87804500  1
  P  P0  1  0.33333300  0.66666700  0.05351300  1
  P  P1  1  0.33333300  0.66666700  0.44648700  1
  P  P2  1  0.66666700  0.33333300  0.55351300  1
  P  P3  1  0.66666700  0.33333300  0.94648700  1
  Ru  Ru0  1  0.33333300  0.66666700  0.70303200  1
  Ru  Ru1  1  0.33333300  0.66666700  0.79696800  1
  Ru  Ru2  1  0.66666700  0.33333300  0.20303200  1
  Ru  Ru3  1  0.66666700  0.33333300  0.29696800  1
  O  O0  1  0.17577500  0.82422500  0.66836400  1
  O  O1  1  0.17577500  0.82422500  0.83163600  1
  O  O2  1  0.97415900  0.48708000  0.25000000  1
  O  O3  1  0.18875200  0.81124800  0.07223600  1
  O  O4  1  0.18875200  0.81124800  0.42776400  1
  O  O5  1  0.51292000  0.02584100  0.25000000  1
  O  O6  1  0.18875200  0.37750400  0.07223600  1
  O  O7  1  0.17577500  0.35155000  0.66836400  1
  O  O8  1  0.33333300  0.66666700  0.49863800  1
  O  O9  1  0.33333300  0.66666700  0.00136200  1
  O  O10  1  0.18875200  0.37750400  0.42776400  1
  O  O11  1  0.17577500  0.35155000  0.83163600  1
  O  O12  1  0.62249600  0.81124800  0.07223600  1
  O  O13  1  0.62249600  0.81124800  0.42776400  1
  O  O14  1  0.35155000  0.17577500  0.16836400  1
  O  O15  1  0.35155000  0.17577500  0.33163600  1
  O  O16  1  0.51292000  0.48708000  0.25000000  1
  O  O17  1  0.48708000  0.51292000  0.75000000  1
  O  O18  1  0.64845000  0.82422500  0.66836400  1
  O  O19  1  0.64845000  0.82422500  0.83163600  1
  O  O20  1  0.37750400  0.18875200  0.57223600  1
  O  O21  1  0.37750400  0.18875200  0.92776400  1
  O  O22  1  0.48708000  0.97415900  0.75000000  1
  O  O23  1  0.66666700  0.33333300  0.50136200  1
  O  O24  1  0.66666700  0.33333300  0.99863800  1
  O  O25  1  0.82422500  0.64845000  0.16836400  1
  O  O26  1  0.82422500  0.64845000  0.33163600  1
  O  O27  1  0.81124800  0.62249600  0.57223600  1
  O  O28  1  0.81124800  0.62249600  0.92776400  1
  O  O29  1  0.81124800  0.18875200  0.57223600  1
  O  O30  1  0.81124800  0.18875200  0.92776400  1
  O  O31  1  0.02584100  0.51292000  0.75000000  1
  O  O32  1  0.82422500  0.17577500  0.16836400  1
  O  O33  1  0.82422500  0.17577500  0.33163600  1
loop_
_geom_bond_atom_site_label_1
_geom_bond_atom_site_label_2
_geom_bond_distance
_geom_bond_site_symmetry_2
Ba0 O2 2.814859 1_455
Ba0 O5 2.814859 1_565
Ba0 O16 2.814859 1_555
Ba0 O14 2.949030 1_565
Ba0 O25 2.949030 1_455
Ba0 O32 2.949033 1_455
Ba0 O32 2.949033 1_565
Ba0 O25 2.949036 1_555
Ba0 O14 2.949036 1_555
Ba1 O8 2.702607 1_555
Ba1 O0 2.823715 1_555
Ba1 O7 2.823718 1_555
Ba1 O18 2.823718 1_555
Ba1 O27 2.989191 1_455
Ba1 O20 2.989191 1_565
Ba1 O29 2.989193 1_455
Ba1 O29 2.989193 1_565
Ba1 O20 2.989197 1_555
Ba1 O27 2.989197 1_555
Ba2 O6 2.874264 1_555
Ba2 O12 2.874264 1_445
Ba2 O21 2.874264 1_554
Ba2 O28 2.874264 1_444
Ba2 O3 2.874264 1_545
Ba2 O30 2.874264 1_454
Ba3 O5 2.937571 1_555
Ba3 O2 2.937571 1_445
Ba3 O16 2.937574 1_445
Ba3 O16 2.937574 1_555
Ba3 O5 2.937577 1_455
Ba3 O2 2.937577 1_455
Ba3 O26 3.006978 1_445
Ba3 O15 3.006978 1_555
Ba3 O25 3.006978 1_445
Ba3 O14 3.006978 1_555
Ba3 O33 3.006978 1_455
Ba3 O32 3.006978 1_455
Ba4 O2 2.814859 1_455
Ba4 O5 2.814859 1_565
Ba4 O16 2.814859 1_555
Ba4 O15 2.949030 1_565
Ba4 O26 2.949030 1_455
Ba4 O33 2.949033 1_565
Ba4 O33 2.949033 1_455
Ba4 O26 2.949036 1_555
Ba4 O15 2.949036 1_555
Ba5 O20 2.874264 1_555
Ba5 O10 2.874264 1_555
Ba5 O27 2.874264 1_445
Ba5 O13 2.874264 1_445
Ba5 O29 2.874264 1_455
Ba5 O4 2.874264 1_545
Ba6 O22 2.937571 1_445
Ba6 O31 2.937571 1_555
Ba6 O17 2.937574 1_555
Ba6 O17 2.937574 1_445
Ba6 O31 2.937577 1_545
Ba6 O22 2.937577 1_545
Ba6 O19 3.006978 1_445
Ba6 O11 3.006978 1_555
Ba6 O18 3.006978 1_445
Ba6 O7 3.006978 1_555
Ba6 O1 3.006978 1_545
Ba6 O0 3.006978 1_545
Ba7 O9 2.702607 1_556
Ba7 O1 2.823715 1_555
Ba7 O11 2.823718 1_555
Ba7 O19 2.823718 1_555
Ba7 O28 2.989191 1_455
Ba7 O21 2.989191 1_565
Ba7 O30 2.989193 1_565
Ba7 O30 2.989193 1_455
Ba7 O21 2.989197 1_555
Ba7 O28 2.989197 1_555
Ba8 O24 2.702607 1_554
Ba8 O32 2.823715 1_555
Ba8 O25 2.823718 1_555
Ba8 O14 2.823718 1_555
Ba8 O12 2.989191 1_545
Ba8 O6 2.989191 1_655
Ba8 O3 2.989193 1_545
Ba8 O3 2.989193 1_655
Ba8 O6 2.989197 1_555
Ba8 O12 2.989197 1_555
Ba9 O22 2.814859 1_545
Ba9 O31 2.814859 1_655
Ba9 O17 2.814859 1_555
Ba9 O11 2.949030 1_655
Ba9 O19 2.949030 1_545
Ba9 O1 2.949033 1_545
Ba9 O1 2.949033 1_655
Ba9 O19 2.949036 1_555
Ba9 O11 2.949036 1_555
Ba10 O22 2.814859 1_545
Ba10 O31 2.814859 1_655
Ba10 O17 2.814859 1_555
Ba10 O7 2.949030 1_655
Ba10 O18 2.949030 1_545
Ba10 O0 2.949033 1_545
Ba10 O0 2.949033 1_655
Ba10 O18 2.949036 1_555
Ba10 O7 2.949036 1_555
Ba11 O23 2.702607 1_555
Ba11 O33 2.823715 1_555
Ba11 O15 2.823718 1_555
Ba11 O26 2.823718 1_555
Ba11 O13 2.989191 1_545
Ba11 O10 2.989191 1_655
Ba11 O4 2.989193 1_545
Ba11 O4 2.989193 1_655
Ba11 O10 2.989197 1_555
Ba11 O13 2.989197 1_555
Na0 O25 2.254609 1_445
Na0 O14 2.254609 1_555
Na0 O32 2.254609 1_455
Na0 O6 2.418963 1_555
Na0 O12 2.418963 1_445
Na0 O3 2.418963 1_545
Na1 O26 2.254609 1_445
Na1 O15 2.254609 1_555
Na1 O33 2.254609 1_455
Na1 O10 2.418963 1_555
Na1 O13 2.418963 1_445
Na1 O4 2.418963 1_545
Na2 O18 2.254609 1_445
Na2 O7 2.254609 1_555
Na2 O0 2.254609 1_545
Na2 O20 2.418963 1_555
Na2 O27 2.418963 1_445
Na2 O29 2.418963 1_455
Na3 O19 2.254609 1_445
Na3 O11 2.254609 1_555
Na3 O1 2.254609 1_545
Na3 O21 2.418963 1_555
Na3 O28 2.418963 1_445
Na3 O30 2.418963 1_455
O0 Ru0 1.902705 1_555
O1 Ru1 1.902705 1_555
O2 Ru2 2.092580 1_555
O2 Ru3 2.092580 1_555
O3 P0 1.570969 1_555
O4 P1 1.570969 1_555
O5 Ru2 2.092580 1_555
O5 Ru3 2.092580 1_555
O6 P0 1.570974 1_555
O7 Ru0 1.902709 1_555
O8 P1 1.544960 1_555
O9 P0 1.544960 1_555
O10 P1 1.570974 1_555
O11 Ru1 1.902709 1_555
O12 P0 1.570974 1_555
O13 P1 1.570974 1_555
O14 Ru2 1.902709 1_555
O15 Ru3 1.902709 1_555
O16 Ru2 2.092587 1_555
O16 Ru3 2.092587 1_555
O17 Ru1 2.092587 1_555
O17 Ru0 2.092587 1_555
O18 Ru0 1.902709 1_555
O19 Ru1 1.902709 1_555
O20 P2 1.570974 1_555
O21 P3 1.570974 1_555
O22 Ru1 2.092580 1_555
O22 Ru0 2.092580 1_555
O23 P2 1.544960 1_555
O24 P3 1.544960 1_555
O25 Ru2 1.902709 1_555
O26 Ru3 1.902709 1_555
O27 P2 1.570974 1_555
O28 P3 1.570974 1_555
O29 P2 1.570969 1_555
O30 P3 1.570969 1_555
O31 Ru0 2.092580 1_555
O31 Ru1 2.092580 1_555
O32 Ru2 1.902705 1_555
O33 Ru3 1.902705 1_555
