# generated using pymatgen
data_Ba8Bi4O17
_symmetry_space_group_name_H-M   'P 1'
_cell_length_a   11.06123529
_cell_length_b   11.06123529
_cell_length_c   6.39804776
_cell_angle_alpha   73.81317689
_cell_angle_beta   73.81317689
_cell_angle_gamma   47.79744574
_symmetry_Int_Tables_number   1
_chemical_formula_structural   Ba8Bi4O17
_chemical_formula_sum   'Ba8 Bi4 O17'
_cell_volume   552.26977993
_cell_formula_units_Z   1
loop_
 _symmetry_equiv_pos_site_id
 _symmetry_equiv_pos_as_xyz
  1  'x, y, z'
loop_
 _atom_site_type_symbol
 _atom_site_label
 _atom_site_symmetry_multiplicity
 _atom_site_fract_x
 _atom_site_fract_y
 _atom_site_fract_z
 _atom_site_occupancy
  Ba  Ba0  1  0.96104700  0.41655800  0.82872700  1
  Ba  Ba1  1  0.75896300  0.23680600  0.54149300  1
  Ba  Ba2  1  0.41655800  0.96104700  0.82872700  1
  Ba  Ba3  1  0.58741000  0.11867600  0.16875600  1
  Ba  Ba4  1  0.52453600  0.52453600  0.01312000  1
  Ba  Ba5  1  0.16623800  0.16623800  0.34253600  1
  Ba  Ba6  1  0.23680600  0.75896300  0.54149300  1
  Ba  Ba7  1  0.11867600  0.58741000  0.16875600  1
  Bi  Bi0  1  0.83498700  0.83498700  0.67319100  1
  Bi  Bi1  1  0.66676500  0.66676500  0.31740100  1
  Bi  Bi2  1  0.34320800  0.34320800  0.67731100  1
  Bi  Bi3  1  0.99693500  0.99693500  0.01475200  1
  O  O0  1  0.85416500  0.41958800  0.26039900  1
  O  O1  1  0.72126500  0.72126500  0.96611000  1
  O  O2  1  0.57796000  0.57796000  0.59724600  1
  O  O3  1  0.74834100  0.74834100  0.45144700  1
  O  O4  1  0.91760300  0.91760300  0.34534500  1
  O  O5  1  0.90676800  0.90676800  0.86981400  1
  O  O6  1  0.75339600  0.22094600  0.00172200  1
  O  O7  1  0.41958800  0.85416500  0.26039900  1
  O  O8  1  0.57973900  0.09237100  0.68123200  1
  O  O9  1  0.06708000  0.06708000  0.69251800  1
  O  O10  1  0.42455300  0.42455300  0.37527800  1
  O  O11  1  0.25665400  0.25665400  0.97088700  1
  O  O12  1  0.26612100  0.26612100  0.50785500  1
  O  O13  1  0.07467200  0.07467200  0.15961200  1
  O  O14  1  0.41168200  0.41168200  0.87098700  1
  O  O15  1  0.09237100  0.57973900  0.68123200  1
  O  O16  1  0.22094600  0.75339600  0.00172200  1
loop_
_geom_bond_atom_site_label_1
_geom_bond_atom_site_label_2
_geom_bond_distance
_geom_bond_site_symmetry_2
Ba0 O0 2.684136 1_556
Ba0 O1 2.740240 1_555
Ba0 O11 2.763755 1_655
Ba0 O15 2.840281 1_655
Ba0 O12 2.978067 1_655
Ba0 O13 3.316136 1_656
Ba0 O3 3.384886 1_555
Ba0 O9 3.506490 1_655
Ba1 O0 2.865000 1_555
Ba1 O9 2.881340 1_655
Ba1 O6 2.886253 1_556
Ba1 O2 2.928747 1_555
Ba1 O8 3.122886 1_555
Ba1 O10 3.125313 1_555
Ba1 O5 3.167519 1_545
Ba1 O4 3.168481 1_545
Ba1 O13 3.263859 1_655
Ba1 O14 3.273760 1_555
Ba2 O7 2.684136 1_556
Ba2 O1 2.740240 1_555
Ba2 O11 2.763755 1_565
Ba2 O8 2.840281 1_565
Ba2 O12 2.978067 1_565
Ba2 O13 3.316136 1_566
Ba2 O3 3.384886 1_555
Ba2 O9 3.506490 1_565
Ba3 O6 2.610580 1_555
Ba3 O14 2.840814 1_554
Ba3 O5 3.039602 1_544
Ba3 O10 3.068425 1_555
Ba3 O4 3.090122 1_545
Ba3 O12 3.143843 1_555
Ba3 O8 3.191995 1_555
Ba3 O8 3.241609 1_554
Ba3 O3 3.329825 1_545
Ba3 O11 3.364586 1_554
Ba4 O16 2.510574 1_555
Ba4 O6 2.510574 1_555
Ba4 O2 2.548339 1_554
Ba4 O10 2.569226 1_555
Ba4 O14 2.702377 1_554
Ba5 O13 2.474146 1_555
Ba5 O9 2.509506 1_555
Ba5 O11 2.519237 1_554
Ba5 O12 2.550117 1_555
Ba5 O7 2.690537 1_545
Ba5 O0 2.690537 1_455
Ba6 O7 2.865000 1_555
Ba6 O9 2.881340 1_565
Ba6 O16 2.886253 1_556
Ba6 O2 2.928747 1_555
Ba6 O15 3.122886 1_555
Ba6 O10 3.125313 1_555
Ba6 O5 3.167519 1_455
Ba6 O4 3.168481 1_455
Ba6 O13 3.263859 1_565
Ba6 O14 3.273760 1_555
Ba7 O16 2.610580 1_555
Ba7 O14 2.840814 1_554
Ba7 O5 3.039602 1_454
Ba7 O10 3.068425 1_555
Ba7 O4 3.090122 1_455
Ba7 O12 3.143843 1_555
Ba7 O15 3.191995 1_555
Ba7 O15 3.241609 1_554
Ba7 O3 3.329825 1_455
Ba7 O11 3.364586 1_554
Bi0 O5 2.191838 1_555
Bi0 O4 2.248229 1_555
Bi0 O8 2.298001 1_565
Bi0 O15 2.298001 1_655
Bi0 O1 2.484765 1_555
Bi0 O3 2.569083 1_555
Bi1 O3 2.078641 1_555
Bi1 O0 2.103632 1_555
Bi1 O7 2.103632 1_555
Bi1 O2 2.114413 1_555
Bi1 O1 2.180785 1_554
Bi2 O14 2.121342 1_555
Bi2 O10 2.121863 1_555
Bi2 O11 2.141844 1_555
Bi2 O12 2.153425 1_555
Bi2 O15 2.188390 1_555
Bi2 O8 2.188390 1_555
Bi3 O13 2.054203 1_665
Bi3 O16 2.108477 1_655
Bi3 O6 2.108477 1_565
Bi3 O9 2.116500 1_664
Bi3 O4 2.231317 1_555
Bi3 O5 2.284096 1_554
