# generated using pymatgen
data_Li9Fe7(PO4)12
_symmetry_space_group_name_H-M   'P 1'
_cell_length_a   8.68159200
_cell_length_b   8.81746026
_cell_length_c   12.25038897
_cell_angle_alpha   90.11535780
_cell_angle_beta   90.10387751
_cell_angle_gamma   90.01395119
_symmetry_Int_Tables_number   1
_chemical_formula_structural   Li9Fe7(PO4)12
_chemical_formula_sum   'Li9 Fe7 P12 O48'
_cell_volume   937.75881296
_cell_formula_units_Z   1
loop_
 _symmetry_equiv_pos_site_id
 _symmetry_equiv_pos_as_xyz
  1  'x, y, z'
loop_
 _atom_site_type_symbol
 _atom_site_label
 _atom_site_symmetry_multiplicity
 _atom_site_fract_x
 _atom_site_fract_y
 _atom_site_fract_z
 _atom_site_occupancy
  Li  Li0  1  0.78277700  0.72226300  0.81811900  1
  Li  Li1  1  0.78342600  0.77872100  0.18150700  1
  Li  Li2  1  0.71681700  0.22135700  0.68240200  1
  Li  Li3  1  0.71560100  0.27883500  0.31856700  1
  Li  Li4  1  0.28334500  0.72142200  0.68068700  1
  Li  Li5  1  0.28123800  0.76869800  0.31833900  1
  Li  Li6  1  0.25169200  0.46210400  0.38356200  1
  Li  Li7  1  0.21564500  0.22191000  0.81920700  1
  Li  Li8  1  0.21716100  0.27923600  0.18631000  1
  Fe  Fe0  1  0.75048200  0.96190600  0.38642600  1
  Fe  Fe1  1  0.75206600  0.54128500  0.61330900  1
  Fe  Fe2  1  0.74897300  0.04085800  0.88706500  1
  Fe  Fe3  1  0.74896900  0.45880600  0.11203700  1
  Fe  Fe4  1  0.25099700  0.54067900  0.88623200  1
  Fe  Fe5  1  0.25101400  0.95885100  0.11405300  1
  Fe  Fe6  1  0.24945900  0.04028200  0.61321900  1
  P  P0  1  0.89431800  0.39314200  0.85280900  1
  P  P1  1  0.89465800  0.10761900  0.14758100  1
  P  P2  1  0.60756400  0.61059300  0.35356700  1
  P  P3  1  0.60599900  0.89294200  0.64621400  1
  P  P4  1  0.39485600  0.10046200  0.35184900  1
  P  P5  1  0.39386700  0.39240500  0.64934000  1
  P  P6  1  0.10493800  0.60841000  0.14362300  1
  P  P7  1  0.10625600  0.89296000  0.85299300  1
  P  P8  1  0.95933500  0.24781000  0.50181800  1
  P  P9  1  0.53961300  0.74999000  0.99956100  1
  P  P10  1  0.46023100  0.24976100  0.00058000  1
  P  P11  1  0.03654300  0.75255700  0.50154700  1
  O  O0  1  0.94094200  0.64616800  0.57272900  1
  O  O1  1  0.94128200  0.85978000  0.42844800  1
  O  O2  1  0.92772700  0.89557100  0.84435100  1
  O  O3  1  0.92647000  0.60510600  0.15367300  1
  O  O4  1  0.85242300  0.16063400  0.41927800  1
  O  O5  1  0.85186600  0.33697700  0.57959100  1
  O  O6  1  0.84370700  0.43449200  0.96902900  1
  O  O7  1  0.84362400  0.06539000  0.03162600  1
  O  O8  1  0.83758800  0.23259400  0.82013100  1
  O  O9  1  0.83741400  0.26789800  0.18026500  1
  O  O10  1  0.82554900  0.51354800  0.77390800  1
  O  O11  1  0.82558900  0.98610500  0.22763200  1
  O  O12  1  0.67423700  0.01298200  0.72552400  1
  O  O13  1  0.67694900  0.48984800  0.27447500  1
  O  O14  1  0.67037900  0.77120300  0.32161200  1
  O  O15  1  0.66139900  0.73221500  0.67918200  1
  O  O16  1  0.65676900  0.56734200  0.46990200  1
  O  O17  1  0.65666900  0.93497100  0.52917500  1
  O  O18  1  0.64753100  0.83738100  0.92060300  1
  O  O19  1  0.64726700  0.66276300  0.07928400  1
  O  O20  1  0.57503000  0.10046000  0.34464100  1
  O  O21  1  0.57218700  0.39597200  0.65670500  1
  O  O22  1  0.55622400  0.14284400  0.92922400  1
  O  O23  1  0.55654400  0.35703200  0.07150700  1
  O  O24  1  0.44383800  0.64238000  0.92845500  1
  O  O25  1  0.44352400  0.85720300  0.07045200  1
  O  O26  1  0.43239400  0.61093200  0.34319800  1
  O  O27  1  0.42770400  0.89553800  0.65460400  1
  O  O28  1  0.35219100  0.33711000  0.92118400  1
  O  O29  1  0.35248700  0.16281300  0.07990500  1
  O  O30  1  0.34321500  0.06302000  0.46872400  1
  O  O31  1  0.34286900  0.43588700  0.53307900  1
  O  O32  1  0.33839300  0.23181100  0.68068600  1
  O  O33  1  0.34106300  0.25978500  0.32007400  1
  O  O34  1  0.32486500  0.51250800  0.72806100  1
  O  O35  1  0.32749500  0.97771000  0.27416300  1
  O  O36  1  0.17416200  0.01336900  0.77407800  1
  O  O37  1  0.17275600  0.48720900  0.21968400  1
  O  O38  1  0.16267000  0.73283800  0.81946300  1
  O  O39  1  0.15992100  0.76837600  0.17743900  1
  O  O40  1  0.15361200  0.57052100  0.02640500  1
  O  O41  1  0.15734000  0.93495600  0.96898400  1
  O  O42  1  0.14269200  0.66743300  0.42135900  1
  O  O43  1  0.14481900  0.83914900  0.58125900  1
  O  O44  1  0.07281700  0.10466100  0.15636800  1
  O  O45  1  0.07244100  0.39537700  0.84350700  1
  O  O46  1  0.05549200  0.14116400  0.57286800  1
  O  O47  1  0.05803100  0.35310600  0.43098700  1
loop_
_geom_bond_atom_site_label_1
_geom_bond_atom_site_label_2
_geom_bond_distance
_geom_bond_site_symmetry_2
Li0 O10 1.953229 1_555
Li0 O18 1.996484 1_555
Li0 O15 2.002288 1_555
Li0 O2 2.004408 1_555
Li1 O11 1.947257 1_555
Li1 O14 1.979888 1_555
Li1 O19 1.999948 1_555
Li1 O3 2.000574 1_555
Li2 O12 1.948283 1_555
Li2 O8 1.987148 1_555
Li2 O5 2.002539 1_555
Li2 O21 2.011888 1_555
Li3 O13 1.967201 1_555
Li3 O9 2.001013 1_555
Li3 O4 2.004944 1_555
Li3 O20 2.016830 1_555
Li4 O34 1.965682 1_555
Li4 O38 2.000932 1_555
Li4 O43 2.001962 1_555
Li4 O27 2.008056 1_555
Li5 O26 1.936775 1_555
Li5 O42 1.961186 1_555
Li5 O35 1.963432 1_555
Li5 O39 2.020403 1_555
Li6 O31 2.007848 1_555
Li6 O47 2.023102 1_555
Li6 O33 2.094423 1_555
Li6 O42 2.094458 1_555
Li6 O26 2.105254 1_555
Li6 O37 2.132096 1_555
Li7 O36 1.952279 1_555
Li7 O45 1.993535 1_555
Li7 O28 1.996655 1_555
Li7 O32 2.007468 1_555
Li8 O37 1.917411 1_555
Li8 O33 1.966345 1_555
Li8 O44 2.017296 1_555
Li8 O29 2.033211 1_555
Fe0 O17 1.945387 1_555
Fe0 O1 1.954280 1_555
Fe0 O14 1.983328 1_555
Fe0 O4 2.002697 1_565
Fe0 O20 2.018738 1_565
Fe0 O11 2.064230 1_555
Fe1 O0 1.948132 1_555
Fe1 O16 1.954489 1_555
Fe1 O15 2.025460 1_555
Fe1 O5 2.041002 1_555
Fe1 O10 2.082047 1_555
Fe1 O21 2.089931 1_555
Fe2 O7 1.962472 1_556
Fe2 O22 1.969151 1_555
Fe2 O8 2.032153 1_555
Fe2 O18 2.041294 1_545
Fe2 O2 2.079528 1_545
Fe2 O12 2.095448 1_555
Fe3 O6 1.948177 1_554
Fe3 O23 1.958839 1_555
Fe3 O9 2.031188 1_555
Fe3 O19 2.043805 1_555
Fe3 O3 2.071818 1_555
Fe3 O13 2.104298 1_555
Fe4 O40 1.932944 1_556
Fe4 O24 1.966925 1_555
Fe4 O38 2.032689 1_555
Fe4 O28 2.044389 1_555
Fe4 O34 2.056724 1_555
Fe4 O45 2.076478 1_555
Fe5 O41 1.963972 1_554
Fe5 O25 1.970753 1_555
Fe5 O39 2.013937 1_555
Fe5 O29 2.046704 1_565
Fe5 O35 2.075947 1_555
Fe5 O44 2.077541 1_565
Fe6 O30 1.960258 1_555
Fe6 O46 1.967420 1_555
Fe6 O43 2.029514 1_545
Fe6 O32 2.030441 1_555
Fe6 O27 2.069114 1_545
Fe6 O36 2.091248 1_555
O0 P11 1.527999 1_655
O1 P11 1.542988 1_655
O2 P7 1.553515 1_655
O3 P6 1.554763 1_655
O4 P8 1.570951 1_555
O5 P8 1.548206 1_555
O6 P0 1.534042 1_555
O7 P1 1.532402 1_555
O8 P0 1.550315 1_555
O9 P1 1.550278 1_555
O10 P0 1.555697 1_555
O11 P1 1.573304 1_565
O12 P3 1.551998 1_545
O13 P2 1.559942 1_555
O14 P2 1.568058 1_555
O15 P3 1.550753 1_555
O16 P2 1.535913 1_555
O17 P3 1.546253 1_555
O18 P9 1.553414 1_555
O19 P9 1.555289 1_554
O20 P4 1.566847 1_555
O21 P5 1.550873 1_555
O22 P10 1.532020 1_556
O23 P10 1.530498 1_555
O24 P9 1.531047 1_555
O25 P9 1.530842 1_554
O26 P2 1.525825 1_555
O27 P3 1.551650 1_555
O28 P10 1.555327 1_556
O29 P10 1.553380 1_555
O30 P4 1.537563 1_555
O31 P5 1.539961 1_555
O32 P5 1.545015 1_555
O33 P4 1.531343 1_555
O34 P5 1.551977 1_555
O35 P4 1.553295 1_565
O36 P7 1.554104 1_545
O37 P6 1.535992 1_555
O38 P7 1.549417 1_555
O39 P6 1.544526 1_555
O40 P6 1.533790 1_555
O41 P7 1.532441 1_555
O42 P11 1.542154 1_555
O43 P11 1.553531 1_555
O44 P1 1.550480 1_455
O45 P0 1.550913 1_455
O46 P8 1.529627 1_455
O47 P8 1.534486 1_455
