# generated using pymatgen
data_Li4TiCrO6
_symmetry_space_group_name_H-M   'P 1'
_cell_length_a   5.07038000
_cell_length_b   8.78286222
_cell_length_c   9.80636223
_cell_angle_alpha   98.55692439
_cell_angle_beta   94.79276919
_cell_angle_gamma   90.17339725
_symmetry_Int_Tables_number   1
_chemical_formula_structural   Li4TiCrO6
_chemical_formula_sum   'Li16 Ti4 Cr4 O24'
_cell_volume   430.27727568
_cell_formula_units_Z   4
loop_
 _symmetry_equiv_pos_site_id
 _symmetry_equiv_pos_as_xyz
  1  'x, y, z'
loop_
 _atom_site_type_symbol
 _atom_site_label
 _atom_site_symmetry_multiplicity
 _atom_site_fract_x
 _atom_site_fract_y
 _atom_site_fract_z
 _atom_site_occupancy
  Li  Li0  1  0.99223500  0.16926300  0.49713500  1
  Li  Li1  1  0.87351100  0.37526400  0.75014200  1
  Li  Li2  1  0.75364300  0.25130300  0.00044500  1
  Li  Li3  1  0.74276700  0.92046500  0.00024500  1
  Li  Li4  1  0.75236600  0.57787600  0.99858500  1
  Li  Li5  1  0.62263600  0.12572300  0.25133100  1
  Li  Li6  1  0.50712200  0.33155300  0.49977300  1
  Li  Li7  1  0.49642500  0.00139000  0.49994800  1
  Li  Li8  1  0.48959600  0.66870400  0.50074300  1
  Li  Li9  1  0.37410900  0.87305000  0.74965600  1
  Li  Li10  1  0.25588200  0.74848800  0.00006000  1
  Li  Li11  1  0.23907000  0.41899600  0.00113500  1
  Li  Li12  1  0.25814800  0.08196300  0.00145500  1
  Li  Li13  1  0.12430100  0.62375900  0.24956300  1
  Li  Li14  1  0.00676100  0.82952900  0.49877700  1
  Li  Li15  1  0.00913900  0.49774400  0.49851000  1
  Ti  Ti0  1  0.87167900  0.70773100  0.74652800  1
  Ti  Ti1  1  0.88056600  0.04145600  0.74843800  1
  Ti  Ti2  1  0.62230800  0.46131900  0.24727900  1
  Ti  Ti3  1  0.38090200  0.21097400  0.75479400  1
  Cr  Cr0  1  0.62885500  0.79704800  0.25097500  1
  Cr  Cr1  1  0.37026800  0.54031600  0.75017800  1
  Cr  Cr2  1  0.12919600  0.95306200  0.25149400  1
  Cr  Cr3  1  0.12147000  0.28809000  0.24961500  1
  O  O0  1  0.96768300  0.10825300  0.14068000  1
  O  O1  1  0.93353300  0.79122400  0.13754400  1
  O  O2  1  0.92513600  0.42826700  0.13375000  1
  O  O3  1  0.81587000  0.96195400  0.36206800  1
  O  O4  1  0.82987200  0.32172500  0.36437700  1
  O  O5  1  0.78351400  0.64684800  0.36231500  1
  O  O6  1  0.71144400  0.85558700  0.63580600  1
  O  O7  1  0.67365600  0.53254200  0.63844000  1
  O  O8  1  0.67694900  0.17762700  0.63427300  1
  O  O9  1  0.46417800  0.60958700  0.13776600  1
  O  O10  1  0.56917900  0.71317300  0.86177100  1
  O  O11  1  0.57115100  0.07322200  0.86647500  1
  O  O12  1  0.43516900  0.92375300  0.13646400  1
  O  O13  1  0.42490400  0.28335000  0.13824500  1
  O  O14  1  0.54141600  0.39300300  0.86455900  1
  O  O15  1  0.31693900  0.82578400  0.36427200  1
  O  O16  1  0.31907600  0.46247100  0.36212700  1
  O  O17  1  0.28503500  0.13908100  0.36196500  1
  O  O18  1  0.21402500  0.36194100  0.63883500  1
  O  O19  1  0.17448000  0.67893400  0.63361900  1
  O  O20  1  0.17679600  0.03541300  0.63612100  1
  O  O21  1  0.08085100  0.57108600  0.86420100  1
  O  O22  1  0.07093300  0.21628200  0.86379500  1
  O  O23  1  0.03525400  0.89382500  0.86373300  1
loop_
_geom_bond_atom_site_label_1
_geom_bond_atom_site_label_2
_geom_bond_distance
_geom_bond_site_symmetry_2
Li0 O17 2.063494 1_655
Li0 O20 2.094200 1_655
Li0 O4 2.124150 1_555
Li0 O8 2.167971 1_555
Li0 O3 2.223455 1_545
Li0 O18 2.255407 1_655
Li1 O14 2.093755 1_555
Li1 O7 2.099556 1_555
Li1 O18 2.112855 1_655
Li1 O22 2.116367 1_655
Li1 O8 2.123864 1_555
Li1 O21 2.129401 1_655
Li2 O2 2.019382 1_555
Li2 O11 2.050625 1_554
Li2 O22 2.172343 1_654
Li2 O14 2.178182 1_554
Li2 O0 2.218218 1_555
Li2 O13 2.224781 1_555
Li3 O1 2.068980 1_555
Li3 O23 2.070463 1_654
Li3 O12 2.134160 1_555
Li3 O11 2.148966 1_564
Li3 O0 2.228809 1_565
Li3 O10 2.233419 1_554
Li4 O9 2.073208 1_556
Li4 O10 2.085103 1_555
Li4 O2 2.140583 1_556
Li4 O14 2.151140 1_555
Li4 O21 2.204138 1_655
Li4 O1 2.287446 1_556
Li5 O17 2.096335 1_555
Li5 O13 2.105005 1_555
Li5 O3 2.122173 1_545
Li5 O4 2.126725 1_555
Li5 O0 2.128632 1_555
Li5 O12 2.129609 1_545
Li6 O16 2.075243 1_555
Li6 O18 2.090973 1_555
Li6 O8 2.157930 1_555
Li6 O7 2.182434 1_555
Li6 O4 2.185910 1_555
Li6 O17 2.237475 1_555
Li7 O8 2.037652 1_555
Li7 O15 2.038550 1_545
Li7 O17 2.166709 1_555
Li7 O20 2.178252 1_555
Li7 O3 2.191253 1_545
Li7 O6 2.208355 1_545
Li8 O5 2.088720 1_555
Li8 O7 2.097896 1_555
Li8 O19 2.138392 1_555
Li8 O6 2.192386 1_555
Li8 O15 2.195835 1_555
Li8 O16 2.222066 1_555
Li9 O10 2.108285 1_555
Li9 O19 2.108506 1_555
Li9 O6 2.113114 1_555
Li9 O23 2.121090 1_555
Li9 O20 2.137514 1_565
Li9 O11 2.144789 1_565
Li10 O12 2.039792 1_555
Li10 O21 2.041219 1_554
Li10 O9 2.164945 1_555
Li10 O10 2.167136 1_554
Li10 O1 2.202565 1_455
Li10 O23 2.221394 1_554
Li11 O13 2.094460 1_555
Li11 O14 2.109555 1_554
Li11 O2 2.132312 1_455
Li11 O21 2.142739 1_554
Li11 O22 2.189957 1_554
Li11 O9 2.228335 1_555
Li12 O0 2.081017 1_455
Li12 O22 2.093248 1_554
Li12 O11 2.144346 1_554
Li12 O13 2.176727 1_555
Li12 O12 2.201295 1_545
Li12 O23 2.213861 1_544
Li13 O9 2.112722 1_555
Li13 O2 2.115466 1_455
Li13 O16 2.119454 1_555
Li13 O5 2.122270 1_455
Li13 O15 2.140019 1_555
Li13 O1 2.148833 1_455
Li14 O3 2.083456 1_455
Li14 O6 2.084937 1_455
Li14 O15 2.132687 1_555
Li14 O19 2.135523 1_555
Li14 O5 2.177916 1_455
Li14 O20 2.213331 1_565
Li15 O4 2.032953 1_455
Li15 O19 2.041954 1_555
Li15 O16 2.141293 1_555
Li15 O18 2.156958 1_555
Li15 O5 2.254260 1_455
Li15 O7 2.266768 1_455
Cr0 O3 1.879684 1_555
Cr0 O12 1.912599 1_555
Cr0 O5 1.959366 1_555
Cr0 O1 1.974116 1_555
Cr0 O9 1.983250 1_555
Cr0 O15 2.002980 1_555
Cr1 O18 1.900804 1_555
Cr1 O21 1.913997 1_555
Cr1 O10 1.957420 1_555
Cr1 O7 1.957472 1_555
Cr1 O14 1.990271 1_555
Cr1 O19 2.001504 1_555
Cr2 O15 1.891379 1_555
Cr2 O1 1.893893 1_455
Cr2 O17 1.946695 1_565
Cr2 O12 1.988464 1_555
Cr2 O3 1.992283 1_455
Cr2 O0 2.002043 1_465
Cr3 O0 1.896102 1_455
Cr3 O4 1.929131 1_455
Cr3 O13 1.956832 1_555
Cr3 O16 1.967239 1_555
Cr3 O17 1.974175 1_555
Cr3 O2 2.008086 1_455
O2 Ti2 1.968124 1_555
O4 Ti2 2.038184 1_555
O5 Ti2 1.971474 1_555
O6 Ti0 1.950365 1_555
O6 Ti1 1.979115 1_565
O7 Ti0 1.956162 1_555
O8 Ti3 1.982908 1_555
O8 Ti1 1.990573 1_555
O9 Ti2 1.941786 1_555
O10 Ti0 1.976354 1_555
O11 Ti3 1.954106 1_555
O11 Ti1 2.022121 1_555
O13 Ti2 1.975508 1_555
O14 Ti3 1.926290 1_555
O16 Ti2 1.979518 1_555
O18 Ti3 2.015385 1_555
O19 Ti0 1.962192 1_455
O20 Ti1 1.931703 1_455
O20 Ti3 2.014439 1_555
O21 Ti0 2.027820 1_455
O22 Ti1 1.964869 1_455
O22 Ti3 1.970073 1_555
O23 Ti1 1.966962 1_465
O23 Ti0 1.988407 1_455
