# generated using pymatgen
data_Li2Zr2(PO4)3
_symmetry_space_group_name_H-M   'P 1'
_cell_length_a   8.93796169
_cell_length_b   8.93796169
_cell_length_c   8.90929275
_cell_angle_alpha   60.96585182
_cell_angle_beta   60.96585182
_cell_angle_gamma   62.75402593
_symmetry_Int_Tables_number   1
_chemical_formula_structural   Li2Zr2(PO4)3
_chemical_formula_sum   'Li4 Zr4 P6 O24'
_cell_volume   520.58569092
_cell_formula_units_Z   2
loop_
 _symmetry_equiv_pos_site_id
 _symmetry_equiv_pos_as_xyz
  1  'x, y, z'
loop_
 _atom_site_type_symbol
 _atom_site_label
 _atom_site_symmetry_multiplicity
 _atom_site_fract_x
 _atom_site_fract_y
 _atom_site_fract_z
 _atom_site_occupancy
  Li  Li0  1  0.17247000  0.30881900  0.95801900  1
  Li  Li1  1  0.30881900  0.17247000  0.45801900  1
  Li  Li2  1  0.69118100  0.82753000  0.54198100  1
  Li  Li3  1  0.82753000  0.69118100  0.04198100  1
  Zr  Zr0  1  0.14257600  0.63952600  0.14409400  1
  Zr  Zr1  1  0.36047400  0.85742400  0.35590600  1
  Zr  Zr2  1  0.63952600  0.14257600  0.64409400  1
  Zr  Zr3  1  0.85742400  0.36047400  0.85590600  1
  P  P0  1  0.03789300  0.96210700  0.75000000  1
  P  P1  1  0.55318200  0.74360600  0.95903700  1
  P  P2  1  0.25639400  0.44681800  0.54096300  1
  P  P3  1  0.74360600  0.55318200  0.45903700  1
  P  P4  1  0.44681800  0.25639400  0.04096300  1
  P  P5  1  0.96210700  0.03789300  0.25000000  1
  O  O0  1  0.04861900  0.78149800  0.91132400  1
  O  O1  1  0.00511300  0.11975100  0.80040900  1
  O  O2  1  0.10730800  0.42791400  0.73225200  1
  O  O3  1  0.39420000  0.68267200  0.01386300  1
  O  O4  1  0.46580600  0.18982200  0.89865700  1
  O  O5  1  0.21850200  0.95138100  0.58867600  1
  O  O6  1  0.57208600  0.89269200  0.76774800  1
  O  O7  1  0.73384400  0.59149300  0.94500100  1
  O  O8  1  0.31732800  0.60580000  0.48613700  1
  O  O9  1  0.11975100  0.00511300  0.30040900  1
  O  O10  1  0.18982200  0.46580600  0.39865700  1
  O  O11  1  0.40850700  0.26615600  0.55499900  1
  O  O12  1  0.59149300  0.73384400  0.44500100  1
  O  O13  1  0.88024900  0.99488700  0.69959100  1
  O  O14  1  0.81017800  0.53419400  0.60134300  1
  O  O15  1  0.68267200  0.39420000  0.51386300  1
  O  O16  1  0.26615600  0.40850700  0.05499900  1
  O  O17  1  0.42791400  0.10730800  0.23225200  1
  O  O18  1  0.78149800  0.04861900  0.41132400  1
  O  O19  1  0.53419400  0.81017800  0.10134300  1
  O  O20  1  0.60580000  0.31732800  0.98613700  1
  O  O21  1  0.89269200  0.57208600  0.26774800  1
  O  O22  1  0.99488700  0.88024900  0.19959100  1
  O  O23  1  0.95138100  0.21850200  0.08867600  1
loop_
_geom_bond_atom_site_label_1
_geom_bond_atom_site_label_2
_geom_bond_distance
_geom_bond_site_symmetry_2
Li0 O2 2.002326 1_555
Li0 O23 2.056036 1_456
Li0 O16 2.091480 1_556
Li0 O4 2.220746 1_555
Li1 O17 2.002326 1_555
Li1 O5 2.056036 1_545
Li1 O11 2.091480 1_555
Li1 O10 2.220746 1_555
Li2 O6 2.002326 1_555
Li2 O18 2.056036 1_565
Li2 O12 2.091480 1_555
Li2 O14 2.220746 1_555
Li3 O21 2.002326 1_555
Li3 O0 2.056036 1_654
Li3 O7 2.091480 1_554
Li3 O19 2.220746 1_555
O0 P0 1.555894 1_555
O0 Zr0 2.185534 1_556
O1 P0 1.543175 1_545
O1 Zr3 2.101143 1_455
O2 P2 1.559151 1_555
O2 Zr3 2.182909 1_455
O3 P1 1.526771 1_554
O3 Zr0 2.092816 1_555
O4 P4 1.556027 1_556
O4 Zr2 2.154999 1_555
O5 P0 1.555894 1_555
O5 Zr1 2.185534 1_555
O6 P1 1.559151 1_555
O6 Zr2 2.182909 1_565
O7 P1 1.558974 1_555
O7 Zr3 2.182951 1_555
O8 P2 1.526771 1_555
O8 Zr1 2.092816 1_555
O9 P5 1.543175 1_455
O9 Zr1 2.101143 1_545
O10 P2 1.556027 1_555
O10 Zr0 2.154999 1_555
O11 P2 1.558974 1_555
O11 Zr2 2.182951 1_555
O12 P3 1.558974 1_555
O12 Zr1 2.182951 1_555
O13 P0 1.543175 1_655
O13 Zr2 2.101143 1_565
O14 P3 1.556027 1_555
O14 Zr3 2.154999 1_555
O15 P3 1.526771 1_555
O15 Zr2 2.092816 1_555
O16 P4 1.558974 1_555
O16 Zr0 2.182951 1_555
O17 P4 1.559151 1_555
O17 Zr1 2.182909 1_545
O18 P5 1.555894 1_555
O18 Zr2 2.185534 1_555
O19 P1 1.556027 1_554
O19 Zr1 2.154999 1_555
O20 P4 1.526771 1_556
O20 Zr3 2.092816 1_555
O21 P3 1.559151 1_555
O21 Zr0 2.182909 1_655
O22 P5 1.543175 1_565
O22 Zr0 2.101143 1_655
O23 P5 1.555894 1_555
O23 Zr3 2.185534 1_554
