# generated using pymatgen
data_KZnP
_symmetry_space_group_name_H-M   'P 1'
_cell_length_a   4.06375843
_cell_length_b   4.06375823
_cell_length_c   10.14553520
_cell_angle_alpha   90.00000000
_cell_angle_beta   90.00000000
_cell_angle_gamma   120.00000987
_symmetry_Int_Tables_number   1
_chemical_formula_structural   KZnP
_chemical_formula_sum   'K2 Zn2 P2'
_cell_volume   145.09795639
_cell_formula_units_Z   2
loop_
 _symmetry_equiv_pos_site_id
 _symmetry_equiv_pos_as_xyz
  1  'x, y, z'
loop_
 _atom_site_type_symbol
 _atom_site_label
 _atom_site_symmetry_multiplicity
 _atom_site_fract_x
 _atom_site_fract_y
 _atom_site_fract_z
 _atom_site_occupancy
  K  K0  1  0.00000000  0.00000000  0.50000000  1
  K  K1  1  0.00000000  0.00000000  -0.00000000  1
  Zn  Zn0  1  0.33333300  0.66666700  0.75000000  1
  Zn  Zn1  1  0.66666700  0.33333300  0.25000000  1
  P  P0  1  0.66666700  0.33333300  0.75000000  1
  P  P1  1  0.33333300  0.66666700  0.25000000  1
loop_
_geom_bond_atom_site_label_1
_geom_bond_atom_site_label_2
_geom_bond_distance
_geom_bond_site_symmetry_2
K0 P1 3.455133 1_545
K0 P0 3.455133 1_455
K0 Zn1 3.455133 1_455
K0 Zn0 3.455133 1_545
K0 P0 3.455135 1_445
K0 Zn0 3.455135 1_555
K0 Zn1 3.455135 1_445
K0 P1 3.455135 1_555
K0 Zn0 3.455135 1_445
K0 P0 3.455135 1_555
K0 Zn1 3.455135 1_555
K0 P1 3.455135 1_445
K1 P1 3.455133 1_545
K1 P0 3.455133 1_454
K1 Zn0 3.455133 1_544
K1 Zn1 3.455133 1_455
K1 Zn0 3.455135 1_554
K1 Zn1 3.455135 1_445
K1 P1 3.455135 1_555
K1 P0 3.455135 1_444
K1 Zn0 3.455135 1_444
K1 Zn1 3.455135 1_555
K1 P1 3.455135 1_445
K1 P0 3.455135 1_554
P0 Zn0 2.346209 1_545
P0 Zn0 2.346209 1_655
P0 Zn0 2.346217 1_555
P1 Zn1 2.346209 1_565
P1 Zn1 2.346209 1_455
P1 Zn1 2.346217 1_555
