# generated using pymatgen
data_Rb2S3
_symmetry_space_group_name_H-M   'P 1'
_cell_length_a   6.48285754
_cell_length_b   6.48285803
_cell_length_c   7.74630558
_cell_angle_alpha   90.00000000
_cell_angle_beta   90.00000000
_cell_angle_gamma   109.63384608
_symmetry_Int_Tables_number   1
_chemical_formula_structural   Rb2S3
_chemical_formula_sum   'Rb4 S6'
_cell_volume   306.62923942
_cell_formula_units_Z   2
loop_
 _symmetry_equiv_pos_site_id
 _symmetry_equiv_pos_as_xyz
  1  'x, y, z'
loop_
 _atom_site_type_symbol
 _atom_site_label
 _atom_site_symmetry_multiplicity
 _atom_site_fract_x
 _atom_site_fract_y
 _atom_site_fract_z
 _atom_site_occupancy
  Rb  Rb0  1  0.42161959  0.57838041  0.80951751  1
  Rb  Rb1  1  0.57838041  0.42161959  0.30951751  1
  Rb  Rb2  1  0.89358509  0.10641491  0.53885122  1
  Rb  Rb3  1  0.10641491  0.89358509  0.03885222  1
  S  S0  1  0.38289270  0.06633443  0.65268680  1
  S  S1  1  0.61710730  0.93366557  0.15268680  1
  S  S2  1  0.93366557  0.61710730  0.65268680  1
  S  S3  1  0.06633443  0.38289270  0.15268680  1
  S  S4  1  0.79954102  0.20045898  0.00365767  1
  S  S5  1  0.20045898  0.79954102  0.50365767  1
loop_
_geom_bond_atom_site_label_1
_geom_bond_atom_site_label_2
_geom_bond_distance
_geom_bond_site_symmetry_2
Rb0 S5 3.332601 1_555
Rb0 S2 3.463824 1_555
Rb0 S0 3.463824 1_555
Rb0 S3 3.466418 1_556
Rb0 S1 3.466418 1_556
Rb0 S2 3.475531 1_455
Rb0 S0 3.475532 1_565
Rb1 S4 3.332601 1_555
Rb1 S3 3.463824 1_555
Rb1 S1 3.463824 1_555
Rb1 S2 3.466418 1_555
Rb1 S0 3.466418 1_555
Rb1 S3 3.475531 1_655
Rb1 S1 3.475532 1_545
Rb2 S5 3.263373 1_645
Rb2 S0 3.350826 1_555
Rb2 S2 3.350826 1_555
Rb2 S0 3.385451 1_655
Rb2 S2 3.385452 1_545
Rb2 S1 3.473615 1_545
Rb2 S3 3.473616 1_655
Rb2 S4 3.735911 1_556
Rb3 S4 3.263374 1_465
Rb3 S1 3.350823 1_555
Rb3 S3 3.350824 1_555
Rb3 S1 3.385449 1_455
Rb3 S3 3.385450 1_565
Rb3 S0 3.473622 1_564
Rb3 S2 3.473622 1_454
Rb3 S5 3.735904 1_555
S0 S5 2.085249 1_545
S1 S4 2.085249 1_565
S2 S5 2.085249 1_655
S3 S4 2.085249 1_455
