# generated using pymatgen
data_Na3CaSc3Zn(SiO3)8
_symmetry_space_group_name_H-M   'P 1'
_cell_length_a   18.67718500
_cell_length_b   5.56513900
_cell_length_c   10.24121540
_cell_angle_alpha   79.14762751
_cell_angle_beta   90.00000000
_cell_angle_gamma   90.00000000
_symmetry_Int_Tables_number   1
_chemical_formula_structural   Na3CaSc3Zn(SiO3)8
_chemical_formula_sum   'Na6 Ca2 Sc6 Zn2 Si16 O48'
_cell_volume   1045.44581676
_cell_formula_units_Z   2
loop_
 _symmetry_equiv_pos_site_id
 _symmetry_equiv_pos_as_xyz
  1  'x, y, z'
loop_
 _atom_site_type_symbol
 _atom_site_label
 _atom_site_symmetry_multiplicity
 _atom_site_fract_x
 _atom_site_fract_y
 _atom_site_fract_z
 _atom_site_occupancy
  Na  Na0  1  0.76417000  0.50000000  0.75000000  1
  Na  Na1  1  0.51679100  0.00000000  0.25000000  1
  Na  Na2  1  0.26745000  0.50000000  0.75000000  1
  Na  Na3  1  0.73255000  0.50000000  0.25000000  1
  Na  Na4  1  0.48320900  0.00000000  0.75000000  1
  Na  Na5  1  0.23583000  0.50000000  0.25000000  1
  Ca  Ca0  1  0.00786400  0.00000000  0.25000000  1
  Ca  Ca1  1  0.99213600  0.00000000  0.75000000  1
  Sc  Sc0  1  0.81945800  0.00000000  0.25000000  1
  Sc  Sc1  1  0.57382300  0.50000000  0.75000000  1
  Sc  Sc2  1  0.67397600  0.00000000  0.75000000  1
  Sc  Sc3  1  0.32602400  0.00000000  0.25000000  1
  Sc  Sc4  1  0.42617700  0.50000000  0.25000000  1
  Sc  Sc5  1  0.18054200  0.00000000  0.75000000  1
  Zn  Zn0  1  0.07593800  0.50000000  0.75000000  1
  Zn  Zn1  1  0.92406200  0.50000000  0.25000000  1
  Si  Si0  1  0.86230600  0.72125900  0.48868800  1
  Si  Si1  1  0.86230600  0.27874100  0.01131200  1
  Si  Si2  1  0.61183800  0.22654200  0.99027600  1
  Si  Si3  1  0.13769400  0.72125900  0.98868800  1
  Si  Si4  1  0.61183800  0.77345800  0.50972400  1
  Si  Si5  1  0.36300700  0.72616000  0.49004800  1
  Si  Si6  1  0.13769400  0.27874100  0.51131200  1
  Si  Si7  1  0.88527600  0.22206700  0.48235000  1
  Si  Si8  1  0.36300700  0.27384000  0.00995200  1
  Si  Si9  1  0.11472400  0.22206700  0.98235000  1
  Si  Si10  1  0.88527600  0.77793300  0.01765000  1
  Si  Si11  1  0.63699300  0.72616000  0.99004800  1
  Si  Si12  1  0.11472400  0.77793300  0.51765000  1
  Si  Si13  1  0.63699300  0.27384000  0.50995200  1
  Si  Si14  1  0.38816200  0.22654200  0.49027600  1
  Si  Si15  1  0.38816200  0.77345800  0.00972400  1
  O  O0  1  0.87500400  0.56101200  0.92236000  1
  O  O1  1  0.03689000  0.74559400  0.59256600  1
  O  O2  1  0.91576100  0.78194000  0.35818700  1
  O  O3  1  0.62197600  0.05481500  0.41804500  1
  O  O4  1  0.91576100  0.21806000  0.14181300  1
  O  O5  1  0.78423900  0.23502000  0.08073000  1
  O  O6  1  0.12499600  0.56101200  0.42236000  1
  O  O7  1  0.03689000  0.25440600  0.90743400  1
  O  O8  1  0.66549400  0.28230900  0.85992800  1
  O  O9  1  0.96311000  0.74559400  0.09256600  1
  O  O10  1  0.87500400  0.43898800  0.57764000  1
  O  O11  1  0.08423900  0.78194000  0.85818700  1
  O  O12  1  0.37261200  0.55494700  0.91789800  1
  O  O13  1  0.66549400  0.71769100  0.64007200  1
  O  O14  1  0.53436300  0.72508200  0.58304100  1
  O  O15  1  0.87975700  0.05958600  0.91877400  1
  O  O16  1  0.78423900  0.76498000  0.41927000  1
  O  O17  1  0.08423900  0.21806000  0.64181300  1
  O  O18  1  0.41736300  0.78163200  0.36048200  1
  O  O19  1  0.71407600  0.22526800  0.58490500  1
  O  O20  1  0.62197600  0.94518500  0.08195500  1
  O  O21  1  0.96311000  0.25440600  0.40743400  1
  O  O22  1  0.82589700  0.26626200  0.36457800  1
  O  O23  1  0.12024300  0.05958600  0.41877400  1
  O  O24  1  0.12499600  0.43898800  0.07764000  1
  O  O25  1  0.41736300  0.21836800  0.13951800  1
  O  O26  1  0.28592400  0.22526800  0.08490500  1
  O  O27  1  0.62738800  0.55494700  0.41789800  1
  O  O28  1  0.53436300  0.27491800  0.91695900  1
  O  O29  1  0.82589700  0.73373800  0.13542200  1
  O  O30  1  0.17410300  0.26626200  0.86457800  1
  O  O31  1  0.46563700  0.72508200  0.08304100  1
  O  O32  1  0.37261200  0.44505300  0.58210200  1
  O  O33  1  0.71407600  0.77473200  0.91509500  1
  O  O34  1  0.58263700  0.78163200  0.86048200  1
  O  O35  1  0.87975700  0.94041400  0.58122600  1
  O  O36  1  0.17410300  0.73373800  0.63542200  1
  O  O37  1  0.37802400  0.05481500  0.91804500  1
  O  O38  1  0.28592400  0.77473200  0.41509500  1
  O  O39  1  0.58263700  0.21836800  0.63951800  1
  O  O40  1  0.21576100  0.23502000  0.58073000  1
  O  O41  1  0.12024300  0.94041400  0.08122600  1
  O  O42  1  0.46563700  0.27491800  0.41695900  1
  O  O43  1  0.33450600  0.28230900  0.35992800  1
  O  O44  1  0.62738800  0.44505300  0.08210200  1
  O  O45  1  0.33450600  0.71769100  0.14007200  1
  O  O46  1  0.21576100  0.76498000  0.91927000  1
  O  O47  1  0.37802400  0.94518500  0.58195500  1
loop_
_geom_bond_atom_site_label_1
_geom_bond_atom_site_label_2
_geom_bond_distance
_geom_bond_site_symmetry_2
Na0 O8 2.370260 1_555
Na0 O13 2.370260 1_555
Na0 O33 2.654264 1_555
Na0 O19 2.654264 1_555
Na0 O10 2.782445 1_555
Na0 O0 2.782445 1_555
Na1 O18 2.384923 1_545
Na1 O25 2.384923 1_555
Na1 O3 2.666839 1_555
Na1 O20 2.666839 1_545
Na1 O42 2.676247 1_555
Na1 O31 2.676247 1_545
Na2 O30 2.352410 1_555
Na2 O36 2.352410 1_555
Na2 O40 2.659764 1_555
Na2 O46 2.659764 1_555
Na2 O32 2.665692 1_555
Na2 O12 2.665692 1_555
Na3 O22 2.352410 1_555
Na3 O29 2.352410 1_555
Na3 O5 2.659764 1_555
Na3 O16 2.659764 1_555
Na3 O27 2.665692 1_555
Na3 O44 2.665692 1_555
Na4 O34 2.384923 1_545
Na4 O39 2.384923 1_555
Na4 O37 2.666839 1_555
Na4 O47 2.666839 1_545
Na4 O28 2.676247 1_555
Na4 O14 2.676247 1_545
Na5 O43 2.370260 1_555
Na5 O45 2.370260 1_555
Na5 O38 2.654264 1_555
Na5 O26 2.654264 1_555
Na5 O24 2.782445 1_555
Na5 O6 2.782445 1_555
Ca0 O2 2.270049 1_445
Ca0 O4 2.270049 1_455
Ca0 O21 2.482405 1_455
Ca0 O9 2.482405 1_445
Ca0 O23 2.778275 1_555
Ca0 O41 2.778275 1_545
Ca1 O11 2.270049 1_645
Ca1 O17 2.270049 1_655
Ca1 O7 2.482405 1_655
Ca1 O1 2.482405 1_645
Ca1 O15 2.778275 1_555
Ca1 O35 2.778275 1_545
O0 Si1 1.677770 1_556
O0 Si10 1.700029 1_556
O1 Si12 1.637785 1_555
O1 Zn0 2.041982 1_555
O2 Si0 1.651385 1_555
O2 Zn1 2.090005 1_555
O2 Sc0 2.330056 1_565
O3 Si4 1.677947 1_545
O3 Si13 1.697747 1_555
O4 Si1 1.651385 1_555
O4 Zn1 2.090005 1_555
O4 Sc0 2.330056 1_555
O5 Si1 1.620325 1_555
O5 Sc0 2.072364 1_555
O6 Si6 1.677770 1_555
O6 Si12 1.700029 1_555
O7 Si9 1.637785 1_555
O7 Zn0 2.041982 1_555
O8 Si2 1.651248 1_555
O8 Sc2 2.104011 1_555
O8 Sc1 2.270022 1_555
O9 Si10 1.637785 1_555
O9 Zn1 2.041982 1_555
O10 Si0 1.677770 1_555
O10 Si7 1.700029 1_555
O11 Si3 1.651385 1_555
O11 Zn0 2.090005 1_555
O11 Sc5 2.330056 1_565
O12 Si8 1.677181 1_556
O12 Si15 1.696499 1_556
O13 Si4 1.651248 1_555
O13 Sc2 2.104011 1_565
O13 Sc1 2.270022 1_555
O14 Si4 1.629109 1_555
O14 Sc1 2.056534 1_555
O15 Si10 1.701527 1_546
O15 Si1 1.710879 1_556
O16 Si0 1.620325 1_555
O16 Sc0 2.072364 1_565
O17 Si6 1.651385 1_555
O17 Zn0 2.090005 1_555
O17 Sc5 2.330056 1_555
O18 Si5 1.653002 1_555
O18 Sc4 2.105137 1_555
O18 Sc3 2.269265 1_565
O19 Si13 1.629993 1_555
O19 Sc2 2.047710 1_555
O20 Si2 1.677947 1_564
O20 Si11 1.697747 1_554
O21 Si7 1.637785 1_555
O21 Zn1 2.041982 1_555
O22 Si7 1.622802 1_555
O22 Sc0 2.059563 1_555
O22 Zn1 2.419857 1_555
O23 Si12 1.701527 1_545
O23 Si6 1.710879 1_555
O24 Si3 1.677770 1_554
O24 Si9 1.700029 1_554
O25 Si8 1.653002 1_555
O25 Sc4 2.105137 1_555
O25 Sc3 2.269265 1_555
O26 Si8 1.629993 1_555
O26 Sc3 2.047710 1_555
O27 Si13 1.677181 1_555
O27 Si4 1.696499 1_555
O28 Si2 1.629109 1_555
O28 Sc1 2.056534 1_555
O29 Si10 1.622802 1_555
O29 Sc0 2.059563 1_565
O29 Zn1 2.419857 1_555
O30 Si9 1.622802 1_555
O30 Sc5 2.059563 1_555
O30 Zn0 2.419857 1_555
O31 Si15 1.629109 1_555
O31 Sc4 2.056534 1_555
O32 Si5 1.677181 1_555
O32 Si14 1.696499 1_555
O33 Si11 1.629993 1_555
O33 Sc2 2.047710 1_565
O34 Si11 1.653002 1_555
O34 Sc1 2.105137 1_555
O34 Sc2 2.269265 1_565
O35 Si7 1.701527 1_565
O35 Si0 1.710879 1_555
O36 Si12 1.622802 1_555
O36 Sc5 2.059563 1_565
O36 Zn0 2.419857 1_555
O37 Si15 1.677947 1_546
O37 Si8 1.697747 1_556
O38 Si5 1.629993 1_555
O38 Sc3 2.047710 1_565
O39 Si13 1.653002 1_555
O39 Sc1 2.105137 1_555
O39 Sc2 2.269265 1_555
O40 Si6 1.620325 1_555
O40 Sc5 2.072364 1_555
O41 Si9 1.701527 1_564
O41 Si3 1.710879 1_554
O42 Si14 1.629109 1_555
O42 Sc4 2.056534 1_555
O43 Si14 1.651248 1_555
O43 Sc3 2.104011 1_555
O43 Sc4 2.270022 1_555
O44 Si11 1.677181 1_554
O44 Si2 1.696499 1_554
O45 Si15 1.651248 1_555
O45 Sc3 2.104011 1_565
O45 Sc4 2.270022 1_555
O46 Si3 1.620325 1_555
O46 Sc5 2.072364 1_565
O47 Si14 1.677947 1_565
O47 Si5 1.697747 1_555
