# generated using pymatgen
data_LiFe2F5
_symmetry_space_group_name_H-M   'P 1'
_cell_length_a   7.85268865
_cell_length_b   7.85268865
_cell_length_c   10.02513538
_cell_angle_alpha   65.36673942
_cell_angle_beta   65.36673942
_cell_angle_gamma   51.30436093
_symmetry_Int_Tables_number   1
_chemical_formula_structural   LiFe2F5
_chemical_formula_sum   'Li4 Fe8 F20'
_cell_volume   427.81411926
_cell_formula_units_Z   4
loop_
 _symmetry_equiv_pos_site_id
 _symmetry_equiv_pos_as_xyz
  1  'x, y, z'
loop_
 _atom_site_type_symbol
 _atom_site_label
 _atom_site_symmetry_multiplicity
 _atom_site_fract_x
 _atom_site_fract_y
 _atom_site_fract_z
 _atom_site_occupancy
  Li  Li0  1  0.70463200  0.92623700  0.31261600  1
  Li  Li1  1  0.07376300  0.29536800  0.18738400  1
  Li  Li2  1  0.92623700  0.70463200  0.81261600  1
  Li  Li3  1  0.29536800  0.07376300  0.68738400  1
  Fe  Fe0  1  0.77398900  0.52546400  0.63424300  1
  Fe  Fe1  1  0.15442000  0.73139100  0.00335800  1
  Fe  Fe2  1  0.26860900  0.84558000  0.49664200  1
  Fe  Fe3  1  0.52546400  0.77398900  0.13424300  1
  Fe  Fe4  1  0.47453600  0.22601100  0.86575700  1
  Fe  Fe5  1  0.73139100  0.15442000  0.50335800  1
  Fe  Fe6  1  0.84558000  0.26860900  0.99664200  1
  Fe  Fe7  1  0.22601100  0.47453600  0.36575700  1
  F  F0  1  0.89222700  0.96439200  0.13304300  1
  F  F1  1  0.11526200  0.28425700  0.54797000  1
  F  F2  1  0.43448400  0.80803500  0.62491700  1
  F  F3  1  0.15700600  0.46853400  0.19682900  1
  F  F4  1  0.53146600  0.84299400  0.30317100  1
  F  F5  1  0.61432100  0.33842400  0.90544000  1
  F  F6  1  0.66157600  0.38567900  0.59456000  1
  F  F7  1  0.03560800  0.10777300  0.36695700  1
  F  F8  1  0.28425700  0.11526200  0.04797000  1
  F  F9  1  0.19196500  0.56551600  0.87508300  1
  F  F10  1  0.80803500  0.43448400  0.12491700  1
  F  F11  1  0.71574300  0.88473800  0.95203000  1
  F  F12  1  0.96439200  0.89222700  0.63304300  1
  F  F13  1  0.33842400  0.61432100  0.40544000  1
  F  F14  1  0.38567900  0.66157600  0.09456000  1
  F  F15  1  0.46853400  0.15700600  0.69682900  1
  F  F16  1  0.84299400  0.53146600  0.80317100  1
  F  F17  1  0.56551600  0.19196500  0.37508300  1
  F  F18  1  0.88473800  0.71574300  0.45203000  1
  F  F19  1  0.10777300  0.03560800  0.86695700  1
loop_
_geom_bond_atom_site_label_1
_geom_bond_atom_site_label_2
_geom_bond_distance
_geom_bond_site_symmetry_2
F0 Li0 1.841805 1_555
F0 Fe6 2.076350 1_564
F0 Fe1 2.078074 1_655
F1 Li3 1.866765 1_555
F1 Fe7 2.085906 1_555
F1 Fe0 2.145732 1_455
F2 Li3 1.899625 1_565
F2 Fe2 2.009340 1_555
F2 Fe0 2.162897 1_555
F3 Li1 1.885667 1_555
F3 Fe7 2.006825 1_555
F3 Fe1 2.160095 1_555
F4 Li0 1.885667 1_555
F4 Fe3 2.006825 1_555
F4 Fe2 2.160095 1_555
F5 Fe4 2.002694 1_555
F5 Fe6 2.038582 1_555
F6 Fe0 2.002694 1_555
F6 Fe5 2.038582 1_555
F7 Li1 1.841805 1_555
F7 Fe5 2.076350 1_455
F7 Fe2 2.078074 1_545
F8 Li1 1.866765 1_555
F8 Fe4 2.085906 1_554
F8 Fe3 2.145732 1_545
F9 Li2 1.899625 1_455
F9 Fe1 2.009340 1_556
F9 Fe4 2.162897 1_555
F10 Li1 1.899625 1_655
F10 Fe6 2.009340 1_554
F10 Fe3 2.162897 1_555
F11 Li2 1.866765 1_555
F11 Fe3 2.085906 1_556
F11 Fe4 2.145732 1_565
F12 Li2 1.841805 1_555
F12 Fe2 2.076350 1_655
F12 Fe5 2.078074 1_565
F13 Fe7 2.002694 1_555
F13 Fe2 2.038582 1_555
F14 Fe3 2.002694 1_555
F14 Fe1 2.038582 1_555
F15 Li3 1.885667 1_555
F15 Fe4 2.006825 1_555
F15 Fe5 2.160095 1_555
F16 Li2 1.885667 1_555
F16 Fe0 2.006825 1_555
F16 Fe6 2.160095 1_555
F17 Li0 1.899625 1_545
F17 Fe5 2.009340 1_555
F17 Fe7 2.162897 1_555
F18 Li0 1.866765 1_555
F18 Fe0 2.085906 1_555
F18 Fe7 2.145732 1_655
F19 Li3 1.841805 1_555
F19 Fe1 2.076350 1_546
F19 Fe6 2.078074 1_455
