# generated using pymatgen
data_AsH12C4I3
_symmetry_space_group_name_H-M   'P 1'
_cell_length_a   15.27624400
_cell_length_b   15.27624400
_cell_length_c   14.06105300
_cell_angle_alpha   90.00000000
_cell_angle_beta   90.00000000
_cell_angle_gamma   90.00000000
_symmetry_Int_Tables_number   1
_chemical_formula_structural   AsH12C4I3
_chemical_formula_sum   'As10 H120 C40 I30'
_cell_volume   3281.33838021
_cell_formula_units_Z   10
loop_
 _symmetry_equiv_pos_site_id
 _symmetry_equiv_pos_as_xyz
  1  'x, y, z'
loop_
 _atom_site_type_symbol
 _atom_site_label
 _atom_site_symmetry_multiplicity
 _atom_site_fract_x
 _atom_site_fract_y
 _atom_site_fract_z
 _atom_site_occupancy
  As  As0  1  0.50000000  0.50000000  0.25000000  1
  As  As1  1  0.50000000  0.50000000  0.75000000  1
  As  As2  1  0.70331700  0.07751900  0.24869600  1
  As  As3  1  0.29668300  0.92248100  0.24869600  1
  As  As4  1  0.07751900  0.29668300  0.74869600  1
  As  As5  1  0.92248100  0.70331700  0.74869600  1
  As  As6  1  0.29668300  0.92248100  0.75130400  1
  As  As7  1  0.70331700  0.07751900  0.75130400  1
  As  As8  1  0.92248100  0.70331700  0.25130400  1
  As  As9  1  0.07751900  0.29668300  0.25130400  1
  H  H0  1  0.51987100  0.35467700  0.33295900  1
  H  H1  1  0.48012900  0.64532300  0.33295900  1
  H  H2  1  0.35467700  0.48012900  0.83295900  1
  H  H3  1  0.64532300  0.51987100  0.83295900  1
  H  H4  1  0.48012900  0.64532300  0.66704100  1
  H  H5  1  0.51987100  0.35467700  0.66704100  1
  H  H6  1  0.64532300  0.51987100  0.16704100  1
  H  H7  1  0.35467700  0.48012900  0.16704100  1
  H  H8  1  0.62426500  0.40232100  0.30383500  1
  H  H9  1  0.37573500  0.59767900  0.30383500  1
  H  H10  1  0.40232100  0.37573500  0.80383500  1
  H  H11  1  0.59767900  0.62426500  0.80383500  1
  H  H12  1  0.37573500  0.59767900  0.69616500  1
  H  H13  1  0.62426500  0.40232100  0.69616500  1
  H  H14  1  0.59767900  0.62426500  0.19616500  1
  H  H15  1  0.40232100  0.37573500  0.19616500  1
  H  H16  1  0.56361400  0.44275100  0.40343200  1
  H  H17  1  0.43638600  0.55724900  0.40343200  1
  H  H18  1  0.44275100  0.43638600  0.90343200  1
  H  H19  1  0.55724900  0.56361400  0.90343200  1
  H  H20  1  0.43638600  0.55724900  0.59656800  1
  H  H21  1  0.56361400  0.44275100  0.59656800  1
  H  H22  1  0.55724900  0.56361400  0.09656800  1
  H  H23  1  0.44275100  0.43638600  0.09656800  1
  H  H24  1  0.84691700  0.03200600  0.17565800  1
  H  H25  1  0.15308300  0.96799400  0.17565800  1
  H  H26  1  0.03200600  0.15308300  0.67565800  1
  H  H27  1  0.96799400  0.84691700  0.67565800  1
  H  H28  1  0.15308300  0.96799400  0.82434200  1
  H  H29  1  0.84691700  0.03200600  0.82434200  1
  H  H30  1  0.96799400  0.84691700  0.32434200  1
  H  H31  1  0.03200600  0.15308300  0.32434200  1
  H  H32  1  0.85612200  0.04046200  0.30323300  1
  H  H33  1  0.14387800  0.95953800  0.30323300  1
  H  H34  1  0.04046200  0.14387800  0.80323300  1
  H  H35  1  0.95953800  0.85612200  0.80323300  1
  H  H36  1  0.14387800  0.95953800  0.69676700  1
  H  H37  1  0.85612200  0.04046200  0.69676700  1
  H  H38  1  0.95953800  0.85612200  0.19676700  1
  H  H39  1  0.04046200  0.14387800  0.19676700  1
  H  H40  1  0.80422700  0.94689400  0.25090900  1
  H  H41  1  0.19577300  0.05310600  0.25090900  1
  H  H42  1  0.94689400  0.19577300  0.75090900  1
  H  H43  1  0.05310600  0.80422700  0.75090900  1
  H  H44  1  0.19577300  0.05310600  0.74909100  1
  H  H45  1  0.80422700  0.94689400  0.74909100  1
  H  H46  1  0.05310600  0.80422700  0.24909100  1
  H  H47  1  0.94689400  0.19577300  0.24909100  1
  H  H48  1  0.76171900  0.22578300  0.29744900  1
  H  H49  1  0.23828100  0.77421700  0.29744900  1
  H  H50  1  0.22578300  0.23828100  0.79744900  1
  H  H51  1  0.77421700  0.76171900  0.79744900  1
  H  H52  1  0.23828100  0.77421700  0.70255100  1
  H  H53  1  0.76171900  0.22578300  0.70255100  1
  H  H54  1  0.77421700  0.76171900  0.20255100  1
  H  H55  1  0.22578300  0.23828100  0.20255100  1
  H  H56  1  0.75264600  0.21718600  0.17013000  1
  H  H57  1  0.24735400  0.78281400  0.17013000  1
  H  H58  1  0.21718600  0.24735400  0.67013000  1
  H  H59  1  0.78281400  0.75264600  0.67013000  1
  H  H60  1  0.24735400  0.78281400  0.82987000  1
  H  H61  1  0.75264600  0.21718600  0.82987000  1
  H  H62  1  0.78281400  0.75264600  0.32987000  1
  H  H63  1  0.21718600  0.24735400  0.32987000  1
  H  H64  1  0.65663800  0.23534500  0.24043500  1
  H  H65  1  0.34336200  0.76465500  0.24043500  1
  H  H66  1  0.23534500  0.34336200  0.74043500  1
  H  H67  1  0.76465500  0.65663800  0.74043500  1
  H  H68  1  0.34336200  0.76465500  0.75956500  1
  H  H69  1  0.65663800  0.23534500  0.75956500  1
  H  H70  1  0.76465500  0.65663800  0.25956500  1
  H  H71  1  0.23534500  0.34336200  0.25956500  1
  H  H72  1  0.58597300  0.08312600  0.37378900  1
  H  H73  1  0.41402700  0.91687400  0.37378900  1
  H  H74  1  0.08312600  0.41402700  0.87378900  1
  H  H75  1  0.91687400  0.58597300  0.87378900  1
  H  H76  1  0.41402700  0.91687400  0.62621100  1
  H  H77  1  0.58597300  0.08312600  0.62621100  1
  H  H78  1  0.91687400  0.58597300  0.12621100  1
  H  H79  1  0.08312600  0.41402700  0.12621100  1
  H  H80  1  0.64078200  0.97868500  0.37472800  1
  H  H81  1  0.35921800  0.02131500  0.37472800  1
  H  H82  1  0.97868500  0.35921800  0.87472800  1
  H  H83  1  0.02131500  0.64078200  0.87472800  1
  H  H84  1  0.35921800  0.02131500  0.62527200  1
  H  H85  1  0.64078200  0.97868500  0.62527200  1
  H  H86  1  0.02131500  0.64078200  0.12527200  1
  H  H87  1  0.97868500  0.35921800  0.12527200  1
  H  H88  1  0.69309900  0.07301700  0.42605900  1
  H  H89  1  0.30690100  0.92698300  0.42605900  1
  H  H90  1  0.07301700  0.30690100  0.92605900  1
  H  H91  1  0.92698300  0.69309900  0.92605900  1
  H  H92  1  0.30690100  0.92698300  0.57394100  1
  H  H93  1  0.69309900  0.07301700  0.57394100  1
  H  H94  1  0.92698300  0.69309900  0.07394100  1
  H  H95  1  0.07301700  0.30690100  0.07394100  1
  H  H96  1  0.61974500  0.96815600  0.14845500  1
  H  H97  1  0.38025500  0.03184400  0.14845500  1
  H  H98  1  0.96815600  0.38025500  0.64845500  1
  H  H99  1  0.03184400  0.61974500  0.64845500  1
  H  H100  1  0.38025500  0.03184400  0.85154500  1
  H  H101  1  0.61974500  0.96815600  0.85154500  1
  H  H102  1  0.03184400  0.61974500  0.35154500  1
  H  H103  1  0.96815600  0.38025500  0.35154500  1
  H  H104  1  0.56740700  0.07400500  0.14740600  1
  H  H105  1  0.43259300  0.92599500  0.14740600  1
  H  H106  1  0.07400500  0.43259300  0.64740600  1
  H  H107  1  0.92599500  0.56740700  0.64740600  1
  H  H108  1  0.43259300  0.92599500  0.85259400  1
  H  H109  1  0.56740700  0.07400500  0.85259400  1
  H  H110  1  0.92599500  0.56740700  0.35259400  1
  H  H111  1  0.07400500  0.43259300  0.35259400  1
  H  H112  1  0.66377500  0.05523500  0.07718900  1
  H  H113  1  0.33622500  0.94476500  0.07718900  1
  H  H114  1  0.05523500  0.33622500  0.57718900  1
  H  H115  1  0.94476500  0.66377500  0.57718900  1
  H  H116  1  0.33622500  0.94476500  0.92281100  1
  H  H117  1  0.66377500  0.05523500  0.92281100  1
  H  H118  1  0.94476500  0.66377500  0.42281100  1
  H  H119  1  0.05523500  0.33622500  0.42281100  1
  C  C0  1  0.55856200  0.41521400  0.33164200  1
  C  C1  1  0.44143800  0.58478600  0.33164200  1
  C  C2  1  0.41521400  0.44143800  0.83164200  1
  C  C3  1  0.58478600  0.55856200  0.83164200  1
  C  C4  1  0.44143800  0.58478600  0.66835800  1
  C  C5  1  0.55856200  0.41521400  0.66835800  1
  C  C6  1  0.58478600  0.55856200  0.16835800  1
  C  C7  1  0.41521400  0.44143800  0.16835800  1
  C  C8  1  0.81557700  0.01757900  0.24394200  1
  C  C9  1  0.18442300  0.98242100  0.24394200  1
  C  C10  1  0.01757900  0.18442300  0.74394200  1
  C  C11  1  0.98242100  0.81557700  0.74394200  1
  C  C12  1  0.18442300  0.98242100  0.75605800  1
  C  C13  1  0.81557700  0.01757900  0.75605800  1
  C  C14  1  0.98242100  0.81557700  0.25605800  1
  C  C15  1  0.01757900  0.18442300  0.25605800  1
  C  C16  1  0.72074400  0.20303100  0.23807600  1
  C  C17  1  0.27925600  0.79696900  0.23807600  1
  C  C18  1  0.20303100  0.27925600  0.73807600  1
  C  C19  1  0.79696900  0.72074400  0.73807600  1
  C  C20  1  0.27925600  0.79696900  0.76192400  1
  C  C21  1  0.72074400  0.20303100  0.76192400  1
  C  C22  1  0.79696900  0.72074400  0.26192400  1
  C  C23  1  0.20303100  0.27925600  0.26192400  1
  C  C24  1  0.64943700  0.04962100  0.36966400  1
  C  C25  1  0.35056300  0.95037900  0.36966400  1
  C  C26  1  0.04962100  0.35056300  0.86966400  1
  C  C27  1  0.95037900  0.64943700  0.86966400  1
  C  C28  1  0.35056300  0.95037900  0.63033600  1
  C  C29  1  0.64943700  0.04962100  0.63033600  1
  C  C30  1  0.95037900  0.64943700  0.13033600  1
  C  C31  1  0.04962100  0.35056300  0.13033600  1
  C  C32  1  0.63007400  0.03891300  0.14372000  1
  C  C33  1  0.36992600  0.96108700  0.14372000  1
  C  C34  1  0.03891300  0.36992600  0.64372000  1
  C  C35  1  0.96108700  0.63007400  0.64372000  1
  C  C36  1  0.36992600  0.96108700  0.85628000  1
  C  C37  1  0.63007400  0.03891300  0.85628000  1
  C  C38  1  0.96108700  0.63007400  0.35628000  1
  C  C39  1  0.03891300  0.36992600  0.35628000  1
  I  I0  1  0.00000000  0.00000000  0.50000000  1
  I  I1  1  0.00000000  0.00000000  0.00000000  1
  I  I2  1  0.56224300  0.80988600  0.50000000  1
  I  I3  1  0.43775700  0.19011400  0.50000000  1
  I  I4  1  0.80988600  0.43775700  0.00000000  1
  I  I5  1  0.19011400  0.56224300  0.00000000  1
  I  I6  1  0.78494000  0.40358400  0.50000000  1
  I  I7  1  0.21506000  0.59641600  0.50000000  1
  I  I8  1  0.40358400  0.21506000  0.00000000  1
  I  I9  1  0.59641600  0.78494000  0.00000000  1
  I  I10  1  0.84529600  0.88045000  0.50000000  1
  I  I11  1  0.15470400  0.11955000  0.50000000  1
  I  I12  1  0.88045000  0.15470400  0.00000000  1
  I  I13  1  0.11955000  0.84529600  0.00000000  1
  I  I14  1  0.56379400  0.81039600  0.28777400  1
  I  I15  1  0.43620600  0.18960400  0.28777400  1
  I  I16  1  0.81039600  0.43620600  0.78777400  1
  I  I17  1  0.18960400  0.56379400  0.78777400  1
  I  I18  1  0.43620600  0.18960400  0.71222600  1
  I  I19  1  0.56379400  0.81039600  0.71222600  1
  I  I20  1  0.18960400  0.56379400  0.21222600  1
  I  I21  1  0.81039600  0.43620600  0.21222600  1
  I  I22  1  0.71465100  0.58432100  0.50000000  1
  I  I23  1  0.28534900  0.41567900  0.50000000  1
  I  I24  1  0.58432100  0.28534900  0.00000000  1
  I  I25  1  0.41567900  0.71465100  0.00000000  1
  I  I26  1  0.85217000  0.21813000  0.50000000  1
  I  I27  1  0.14783000  0.78187000  0.50000000  1
  I  I28  1  0.21813000  0.14783000  0.00000000  1
  I  I29  1  0.78187000  0.85217000  0.00000000  1
loop_
_geom_bond_atom_site_label_1
_geom_bond_atom_site_label_2
_geom_bond_distance
_geom_bond_site_symmetry_2
As0 C1 1.948265 1_555
As0 C6 1.948265 1_555
As0 C0 1.948265 1_555
As0 C7 1.948265 1_555
As1 C3 1.948265 1_555
As1 C4 1.948265 1_555
As1 C2 1.948265 1_555
As1 C5 1.948265 1_555
As2 C24 1.937081 1_555
As2 C16 1.941497 1_555
As2 C32 1.943834 1_555
As2 C8 1.945204 1_555
As3 C25 1.937081 1_555
As3 C17 1.941497 1_555
As3 C33 1.943834 1_555
As3 C9 1.945204 1_555
As4 C26 1.937081 1_555
As4 C18 1.941497 1_555
As4 C34 1.943834 1_555
As4 C10 1.945204 1_555
As5 C27 1.937081 1_555
As5 C19 1.941497 1_555
As5 C35 1.943834 1_555
As5 C11 1.945204 1_555
As6 C28 1.937081 1_555
As6 C20 1.941497 1_555
As6 C36 1.943834 1_555
As6 C12 1.945204 1_555
As7 C29 1.937081 1_555
As7 C21 1.941497 1_555
As7 C37 1.943834 1_555
As7 C13 1.945204 1_555
As8 C30 1.937081 1_555
As8 C22 1.941497 1_555
As8 C38 1.943834 1_555
As8 C14 1.945204 1_555
As9 C31 1.937081 1_555
As9 C23 1.941497 1_555
As9 C39 1.943834 1_555
As9 C15 1.945204 1_555
C0 H8 1.095022 1_555
C0 H16 1.096306 1_555
C0 H0 1.097680 1_555
C1 H9 1.095022 1_555
C1 H17 1.096306 1_555
C1 H1 1.097680 1_555
C2 H10 1.095022 1_555
C2 H18 1.096306 1_555
C2 H2 1.097680 1_555
C3 H11 1.095022 1_555
C3 H19 1.096306 1_555
C3 H3 1.097680 1_555
C4 H12 1.095022 1_555
C4 H20 1.096306 1_555
C4 H4 1.097680 1_555
C5 H13 1.095022 1_555
C5 H21 1.096306 1_555
C5 H5 1.097680 1_555
C6 H14 1.095022 1_555
C6 H22 1.096306 1_555
C6 H6 1.097680 1_555
C7 H15 1.095022 1_555
C7 H23 1.096306 1_555
C7 H7 1.097680 1_555
C8 H24 1.095289 1_555
C8 H32 1.095841 1_555
C8 H40 1.098012 1_545
C9 H25 1.095289 1_555
C9 H33 1.095841 1_555
C9 H41 1.098012 1_565
C10 H26 1.095289 1_555
C10 H34 1.095841 1_555
C10 H42 1.098012 1_455
C11 H27 1.095289 1_555
C11 H35 1.095841 1_555
C11 H43 1.098012 1_655
C12 H28 1.095289 1_555
C12 H36 1.095841 1_555
C12 H44 1.098012 1_565
C13 H29 1.095289 1_555
C13 H37 1.095841 1_555
C13 H45 1.098012 1_545
C14 H30 1.095289 1_555
C14 H38 1.095841 1_555
C14 H46 1.098012 1_655
C15 H31 1.095289 1_555
C15 H39 1.095841 1_555
C15 H47 1.098012 1_455
C16 H56 1.094091 1_555
C16 H64 1.097180 1_555
C16 H48 1.099808 1_555
C17 H57 1.094091 1_555
C17 H65 1.097180 1_555
C17 H49 1.099808 1_555
C18 H58 1.094091 1_555
C18 H66 1.097180 1_555
C18 H50 1.099808 1_555
C19 H59 1.094091 1_555
C19 H67 1.097180 1_555
C19 H51 1.099808 1_555
C20 H60 1.094091 1_555
C20 H68 1.097180 1_555
C20 H52 1.099808 1_555
C21 H61 1.094091 1_555
C21 H69 1.097180 1_555
C21 H53 1.099808 1_555
C22 H62 1.094091 1_555
C22 H70 1.097180 1_555
C22 H54 1.099808 1_555
C23 H63 1.094091 1_555
C23 H71 1.097180 1_555
C23 H55 1.099808 1_555
C24 H80 1.093992 1_545
C24 H88 1.096093 1_555
C24 H72 1.097838 1_555
C25 H81 1.093992 1_565
C25 H89 1.096093 1_555
C25 H73 1.097838 1_555
C26 H82 1.093992 1_455
C26 H90 1.096093 1_555
C26 H74 1.097838 1_555
C27 H83 1.093992 1_655
C27 H91 1.096093 1_555
C27 H75 1.097838 1_555
C28 H84 1.093992 1_565
C28 H92 1.096093 1_555
C28 H76 1.097838 1_555
C29 H85 1.093992 1_545
C29 H93 1.096093 1_555
C29 H77 1.097838 1_555
C30 H86 1.093992 1_655
C30 H94 1.096093 1_555
C30 H78 1.097838 1_555
C31 H87 1.093992 1_455
C31 H95 1.096093 1_555
C31 H79 1.097838 1_555
C32 H96 1.094384 1_545
C32 H112 1.096525 1_555
C32 H104 1.098415 1_555
C33 H97 1.094384 1_565
C33 H113 1.096525 1_555
C33 H105 1.098415 1_555
C34 H98 1.094384 1_455
C34 H114 1.096525 1_555
C34 H106 1.098415 1_555
C35 H99 1.094384 1_655
C35 H115 1.096525 1_555
C35 H107 1.098415 1_555
C36 H100 1.094384 1_565
C36 H116 1.096525 1_555
C36 H108 1.098415 1_555
C37 H101 1.094384 1_545
C37 H117 1.096525 1_555
C37 H109 1.098415 1_555
C38 H102 1.094384 1_655
C38 H118 1.096525 1_555
C38 H110 1.098415 1_555
C39 H103 1.094384 1_455
C39 H119 1.096525 1_555
C39 H111 1.098415 1_555
I0 I11 2.986712 1_555
I0 I10 2.986712 1_445
I1 I12 2.986712 1_455
I1 I13 2.986712 1_545
I14 I2 2.984225 1_555
I15 I3 2.984225 1_555
I16 I4 2.984225 1_556
I17 I5 2.984225 1_556
I18 I3 2.984225 1_555
I19 I2 2.984225 1_555
I20 I5 2.984225 1_555
I21 I4 2.984225 1_555
I22 I6 2.962426 1_555
I23 I7 2.962426 1_555
I24 I8 2.962426 1_555
I25 I9 2.962426 1_555
I26 I6 3.013452 1_555
I27 I7 3.013452 1_555
I28 I8 3.013452 1_555
I29 I9 3.013452 1_555
