# generated using pymatgen
data_Na3Bi(P2O7)2
_symmetry_space_group_name_H-M   'P 1'
_cell_length_a   7.40719600
_cell_length_b   9.65342044
_cell_length_c   9.71354802
_cell_angle_alpha   80.67687532
_cell_angle_beta   77.32513795
_cell_angle_gamma   69.81272828
_symmetry_Int_Tables_number   1
_chemical_formula_structural   Na3Bi(P2O7)2
_chemical_formula_sum   'Na6 Bi2 P8 O28'
_cell_volume   633.18183015
_cell_formula_units_Z   2
loop_
 _symmetry_equiv_pos_site_id
 _symmetry_equiv_pos_as_xyz
  1  'x, y, z'
loop_
 _atom_site_type_symbol
 _atom_site_label
 _atom_site_symmetry_multiplicity
 _atom_site_fract_x
 _atom_site_fract_y
 _atom_site_fract_z
 _atom_site_occupancy
  Na  Na0  1  0.35480800  0.14859700  0.27365400  1
  Na  Na1  1  0.05244500  0.50077500  0.16174000  1
  Na  Na2  1  0.44253400  0.45859900  0.33184400  1
  Na  Na3  1  0.55746600  0.54140100  0.66815600  1
  Na  Na4  1  0.94755500  0.49922500  0.83826000  1
  Na  Na5  1  0.64519200  0.85140300  0.72634600  1
  Bi  Bi0  1  0.88049800  0.12228900  0.78149300  1
  Bi  Bi1  1  0.11950200  0.87771100  0.21850700  1
  P  P0  1  0.18494400  0.13541900  0.97454300  1
  P  P1  1  0.72862200  0.10770600  0.45107900  1
  P  P2  1  0.41375300  0.33375700  0.94470100  1
  P  P3  1  0.90209900  0.34153200  0.45273200  1
  P  P4  1  0.09790100  0.65846800  0.54726800  1
  P  P5  1  0.58624700  0.66624300  0.05529900  1
  P  P6  1  0.27137800  0.89229400  0.54892100  1
  P  P7  1  0.81505600  0.86458100  0.02545700  1
  O  O0  1  0.17896500  0.03494500  0.62393000  1
  O  O1  1  0.12234800  0.16301200  0.13073200  1
  O  O2  1  0.76856700  0.02847100  0.04386200  1
  O  O3  1  0.69150100  0.07786900  0.61431300  1
  O  O4  1  0.03650500  0.23659200  0.87881100  1
  O  O5  1  0.54446100  0.20865900  0.39712500  1
  O  O6  1  0.38316000  0.18115400  0.91522000  1
  O  O7  1  0.09477300  0.35653800  0.37337900  1
  O  O8  1  0.41022600  0.33422800  0.10263800  1
  O  O9  1  0.89620200  0.18656900  0.41132600  1
  O  O10  1  0.60818300  0.32988900  0.84733800  1
  O  O11  1  0.88252800  0.32474700  0.61647600  1
  O  O12  1  0.24187900  0.46737100  0.90443700  1
  O  O13  1  0.27797200  0.53260600  0.58560600  1
  O  O14  1  0.72202800  0.46739400  0.41439400  1
  O  O15  1  0.75812100  0.53262900  0.09556300  1
  O  O16  1  0.11747200  0.67525300  0.38352400  1
  O  O17  1  0.39181700  0.67011100  0.15266200  1
  O  O18  1  0.10379800  0.81343100  0.58867400  1
  O  O19  1  0.58977400  0.66577200  0.89736200  1
  O  O20  1  0.90522700  0.64346200  0.62662100  1
  O  O21  1  0.61684000  0.81884600  0.08478000  1
  O  O22  1  0.45553900  0.79134100  0.60287500  1
  O  O23  1  0.96349500  0.76340800  0.12118900  1
  O  O24  1  0.30849900  0.92213100  0.38568700  1
  O  O25  1  0.23143300  0.97152900  0.95613800  1
  O  O26  1  0.87765200  0.83698800  0.86926800  1
  O  O27  1  0.82103500  0.96505500  0.37607000  1
loop_
_geom_bond_atom_site_label_1
_geom_bond_atom_site_label_2
_geom_bond_distance
_geom_bond_site_symmetry_2
Na0 O5 2.296710 1_555
Na0 O8 2.320157 1_555
Na0 O24 2.379957 1_545
Na0 O1 2.394284 1_555
Na0 O7 2.412565 1_555
Na1 O7 2.305930 1_555
Na1 O15 2.312775 1_455
Na1 O23 2.377912 1_455
Na1 O8 2.574576 1_555
Na1 O12 2.594100 1_554
Na2 O5 2.291446 1_555
Na2 O14 2.409988 1_555
Na2 O17 2.438349 1_555
Na2 O13 2.592894 1_555
Na2 O16 2.599579 1_555
Na2 O8 2.784562 1_555
Na3 O22 2.291446 1_555
Na3 O13 2.409988 1_555
Na3 O10 2.438349 1_555
Na3 O14 2.592894 1_555
Na3 O11 2.599579 1_555
Na3 O19 2.784562 1_555
Na4 O20 2.305930 1_555
Na4 O12 2.312775 1_655
Na4 O4 2.377912 1_655
Na4 O19 2.574576 1_555
Na4 O15 2.594100 1_556
Na5 O22 2.296710 1_555
Na5 O19 2.320157 1_555
Na5 O3 2.379957 1_565
Na5 O26 2.394284 1_555
Na5 O20 2.412565 1_555
Bi0 O4 2.268002 1_655
Bi0 O11 2.320330 1_555
Bi0 O10 2.356512 1_555
Bi0 O0 2.363834 1_655
Bi0 O3 2.533448 1_555
Bi0 O2 2.616449 1_556
Bi0 O26 2.753902 1_545
Bi1 O23 2.268002 1_455
Bi1 O16 2.320330 1_555
Bi1 O17 2.356512 1_555
Bi1 O27 2.363834 1_455
Bi1 O24 2.533448 1_555
Bi1 O25 2.616449 1_554
Bi1 O1 2.753902 1_565
O0 P6 1.533423 1_545
O1 P0 1.524688 1_554
O2 P7 1.530423 1_545
O3 P1 1.545316 1_555
O4 P0 1.562302 1_555
O5 P1 1.521822 1_555
O6 P0 1.635952 1_555
O6 P2 1.642882 1_555
O7 P3 1.508543 1_455
O8 P2 1.529328 1_554
O9 P1 1.617445 1_555
O9 P3 1.627638 1_555
O10 P2 1.531847 1_555
O11 P3 1.551966 1_555
O12 P2 1.535951 1_555
O13 P4 1.531946 1_555
O14 P3 1.531946 1_555
O15 P5 1.535951 1_555
O16 P4 1.551966 1_555
O17 P5 1.531847 1_555
O18 P6 1.617445 1_555
O18 P4 1.627638 1_555
O19 P5 1.529328 1_556
O20 P4 1.508543 1_655
O21 P7 1.635952 1_555
O21 P5 1.642882 1_555
O22 P6 1.521822 1_555
O23 P7 1.562302 1_555
O24 P6 1.545316 1_555
O25 P0 1.530423 1_565
O26 P7 1.524688 1_556
O27 P1 1.533423 1_565
