# generated using pymatgen
data_Na2H4(SO4)3
_symmetry_space_group_name_H-M   'P 1'
_cell_length_a   7.00258400
_cell_length_b   10.26211900
_cell_length_c   14.15360300
_cell_angle_alpha   90.00000000
_cell_angle_beta   90.00000000
_cell_angle_gamma   90.00000000
_symmetry_Int_Tables_number   1
_chemical_formula_structural   Na2H4(SO4)3
_chemical_formula_sum   'Na8 H16 S12 O48'
_cell_volume   1017.09702341
_cell_formula_units_Z   4
loop_
 _symmetry_equiv_pos_site_id
 _symmetry_equiv_pos_as_xyz
  1  'x, y, z'
loop_
 _atom_site_type_symbol
 _atom_site_label
 _atom_site_symmetry_multiplicity
 _atom_site_fract_x
 _atom_site_fract_y
 _atom_site_fract_z
 _atom_site_occupancy
  Na  Na0  1  0.38458900  0.15908100  0.49696700  1
  Na  Na1  1  0.61541100  0.84091900  0.99696700  1
  Na  Na2  1  0.88458900  0.34091900  0.99696700  1
  Na  Na3  1  0.11541100  0.65908100  0.49696700  1
  Na  Na4  1  0.74182700  0.36927500  0.64133700  1
  Na  Na5  1  0.25817300  0.63072500  0.14133700  1
  Na  Na6  1  0.24182700  0.13072500  0.14133700  1
  Na  Na7  1  0.75817300  0.86927500  0.64133700  1
  H  H0  1  0.54899900  0.24288300  0.82006500  1
  H  H1  1  0.45100100  0.75711700  0.32006500  1
  H  H2  1  0.04899900  0.25711700  0.32006500  1
  H  H3  1  0.95100100  0.74288300  0.82006500  1
  H  H4  1  0.91433700  0.93973000  0.44292100  1
  H  H5  1  0.08566300  0.06027000  0.94292100  1
  H  H6  1  0.41433700  0.56027000  0.94292100  1
  H  H7  1  0.58566300  0.43973000  0.44292100  1
  H  H8  1  0.08291900  0.03810100  0.73502000  1
  H  H9  1  0.91708100  0.96189900  0.23502000  1
  H  H10  1  0.58291900  0.46189900  0.23502000  1
  H  H11  1  0.41708100  0.53810100  0.73502000  1
  H  H12  1  0.32761500  0.82149500  0.79287400  1
  H  H13  1  0.67238500  0.17850500  0.29287400  1
  H  H14  1  0.82761500  0.67850500  0.29287400  1
  H  H15  1  0.17238500  0.32149500  0.79287400  1
  S  S0  1  0.77423200  0.09331100  0.82820800  1
  S  S1  1  0.22576800  0.90668900  0.32820800  1
  S  S2  1  0.27423200  0.40668900  0.32820800  1
  S  S3  1  0.72576800  0.59331100  0.82820800  1
  S  S4  1  0.86729500  0.14564600  0.47342800  1
  S  S5  1  0.13270500  0.85435400  0.97342800  1
  S  S6  1  0.36729500  0.35435400  0.97342800  1
  S  S7  1  0.63270500  0.64564600  0.47342800  1
  S  S8  1  0.29267900  0.92133300  0.66267700  1
  S  S9  1  0.70732100  0.07866700  0.16267700  1
  S  S10  1  0.79267900  0.57866700  0.16267700  1
  S  S11  1  0.20732100  0.42133300  0.66267700  1
  O  O0  1  0.63924400  0.00829400  0.87497700  1
  O  O1  1  0.36075600  0.99170600  0.37497700  1
  O  O2  1  0.13924400  0.49170600  0.37497700  1
  O  O3  1  0.86075600  0.50829400  0.87497700  1
  O  O4  1  0.86831800  0.03296800  0.74505000  1
  O  O5  1  0.13168200  0.96703200  0.24505000  1
  O  O6  1  0.36831800  0.46703200  0.24505000  1
  O  O7  1  0.63168200  0.53296800  0.74505000  1
  O  O8  1  0.91836300  0.15225000  0.89159600  1
  O  O9  1  0.08163700  0.84775000  0.39159600  1
  O  O10  1  0.41836300  0.34775000  0.39159600  1
  O  O11  1  0.58163700  0.65225000  0.89159600  1
  O  O12  1  0.66075800  0.21108600  0.78089100  1
  O  O13  1  0.33924200  0.78891400  0.28089100  1
  O  O14  1  0.16075800  0.28891400  0.28089100  1
  O  O15  1  0.83924200  0.71108600  0.78089100  1
  O  O16  1  0.71121700  0.20187000  0.52884400  1
  O  O17  1  0.28878300  0.79813000  0.02884400  1
  O  O18  1  0.21121700  0.29813000  0.02884400  1
  O  O19  1  0.78878300  0.70187000  0.52884400  1
  O  O20  1  0.85921600  0.18451900  0.37203800  1
  O  O21  1  0.14078400  0.81548100  0.87203800  1
  O  O22  1  0.35921600  0.31548100  0.87203800  1
  O  O23  1  0.64078400  0.68451900  0.37203800  1
  O  O24  1  0.05632300  0.16645600  0.51315300  1
  O  O25  1  0.94367700  0.83354400  0.01315300  1
  O  O26  1  0.55632300  0.33354400  0.01315300  1
  O  O27  1  0.44367700  0.66645600  0.51315300  1
  O  O28  1  0.81788700  0.99415700  0.47860900  1
  O  O29  1  0.18211300  0.00584300  0.97860900  1
  O  O30  1  0.31788700  0.50584300  0.97860900  1
  O  O31  1  0.68211300  0.49415700  0.47860900  1
  O  O32  1  0.12575500  0.85349200  0.62764900  1
  O  O33  1  0.87424500  0.14650800  0.12764900  1
  O  O34  1  0.62575500  0.64650800  0.12764900  1
  O  O35  1  0.37424500  0.35349200  0.62764900  1
  O  O36  1  0.43485400  0.96369500  0.59551100  1
  O  O37  1  0.56514600  0.03630500  0.09551100  1
  O  O38  1  0.93485400  0.53630500  0.09551100  1
  O  O39  1  0.06514600  0.46369500  0.59551100  1
  O  O40  1  0.23004300  0.03858300  0.72399100  1
  O  O41  1  0.76995700  0.96141700  0.22399100  1
  O  O42  1  0.73004300  0.46141700  0.22399100  1
  O  O43  1  0.26995700  0.53858300  0.72399100  1
  O  O44  1  0.40732300  0.83358500  0.73379400  1
  O  O45  1  0.59267700  0.16641500  0.23379400  1
  O  O46  1  0.90732300  0.66641500  0.23379400  1
  O  O47  1  0.09267700  0.33358500  0.73379400  1
loop_
_geom_bond_atom_site_label_1
_geom_bond_atom_site_label_2
_geom_bond_distance
_geom_bond_site_symmetry_2
Na0 O24 2.311337 1_555
Na0 O16 2.372307 1_555
Na0 O1 2.441151 1_545
Na0 O10 2.455361 1_555
Na0 O36 2.467702 1_545
Na0 O35 2.721515 1_555
Na1 O25 2.311337 1_556
Na1 O17 2.372307 1_556
Na1 O0 2.441151 1_565
Na1 O11 2.455361 1_555
Na1 O37 2.467702 1_566
Na1 O34 2.721515 1_556
Na2 O26 2.311337 1_556
Na2 O18 2.372307 1_656
Na2 O3 2.441151 1_555
Na2 O8 2.455361 1_555
Na2 O38 2.467702 1_556
Na2 O33 2.721515 1_556
Na3 O27 2.311337 1_555
Na3 O19 2.372307 1_455
Na3 O2 2.441151 1_555
Na3 O9 2.455361 1_555
Na3 O39 2.467702 1_555
Na3 O32 2.721515 1_555
Na4 O16 2.352078 1_555
Na4 O7 2.360407 1_555
Na4 O39 2.546675 1_655
Na4 O35 2.586381 1_555
Na4 O12 2.618957 1_555
Na4 O31 2.668690 1_555
Na4 O47 2.807618 1_655
Na5 O17 2.352078 1_555
Na5 O6 2.360407 1_555
Na5 O38 2.546675 1_455
Na5 O34 2.586381 1_555
Na5 O13 2.618957 1_555
Na5 O30 2.668690 1_554
Na5 O46 2.807618 1_455
Na6 O18 2.352078 1_555
Na6 O5 2.360407 1_545
Na6 O37 2.546675 1_555
Na6 O33 2.586381 1_455
Na6 O14 2.618957 1_555
Na6 O29 2.668690 1_554
Na6 O45 2.807618 1_555
Na7 O19 2.352078 1_555
Na7 O4 2.360407 1_565
Na7 O36 2.546675 1_555
Na7 O32 2.586381 1_655
Na7 O15 2.618957 1_555
Na7 O28 2.668690 1_555
Na7 O44 2.807618 1_555
H0 O12 1.013094 1_555
H0 O22 1.691839 1_555
H1 O13 1.013094 1_555
H1 O23 1.691839 1_555
H2 O14 1.013094 1_555
H2 O20 1.691839 1_455
H3 O15 1.013094 1_555
H3 O21 1.691839 1_655
H4 O28 1.011567 1_555
H4 O9 1.670676 1_655
H5 O29 1.011567 1_555
H5 O8 1.670676 1_455
H6 O30 1.011567 1_555
H6 O11 1.670676 1_555
H7 O31 1.011567 1_555
H7 O10 1.670676 1_555
H8 O40 1.042019 1_555
H8 O4 1.510371 1_455
H9 O41 1.042019 1_555
H9 O5 1.510371 1_655
H10 O42 1.042019 1_555
H10 O6 1.510371 1_555
H11 O43 1.042019 1_555
H11 O7 1.510371 1_555
H12 O44 1.012995 1_555
H12 O21 1.723624 1_555
H13 O45 1.012995 1_555
H13 O20 1.723624 1_555
H14 O46 1.012995 1_555
H14 O23 1.723624 1_555
H15 O47 1.012995 1_555
H15 O22 1.723624 1_555
O0 S0 1.446679 1_555
O1 S1 1.446679 1_555
O2 S2 1.446679 1_555
O3 S3 1.446679 1_555
O4 S0 1.484196 1_555
O5 S1 1.484196 1_555
O6 S2 1.484196 1_555
O7 S3 1.484196 1_555
O8 S0 1.479664 1_555
O9 S1 1.479664 1_555
O10 S2 1.479664 1_555
O11 S3 1.479664 1_555
O12 S0 1.593950 1_555
O13 S1 1.593950 1_555
O14 S2 1.593950 1_555
O15 S3 1.593950 1_555
O16 S4 1.463771 1_555
O17 S5 1.463771 1_554
O18 S6 1.463771 1_554
O19 S7 1.463771 1_555
O20 S4 1.490523 1_555
O21 S5 1.490523 1_555
O22 S6 1.490523 1_555
O23 S7 1.490523 1_555
O24 S4 1.453917 1_455
O25 S5 1.453917 1_654
O26 S6 1.453917 1_554
O27 S7 1.453917 1_555
O28 S4 1.594320 1_565
O29 S5 1.594320 1_545
O30 S6 1.594320 1_555
O31 S7 1.594320 1_555
O32 S8 1.448033 1_555
O33 S9 1.448033 1_555
O34 S10 1.448033 1_555
O35 S11 1.448033 1_555
O36 S8 1.443574 1_555
O37 S9 1.443574 1_555
O38 S10 1.443574 1_555
O39 S11 1.443574 1_555
O40 S8 1.547015 1_545
O41 S9 1.547015 1_565
O42 S10 1.547015 1_555
O43 S11 1.547015 1_555
O44 S8 1.571154 1_555
O45 S9 1.571154 1_555
O46 S10 1.571154 1_555
O47 S11 1.571154 1_555
