# generated using pymatgen
data_Li3MnV(PO4)3
_symmetry_space_group_name_H-M   'P 1'
_cell_length_a   8.81357400
_cell_length_b   8.43032600
_cell_length_c   12.31456746
_cell_angle_alpha   88.19793278
_cell_angle_beta   90.00000000
_cell_angle_gamma   90.00000000
_symmetry_Int_Tables_number   1
_chemical_formula_structural   Li3MnV(PO4)3
_chemical_formula_sum   'Li12 Mn4 V4 P12 O48'
_cell_volume   914.53586729
_cell_formula_units_Z   4
loop_
 _symmetry_equiv_pos_site_id
 _symmetry_equiv_pos_as_xyz
  1  'x, y, z'
loop_
 _atom_site_type_symbol
 _atom_site_label
 _atom_site_symmetry_multiplicity
 _atom_site_fract_x
 _atom_site_fract_y
 _atom_site_fract_z
 _atom_site_occupancy
  Li  Li0  1  0.00046000  0.00328200  0.99968300  1
  Li  Li1  1  0.89872100  0.00614300  0.25027100  1
  Li  Li2  1  0.99954000  0.00328200  0.49968300  1
  Li  Li3  1  0.10127900  0.00614300  0.75027100  1
  Li  Li4  1  0.19311400  0.29247100  0.04640100  1
  Li  Li5  1  0.80688600  0.29247100  0.54640100  1
  Li  Li6  1  0.49895700  0.50391300  0.99981400  1
  Li  Li7  1  0.60015400  0.50341600  0.25111100  1
  Li  Li8  1  0.50104300  0.50391300  0.49981400  1
  Li  Li9  1  0.39984600  0.50341600  0.75111100  1
  Li  Li10  1  0.19646100  0.70777500  0.44892900  1
  Li  Li11  1  0.80353900  0.70777500  0.94892900  1
  Mn  Mn0  1  0.00673600  0.28893700  0.35749700  1
  Mn  Mn1  1  0.99326400  0.28893700  0.85749700  1
  Mn  Mn2  1  0.49770300  0.78983600  0.35272800  1
  Mn  Mn3  1  0.50229700  0.78983600  0.85272800  1
  V  V0  1  0.50070000  0.21342400  0.14465600  1
  V  V1  1  0.49930000  0.21342400  0.64465600  1
  V  V2  1  0.00224500  0.71566300  0.14127500  1
  V  V3  1  0.99775500  0.71566300  0.64127500  1
  P  P0  1  0.19988200  0.00184500  0.25014800  1
  P  P1  1  0.80011800  0.00184500  0.75014800  1
  P  P2  1  0.64363300  0.15075000  0.39583800  1
  P  P3  1  0.35636700  0.15075000  0.89583800  1
  P  P4  1  0.85247100  0.34932000  0.10433800  1
  P  P5  1  0.14752900  0.34932000  0.60433800  1
  P  P6  1  0.29365700  0.50356200  0.24919900  1
  P  P7  1  0.70634300  0.50356200  0.74919900  1
  P  P8  1  0.85442100  0.64642200  0.39655000  1
  P  P9  1  0.14557900  0.64642200  0.89655000  1
  P  P10  1  0.64670400  0.84192200  0.10476000  1
  P  P11  1  0.35329600  0.84192200  0.60476000  1
  O  O0  1  0.59011400  0.01545500  0.10623500  1
  O  O1  1  0.40988600  0.01545500  0.60623500  1
  O  O2  1  0.08906800  0.07651500  0.33466400  1
  O  O3  1  0.91093200  0.07651500  0.83466400  1
  O  O4  1  0.29785700  0.12624100  0.18878100  1
  O  O5  1  0.70214300  0.12624100  0.68878100  1
  O  O6  1  0.81832400  0.14128300  0.41001300  1
  O  O7  1  0.18167600  0.14128300  0.91001300  1
  O  O8  1  0.59285900  0.24434200  0.29158000  1
  O  O9  1  0.93694600  0.25104400  0.01915600  1
  O  O10  1  0.58724600  0.25036800  0.49314700  1
  O  O11  1  0.40714100  0.24434200  0.79158000  1
  O  O12  1  0.06305400  0.25104400  0.51915600  1
  O  O13  1  0.90208700  0.27244600  0.21280700  1
  O  O14  1  0.41275400  0.25036800  0.99314700  1
  O  O15  1  0.09791300  0.27244600  0.71280700  1
  O  O16  1  0.67648200  0.34765100  0.09137700  1
  O  O17  1  0.32351800  0.34765100  0.59137700  1
  O  O18  1  0.20180100  0.38566400  0.31646400  1
  O  O19  1  0.79819900  0.38566400  0.81646400  1
  O  O20  1  0.40230400  0.42800300  0.16310700  1
  O  O21  1  0.59769600  0.42800300  0.66310700  1
  O  O22  1  0.89607000  0.46685500  0.40900500  1
  O  O23  1  0.10393000  0.46685500  0.90900500  1
  O  O24  1  0.89225700  0.52671600  0.09295700  1
  O  O25  1  0.10774300  0.52671600  0.59295700  1
  O  O26  1  0.40235200  0.57944700  0.33345000  1
  O  O27  1  0.59764800  0.57944700  0.83345000  1
  O  O28  1  0.19439400  0.61781400  0.18373000  1
  O  O29  1  0.80560600  0.61781400  0.68373000  1
  O  O30  1  0.68139400  0.64491200  0.40956500  1
  O  O31  1  0.31860600  0.64491200  0.90956500  1
  O  O32  1  0.90800500  0.72050200  0.28794800  1
  O  O33  1  0.59311400  0.74546700  0.00774600  1
  O  O34  1  0.09199500  0.72050200  0.78794800  1
  O  O35  1  0.94025700  0.74441300  0.48191600  1
  O  O36  1  0.59957200  0.74922000  0.20751500  1
  O  O37  1  0.40688600  0.74546700  0.50774600  1
  O  O38  1  0.05974300  0.74441300  0.98191600  1
  O  O39  1  0.40042800  0.74922000  0.70751500  1
  O  O40  1  0.82311100  0.85609400  0.09174500  1
  O  O41  1  0.17688900  0.85609400  0.59174500  1
  O  O42  1  0.28671100  0.87547800  0.31399500  1
  O  O43  1  0.71328900  0.87547800  0.81399500  1
  O  O44  1  0.09036800  0.93360400  0.16373900  1
  O  O45  1  0.90963200  0.93360400  0.66373900  1
  O  O46  1  0.58822900  0.98178400  0.39616200  1
  O  O47  1  0.41177100  0.98178400  0.89616200  1
loop_
_geom_bond_atom_site_label_1
_geom_bond_atom_site_label_2
_geom_bond_distance
_geom_bond_site_symmetry_2
Li0 O9 2.182910 1_456
Li0 O44 2.231558 1_546
Li0 O7 2.245656 1_555
Li0 O3 2.248211 1_455
Li0 O38 2.261317 1_545
Li0 O40 2.275899 1_446
Li1 O2 2.070089 1_655
Li1 O44 2.098453 1_645
Li1 O13 2.277873 1_555
Li1 O6 2.410536 1_555
Li1 O32 2.439342 1_545
Li1 O40 2.451637 1_545
Li2 O12 2.182910 1_655
Li2 O45 2.231558 1_545
Li2 O6 2.245656 1_555
Li2 O2 2.248211 1_655
Li2 O35 2.261317 1_545
Li2 O41 2.275899 1_645
Li3 O3 2.070089 1_455
Li3 O45 2.098453 1_445
Li3 O15 2.277873 1_555
Li3 O7 2.410536 1_555
Li3 O34 2.439342 1_545
Li3 O41 2.451637 1_545
Li4 O14 2.077997 1_554
Li4 O7 2.142483 1_554
Li4 O9 2.310707 1_455
Li4 O23 2.342095 1_554
Li4 O4 2.394946 1_555
Li5 O10 2.077997 1_555
Li5 O6 2.142483 1_555
Li5 O12 2.310707 1_655
Li5 O22 2.342095 1_555
Li5 O5 2.394946 1_555
Li6 O33 2.203987 1_556
Li6 O31 2.256464 1_555
Li6 O20 2.257855 1_556
Li6 O14 2.272394 1_555
Li6 O27 2.297215 1_555
Li6 O16 2.315474 1_556
Li7 O36 2.124224 1_555
Li7 O26 2.125815 1_555
Li7 O20 2.159331 1_555
Li7 O8 2.225811 1_555
Li7 O30 2.426833 1_555
Li7 O16 2.491722 1_555
Li8 O37 2.203987 1_555
Li8 O30 2.256464 1_555
Li8 O21 2.257855 1_555
Li8 O10 2.272394 1_555
Li8 O26 2.297215 1_555
Li8 O17 2.315474 1_555
Li9 O39 2.124224 1_555
Li9 O27 2.125815 1_555
Li9 O21 2.159331 1_555
Li9 O11 2.225811 1_555
Li9 O31 2.426833 1_555
Li9 O17 2.491722 1_555
Li10 O37 2.019800 1_555
Li10 O41 2.196496 1_555
Li10 O42 2.290163 1_555
Li10 O35 2.316722 1_455
Li10 O25 2.432447 1_555
Li10 O26 2.565609 1_555
Li11 O33 2.019800 1_556
Li11 O40 2.196496 1_556
Li11 O43 2.290163 1_555
Li11 O38 2.316722 1_655
Li11 O24 2.432447 1_556
Li11 O27 2.565609 1_555
Mn0 O22 1.913955 1_455
Mn0 O2 1.960663 1_555
Mn0 O18 1.962161 1_555
Mn0 O13 2.015042 1_455
Mn0 O12 2.066774 1_555
Mn0 O6 2.162082 1_455
Mn1 O23 1.913955 1_655
Mn1 O3 1.960663 1_555
Mn1 O19 1.962161 1_555
Mn1 O15 2.015042 1_655
Mn1 O9 2.066774 1_556
Mn1 O7 2.162082 1_655
Mn2 O46 1.896212 1_555
Mn2 O26 1.983661 1_555
Mn2 O36 2.039519 1_555
Mn2 O42 2.045778 1_555
Mn2 O37 2.092816 1_555
Mn2 O30 2.133044 1_555
Mn3 O47 1.896212 1_555
Mn3 O27 1.983661 1_555
Mn3 O39 2.039519 1_555
Mn3 O43 2.045778 1_555
Mn3 O33 2.092816 1_556
Mn3 O31 2.133044 1_555
O0 P10 1.546272 1_545
O0 V0 1.918314 1_555
O1 P11 1.546272 1_545
O1 V1 1.918314 1_555
O2 P0 1.573075 1_555
O3 P1 1.573075 1_555
O4 P0 1.538398 1_555
O4 V0 2.001617 1_555
O5 P1 1.538398 1_555
O5 V1 2.001617 1_555
O6 P2 1.551287 1_555
O7 P3 1.551287 1_555
O8 P2 1.551600 1_555
O8 V0 2.007719 1_555
O9 P4 1.547820 1_555
O10 P2 1.565735 1_555
O10 V1 2.035277 1_555
O11 P3 1.551600 1_555
O11 V1 2.007719 1_555
O12 P5 1.547820 1_555
O13 P4 1.530034 1_555
O14 P3 1.565735 1_555
O14 V0 2.035277 1_556
O15 P5 1.530034 1_555
O16 P4 1.559391 1_555
O16 V0 2.016056 1_555
O17 P5 1.559391 1_555
O17 V1 2.016056 1_555
O18 P6 1.509192 1_555
O19 P7 1.509192 1_555
O20 P6 1.577706 1_555
O20 V0 2.025321 1_555
O21 P7 1.577706 1_555
O21 V1 2.025321 1_555
O22 P8 1.560539 1_555
O23 P9 1.560539 1_555
O24 P4 1.538167 1_555
O24 V2 1.972472 1_655
O25 P5 1.538167 1_555
O25 V3 1.972472 1_455
O26 P6 1.563710 1_555
O27 P7 1.563710 1_555
O28 P6 1.514681 1_555
O28 V2 1.947993 1_555
O29 P7 1.514681 1_555
O29 V3 1.947993 1_555
O30 P8 1.533396 1_555
O31 P9 1.533396 1_555
O32 P8 1.532688 1_555
O32 V2 1.989621 1_655
O33 P10 1.540346 1_555
O34 P9 1.532688 1_555
O34 V3 1.989621 1_455
O35 P8 1.553865 1_555
O35 V3 2.033912 1_555
O36 P10 1.523913 1_555
O37 P11 1.540346 1_555
O38 P9 1.553865 1_555
O38 V2 2.033912 1_556
O39 P11 1.523913 1_555
O40 P10 1.567191 1_555
O40 V2 2.054465 1_655
O41 P11 1.567191 1_555
O41 V3 2.054465 1_455
O42 P0 1.511968 1_565
O43 P1 1.511968 1_565
O44 P0 1.559930 1_565
O44 V2 2.021743 1_555
O45 P1 1.559930 1_565
O45 V3 2.021743 1_555
O46 P2 1.505698 1_565
O47 P3 1.505698 1_565
