# generated using pymatgen
data_RbCuSb2H2Se4O
_symmetry_space_group_name_H-M   'P 1'
_cell_length_a   4.11704200
_cell_length_b   11.36635800
_cell_length_c   21.42183100
_cell_angle_alpha   90.00000000
_cell_angle_beta   90.00000000
_cell_angle_gamma   90.00000000
_symmetry_Int_Tables_number   1
_chemical_formula_structural   RbCuSb2H2Se4O
_chemical_formula_sum   'Rb4 Cu4 Sb8 H8 Se16 O4'
_cell_volume   1002.45114657
_cell_formula_units_Z   4
loop_
 _symmetry_equiv_pos_site_id
 _symmetry_equiv_pos_as_xyz
  1  'x, y, z'
loop_
 _atom_site_type_symbol
 _atom_site_label
 _atom_site_symmetry_multiplicity
 _atom_site_fract_x
 _atom_site_fract_y
 _atom_site_fract_z
 _atom_site_occupancy
  Rb  Rb0  1  0.75000000  0.15344500  0.58080700  1
  Rb  Rb1  1  0.25000000  0.34655500  0.08080700  1
  Rb  Rb2  1  0.75000000  0.65344500  0.91919300  1
  Rb  Rb3  1  0.25000000  0.84655500  0.41919300  1
  Cu  Cu0  1  0.75000000  0.09373500  0.77420000  1
  Cu  Cu1  1  0.25000000  0.40626500  0.27420000  1
  Cu  Cu2  1  0.75000000  0.59373500  0.72580000  1
  Cu  Cu3  1  0.25000000  0.90626500  0.22580000  1
  Sb  Sb0  1  0.25000000  0.03420600  0.91838000  1
  Sb  Sb1  1  0.75000000  0.13768400  0.26209900  1
  Sb  Sb2  1  0.25000000  0.36231600  0.76209900  1
  Sb  Sb3  1  0.75000000  0.46579400  0.41838000  1
  Sb  Sb4  1  0.25000000  0.53420600  0.58162000  1
  Sb  Sb5  1  0.75000000  0.63768400  0.23790100  1
  Sb  Sb6  1  0.25000000  0.86231600  0.73790100  1
  Sb  Sb7  1  0.75000000  0.96579400  0.08162000  1
  H  H0  1  0.56659200  0.09617900  0.42816000  1
  H  H1  1  0.93340800  0.09617900  0.42816000  1
  H  H2  1  0.06659200  0.40382100  0.92816000  1
  H  H3  1  0.43340800  0.40382100  0.92816000  1
  H  H4  1  0.56659200  0.59617900  0.07184000  1
  H  H5  1  0.93340800  0.59617900  0.07184000  1
  H  H6  1  0.06659200  0.90382100  0.57184000  1
  H  H7  1  0.43340800  0.90382100  0.57184000  1
  Se  Se0  1  0.25000000  0.08601000  0.70923800  1
  Se  Se1  1  0.25000000  0.07496100  0.15208700  1
  Se  Se2  1  0.75000000  0.13997400  0.00089900  1
  Se  Se3  1  0.25000000  0.21393900  0.33817200  1
  Se  Se4  1  0.75000000  0.28606100  0.83817200  1
  Se  Se5  1  0.25000000  0.36002600  0.50089900  1
  Se  Se6  1  0.75000000  0.42503900  0.65208700  1
  Se  Se7  1  0.75000000  0.41399000  0.20923800  1
  Se  Se8  1  0.25000000  0.58601000  0.79076200  1
  Se  Se9  1  0.25000000  0.57496100  0.34791300  1
  Se  Se10  1  0.75000000  0.63997400  0.49910100  1
  Se  Se11  1  0.25000000  0.71393900  0.16182800  1
  Se  Se12  1  0.75000000  0.78606100  0.66182800  1
  Se  Se13  1  0.25000000  0.86002600  0.99910100  1
  Se  Se14  1  0.75000000  0.92503900  0.84791300  1
  Se  Se15  1  0.75000000  0.91399000  0.29076200  1
  O  O0  1  0.75000000  0.05919000  0.45010700  1
  O  O1  1  0.25000000  0.44081000  0.95010700  1
  O  O2  1  0.75000000  0.55919000  0.04989300  1
  O  O3  1  0.25000000  0.94081000  0.54989300  1
loop_
_geom_bond_atom_site_label_1
_geom_bond_atom_site_label_2
_geom_bond_distance
_geom_bond_site_symmetry_2
Rb0 Se6 3.444032 1_555
Rb0 Se0 3.520549 1_555
Rb0 Se0 3.520549 1_655
Rb0 Se5 3.561058 1_555
Rb0 Se5 3.561058 1_655
Rb1 Se1 3.444032 1_555
Rb1 Se7 3.520549 1_555
Rb1 Se7 3.520549 1_455
Rb1 Se2 3.561058 1_555
Rb1 Se2 3.561058 1_455
Rb2 Se14 3.444032 1_555
Rb2 Se8 3.520549 1_555
Rb2 Se8 3.520549 1_655
Rb2 Se13 3.561058 1_655
Rb2 Se13 3.561058 1_555
Rb3 Se9 3.444032 1_555
Rb3 Se15 3.520549 1_555
Rb3 Se15 3.520549 1_455
Rb3 Se10 3.561058 1_455
Rb3 Se10 3.561058 1_555
Cu0 Se14 2.483969 1_545
Cu0 Se0 2.486319 1_655
Cu0 Se0 2.486319 1_555
Cu0 Se4 2.580075 1_555
Cu1 Se9 2.483969 1_555
Cu1 Se7 2.486319 1_555
Cu1 Se7 2.486319 1_455
Cu1 Se3 2.580075 1_555
Cu2 Se6 2.483969 1_555
Cu2 Se8 2.486319 1_555
Cu2 Se8 2.486319 1_655
Cu2 Se12 2.580075 1_555
Cu3 Se1 2.483969 1_565
Cu3 Se15 2.486319 1_455
Cu3 Se15 2.486319 1_555
Cu3 Se11 2.580075 1_555
Sb0 Se13 2.628627 1_545
Sb0 Se14 2.838284 1_445
Sb0 Se14 2.838284 1_545
Sb0 Se2 2.967756 1_556
Sb0 Se2 2.967756 1_456
Sb1 Se15 2.615675 1_545
Sb1 Se3 2.764855 1_655
Sb1 Se3 2.764855 1_555
Sb1 Se1 3.209302 1_555
Sb1 Se1 3.209302 1_655
Sb2 Se8 2.615675 1_555
Sb2 Se4 2.764855 1_455
Sb2 Se4 2.764855 1_555
Sb2 Se6 3.209302 1_455
Sb2 Se6 3.209302 1_555
Sb3 Se10 2.628627 1_555
Sb3 Se9 2.838284 1_555
Sb3 Se9 2.838284 1_655
Sb3 Se5 2.967756 1_655
Sb3 Se5 2.967756 1_555
Sb4 Se5 2.628627 1_555
Sb4 Se6 2.838284 1_555
Sb4 Se6 2.838284 1_455
Sb4 Se10 2.967756 1_555
Sb4 Se10 2.967756 1_455
Sb5 Se7 2.615675 1_555
Sb5 Se11 2.764855 1_555
Sb5 Se11 2.764855 1_655
Sb5 Se9 3.209302 1_555
Sb5 Se9 3.209302 1_655
Sb6 Se0 2.615675 1_565
Sb6 Se12 2.764855 1_555
Sb6 Se12 2.764855 1_455
Sb6 Se14 3.209302 1_555
Sb6 Se14 3.209302 1_455
Sb7 Se2 2.628627 1_565
Sb7 Se1 2.838284 1_665
Sb7 Se1 2.838284 1_565
Sb7 Se13 2.967756 1_554
Sb7 Se13 2.967756 1_654
H0 O0 0.983855 1_555
H0 Rb3 3.128285 1_545
H1 O0 0.983855 1_555
H1 Rb3 3.128285 1_645
H2 O1 0.983855 1_555
H2 Rb2 3.128285 1_455
H3 O1 0.983855 1_555
H3 Rb2 3.128285 1_555
H4 O2 0.983855 1_555
H4 Rb1 3.128285 1_555
H5 O2 0.983855 1_555
H5 Rb1 3.128285 1_655
H6 O3 0.983855 1_555
H6 Rb0 3.128285 1_465
H7 O3 0.983855 1_555
H7 Rb0 3.128285 1_565
O0 Rb0 2.997804 1_555
O0 Rb3 3.243054 1_645
O0 Rb3 3.243054 1_545
O1 Rb1 2.997804 1_556
O1 Rb2 3.243054 1_555
O1 Rb2 3.243054 1_455
O2 Rb2 2.997804 1_554
O2 Rb1 3.243054 1_555
O2 Rb1 3.243054 1_655
O3 Rb3 2.997804 1_555
O3 Rb0 3.243054 1_565
O3 Rb0 3.243054 1_465
