# generated using pymatgen
data_Li13Mn8O24
_symmetry_space_group_name_H-M   'P 1'
_cell_length_a   4.97642000
_cell_length_b   8.65708237
_cell_length_c   10.18668771
_cell_angle_alpha   107.01722242
_cell_angle_beta   99.72076138
_cell_angle_gamma   89.65343353
_symmetry_Int_Tables_number   1
_chemical_formula_structural   Li13Mn8O24
_chemical_formula_sum   'Li13 Mn8 O24'
_cell_volume   413.17791182
_cell_formula_units_Z   1
loop_
 _symmetry_equiv_pos_site_id
 _symmetry_equiv_pos_as_xyz
  1  'x, y, z'
loop_
 _atom_site_type_symbol
 _atom_site_label
 _atom_site_symmetry_multiplicity
 _atom_site_fract_x
 _atom_site_fract_y
 _atom_site_fract_z
 _atom_site_occupancy
  Li  Li0  1  0.23889900  0.92422200  0.24864400  1
  Li  Li1  1  0.22841200  0.92231400  0.75349000  1
  Li  Li2  1  0.00000000  0.00000000  0.50000000  1
  Li  Li3  1  0.77158800  0.07768600  0.24651000  1
  Li  Li4  1  0.74718300  0.74567600  0.24670200  1
  Li  Li5  1  0.72525700  0.42389800  0.25035600  1
  Li  Li6  1  0.76110100  0.07577800  0.75135600  1
  Li  Li7  1  0.75273700  0.75139000  0.74900700  1
  Li  Li8  1  0.73087700  0.42149300  0.74807200  1
  Li  Li9  1  0.26912300  0.57850700  0.25192800  1
  Li  Li10  1  0.24726300  0.24861000  0.25099300  1
  Li  Li11  1  0.27474300  0.57610200  0.74964400  1
  Li  Li12  1  0.25281700  0.25432400  0.75329800  1
  Mn  Mn0  1  0.00126100  0.66572700  0.99968700  1
  Mn  Mn1  1  0.99873900  0.33427300  0.00031300  1
  Mn  Mn2  1  0.00311200  0.66364900  0.49991300  1
  Mn  Mn3  1  0.99688800  0.33635100  0.50008700  1
  Mn  Mn4  1  0.50019900  0.16648500  0.00022100  1
  Mn  Mn5  1  0.49980100  0.83351500  0.99977900  1
  Mn  Mn6  1  0.50012000  0.16863000  0.49997600  1
  Mn  Mn7  1  0.49988000  0.83137000  0.50002400  1
  O  O0  1  0.13994800  0.14085300  0.38516000  1
  O  O1  1  0.14254900  0.78160500  0.38804000  1
  O  O2  1  0.09017900  0.46058300  0.38535100  1
  O  O3  1  0.91181700  0.53948900  0.11446600  1
  O  O4  1  0.14639100  0.14683100  0.88339900  1
  O  O5  1  0.14732100  0.77439300  0.88500200  1
  O  O6  1  0.85267900  0.22560700  0.11499800  1
  O  O7  1  0.85360900  0.85316900  0.11660100  1
  O  O8  1  0.08818300  0.46051100  0.88553400  1
  O  O9  1  0.90982100  0.53941700  0.61464900  1
  O  O10  1  0.85745100  0.21839500  0.61196000  1
  O  O11  1  0.86005200  0.85914700  0.61484000  1
  O  O12  1  0.64664500  0.64527400  0.38335400  1
  O  O13  1  0.64487900  0.27628400  0.38581600  1
  O  O14  1  0.60471800  0.96204800  0.38896400  1
  O  O15  1  0.41063800  0.03898300  0.11446100  1
  O  O16  1  0.64727400  0.64700600  0.88266400  1
  O  O17  1  0.64621300  0.27456100  0.88571000  1
  O  O18  1  0.35378700  0.72543900  0.11429000  1
  O  O19  1  0.35272600  0.35299400  0.11733600  1
  O  O20  1  0.58936200  0.96101700  0.88553900  1
  O  O21  1  0.39528200  0.03795200  0.61103600  1
  O  O22  1  0.35512100  0.72371600  0.61418400  1
  O  O23  1  0.35335500  0.35472600  0.61664600  1
loop_
_geom_bond_atom_site_label_1
_geom_bond_atom_site_label_2
_geom_bond_distance
_geom_bond_site_symmetry_2
Li0 O18 2.008783 1_555
Li0 O14 2.078224 1_555
Li0 O0 2.094525 1_565
Li0 O7 2.126727 1_455
Li0 O15 2.187563 1_565
Li0 O1 2.243625 1_555
Li1 O20 2.018834 1_555
Li1 O22 2.056279 1_555
Li1 O11 2.083247 1_455
Li1 O4 2.088768 1_565
Li1 O5 2.188689 1_555
Li1 O21 2.250522 1_565
Li2 O14 2.072607 1_445
Li2 O21 2.072607 1_555
Li2 O10 2.091277 1_455
Li2 O1 2.091277 1_545
Li2 O0 2.112054 1_555
Li2 O11 2.112054 1_445
Li3 O15 2.018834 1_555
Li3 O13 2.056279 1_555
Li3 O0 2.083247 1_655
Li3 O7 2.088768 1_545
Li3 O6 2.188689 1_555
Li3 O14 2.250522 1_545
Li4 O7 1.966658 1_555
Li4 O12 1.972868 1_555
Li4 O3 2.149311 1_555
Li4 O18 2.157957 1_555
Li4 O1 2.197599 1_655
Li4 O14 2.203058 1_555
Li5 O6 2.036361 1_555
Li5 O2 2.048857 1_655
Li5 O12 2.076432 1_555
Li5 O19 2.080469 1_555
Li5 O13 2.218522 1_555
Li5 O3 2.243994 1_555
Li6 O17 2.008783 1_555
Li6 O21 2.078224 1_555
Li6 O11 2.094525 1_545
Li6 O4 2.126727 1_655
Li6 O20 2.187563 1_545
Li6 O10 2.243625 1_555
Li7 O16 1.978125 1_555
Li7 O11 2.005520 1_555
Li7 O9 2.173858 1_555
Li7 O5 2.176981 1_655
Li7 O22 2.180445 1_555
Li7 O20 2.185262 1_555
Li8 O8 2.031294 1_655
Li8 O10 2.065243 1_555
Li8 O23 2.089699 1_555
Li8 O16 2.116688 1_555
Li8 O9 2.216820 1_555
Li8 O17 2.238564 1_555
Li9 O3 2.031294 1_455
Li9 O1 2.065243 1_555
Li9 O12 2.089699 1_555
Li9 O19 2.116688 1_555
Li9 O2 2.216820 1_555
Li9 O18 2.238564 1_555
Li10 O19 1.978125 1_555
Li10 O0 2.005520 1_555
Li10 O2 2.173858 1_555
Li10 O6 2.176981 1_455
Li10 O13 2.180445 1_555
Li10 O15 2.185262 1_555
Li11 O5 2.036361 1_555
Li11 O9 2.048857 1_455
Li11 O23 2.076432 1_555
Li11 O16 2.080469 1_555
Li11 O22 2.218522 1_555
Li11 O8 2.243994 1_555
Li12 O4 1.966658 1_555
Li12 O23 1.972868 1_555
Li12 O8 2.149311 1_555
Li12 O17 2.157957 1_555
Li12 O10 2.197599 1_455
Li12 O21 2.203058 1_555
Mn0 O8 1.909682 1_555
Mn0 O18 1.916733 1_556
Mn0 O3 1.920693 1_456
Mn0 O5 1.927804 1_555
Mn0 O16 1.931771 1_455
Mn0 O7 1.934263 1_456
Mn1 O3 1.909682 1_555
Mn1 O17 1.916733 1_554
Mn1 O8 1.920693 1_654
Mn1 O6 1.927804 1_555
Mn1 O19 1.931771 1_655
Mn1 O4 1.934263 1_654
Mn2 O2 1.897574 1_555
Mn2 O22 1.913672 1_555
Mn2 O9 1.913969 1_455
Mn2 O12 1.939979 1_455
Mn2 O1 1.944154 1_555
Mn2 O11 1.961871 1_455
Mn3 O9 1.897574 1_555
Mn3 O13 1.913672 1_555
Mn3 O2 1.913969 1_655
Mn3 O23 1.939979 1_655
Mn3 O10 1.944154 1_555
Mn3 O0 1.961871 1_655
Mn4 O6 1.916726 1_555
Mn4 O20 1.916981 1_544
Mn4 O17 1.922846 1_554
Mn4 O15 1.924635 1_555
Mn4 O4 1.929436 1_554
Mn4 O19 1.929438 1_555
Mn5 O5 1.916726 1_555
Mn5 O15 1.916981 1_566
Mn5 O18 1.922846 1_556
Mn5 O20 1.924635 1_555
Mn5 O7 1.929436 1_556
Mn5 O16 1.929438 1_555
Mn6 O13 1.914490 1_555
Mn6 O10 1.919792 1_555
Mn6 O23 1.923429 1_555
Mn6 O14 1.936979 1_545
Mn6 O0 1.941914 1_555
Mn6 O21 1.946153 1_555
Mn7 O22 1.914490 1_555
Mn7 O1 1.919792 1_555
Mn7 O12 1.923429 1_555
Mn7 O21 1.936979 1_565
Mn7 O11 1.941914 1_555
Mn7 O14 1.946153 1_555
