# generated using pymatgen
data_LiVCSO7
_symmetry_space_group_name_H-M   'P 1'
_cell_length_a   9.62088318
_cell_length_b   6.42295000
_cell_length_c   5.28360515
_cell_angle_alpha   90.00188299
_cell_angle_beta   87.22443609
_cell_angle_gamma   89.99757624
_symmetry_Int_Tables_number   1
_chemical_formula_structural   LiVCSO7
_chemical_formula_sum   'Li2 V2 C2 S2 O14'
_cell_volume   326.11446180
_cell_formula_units_Z   2
loop_
 _symmetry_equiv_pos_site_id
 _symmetry_equiv_pos_as_xyz
  1  'x, y, z'
loop_
 _atom_site_type_symbol
 _atom_site_label
 _atom_site_symmetry_multiplicity
 _atom_site_fract_x
 _atom_site_fract_y
 _atom_site_fract_z
 _atom_site_occupancy
  Li  Li0  1  0.11102800  0.58401500  0.25837200  1
  Li  Li1  1  0.88903700  0.08406900  0.74161500  1
  V  V0  1  0.34568600  0.72662700  0.78066400  1
  V  V1  1  0.65412600  0.22657300  0.21931000  1
  C  C0  1  0.09462400  0.76309100  0.73364900  1
  C  C1  1  0.90537700  0.26308100  0.26637800  1
  S  S0  1  0.42839800  0.22747300  0.72771900  1
  S  S1  1  0.57160300  0.72735700  0.27226000  1
  O  O0  1  0.02719400  0.31725100  0.29864800  1
  O  O1  1  0.15135300  0.74049500  0.95545300  1
  O  O2  1  0.18853900  0.72623500  0.54348600  1
  O  O3  1  0.33889500  0.04345200  0.78078700  1
  O  O4  1  0.33867600  0.41134900  0.78747400  1
  O  O5  1  0.44807700  0.72610200  0.11468000  1
  O  O6  1  0.47449700  0.23206200  0.45568500  1
  O  O7  1  0.52553000  0.73207100  0.54429600  1
  O  O8  1  0.55192300  0.22608100  0.88526000  1
  O  O9  1  0.66140400  0.91117100  0.21257800  1
  O  O10  1  0.66108100  0.54320800  0.21926800  1
  O  O11  1  0.81147200  0.22622800  0.45651500  1
  O  O12  1  0.84866100  0.24045900  0.04456900  1
  O  O13  1  0.97281800  0.81725500  0.70133300  1
loop_
_geom_bond_atom_site_label_1
_geom_bond_atom_site_label_2
_geom_bond_distance
_geom_bond_site_symmetry_2
Li0 O0 1.901346 1_555
Li0 O1 1.913709 1_554
Li0 O2 1.941296 1_555
Li1 O13 1.901351 1_545
Li1 O12 1.913566 1_556
Li1 O11 1.941289 1_555
C0 O13 1.242110 1_455
C0 O1 1.324500 1_555
C0 O2 1.339400 1_555
C1 O0 1.242201 1_655
C1 O12 1.324482 1_555
C1 O11 1.339262 1_555
O1 V0 2.046750 1_555
O2 V0 2.009904 1_555
O3 S0 1.481167 1_555
O3 V0 2.035996 1_545
O4 S0 1.487656 1_555
O4 V0 2.026403 1_555
O5 S1 1.483733 1_555
O5 V0 2.062362 1_554
O6 S0 1.483822 1_555
O6 V1 2.082936 1_555
O7 S1 1.483783 1_555
O7 V0 2.084571 1_555
O8 S0 1.483607 1_555
O8 V1 2.061581 1_556
O9 S1 1.487777 1_555
O9 V1 2.027269 1_565
O10 S1 1.481549 1_555
O10 V1 2.034834 1_555
O11 V1 2.011496 1_555
O12 V1 2.048394 1_555
