# generated using pymatgen
data_LiP4WO12
_symmetry_space_group_name_H-M   'P 1'
_cell_length_a   8.31846600
_cell_length_b   11.89176000
_cell_length_c   12.92415778
_cell_angle_alpha   57.47735723
_cell_angle_beta   90.00000000
_cell_angle_gamma   90.00000000
_symmetry_Int_Tables_number   1
_chemical_formula_structural   LiP4WO12
_chemical_formula_sum   'Li4 P16 W4 O48'
_cell_volume   1077.98182105
_cell_formula_units_Z   4
loop_
 _symmetry_equiv_pos_site_id
 _symmetry_equiv_pos_as_xyz
  1  'x, y, z'
loop_
 _atom_site_type_symbol
 _atom_site_label
 _atom_site_symmetry_multiplicity
 _atom_site_fract_x
 _atom_site_fract_y
 _atom_site_fract_z
 _atom_site_occupancy
  Li  Li0  1  0.06384500  0.41326600  0.64676200  1
  Li  Li1  1  0.56384500  0.58673400  0.85323800  1
  Li  Li2  1  0.43615500  0.41326600  0.14676200  1
  Li  Li3  1  0.93615500  0.58673400  0.35323800  1
  P  P0  1  0.63194900  0.21420800  0.80999900  1
  P  P1  1  0.43190500  0.37544900  0.87610700  1
  P  P2  1  0.83032900  0.71151000  0.94854300  1
  P  P3  1  0.93190500  0.62455100  0.62389300  1
  P  P4  1  0.97709700  0.96653400  0.75197400  1
  P  P5  1  0.13194900  0.78579200  0.69000100  1
  P  P6  1  0.47709700  0.03346600  0.74802600  1
  P  P7  1  0.66967100  0.71151000  0.44854300  1
  P  P8  1  0.33032900  0.28849000  0.55145700  1
  P  P9  1  0.52290300  0.96653400  0.25197400  1
  P  P10  1  0.86805100  0.21420800  0.30999900  1
  P  P11  1  0.02290300  0.03346600  0.24802600  1
  P  P12  1  0.06809500  0.37544900  0.37610700  1
  P  P13  1  0.16967100  0.28849000  0.05145700  1
  P  P14  1  0.56809500  0.62455100  0.12389300  1
  P  P15  1  0.36805100  0.78579200  0.19000100  1
  W  W0  1  0.76719000  0.23113300  0.04967000  1
  W  W1  1  0.23281000  0.76886700  0.95033000  1
  W  W2  1  0.26719000  0.76886700  0.45033000  1
  W  W3  1  0.73281000  0.23113300  0.54967000  1
  O  O0  1  0.74078800  0.17775500  0.91579900  1
  O  O1  1  0.29281700  0.27134900  0.96224500  1
  O  O2  1  0.00700600  0.32128800  0.98996900  1
  O  O3  1  0.57363800  0.37630500  0.95242700  1
  O  O4  1  0.48300900  0.30173200  0.80683600  1
  O  O5  1  0.75316500  0.62529600  0.91212200  1
  O  O6  1  0.87423900  0.48633000  0.71077400  1
  O  O7  1  0.20503000  0.71652400  0.81581300  1
  O  O8  1  0.37423900  0.51367000  0.78922600  1
  O  O9  1  0.42525100  0.89223900  0.83236800  1
  O  O10  1  0.10097800  0.94930600  0.84401700  1
  O  O11  1  0.83133000  0.86567000  0.82664200  1
  O  O12  1  0.54441500  0.07902200  0.83832400  1
  O  O13  1  0.98300900  0.69826800  0.69316400  1
  O  O14  1  0.07363800  0.62369500  0.54757300  1
  O  O15  1  0.50700600  0.67871200  0.51003100  1
  O  O16  1  0.04441500  0.92097800  0.66167600  1
  O  O17  1  0.79281700  0.72865100  0.53775500  1
  O  O18  1  0.24078800  0.82224500  0.58420100  1
  O  O19  1  0.33133000  0.13433000  0.67335800  1
  O  O20  1  0.60097800  0.05069400  0.65598300  1
  O  O21  1  0.92525100  0.10776100  0.66763200  1
  O  O22  1  0.74683500  0.62529600  0.41212200  1
  O  O23  1  0.70503000  0.28347600  0.68418700  1
  O  O24  1  0.29497000  0.71652400  0.31581300  1
  O  O25  1  0.25316500  0.37470400  0.58787800  1
  O  O26  1  0.07474900  0.89223900  0.33236800  1
  O  O27  1  0.39902200  0.94930600  0.34401700  1
  O  O28  1  0.66867000  0.86567000  0.32664200  1
  O  O29  1  0.75921200  0.17775500  0.41579900  1
  O  O30  1  0.20718300  0.27134900  0.46224500  1
  O  O31  1  0.95558500  0.07902200  0.33832400  1
  O  O32  1  0.49299400  0.32128800  0.48996900  1
  O  O33  1  0.92636200  0.37630500  0.45242700  1
  O  O34  1  0.01699100  0.30173200  0.30683600  1
  O  O35  1  0.45558500  0.92097800  0.16167600  1
  O  O36  1  0.16867000  0.13433000  0.17335800  1
  O  O37  1  0.89902200  0.05069400  0.15598300  1
  O  O38  1  0.57474900  0.10776100  0.16763200  1
  O  O39  1  0.62576100  0.48633000  0.21077400  1
  O  O40  1  0.79497000  0.28347600  0.18418700  1
  O  O41  1  0.12576100  0.51367000  0.28922600  1
  O  O42  1  0.24683500  0.37470400  0.08787800  1
  O  O43  1  0.51699100  0.69826800  0.19316400  1
  O  O44  1  0.42636200  0.62369500  0.04757300  1
  O  O45  1  0.99299400  0.67871200  0.01003100  1
  O  O46  1  0.70718300  0.72865100  0.03775500  1
  O  O47  1  0.25921200  0.82224500  0.08420100  1
loop_
_geom_bond_atom_site_label_1
_geom_bond_atom_site_label_2
_geom_bond_distance
_geom_bond_site_symmetry_2
Li0 O25 1.909151 1_555
Li0 O14 2.112471 1_555
Li0 O6 2.167928 1_455
Li1 O5 1.909151 1_555
Li1 O3 2.112471 1_555
Li1 O8 2.167928 1_555
Li2 O42 1.909151 1_555
Li2 O44 2.112471 1_555
Li2 O39 2.167928 1_555
Li3 O22 1.909151 1_555
Li3 O33 2.112471 1_555
Li3 O41 2.167928 1_655
O0 P0 1.496654 1_555
O0 W0 2.150707 1_556
O1 P1 1.621297 1_555
O1 P13 1.634935 1_556
O2 P13 1.510399 1_556
O2 W0 2.198840 1_456
O3 P1 1.540738 1_555
O3 W0 2.195250 1_556
O4 P0 1.604437 1_555
O4 P1 1.610770 1_555
O5 P2 1.484455 1_555
O6 P3 1.485966 1_555
O7 P5 1.500605 1_555
O7 W1 2.151019 1_555
O8 P1 1.485966 1_555
O9 P6 1.492067 1_565
O9 W1 2.152732 1_555
O10 P4 1.502313 1_455
O10 W1 2.127097 1_555
O11 P4 1.611096 1_555
O11 P2 1.654488 1_555
O12 P0 1.617340 1_555
O12 P6 1.627521 1_555
O13 P5 1.604437 1_655
O13 P3 1.610770 1_555
O14 P3 1.540738 1_455
O14 W2 2.195250 1_555
O15 P7 1.510399 1_555
O15 W2 2.198840 1_555
O16 P5 1.617340 1_555
O16 P4 1.627521 1_455
O17 P3 1.621297 1_555
O17 P7 1.634935 1_555
O18 P5 1.496654 1_555
O18 W2 2.150707 1_555
O19 P6 1.611096 1_555
O19 P8 1.654488 1_555
O20 P6 1.502313 1_555
O20 W3 2.127097 1_555
O21 P4 1.492067 1_545
O21 W3 2.152732 1_555
O22 P7 1.484455 1_555
O23 P0 1.500605 1_555
O23 W3 2.151019 1_555
O24 P15 1.500605 1_555
O24 W2 2.151019 1_555
O25 P8 1.484455 1_555
O26 P11 1.492067 1_565
O26 W2 2.152732 1_555
O27 P9 1.502313 1_555
O27 W2 2.127097 1_555
O28 P9 1.611096 1_555
O28 P7 1.654488 1_555
O29 P10 1.496654 1_555
O29 W3 2.150707 1_555
O30 P12 1.621297 1_555
O30 P8 1.634935 1_555
O31 P10 1.617340 1_555
O31 P11 1.627521 1_655
O32 P8 1.510399 1_555
O32 W3 2.198840 1_555
O33 P12 1.540738 1_655
O33 W3 2.195250 1_555
O34 P10 1.604437 1_455
O34 P12 1.610770 1_555
O35 P15 1.617340 1_555
O35 P9 1.627521 1_555
O36 P11 1.611096 1_555
O36 P13 1.654488 1_555
O37 P11 1.502313 1_655
O37 W0 2.127097 1_555
O38 P9 1.492067 1_545
O38 W0 2.152732 1_555
O39 P14 1.485966 1_555
O40 P10 1.500605 1_555
O40 W0 2.151019 1_555
O41 P12 1.485966 1_555
O42 P13 1.484455 1_555
O43 P15 1.604437 1_555
O43 P14 1.610770 1_555
O44 P14 1.540738 1_555
O44 W1 2.195250 1_554
O45 P2 1.510399 1_554
O45 W1 2.198840 1_654
O46 P14 1.621297 1_555
O46 P2 1.634935 1_554
O47 P15 1.496654 1_555
O47 W1 2.150707 1_554
