# generated using pymatgen
data_LiMnO2
_symmetry_space_group_name_H-M   'P 1'
_cell_length_a   5.19861841
_cell_length_b   10.20588194
_cell_length_c   7.97993006
_cell_angle_alpha   71.16089116
_cell_angle_beta   77.47109593
_cell_angle_gamma   98.34761674
_symmetry_Int_Tables_number   1
_chemical_formula_structural   LiMnO2
_chemical_formula_sum   'Li10 Mn10 O20'
_cell_volume   380.40145680
_cell_formula_units_Z   10
loop_
 _symmetry_equiv_pos_site_id
 _symmetry_equiv_pos_as_xyz
  1  'x, y, z'
loop_
 _atom_site_type_symbol
 _atom_site_label
 _atom_site_symmetry_multiplicity
 _atom_site_fract_x
 _atom_site_fract_y
 _atom_site_fract_z
 _atom_site_occupancy
  Li  Li0  1  0.99999600  0.00000300  0.49998300  1
  Li  Li1  1  0.49998200  0.49999400  0.99999900  1
  Li  Li2  1  0.59059100  0.09753600  0.30918300  1
  Li  Li3  1  0.09057300  0.59754900  0.80917500  1
  Li  Li4  1  0.40936700  0.90244900  0.69082100  1
  Li  Li5  1  0.90940100  0.40242900  0.19084500  1
  Li  Li6  1  0.70574100  0.19792100  0.57163100  1
  Li  Li7  1  0.20572100  0.69792700  0.07162300  1
  Li  Li8  1  0.29423900  0.80206600  0.42834200  1
  Li  Li9  1  0.79424200  0.30205300  0.92838800  1
  Mn  Mn0  1  0.50029700  0.00010900  0.99999200  1
  Mn  Mn1  1  0.80188600  0.79721600  0.89270400  1
  Mn  Mn2  1  0.19811200  0.20276900  0.10730000  1
  Mn  Mn3  1  0.59862900  0.60188700  0.29100600  1
  Mn  Mn4  1  0.40134000  0.39809300  0.70896900  1
  Mn  Mn5  1  0.00010200  0.50004400  0.50013000  1
  Mn  Mn6  1  0.30190400  0.29725800  0.39271100  1
  Mn  Mn7  1  0.69805100  0.70276400  0.60727800  1
  Mn  Mn8  1  0.09868500  0.10189500  0.79098400  1
  Mn  Mn9  1  0.90133900  0.89807200  0.20897400  1
  O  O0  1  0.62120400  0.39069800  0.44185800  1
  O  O1  1  0.12113400  0.89067900  0.94181500  1
  O  O2  1  0.37875500  0.60929300  0.55814900  1
  O  O3  1  0.87881500  0.10931200  0.05816200  1
  O  O4  1  0.05812300  0.30539300  0.61880500  1
  O  O5  1  0.55809100  0.80539700  0.11873000  1
  O  O6  1  0.94183900  0.69458800  0.38124500  1
  O  O7  1  0.44193300  0.19463400  0.88122200  1
  O  O8  1  0.99062300  0.20346600  0.33609200  1
  O  O9  1  0.49050700  0.70344500  0.83608900  1
  O  O10  1  0.00940200  0.79652600  0.66386900  1
  O  O11  1  0.50949900  0.29654900  0.16388400  1
  O  O12  1  0.27410200  0.01023300  0.22650700  1
  O  O13  1  0.77400300  0.51021000  0.72660600  1
  O  O14  1  0.72592700  0.98978200  0.77343500  1
  O  O15  1  0.22588200  0.48977700  0.27353600  1
  O  O16  1  0.34762800  0.11696800  0.53633900  1
  O  O17  1  0.84756100  0.61697600  0.03629600  1
  O  O18  1  0.65236400  0.88302000  0.46365300  1
  O  O19  1  0.15240800  0.38302300  0.96367300  1
loop_
_geom_bond_atom_site_label_1
_geom_bond_atom_site_label_2
_geom_bond_distance
_geom_bond_site_symmetry_2
Li0 O8 2.080356 1_555
Li0 O10 2.080510 1_645
Li0 O18 2.144723 1_545
Li0 O16 2.144739 1_655
Li0 O14 2.294231 1_545
Li0 O12 2.294430 1_655
Li1 O11 2.080422 1_556
Li1 O9 2.080467 1_555
Li1 O17 2.144369 1_556
Li1 O19 2.144410 1_555
Li1 O13 2.293769 1_555
Li1 O15 2.294855 1_556
Li2 O16 2.057199 1_555
Li2 O12 2.088331 1_555
Li2 O11 2.141786 1_555
Li2 O3 2.182224 1_555
Li2 O18 2.246937 1_545
Li2 O8 2.287043 1_555
Li3 O17 2.057069 1_456
Li3 O13 2.088284 1_455
Li3 O10 2.141692 1_555
Li3 O2 2.182260 1_555
Li3 O19 2.247210 1_555
Li3 O9 2.286493 1_555
Li4 O18 2.057337 1_555
Li4 O14 2.088442 1_555
Li4 O9 2.141756 1_555
Li4 O1 2.182105 1_555
Li4 O16 2.246916 1_565
Li4 O10 2.286869 1_555
Li5 O19 2.057274 1_654
Li5 O15 2.088563 1_655
Li5 O8 2.141567 1_555
Li5 O0 2.182265 1_555
Li5 O17 2.247504 1_555
Li5 O11 2.286456 1_555
Li6 O16 2.039352 1_555
Li6 O0 2.066188 1_555
Li6 O8 2.104430 1_555
Li6 O4 2.164043 1_655
Li6 O14 2.246226 1_545
Li6 O7 2.539395 1_555
Li7 O17 2.039692 1_455
Li7 O1 2.066165 1_554
Li7 O9 2.104248 1_554
Li7 O5 2.163704 1_555
Li7 O15 2.246630 1_555
Li7 O6 2.539530 1_455
Li8 O18 2.039481 1_555
Li8 O2 2.066170 1_555
Li8 O10 2.104260 1_555
Li8 O6 2.163825 1_455
Li8 O12 2.246450 1_565
Li8 O5 2.539442 1_555
Li9 O19 2.039625 1_655
Li9 O3 2.065974 1_556
Li9 O11 2.103965 1_556
Li9 O7 2.163464 1_555
Li9 O13 2.246378 1_555
Li9 O4 2.539259 1_655
Mn0 O14 1.973420 1_545
Mn0 O12 1.973436 1_556
Mn0 O7 2.004052 1_555
Mn0 O5 2.004469 1_546
Mn0 O3 2.328813 1_556
Mn0 O1 2.332562 1_545
Mn1 O17 1.907027 1_556
Mn1 O10 1.911611 1_655
Mn1 O1 1.970241 1_655
Mn1 O9 1.971554 1_555
Mn1 O5 2.000671 1_556
Mn1 O14 2.025978 1_555
Mn2 O19 1.907287 1_554
Mn2 O8 1.911302 1_455
Mn2 O3 1.970539 1_455
Mn2 O11 1.971488 1_555
Mn2 O7 2.000854 1_554
Mn2 O12 2.025691 1_555
Mn3 O17 2.104405 1_555
Mn3 O0 2.137190 1_555
Mn3 O5 2.158011 1_555
Mn3 O15 2.158701 1_555
Mn3 O2 2.220067 1_555
Mn3 O6 2.259284 1_555
Mn4 O19 2.104430 1_555
Mn4 O2 2.137237 1_555
Mn4 O7 2.157653 1_555
Mn4 O13 2.158940 1_555
Mn4 O0 2.219784 1_555
Mn4 O4 2.258935 1_555
Mn5 O13 1.973170 1_455
Mn5 O15 1.973705 1_555
Mn5 O6 2.004180 1_455
Mn5 O4 2.004309 1_555
Mn5 O2 2.328938 1_555
Mn5 O0 2.331481 1_455
Mn6 O16 1.907620 1_555
Mn6 O11 1.911781 1_555
Mn6 O0 1.970516 1_555
Mn6 O8 1.971258 1_455
Mn6 O4 2.000861 1_555
Mn6 O15 2.025566 1_555
Mn7 O18 1.907263 1_555
Mn7 O9 1.911467 1_555
Mn7 O2 1.970557 1_555
Mn7 O10 1.971289 1_655
Mn7 O6 2.000676 1_555
Mn7 O13 2.025952 1_555
Mn8 O16 2.104062 1_555
Mn8 O1 2.137166 1_545
Mn8 O4 2.157694 1_555
Mn8 O14 2.159033 1_445
Mn8 O3 2.220347 1_456
Mn8 O7 2.259595 1_555
Mn9 O18 2.104417 1_555
Mn9 O3 2.137459 1_565
Mn9 O6 2.157718 1_555
Mn9 O12 2.159206 1_665
Mn9 O1 2.219993 1_654
Mn9 O5 2.259359 1_555
