# generated using pymatgen
data_Li9Co13O28
_symmetry_space_group_name_H-M   'P 1'
_cell_length_a   7.43895300
_cell_length_b   8.10505950
_cell_length_c   8.52559427
_cell_angle_alpha   101.55307770
_cell_angle_beta   104.42706791
_cell_angle_gamma   105.23708526
_symmetry_Int_Tables_number   1
_chemical_formula_structural   Li9Co13O28
_chemical_formula_sum   'Li9 Co13 O28'
_cell_volume   460.48938007
_cell_formula_units_Z   1
loop_
 _symmetry_equiv_pos_site_id
 _symmetry_equiv_pos_as_xyz
  1  'x, y, z'
loop_
 _atom_site_type_symbol
 _atom_site_label
 _atom_site_symmetry_multiplicity
 _atom_site_fract_x
 _atom_site_fract_y
 _atom_site_fract_z
 _atom_site_occupancy
  Li  Li0  1  0.90277300  0.27026100  0.22034600  1
  Li  Li1  1  0.22427800  0.13879600  0.34695200  1
  Li  Li2  1  0.30634200  0.35637900  0.13988200  1
  Li  Li3  1  0.71064900  0.64467100  0.86830600  1
  Li  Li4  1  0.00416100  0.49879700  0.00288000  1
  Li  Li5  1  0.77885400  0.87220300  0.63565300  1
  Li  Li6  1  0.42045400  0.78417800  0.71194800  1
  Li  Li7  1  0.07077100  0.72056000  0.79549600  1
  Li  Li8  1  0.14369700  0.93866200  0.56113300  1
  Co  Co0  1  0.71808000  0.13964600  0.85858900  1
  Co  Co1  1  0.35608200  0.07536700  0.93696600  1
  Co  Co2  1  0.07055600  0.21125900  0.78857900  1
  Co  Co3  1  0.78208100  0.34752200  0.63682700  1
  Co  Co4  1  0.43249200  0.29152200  0.72115800  1
  Co  Co5  1  0.14494800  0.43003200  0.57378500  1
  Co  Co6  1  0.50052100  0.49906800  0.50036500  1
  Co  Co7  1  0.85617700  0.56797800  0.42675200  1
  Co  Co8  1  0.57115700  0.71407000  0.28319300  1
  Co  Co9  1  0.21779200  0.64808100  0.36057300  1
  Co  Co10  1  0.92785900  0.78758300  0.20771700  1
  Co  Co11  1  0.64503700  0.92621200  0.06836500  1
  Co  Co12  1  0.28309200  0.85842200  0.14055100  1
  O  O0  1  0.90111700  0.00383400  0.20055100  1
  O  O1  1  0.79943200  0.12340000  0.66339300  1
  O  O2  1  0.44160800  0.06378400  0.74078300  1
  O  O3  1  0.98295300  0.24367200  0.97359600  1
  O  O4  1  0.29262300  0.08593700  0.12605000  1
  O  O5  1  0.63467500  0.15327800  0.05236600  1
  O  O6  1  0.70640900  0.36783700  0.83506700  1
  O  O7  1  0.34437600  0.30021600  0.91326000  1
  O  O8  1  0.50412400  0.27292400  0.52561900  1
  O  O9  1  0.87381700  0.34962500  0.44690400  1
  O  O10  1  0.16364400  0.20523500  0.59546100  1
  O  O11  1  0.05316500  0.43702700  0.76497000  1
  O  O12  1  0.42291700  0.51692700  0.69834100  1
  O  O13  1  0.77802200  0.58545800  0.62518300  1
  O  O14  1  0.22549800  0.41395300  0.37423300  1
  O  O15  1  0.58556900  0.49005900  0.30757000  1
  O  O16  1  0.94583700  0.56013800  0.23814900  1
  O  O17  1  0.84596900  0.79551700  0.40765000  1
  O  O18  1  0.12996300  0.66221000  0.55794900  1
  O  O19  1  0.49432200  0.72935800  0.48113800  1
  O  O20  1  0.65509700  0.69928400  0.08887800  1
  O  O21  1  0.29836700  0.62865900  0.16706200  1
  O  O22  1  0.36564200  0.84486200  0.94363400  1
  O  O23  1  0.69759500  0.90924300  0.86302300  1
  O  O24  1  0.00823600  0.74931200  0.02441200  1
  O  O25  1  0.55511900  0.93034800  0.25489500  1
  O  O26  1  0.19930400  0.87705600  0.33767500  1
  O  O27  1  0.09493900  0.99260200  0.78763700  1
loop_
_geom_bond_atom_site_label_1
_geom_bond_atom_site_label_2
_geom_bond_distance
_geom_bond_site_symmetry_2
Li0 O5 1.991588 1_555
Li0 O9 1.993364 1_555
Li0 O0 2.128539 1_555
Li0 O16 2.254549 1_555
Li0 O14 2.278164 1_655
Li0 O3 2.310611 1_554
Li1 O4 2.063336 1_555
Li1 O26 2.063855 1_545
Li1 O8 2.098301 1_555
Li1 O14 2.192795 1_555
Li1 O0 2.260380 1_455
Li1 O10 2.264758 1_555
Li2 O7 2.002007 1_554
Li2 O15 2.061370 1_555
Li2 O4 2.145191 1_555
Li2 O21 2.190483 1_555
Li2 O14 2.223546 1_555
Li2 O3 2.293101 1_454
Li3 O20 2.013202 1_556
Li3 O12 2.107570 1_555
Li3 O24 2.117573 1_656
Li3 O23 2.180768 1_555
Li3 O6 2.195314 1_555
Li3 O13 2.241317 1_555
Li4 O3 1.991267 1_454
Li4 O24 1.993207 1_555
Li4 O21 2.128281 1_555
Li4 O11 2.134305 1_554
Li4 O16 2.146223 1_455
Li4 O6 2.157893 1_454
Li5 O1 1.962090 1_565
Li5 O19 2.065791 1_555
Li5 O17 2.139379 1_555
Li5 O23 2.158551 1_555
Li5 O27 2.220207 1_655
Li5 O13 2.306176 1_555
Li6 O23 1.998056 1_555
Li6 O18 2.077077 1_555
Li6 O22 2.104143 1_555
Li6 O12 2.151043 1_555
Li6 O19 2.165296 1_555
Li6 O2 2.188855 1_565
Li7 O22 2.090443 1_555
Li7 O24 2.099247 1_556
Li7 O13 2.141029 1_455
Li7 O18 2.165474 1_555
Li7 O27 2.180661 1_555
Li7 O11 2.225125 1_555
Li8 O27 2.036165 1_555
Li8 O26 2.042085 1_555
Li8 O10 2.081438 1_565
Li8 O17 2.135586 1_455
Li8 O2 2.188785 1_565
Li8 O18 2.210353 1_555
Co0 O3 1.840546 1_555
Co0 O23 1.842149 1_545
Co0 O5 1.897408 1_556
Co0 O1 1.899726 1_555
Co0 O2 1.917112 1_555
Co0 O6 1.921640 1_555
Co1 O4 1.781585 1_556
Co1 O27 1.893463 1_545
Co1 O7 1.895205 1_555
Co1 O22 1.899746 1_545
Co1 O5 1.925873 1_556
Co1 O2 1.926099 1_555
Co2 O27 1.826950 1_545
Co2 O3 1.848795 1_455
Co2 O1 1.892623 1_455
Co2 O7 1.908143 1_555
Co2 O11 1.914324 1_555
Co2 O10 1.935558 1_555
Co3 O11 1.897950 1_655
Co3 O6 1.900475 1_555
Co3 O1 1.908188 1_555
Co3 O9 1.908760 1_555
Co3 O8 1.917366 1_555
Co3 O13 1.958474 1_555
Co4 O8 1.862810 1_555
Co4 O10 1.879885 1_555
Co4 O12 1.893251 1_555
Co4 O6 1.894361 1_555
Co4 O2 1.903556 1_555
Co4 O7 1.905247 1_555
Co5 O9 1.898005 1_455
Co5 O10 1.904838 1_555
Co5 O11 1.914172 1_555
Co5 O14 1.931494 1_555
Co5 O12 1.933973 1_555
Co5 O18 1.943300 1_555
Co6 O8 1.894110 1_555
Co6 O15 1.897818 1_555
Co6 O12 1.906488 1_555
Co6 O19 1.917525 1_555
Co6 O14 1.919024 1_555
Co6 O13 1.931645 1_555
Co7 O9 1.847005 1_555
Co7 O15 1.881255 1_555
Co7 O16 1.884188 1_555
Co7 O17 1.902939 1_555
Co7 O13 1.912453 1_555
Co7 O18 1.920295 1_655
Co8 O25 1.846684 1_555
Co8 O21 1.887686 1_555
Co8 O15 1.895660 1_555
Co8 O20 1.903690 1_555
Co8 O19 1.903721 1_555
Co8 O17 1.915743 1_555
Co9 O21 1.882605 1_555
Co9 O16 1.892644 1_455
Co9 O19 1.919638 1_555
Co9 O14 1.939120 1_555
Co9 O26 1.940909 1_555
Co9 O18 1.944636 1_555
Co10 O24 1.806918 1_655
Co10 O0 1.826326 1_565
Co10 O20 1.891478 1_555
Co10 O26 1.903829 1_655
Co10 O17 1.942888 1_555
Co10 O16 1.946125 1_555
Co11 O0 1.819630 1_565
Co11 O25 1.870299 1_555
Co11 O23 1.873362 1_554
Co11 O5 1.892468 1_565
Co11 O20 1.900987 1_555
Co11 O22 1.944956 1_554
Co12 O4 1.856796 1_565
Co12 O25 1.885318 1_555
Co12 O24 1.906060 1_555
Co12 O22 1.919101 1_554
Co12 O26 1.924968 1_555
Co12 O21 1.949095 1_555
