# generated using pymatgen
data_Te2Pd
_symmetry_space_group_name_H-M   'P 1'
_cell_length_a   4.07008754
_cell_length_b   4.07008814
_cell_length_c   5.23308461
_cell_angle_alpha   90.00000000
_cell_angle_beta   90.00000000
_cell_angle_gamma   119.99999511
_symmetry_Int_Tables_number   1
_chemical_formula_structural   Te2Pd
_chemical_formula_sum   'Te2 Pd1'
_cell_volume   75.07510949
_cell_formula_units_Z   1
loop_
 _symmetry_equiv_pos_site_id
 _symmetry_equiv_pos_as_xyz
  1  'x, y, z'
loop_
 _atom_site_type_symbol
 _atom_site_label
 _atom_site_symmetry_multiplicity
 _atom_site_fract_x
 _atom_site_fract_y
 _atom_site_fract_z
 _atom_site_occupancy
  Te  Te0  1  0.33333300  0.66666700  0.26109091  1
  Te  Te1  1  0.66666700  0.33333300  0.73890909  1
  Pd  Pd0  1  -0.00000000  0.00000000  -0.00000000  1
loop_
_geom_bond_atom_site_label_1
_geom_bond_atom_site_label_2
_geom_bond_distance
_geom_bond_site_symmetry_2
Pd0 Te1 2.718210 1_454
Pd0 Te0 2.718210 1_545
Pd0 Te1 2.718213 1_554
Pd0 Te0 2.718213 1_445
Pd0 Te0 2.718213 1_555
Pd0 Te1 2.718213 1_444
