# generated using pymatgen
data_Li4Nb3Ni3(SnO8)2
_symmetry_space_group_name_H-M   'P 1'
_cell_length_a   6.09970036
_cell_length_b   6.09970036
_cell_length_c   9.95003830
_cell_angle_alpha   89.92199340
_cell_angle_beta   89.92199340
_cell_angle_gamma   59.99524550
_symmetry_Int_Tables_number   1
_chemical_formula_structural   Li4Nb3Ni3(SnO8)2
_chemical_formula_sum   'Li4 Nb3 Ni3 Sn2 O16'
_cell_volume   320.59078919
_cell_formula_units_Z   1
loop_
 _symmetry_equiv_pos_site_id
 _symmetry_equiv_pos_as_xyz
  1  'x, y, z'
loop_
 _atom_site_type_symbol
 _atom_site_label
 _atom_site_symmetry_multiplicity
 _atom_site_fract_x
 _atom_site_fract_y
 _atom_site_fract_z
 _atom_site_occupancy
  Li  Li0  1  0.66278700  0.66278700  0.11442300  1
  Li  Li1  1  0.98891400  0.98891400  0.01578000  1
  Li  Li2  1  0.99169100  0.99169100  0.50242700  1
  Li  Li3  1  0.33065500  0.33065500  0.59263200  1
  Nb  Nb0  1  0.34845500  0.82549500  0.78591200  1
  Nb  Nb1  1  0.82549500  0.34845500  0.78591200  1
  Nb  Nb2  1  0.17093400  0.17093400  0.28398600  1
  Ni  Ni0  1  0.83135300  0.83135300  0.78696600  1
  Ni  Ni1  1  0.17076000  0.65821000  0.28725100  1
  Ni  Ni2  1  0.65821000  0.17076000  0.28725100  1
  Sn  Sn0  1  0.67609800  0.67609800  0.49684900  1
  Sn  Sn1  1  0.34257100  0.34257100  0.02017300  1
  O  O0  1  0.33018300  0.84537000  0.40213200  1
  O  O1  1  0.51579400  0.51579400  0.65368100  1
  O  O2  1  0.66688000  0.66688100  0.90599300  1
  O  O3  1  0.00214800  0.00214800  0.69016400  1
  O  O4  1  0.00364100  0.00364100  0.19567700  1
  O  O5  1  0.84537000  0.33018300  0.40213200  1
  O  O6  1  0.51115600  0.95825300  0.66064900  1
  O  O7  1  0.95825300  0.51115600  0.66064900  1
  O  O8  1  0.16943700  0.16943700  0.89526000  1
  O  O9  1  0.84192400  0.84192400  0.40226900  1
  O  O10  1  0.03108500  0.47135900  0.15435300  1
  O  O11  1  0.47135900  0.03108500  0.15435300  1
  O  O12  1  0.32237800  0.32237800  0.39932200  1
  O  O13  1  0.17475800  0.67443700  0.89797700  1
  O  O14  1  0.48295700  0.48295700  0.16000600  1
  O  O15  1  0.67443700  0.17475800  0.89797700  1
loop_
_geom_bond_atom_site_label_1
_geom_bond_atom_site_label_2
_geom_bond_distance
_geom_bond_site_symmetry_2
Li0 O14 1.952640 1_555
Li0 O11 1.986381 1_565
Li0 O10 1.986381 1_655
Li0 O2 2.074269 1_554
Li1 O4 1.796976 1_665
Li1 O13 2.041133 1_654
Li1 O15 2.041133 1_564
Li1 O8 2.251336 1_664
Li2 O9 1.871329 1_555
Li2 O3 1.871428 1_665
Li2 O0 2.051640 1_655
Li2 O5 2.051640 1_565
Li3 O12 1.925566 1_555
Li3 O1 2.049099 1_555
Li3 O7 2.080056 1_455
Li3 O6 2.080056 1_545
Nb0 O6 1.997938 1_555
Nb0 O13 2.045783 1_555
Nb0 O3 2.063255 1_565
Nb0 O2 2.063947 1_555
Nb0 O1 2.101473 1_555
Nb0 O8 2.118798 1_565
Nb1 O7 1.997938 1_555
Nb1 O15 2.045783 1_555
Nb1 O3 2.063255 1_655
Nb1 O2 2.063951 1_555
Nb1 O1 2.101473 1_555
Nb1 O8 2.118798 1_655
Nb2 O12 1.970505 1_555
Nb2 O4 1.975091 1_555
Nb2 O11 2.045141 1_555
Nb2 O10 2.045141 1_555
Nb2 O5 2.082439 1_455
Nb2 O0 2.082439 1_545
Ni0 O3 2.044125 1_665
Ni0 O2 2.101363 1_555
Ni0 O7 2.117896 1_555
Ni0 O6 2.117896 1_555
Ni0 O13 2.126512 1_655
Ni0 O15 2.126512 1_565
Ni1 O4 2.039129 1_565
Ni1 O14 2.081649 1_555
Ni1 O9 2.082769 1_455
Ni1 O12 2.096868 1_555
Ni1 O0 2.161578 1_555
Ni1 O10 2.179858 1_555
Ni2 O4 2.039129 1_655
Ni2 O14 2.081649 1_555
Ni2 O9 2.082769 1_545
Ni2 O12 2.096868 1_555
Ni2 O5 2.161578 1_555
Ni2 O11 2.179858 1_555
O0 Sn0 2.056733 1_555
O1 Sn0 2.301142 1_555
O5 Sn0 2.056733 1_555
O6 Sn0 2.214035 1_555
O7 Sn0 2.214035 1_555
O8 Sn1 2.213121 1_556
O9 Sn0 1.987439 1_555
O10 Sn1 2.124304 1_555
O11 Sn1 2.124304 1_555
O13 Sn1 2.132631 1_556
O14 Sn1 2.035250 1_555
O15 Sn1 2.132631 1_556
