# generated using pymatgen
data_Ba2YCl7
_symmetry_space_group_name_H-M   'P 1'
_cell_length_a   7.63610800
_cell_length_b   12.96505700
_cell_length_c   15.38446600
_cell_angle_alpha   90.00000000
_cell_angle_beta   90.00000000
_cell_angle_gamma   90.00000000
_symmetry_Int_Tables_number   1
_chemical_formula_structural   Ba2YCl7
_chemical_formula_sum   'Ba8 Y4 Cl28'
_cell_volume   1523.10175636
_cell_formula_units_Z   4
loop_
 _symmetry_equiv_pos_site_id
 _symmetry_equiv_pos_as_xyz
  1  'x, y, z'
loop_
 _atom_site_type_symbol
 _atom_site_label
 _atom_site_symmetry_multiplicity
 _atom_site_fract_x
 _atom_site_fract_y
 _atom_site_fract_z
 _atom_site_occupancy
  Ba  Ba0  1  0.25000000  0.25673500  0.45551900  1
  Ba  Ba1  1  0.25000000  0.25907100  0.74368800  1
  Ba  Ba2  1  0.75000000  0.24092900  0.24368800  1
  Ba  Ba3  1  0.75000000  0.24326500  0.95551900  1
  Ba  Ba4  1  0.25000000  0.75673500  0.04448100  1
  Ba  Ba5  1  0.25000000  0.75907100  0.75631200  1
  Ba  Ba6  1  0.75000000  0.74092900  0.25631200  1
  Ba  Ba7  1  0.75000000  0.74326500  0.54448100  1
  Y  Y0  1  0.25000000  0.94093900  0.30641900  1
  Y  Y1  1  0.75000000  0.55906100  0.80641900  1
  Y  Y2  1  0.25000000  0.44093900  0.19358100  1
  Y  Y3  1  0.75000000  0.05906100  0.69358100  1
  Cl  Cl0  1  0.75000000  0.09419000  0.09868700  1
  Cl  Cl1  1  0.02810200  0.09670600  0.34247000  1
  Cl  Cl2  1  0.47189800  0.09670600  0.34247000  1
  Cl  Cl3  1  0.96793300  0.10904700  0.82347900  1
  Cl  Cl4  1  0.53206700  0.10904700  0.82347900  1
  Cl  Cl5  1  0.52231900  0.16973300  0.60176500  1
  Cl  Cl6  1  0.97768100  0.16973300  0.60176500  1
  Cl  Cl7  1  0.02231900  0.33026700  0.10176500  1
  Cl  Cl8  1  0.47768100  0.33026700  0.10176500  1
  Cl  Cl9  1  0.03206700  0.39095300  0.32347900  1
  Cl  Cl10  1  0.46793300  0.39095300  0.32347900  1
  Cl  Cl11  1  0.97189800  0.40329400  0.84247000  1
  Cl  Cl12  1  0.52810200  0.40329400  0.84247000  1
  Cl  Cl13  1  0.25000000  0.40581000  0.59868700  1
  Cl  Cl14  1  0.75000000  0.59419000  0.40131300  1
  Cl  Cl15  1  0.02810200  0.59670600  0.15753000  1
  Cl  Cl16  1  0.47189800  0.59670600  0.15753000  1
  Cl  Cl17  1  0.96793300  0.60904700  0.67652100  1
  Cl  Cl18  1  0.53206700  0.60904700  0.67652100  1
  Cl  Cl19  1  0.97768100  0.66973300  0.89823500  1
  Cl  Cl20  1  0.52231900  0.66973300  0.89823500  1
  Cl  Cl21  1  0.47768100  0.83026700  0.39823500  1
  Cl  Cl22  1  0.02231900  0.83026700  0.39823500  1
  Cl  Cl23  1  0.46793300  0.89095300  0.17652100  1
  Cl  Cl24  1  0.03206700  0.89095300  0.17652100  1
  Cl  Cl25  1  0.52810200  0.90329400  0.65753000  1
  Cl  Cl26  1  0.97189800  0.90329400  0.65753000  1
  Cl  Cl27  1  0.25000000  0.90581000  0.90131300  1
loop_
_geom_bond_atom_site_label_1
_geom_bond_atom_site_label_2
_geom_bond_distance
_geom_bond_site_symmetry_2
Ba0 Cl13 2.930336 1_555
Ba0 Cl10 3.150234 1_555
Ba0 Cl9 3.150234 1_555
Ba0 Cl1 3.193847 1_555
Ba0 Cl2 3.193847 1_555
Ba0 Cl5 3.264754 1_555
Ba0 Cl6 3.264754 1_455
Ba1 Cl13 2.931848 1_555
Ba1 Cl4 3.151097 1_555
Ba1 Cl3 3.151097 1_455
Ba1 Cl12 3.211796 1_555
Ba1 Cl11 3.211796 1_455
Ba1 Cl5 3.230018 1_555
Ba1 Cl6 3.230018 1_455
Ba2 Cl0 2.931848 1_555
Ba2 Cl9 3.151097 1_655
Ba2 Cl10 3.151097 1_555
Ba2 Cl2 3.211796 1_555
Ba2 Cl1 3.211796 1_655
Ba2 Cl7 3.230018 1_655
Ba2 Cl8 3.230018 1_555
Ba3 Cl0 2.930336 1_556
Ba3 Cl3 3.150234 1_555
Ba3 Cl4 3.150234 1_555
Ba3 Cl11 3.193847 1_555
Ba3 Cl12 3.193847 1_555
Ba3 Cl7 3.264754 1_656
Ba3 Cl8 3.264754 1_556
Ba4 Cl27 2.930336 1_554
Ba4 Cl23 3.150234 1_555
Ba4 Cl24 3.150234 1_555
Ba4 Cl15 3.193847 1_555
Ba4 Cl16 3.193847 1_555
Ba4 Cl20 3.264754 1_554
Ba4 Cl19 3.264754 1_454
Ba5 Cl27 2.931848 1_555
Ba5 Cl18 3.151097 1_555
Ba5 Cl17 3.151097 1_455
Ba5 Cl25 3.211796 1_555
Ba5 Cl26 3.211796 1_455
Ba5 Cl20 3.230018 1_555
Ba5 Cl19 3.230018 1_455
Ba6 Cl14 2.931848 1_555
Ba6 Cl23 3.151097 1_555
Ba6 Cl24 3.151097 1_655
Ba6 Cl16 3.211796 1_555
Ba6 Cl15 3.211796 1_655
Ba6 Cl22 3.230018 1_655
Ba6 Cl21 3.230018 1_555
Ba7 Cl14 2.930336 1_555
Ba7 Cl17 3.150234 1_555
Ba7 Cl18 3.150234 1_555
Ba7 Cl26 3.193847 1_555
Ba7 Cl25 3.193847 1_555
Ba7 Cl22 3.264754 1_655
Ba7 Cl21 3.264754 1_555
Cl1 Y0 2.693923 1_545
Cl2 Y0 2.693923 1_545
Cl3 Y3 2.680126 1_555
Cl4 Y3 2.680126 1_555
Cl5 Y3 2.660232 1_555
Cl6 Y3 2.660232 1_555
Cl7 Y2 2.660232 1_555
Cl8 Y2 2.660232 1_555
Cl9 Y2 2.680126 1_555
Cl10 Y2 2.680126 1_555
Cl11 Y1 2.693923 1_555
Cl12 Y1 2.693923 1_555
Cl15 Y2 2.693923 1_555
Cl16 Y2 2.693923 1_555
Cl17 Y1 2.680126 1_555
Cl18 Y1 2.680126 1_555
Cl19 Y1 2.660232 1_555
Cl20 Y1 2.660232 1_555
Cl21 Y0 2.660232 1_555
Cl22 Y0 2.660232 1_555
Cl23 Y0 2.680126 1_555
Cl24 Y0 2.680126 1_555
Cl25 Y3 2.693923 1_565
Cl26 Y3 2.693923 1_565
