# generated using pymatgen
data_Cu(SbO2)2
_symmetry_space_group_name_H-M   'P 1'
_cell_length_a   8.91459500
_cell_length_b   8.91459500
_cell_length_c   5.89161600
_cell_angle_alpha   90.00000000
_cell_angle_beta   90.00000000
_cell_angle_gamma   90.00000000
_symmetry_Int_Tables_number   1
_chemical_formula_structural   Cu(SbO2)2
_chemical_formula_sum   'Cu4 Sb8 O16'
_cell_volume   468.20674717
_cell_formula_units_Z   4
loop_
 _symmetry_equiv_pos_site_id
 _symmetry_equiv_pos_as_xyz
  1  'x, y, z'
loop_
 _atom_site_type_symbol
 _atom_site_label
 _atom_site_symmetry_multiplicity
 _atom_site_fract_x
 _atom_site_fract_y
 _atom_site_fract_z
 _atom_site_occupancy
  Cu  Cu0  1  0.50000000  0.00000000  0.25000000  1
  Cu  Cu1  1  0.50000000  0.00000000  0.75000000  1
  Cu  Cu2  1  0.00000000  0.50000000  0.25000000  1
  Cu  Cu3  1  0.00000000  0.50000000  0.75000000  1
  Sb  Sb0  1  0.81106200  0.15233700  0.50000000  1
  Sb  Sb1  1  0.15233700  0.18893800  0.00000000  1
  Sb  Sb2  1  0.65233700  0.31106200  0.00000000  1
  Sb  Sb3  1  0.31106200  0.34766300  0.50000000  1
  Sb  Sb4  1  0.68893800  0.65233700  0.50000000  1
  Sb  Sb5  1  0.34766300  0.68893800  0.00000000  1
  Sb  Sb6  1  0.84766300  0.81106200  0.00000000  1
  Sb  Sb7  1  0.18893800  0.84766300  0.50000000  1
  O  O0  1  0.61919400  0.09117500  0.00000000  1
  O  O1  1  0.59117500  0.11919400  0.50000000  1
  O  O2  1  0.30358400  0.19641600  0.25000000  1
  O  O3  1  0.30358400  0.19641600  0.75000000  1
  O  O4  1  0.80358400  0.30358400  0.25000000  1
  O  O5  1  0.80358400  0.30358400  0.75000000  1
  O  O6  1  0.09117500  0.38080600  0.50000000  1
  O  O7  1  0.11919400  0.40882500  0.00000000  1
  O  O8  1  0.88080600  0.59117500  0.00000000  1
  O  O9  1  0.90882500  0.61919400  0.50000000  1
  O  O10  1  0.19641600  0.69641600  0.25000000  1
  O  O11  1  0.19641600  0.69641600  0.75000000  1
  O  O12  1  0.69641600  0.80358400  0.25000000  1
  O  O13  1  0.69641600  0.80358400  0.75000000  1
  O  O14  1  0.40882500  0.88080600  0.50000000  1
  O  O15  1  0.38080600  0.90882500  0.00000000  1
loop_
_geom_bond_atom_site_label_1
_geom_bond_atom_site_label_2
_geom_bond_distance
_geom_bond_site_symmetry_2
Cu0 O0 1.989753 1_555
Cu0 O1 1.989753 1_555
Cu0 O15 1.989753 1_545
Cu0 O14 1.989753 1_545
Cu0 O12 2.476244 1_545
Cu0 O2 2.476244 1_555
Cu1 O0 1.989753 1_556
Cu1 O1 1.989753 1_555
Cu1 O15 1.989753 1_546
Cu1 O14 1.989753 1_545
Cu1 O13 2.476244 1_545
Cu1 O3 2.476244 1_555
Cu2 O6 1.989753 1_555
Cu2 O7 1.989753 1_555
Cu2 O9 1.989753 1_455
Cu2 O8 1.989753 1_455
Cu2 O10 2.476244 1_555
Cu2 O4 2.476244 1_455
Cu3 O6 1.989753 1_555
Cu3 O7 1.989753 1_556
Cu3 O8 1.989753 1_456
Cu3 O9 1.989753 1_455
Cu3 O11 2.476244 1_555
Cu3 O5 2.476244 1_455
O0 Sb2 1.982345 1_555
O1 Sb0 1.982345 1_555
O2 Sb1 1.997954 1_555
O2 Sb3 1.997954 1_555
O3 Sb1 1.997954 1_556
O3 Sb3 1.997954 1_555
O4 Sb0 1.997954 1_555
O4 Sb2 1.997954 1_555
O5 Sb0 1.997954 1_555
O5 Sb2 1.997954 1_556
O6 Sb3 1.982345 1_555
O7 Sb1 1.982345 1_555
O8 Sb6 1.982345 1_555
O9 Sb4 1.982345 1_555
O10 Sb7 1.997954 1_555
O10 Sb5 1.997954 1_555
O11 Sb7 1.997954 1_555
O11 Sb5 1.997954 1_556
O12 Sb6 1.997954 1_555
O12 Sb4 1.997954 1_555
O13 Sb4 1.997954 1_555
O13 Sb6 1.997954 1_556
O14 Sb7 1.982345 1_555
O15 Sb5 1.982345 1_555
