# generated using pymatgen
data_Li3Fe4NiO8
_symmetry_space_group_name_H-M   'P 1'
_cell_length_a   5.99879997
_cell_length_b   5.99879997
_cell_length_c   5.98749598
_cell_angle_alpha   60.26840743
_cell_angle_beta   60.26840743
_cell_angle_gamma   59.43487156
_symmetry_Int_Tables_number   1
_chemical_formula_structural   Li3Fe4NiO8
_chemical_formula_sum   'Li3 Fe4 Ni1 O8'
_cell_volume   152.30182060
_cell_formula_units_Z   1
loop_
 _symmetry_equiv_pos_site_id
 _symmetry_equiv_pos_as_xyz
  1  'x, y, z'
loop_
 _atom_site_type_symbol
 _atom_site_label
 _atom_site_symmetry_multiplicity
 _atom_site_fract_x
 _atom_site_fract_y
 _atom_site_fract_z
 _atom_site_occupancy
  Li  Li0  1  0.00000000  0.50000000  0.00000000  1
  Li  Li1  1  0.00000000  0.00000000  0.50000000  1
  Li  Li2  1  0.50000000  0.00000000  0.00000000  1
  Fe  Fe0  1  0.50000000  0.50000000  0.50000000  1
  Fe  Fe1  1  0.00000000  0.00000000  0.00000000  1
  Fe  Fe2  1  0.00000000  0.50000000  0.50000000  1
  Fe  Fe3  1  0.50000000  0.00000000  0.50000000  1
  Ni  Ni0  1  0.50000000  0.50000000  0.00000000  1
  O  O0  1  0.25367700  0.25367700  0.26563700  1
  O  O1  1  0.26360100  0.75075600  0.73730700  1
  O  O2  1  0.75075600  0.26360100  0.73730700  1
  O  O3  1  0.74224400  0.74224400  0.26618000  1
  O  O4  1  0.25775600  0.25775600  0.73382000  1
  O  O5  1  0.24924400  0.73639900  0.26269300  1
  O  O6  1  0.73639900  0.24924400  0.26269300  1
  O  O7  1  0.74632300  0.74632300  0.73436300  1
loop_
_geom_bond_atom_site_label_1
_geom_bond_atom_site_label_2
_geom_bond_distance
_geom_bond_site_symmetry_2
Li0 O3 2.147152 1_455
Li0 O4 2.147152 1_554
Li0 O0 2.193523 1_555
Li0 O7 2.193523 1_454
Li0 O1 2.200585 1_554
Li0 O6 2.200585 1_455
Li1 O1 2.114638 1_545
Li1 O2 2.114638 1_455
Li1 O6 2.114638 1_455
Li1 O5 2.114638 1_545
Li1 O0 2.172484 1_555
Li1 O7 2.172484 1_445
Li2 O3 2.147152 1_545
Li2 O4 2.147152 1_554
Li2 O0 2.193523 1_555
Li2 O7 2.193523 1_544
Li2 O2 2.200585 1_554
Li2 O5 2.200585 1_545
Fe0 O2 2.060222 1_555
Fe0 O1 2.060222 1_555
Fe0 O5 2.060222 1_555
Fe0 O6 2.060222 1_555
Fe0 O3 2.072507 1_555
Fe0 O4 2.072507 1_555
Fe1 O6 2.161249 1_455
Fe1 O5 2.161249 1_545
Fe1 O2 2.161249 1_454
Fe1 O1 2.161249 1_544
Fe1 O3 2.205598 1_445
Fe1 O4 2.205598 1_554
Fe2 O7 2.029768 1_455
Fe2 O0 2.029768 1_555
Fe2 O4 2.075217 1_555
Fe2 O3 2.075217 1_455
Fe2 O5 2.077523 1_555
Fe2 O2 2.077523 1_455
Fe3 O7 2.029768 1_545
Fe3 O0 2.029768 1_555
Fe3 O4 2.075217 1_555
Fe3 O3 2.075217 1_545
Fe3 O6 2.077523 1_555
Fe3 O1 2.077523 1_545
Ni0 O6 2.108037 1_555
Ni0 O5 2.108037 1_555
Ni0 O2 2.108037 1_554
Ni0 O1 2.108037 1_554
Ni0 O0 2.110681 1_555
Ni0 O7 2.110681 1_554
