# generated using pymatgen
data_Mn3O5F
_symmetry_space_group_name_H-M   'P 1'
_cell_length_a   3.01623500
_cell_length_b   6.42920700
_cell_length_c   10.17295160
_cell_angle_alpha   71.62146410
_cell_angle_beta   90.00000000
_cell_angle_gamma   90.00000000
_symmetry_Int_Tables_number   1
_chemical_formula_structural   Mn3O5F
_chemical_formula_sum   'Mn6 O10 F2'
_cell_volume   187.21175627
_cell_formula_units_Z   2
loop_
 _symmetry_equiv_pos_site_id
 _symmetry_equiv_pos_as_xyz
  1  'x, y, z'
loop_
 _atom_site_type_symbol
 _atom_site_label
 _atom_site_symmetry_multiplicity
 _atom_site_fract_x
 _atom_site_fract_y
 _atom_site_fract_z
 _atom_site_occupancy
  Mn  Mn0  1  0.00000000  0.99298700  0.01432500  1
  Mn  Mn1  1  0.50000000  0.81319100  0.33954700  1
  Mn  Mn2  1  0.50000000  0.50101600  0.99946800  1
  Mn  Mn3  1  0.00000000  0.66482700  0.66796700  1
  Mn  Mn4  1  0.00000000  0.34791300  0.32841500  1
  Mn  Mn5  1  0.50000000  0.17370400  0.65222000  1
  O  O0  1  0.50000000  0.93318600  0.13671800  1
  O  O1  1  0.00000000  0.30552100  0.99889700  1
  O  O2  1  0.00000000  0.69681900  0.99854400  1
  O  O3  1  0.00000000  0.35914600  0.66607300  1
  O  O4  1  0.50000000  0.73521500  0.53895200  1
  O  O5  1  0.50000000  0.39750100  0.20180700  1
  O  O6  1  0.50000000  0.26888900  0.45704600  1
  O  O7  1  0.50000000  0.60229300  0.79539100  1
  O  O8  1  0.00000000  0.97456700  0.66677900  1
  O  O9  1  0.00000000  0.63548300  0.33511000  1
  F  F0  1  0.00000000  0.03189800  0.33384900  1
  F  F1  1  0.50000000  0.06584600  0.86889200  1
loop_
_geom_bond_atom_site_label_1
_geom_bond_atom_site_label_2
_geom_bond_distance
_geom_bond_site_symmetry_2
Mn0 O0 1.915892 1_455
Mn0 O0 1.915892 1_555
Mn0 O2 1.960670 1_554
Mn0 O1 1.965512 1_564
Mn1 O9 1.901139 1_555
Mn1 O9 1.901139 1_655
Mn1 O4 1.930029 1_555
Mn1 O0 1.961855 1_555
Mn2 O5 1.953465 1_556
Mn2 O2 1.962592 1_555
Mn2 O2 1.962592 1_655
Mn2 O1 1.964382 1_655
Mn2 O1 1.964382 1_555
Mn2 O7 1.970177 1_555
Mn3 O7 1.946216 1_455
Mn3 O7 1.946216 1_555
Mn3 O4 1.956333 1_555
Mn3 O4 1.956333 1_455
Mn3 O3 1.971446 1_555
Mn3 O8 1.987605 1_555
Mn4 O9 1.871438 1_555
Mn4 O5 1.943196 1_455
Mn4 O5 1.943196 1_555
Mn4 O6 1.955923 1_455
Mn4 O6 1.955923 1_555
Mn5 O6 1.884276 1_555
Mn5 O8 1.953441 1_545
Mn5 O8 1.953441 1_645
Mn5 O3 1.954911 1_555
Mn5 O3 1.954911 1_655
F0 Mn4 2.014979 1_555
F0 Mn1 2.050252 1_545
F0 Mn1 2.050252 1_445
F1 Mn0 2.060509 1_646
F1 Mn0 2.060509 1_546
F1 Mn5 2.091768 1_555
