# generated using pymatgen
data_LaTh4O10
_symmetry_space_group_name_H-M   'P 1'
_cell_length_a   6.89023105
_cell_length_b   6.88978003
_cell_length_c   6.88556035
_cell_angle_alpha   99.59883362
_cell_angle_beta   99.55649701
_cell_angle_gamma   131.86450685
_symmetry_Int_Tables_number   1
_chemical_formula_structural   LaTh4O10
_chemical_formula_sum   'La1 Th4 O10'
_cell_volume   222.24861181
_cell_formula_units_Z   1
loop_
 _symmetry_equiv_pos_site_id
 _symmetry_equiv_pos_as_xyz
  1  'x, y, z'
loop_
 _atom_site_type_symbol
 _atom_site_label
 _atom_site_symmetry_multiplicity
 _atom_site_fract_x
 _atom_site_fract_y
 _atom_site_fract_z
 _atom_site_occupancy
  La  La0  1  0.49999620  0.49999731  0.99999229  1
  Th  Th0  1  0.89962309  0.70030132  0.59988789  1
  Th  Th1  1  0.10037667  0.29969684  0.40010849  1
  Th  Th2  1  0.70027147  0.10035908  0.80072160  1
  Th  Th3  1  0.29973118  0.89964693  0.19928470  1
  O  O0  1  0.03970973  0.14297427  0.69365307  1
  O  O1  1  0.55064356  0.65385954  0.69346970  1
  O  O2  1  0.85725244  0.55085139  0.89685742  1
  O  O3  1  0.25005561  0.75007379  0.50007769  1
  O  O4  1  0.74995316  0.24992385  0.49992917  1
  O  O5  1  0.44936242  0.34614408  0.30652789  1
  O  O6  1  0.96028065  0.85702253  0.30634240  1
  O  O7  1  0.34592068  0.03942021  0.89670637  1
  O  O8  1  0.14275178  0.44915512  0.10314269  1
  O  O9  1  0.65407136  0.96057472  0.10329862  1
loop_
_geom_bond_atom_site_label_1
_geom_bond_atom_site_label_2
_geom_bond_distance
_geom_bond_site_symmetry_2
La0 O0 2.488761 1_555
La0 O6 2.488790 1_556
La0 O1 2.489385 1_555
La0 O5 2.489441 1_556
La0 O2 2.489711 1_555
La0 O8 2.489723 1_556
La0 O7 2.490518 1_555
La0 O9 2.490522 1_556
O0 Th2 2.414099 1_455
O0 Th1 2.414939 1_555
O0 Th0 2.420245 1_445
O1 Th2 2.414152 1_565
O1 Th1 2.414642 1_555
O1 Th0 2.419861 1_555
O2 Th0 2.413677 1_555
O2 Th2 2.416145 1_555
O2 Th3 2.418746 1_656
O3 Th2 2.437567 1_565
O3 Th0 2.438119 1_455
O3 Th3 2.438257 1_555
O3 Th1 2.438558 1_555
O4 Th3 2.437589 1_545
O4 Th1 2.438092 1_655
O4 Th2 2.438226 1_555
O4 Th0 2.438591 1_555
O5 Th3 2.414125 1_545
O5 Th0 2.414618 1_555
O5 Th1 2.419880 1_555
O6 Th3 2.414112 1_655
O6 Th0 2.414940 1_555
O6 Th1 2.420222 1_665
O7 Th0 2.413091 1_445
O7 Th2 2.415446 1_555
O7 Th3 2.418577 1_546
O8 Th1 2.413680 1_555
O8 Th3 2.416146 1_555
O8 Th2 2.418730 1_454
O9 Th1 2.413088 1_665
O9 Th3 2.415416 1_555
O9 Th2 2.418604 1_564
