# generated using pymatgen
data_Ni5Sb(PO4)6
_symmetry_space_group_name_H-M   'P 1'
_cell_length_a   8.52701418
_cell_length_b   8.52701418
_cell_length_c   8.52701527
_cell_angle_alpha   60.97894794
_cell_angle_beta   60.97894794
_cell_angle_gamma   60.97894835
_symmetry_Int_Tables_number   1
_chemical_formula_structural   Ni5Sb(PO4)6
_chemical_formula_sum   'Ni5 Sb1 P6 O24'
_cell_volume   448.07403656
_cell_formula_units_Z   1
loop_
 _symmetry_equiv_pos_site_id
 _symmetry_equiv_pos_as_xyz
  1  'x, y, z'
loop_
 _atom_site_type_symbol
 _atom_site_label
 _atom_site_symmetry_multiplicity
 _atom_site_fract_x
 _atom_site_fract_y
 _atom_site_fract_z
 _atom_site_occupancy
  Ni  Ni0  1  0.00534700  0.00534700  0.00534700  1
  Ni  Ni1  1  0.35771100  0.35771100  0.35771100  1
  Ni  Ni2  1  0.49915500  0.49915500  0.49915500  1
  Ni  Ni3  1  0.14349300  0.14349300  0.14349300  1
  Ni  Ni4  1  0.64114000  0.64114000  0.64114000  1
  Sb  Sb0  1  0.85738200  0.85738200  0.85738200  1
  P  P0  1  0.45188400  0.74690900  0.04717100  1
  P  P1  1  0.74690900  0.04717100  0.45188400  1
  P  P2  1  0.04717100  0.45188400  0.74690900  1
  P  P3  1  0.95167400  0.54238800  0.25530700  1
  P  P4  1  0.25530700  0.95167400  0.54238800  1
  P  P5  1  0.54238800  0.25530700  0.95167400  1
  O  O0  1  0.68013700  0.89080800  0.49561900  1
  O  O1  1  0.89080800  0.49561900  0.68013700  1
  O  O2  1  0.49561900  0.68013700  0.89080800  1
  O  O3  1  0.25748100  0.90832600  0.05932900  1
  O  O4  1  0.61103800  0.81858300  0.00740400  1
  O  O5  1  0.44130300  0.59396700  0.24510400  1
  O  O6  1  0.90832600  0.05932900  0.25748100  1
  O  O7  1  0.59396700  0.24510400  0.44130300  1
  O  O8  1  0.98722000  0.39050600  0.18617100  1
  O  O9  1  0.24510400  0.44130300  0.59396700  1
  O  O10  1  0.93677100  0.74744500  0.08834900  1
  O  O11  1  0.18617100  0.98722000  0.39050600  1
  O  O12  1  0.81858300  0.00740400  0.61103800  1
  O  O13  1  0.05932900  0.25748100  0.90832600  1
  O  O14  1  0.75164800  0.56130000  0.40748800  1
  O  O15  1  0.00740400  0.61103800  0.81858300  1
  O  O16  1  0.40748800  0.75164800  0.56130000  1
  O  O17  1  0.08834900  0.93677100  0.74744500  1
  O  O18  1  0.56130000  0.40748800  0.75164800  1
  O  O19  1  0.39050600  0.18617100  0.98722000  1
  O  O20  1  0.74744500  0.08834900  0.93677100  1
  O  O21  1  0.51235800  0.31575400  0.10635100  1
  O  O22  1  0.10635100  0.51235800  0.31575400  1
  O  O23  1  0.31575400  0.10635100  0.51235800  1
loop_
_geom_bond_atom_site_label_1
_geom_bond_atom_site_label_2
_geom_bond_distance
_geom_bond_site_symmetry_2
Ni0 O13 2.093693 1_554
Ni0 O3 2.093693 1_545
Ni0 O6 2.093693 1_455
Ni0 O10 2.239424 1_445
Ni0 O20 2.239424 1_454
Ni0 O17 2.239424 1_544
Ni1 O23 2.001197 1_555
Ni1 O22 2.001197 1_555
Ni1 O21 2.001197 1_555
Ni1 O5 2.083466 1_555
Ni1 O7 2.083466 1_555
Ni1 O9 2.083466 1_555
Ni2 O9 2.130826 1_555
Ni2 O7 2.130826 1_555
Ni2 O5 2.130827 1_555
Ni2 O14 2.144640 1_555
Ni2 O16 2.144640 1_555
Ni2 O18 2.144640 1_555
Ni3 O19 1.973446 1_554
Ni3 O8 1.973447 1_455
Ni3 O11 1.973447 1_545
Ni3 O6 2.075884 1_455
Ni3 O3 2.075885 1_545
Ni3 O13 2.075885 1_554
Ni4 O0 1.976362 1_555
Ni4 O1 1.976362 1_555
Ni4 O2 1.976362 1_555
Ni4 O18 2.047666 1_555
Ni4 O16 2.047666 1_555
Ni4 O14 2.047666 1_555
O0 P1 1.512968 1_565
O1 P2 1.512968 1_655
O2 P0 1.512968 1_556
O3 P0 1.552757 1_555
O4 P0 1.577156 1_555
O4 Sb0 1.953141 1_554
O5 P0 1.545409 1_555
O6 P1 1.552758 1_555
O7 P1 1.545408 1_555
O8 P3 1.517641 1_555
O9 P2 1.545408 1_555
O10 P3 1.626331 1_555
O10 Sb0 2.025422 1_554
O11 P4 1.517642 1_555
O12 P1 1.577156 1_555
O12 Sb0 1.953141 1_545
O13 P2 1.552758 1_555
O14 P3 1.551688 1_555
O15 P2 1.577156 1_555
O15 Sb0 1.953141 1_455
O16 P4 1.551688 1_555
O17 P4 1.626331 1_555
O17 Sb0 2.025422 1_455
O18 P5 1.551689 1_555
O19 P5 1.517641 1_555
O20 P5 1.626331 1_555
O20 Sb0 2.025422 1_545
O21 P5 1.508204 1_554
O22 P3 1.508204 1_455
O23 P4 1.508204 1_545
