# generated using pymatgen
data_Li4Ti3Co3(SbO8)2
_symmetry_space_group_name_H-M   'P 1'
_cell_length_a   6.02776651
_cell_length_b   10.37341892
_cell_length_c   9.75634047
_cell_angle_alpha   90.54081558
_cell_angle_beta   90.91073913
_cell_angle_gamma   89.34336619
_symmetry_Int_Tables_number   1
_chemical_formula_structural   Li4Ti3Co3(SbO8)2
_chemical_formula_sum   'Li8 Ti6 Co6 Sb4 O32'
_cell_volume   609.90652969
_cell_formula_units_Z   2
loop_
 _symmetry_equiv_pos_site_id
 _symmetry_equiv_pos_as_xyz
  1  'x, y, z'
loop_
 _atom_site_type_symbol
 _atom_site_label
 _atom_site_symmetry_multiplicity
 _atom_site_fract_x
 _atom_site_fract_y
 _atom_site_fract_z
 _atom_site_occupancy
  Li  Li0  1  0.99135200  0.33054100  0.89760300  1
  Li  Li1  1  0.49137100  0.83052000  0.89759000  1
  Li  Li2  1  0.48874100  0.49622700  0.98006300  1
  Li  Li3  1  0.98873500  0.99622900  0.98010300  1
  Li  Li4  1  0.00359300  0.00129000  0.49519700  1
  Li  Li5  1  0.50362500  0.50126200  0.49521300  1
  Li  Li6  1  0.49860500  0.16614400  0.40701800  1
  Li  Li7  1  0.99861200  0.66614600  0.40698300  1
  Ti  Ti0  1  0.26168700  0.08729100  0.71894700  1
  Ti  Ti1  1  0.76171500  0.58737100  0.71897400  1
  Ti  Ti2  1  0.75816200  0.41762000  0.21500900  1
  Ti  Ti3  1  0.25815900  0.91760700  0.21497000  1
  Ti  Ti4  1  0.00550800  0.17039500  0.21468400  1
  Ti  Ti5  1  0.50535900  0.67035600  0.21469200  1
  Co  Co0  1  0.74111400  0.91356100  0.20961900  1
  Co  Co1  1  0.50053700  0.32729000  0.71062300  1
  Co  Co2  1  0.00048200  0.82731600  0.71049400  1
  Co  Co3  1  0.24120700  0.41348600  0.20962000  1
  Co  Co4  1  0.74117100  0.08669900  0.71073800  1
  Co  Co5  1  0.24129700  0.58669900  0.71067000  1
  Sb  Sb0  1  0.00905100  0.33633100  0.49322200  1
  Sb  Sb1  1  0.50903300  0.83631800  0.49318800  1
  Sb  Sb2  1  0.51054700  0.17017500  0.98467100  1
  Sb  Sb3  1  0.01053900  0.67016500  0.98468100  1
  O  O0  1  0.78252400  0.26096800  0.33949600  1
  O  O1  1  0.28252200  0.76092400  0.33949900  1
  O  O2  1  0.97512500  0.32508700  0.10590900  1
  O  O3  1  0.47518600  0.82505000  0.10590000  1
  O  O4  1  0.01080500  0.00368400  0.30262900  1
  O  O5  1  0.51080100  0.50370500  0.30267900  1
  O  O6  1  0.01326300  0.00455500  0.79504700  1
  O  O7  1  0.51335100  0.50451000  0.79500400  1
  O  O8  1  0.25637700  0.08543200  0.10598300  1
  O  O9  1  0.75635000  0.58542800  0.10599900  1
  O  O10  1  0.26030300  0.42001400  0.58323300  1
  O  O11  1  0.76031200  0.91993900  0.58329100  1
  O  O12  1  0.47740700  0.15897700  0.60342700  1
  O  O13  1  0.97753600  0.65894500  0.60341100  1
  O  O14  1  0.72153000  0.24069100  0.85220700  1
  O  O15  1  0.22147800  0.74064900  0.85215500  1
  O  O16  1  0.76372100  0.42016600  0.59485000  1
  O  O17  1  0.26380600  0.92015800  0.59496900  1
  O  O18  1  0.01227300  0.17180500  0.59483400  1
  O  O19  1  0.51226100  0.67179200  0.59484500  1
  O  O20  1  0.98500700  0.47954300  0.34172500  1
  O  O21  1  0.48468300  0.97955800  0.34184000  1
  O  O22  1  0.21159300  0.25247600  0.34191500  1
  O  O23  1  0.71167400  0.75264000  0.34185400  1
  O  O24  1  0.26901000  0.23481800  0.85479300  1
  O  O25  1  0.76892600  0.73481500  0.85474700  1
  O  O26  1  0.48689000  0.01712100  0.85477900  1
  O  O27  1  0.98680600  0.51711000  0.85480400  1
  O  O28  1  0.50793400  0.33457100  0.09984600  1
  O  O29  1  0.00793600  0.83457200  0.09978300  1
  O  O30  1  0.75602700  0.08677900  0.09985300  1
  O  O31  1  0.25608700  0.58678700  0.09980300  1
loop_
_geom_bond_atom_site_label_1
_geom_bond_atom_site_label_2
_geom_bond_distance
_geom_bond_site_symmetry_2
Li0 O14 1.927223 1_555
Li0 O27 1.983531 1_555
Li0 O24 1.984409 1_655
Li0 O2 2.037559 1_556
Li1 O15 1.927772 1_555
Li1 O25 1.983866 1_555
Li1 O26 1.983882 1_565
Li1 O3 2.037588 1_556
Li2 O7 1.816851 1_555
Li2 O31 2.053071 1_556
Li2 O28 2.054128 1_556
Li2 O9 2.217576 1_556
Li3 O6 1.816800 1_665
Li3 O30 2.053305 1_566
Li3 O29 2.053560 1_656
Li3 O8 2.217434 1_666
Li4 O4 1.880357 1_555
Li4 O11 1.919223 1_445
Li4 O18 2.011090 1_555
Li4 O17 2.013137 1_545
Li5 O5 1.880029 1_555
Li5 O10 1.918596 1_555
Li5 O19 2.011195 1_555
Li5 O16 2.011816 1_555
Li6 O12 1.924706 1_555
Li6 O21 2.033838 1_545
Li6 O22 2.034404 1_555
Li6 O0 2.101685 1_555
Li7 O13 1.924848 1_555
Li7 O20 2.034152 1_555
Li7 O23 2.034835 1_555
Li7 O1 2.101288 1_655
Co0 O4 2.076550 1_665
Co0 O3 2.097876 1_555
Co0 O29 2.101067 1_655
Co0 O30 2.103983 1_565
Co0 O23 2.130074 1_555
Co0 O21 2.131771 1_555
Co1 O7 2.008980 1_555
Co1 O12 2.031784 1_555
Co1 O14 2.104062 1_555
Co1 O10 2.121376 1_555
Co1 O16 2.198472 1_555
Co1 O24 2.228191 1_555
Co2 O6 2.009824 1_565
Co2 O13 2.031664 1_455
Co2 O15 2.104862 1_555
Co2 O11 2.119589 1_455
Co2 O17 2.197653 1_555
Co2 O25 2.228959 1_455
Co3 O5 2.076748 1_555
Co3 O2 2.098033 1_455
Co3 O28 2.100024 1_555
Co3 O31 2.104968 1_555
Co3 O20 2.130250 1_455
Co3 O22 2.131270 1_555
Co4 O6 2.007722 1_655
Co4 O12 2.029944 1_555
Co4 O14 2.104762 1_555
Co4 O11 2.123966 1_545
Co4 O18 2.199814 1_655
Co4 O26 2.226687 1_555
Co5 O7 2.007831 1_555
Co5 O13 2.029552 1_455
Co5 O15 2.104598 1_555
Co5 O10 2.123237 1_555
Co5 O19 2.198721 1_555
Co5 O27 2.228200 1_455
O0 Ti2 2.040457 1_555
O0 Ti4 2.042952 1_655
O0 Sb0 2.159228 1_655
O1 Ti3 2.040961 1_555
O1 Ti5 2.042312 1_555
O1 Sb1 2.159039 1_555
O2 Ti4 1.937532 1_655
O2 Ti2 1.939304 1_555
O3 Ti5 1.937545 1_555
O3 Ti3 1.939523 1_555
O4 Ti3 1.935814 1_545
O4 Ti4 1.937470 1_555
O5 Ti2 1.935932 1_555
O5 Ti5 1.937097 1_555
O6 Ti0 1.899212 1_555
O7 Ti1 1.899247 1_555
O8 Ti4 2.047188 1_555
O8 Ti3 2.048342 1_545
O8 Sb2 2.151512 1_554
O9 Ti5 2.047541 1_555
O9 Ti2 2.048307 1_555
O9 Sb3 2.151602 1_654
O10 Sb0 1.947279 1_555
O11 Sb1 1.947506 1_555
O12 Ti0 1.897000 1_555
O13 Ti1 1.897211 1_555
O14 Sb2 1.978400 1_555
O15 Sb3 1.978502 1_555
O16 Sb0 1.981689 1_655
O16 Ti1 2.106048 1_555
O17 Sb1 1.982005 1_555
O17 Ti0 2.104633 1_565
O18 Sb0 1.981554 1_555
O18 Ti0 2.104056 1_555
O19 Sb1 1.981777 1_555
O19 Ti1 2.103914 1_555
O20 Ti2 1.939617 1_555
O20 Sb0 2.107692 1_655
O21 Ti3 1.939300 1_555
O21 Sb1 2.106963 1_555
O22 Ti4 1.940166 1_555
O22 Sb0 2.105964 1_555
O23 Ti5 1.941554 1_555
O23 Sb1 2.105767 1_555
O24 Ti0 2.015422 1_555
O24 Sb2 2.027322 1_555
O25 Ti1 2.014297 1_555
O25 Sb3 2.028006 1_655
O26 Ti0 2.016720 1_555
O26 Sb2 2.026954 1_555
O27 Ti1 2.016603 1_555
O27 Sb3 2.026903 1_655
O28 Sb2 2.033447 1_554
O28 Ti2 2.058458 1_555
O29 Sb3 2.033153 1_554
O29 Ti3 2.058499 1_555
O30 Sb2 2.033932 1_554
O30 Ti4 2.055953 1_655
O31 Sb3 2.033827 1_554
O31 Ti5 2.055129 1_555
