# generated using pymatgen
data_Li2Ti3CoO8
_symmetry_space_group_name_H-M   'P 1'
_cell_length_a   5.97760435
_cell_length_b   10.34266507
_cell_length_c   10.30033276
_cell_angle_alpha   99.34458283
_cell_angle_beta   90.01782052
_cell_angle_gamma   106.80712582
_symmetry_Int_Tables_number   1
_chemical_formula_structural   Li2Ti3CoO8
_chemical_formula_sum   'Li8 Ti12 Co4 O32'
_cell_volume   600.76604584
_cell_formula_units_Z   4
loop_
 _symmetry_equiv_pos_site_id
 _symmetry_equiv_pos_as_xyz
  1  'x, y, z'
loop_
 _atom_site_type_symbol
 _atom_site_label
 _atom_site_symmetry_multiplicity
 _atom_site_fract_x
 _atom_site_fract_y
 _atom_site_fract_z
 _atom_site_occupancy
  Li  Li0  1  0.27987000  0.55956800  0.60126700  1
  Li  Li1  1  0.52985100  0.05954000  0.35125900  1
  Li  Li2  1  0.77985200  0.55954000  0.10122400  1
  Li  Li3  1  0.02986700  0.05956700  0.85120100  1
  Li  Li4  1  0.37520700  0.75030600  0.12417800  1
  Li  Li5  1  0.62524200  0.25037600  0.87415000  1
  Li  Li6  1  0.87524000  0.75038100  0.62417400  1
  Li  Li7  1  0.12521700  0.25032000  0.37419500  1
  Ti  Ti0  1  0.12901600  0.74920300  0.37258200  1
  Ti  Ti1  1  0.37902300  0.24926100  0.12274200  1
  Ti  Ti2  1  0.62914900  0.74932300  0.87277200  1
  Ti  Ti3  1  0.87912500  0.24927700  0.62262500  1
  Ti  Ti4  1  0.25183400  0.50354000  0.24987000  1
  Ti  Ti5  1  0.50191900  0.00363700  0.99976100  1
  Ti  Ti6  1  0.75193000  0.50368500  0.74968400  1
  Ti  Ti7  1  0.00188000  0.00360000  0.49962800  1
  Ti  Ti8  1  0.62044700  0.74917600  0.37259500  1
  Ti  Ti9  1  0.87045700  0.24924700  0.12275800  1
  Ti  Ti10  1  0.12040100  0.74931200  0.87279800  1
  Ti  Ti11  1  0.37037500  0.24925500  0.62265600  1
  Co  Co0  1  0.72077600  0.44147600  0.39658400  1
  Co  Co1  1  0.97076700  0.94143800  0.14653300  1
  Co  Co2  1  0.47074600  0.94141200  0.64650500  1
  Co  Co3  1  0.22077100  0.44146200  0.89655500  1
  O  O0  1  0.31519900  0.62971000  0.42576500  1
  O  O1  1  0.56519200  0.12969400  0.17573300  1
  O  O2  1  0.81518400  0.62972300  0.92573900  1
  O  O3  1  0.06519100  0.12970200  0.67575000  1
  O  O4  1  0.43526500  0.87108300  0.82205200  1
  O  O5  1  0.68529000  0.37102100  0.57213000  1
  O  O6  1  0.93531600  0.87109100  0.32214000  1
  O  O7  1  0.18532400  0.37109900  0.07205400  1
  O  O8  1  0.08384100  0.62549600  0.20742200  1
  O  O9  1  0.33389300  0.12548000  0.95737600  1
  O  O10  1  0.58390000  0.62550400  0.70738900  1
  O  O11  1  0.83392900  0.12550100  0.45738800  1
  O  O12  1  0.42694000  0.85416300  0.32167100  1
  O  O13  1  0.67693600  0.35415900  0.07163300  1
  O  O14  1  0.92693200  0.85417800  0.82165900  1
  O  O15  1  0.17692900  0.35416400  0.57165800  1
  O  O16  1  0.54184900  0.62547900  0.20739800  1
  O  O17  1  0.79184200  0.12545900  0.95734500  1
  O  O18  1  0.04175800  0.62545700  0.70739800  1
  O  O19  1  0.29182900  0.12546300  0.45740700  1
  O  O20  1  0.20662600  0.87336500  0.04614300  1
  O  O21  1  0.45655100  0.37342900  0.79614600  1
  O  O22  1  0.70654600  0.87342300  0.54617100  1
  O  O23  1  0.95665700  0.37345900  0.29615700  1
  O  O24  1  0.32163500  0.64373500  0.93126700  1
  O  O25  1  0.57164800  0.14373100  0.68124900  1
  O  O26  1  0.82168800  0.64386000  0.43129800  1
  O  O27  1  0.07172400  0.14382400  0.18119800  1
  O  O28  1  0.66629100  0.87336100  0.04620600  1
  O  O29  1  0.91642000  0.37345700  0.79626900  1
  O  O30  1  0.16639800  0.87341000  0.54623700  1
  O  O31  1  0.41631200  0.37343000  0.29625300  1
loop_
_geom_bond_atom_site_label_1
_geom_bond_atom_site_label_2
_geom_bond_distance
_geom_bond_site_symmetry_2
Li0 O10 2.000678 1_555
Li0 O18 2.001329 1_555
Li0 O15 2.004579 1_555
Li0 O0 2.043596 1_555
Li1 O11 2.000943 1_555
Li1 O19 2.001141 1_555
Li1 O12 2.004319 1_545
Li1 O1 2.043887 1_555
Li2 O8 2.000861 1_655
Li2 O16 2.001256 1_555
Li2 O13 2.004357 1_555
Li2 O2 2.043630 1_554
Li3 O9 2.000929 1_555
Li3 O17 2.000988 1_455
Li3 O14 2.004446 1_445
Li3 O3 2.043067 1_555
Li4 O28 2.084357 1_555
Li4 O24 2.085677 1_554
Li4 O20 2.086839 1_555
Li4 O12 2.117902 1_555
Li4 O8 2.120178 1_555
Li4 O16 2.120472 1_555
Li5 O29 2.084389 1_555
Li5 O25 2.085840 1_555
Li5 O21 2.087067 1_555
Li5 O13 2.117575 1_556
Li5 O9 2.120408 1_555
Li5 O17 2.120934 1_555
Li6 O30 2.084357 1_655
Li6 O26 2.085194 1_555
Li6 O22 2.086982 1_555
Li6 O14 2.117638 1_555
Li6 O10 2.120230 1_555
Li6 O18 2.120827 1_655
Li7 O31 2.084496 1_555
Li7 O27 2.086190 1_555
Li7 O23 2.087443 1_455
Li7 O15 2.117589 1_555
Li7 O11 2.119653 1_455
Li7 O19 2.120566 1_555
Co0 O23 1.972625 1_555
Co0 O31 1.974209 1_555
Co0 O26 1.974788 1_555
Co0 O5 2.045543 1_555
Co1 O20 1.972617 1_655
Co1 O28 1.974250 1_555
Co1 O27 1.974803 1_665
Co1 O6 2.045610 1_555
Co2 O22 1.971644 1_555
Co2 O30 1.973337 1_555
Co2 O25 1.974157 1_565
Co2 O4 2.044941 1_555
Co3 O21 1.972124 1_555
Co3 O29 1.973438 1_455
Co3 O24 1.973706 1_555
Co3 O7 2.044640 1_556
O0 Ti8 2.018061 1_555
O0 Ti4 2.018618 1_555
O0 Ti0 2.020145 1_555
O1 Ti9 2.017745 1_555
O1 Ti5 2.018725 1_554
O1 Ti1 2.019976 1_555
O2 Ti10 2.017554 1_655
O2 Ti6 2.019315 1_555
O2 Ti2 2.019580 1_555
O3 Ti11 2.017848 1_555
O3 Ti3 2.020106 1_455
O3 Ti7 2.020158 1_555
O4 Ti10 2.060435 1_555
O4 Ti5 2.063393 1_565
O4 Ti2 2.063815 1_555
O5 Ti11 2.059840 1_555
O5 Ti3 2.062650 1_555
O5 Ti6 2.062679 1_555
O6 Ti8 2.059979 1_555
O6 Ti7 2.061403 1_665
O6 Ti0 2.063075 1_655
O7 Ti9 2.060620 1_455
O7 Ti1 2.063540 1_555
O7 Ti4 2.063709 1_555
O8 Ti0 1.922783 1_555
O8 Ti4 1.924034 1_555
O9 Ti5 1.922972 1_555
O9 Ti1 1.924814 1_556
O10 Ti6 1.922471 1_555
O10 Ti2 1.925102 1_555
O11 Ti7 1.922662 1_655
O11 Ti3 1.923736 1_555
O12 Ti0 1.921561 1_555
O12 Ti8 1.924345 1_555
O13 Ti1 1.922037 1_555
O13 Ti9 1.924557 1_555
O14 Ti2 1.921308 1_555
O14 Ti10 1.924000 1_655
O15 Ti3 1.920967 1_455
O15 Ti11 1.923713 1_555
O16 Ti8 1.922975 1_555
O16 Ti4 1.924204 1_555
O17 Ti5 1.923098 1_555
O17 Ti9 1.925133 1_556
O18 Ti6 1.922024 1_455
O18 Ti10 1.925350 1_555
O19 Ti7 1.922722 1_555
O19 Ti11 1.923819 1_555
O20 Ti10 1.993224 1_554
O20 Ti5 1.998388 1_564
O21 Ti11 1.994915 1_555
O21 Ti6 1.998954 1_555
O22 Ti8 1.995903 1_555
O22 Ti7 1.998686 1_665
O23 Ti9 1.994350 1_555
O23 Ti4 1.996666 1_655
O24 Ti10 1.993671 1_555
O24 Ti2 1.997014 1_555
O25 Ti11 1.993926 1_555
O25 Ti3 1.997221 1_555
O26 Ti8 1.992566 1_555
O26 Ti0 1.996222 1_655
O27 Ti9 1.992477 1_455
O27 Ti1 1.995362 1_555
O28 Ti2 1.994293 1_554
O28 Ti5 1.996097 1_564
O29 Ti3 1.996620 1_555
O29 Ti6 1.996661 1_555
O30 Ti7 1.996526 1_565
O30 Ti0 1.996801 1_555
O31 Ti4 1.994840 1_555
O31 Ti1 1.995486 1_555
