# generated using pymatgen
data_CdH4S2O5
_symmetry_space_group_name_H-M   'P 1'
_cell_length_a   7.22913600
_cell_length_b   5.91578000
_cell_length_c   14.30180319
_cell_angle_alpha   77.98999438
_cell_angle_beta   90.00000000
_cell_angle_gamma   90.00000000
_symmetry_Int_Tables_number   1
_chemical_formula_structural   CdH4S2O5
_chemical_formula_sum   'Cd4 H16 S8 O20'
_cell_volume   598.24279090
_cell_formula_units_Z   4
loop_
 _symmetry_equiv_pos_site_id
 _symmetry_equiv_pos_as_xyz
  1  'x, y, z'
loop_
 _atom_site_type_symbol
 _atom_site_label
 _atom_site_symmetry_multiplicity
 _atom_site_fract_x
 _atom_site_fract_y
 _atom_site_fract_z
 _atom_site_occupancy
  Cd  Cd0  1  0.18336600  0.36719200  0.18274300  1
  Cd  Cd1  1  0.31663400  0.36719200  0.68274300  1
  Cd  Cd2  1  0.81663400  0.63280800  0.81725700  1
  Cd  Cd3  1  0.68336600  0.63280800  0.31725700  1
  H  H0  1  0.16277000  0.29164300  0.98370400  1
  H  H1  1  0.33723000  0.29164300  0.48370400  1
  H  H2  1  0.83723000  0.70835700  0.01629600  1
  H  H3  1  0.66277000  0.70835700  0.51629600  1
  H  H4  1  0.16164200  0.76445100  0.01597700  1
  H  H5  1  0.33835800  0.76445100  0.51597700  1
  H  H6  1  0.83835800  0.23554900  0.98402300  1
  H  H7  1  0.66164200  0.23554900  0.48402300  1
  H  H8  1  0.36088600  0.20780100  0.02769100  1
  H  H9  1  0.13911400  0.20780100  0.52769100  1
  H  H10  1  0.63911400  0.79219900  0.97230900  1
  H  H11  1  0.86088600  0.79219900  0.47230900  1
  H  H12  1  0.14789300  0.85740300  0.11067100  1
  H  H13  1  0.35210700  0.85740300  0.61067100  1
  H  H14  1  0.85210700  0.14259700  0.88932900  1
  H  H15  1  0.64789300  0.14259700  0.38932900  1
  S  S0  1  0.53837900  0.49510300  0.17204700  1
  S  S1  1  0.96162100  0.49510300  0.67204700  1
  S  S2  1  0.46162100  0.50489700  0.82795300  1
  S  S3  1  0.03837900  0.50489700  0.32795300  1
  S  S4  1  0.68986300  0.19905900  0.16271100  1
  S  S5  1  0.81013700  0.19905900  0.66271100  1
  S  S6  1  0.31013700  0.80094100  0.83728900  1
  S  S7  1  0.18986300  0.80094100  0.33728900  1
  O  O0  1  0.59520100  0.09540300  0.09159400  1
  O  O1  1  0.90479900  0.09540300  0.59159400  1
  O  O2  1  0.40479900  0.90459700  0.90840600  1
  O  O3  1  0.09520100  0.90459700  0.40840600  1
  O  O4  1  0.69779300  0.04605600  0.25896200  1
  O  O5  1  0.80220700  0.04605600  0.75896200  1
  O  O6  1  0.30220700  0.95394400  0.74103800  1
  O  O7  1  0.19779300  0.95394400  0.24103800  1
  O  O8  1  0.87506300  0.28778800  0.12846900  1
  O  O9  1  0.62493700  0.28778800  0.62846900  1
  O  O10  1  0.12493700  0.71221200  0.87153100  1
  O  O11  1  0.37506300  0.71221200  0.37153100  1
  O  O12  1  0.23017700  0.23034800  0.04283600  1
  O  O13  1  0.26982300  0.23034800  0.54283600  1
  O  O14  1  0.76982300  0.76965200  0.95716400  1
  O  O15  1  0.73017700  0.76965200  0.45716400  1
  O  O16  1  0.10906400  0.72981600  0.08061900  1
  O  O17  1  0.39093600  0.72981600  0.58061900  1
  O  O18  1  0.89093600  0.27018400  0.91938100  1
  O  O19  1  0.60906400  0.27018400  0.41938100  1
loop_
_geom_bond_atom_site_label_1
_geom_bond_atom_site_label_2
_geom_bond_distance
_geom_bond_site_symmetry_2
Cd0 O12 2.334025 1_555
Cd0 O16 2.391594 1_555
Cd0 O7 2.415415 1_545
Cd0 O8 2.437682 1_455
Cd0 S3 2.603694 1_555
Cd0 S0 2.671032 1_555
Cd1 O13 2.334025 1_555
Cd1 O17 2.391594 1_555
Cd1 O6 2.415415 1_545
Cd1 O9 2.437682 1_555
Cd1 S2 2.603694 1_555
Cd1 S1 2.671032 1_455
Cd2 O14 2.334025 1_555
Cd2 O18 2.391594 1_555
Cd2 O5 2.415415 1_565
Cd2 O10 2.437682 1_655
Cd2 S1 2.603694 1_555
Cd2 S2 2.671032 1_555
Cd3 O15 2.334025 1_555
Cd3 O19 2.391594 1_555
Cd3 O4 2.415415 1_565
Cd3 O11 2.437682 1_555
Cd3 S0 2.603694 1_555
Cd3 S3 2.671032 1_655
H0 O12 0.978018 1_556
H1 O13 0.978018 1_555
H2 O14 0.978018 1_554
H3 O15 0.978018 1_555
H4 O16 0.980977 1_555
H5 O17 0.980977 1_555
H6 O18 0.980977 1_555
H7 O19 0.980977 1_555
H8 O12 0.984678 1_555
H9 O13 0.984678 1_555
H10 O14 0.984678 1_555
H11 O15 0.984678 1_555
H12 O16 0.983977 1_555
H13 O17 0.983977 1_555
H14 O18 0.983977 1_555
H15 O19 0.983977 1_555
S0 S4 2.093214 1_555
S1 S5 2.093214 1_555
S2 S6 2.093214 1_555
S3 S7 2.093214 1_555
O0 S4 1.462319 1_555
O1 S5 1.462319 1_555
O2 S6 1.462319 1_555
O3 S7 1.462319 1_555
O4 S4 1.482884 1_555
O5 S5 1.482884 1_555
O6 S6 1.482884 1_555
O7 S7 1.482884 1_555
O8 S4 1.483527 1_555
O9 S5 1.483527 1_555
O10 S6 1.483527 1_555
O11 S7 1.483527 1_555
