# generated using pymatgen
data_K3ZnPCO7
_symmetry_space_group_name_H-M   'P 1'
_cell_length_a   7.01203300
_cell_length_b   5.60628400
_cell_length_c   9.68220385
_cell_angle_alpha   89.36648025
_cell_angle_beta   90.00000000
_cell_angle_gamma   90.00000000
_symmetry_Int_Tables_number   1
_chemical_formula_structural   K3ZnPCO7
_chemical_formula_sum   'K6 Zn2 P2 C2 O14'
_cell_volume   380.59819072
_cell_formula_units_Z   2
loop_
 _symmetry_equiv_pos_site_id
 _symmetry_equiv_pos_as_xyz
  1  'x, y, z'
loop_
 _atom_site_type_symbol
 _atom_site_label
 _atom_site_symmetry_multiplicity
 _atom_site_fract_x
 _atom_site_fract_y
 _atom_site_fract_z
 _atom_site_occupancy
  K  K0  1  0.25000000  0.76246700  0.92210400  1
  K  K1  1  0.01110100  0.25863600  0.72790900  1
  K  K2  1  0.48889900  0.25863600  0.72790900  1
  K  K3  1  0.51110100  0.74136400  0.27209100  1
  K  K4  1  0.98889900  0.74136400  0.27209100  1
  K  K5  1  0.75000000  0.23753300  0.07789600  1
  Zn  Zn0  1  0.75000000  0.77398800  0.63521500  1
  Zn  Zn1  1  0.25000000  0.22601200  0.36478500  1
  P  P0  1  0.25000000  0.71858600  0.57413200  1
  P  P1  1  0.75000000  0.28141400  0.42586800  1
  C  C0  1  0.75000000  0.74059000  0.91275800  1
  C  C1  1  0.25000000  0.25941000  0.08724200  1
  O  O0  1  0.25000000  0.26376300  0.95323600  1
  O  O1  1  0.75000000  0.94231800  0.84403800  1
  O  O2  1  0.75000000  0.54359000  0.84206400  1
  O  O3  1  0.07008100  0.75940700  0.66604600  1
  O  O4  1  0.42991900  0.75940700  0.66604600  1
  O  O5  1  0.25000000  0.45273200  0.52435900  1
  O  O6  1  0.75000000  0.11233200  0.55405100  1
  O  O7  1  0.25000000  0.88766800  0.44594900  1
  O  O8  1  0.75000000  0.54726800  0.47564100  1
  O  O9  1  0.57008100  0.24059300  0.33395400  1
  O  O10  1  0.92991900  0.24059300  0.33395400  1
  O  O11  1  0.25000000  0.45641000  0.15793600  1
  O  O12  1  0.25000000  0.05768200  0.15596200  1
  O  O13  1  0.75000000  0.73623700  0.04676400  1
loop_
_geom_bond_atom_site_label_1
_geom_bond_atom_site_label_2
_geom_bond_distance
_geom_bond_site_symmetry_2
K0 O3 2.781964 1_555
K0 O4 2.781964 1_555
K0 O0 2.808762 1_555
K0 O12 2.819391 1_566
K0 O0 2.829838 1_565
K0 O11 2.840998 1_556
K1 O6 2.624671 1_455
K1 O2 2.676713 1_455
K1 O0 2.751009 1_555
K1 O1 2.777947 1_445
K1 O5 2.797669 1_555
K1 O3 2.893869 1_555
K1 O3 2.898321 1_545
K2 O6 2.624671 1_555
K2 O2 2.676713 1_555
K2 O0 2.751009 1_555
K2 O1 2.777947 1_545
K2 O5 2.797669 1_555
K2 O4 2.893869 1_555
K2 O4 2.898321 1_545
K3 O7 2.624671 1_555
K3 O11 2.676713 1_555
K3 O13 2.751009 1_555
K3 O12 2.777947 1_565
K3 O8 2.797669 1_555
K3 O9 2.893869 1_555
K3 O9 2.898321 1_565
K4 O7 2.624671 1_655
K4 O11 2.676713 1_655
K4 O13 2.751009 1_555
K4 O12 2.777947 1_665
K4 O8 2.797669 1_555
K4 O10 2.893869 1_555
K4 O10 2.898321 1_565
K5 O10 2.781964 1_555
K5 O9 2.781964 1_555
K5 O13 2.808762 1_555
K5 O1 2.819391 1_544
K5 O13 2.829838 1_545
K5 O2 2.840998 1_554
C0 O13 1.297433 1_556
C0 O2 1.305758 1_555
C0 O1 1.305795 1_555
C1 O0 1.297433 1_554
C1 O11 1.305758 1_555
C1 O12 1.305795 1_555
O1 Zn0 2.240696 1_555
O2 Zn0 2.371128 1_555
O3 P0 1.562205 1_555
O3 Zn0 2.265539 1_455
O4 P0 1.562205 1_555
O4 Zn0 2.265539 1_555
O5 P0 1.571488 1_555
O5 Zn1 2.011498 1_555
O6 P1 1.553336 1_555
O6 Zn0 2.045151 1_545
O7 P0 1.553336 1_555
O7 Zn1 2.045151 1_565
O8 P1 1.571488 1_555
O8 Zn0 2.011498 1_555
O9 P1 1.562205 1_555
O9 Zn1 2.265539 1_555
O10 P1 1.562205 1_555
O10 Zn1 2.265539 1_655
O11 Zn1 2.371128 1_555
O12 Zn1 2.240696 1_555
