# generated using pymatgen
data_Li9(NbS2)14
_symmetry_space_group_name_H-M   'P 1'
_cell_length_a   5.84447682
_cell_length_b   12.17833848
_cell_length_c   13.33206332
_cell_angle_alpha   104.22731822
_cell_angle_beta   90.02556451
_cell_angle_gamma   103.87413977
_symmetry_Int_Tables_number   1
_chemical_formula_structural   Li9(NbS2)14
_chemical_formula_sum   'Li9 Nb14 S28'
_cell_volume   891.20271682
_cell_formula_units_Z   1
loop_
 _symmetry_equiv_pos_site_id
 _symmetry_equiv_pos_as_xyz
  1  'x, y, z'
loop_
 _atom_site_type_symbol
 _atom_site_label
 _atom_site_symmetry_multiplicity
 _atom_site_fract_x
 _atom_site_fract_y
 _atom_site_fract_z
 _atom_site_occupancy
  Li  Li0  1  0.57042816  0.64224755  0.99993635  1
  Li  Li1  1  0.07525520  0.64844686  0.50006944  1
  Li  Li2  1  0.42957184  0.35775245  0.00006365  1
  Li  Li3  1  0.50000000  0.50000000  0.50000000  1
  Li  Li4  1  0.92474480  0.35155314  0.49993056  1
  Li  Li5  1  0.28658075  0.07162288  0.00000448  1
  Li  Li6  1  0.71341925  0.92837712  -0.00000448  1
  Li  Li7  1  0.78494122  0.06959615  0.49975939  1
  Li  Li8  1  0.21505878  0.93040385  0.50024061  1
  Nb  Nb0  1  0.03414884  0.57147980  0.24901741  1
  Nb  Nb1  1  0.53566279  0.57160089  0.74979896  1
  Nb  Nb2  1  0.46433721  0.42839911  0.25020104  1
  Nb  Nb3  1  0.89185370  0.28554007  0.24909579  1
  Nb  Nb4  1  0.96585116  0.42852020  0.75098259  1
  Nb  Nb5  1  0.39031686  0.28551469  0.74915407  1
  Nb  Nb6  1  0.32064906  0.14312796  0.25075889  1
  Nb  Nb7  1  0.74997219  -0.00004257  0.24979608  1
  Nb  Nb8  1  0.82330070  0.14363306  0.75112430  1
  Nb  Nb9  1  0.25002781  0.00004257  0.75020392  1
  Nb  Nb10  1  0.17669930  0.85636694  0.24887570  1
  Nb  Nb11  1  0.60968314  0.71448531  0.25084593  1
  Nb  Nb12  1  0.67935094  0.85687204  0.74924111  1
  Nb  Nb13  1  0.10814630  0.71445993  0.75090421  1
  S  S0  1  0.35139795  0.53711822  0.12930407  1
  S  S1  1  0.38639228  0.60642220  0.37113308  1
  S  S2  1  0.78068486  0.39426733  0.12947376  1
  S  S3  1  0.81559966  0.46347460  0.37220536  1
  S  S4  1  0.18440034  0.53652540  0.62779464  1
  S  S5  1  0.21931514  0.60573267  0.87052624  1
  S  S6  1  0.20784908  0.25120642  0.12893331  1
  S  S7  1  0.24265852  0.32001766  0.37129580  1
  S  S8  1  0.64860205  0.46288178  0.87069593  1
  S  S9  1  0.61360772  0.39357780  0.62886692  1
  S  S10  1  0.63677115  0.10855439  0.12876892  1
  S  S11  1  0.07658039  0.32049295  0.87104112  1
  S  S12  1  0.67100060  0.17709069  0.37083533  1
  S  S13  1  0.04183586  0.25064637  0.62859902  1
  S  S14  1  0.06611914  0.96523227  0.12854276  1
  S  S15  1  0.10100349  0.03462153  0.37099734  1
  S  S16  1  0.47132146  0.10862368  0.62920337  1
  S  S17  1  0.50610438  0.17790172  0.87105347  1
  S  S18  1  0.49389562  0.82209828  0.12894653  1
  S  S19  1  0.93388086  0.03476773  0.87145724  1
  S  S20  1  0.89899651  0.96537847  0.62900266  1
  S  S21  1  0.52867854  0.89137632  0.37079663  1
  S  S22  1  0.92341961  0.67950705  0.12895888  1
  S  S23  1  0.95816414  0.74935363  0.37140098  1
  S  S24  1  0.32899940  0.82290931  0.62916467  1
  S  S25  1  0.36322885  0.89144561  0.87123108  1
  S  S26  1  0.75734148  0.67998234  0.62870420  1
  S  S27  1  0.79215092  0.74879358  0.87106669  1
loop_
_geom_bond_atom_site_label_1
_geom_bond_atom_site_label_2
_geom_bond_distance
_geom_bond_site_symmetry_2
Li0 S0 2.560073 1_556
Li0 S5 2.562715 1_555
Li0 S18 2.564080 1_556
Li0 S8 2.564840 1_555
Li0 S22 2.566158 1_556
Li0 S27 2.570243 1_555
Li1 S23 2.521815 1_455
Li1 S24 2.522870 1_555
Li1 S1 2.557386 1_555
Li1 S26 2.561686 1_455
Li1 S4 2.592540 1_555
Li1 S3 2.598861 1_455
Li2 S8 2.560073 1_554
Li2 S2 2.562715 1_555
Li2 S17 2.564080 1_554
Li2 S0 2.564840 1_555
Li2 S11 2.566158 1_554
Li2 S6 2.570243 1_555
Li3 S4 2.554738 1_555
Li3 S3 2.554738 1_555
Li3 S9 2.564863 1_555
Li3 S1 2.564863 1_555
Li3 S26 2.564905 1_555
Li3 S7 2.564905 1_555
Li4 S13 2.521815 1_655
Li4 S12 2.522870 1_555
Li4 S9 2.557386 1_555
Li4 S7 2.561686 1_655
Li4 S3 2.592540 1_555
Li4 S4 2.598861 1_655
Li5 S10 2.552275 1_555
Li5 S19 2.561787 1_454
Li5 S14 2.562880 1_545
Li5 S17 2.564414 1_554
Li5 S25 2.565795 1_544
Li5 S6 2.566109 1_555
Li6 S25 2.552275 1_554
Li6 S14 2.561787 1_655
Li6 S19 2.562880 1_564
Li6 S18 2.564414 1_555
Li6 S10 2.565795 1_565
Li6 S27 2.566109 1_554
Li7 S20 2.550273 1_545
Li7 S21 2.552351 1_545
Li7 S15 2.561508 1_655
Li7 S16 2.565397 1_555
Li7 S13 2.571910 1_655
Li7 S12 2.575781 1_555
Li8 S15 2.550273 1_565
Li8 S16 2.552351 1_565
Li8 S20 2.561508 1_455
Li8 S21 2.565397 1_555
Li8 S23 2.571910 1_455
Li8 S24 2.575781 1_555
Nb0 S22 2.480737 1_455
Nb0 S2 2.483169 1_455
Nb0 S0 2.491337 1_555
Nb0 S23 2.505306 1_455
Nb0 S1 2.511202 1_555
Nb0 S3 2.513340 1_455
Nb1 S5 2.494826 1_555
Nb1 S27 2.499839 1_555
Nb1 S8 2.500757 1_555
Nb1 S26 2.501265 1_555
Nb1 S9 2.502687 1_555
Nb1 S4 2.505536 1_555
Nb2 S2 2.494826 1_555
Nb2 S6 2.499839 1_555
Nb2 S0 2.500757 1_555
Nb2 S7 2.501265 1_555
Nb2 S1 2.502687 1_555
Nb2 S3 2.505536 1_555
Nb3 S2 2.483645 1_555
Nb3 S6 2.489131 1_655
Nb3 S10 2.489775 1_555
Nb3 S7 2.506403 1_655
Nb3 S12 2.506521 1_555
Nb3 S3 2.510724 1_555
Nb4 S11 2.480737 1_655
Nb4 S5 2.483169 1_655
Nb4 S8 2.491337 1_555
Nb4 S13 2.505306 1_655
Nb4 S9 2.511202 1_555
Nb4 S4 2.513340 1_655
Nb5 S13 2.481633 1_555
Nb5 S16 2.493734 1_555
Nb5 S11 2.494250 1_555
Nb5 S9 2.494471 1_555
Nb5 S8 2.506751 1_555
Nb5 S17 2.507571 1_555
Nb6 S12 2.488382 1_555
Nb6 S15 2.488637 1_555
Nb6 S7 2.490149 1_555
Nb6 S6 2.504200 1_555
Nb6 S10 2.505005 1_555
Nb6 S14 2.505703 1_545
Nb7 S12 2.497520 1_555
Nb7 S15 2.498930 1_655
Nb7 S14 2.499502 1_645
Nb7 S21 2.500779 1_545
Nb7 S18 2.501049 1_545
Nb7 S10 2.501583 1_555
Nb8 S11 2.482451 1_655
Nb8 S19 2.490912 1_555
Nb8 S17 2.492609 1_555
Nb8 S13 2.499625 1_655
Nb8 S20 2.506596 1_545
Nb8 S16 2.508274 1_555
Nb9 S24 2.497520 1_545
Nb9 S20 2.498930 1_445
Nb9 S19 2.499502 1_455
Nb9 S16 2.500779 1_555
Nb9 S17 2.501049 1_555
Nb9 S25 2.501583 1_545
Nb10 S22 2.482451 1_455
Nb10 S14 2.490912 1_555
Nb10 S18 2.492609 1_555
Nb10 S23 2.499625 1_455
Nb10 S15 2.506596 1_565
Nb10 S21 2.508274 1_555
Nb11 S23 2.481633 1_555
Nb11 S21 2.493734 1_555
Nb11 S22 2.494250 1_555
Nb11 S1 2.494471 1_555
Nb11 S0 2.506751 1_555
Nb11 S18 2.507571 1_555
Nb12 S24 2.488382 1_555
Nb12 S20 2.488637 1_555
Nb12 S26 2.490149 1_555
Nb12 S27 2.504200 1_555
Nb12 S25 2.505005 1_555
Nb12 S19 2.505703 1_565
Nb13 S5 2.483645 1_555
Nb13 S27 2.489131 1_455
Nb13 S25 2.489775 1_555
Nb13 S26 2.506403 1_455
Nb13 S24 2.506521 1_555
Nb13 S4 2.510724 1_555
