# generated using pymatgen
data_Li5Fe6(BO3)6
_symmetry_space_group_name_H-M   'P 1'
_cell_length_a   9.05999648
_cell_length_b   9.05999698
_cell_length_c   11.33445113
_cell_angle_alpha   111.92071325
_cell_angle_beta   111.92071335
_cell_angle_gamma   59.79824576
_symmetry_Int_Tables_number   1
_chemical_formula_structural   Li5Fe6(BO3)6
_chemical_formula_sum   'Li10 Fe12 B12 O36'
_cell_volume   725.70394414
_cell_formula_units_Z   2
loop_
 _symmetry_equiv_pos_site_id
 _symmetry_equiv_pos_as_xyz
  1  'x, y, z'
loop_
 _atom_site_type_symbol
 _atom_site_label
 _atom_site_symmetry_multiplicity
 _atom_site_fract_x
 _atom_site_fract_y
 _atom_site_fract_z
 _atom_site_occupancy
  Li  Li0  1  0.00544600  0.99219600  0.83428100  1
  Li  Li1  1  0.13352200  0.14894800  0.58611900  1
  Li  Li2  1  0.14689000  0.17492400  0.33104200  1
  Li  Li3  1  0.34046100  0.32901300  0.83948200  1
  Li  Li4  1  0.31635900  0.31205600  0.10562500  1
  Li  Li5  1  0.49219600  0.50544600  0.33428100  1
  Li  Li6  1  0.67492400  0.64689000  0.83104200  1
  Li  Li7  1  0.64894800  0.63352200  0.08611900  1
  Li  Li8  1  0.81205600  0.81635900  0.60562500  1
  Li  Li9  1  0.82901300  0.84046100  0.33948200  1
  Fe  Fe0  1  0.02108400  0.34059200  0.87418100  1
  Fe  Fe1  1  0.16810700  0.48251600  0.61345100  1
  Fe  Fe2  1  0.17002200  0.84163100  0.36219300  1
  Fe  Fe3  1  0.34163100  0.67002200  0.86219300  1
  Fe  Fe4  1  0.30397100  0.97829300  0.11511900  1
  Fe  Fe5  1  0.47829300  0.80397100  0.61511900  1
  Fe  Fe6  1  0.50840200  0.16667000  0.36892300  1
  Fe  Fe7  1  0.66667000  0.00840200  0.86892300  1
  Fe  Fe8  1  0.67333200  0.30740000  0.12177800  1
  Fe  Fe9  1  0.80740000  0.17333200  0.62177800  1
  Fe  Fe10  1  0.84059200  0.52108400  0.37418100  1
  Fe  Fe11  1  0.98251600  0.66810700  0.11345100  1
  B  B0  1  0.00215200  0.68334000  0.86714800  1
  B  B1  1  0.14401300  0.83106900  0.62459400  1
  B  B2  1  0.18334000  0.50215200  0.36714800  1
  B  B3  1  0.34962000  0.01348800  0.87822800  1
  B  B4  1  0.33106900  0.64401300  0.12459400  1
  B  B5  1  0.48685200  0.14265000  0.62378000  1
  B  B6  1  0.51348800  0.84962000  0.37822800  1
  B  B7  1  0.68555900  0.34086100  0.87378900  1
  B  B8  1  0.64265000  0.98685200  0.12378000  1
  B  B9  1  0.83103000  0.48888200  0.62827800  1
  B  B10  1  0.84086200  0.18555900  0.37378800  1
  B  B11  1  0.98888200  0.33103000  0.12827800  1
  O  O0  1  0.02012400  0.10658300  0.39065300  1
  O  O1  1  0.16858500  0.57652000  0.83931400  1
  O  O2  1  0.07652000  0.66858500  0.33931400  1
  O  O3  1  0.26704300  0.94108800  0.90662100  1
  O  O4  1  0.11201200  0.42560900  0.40414900  1
  O  O5  1  0.28037700  0.19189700  0.89064600  1
  O  O6  1  0.07716200  0.16418100  0.14589700  1
  O  O7  1  0.21670800  0.90551300  0.58613500  1
  O  O8  1  0.05777800  0.40098200  0.08279500  1
  O  O9  1  0.24868100  0.67052900  0.65924100  1
  O  O10  1  0.17052900  0.74868100  0.15924100  1
  O  O11  1  0.31851800  0.23493500  0.64024400  1
  O  O12  1  0.35628600  0.41175400  0.35587200  1
  O  O13  1  0.51039700  0.90259300  0.84024000  1
  O  O14  1  0.40259300  0.01039700  0.34024000  1
  O  O15  1  0.44108800  0.76704300  0.40662100  1
  O  O16  1  0.60918700  0.25754100  0.90188300  1
  O  O17  1  0.60658300  0.52012400  0.89065300  1
  O  O18  1  0.41921300  0.47052700  0.13317700  1
  O  O19  1  0.40551300  0.71670800  0.08613500  1
  O  O20  1  0.55249800  0.19419700  0.55927000  1
  O  O21  1  0.60067300  0.99063300  0.67551100  1
  O  O22  1  0.49063300  0.10067300  0.17551100  1
  O  O23  1  0.66418100  0.57716200  0.64589700  1
  O  O24  1  0.69189700  0.78037700  0.39064600  1
  O  O25  1  0.84125000  0.23809000  0.83337100  1
  O  O26  1  0.73809000  0.34125000  0.33337100  1
  O  O27  1  0.92560900  0.61201200  0.90415000  1
  O  O28  1  0.75754100  0.10918700  0.40188300  1
  O  O29  1  0.91175400  0.85628600  0.85587200  1
  O  O30  1  0.73493500  0.81851800  0.14024400  1
  O  O31  1  0.90098200  0.55777800  0.58279500  1
  O  O32  1  0.69419700  0.05249800  0.05927000  1
  O  O33  1  0.93494300  0.32253200  0.65839800  1
  O  O34  1  0.82253200  0.43494300  0.15839800  1
  O  O35  1  0.97052700  0.91921300  0.63317700  1
loop_
_geom_bond_atom_site_label_1
_geom_bond_atom_site_label_2
_geom_bond_distance
_geom_bond_site_symmetry_2
Li0 O29 1.930889 1_455
Li0 O25 1.961528 1_465
Li0 O3 2.057259 1_555
Li0 O35 2.068739 1_455
Li1 O33 1.916547 1_455
Li1 O7 1.939117 1_545
Li1 O11 1.995386 1_555
Li1 O0 2.042940 1_555
Li2 O6 1.931802 1_555
Li2 O0 1.940653 1_555
Li2 O4 2.003276 1_555
Li2 O14 2.015230 1_555
Li3 O5 1.905211 1_555
Li3 O1 1.985220 1_555
Li3 O11 2.064908 1_555
Li3 O16 2.077790 1_555
Li4 O18 1.954805 1_555
Li4 O22 1.986139 1_555
Li4 O8 2.002139 1_555
Li4 O5 2.238779 1_554
Li5 O12 1.930889 1_555
Li5 O26 1.961528 1_555
Li5 O15 2.057259 1_555
Li5 O18 2.068739 1_555
Li6 O23 1.931802 1_555
Li6 O17 1.940653 1_555
Li6 O27 2.003277 1_555
Li6 O13 2.015230 1_555
Li7 O34 1.916547 1_555
Li7 O19 1.939117 1_555
Li7 O30 1.995386 1_555
Li7 O17 2.042940 1_554
Li8 O35 1.954805 1_555
Li8 O21 1.986139 1_555
Li8 O31 2.002139 1_555
Li8 O24 2.238779 1_555
Li9 O24 1.905211 1_555
Li9 O2 1.985220 1_655
Li9 O30 2.064908 1_555
Li9 O28 2.077790 1_565
Fe0 O5 2.011154 1_555
Fe0 O27 2.089561 1_455
Fe0 O25 2.090417 1_455
Fe0 O8 2.151973 1_556
Fe0 O33 2.241026 1_455
Fe1 O9 2.002976 1_555
Fe1 O11 2.026068 1_555
Fe1 O31 2.081239 1_455
Fe1 O4 2.145276 1_555
Fe1 O1 2.376267 1_555
Fe2 O2 2.027682 1_555
Fe2 O0 2.044436 1_565
Fe2 O15 2.098210 1_555
Fe2 O10 2.135044 1_555
Fe2 O7 2.303140 1_555
Fe3 O1 2.027682 1_555
Fe3 O17 2.044436 1_555
Fe3 O3 2.098210 1_555
Fe3 O9 2.135044 1_555
Fe3 O19 2.303140 1_556
Fe4 O6 1.948168 1_565
Fe4 O19 2.005427 1_555
Fe4 O3 2.176850 1_554
Fe4 O22 2.239070 1_565
Fe4 O14 2.323531 1_565
Fe5 O23 1.948169 1_555
Fe5 O7 2.005427 1_555
Fe5 O15 2.176850 1_555
Fe5 O21 2.239070 1_555
Fe5 O13 2.323531 1_555
Fe6 O14 1.954073 1_555
Fe6 O28 1.959258 1_555
Fe6 O12 1.966187 1_555
Fe6 O20 1.982791 1_555
Fe6 O22 2.010945 1_555
Fe7 O13 1.954073 1_545
Fe7 O16 1.959258 1_555
Fe7 O29 1.966187 1_545
Fe7 O32 1.982791 1_556
Fe7 O21 2.010945 1_545
Fe8 O34 2.032061 1_555
Fe8 O18 2.039060 1_555
Fe8 O32 2.076100 1_555
Fe8 O26 2.184339 1_555
Fe8 O16 2.257388 1_554
Fe9 O33 2.032061 1_555
Fe9 O35 2.039060 1_545
Fe9 O20 2.076099 1_555
Fe9 O25 2.184339 1_555
Fe9 O28 2.257388 1_555
Fe10 O24 2.011154 1_555
Fe10 O4 2.089562 1_655
Fe10 O26 2.090417 1_555
Fe10 O31 2.151973 1_555
Fe10 O34 2.241026 1_555
Fe11 O10 2.002976 1_655
Fe11 O30 2.026068 1_555
Fe11 O8 2.081239 1_655
Fe11 O27 2.145266 1_554
Fe11 O2 2.376267 1_655
B0 O29 1.386545 1_455
B0 O27 1.394568 1_455
B0 O1 1.403165 1_555
B1 O35 1.382395 1_455
B1 O9 1.389157 1_555
B1 O7 1.399819 1_555
B2 O12 1.386545 1_555
B2 O4 1.394561 1_555
B2 O2 1.403165 1_555
B3 O5 1.379103 1_555
B3 O3 1.387324 1_545
B3 O13 1.410498 1_545
B4 O18 1.382395 1_555
B4 O10 1.389157 1_555
B4 O19 1.399819 1_555
B5 O11 1.368548 1_555
B5 O20 1.401990 1_555
B5 O21 1.423611 1_545
B6 O24 1.379103 1_555
B6 O15 1.387324 1_555
B6 O14 1.410498 1_565
B7 O17 1.373839 1_555
B7 O25 1.381710 1_555
B7 O16 1.421091 1_555
B8 O30 1.368548 1_555
B8 O32 1.401990 1_565
B8 O22 1.423611 1_565
B9 O23 1.361766 1_555
B9 O31 1.392573 1_555
B9 O33 1.411021 1_555
B10 O0 1.373829 1_655
B10 O26 1.381705 1_555
B10 O28 1.421105 1_555
B11 O6 1.361766 1_655
B11 O8 1.392573 1_655
B11 O34 1.411021 1_555
