# generated using pymatgen
data_SnP2(NO3)2
_symmetry_space_group_name_H-M   'P 1'
_cell_length_a   5.05271000
_cell_length_b   10.32399844
_cell_length_c   11.15889785
_cell_angle_alpha   107.25381092
_cell_angle_beta   101.12839796
_cell_angle_gamma   89.62558235
_symmetry_Int_Tables_number   1
_chemical_formula_structural   SnP2(NO3)2
_chemical_formula_sum   'Sn2 P4 N4 O12'
_cell_volume   544.64860742
_cell_formula_units_Z   2
loop_
 _symmetry_equiv_pos_site_id
 _symmetry_equiv_pos_as_xyz
  1  'x, y, z'
loop_
 _atom_site_type_symbol
 _atom_site_label
 _atom_site_symmetry_multiplicity
 _atom_site_fract_x
 _atom_site_fract_y
 _atom_site_fract_z
 _atom_site_occupancy
  Sn  Sn0  1  0.61569400  0.35866000  0.31772600  1
  Sn  Sn1  1  0.38430600  0.64134000  0.68227400  1
  P  P0  1  0.24907200  0.23208100  0.48260600  1
  P  P1  1  0.75092800  0.76791900  0.51739400  1
  P  P2  1  0.97376500  0.23989000  0.08699700  1
  P  P3  1  0.02623500  0.76011000  0.91300300  1
  N  N0  1  0.13450100  0.64707500  0.24037900  1
  N  N1  1  0.86549900  0.35292500  0.75962100  1
  N  N2  1  0.60821200  0.93015500  0.19212800  1
  N  N3  1  0.39178800  0.06984500  0.80787200  1
  O  O0  1  0.00027000  0.30823500  0.45670200  1
  O  O1  1  0.99973000  0.69176500  0.54329800  1
  O  O2  1  0.42870500  0.20889400  0.38385400  1
  O  O3  1  0.57129500  0.79110600  0.61614600  1
  O  O4  1  0.32881300  0.18876800  0.59769200  1
  O  O5  1  0.67118700  0.81123200  0.40230800  1
  O  O6  1  0.75329800  0.21649300  0.15547500  1
  O  O7  1  0.24670200  0.78350700  0.84452500  1
  O  O8  1  0.94937100  0.17480700  0.94894900  1
  O  O9  1  0.05062900  0.82519300  0.05105100  1
  O  O10  1  0.20580600  0.33570000  0.17015400  1
  O  O11  1  0.79419400  0.66430000  0.82984600  1
loop_
_geom_bond_atom_site_label_1
_geom_bond_atom_site_label_2
_geom_bond_distance
_geom_bond_site_symmetry_2
O0 P0 1.504551 1_555
O0 Sn0 2.398819 1_455
O1 P1 1.504551 1_555
O1 Sn1 2.398819 1_655
O2 P0 1.523873 1_555
O2 Sn0 2.189268 1_555
O3 P1 1.523873 1_555
O3 Sn1 2.189268 1_555
O4 P0 1.466326 1_555
O5 P1 1.466326 1_555
O6 P2 1.524712 1_555
O6 Sn0 2.193605 1_555
O7 P3 1.524712 1_555
O7 Sn1 2.193605 1_555
O8 P2 1.467471 1_556
O9 P3 1.467471 1_554
O10 P2 1.504920 1_455
O10 Sn0 2.348517 1_555
O11 P3 1.504920 1_655
O11 Sn1 2.348517 1_555
