# generated using pymatgen
data_WN2
_symmetry_space_group_name_H-M   'P 1'
_cell_length_a   9.74391200
_cell_length_b   9.74391200
_cell_length_c   3.04100000
_cell_angle_alpha   90.00000000
_cell_angle_beta   90.00000000
_cell_angle_gamma   90.00000000
_symmetry_Int_Tables_number   1
_chemical_formula_structural   WN2
_chemical_formula_sum   'W8 N16'
_cell_volume   288.72415985
_cell_formula_units_Z   8
loop_
 _symmetry_equiv_pos_site_id
 _symmetry_equiv_pos_as_xyz
  1  'x, y, z'
loop_
 _atom_site_type_symbol
 _atom_site_label
 _atom_site_symmetry_multiplicity
 _atom_site_fract_x
 _atom_site_fract_y
 _atom_site_fract_z
 _atom_site_occupancy
  W  W0  1  0.49719500  0.74956600  0.16966400  1
  W  W1  1  0.24956600  0.00280500  0.66966400  1
  W  W2  1  0.75043400  0.99719500  0.66966400  1
  W  W3  1  0.50280500  0.25043400  0.16966400  1
  W  W4  1  0.00280500  0.75043400  0.33033600  1
  W  W5  1  0.25043400  0.49719500  0.83033600  1
  W  W6  1  0.74956600  0.50280500  0.83033600  1
  W  W7  1  0.99719500  0.24956600  0.33033600  1
  N  N0  1  0.35202300  0.89847800  0.28790900  1
  N  N1  1  0.60152200  0.85202300  0.78790900  1
  N  N2  1  0.39847800  0.14797700  0.78790900  1
  N  N3  1  0.64797700  0.10152200  0.28790900  1
  N  N4  1  0.84900200  0.90103900  0.25078000  1
  N  N5  1  0.34900200  0.40103900  0.24922000  1
  N  N6  1  0.09896100  0.84900200  0.74922000  1
  N  N7  1  0.59896100  0.34900200  0.75078000  1
  N  N8  1  0.40103900  0.65099800  0.75078000  1
  N  N9  1  0.90103900  0.15099800  0.74922000  1
  N  N10  1  0.15099800  0.09896100  0.25078000  1
  N  N11  1  0.65099800  0.59896100  0.24922000  1
  N  N12  1  0.85202300  0.39847800  0.21209100  1
  N  N13  1  0.10152200  0.35202300  0.71209100  1
  N  N14  1  0.89847800  0.64797700  0.71209100  1
  N  N15  1  0.14797700  0.60152200  0.21209100  1
loop_
_geom_bond_atom_site_label_1
_geom_bond_atom_site_label_2
_geom_bond_distance
_geom_bond_site_symmetry_2
N0 W1 1.837872 1_565
N0 W0 2.058055 1_555
N0 W1 2.358974 1_564
N1 W0 1.837872 1_556
N1 W2 2.058055 1_555
N1 W0 2.358974 1_555
N2 W3 1.837872 1_556
N2 W1 2.058055 1_555
N2 W3 2.358974 1_555
N3 W2 1.837872 1_545
N3 W3 2.058055 1_555
N3 W2 2.358974 1_544
N4 W2 1.850114 1_555
N4 W4 2.111389 1_655
N4 W2 2.218827 1_554
N5 W5 1.850114 1_554
N5 W3 2.111389 1_555
N5 W5 2.218827 1_555
N6 W4 1.850114 1_555
N6 W1 2.111389 1_565
N6 W4 2.218827 1_556
N7 W3 1.850114 1_556
N7 W6 2.111389 1_555
N7 W3 2.218827 1_555
N8 W0 1.850114 1_556
N8 W5 2.111389 1_555
N8 W0 2.218827 1_555
N9 W7 1.850114 1_555
N9 W2 2.111389 1_545
N9 W7 2.218827 1_556
N10 W1 1.850114 1_555
N10 W7 2.111389 1_455
N10 W1 2.218827 1_554
N11 W6 1.850114 1_554
N11 W0 2.111389 1_555
N11 W6 2.218827 1_555
N12 W6 1.837872 1_554
N12 W7 2.058055 1_555
N12 W6 2.358974 1_555
N13 W7 1.837872 1_455
N13 W5 2.058055 1_555
N13 W7 2.358974 1_456
N14 W4 1.837872 1_655
N14 W6 2.058055 1_555
N14 W4 2.358974 1_656
N15 W5 1.837872 1_554
N15 W4 2.058055 1_555
N15 W5 2.358974 1_555
