# generated using pymatgen
data_Sr3La4O9
_symmetry_space_group_name_H-M   'P 1'
_cell_length_a   9.66857912
_cell_length_b   9.66857912
_cell_length_c   9.66857993
_cell_angle_alpha   37.57253046
_cell_angle_beta   37.57253046
_cell_angle_gamma   37.57252781
_symmetry_Int_Tables_number   1
_chemical_formula_structural   Sr3La4O9
_chemical_formula_sum   'Sr3 La4 O9'
_cell_volume   301.42434746
_cell_formula_units_Z   1
loop_
 _symmetry_equiv_pos_site_id
 _symmetry_equiv_pos_as_xyz
  1  'x, y, z'
loop_
 _atom_site_type_symbol
 _atom_site_label
 _atom_site_symmetry_multiplicity
 _atom_site_fract_x
 _atom_site_fract_y
 _atom_site_fract_z
 _atom_site_occupancy
  Sr  Sr0  1  0.18239200  0.18239200  0.18239200  1
  Sr  Sr1  1  0.00386100  0.00386100  0.00386100  1
  Sr  Sr2  1  0.57434200  0.57434200  0.57434200  1
  La  La0  1  0.31145600  0.31145600  0.31145600  1
  La  La1  1  0.43991500  0.43991500  0.43991500  1
  La  La2  1  0.87538700  0.87538700  0.87538700  1
  La  La3  1  0.74395500  0.74395500  0.74395500  1
  O  O0  1  0.58799600  0.97891800  0.21238300  1
  O  O1  1  0.97891800  0.21238300  0.58799600  1
  O  O2  1  0.21238300  0.58799600  0.97891800  1
  O  O3  1  0.53863900  0.14951100  0.77299100  1
  O  O4  1  0.39828100  0.05945400  0.66175500  1
  O  O5  1  0.66175500  0.39828100  0.05945400  1
  O  O6  1  0.77299100  0.53863900  0.14951100  1
  O  O7  1  0.05945400  0.66175500  0.39828100  1
  O  O8  1  0.14951100  0.77299100  0.53863900  1
loop_
_geom_bond_atom_site_label_1
_geom_bond_atom_site_label_2
_geom_bond_distance
_geom_bond_site_symmetry_2
La0 O0 2.366213 1_545
La0 O1 2.366213 1_455
La0 O2 2.366213 1_554
La0 O7 2.509173 1_555
La0 O5 2.509173 1_555
La0 O4 2.509173 1_555
La1 O8 2.335935 1_555
La1 O6 2.335935 1_555
La1 O3 2.335936 1_555
La1 O7 2.601103 1_555
La1 O4 2.601103 1_555
La1 O5 2.601104 1_555
La2 O2 2.397669 1_655
La2 O1 2.397669 1_565
La2 O0 2.397669 1_556
La2 O3 2.424198 1_565
La2 O6 2.424198 1_556
La2 O8 2.424198 1_655
La3 O4 2.305122 1_565
La3 O5 2.305122 1_556
La3 O7 2.305122 1_655
La3 O8 2.813835 1_655
La3 O3 2.813835 1_565
La3 O6 2.813835 1_556
O0 Sr2 2.439733 1_555
O0 Sr0 2.828811 1_565
O0 Sr1 2.864653 1_665
O1 Sr2 2.439733 1_555
O1 Sr0 2.828811 1_655
O1 Sr1 2.864653 1_656
O2 Sr2 2.439733 1_555
O2 Sr0 2.828811 1_556
O2 Sr1 2.864653 1_566
O3 Sr0 2.506008 1_556
O3 Sr2 3.061182 1_555
O4 Sr1 2.491657 1_556
O5 Sr1 2.491656 1_655
O6 Sr0 2.506007 1_655
O6 Sr2 3.061182 1_555
O7 Sr1 2.491657 1_565
O8 Sr0 2.506008 1_565
O8 Sr2 3.061182 1_555
