# generated using pymatgen
data_Li5CoO4
_symmetry_space_group_name_H-M   'P 1'
_cell_length_a   6.68264900
_cell_length_b   7.08101500
_cell_length_c   7.99330900
_cell_angle_alpha   90.00000000
_cell_angle_beta   90.00000000
_cell_angle_gamma   90.00000000
_symmetry_Int_Tables_number   1
_chemical_formula_structural   Li5CoO4
_chemical_formula_sum   'Li20 Co4 O16'
_cell_volume   378.24288477
_cell_formula_units_Z   4
loop_
 _symmetry_equiv_pos_site_id
 _symmetry_equiv_pos_as_xyz
  1  'x, y, z'
loop_
 _atom_site_type_symbol
 _atom_site_label
 _atom_site_symmetry_multiplicity
 _atom_site_fract_x
 _atom_site_fract_y
 _atom_site_fract_z
 _atom_site_occupancy
  Li  Li0  1  0.75662000  0.50000000  0.00000000  1
  Li  Li1  1  0.24338000  0.50000000  0.00000000  1
  Li  Li2  1  0.50000000  0.74397600  0.09777400  1
  Li  Li3  1  0.74488300  0.97794300  0.15552400  1
  Li  Li4  1  0.25511700  0.97794300  0.15552400  1
  Li  Li5  1  0.50000000  0.24209600  0.20380900  1
  Li  Li6  1  0.00000000  0.74209600  0.29619100  1
  Li  Li7  1  0.75511700  0.47794300  0.34447600  1
  Li  Li8  1  0.24488300  0.47794300  0.34447600  1
  Li  Li9  1  0.00000000  0.24397600  0.40222600  1
  Li  Li10  1  0.25662000  0.00000000  0.50000000  1
  Li  Li11  1  0.74338000  0.00000000  0.50000000  1
  Li  Li12  1  0.00000000  0.75602400  0.59777400  1
  Li  Li13  1  0.75511700  0.52205700  0.65552400  1
  Li  Li14  1  0.24488300  0.52205700  0.65552400  1
  Li  Li15  1  0.00000000  0.25790400  0.70380900  1
  Li  Li16  1  0.50000000  0.75790400  0.79619100  1
  Li  Li17  1  0.74488300  0.02205700  0.84447600  1
  Li  Li18  1  0.25511700  0.02205700  0.84447600  1
  Li  Li19  1  0.50000000  0.25602400  0.90222600  1
  Co  Co0  1  0.00000000  0.23234400  0.10280500  1
  Co  Co1  1  0.50000000  0.73234400  0.39719500  1
  Co  Co2  1  0.50000000  0.26765600  0.60280500  1
  Co  Co3  1  0.00000000  0.76765600  0.89719500  1
  O  O0  1  0.74042800  0.21758600  0.02402100  1
  O  O1  1  0.25957200  0.21758600  0.02402100  1
  O  O2  1  0.00000000  0.46851400  0.21618400  1
  O  O3  1  0.50000000  0.52324000  0.23690800  1
  O  O4  1  0.00000000  0.02324000  0.26309200  1
  O  O5  1  0.50000000  0.96851400  0.28381600  1
  O  O6  1  0.75957200  0.71758600  0.47597900  1
  O  O7  1  0.24042800  0.71758600  0.47597900  1
  O  O8  1  0.75957200  0.28241400  0.52402100  1
  O  O9  1  0.24042800  0.28241400  0.52402100  1
  O  O10  1  0.50000000  0.03148600  0.71618400  1
  O  O11  1  0.00000000  0.97676000  0.73690800  1
  O  O12  1  0.50000000  0.47676000  0.76309200  1
  O  O13  1  0.00000000  0.53148600  0.78381600  1
  O  O14  1  0.74042800  0.78241400  0.97597900  1
  O  O15  1  0.25957200  0.78241400  0.97597900  1
loop_
_geom_bond_atom_site_label_1
_geom_bond_atom_site_label_2
_geom_bond_distance
_geom_bond_site_symmetry_2
Li0 O14 2.011886 1_554
Li0 O0 2.011886 1_555
Li0 O2 2.383492 1_655
Li0 O13 2.383492 1_654
Li0 O3 2.560076 1_555
Li0 O12 2.560076 1_554
Li1 O15 2.011886 1_554
Li1 O1 2.011886 1_555
Li1 O2 2.383492 1_555
Li1 O13 2.383492 1_554
Li1 O3 2.560076 1_555
Li1 O12 2.560076 1_554
Li2 O14 1.898248 1_554
Li2 O15 1.898248 1_554
Li2 O3 1.918316 1_555
Li2 O5 2.177017 1_555
Li3 O5 1.932379 1_555
Li3 O4 1.936160 1_665
Li3 O14 1.994374 1_554
Li3 O0 1.996325 1_565
Li4 O5 1.932379 1_555
Li4 O4 1.936160 1_565
Li4 O15 1.994374 1_554
Li4 O1 1.996325 1_565
Li5 O3 2.008288 1_555
Li5 O5 2.040068 1_545
Li5 O0 2.162603 1_555
Li5 O1 2.162603 1_555
Li6 O4 2.008288 1_565
Li6 O2 2.040068 1_555
Li6 O7 2.162603 1_555
Li6 O6 2.162603 1_455
Li7 O2 1.932379 1_655
Li7 O3 1.936160 1_555
Li7 O8 1.994374 1_555
Li7 O6 1.996325 1_555
Li8 O2 1.932379 1_555
Li8 O3 1.936160 1_555
Li8 O9 1.994374 1_555
Li8 O7 1.996325 1_555
Li9 O9 1.898248 1_555
Li9 O8 1.898248 1_455
Li9 O4 1.918316 1_555
Li9 O2 2.177017 1_555
Li10 O9 2.011886 1_555
Li10 O7 2.011886 1_545
Li10 O10 2.383492 1_555
Li10 O5 2.383492 1_545
Li10 O11 2.560076 1_545
Li10 O4 2.560076 1_555
Li11 O8 2.011886 1_555
Li11 O6 2.011886 1_545
Li11 O10 2.383492 1_555
Li11 O5 2.383492 1_545
Li11 O4 2.560076 1_655
Li11 O11 2.560076 1_645
Li12 O7 1.898248 1_555
Li12 O6 1.898248 1_455
Li12 O11 1.918316 1_555
Li12 O13 2.177017 1_555
Li13 O13 1.932379 1_655
Li13 O12 1.936160 1_555
Li13 O6 1.994374 1_555
Li13 O8 1.996325 1_555
Li14 O13 1.932379 1_555
Li14 O12 1.936160 1_555
Li14 O7 1.994374 1_555
Li14 O9 1.996325 1_555
Li15 O11 2.008288 1_545
Li15 O13 2.040068 1_555
Li15 O9 2.162603 1_555
Li15 O8 2.162603 1_455
Li16 O12 2.008288 1_555
Li16 O10 2.040068 1_565
Li16 O14 2.162603 1_555
Li16 O15 2.162603 1_555
Li17 O10 1.932379 1_555
Li17 O11 1.936160 1_645
Li17 O0 1.994374 1_556
Li17 O14 1.996325 1_545
Li18 O10 1.932379 1_555
Li18 O11 1.936160 1_545
Li18 O1 1.994374 1_556
Li18 O15 1.996325 1_545
Li19 O0 1.898248 1_556
Li19 O1 1.898248 1_556
Li19 O12 1.918316 1_555
Li19 O10 2.177017 1_555
Co0 O1 1.848360 1_555
Co0 O0 1.848360 1_455
Co0 O2 1.902103 1_555
Co0 O4 1.958038 1_555
Co1 O6 1.848360 1_555
Co1 O7 1.848360 1_555
Co1 O5 1.902103 1_555
Co1 O3 1.958038 1_555
Co2 O8 1.848360 1_555
Co2 O9 1.848360 1_555
Co2 O10 1.902103 1_555
Co2 O12 1.958038 1_555
Co3 O15 1.848360 1_555
Co3 O14 1.848360 1_455
Co3 O13 1.902103 1_555
Co3 O11 1.958038 1_555
