# generated using pymatgen
data_Rb2Be2O3
_symmetry_space_group_name_H-M   'P 1'
_cell_length_a   5.35270535
_cell_length_b   7.78546425
_cell_length_c   10.56804109
_cell_angle_alpha   90.00000000
_cell_angle_beta   90.00000000
_cell_angle_gamma   90.00000000
_symmetry_Int_Tables_number   1
_chemical_formula_structural   Rb2Be2O3
_chemical_formula_sum   'Rb8 Be8 O12'
_cell_volume   440.40510600
_cell_formula_units_Z   4
loop_
 _symmetry_equiv_pos_site_id
 _symmetry_equiv_pos_as_xyz
  1  'x, y, z'
loop_
 _atom_site_type_symbol
 _atom_site_label
 _atom_site_symmetry_multiplicity
 _atom_site_fract_x
 _atom_site_fract_y
 _atom_site_fract_z
 _atom_site_occupancy
  Rb  Rb0  1  0.25000000  0.87223429  0.08863063  1
  Rb  Rb1  1  0.75000000  0.51033903  0.11044103  1
  Rb  Rb2  1  0.25000000  0.01033903  0.38955897  1
  Rb  Rb3  1  0.75000000  0.37223429  0.41136937  1
  Rb  Rb4  1  0.25000000  0.62776571  0.58863063  1
  Rb  Rb5  1  0.75000000  0.98966097  0.61044103  1
  Rb  Rb6  1  0.25000000  0.48966097  0.88955897  1
  Rb  Rb7  1  0.75000000  0.12776571  0.91136937  1
  Be  Be0  1  0.25000000  0.27892976  0.16532368  1
  Be  Be1  1  0.75000000  0.10845970  0.20798515  1
  Be  Be2  1  0.25000000  0.60845970  0.29201485  1
  Be  Be3  1  0.75000000  0.77892976  0.33467632  1
  Be  Be4  1  0.25000000  0.22107024  0.66532368  1
  Be  Be5  1  0.75000000  0.39154030  0.70798515  1
  Be  Be6  1  0.25000000  0.89154030  0.79201485  1
  Be  Be7  1  0.75000000  0.72107024  0.83467632  1
  O  O0  1  0.25000000  0.47726818  0.18227895  1
  O  O1  1  0.99890757  0.18075162  0.15496254  1
  O  O2  1  0.50109243  0.18075162  0.15496254  1
  O  O3  1  0.00109243  0.68075162  0.34503746  1
  O  O4  1  0.49890757  0.68075162  0.34503746  1
  O  O5  1  0.75000000  0.97726818  0.31772105  1
  O  O6  1  0.25000000  0.02273182  0.68227895  1
  O  O7  1  0.99890757  0.31924838  0.65496254  1
  O  O8  1  0.50109243  0.31924838  0.65496254  1
  O  O9  1  0.49890757  0.81924838  0.84503746  1
  O  O10  1  0.00109243  0.81924838  0.84503746  1
  O  O11  1  0.75000000  0.52273182  0.81772105  1
loop_
_geom_bond_atom_site_label_1
_geom_bond_atom_site_label_2
_geom_bond_distance
_geom_bond_site_symmetry_2
Be0 O2 1.550045 1_555
Be0 O1 1.550045 1_455
Be0 O0 1.554518 1_555
Be1 O5 1.545354 1_545
Be1 O2 1.551084 1_555
Be1 O1 1.551084 1_555
Be2 O0 1.545354 1_555
Be2 O3 1.551084 1_555
Be2 O4 1.551084 1_555
Be3 O4 1.550045 1_555
Be3 O3 1.550045 1_655
Be3 O5 1.554518 1_555
Be4 O7 1.550045 1_455
Be4 O8 1.550045 1_555
Be4 O6 1.554518 1_555
Be5 O11 1.545354 1_555
Be5 O8 1.551084 1_555
Be5 O7 1.551084 1_555
Be6 O6 1.545354 1_565
Be6 O9 1.551084 1_555
Be6 O10 1.551084 1_555
Be7 O10 1.550045 1_655
Be7 O9 1.550045 1_555
Be7 O11 1.554518 1_555
O0 Rb1 2.793836 1_455
O0 Rb1 2.793836 1_555
O0 Rb6 3.094981 1_554
O1 Rb0 2.840276 1_645
O1 Rb7 2.927850 1_554
O1 Rb1 2.929298 1_555
O1 Rb2 3.116600 1_655
O2 Rb0 2.840276 1_545
O2 Rb7 2.927850 1_554
O2 Rb1 2.929298 1_555
O2 Rb2 3.116600 1_555
O3 Rb3 2.840276 1_455
O3 Rb4 2.927850 1_555
O3 Rb2 2.929298 1_565
O3 Rb1 3.116600 1_455
O4 Rb3 2.840276 1_555
O4 Rb4 2.927850 1_555
O4 Rb2 2.929298 1_565
O4 Rb1 3.116600 1_555
O5 Rb2 2.793836 1_565
O5 Rb2 2.793836 1_665
O5 Rb5 3.094981 1_555
O6 Rb5 2.793836 1_545
O6 Rb5 2.793836 1_445
O6 Rb2 3.094981 1_555
O7 Rb4 2.840276 1_655
O7 Rb3 2.927850 1_555
O7 Rb5 2.929298 1_545
O7 Rb6 3.116600 1_655
O8 Rb4 2.840276 1_555
O8 Rb3 2.927850 1_555
O8 Rb5 2.929298 1_545
O8 Rb6 3.116600 1_555
O9 Rb7 2.840276 1_565
O9 Rb0 2.927850 1_556
O9 Rb6 2.929298 1_555
O9 Rb5 3.116600 1_555
O10 Rb7 2.840276 1_465
O10 Rb0 2.927850 1_556
O10 Rb6 2.929298 1_555
O10 Rb5 3.116600 1_455
O11 Rb6 2.793836 1_555
O11 Rb6 2.793836 1_655
O11 Rb1 3.094981 1_556
