# generated using pymatgen
data_Mn3VTe2(PO4)6
_symmetry_space_group_name_H-M   'P 1'
_cell_length_a   8.87232573
_cell_length_b   8.87232573
_cell_length_c   8.87232581
_cell_angle_alpha   59.88841038
_cell_angle_beta   59.88841038
_cell_angle_gamma   59.88840457
_symmetry_Int_Tables_number   1
_chemical_formula_structural   Mn3VTe2(PO4)6
_chemical_formula_sum   'Mn3 V1 Te2 P6 O24'
_cell_volume   492.60235625
_cell_formula_units_Z   1
loop_
 _symmetry_equiv_pos_site_id
 _symmetry_equiv_pos_as_xyz
  1  'x, y, z'
loop_
 _atom_site_type_symbol
 _atom_site_label
 _atom_site_symmetry_multiplicity
 _atom_site_fract_x
 _atom_site_fract_y
 _atom_site_fract_z
 _atom_site_occupancy
  Mn  Mn0  1  0.16052200  0.16052200  0.16052200  1
  Mn  Mn1  1  0.34890100  0.34890100  0.34890100  1
  Mn  Mn2  1  0.65453900  0.65453900  0.65453900  1
  V  V0  1  0.85413300  0.85413300  0.85413300  1
  Te  Te0  1  0.01754100  0.01754100  0.01754100  1
  Te  Te1  1  0.50991200  0.50991200  0.50991200  1
  P  P0  1  0.04356700  0.45866900  0.74845600  1
  P  P1  1  0.45866900  0.74845600  0.04356700  1
  P  P2  1  0.74845600  0.04356700  0.45866900  1
  P  P3  1  0.24298800  0.94302200  0.55354600  1
  P  P4  1  0.55354600  0.24298800  0.94302200  1
  P  P5  1  0.94302200  0.55354600  0.24298800  1
  O  O0  1  0.09041800  0.52893000  0.30027900  1
  O  O1  1  0.30027900  0.09041800  0.52893000  1
  O  O2  1  0.06281200  0.25546400  0.91680100  1
  O  O3  1  0.52893000  0.30027900  0.09041800  1
  O  O4  1  0.24057000  0.44016900  0.60441900  1
  O  O5  1  0.98651000  0.60793100  0.82681000  1
  O  O6  1  0.25546400  0.91680100  0.06281200  1
  O  O7  1  0.44016900  0.60441900  0.24057000  1
  O  O8  1  0.60441900  0.24057000  0.44016900  1
  O  O9  1  0.19464300  0.96884500  0.39990700  1
  O  O10  1  0.08204000  0.91458900  0.74572600  1
  O  O11  1  0.39990700  0.19464300  0.96884500  1
  O  O12  1  0.60793100  0.82681000  0.98651000  1
  O  O13  1  0.91680100  0.06281200  0.25546400  1
  O  O14  1  0.82681000  0.98651000  0.60793100  1
  O  O15  1  0.40526800  0.74312200  0.57981600  1
  O  O16  1  0.57981600  0.40526800  0.74312200  1
  O  O17  1  0.74572600  0.08204000  0.91458900  1
  O  O18  1  0.96884500  0.39990700  0.19464300  1
  O  O19  1  0.74312200  0.57981600  0.40526800  1
  O  O20  1  0.47915600  0.68458800  0.90539000  1
  O  O21  1  0.91458900  0.74572600  0.08204000  1
  O  O22  1  0.68458800  0.90539000  0.47915600  1
  O  O23  1  0.90539000  0.47915600  0.68458800  1
loop_
_geom_bond_atom_site_label_1
_geom_bond_atom_site_label_2
_geom_bond_distance
_geom_bond_site_symmetry_2
Mn0 O18 1.999790 1_455
Mn0 O9 1.999790 1_545
Mn0 O11 1.999790 1_554
Mn0 O6 2.336136 1_545
Mn0 O2 2.336136 1_554
Mn0 O13 2.336136 1_455
Mn1 O0 2.150036 1_555
Mn1 O3 2.150036 1_555
Mn1 O1 2.150036 1_555
Mn1 O8 2.365100 1_555
Mn1 O4 2.365100 1_555
Mn1 O7 2.365100 1_555
Mn2 O23 2.037168 1_555
Mn2 O20 2.037168 1_555
Mn2 O22 2.037168 1_555
Mn2 O15 2.269971 1_555
Mn2 O19 2.269971 1_555
Mn2 O16 2.269971 1_555
O0 P5 1.511714 1_455
O1 P3 1.511714 1_545
O2 P0 1.659994 1_555
O2 Te0 2.003409 1_556
O3 P4 1.511714 1_554
O4 P0 1.548075 1_555
O4 Te1 2.397743 1_555
O5 P0 1.546379 1_655
O5 V0 1.970072 1_555
O6 P1 1.659994 1_555
O6 Te0 2.003408 1_565
O7 P1 1.548075 1_555
O7 Te1 2.397743 1_555
O8 P2 1.548075 1_555
O8 Te1 2.397743 1_555
O9 P3 1.506423 1_555
O10 P3 1.580160 1_555
O10 V0 1.980089 1_455
O11 P4 1.506424 1_555
O12 P1 1.546379 1_556
O12 V0 1.970072 1_555
O13 P2 1.659994 1_555
O13 Te0 2.003409 1_655
O14 P2 1.546379 1_565
O14 V0 1.970072 1_555
O15 P3 1.622548 1_555
O15 Te1 2.076107 1_555
O16 P4 1.622549 1_555
O16 Te1 2.076107 1_555
O17 P4 1.580160 1_555
O17 V0 1.980088 1_545
O18 P5 1.506423 1_555
O19 P5 1.622549 1_555
O19 Te1 2.076107 1_555
O20 P1 1.492380 1_556
O21 P5 1.580160 1_555
O21 V0 1.980089 1_554
O22 P2 1.492380 1_565
O23 P0 1.492380 1_655
