# generated using pymatgen
data_Al2O3
_symmetry_space_group_name_H-M   'P 1'
_cell_length_a   4.77764890
_cell_length_b   5.03439861
_cell_length_c   13.93822398
_cell_angle_alpha   90.00000000
_cell_angle_beta   90.00000000
_cell_angle_gamma   90.00000000
_symmetry_Int_Tables_number   1
_chemical_formula_structural   Al2O3
_chemical_formula_sum   'Al16 O24'
_cell_volume   335.25037252
_cell_formula_units_Z   8
loop_
 _symmetry_equiv_pos_site_id
 _symmetry_equiv_pos_as_xyz
  1  'x, y, z'
loop_
 _atom_site_type_symbol
 _atom_site_label
 _atom_site_symmetry_multiplicity
 _atom_site_fract_x
 _atom_site_fract_y
 _atom_site_fract_z
 _atom_site_occupancy
  Al  Al0  1  -0.00000188  0.18438086  0.07302471  1
  Al  Al1  1  0.99779311  0.74731787  0.17846584  1
  Al  Al2  1  -0.00000188  0.31561914  0.57302471  1
  Al  Al3  1  0.99779311  0.75268213  0.67846584  1
  Al  Al4  1  0.50220689  0.24731787  0.17846584  1
  Al  Al5  1  0.50220689  0.25268213  0.67846584  1
  Al  Al6  1  0.50000188  0.68438086  0.07302471  1
  Al  Al7  1  0.50000188  0.81561914  0.57302471  1
  Al  Al8  1  0.49999812  0.18438086  0.42697529  1
  Al  Al9  1  0.49999812  0.31561914  0.92697529  1
  Al  Al10  1  0.49779311  0.74731787  0.32153416  1
  Al  Al11  1  0.49779311  0.75268213  0.82153416  1
  Al  Al12  1  0.00000188  0.68438086  0.42697529  1
  Al  Al13  1  0.00220689  0.24731787  0.32153416  1
  Al  Al14  1  0.00220689  0.25268213  0.82153416  1
  Al  Al15  1  0.00000188  0.81561914  0.92697529  1
  O  O0  1  0.14288789  0.11765729  0.20330976  1
  O  O1  1  0.14288789  0.38234271  0.70330976  1
  O  O2  1  0.15331531  0.83576144  0.04984776  1
  O  O3  1  0.15331531  0.66423856  0.54984776  1
  O  O4  1  0.19764773  0.96299432  0.37665726  1
  O  O5  1  0.19764773  0.53700568  0.87665726  1
  O  O6  1  0.30235227  0.46299432  0.37665726  1
  O  O7  1  0.30235227  0.03700568  0.87665726  1
  O  O8  1  0.34668469  0.16423856  0.54984776  1
  O  O9  1  0.34668469  0.33576144  0.04984776  1
  O  O10  1  0.35711211  0.61765729  0.20330976  1
  O  O11  1  0.35711211  0.88234271  0.70330976  1
  O  O12  1  0.64288789  0.11765729  0.29669024  1
  O  O13  1  0.64288789  0.38234271  0.79669024  1
  O  O14  1  0.65331531  0.83576144  0.45015224  1
  O  O15  1  0.65331531  0.66423856  0.95015224  1
  O  O16  1  0.69764773  0.53700568  0.62334274  1
  O  O17  1  0.69764773  0.96299432  0.12334274  1
  O  O18  1  0.80235227  0.46299432  0.12334274  1
  O  O19  1  0.80235227  0.03700568  0.62334274  1
  O  O20  1  0.84668469  0.33576144  0.45015224  1
  O  O21  1  0.84668469  0.16423856  0.95015224  1
  O  O22  1  0.85711211  0.88234271  0.79669024  1
  O  O23  1  0.85711211  0.61765729  0.29669024  1
loop_
_geom_bond_atom_site_label_1
_geom_bond_atom_site_label_2
_geom_bond_distance
_geom_bond_site_symmetry_2
Al0 O18 1.830569 1_455
Al0 O9 1.851663 1_555
Al0 O21 1.865446 1_454
Al0 O2 1.929053 1_545
Al0 O17 1.954674 1_445
Al0 O0 1.968891 1_555
Al1 O10 1.868975 1_655
Al1 O18 1.873792 1_555
Al1 O23 1.895579 1_555
Al1 O17 1.955915 1_555
Al1 O2 1.991018 1_655
Al1 O0 2.019053 1_665
Al2 O19 1.830569 1_455
Al2 O8 1.851663 1_555
Al2 O20 1.865446 1_455
Al2 O3 1.929053 1_555
Al2 O16 1.954674 1_455
Al2 O1 1.968891 1_555
Al3 O11 1.868975 1_655
Al3 O19 1.873792 1_565
Al3 O22 1.895579 1_555
Al3 O16 1.955915 1_555
Al3 O3 1.991018 1_655
Al3 O1 2.019053 1_655
Al4 O0 1.868975 1_555
Al4 O17 1.873792 1_545
Al4 O12 1.895579 1_555
Al4 O18 1.955915 1_555
Al4 O9 1.991018 1_555
Al4 O10 2.019053 1_555
Al5 O1 1.868975 1_555
Al5 O16 1.873792 1_555
Al5 O13 1.895579 1_555
Al5 O19 1.955915 1_555
Al5 O8 1.991018 1_555
Al5 O11 2.019053 1_545
Al6 O17 1.830569 1_555
Al6 O2 1.851663 1_555
Al6 O15 1.865446 1_554
Al6 O9 1.929053 1_555
Al6 O18 1.954674 1_555
Al6 O10 1.968891 1_555
Al7 O16 1.830569 1_555
Al7 O3 1.851663 1_555
Al7 O14 1.865446 1_555
Al7 O8 1.929053 1_565
Al7 O19 1.954674 1_565
Al7 O11 1.968891 1_555
Al8 O6 1.830569 1_555
Al8 O20 1.851663 1_555
Al8 O8 1.865446 1_555
Al8 O14 1.929053 1_545
Al8 O4 1.954674 1_545
Al8 O12 1.968891 1_555
Al9 O7 1.830569 1_555
Al9 O21 1.851663 1_555
Al9 O9 1.865446 1_556
Al9 O15 1.929053 1_555
Al9 O5 1.954674 1_555
Al9 O13 1.968891 1_555
Al10 O23 1.868975 1_555
Al10 O6 1.873792 1_555
Al10 O10 1.895579 1_555
Al10 O4 1.955915 1_555
Al10 O14 1.991018 1_555
Al10 O12 2.019053 1_565
Al11 O22 1.868975 1_555
Al11 O7 1.873792 1_565
Al11 O11 1.895579 1_555
Al11 O5 1.955915 1_555
Al11 O15 1.991018 1_555
Al11 O13 2.019053 1_555
Al12 O4 1.830569 1_555
Al12 O14 1.851663 1_455
Al12 O3 1.865446 1_555
Al12 O20 1.929053 1_455
Al12 O6 1.954674 1_555
Al12 O23 1.968891 1_455
Al13 O12 1.868975 1_455
Al13 O4 1.873792 1_545
Al13 O0 1.895579 1_555
Al13 O6 1.955915 1_555
Al13 O20 1.991018 1_455
Al13 O23 2.019053 1_455
Al14 O13 1.868975 1_455
Al14 O5 1.873792 1_555
Al14 O1 1.895579 1_555
Al14 O7 1.955915 1_555
Al14 O21 1.991018 1_455
Al14 O22 2.019053 1_445
Al15 O5 1.830569 1_555
Al15 O15 1.851663 1_455
Al15 O2 1.865446 1_556
Al15 O21 1.929053 1_465
Al15 O7 1.954674 1_565
Al15 O22 1.968891 1_455
