# generated using pymatgen
data_LiFeP4O13
_symmetry_space_group_name_H-M   'P 1'
_cell_length_a   8.84995330
_cell_length_b   10.21560779
_cell_length_c   13.87718228
_cell_angle_alpha   78.75423808
_cell_angle_beta   95.52152478
_cell_angle_gamma   114.12668569
_symmetry_Int_Tables_number   1
_chemical_formula_structural   LiFeP4O13
_chemical_formula_sum   'Li4 Fe4 P16 O52'
_cell_volume   1122.83081538
_cell_formula_units_Z   4
loop_
 _symmetry_equiv_pos_site_id
 _symmetry_equiv_pos_as_xyz
  1  'x, y, z'
loop_
 _atom_site_type_symbol
 _atom_site_label
 _atom_site_symmetry_multiplicity
 _atom_site_fract_x
 _atom_site_fract_y
 _atom_site_fract_z
 _atom_site_occupancy
  Li  Li0  1  0.50474200  0.86096000  0.48033000  1
  Li  Li1  1  0.87083800  0.19725700  0.00644200  1
  Li  Li2  1  0.63074000  0.30308400  0.99422700  1
  Li  Li3  1  0.15171300  0.80006000  0.99958000  1
  Fe  Fe0  1  0.18649900  0.24130800  0.25781200  1
  Fe  Fe1  1  0.31003100  0.25606800  0.74114000  1
  Fe  Fe2  1  0.81272900  0.75713700  0.74530700  1
  Fe  Fe3  1  0.68880900  0.74439500  0.25429200  1
  P  P0  1  0.61280500  0.03856900  0.18160700  1
  P  P1  1  0.04803700  0.94702900  0.15209600  1
  P  P2  1  0.16587600  0.95945000  0.64163900  1
  P  P3  1  0.31526900  0.98264500  0.29786400  1
  P  P4  1  0.10856500  0.53389400  0.18235600  1
  P  P5  1  0.33529900  0.54242400  0.35582400  1
  P  P6  1  0.88767500  0.46271700  0.81761900  1
  P  P7  1  0.38947300  0.96728100  0.81625300  1
  P  P8  1  0.83250800  0.03862300  0.35686800  1
  P  P9  1  0.95323500  0.05296000  0.84707600  1
  P  P10  1  0.80979900  0.47893000  0.30143300  1
  P  P11  1  0.18682700  0.51955300  0.70150600  1
  P  P12  1  0.54572700  0.44700000  0.15384600  1
  P  P13  1  0.45420600  0.55164700  0.84778800  1
  P  P14  1  0.68570900  0.01821300  0.70118000  1
  P  P15  1  0.66584300  0.46058400  0.64245900  1
  O  O0  1  0.35427000  0.61074300  0.75766300  1
  O  O1  1  0.87718000  0.05284700  0.93982000  1
  O  O2  1  0.63768100  0.11162600  0.61793700  1
  O  O3  1  0.82842000  0.89473300  0.33518000  1
  O  O4  1  0.75852200  0.39504500  0.73306300  1
  O  O5  1  0.79274900  0.61088500  0.32599700  1
  O  O6  1  0.44597900  0.04838300  0.20801800  1
  O  O7  1  0.62383800  0.44898900  0.06088500  1
  O  O8  1  0.13215600  0.16761500  0.84051100  1
  O  O9  1  0.64446700  0.38602700  0.24563800  1
  O  O10  1  0.63023600  0.66762400  0.84455100  1
  O  O11  1  0.73075300  0.99980000  0.44819500  1
  O  O12  1  0.94247100  0.54013100  0.21471700  1
  O  O13  1  0.20492800  0.38854800  0.67605100  1
  O  O14  1  0.07938600  0.37518500  0.18987700  1
  O  O15  1  0.55883300  0.59425300  0.17251800  1
  O  O16  1  0.67956900  0.60847400  0.65963200  1
  O  O17  1  0.24117000  0.60519600  0.26493300  1
  O  O18  1  0.85321200  0.38166200  0.38455200  1
  O  O19  1  0.67003000  0.14019700  0.08572100  1
  O  O20  1  0.32935800  0.87089000  0.91181400  1
  O  O21  1  0.58342400  0.87990800  0.18943900  1
  O  O22  1  0.15404500  0.63238700  0.08631600  1
  O  O23  1  0.29615400  0.11286200  0.32316800  1
  O  O24  1  0.94117400  0.90434900  0.83096500  1
  O  O25  1  0.55638200  0.95654700  0.79104400  1
  O  O26  1  0.69987300  0.88462300  0.67623800  1
  O  O27  1  0.00835500  0.15334500  0.36003000  1
  O  O28  1  0.14751800  0.88918200  0.24423700  1
  O  O29  1  0.26263500  0.89705800  0.73122500  1
  O  O30  1  0.25140400  0.52574300  0.45175500  1
  O  O31  1  0.05705600  0.09547500  0.16636600  1
  O  O32  1  0.74269100  0.10755800  0.26551500  1
  O  O33  1  0.18074500  0.10809100  0.65735200  1
  O  O34  1  0.44377300  0.40295900  0.83223900  1
  O  O35  1  0.51084500  0.66000500  0.35879500  1
  O  O36  1  0.91722600  0.62119300  0.81176800  1
  O  O37  1  0.12508600  0.94778400  0.05900700  1
  O  O38  1  0.36717200  0.33285000  0.15836200  1
  O  O39  1  0.14935200  0.62099100  0.61931000  1
  O  O40  1  0.48921700  0.34713500  0.64033000  1
  O  O41  1  0.36111300  0.88431900  0.37745300  1
  O  O42  1  0.05418600  0.45410000  0.78973800  1
  O  O43  1  0.36846500  0.53425900  0.94290600  1
  O  O44  1  0.75336100  0.48267400  0.54656500  1
  O  O45  1  0.87025600  0.83008800  0.15712200  1
  O  O46  1  0.85392100  0.11097700  0.75423800  1
  O  O47  1  0.42286700  0.12773700  0.80700300  1
  O  O48  1  0.32180100  0.39415400  0.34050600  1
  O  O49  1  0.98886400  0.84615800  0.64211100  1
  O  O50  1  0.25118600  0.97592700  0.54629400  1
  O  O51  1  0.83038300  0.36007000  0.91307000  1
loop_
_geom_bond_atom_site_label_1
_geom_bond_atom_site_label_2
_geom_bond_distance
_geom_bond_site_symmetry_2
Li0 O41 1.864592 1_555
Li0 O11 1.953718 1_555
Li1 O1 1.908890 1_554
Li1 O19 1.996908 1_555
Li1 O51 2.032347 1_554
Li2 O7 1.924600 1_556
Li2 O51 2.003830 1_555
Li2 O19 2.016397 1_556
Li3 O20 1.890340 1_555
Li3 O22 1.898195 1_556
Li3 O37 1.956144 1_556
Fe0 O23 1.973202 1_555
Fe0 O38 2.008648 1_555
Fe0 O14 2.010669 1_555
Fe0 O27 2.019953 1_555
Fe0 O48 2.023533 1_555
Fe0 O31 2.050504 1_555
Fe1 O13 1.975675 1_555
Fe1 O33 1.990433 1_555
Fe1 O8 1.991243 1_555
Fe1 O47 1.994613 1_555
Fe1 O40 2.012593 1_555
Fe1 O34 2.061758 1_555
Fe2 O26 2.001154 1_555
Fe2 O24 2.001606 1_555
Fe2 O36 2.005174 1_555
Fe2 O49 2.017524 1_555
Fe2 O10 2.017631 1_555
Fe2 O16 2.019958 1_555
Fe3 O15 1.987150 1_555
Fe3 O45 1.992565 1_555
Fe3 O3 1.999869 1_555
Fe3 O21 2.001063 1_555
Fe3 O5 2.004157 1_555
Fe3 O35 2.041754 1_555
O0 P11 1.613513 1_555
O0 P13 1.624811 1_555
O1 P9 1.508300 1_555
O2 P14 1.494282 1_555
O3 P8 1.542578 1_565
O4 P6 1.604226 1_555
O4 P15 1.619879 1_555
O5 P10 1.520354 1_555
O6 P0 1.601129 1_555
O6 P3 1.630814 1_545
O7 P12 1.514061 1_555
O8 P9 1.535388 1_455
O9 P10 1.604519 1_555
O9 P12 1.641791 1_555
O10 P13 1.521989 1_555
O11 P8 1.518570 1_565
O12 P4 1.606601 1_655
O12 P10 1.611191 1_555
O13 P11 1.520532 1_555
O14 P4 1.517608 1_555
O15 P12 1.532010 1_555
O16 P15 1.529330 1_555
O17 P4 1.609004 1_555
O17 P5 1.617127 1_555
O18 P10 1.498400 1_555
O19 P0 1.505300 1_555
O20 P7 1.486415 1_555
O21 P0 1.516136 1_565
O22 P4 1.483159 1_555
O23 P3 1.516267 1_545
O24 P9 1.536712 1_565
O25 P7 1.600987 1_555
O25 P14 1.625053 1_565
O26 P14 1.526553 1_565
O27 P8 1.520916 1_455
O28 P3 1.604734 1_555
O28 P1 1.635010 1_555
O29 P7 1.607447 1_555
O29 P2 1.617817 1_555
O30 P5 1.533239 1_555
O31 P1 1.536356 1_545
O32 P0 1.604392 1_555
O32 P8 1.627991 1_555
O33 P2 1.526712 1_545
O34 P13 1.540002 1_555
O35 P5 1.529548 1_555
O36 P6 1.517435 1_555
O37 P1 1.514968 1_555
O38 P12 1.531312 1_555
O39 P11 1.493997 1_555
O40 P15 1.520162 1_555
O41 P3 1.485807 1_555
O42 P6 1.599387 1_455
O42 P11 1.624758 1_555
O43 P13 1.529956 1_555
O44 P15 1.536235 1_555
O45 P1 1.536062 1_655
O46 P14 1.601318 1_555
O46 P9 1.641250 1_555
O47 P7 1.523108 1_545
O48 P5 1.525271 1_555
O49 P2 1.520002 1_655
O50 P2 1.533124 1_555
O51 P6 1.504671 1_555
