# generated using pymatgen
data_YH5S3O13
_symmetry_space_group_name_H-M   'P 1'
_cell_length_a   6.86874800
_cell_length_b   8.11926018
_cell_length_c   9.74256352
_cell_angle_alpha   79.84785102
_cell_angle_beta   77.58479882
_cell_angle_gamma   77.57969599
_symmetry_Int_Tables_number   1
_chemical_formula_structural   YH5S3O13
_chemical_formula_sum   'Y2 H10 S6 O26'
_cell_volume   513.37206564
_cell_formula_units_Z   2
loop_
 _symmetry_equiv_pos_site_id
 _symmetry_equiv_pos_as_xyz
  1  'x, y, z'
loop_
 _atom_site_type_symbol
 _atom_site_label
 _atom_site_symmetry_multiplicity
 _atom_site_fract_x
 _atom_site_fract_y
 _atom_site_fract_z
 _atom_site_occupancy
  Y  Y0  1  0.13405300  0.67656300  0.69344500  1
  Y  Y1  1  0.86594700  0.32343700  0.30655500  1
  H  H0  1  0.07155800  0.77580200  0.18113000  1
  H  H1  1  0.42241500  0.13450200  0.61775600  1
  H  H2  1  0.59294800  0.21069600  0.13619000  1
  H  H3  1  0.19933000  0.92047400  0.86440900  1
  H  H4  1  0.50839900  0.86288200  0.10431900  1
  H  H5  1  0.49160100  0.13711800  0.89568100  1
  H  H6  1  0.80067000  0.07952600  0.13559100  1
  H  H7  1  0.40705200  0.78930400  0.86381000  1
  H  H8  1  0.57758500  0.86549800  0.38224400  1
  H  H9  1  0.92844200  0.22419800  0.81887000  1
  S  S0  1  0.19946100  0.88942100  0.31879300  1
  S  S1  1  0.30646900  0.33505800  0.45936800  1
  S  S2  1  0.20515700  0.29165100  0.95488100  1
  S  S3  1  0.79484300  0.70834900  0.04511900  1
  S  S4  1  0.69353100  0.66494200  0.54063200  1
  S  S5  1  0.80053900  0.11057900  0.68120700  1
  O  O0  1  0.05397300  0.03823200  0.27356600  1
  O  O1  1  0.10447500  0.35175200  0.08858300  1
  O  O2  1  0.18498900  0.32302600  0.35688300  1
  O  O3  1  0.10557000  0.17096100  0.91035400  1
  O  O4  1  0.17612500  0.73946800  0.24577100  1
  O  O5  1  0.20249200  0.45871200  0.55582300  1
  O  O6  1  0.16241800  0.83500700  0.47133200  1
  O  O7  1  0.32613500  0.15287900  0.54917100  1
  O  O8  1  0.25290400  0.42931400  0.84107700  1
  O  O9  1  0.50918400  0.36513100  0.39000300  1
  O  O10  1  0.41329400  0.91148200  0.26782800  1
  O  O11  1  0.27513500  0.81224100  0.83441300  1
  O  O12  1  0.41691500  0.18521100  0.98602800  1
  O  O13  1  0.58308500  0.81478900  0.01397200  1
  O  O14  1  0.72486500  0.18775900  0.16558700  1
  O  O15  1  0.58670600  0.08851800  0.73217200  1
  O  O16  1  0.49081600  0.63486900  0.60999700  1
  O  O17  1  0.74709600  0.57068600  0.15892300  1
  O  O18  1  0.67386500  0.84712100  0.45082900  1
  O  O19  1  0.83758200  0.16499300  0.52866800  1
  O  O20  1  0.79750800  0.54128800  0.44417700  1
  O  O21  1  0.82387500  0.26053200  0.75422900  1
  O  O22  1  0.89443000  0.82903900  0.08964600  1
  O  O23  1  0.81501100  0.67697400  0.64311700  1
  O  O24  1  0.89552500  0.64824800  0.91141700  1
  O  O25  1  0.94602700  0.96176800  0.72643400  1
loop_
_geom_bond_atom_site_label_1
_geom_bond_atom_site_label_2
_geom_bond_distance
_geom_bond_site_symmetry_2
H0 O4 1.018513 1_555
H0 O22 1.601782 1_455
H1 O7 1.009212 1_555
H1 O15 1.693621 1_555
H2 O14 0.978739 1_555
H3 O11 0.978281 1_555
H4 O13 1.015505 1_555
H4 O10 1.668333 1_555
H5 O12 1.015505 1_555
H5 O15 1.668333 1_555
H6 O14 0.978281 1_555
H7 O11 0.978739 1_555
H8 O18 1.009212 1_555
H8 O10 1.693621 1_555
H9 O21 1.018513 1_555
H9 O3 1.601782 1_655
O0 S0 1.461129 1_545
O0 Y1 2.435351 1_455
O1 S2 1.450762 1_554
O1 Y1 2.395983 1_455
O2 S1 1.459595 1_555
O2 Y1 2.345431 1_455
O3 S2 1.477199 1_555
O4 S0 1.566034 1_555
O5 S1 1.461740 1_555
O5 Y0 2.314015 1_555
O6 S0 1.456980 1_555
O6 Y0 2.306676 1_555
O7 S1 1.574891 1_555
O8 S2 1.466502 1_555
O8 Y0 2.355251 1_555
O9 S1 1.462381 1_555
O9 Y1 2.379940 1_555
O10 S0 1.484630 1_555
O11 Y0 2.367198 1_555
O12 S2 1.584668 1_555
O13 S3 1.584668 1_555
O14 Y1 2.367198 1_555
O15 S5 1.484630 1_555
O16 S4 1.462381 1_555
O16 Y0 2.379940 1_555
O17 S3 1.466502 1_555
O17 Y1 2.355251 1_555
O18 S4 1.574891 1_555
O19 S5 1.456980 1_555
O19 Y1 2.306676 1_555
O20 S4 1.461740 1_555
O20 Y1 2.314015 1_555
O21 S5 1.566034 1_555
O22 S3 1.477199 1_555
O23 S4 1.459595 1_555
O23 Y0 2.345431 1_655
O24 S3 1.450762 1_556
O24 Y0 2.395983 1_655
O25 S5 1.461129 1_565
O25 Y0 2.435351 1_655
