# generated using pymatgen
data_Li2VOF4
_symmetry_space_group_name_H-M   'P 1'
_cell_length_a   3.73525900
_cell_length_b   6.74449200
_cell_length_c   14.70810431
_cell_angle_alpha   89.20066310
_cell_angle_beta   90.00000000
_cell_angle_gamma   90.00000000
_symmetry_Int_Tables_number   1
_chemical_formula_structural   Li2VOF4
_chemical_formula_sum   'Li8 V4 O4 F16'
_cell_volume   370.49674837
_cell_formula_units_Z   4
loop_
 _symmetry_equiv_pos_site_id
 _symmetry_equiv_pos_as_xyz
  1  'x, y, z'
loop_
 _atom_site_type_symbol
 _atom_site_label
 _atom_site_symmetry_multiplicity
 _atom_site_fract_x
 _atom_site_fract_y
 _atom_site_fract_z
 _atom_site_occupancy
  Li  Li0  1  0.00000000  0.94303900  0.12887700  1
  Li  Li1  1  0.00000000  0.82538700  0.73419200  1
  Li  Li2  1  0.50000000  0.67629900  0.22945300  1
  Li  Li3  1  0.50000000  0.57345700  0.64259200  1
  Li  Li4  1  0.00000000  0.43519400  0.36783700  1
  Li  Li5  1  0.00000000  0.31249900  0.75686200  1
  Li  Li6  1  0.50000000  0.18808800  0.25534800  1
  Li  Li7  1  0.50000000  0.05718100  0.86473500  1
  V  V0  1  0.00000000  0.89119300  0.42747900  1
  V  V1  1  0.50000000  0.59754100  0.93317800  1
  V  V2  1  0.00000000  0.40258400  0.06795600  1
  V  V3  1  0.50000000  0.12319500  0.56795900  1
  O  O0  1  0.50000000  0.93023700  0.45147400  1
  O  O1  1  0.00000000  0.55348000  0.95417800  1
  O  O2  1  0.50000000  0.44809600  0.04981600  1
  O  O3  1  0.50000000  0.33301200  0.50920200  1
  F  F0  1  0.50000000  0.94376700  0.18722700  1
  F  F1  1  0.50000000  0.86940100  0.64548800  1
  F  F2  1  0.50000000  0.84599500  0.98322000  1
  F  F3  1  0.00000000  0.76071600  0.31872800  1
  F  F4  1  0.50000000  0.74368200  0.82158700  1
  F  F5  1  0.00000000  0.64157900  0.48136800  1
  F  F6  1  0.00000000  0.63471000  0.14307000  1
  F  F7  1  0.00000000  0.55819300  0.69156900  1
  F  F8  1  0.50000000  0.44737000  0.30695100  1
  F  F9  1  0.50000000  0.36437400  0.86240400  1
  F  F10  1  0.00000000  0.25542500  0.18185100  1
  F  F11  1  0.50000000  0.25224300  0.68563200  1
  F  F12  1  0.00000000  0.15387200  0.01970500  1
  F  F13  1  0.00000000  0.13662600  0.35917600  1
  F  F14  1  0.00000000  0.04587600  0.55880500  1
  F  F15  1  0.00000000  0.05568800  0.81208300  1
loop_
_geom_bond_atom_site_label_1
_geom_bond_atom_site_label_2
_geom_bond_distance
_geom_bond_site_symmetry_2
Li3 O3 2.562757 1_555
O0 V0 1.919513 1_655
O0 V0 1.919513 1_555
O0 V3 2.165910 1_565
O1 V1 1.915513 1_555
O1 V1 1.915513 1_455
O1 V2 1.946456 1_556
O2 V2 1.910801 1_555
O2 V2 1.910801 1_655
O2 V1 1.977549 1_554
O3 V3 1.647805 1_555
F0 Li2 1.899644 1_555
F0 Li6 1.940424 1_565
F0 Li0 2.055412 1_555
F0 Li0 2.055412 1_655
F1 Li3 1.997040 1_555
F1 V3 2.043475 1_565
F1 Li1 2.295106 1_555
F1 Li1 2.295106 1_655
F2 V1 1.839592 1_555
F2 Li7 2.235277 1_565
F3 V0 1.836339 1_555
F3 Li4 2.301653 1_555
F3 Li2 2.357371 1_555
F3 Li2 2.357371 1_455
F4 V1 1.902683 1_555
F4 Li7 2.216041 1_565
F4 Li1 2.328998 1_655
F4 Li1 2.328998 1_555
F5 V0 1.850738 1_555
F5 Li4 2.188773 1_555
F6 V2 1.928684 1_555
F6 Li0 2.087074 1_555
F6 Li2 2.278357 1_555
F6 Li2 2.278357 1_455
F7 Li5 1.903618 1_555
F7 Li1 1.916259 1_555
F7 Li3 2.003868 1_455
F7 Li3 2.003868 1_555
F8 Li2 1.906336 1_555
F8 Li6 1.916018 1_555
F8 Li4 2.072362 1_655
F8 Li4 2.072362 1_555
F9 V1 1.897973 1_555
F9 Li7 2.071666 1_555
F9 Li5 2.456687 1_655
F9 Li5 2.456687 1_555
F10 V2 1.935179 1_555
F10 Li6 2.202081 1_555
F10 Li6 2.202081 1_455
F10 Li0 2.256510 1_545
F11 V3 1.948088 1_555
F11 Li5 2.182353 1_555
F11 Li5 2.182353 1_655
F11 Li3 2.248526 1_555
F12 V2 1.830479 1_555
F12 Li0 2.129926 1_545
F13 V0 1.924299 1_545
F13 Li4 2.019488 1_555
F13 Li6 2.434295 1_555
F13 Li6 2.434295 1_455
F14 V3 1.944239 1_555
F14 V3 1.944239 1_455
F14 V0 2.208059 1_545
F15 Li5 1.902746 1_555
F15 Li1 1.942869 1_545
F15 Li7 2.021898 1_555
F15 Li7 2.021898 1_455
