# generated using pymatgen
data_Li7V4O11F
_symmetry_space_group_name_H-M   'P 1'
_cell_length_a   5.05793500
_cell_length_b   5.13510230
_cell_length_c   8.63882258
_cell_angle_alpha   77.81799661
_cell_angle_beta   86.88131082
_cell_angle_gamma   77.48264581
_symmetry_Int_Tables_number   1
_chemical_formula_structural   Li7V4O11F
_chemical_formula_sum   'Li7 V4 O11 F1'
_cell_volume   214.10172799
_cell_formula_units_Z   1
loop_
 _symmetry_equiv_pos_site_id
 _symmetry_equiv_pos_as_xyz
  1  'x, y, z'
loop_
 _atom_site_type_symbol
 _atom_site_label
 _atom_site_symmetry_multiplicity
 _atom_site_fract_x
 _atom_site_fract_y
 _atom_site_fract_z
 _atom_site_occupancy
  Li  Li0  1  0.13606300  0.04088000  0.71034200  1
  Li  Li1  1  0.36503400  0.43930100  0.79797600  1
  Li  Li2  1  0.61967900  0.87543800  0.87121000  1
  Li  Li3  1  0.09746500  0.37113400  0.37176100  1
  Li  Li4  1  0.88035500  0.62203400  0.62721000  1
  Li  Li5  1  0.39632400  0.12631100  0.12635800  1
  Li  Li6  1  0.64406500  0.56669400  0.20639900  1
  V  V0  1  0.88025100  0.29240500  0.96203700  1
  V  V1  1  0.64934200  0.19530500  0.55307700  1
  V  V2  1  0.33897700  0.77192400  0.45434200  1
  V  V3  1  0.13658600  0.71253800  0.03990400  1
  O  O0  1  0.23091000  0.06786400  0.92657200  1
  O  O1  1  0.75054600  0.24939100  0.75563000  1
  O  O2  1  0.26991400  0.43990000  0.57381600  1
  O  O3  1  0.99755300  0.63416800  0.85285400  1
  O  O4  1  0.50540900  0.87949900  0.63102100  1
  O  O5  1  0.00109400  0.99097600  0.50937300  1
  O  O6  1  0.00352700  0.38243400  0.14194300  1
  O  O7  1  0.71136400  0.52362000  0.43424200  1
  O  O8  1  0.26807300  0.75278300  0.25389800  1
  O  O9  1  0.49172400  0.51335800  0.00431300  1
  O  O10  1  0.79175800  0.94543700  0.06600600  1
  F  F0  1  0.47508400  0.14290500  0.34341500  1
loop_
_geom_bond_atom_site_label_1
_geom_bond_atom_site_label_2
_geom_bond_distance
_geom_bond_site_symmetry_2
Li0 O5 1.984547 1_545
Li0 O0 1.993545 1_555
Li0 O4 2.018790 1_545
Li0 O1 2.071347 1_455
Li0 O2 2.354216 1_555
Li0 O3 2.413213 1_445
Li1 O3 1.994726 1_455
Li1 O2 2.019813 1_555
Li1 O1 2.033623 1_555
Li1 O9 2.061206 1_556
Li1 O0 2.217436 1_555
Li2 O3 2.058290 1_555
Li2 O10 2.066119 1_556
Li2 O0 2.080051 1_565
Li2 O9 2.176333 1_556
Li2 O4 2.178740 1_555
Li2 O1 2.189167 1_565
Li3 O7 2.029539 1_455
Li3 O6 2.052518 1_555
Li3 O2 2.119346 1_555
Li3 O5 2.198121 1_545
Li3 O8 2.327556 1_555
Li4 O2 2.062572 1_655
Li4 O4 2.066474 1_555
Li4 O3 2.085194 1_555
Li4 O7 2.112523 1_555
Li4 O5 2.149066 1_655
Li4 O1 2.212004 1_555
Li5 O0 2.062386 1_554
Li5 O10 2.102494 1_545
Li5 O6 2.146634 1_555
Li5 O9 2.184188 1_555
Li5 O8 2.209872 1_545
Li6 O6 1.969124 1_655
Li6 O7 1.973703 1_555
Li6 O8 1.997745 1_555
Li6 O9 2.038661 1_555
Li6 O10 2.312415 1_555
O0 V0 1.942308 1_455
O0 V3 2.021889 1_546
O1 V1 1.940418 1_555
O1 V0 2.003744 1_555
O2 V2 1.889576 1_555
O2 V1 2.074949 1_555
O3 V3 1.946367 1_656
O3 V0 2.003371 1_555
O4 V1 1.900224 1_565
O4 V2 2.010120 1_555
O5 V1 1.921905 1_465
O5 V2 1.927680 1_555
O6 V0 1.884570 1_454
O6 V3 1.975534 1_555
O7 V1 1.859687 1_555
O7 V2 2.054357 1_555
O8 V2 1.814220 1_555
O8 V3 2.063280 1_555
O9 V3 1.908790 1_555
O9 V0 2.100670 1_554
O10 V3 1.920927 1_655
O10 V0 1.951442 1_564
F0 Li5 1.960980 1_555
F0 Li3 2.044853 1_555
F0 V1 2.147557 1_555
F0 V2 2.178898 1_545
F0 Li6 2.544888 1_555
