# generated using pymatgen
data_Mn3Cr2Te3O16
_symmetry_space_group_name_H-M   'P 1'
_cell_length_a   6.30961875
_cell_length_b   6.30961875
_cell_length_c   9.15261717
_cell_angle_alpha   86.11180241
_cell_angle_beta   86.11180241
_cell_angle_gamma   57.17517651
_symmetry_Int_Tables_number   1
_chemical_formula_structural   Mn3Cr2Te3O16
_chemical_formula_sum   'Mn3 Cr2 Te3 O16'
_cell_volume   305.28360879
_cell_formula_units_Z   1
loop_
 _symmetry_equiv_pos_site_id
 _symmetry_equiv_pos_as_xyz
  1  'x, y, z'
loop_
 _atom_site_type_symbol
 _atom_site_label
 _atom_site_symmetry_multiplicity
 _atom_site_fract_x
 _atom_site_fract_y
 _atom_site_fract_z
 _atom_site_occupancy
  Mn  Mn0  1  0.83185100  0.83185100  0.78924600  1
  Mn  Mn1  1  0.16212800  0.66245600  0.29441300  1
  Mn  Mn2  1  0.66245600  0.16212800  0.29441300  1
  Cr  Cr0  1  0.67418100  0.67418100  0.49971200  1
  Cr  Cr1  1  0.34793100  0.34793100  0.02646500  1
  Te  Te0  1  0.33360800  0.83303900  0.78774900  1
  Te  Te1  1  0.83303900  0.33360800  0.78774900  1
  Te  Te2  1  0.16590900  0.16590900  0.28750200  1
  O  O0  1  0.34366200  0.84565500  0.39836900  1
  O  O1  1  0.52492500  0.52492500  0.66009600  1
  O  O2  1  0.64563000  0.64563000  0.90837000  1
  O  O3  1  0.01593700  0.01593700  0.67653400  1
  O  O4  1  0.01043100  0.01043100  0.19390100  1
  O  O5  1  0.84565500  0.34366200  0.39836900  1
  O  O6  1  0.49972000  0.95248600  0.65943000  1
  O  O7  1  0.95248600  0.49972000  0.65943000  1
  O  O8  1  0.15736000  0.15736000  0.89521500  1
  O  O9  1  0.83720700  0.83720700  0.40363300  1
  O  O10  1  0.04299800  0.46448400  0.15189700  1
  O  O11  1  0.46448400  0.04299800  0.15189700  1
  O  O12  1  0.31612700  0.31612700  0.39747900  1
  O  O13  1  0.18318800  0.67741900  0.89741200  1
  O  O14  1  0.46851300  0.46851300  0.16753500  1
  O  O15  1  0.67741900  0.18318800  0.89741200  1
loop_
_geom_bond_atom_site_label_1
_geom_bond_atom_site_label_2
_geom_bond_distance
_geom_bond_site_symmetry_2
Mn0 O15 2.160733 1_565
Mn0 O13 2.160733 1_655
Mn0 O7 2.206448 1_555
Mn0 O6 2.206448 1_555
Mn0 O3 2.213609 1_665
Mn0 O2 2.258140 1_555
Mn1 O9 1.959315 1_455
Mn1 O14 1.976544 1_555
Mn1 O4 2.037205 1_565
Mn1 O12 2.037622 1_555
Mn1 O10 2.280052 1_555
Mn1 O0 2.299079 1_555
Mn2 O9 1.959315 1_545
Mn2 O14 1.976544 1_555
Mn2 O4 2.037205 1_655
Mn2 O12 2.037622 1_555
Mn2 O11 2.280052 1_555
Mn2 O5 2.299079 1_555
Cr0 O9 1.947109 1_555
Cr0 O5 2.014968 1_555
Cr0 O0 2.014968 1_555
Cr0 O6 2.113409 1_555
Cr0 O7 2.113409 1_555
Cr0 O1 2.124890 1_555
Cr1 O14 1.928425 1_555
Cr1 O10 1.959992 1_555
Cr1 O11 1.959992 1_555
Cr1 O13 2.070827 1_554
Cr1 O15 2.070827 1_554
Cr1 O8 2.508794 1_554
O0 Te2 1.946783 1_565
O1 Te1 2.043092 1_555
O1 Te0 2.043092 1_555
O2 Te1 2.021595 1_555
O2 Te0 2.021595 1_555
O3 Te1 1.998777 1_455
O3 Te0 1.998777 1_545
O4 Te2 1.982418 1_555
O5 Te2 1.946783 1_655
O6 Te0 1.901388 1_555
O7 Te1 1.901388 1_555
O8 Te0 2.012248 1_545
O8 Te1 2.012248 1_455
O10 Te2 1.980005 1_555
O11 Te2 1.980005 1_555
O12 Te2 2.010633 1_555
O13 Te0 1.902581 1_555
O15 Te1 1.902581 1_555
