# generated using pymatgen
data_LiVBO4
_symmetry_space_group_name_H-M   'P 1'
_cell_length_a   8.17705611
_cell_length_b   4.85220000
_cell_length_c   8.32344726
_cell_angle_alpha   89.99732809
_cell_angle_beta   106.19372838
_cell_angle_gamma   90.00008442
_symmetry_Int_Tables_number   1
_chemical_formula_structural   LiVBO4
_chemical_formula_sum   'Li4 V4 B4 O16'
_cell_volume   317.14420800
_cell_formula_units_Z   4
loop_
 _symmetry_equiv_pos_site_id
 _symmetry_equiv_pos_as_xyz
  1  'x, y, z'
loop_
 _atom_site_type_symbol
 _atom_site_label
 _atom_site_symmetry_multiplicity
 _atom_site_fract_x
 _atom_site_fract_y
 _atom_site_fract_z
 _atom_site_occupancy
  Li  Li0  1  0.12488900  0.82776200  0.98927000  1
  Li  Li1  1  0.23399300  0.31113900  0.49243800  1
  Li  Li2  1  0.62485900  0.17225700  0.98930400  1
  Li  Li3  1  0.73400500  0.68882100  0.49244500  1
  V  V0  1  0.97577500  0.67999200  0.24256400  1
  V  V1  1  0.36458700  0.81529800  0.74200200  1
  V  V2  1  0.47578800  0.32002300  0.24253000  1
  V  V3  1  0.86449800  0.18461700  0.74211700  1
  B  B0  1  0.24660700  0.30962800  0.86804200  1
  B  B1  1  0.34493600  0.80545000  0.36537900  1
  B  B2  1  0.74659500  0.69034600  0.86805800  1
  B  B3  1  0.84491300  0.19455500  0.36545000  1
  O  O0  1  0.08107000  0.19649500  0.87688300  1
  O  O1  1  0.99590500  0.34352800  0.34594300  1
  O  O2  1  0.23555500  0.61050300  0.84691100  1
  O  O3  1  0.29988300  0.18083300  0.72741800  1
  O  O4  1  0.19517400  0.72293600  0.22665900  1
  O  O5  1  0.30543200  0.71722300  0.52317100  1
  O  O6  1  0.58111000  0.80381000  0.87691300  1
  O  O7  1  0.37260200  0.10536300  0.36699000  1
  O  O8  1  0.37746200  0.23067500  0.02498500  1
  O  O9  1  0.49591600  0.65646200  0.34592700  1
  O  O10  1  0.73545500  0.38953700  0.84688400  1
  O  O11  1  0.79988100  0.81907600  0.72742500  1
  O  O12  1  0.69518600  0.27707100  0.22668500  1
  O  O13  1  0.80543700  0.28280100  0.52324600  1
  O  O14  1  0.87261500  0.89456600  0.36697600  1
  O  O15  1  0.87746900  0.76923300  0.02498300  1
loop_
_geom_bond_atom_site_label_1
_geom_bond_atom_site_label_2
_geom_bond_distance
_geom_bond_site_symmetry_2
Li0 O4 1.964608 1_556
Li0 O2 1.983031 1_555
Li0 O0 2.004359 1_565
Li0 O15 2.144214 1_456
Li1 O3 1.981791 1_555
Li1 O1 1.994405 1_455
Li1 O7 2.007993 1_555
Li1 O5 2.050818 1_555
Li2 O12 1.964583 1_556
Li2 O10 1.983037 1_555
Li2 O6 2.003184 1_545
Li2 O8 2.143855 1_556
Li3 O11 1.981771 1_555
Li3 O9 1.994473 1_555
Li3 O14 2.007992 1_555
Li3 O13 2.050510 1_555
B0 O2 1.470217 1_555
B0 O0 1.481403 1_555
B0 O8 1.489443 1_556
B0 O3 1.494934 1_555
B1 O7 1.472204 1_565
B1 O9 1.478005 1_555
B1 O4 1.484759 1_555
B1 O5 1.499715 1_555
B2 O10 1.469972 1_555
B2 O6 1.481644 1_555
B2 O15 1.489364 1_556
B2 O11 1.494863 1_555
B3 O14 1.472636 1_545
B3 O1 1.478202 1_555
B3 O12 1.484765 1_555
B3 O13 1.499703 1_555
O0 V3 1.813764 1_455
O1 V0 1.831317 1_555
O2 V1 1.837656 1_555
O3 V1 1.845172 1_545
O4 V0 1.847156 1_455
O5 V1 1.812925 1_555
O6 V1 1.813798 1_555
O7 V2 1.832321 1_555
O8 V2 1.816908 1_555
O9 V2 1.831348 1_555
O10 V3 1.837343 1_555
O11 V3 1.845006 1_565
O12 V2 1.846983 1_555
O13 V3 1.813340 1_555
O14 V0 1.831731 1_555
O15 V0 1.816980 1_555
