# generated using pymatgen
data_LiMn3Al2(HO2)6
_symmetry_space_group_name_H-M   'P 1'
_cell_length_a   5.96909100
_cell_length_b   7.79854393
_cell_length_c   10.11904816
_cell_angle_alpha   109.59721296
_cell_angle_beta   89.26825211
_cell_angle_gamma   101.64171157
_symmetry_Int_Tables_number   1
_chemical_formula_structural   LiMn3Al2(HO2)6
_chemical_formula_sum   'Li2 Mn6 Al4 H12 O24'
_cell_volume   433.85905499
_cell_formula_units_Z   2
loop_
 _symmetry_equiv_pos_site_id
 _symmetry_equiv_pos_as_xyz
  1  'x, y, z'
loop_
 _atom_site_type_symbol
 _atom_site_label
 _atom_site_symmetry_multiplicity
 _atom_site_fract_x
 _atom_site_fract_y
 _atom_site_fract_z
 _atom_site_occupancy
  Li  Li0  1  0.92073100  0.15674400  0.50315800  1
  Li  Li1  1  0.07926900  0.84325600  0.49684200  1
  Mn  Mn0  1  0.92061400  0.16816400  0.00300000  1
  Mn  Mn1  1  0.57922800  0.83193900  0.99658300  1
  Mn  Mn2  1  0.74868600  0.49870800  0.99864900  1
  Mn  Mn3  1  0.42077200  0.16806100  0.00341700  1
  Mn  Mn4  1  0.07938600  0.83183600  0.99700000  1
  Mn  Mn5  1  0.25131400  0.50129200  0.00135100  1
  Al  Al0  1  0.58640400  0.83679900  0.49680500  1
  Al  Al1  1  0.75620400  0.50167100  0.50126600  1
  Al  Al2  1  0.41359600  0.16320100  0.50319500  1
  Al  Al3  1  0.24379600  0.49832900  0.49873400  1
  H  H0  1  0.99872000  0.49853200  0.71163400  1
  H  H1  1  0.81212500  0.84380100  0.28919700  1
  H  H2  1  0.00128000  0.50146800  0.28836600  1
  H  H3  1  0.64413100  0.13941300  0.70951100  1
  H  H4  1  0.81281800  0.80584600  0.70308400  1
  H  H5  1  0.66244800  0.19312500  0.30078400  1
  H  H6  1  0.49239100  0.48769000  0.70967900  1
  H  H7  1  0.35586900  0.86058700  0.29048900  1
  H  H8  1  0.50760900  0.51231000  0.29032100  1
  H  H9  1  0.18787500  0.15619900  0.71080300  1
  H  H10  1  0.33755200  0.80687500  0.69921600  1
  H  H11  1  0.18718200  0.19415400  0.29691600  1
  O  O0  1  0.84955800  0.89959300  0.89700300  1
  O  O1  1  0.00778700  0.57025200  0.89279300  1
  O  O2  1  0.98941000  0.46258300  0.60740700  1
  O  O3  1  0.82809200  0.88280500  0.39186700  1
  O  O4  1  0.99221300  0.42974800  0.10720700  1
  O  O5  1  0.01059000  0.53741700  0.39259300  1
  O  O6  1  0.62900800  0.09337600  0.60660200  1
  O  O7  1  0.67724300  0.22972800  0.89728300  1
  O  O8  1  0.79247100  0.75805700  0.60043400  1
  O  O9  1  0.66511900  0.24544600  0.40482900  1
  O  O10  1  0.81147400  0.77043300  0.09885000  1
  O  O11  1  0.64403800  0.09818600  0.10425500  1
  O  O12  1  0.50592900  0.57067700  0.89095900  1
  O  O13  1  0.48589400  0.43837600  0.60486600  1
  O  O14  1  0.35596200  0.90181400  0.89574500  1
  O  O15  1  0.51410600  0.56162400  0.39513400  1
  O  O16  1  0.49407100  0.42932300  0.10904100  1
  O  O17  1  0.37099200  0.90662400  0.39339800  1
  O  O18  1  0.18852600  0.22956700  0.90115000  1
  O  O19  1  0.17190800  0.11719500  0.60813300  1
  O  O20  1  0.33488100  0.75455400  0.59517100  1
  O  O21  1  0.20752900  0.24194300  0.39956600  1
  O  O22  1  0.15044200  0.10040700  0.10299700  1
  O  O23  1  0.32275700  0.77027200  0.10271700  1
loop_
_geom_bond_atom_site_label_1
_geom_bond_atom_site_label_2
_geom_bond_distance
_geom_bond_site_symmetry_2
Li0 O19 1.979512 1_655
Li0 O3 2.015732 1_545
Li0 O6 2.079726 1_555
Li0 O21 2.105541 1_655
Li0 O9 2.173236 1_555
Li0 O2 2.213191 1_555
Li1 O3 1.979512 1_455
Li1 O19 2.015732 1_565
Li1 O17 2.079726 1_555
Li1 O8 2.105541 1_455
Li1 O20 2.173236 1_555
Li1 O5 2.213191 1_555
Mn0 O4 1.916438 1_555
Mn0 O18 1.956734 1_654
Mn0 O0 1.965512 1_544
Mn0 O22 1.967688 1_655
Mn0 O11 2.010324 1_555
Mn0 O7 2.037384 1_554
Mn1 O12 1.917399 1_555
Mn1 O23 1.932794 1_556
Mn1 O14 1.953207 1_555
Mn1 O11 1.953710 1_566
Mn1 O10 1.964884 1_556
Mn1 O0 1.966984 1_555
Mn2 O7 1.959832 1_555
Mn2 O1 1.964939 1_655
Mn2 O16 1.969944 1_556
Mn2 O10 1.976570 1_556
Mn2 O4 2.088434 1_556
Mn2 O12 2.093093 1_555
Mn3 O16 1.917399 1_555
Mn3 O7 1.932794 1_554
Mn3 O11 1.953207 1_555
Mn3 O14 1.953710 1_544
Mn3 O18 1.964884 1_554
Mn3 O22 1.966984 1_555
Mn4 O1 1.916438 1_555
Mn4 O10 1.956734 1_456
Mn4 O22 1.965512 1_566
Mn4 O0 1.967688 1_455
Mn4 O14 2.010324 1_555
Mn4 O23 2.037384 1_556
Mn5 O23 1.959832 1_555
Mn5 O4 1.964939 1_455
Mn5 O12 1.969944 1_554
Mn5 O18 1.976570 1_554
Mn5 O1 2.088434 1_554
Mn5 O16 2.093093 1_555
Al0 O3 1.828962 1_555
Al0 O6 1.900884 1_565
Al0 O20 1.912510 1_555
Al0 O17 1.934918 1_555
Al0 O8 1.938924 1_555
Al0 O15 2.001606 1_555
Al1 O9 1.872882 1_555
Al1 O8 1.880569 1_555
Al1 O5 1.893365 1_655
Al1 O2 1.900869 1_555
Al1 O13 1.982055 1_555
Al1 O15 2.027180 1_555
Al2 O19 1.828962 1_555
Al2 O17 1.900884 1_545
Al2 O9 1.912510 1_555
Al2 O6 1.934918 1_555
Al2 O21 1.938924 1_555
Al2 O13 2.001606 1_555
Al3 O20 1.872882 1_555
Al3 O21 1.880569 1_555
Al3 O2 1.893365 1_455
Al3 O5 1.900869 1_555
Al3 O15 1.982055 1_555
Al3 O13 2.027180 1_555
H0 O2 0.995437 1_555
H0 O1 1.725906 1_655
H1 O3 0.979699 1_555
H2 O5 0.995437 1_555
H2 O4 1.725906 1_455
H3 O6 0.979778 1_555
H4 O8 0.978702 1_555
H5 O9 0.992390 1_555
H6 O13 0.997852 1_555
H6 O12 1.725293 1_555
H7 O17 0.979778 1_555
H8 O15 0.997852 1_555
H8 O16 1.725293 1_555
H9 O19 0.979699 1_555
H10 O20 0.992390 1_555
H11 O21 0.978702 1_555
