# generated using pymatgen
data_Mn6O7F5
_symmetry_space_group_name_H-M   'P 1'
_cell_length_a   4.76298208
_cell_length_b   7.70982337
_cell_length_c   5.64280422
_cell_angle_alpha   95.45334430
_cell_angle_beta   96.60019913
_cell_angle_gamma   85.30233610
_symmetry_Int_Tables_number   1
_chemical_formula_structural   Mn6O7F5
_chemical_formula_sum   'Mn6 O7 F5'
_cell_volume   204.38020296
_cell_formula_units_Z   1
loop_
 _symmetry_equiv_pos_site_id
 _symmetry_equiv_pos_as_xyz
  1  'x, y, z'
loop_
 _atom_site_type_symbol
 _atom_site_label
 _atom_site_symmetry_multiplicity
 _atom_site_fract_x
 _atom_site_fract_y
 _atom_site_fract_z
 _atom_site_occupancy
  Mn  Mn0  1  0.53443200  0.01113300  0.47949100  1
  Mn  Mn1  1  0.49879000  0.66583000  0.16767900  1
  Mn  Mn2  1  0.49231400  0.33152800  0.83557300  1
  Mn  Mn3  1  0.00207800  0.66860900  0.66641300  1
  Mn  Mn4  1  0.98376700  0.32231500  0.33643300  1
  Mn  Mn5  1  0.99634100  0.00293000  0.00857700  1
  O  O0  1  0.81035000  0.10156000  0.28860100  1
  O  O1  1  0.69945200  0.10303500  0.79322200  1
  O  O2  1  0.69314200  0.76865800  0.46868900  1
  O  O3  1  0.69329200  0.43405100  0.12886700  1
  O  O4  1  0.30452900  0.56756900  0.86711000  1
  O  O5  1  0.31038800  0.22974200  0.52985700  1
  O  O6  1  0.30655700  0.90001200  0.20865700  1
  F  F0  1  0.80563800  0.43944500  0.63473700  1
  F  F1  1  0.81267800  0.76735900  0.96069000  1
  F  F2  1  0.17629700  0.55220800  0.37284900  1
  F  F3  1  0.19458300  0.23144800  0.03352800  1
  F  F4  1  0.18537400  0.90256900  0.71902600  1
loop_
_geom_bond_atom_site_label_1
_geom_bond_atom_site_label_2
_geom_bond_distance
_geom_bond_site_symmetry_2
Mn0 O5 1.935016 1_555
Mn0 O6 1.941576 1_545
Mn0 O1 1.945968 1_555
Mn0 O2 1.956378 1_545
Mn0 O0 1.997911 1_555
Mn1 O3 1.949506 1_555
Mn1 O4 1.953578 1_554
Mn1 O6 1.962186 1_555
Mn1 O2 1.968063 1_555
Mn2 O3 1.947113 1_556
Mn2 O1 1.955341 1_555
Mn2 O4 1.962619 1_555
Mn2 O5 1.962924 1_555
Mn3 O4 1.890359 1_555
Mn3 O2 1.898755 1_455
Mn4 O3 1.911060 1_555
Mn4 O5 1.922682 1_655
Mn4 O0 1.934823 1_555
Mn5 O1 1.917414 1_554
Mn5 O6 1.918906 1_645
Mn5 O0 1.960320 1_555
F0 Mn3 2.049708 1_655
F0 Mn4 2.069447 1_555
F0 Mn2 2.230492 1_555
F1 Mn3 2.035296 1_655
F1 Mn5 2.061432 1_566
F1 Mn1 2.231364 1_556
F2 Mn3 2.037027 1_555
F2 Mn4 2.044101 1_455
F2 Mn1 2.299800 1_555
F3 Mn5 2.051880 1_455
F3 Mn4 2.114766 1_455
F3 Mn2 2.135710 1_554
F4 Mn5 2.015612 1_466
F4 Mn3 2.049527 1_555
F4 Mn0 2.500238 1_565
