# generated using pymatgen
data_H5CSO5F3
_symmetry_space_group_name_H-M   'P 1'
_cell_length_a   8.87805400
_cell_length_b   7.83488300
_cell_length_c   10.31723624
_cell_angle_alpha   82.37045874
_cell_angle_beta   90.00000000
_cell_angle_gamma   90.00000000
_symmetry_Int_Tables_number   1
_chemical_formula_structural   H5CSO5F3
_chemical_formula_sum   'H20 C4 S4 O20 F12'
_cell_volume   711.29841197
_cell_formula_units_Z   4
loop_
 _symmetry_equiv_pos_site_id
 _symmetry_equiv_pos_as_xyz
  1  'x, y, z'
loop_
 _atom_site_type_symbol
 _atom_site_label
 _atom_site_symmetry_multiplicity
 _atom_site_fract_x
 _atom_site_fract_y
 _atom_site_fract_z
 _atom_site_occupancy
  H  H0  1  0.47633100  0.86714600  0.66277300  1
  H  H1  1  0.97633100  0.63285400  0.33722700  1
  H  H2  1  0.52366900  0.13285400  0.33722700  1
  H  H3  1  0.02366900  0.36714600  0.66277300  1
  H  H4  1  0.28017200  0.91060400  0.60976600  1
  H  H5  1  0.78017200  0.58939600  0.39023400  1
  H  H6  1  0.71982800  0.08939600  0.39023400  1
  H  H7  1  0.21982800  0.41060400  0.60976600  1
  H  H8  1  0.39129500  0.83442400  0.50472100  1
  H  H9  1  0.89129500  0.66557600  0.49527900  1
  H  H10  1  0.60870500  0.16557600  0.49527900  1
  H  H11  1  0.10870500  0.33442400  0.50472100  1
  H  H12  1  0.65841300  0.89529900  0.75141200  1
  H  H13  1  0.15841300  0.60470100  0.24858800  1
  H  H14  1  0.34158700  0.10470100  0.24858800  1
  H  H15  1  0.84158700  0.39529900  0.75141200  1
  H  H16  1  0.59527800  0.70099900  0.75489900  1
  H  H17  1  0.09527800  0.79900100  0.24510100  1
  H  H18  1  0.40472200  0.29900100  0.24510100  1
  H  H19  1  0.90472200  0.20099900  0.75489900  1
  C  C0  1  0.45851100  0.26371500  0.86925300  1
  C  C1  1  0.95851100  0.23628500  0.13074700  1
  C  C2  1  0.54148900  0.73628500  0.13074700  1
  C  C3  1  0.04148900  0.76371500  0.86925300  1
  S  S0  1  0.52991500  0.37247600  0.70836600  1
  S  S1  1  0.02991500  0.12752400  0.29163400  1
  S  S2  1  0.47008500  0.62752400  0.29163400  1
  S  S3  1  0.97008500  0.87247600  0.70836600  1
  O  O0  1  0.40006000  0.46402200  0.64684500  1
  O  O1  1  0.90006000  0.03597800  0.35315500  1
  O  O2  1  0.59994000  0.53597800  0.35315500  1
  O  O3  1  0.09994000  0.96402200  0.64684500  1
  O  O4  1  0.64863700  0.48871100  0.74592400  1
  O  O5  1  0.14863700  0.01128900  0.25407600  1
  O  O6  1  0.35136300  0.51128900  0.25407600  1
  O  O7  1  0.85136300  0.98871100  0.74592400  1
  O  O8  1  0.58836400  0.23043100  0.64521900  1
  O  O9  1  0.08836400  0.26956900  0.35478100  1
  O  O10  1  0.41163600  0.76956900  0.35478100  1
  O  O11  1  0.91163600  0.73043100  0.64521900  1
  O  O12  1  0.38587100  0.90408200  0.57843100  1
  O  O13  1  0.88587100  0.59591800  0.42156900  1
  O  O14  1  0.61412900  0.09591800  0.42156900  1
  O  O15  1  0.11412900  0.40408200  0.57843100  1
  O  O16  1  0.56591500  0.82436900  0.75140500  1
  O  O17  1  0.06591500  0.67563100  0.24859500  1
  O  O18  1  0.43408500  0.17563100  0.24859500  1
  O  O19  1  0.93408500  0.32436900  0.75140500  1
  F  F0  1  0.34949700  0.14932800  0.84883100  1
  F  F1  1  0.84949700  0.35067200  0.15116900  1
  F  F2  1  0.65050300  0.85067200  0.15116900  1
  F  F3  1  0.15050300  0.64932800  0.84883100  1
  F  F4  1  0.57189400  0.17945900  0.93799200  1
  F  F5  1  0.07189400  0.32054100  0.06200800  1
  F  F6  1  0.42810600  0.82054100  0.06200800  1
  F  F7  1  0.92810600  0.67945900  0.93799200  1
  F  F8  1  0.39997200  0.38144100  0.93955500  1
  F  F9  1  0.89997200  0.11855900  0.06044500  1
  F  F10  1  0.60002800  0.61855900  0.06044500  1
  F  F11  1  0.10002800  0.88144100  0.93955500  1
loop_
_geom_bond_atom_site_label_1
_geom_bond_atom_site_label_2
_geom_bond_distance
_geom_bond_site_symmetry_2
H0 O12 1.191247 1_555
H0 O16 1.224620 1_555
H1 O13 1.191247 1_555
H1 O17 1.224620 1_655
H2 O14 1.191247 1_555
H2 O18 1.224620 1_555
H3 O15 1.191247 1_555
H3 O19 1.224620 1_455
H4 O12 0.996048 1_555
H4 O3 1.710080 1_555
H5 O13 0.996048 1_555
H5 O2 1.710080 1_555
H6 O14 0.996048 1_555
H6 O1 1.710080 1_555
H7 O15 0.996048 1_555
H7 O0 1.710080 1_555
H8 O12 0.994343 1_555
H8 O10 1.700777 1_555
H9 O13 0.994343 1_555
H9 O11 1.700777 1_555
H10 O14 0.994343 1_555
H10 O8 1.700777 1_555
H11 O15 0.994343 1_555
H11 O9 1.700777 1_555
H12 O16 0.991573 1_555
H13 O17 0.991573 1_555
H14 O18 0.991573 1_555
H15 O19 0.991573 1_555
H16 O16 0.997146 1_555
H17 O17 0.997146 1_555
H18 O18 0.997146 1_555
H19 O19 0.997146 1_555
C0 F8 1.350780 1_555
C0 F4 1.351928 1_555
C0 F0 1.354409 1_555
C1 F9 1.350780 1_555
C1 F5 1.351928 1_655
C1 F1 1.354409 1_555
C2 F10 1.350780 1_555
C2 F6 1.351928 1_555
C2 F2 1.354409 1_555
C3 F11 1.350780 1_555
C3 F7 1.351928 1_455
C3 F3 1.354409 1_555
O0 S0 1.457919 1_555
O1 S1 1.457919 1_655
O2 S2 1.457919 1_555
O3 S3 1.457919 1_455
O4 S0 1.477893 1_555
O5 S1 1.477893 1_555
O6 S2 1.477893 1_555
O7 S3 1.477893 1_555
O8 S0 1.457675 1_555
O9 S1 1.457675 1_555
O10 S2 1.457675 1_555
O11 S3 1.457675 1_555
