# generated using pymatgen
data_Ba3(BO3)2
_symmetry_space_group_name_H-M   'P 1'
_cell_length_a   5.27462200
_cell_length_b   7.15440100
_cell_length_c   10.30437200
_cell_angle_alpha   90.00000000
_cell_angle_beta   90.00000000
_cell_angle_gamma   90.00000000
_symmetry_Int_Tables_number   1
_chemical_formula_structural   Ba3(BO3)2
_chemical_formula_sum   'Ba6 B4 O12'
_cell_volume   388.85362251
_cell_formula_units_Z   2
loop_
 _symmetry_equiv_pos_site_id
 _symmetry_equiv_pos_as_xyz
  1  'x, y, z'
loop_
 _atom_site_type_symbol
 _atom_site_label
 _atom_site_symmetry_multiplicity
 _atom_site_fract_x
 _atom_site_fract_y
 _atom_site_fract_z
 _atom_site_occupancy
  Ba  Ba0  1  0.50000000  0.50000000  0.50000000  1
  Ba  Ba1  1  0.00000000  0.50000000  0.81080500  1
  Ba  Ba2  1  0.00000000  0.50000000  0.18919500  1
  Ba  Ba3  1  0.50000000  0.00000000  0.31080500  1
  Ba  Ba4  1  0.50000000  0.00000000  0.68919500  1
  Ba  Ba5  1  0.00000000  0.00000000  0.00000000  1
  B  B0  1  0.52849100  0.26567600  0.00000000  1
  B  B1  1  0.02849100  0.23432400  0.50000000  1
  B  B2  1  0.97150900  0.76567600  0.50000000  1
  B  B3  1  0.47150900  0.73432400  0.00000000  1
  O  O0  1  0.27196600  0.31012800  0.00000000  1
  O  O1  1  0.15828800  0.26549400  0.38256700  1
  O  O2  1  0.15828800  0.26549400  0.61743300  1
  O  O3  1  0.65828800  0.23450600  0.88256700  1
  O  O4  1  0.65828800  0.23450600  0.11743300  1
  O  O5  1  0.77196600  0.18987200  0.50000000  1
  O  O6  1  0.22803400  0.81012800  0.50000000  1
  O  O7  1  0.34171200  0.76549400  0.11743300  1
  O  O8  1  0.34171200  0.76549400  0.88256700  1
  O  O9  1  0.84171200  0.73450600  0.61743300  1
  O  O10  1  0.84171200  0.73450600  0.38256700  1
  O  O11  1  0.72803400  0.68987200  0.00000000  1
loop_
_geom_bond_atom_site_label_1
_geom_bond_atom_site_label_2
_geom_bond_distance
_geom_bond_site_symmetry_2
Ba0 O6 2.642125 1_555
Ba0 O5 2.642125 1_555
Ba0 O9 2.743679 1_555
Ba0 O10 2.743679 1_555
Ba0 O1 2.743679 1_555
Ba0 O2 2.743679 1_555
Ba1 O8 2.720913 1_555
Ba1 O3 2.720913 1_455
Ba1 O2 2.735376 1_555
Ba1 O9 2.735376 1_455
Ba1 O11 2.775579 1_456
Ba1 O0 2.775579 1_556
Ba2 O7 2.720913 1_555
Ba2 O4 2.720913 1_455
Ba2 O1 2.735376 1_555
Ba2 O10 2.735376 1_455
Ba2 O11 2.775579 1_455
Ba2 O0 2.775579 1_555
Ba3 O10 2.720913 1_545
Ba3 O1 2.720913 1_555
Ba3 O4 2.735376 1_555
Ba3 O7 2.735376 1_545
Ba3 O5 2.775579 1_555
Ba3 O6 2.775579 1_545
Ba4 O9 2.720913 1_545
Ba4 O2 2.720913 1_555
Ba4 O3 2.735376 1_555
Ba4 O8 2.735376 1_545
Ba4 O5 2.775579 1_555
Ba4 O6 2.775579 1_545
Ba5 O0 2.642125 1_555
Ba5 O11 2.642125 1_445
Ba5 O8 2.743679 1_544
Ba5 O7 2.743679 1_545
Ba5 O3 2.743679 1_454
Ba5 O4 2.743679 1_455
B0 O0 1.389945 1_555
B0 O4 1.408093 1_555
B0 O3 1.408093 1_554
B1 O5 1.389945 1_455
B1 O1 1.408093 1_555
B1 O2 1.408093 1_555
B2 O6 1.389945 1_655
B2 O9 1.408093 1_555
B2 O10 1.408093 1_555
B3 O11 1.389945 1_555
B3 O7 1.408093 1_555
B3 O8 1.408093 1_554
