# generated using pymatgen
data_Li2MnP2O7
_symmetry_space_group_name_H-M   'P 1'
_cell_length_a   13.31548800
_cell_length_b   5.13015800
_cell_length_c   9.50364891
_cell_angle_alpha   59.40579160
_cell_angle_beta   90.00000000
_cell_angle_gamma   90.00000000
_symmetry_Int_Tables_number   1
_chemical_formula_structural   Li2MnP2O7
_chemical_formula_sum   'Li8 Mn4 P8 O28'
_cell_volume   558.82674148
_cell_formula_units_Z   4
loop_
 _symmetry_equiv_pos_site_id
 _symmetry_equiv_pos_as_xyz
  1  'x, y, z'
loop_
 _atom_site_type_symbol
 _atom_site_label
 _atom_site_symmetry_multiplicity
 _atom_site_fract_x
 _atom_site_fract_y
 _atom_site_fract_z
 _atom_site_occupancy
  Li  Li0  1  0.82099200  0.41943200  0.86405200  1
  Li  Li1  1  0.83976300  0.02349600  0.27910100  1
  Li  Li2  1  0.33976300  0.97650400  0.22089900  1
  Li  Li3  1  0.32099200  0.58056800  0.63594800  1
  Li  Li4  1  0.67900800  0.41943200  0.36405200  1
  Li  Li5  1  0.66023700  0.02349600  0.77910100  1
  Li  Li6  1  0.16023700  0.97650400  0.72089900  1
  Li  Li7  1  0.17900800  0.58056800  0.13594800  1
  Mn  Mn0  1  0.63579900  0.12262100  0.14931100  1
  Mn  Mn1  1  0.13579900  0.87737900  0.35068900  1
  Mn  Mn2  1  0.86420100  0.12262100  0.64931100  1
  Mn  Mn3  1  0.36420100  0.87737900  0.85068900  1
  P  P0  1  0.02081800  0.59824900  0.71201700  1
  P  P1  1  0.68546000  0.72188800  0.56960700  1
  P  P2  1  0.18546000  0.27811200  0.93039300  1
  P  P3  1  0.52081800  0.40175100  0.78798300  1
  P  P4  1  0.47918200  0.59824900  0.21201700  1
  P  P5  1  0.81454000  0.72188800  0.06960700  1
  P  P6  1  0.31454000  0.27811200  0.43039300  1
  P  P7  1  0.97918200  0.40175100  0.28798300  1
  O  O0  1  0.79031400  0.42424900  0.07294200  1
  O  O1  1  0.74754600  0.76994700  0.69238700  1
  O  O2  1  0.02084900  0.20532300  0.22297100  1
  O  O3  1  0.43897100  0.52031400  0.85122900  1
  O  O4  1  0.69350300  0.00258800  0.39787100  1
  O  O5  1  0.10933100  0.76248900  0.59545900  1
  O  O6  1  0.57021100  0.70335700  0.62932700  1
  O  O7  1  0.07021100  0.29664300  0.87067300  1
  O  O8  1  0.60933100  0.23751100  0.90454100  1
  O  O9  1  0.19350300  0.99741200  0.10212900  1
  O  O10  1  0.93897100  0.47968600  0.64877100  1
  O  O11  1  0.52084900  0.79467700  0.27702900  1
  O  O12  1  0.29031400  0.57575100  0.42705800  1
  O  O13  1  0.24754600  0.23005300  0.80761300  1
  O  O14  1  0.75245400  0.76994700  0.19238700  1
  O  O15  1  0.70968600  0.42424900  0.57294200  1
  O  O16  1  0.47915100  0.20532300  0.72297100  1
  O  O17  1  0.06102900  0.52031400  0.35122900  1
  O  O18  1  0.80649700  0.00258800  0.89787100  1
  O  O19  1  0.39066900  0.76248900  0.09545900  1
  O  O20  1  0.92978900  0.70335700  0.12932700  1
  O  O21  1  0.42978900  0.29664300  0.37067300  1
  O  O22  1  0.89066900  0.23751100  0.40454100  1
  O  O23  1  0.30649700  0.99741200  0.60212900  1
  O  O24  1  0.56102900  0.47968600  0.14877100  1
  O  O25  1  0.97915100  0.79467700  0.77702900  1
  O  O26  1  0.25245400  0.23005300  0.30761300  1
  O  O27  1  0.20968600  0.57575100  0.92705800  1
loop_
_geom_bond_atom_site_label_1
_geom_bond_atom_site_label_2
_geom_bond_distance
_geom_bond_site_symmetry_2
Li0 O1 1.966049 1_555
Li0 O18 2.003499 1_555
Li0 O0 2.039240 1_556
Li0 O10 2.470952 1_555
Li1 O0 2.097342 1_555
Li1 O22 2.102007 1_555
Li1 O14 2.194031 1_545
Li1 O4 2.226025 1_555
Li1 O2 2.542104 1_655
Li2 O12 2.097342 1_555
Li2 O19 2.102007 1_555
Li2 O26 2.194031 1_565
Li2 O9 2.226025 1_555
Li2 O11 2.542104 1_555
Li3 O13 1.966049 1_555
Li3 O23 2.003499 1_555
Li3 O12 2.039240 1_555
Li3 O3 2.470952 1_555
Li4 O14 1.966049 1_555
Li4 O4 2.003499 1_555
Li4 O15 2.039240 1_555
Li4 O24 2.470952 1_555
Li5 O15 2.097342 1_555
Li5 O8 2.102007 1_555
Li5 O1 2.194031 1_545
Li5 O18 2.226025 1_555
Li5 O16 2.542104 1_555
Li6 O27 2.097342 1_555
Li6 O5 2.102007 1_555
Li6 O13 2.194031 1_565
Li6 O23 2.226025 1_555
Li6 O25 2.542104 1_455
Li7 O26 1.966049 1_555
Li7 O9 2.003499 1_555
Li7 O27 2.039240 1_554
Li7 O17 2.470952 1_555
Mn0 O24 2.082586 1_555
Mn0 O8 2.118306 1_554
Mn0 O11 2.137263 1_545
Mn0 O4 2.251444 1_555
Mn0 O14 2.258299 1_545
Mn0 O0 2.451752 1_555
Mn1 O17 2.082586 1_555
Mn1 O5 2.118306 1_555
Mn1 O2 2.137263 1_565
Mn1 O9 2.251444 1_555
Mn1 O26 2.258299 1_565
Mn1 O12 2.451752 1_555
Mn2 O10 2.082586 1_555
Mn2 O22 2.118306 1_555
Mn2 O25 2.137263 1_545
Mn2 O18 2.251444 1_555
Mn2 O1 2.258299 1_545
Mn2 O15 2.451752 1_555
Mn3 O3 2.082586 1_555
Mn3 O19 2.118306 1_556
Mn3 O16 2.137263 1_565
Mn3 O23 2.251444 1_555
Mn3 O13 2.258299 1_565
Mn3 O27 2.451752 1_555
O0 P5 1.545099 1_555
O1 P1 1.548750 1_555
O2 P7 1.529313 1_455
O3 P3 1.513647 1_555
O4 P1 1.535117 1_545
O5 P0 1.541433 1_555
O6 P1 1.622105 1_555
O6 P3 1.650864 1_555
O7 P2 1.622105 1_555
O7 P0 1.650864 1_555
O8 P3 1.541433 1_555
O9 P2 1.535117 1_564
O10 P0 1.513647 1_655
O11 P4 1.529313 1_555
O12 P6 1.545099 1_555
O13 P2 1.548750 1_555
O14 P5 1.548750 1_555
O15 P1 1.545099 1_555
O16 P3 1.529313 1_555
O17 P7 1.513647 1_455
O18 P5 1.535117 1_546
O19 P4 1.541433 1_555
O20 P5 1.622105 1_555
O20 P7 1.650864 1_555
O21 P6 1.622105 1_555
O21 P4 1.650864 1_555
O22 P7 1.541433 1_555
O23 P6 1.535117 1_565
O24 P4 1.513647 1_555
O25 P0 1.529313 1_655
O26 P6 1.548750 1_555
O27 P2 1.545099 1_555
