# generated using pymatgen
data_Cs2Na4Cu2Si12H4O31
_symmetry_space_group_name_H-M   'P 1'
_cell_length_a   13.11318337
_cell_length_b   13.11318337
_cell_length_c   18.32047469
_cell_angle_alpha   67.96169652
_cell_angle_beta   112.03830348
_cell_angle_gamma   147.26362405
_symmetry_Int_Tables_number   1
_chemical_formula_structural   Cs2Na4Cu2Si12H4O31
_chemical_formula_sum   'Cs4 Na8 Cu4 Si24 H8 O62'
_cell_volume   1567.92778239
_cell_formula_units_Z   2
loop_
 _symmetry_equiv_pos_site_id
 _symmetry_equiv_pos_as_xyz
  1  'x, y, z'
loop_
 _atom_site_type_symbol
 _atom_site_label
 _atom_site_symmetry_multiplicity
 _atom_site_fract_x
 _atom_site_fract_y
 _atom_site_fract_z
 _atom_site_occupancy
  Cs  Cs0  1  0.25709338  0.21261197  0.61900849  1
  Cs  Cs1  1  0.21261197  0.25709338  0.88099151  1
  Cs  Cs2  1  0.74290662  0.78738803  0.38099151  1
  Cs  Cs3  1  0.78738803  0.74290662  0.11900849  1
  Na  Na0  1  0.01804670  0.51969795  0.64828016  1
  Na  Na1  1  0.51969795  0.01804670  0.85171984  1
  Na  Na2  1  0.98195330  0.48030205  0.35171984  1
  Na  Na3  1  0.48030205  0.98195330  0.14828016  1
  Na  Na4  1  0.53568126  0.98121788  0.66722328  1
  Na  Na5  1  0.98121788  0.53568126  0.83277672  1
  Na  Na6  1  0.46431874  0.01878212  0.33277672  1
  Na  Na7  1  0.01878212  0.46431874  0.16722328  1
  Cu  Cu0  1  0.75175155  0.27355816  0.48731071  1
  Cu  Cu1  1  0.27355816  0.75175155  0.01268929  1
  Cu  Cu2  1  0.24824845  0.72644184  0.51268929  1
  Cu  Cu3  1  0.72644184  0.24824845  0.98731071  1
  Si  Si0  1  0.62230296  0.38002100  0.50883657  1
  Si  Si1  1  0.38002100  0.62230296  0.99116343  1
  Si  Si2  1  0.37769704  0.61997900  0.49116343  1
  Si  Si3  1  0.61997900  0.37769704  0.00883657  1
  Si  Si4  1  0.22002403  0.94187264  0.53026594  1
  Si  Si5  1  0.94187264  0.22002403  0.96973406  1
  Si  Si6  1  0.77997597  0.05812736  0.46973406  1
  Si  Si7  1  0.05812736  0.77997597  0.03026594  1
  Si  Si8  1  0.89768567  0.16580280  0.62871167  1
  Si  Si9  1  0.16580280  0.89768567  0.87128833  1
  Si  Si10  1  0.10231433  0.83419720  0.37128833  1
  Si  Si11  1  0.83419720  0.10231433  0.12871167  1
  Si  Si12  1  0.81041441  0.69085377  0.74285613  1
  Si  Si13  1  0.69085377  0.81041441  0.75714387  1
  Si  Si14  1  0.18958559  0.30914623  0.25714387  1
  Si  Si15  1  0.30914623  0.18958559  0.24285613  1
  Si  Si16  1  0.55134487  0.32264585  0.84809133  1
  Si  Si17  1  0.32264585  0.55134487  0.65190867  1
  Si  Si18  1  0.44865513  0.67735415  0.15190867  1
  Si  Si19  1  0.67735415  0.44865513  0.34809133  1
  Si  Si20  1  0.87979055  0.66182299  0.62224143  1
  Si  Si21  1  0.66182299  0.87979055  0.87775857  1
  Si  Si22  1  0.12020945  0.33817701  0.37775857  1
  Si  Si23  1  0.33817701  0.12020945  0.12224143  1
  H  H0  1  0.70712165  0.33084289  0.70708347  1
  H  H1  1  0.33084289  0.70712165  0.79291653  1
  H  H2  1  0.29287835  0.66915711  0.29291653  1
  H  H3  1  0.66915711  0.29287835  0.20708347  1
  H  H4  1  0.14917767  0.49046352  0.82228158  1
  H  H5  1  0.49046352  0.14917767  0.67771842  1
  H  H6  1  0.85082233  0.50953648  0.17771842  1
  H  H7  1  0.50953648  0.85082233  0.32228158  1
  O  O0  1  0.84381876  0.73443180  0.65277921  1
  O  O1  1  0.73443180  0.84381876  0.84722079  1
  O  O2  1  0.15618124  0.26556820  0.34722079  1
  O  O3  1  0.26556820  0.15618124  0.15277921  1
  O  O4  1  0.88580838  0.09955397  0.56178211  1
  O  O5  1  0.09955397  0.88580838  0.93821789  1
  O  O6  1  0.11419162  0.90044603  0.43821789  1
  O  O7  1  0.90044603  0.11419162  0.06178211  1
  O  O8  1  0.40791857  0.17223590  0.53640408  1
  O  O9  1  0.17223590  0.40791857  0.96359592  1
  O  O10  1  0.59208143  0.82776410  0.46359592  1
  O  O11  1  0.82776410  0.59208143  0.03640408  1
  O  O12  1  0.81329983  0.81329983  0.75000000  1
  O  O13  1  0.18670017  0.18670017  0.25000000  1
  O  O14  1  0.40289905  0.57064905  0.58866704  1
  O  O15  1  0.57064905  0.40289905  0.91133296  1
  O  O16  1  0.59710095  0.42935095  0.41133296  1
  O  O17  1  0.42935095  0.59710095  0.08866704  1
  O  O18  1  0.07917960  0.86271424  0.58153177  1
  O  O19  1  0.86271424  0.07917960  0.91846823  1
  O  O20  1  0.92082040  0.13728576  0.41846823  1
  O  O21  1  0.13728576  0.92082040  0.08153177  1
  O  O22  1  0.32272733  0.11676973  0.82491368  1
  O  O23  1  0.11676973  0.32272733  0.67508632  1
  O  O24  1  0.67727267  0.88323027  0.17508632  1
  O  O25  1  0.88323027  0.67727267  0.32491368  1
  O  O26  1  0.60838773  0.46253489  0.76350198  1
  O  O27  1  0.46253489  0.60838773  0.73649802  1
  O  O28  1  0.39161227  0.53746511  0.23649802  1
  O  O29  1  0.53746511  0.39161227  0.26350198  1
  O  O30  1  0.70223009  0.53452748  0.54971722  1
  O  O31  1  0.53452748  0.70223009  0.95028278  1
  O  O32  1  0.29776991  0.46547252  0.45028278  1
  O  O33  1  0.46547252  0.29776991  0.04971722  1
  O  O34  1  0.75996455  0.98379135  0.69594367  1
  O  O35  1  0.98379135  0.75996455  0.80405633  1
  O  O36  1  0.24003545  0.01620865  0.30405633  1
  O  O37  1  0.01620865  0.24003545  0.19594367  1
  O  O38  1  0.26997649  0.85354913  0.56426877  1
  O  O39  1  0.85354913  0.26997649  0.93573123  1
  O  O40  1  0.73002351  0.14645087  0.43573123  1
  O  O41  1  0.14645087  0.73002351  0.06426877  1
  O  O42  1  0.67705376  0.31523107  0.87817174  1
  O  O43  1  0.31523107  0.67705376  0.62182826  1
  O  O44  1  0.32294624  0.68476893  0.12182826  1
  O  O45  1  0.68476893  0.32294624  0.37817174  1
  O  O46  1  0.82966137  0.23615872  0.59618653  1
  O  O47  1  0.23615872  0.82966137  0.90381347  1
  O  O48  1  0.17033863  0.76384128  0.40381347  1
  O  O49  1  0.76384128  0.17033863  0.09618653  1
  O  O50  1  0.76772172  0.39815001  0.53341726  1
  O  O51  1  0.39815001  0.76772172  0.96658274  1
  O  O52  1  0.23227828  0.60184999  0.46658274  1
  O  O53  1  0.60184999  0.23227828  0.03341726  1
  O  O54  1  0.89019216  0.55121905  0.69083812  1
  O  O55  1  0.55121905  0.89019216  0.80916188  1
  O  O56  1  0.10980784  0.44878095  0.30916188  1
  O  O57  1  0.44878095  0.10980784  0.19083812  1
  O  O58  1  0.18386529  0.58936453  0.78423351  1
  O  O59  1  0.58936453  0.18386529  0.71576649  1
  O  O60  1  0.81613471  0.41063547  0.21576649  1
  O  O61  1  0.41063547  0.81613471  0.28423351  1
loop_
_geom_bond_atom_site_label_1
_geom_bond_atom_site_label_2
_geom_bond_distance
_geom_bond_site_symmetry_2
Cs0 O14 3.121680 1_555
Cs0 O18 3.181206 1_545
Cs0 O26 3.306009 1_555
Cs0 O8 3.330378 1_555
Cs0 O32 3.377019 1_555
Cs0 O0 3.392173 1_445
Cs0 O4 3.492009 1_455
Cs0 H5 3.514930 1_555
Cs0 O22 3.517923 1_555
Cs0 O23 3.678103 1_555
Cs0 O30 3.686349 1_555
Cs1 O15 3.121680 1_555
Cs1 O19 3.181206 1_455
Cs1 O27 3.306009 1_555
Cs1 O9 3.330378 1_555
Cs1 O33 3.377019 1_556
Cs1 O1 3.392173 1_445
Cs1 O5 3.492009 1_545
Cs1 H4 3.514930 1_555
Cs1 O23 3.517923 1_555
Cs1 O22 3.678103 1_555
Cs1 O31 3.686349 1_555
Cs2 O16 3.121680 1_555
Cs2 O20 3.181206 1_565
Cs2 O28 3.306009 1_555
Cs2 O10 3.330378 1_555
Cs2 O30 3.377019 1_555
Cs2 O2 3.392173 1_665
Cs2 O6 3.492009 1_655
Cs2 H7 3.514930 1_555
Cs2 O24 3.517923 1_555
Cs2 O25 3.678103 1_555
Cs2 O32 3.686349 1_555
Cs3 O17 3.121680 1_555
Cs3 O21 3.181206 1_655
Cs3 O29 3.306009 1_555
Cs3 O11 3.330378 1_555
Cs3 O31 3.377019 1_554
Cs3 O3 3.392173 1_665
Cs3 O7 3.492009 1_565
Cs3 H6 3.514930 1_555
Cs3 O25 3.517923 1_555
Cs3 O24 3.678103 1_555
Cs3 O33 3.686349 1_555
Na0 O54 2.445073 1_455
Na0 O58 2.463281 1_555
Na0 O50 2.505022 1_455
Na0 O46 2.505829 1_455
Na0 O43 2.611168 1_555
Na0 O38 2.622291 1_555
Na1 O55 2.445073 1_545
Na1 O59 2.463281 1_555
Na1 O51 2.505022 1_545
Na1 O47 2.505829 1_545
Na1 O42 2.611168 1_555
Na1 O39 2.622291 1_555
Na2 O56 2.445073 1_655
Na2 O60 2.463281 1_555
Na2 O52 2.505022 1_655
Na2 O48 2.505829 1_655
Na2 O45 2.611168 1_555
Na2 O40 2.622291 1_555
Na3 O57 2.445073 1_565
Na3 O61 2.463281 1_555
Na3 O53 2.505022 1_565
Na3 O49 2.505829 1_565
Na3 O44 2.611168 1_555
Na3 O41 2.622291 1_555
Na4 O55 2.431146 1_555
Na4 O38 2.474855 1_555
Na4 O43 2.498915 1_555
Na4 O59 2.550414 1_565
Na4 O46 2.559241 1_565
Na4 O34 2.759148 1_555
Na5 O54 2.431146 1_555
Na5 O39 2.474855 1_555
Na5 O42 2.498915 1_555
Na5 O58 2.550414 1_655
Na5 O47 2.559241 1_655
Na5 O35 2.759148 1_555
Na6 O57 2.431146 1_555
Na6 O40 2.474855 1_555
Na6 O45 2.498915 1_555
Na6 O61 2.550414 1_545
Na6 O48 2.559241 1_545
Na6 O36 2.759148 1_555
Na7 O56 2.431146 1_555
Na7 O41 2.474855 1_555
Na7 O44 2.498915 1_555
Na7 O60 2.550414 1_455
Na7 O49 2.559241 1_455
Na7 O37 2.759148 1_555
Cu0 O50 1.937514 1_555
Cu0 O46 1.960214 1_555
Cu0 O45 1.963691 1_555
Cu0 O40 1.983251 1_555
Cu1 O51 1.937514 1_554
Cu1 O47 1.960214 1_554
Cu1 O44 1.963691 1_555
Cu1 O41 1.983251 1_555
Cu2 O52 1.937514 1_555
Cu2 O48 1.960214 1_555
Cu2 O43 1.963691 1_555
Cu2 O38 1.983251 1_555
Cu3 O53 1.937514 1_556
Cu3 O49 1.960214 1_556
Cu3 O42 1.963691 1_555
Cu3 O39 1.983251 1_555
H0 O59 1.035279 1_555
H0 O54 1.556409 1_555
H1 O58 1.035279 1_555
H1 O55 1.556409 1_555
H2 O61 1.035279 1_555
H2 O56 1.556409 1_555
H3 O60 1.035279 1_555
H3 O57 1.556409 1_555
H4 O58 0.970485 1_555
H5 O59 0.970485 1_555
H6 O60 0.970485 1_555
H7 O61 0.970485 1_555
O0 Si12 1.629548 1_555
O0 Si20 1.671959 1_555
O1 Si13 1.629548 1_555
O1 Si21 1.671959 1_555
O2 Si14 1.629548 1_555
O2 Si22 1.671959 1_555
O3 Si15 1.629548 1_555
O3 Si23 1.671959 1_555
O4 Si8 1.646490 1_555
O4 Si6 1.651597 1_555
O5 Si9 1.646490 1_555
O5 Si7 1.651597 1_556
O6 Si10 1.646490 1_555
O6 Si4 1.651597 1_555
O7 Si11 1.646490 1_555
O7 Si5 1.651597 1_554
O8 Si0 1.651862 1_555
O8 Si4 1.653522 1_545
O9 Si1 1.651862 1_555
O9 Si5 1.653522 1_455
O10 Si2 1.651862 1_555
O10 Si6 1.653522 1_565
O11 Si3 1.651862 1_555
O11 Si7 1.653522 1_655
O12 Si12 1.627415 1_555
O12 Si13 1.627415 1_555
O13 Si15 1.627415 1_555
O13 Si14 1.627415 1_555
O14 Si17 1.661542 1_555
O14 Si2 1.663742 1_555
O15 Si16 1.661542 1_555
O15 Si3 1.663742 1_556
O16 Si19 1.661542 1_555
O16 Si0 1.663742 1_555
O17 Si18 1.661542 1_555
O17 Si1 1.663742 1_554
O18 Si4 1.647905 1_555
O18 Si20 1.653364 1_455
O19 Si5 1.647905 1_555
O19 Si21 1.653364 1_545
O20 Si6 1.647905 1_555
O20 Si22 1.653364 1_655
O21 Si7 1.647905 1_555
O21 Si23 1.653364 1_565
O22 Si9 1.656650 1_545
O22 Si16 1.656865 1_555
O23 Si8 1.656650 1_455
O23 Si17 1.656865 1_555
O24 Si11 1.656650 1_565
O24 Si18 1.656865 1_555
O25 Si10 1.656650 1_655
O25 Si19 1.656865 1_555
O26 Si12 1.638199 1_555
O26 Si16 1.659601 1_555
O27 Si13 1.638199 1_555
O27 Si17 1.659601 1_555
O28 Si14 1.638199 1_555
O28 Si18 1.659601 1_555
O29 Si15 1.638199 1_555
O29 Si19 1.659601 1_555
O30 Si0 1.655779 1_555
O30 Si20 1.666513 1_555
O31 Si1 1.655779 1_555
O31 Si21 1.666513 1_555
O32 Si2 1.655779 1_555
O32 Si22 1.666513 1_555
O33 Si3 1.655779 1_555
O33 Si23 1.666513 1_555
O34 Si13 1.621915 1_555
O34 Si8 1.639164 1_565
O35 Si12 1.621915 1_555
O35 Si9 1.639164 1_655
O36 Si15 1.621915 1_555
O36 Si10 1.639164 1_545
O37 Si14 1.621915 1_555
O37 Si11 1.639164 1_455
O38 Si4 1.608484 1_555
O39 Si5 1.608484 1_555
O40 Si6 1.608484 1_555
O41 Si7 1.608484 1_555
O42 Si16 1.605682 1_555
O43 Si17 1.605682 1_555
O44 Si18 1.605682 1_555
O45 Si19 1.605682 1_555
O46 Si8 1.604676 1_555
O47 Si9 1.604676 1_555
O48 Si10 1.604676 1_555
O49 Si11 1.604676 1_555
O50 Si0 1.602762 1_555
O51 Si1 1.602762 1_555
O52 Si2 1.602762 1_555
O53 Si3 1.602762 1_555
O54 Si20 1.593062 1_555
O55 Si21 1.593062 1_555
O56 Si22 1.593062 1_555
O57 Si23 1.593062 1_555
