# generated using pymatgen
data_ZnTe2O5
_symmetry_space_group_name_H-M   'P 1'
_cell_length_a   8.65333900
_cell_length_b   9.11250600
_cell_length_c   12.35937800
_cell_angle_alpha   90.00000000
_cell_angle_beta   90.00000000
_cell_angle_gamma   90.00000000
_symmetry_Int_Tables_number   1
_chemical_formula_structural   ZnTe2O5
_chemical_formula_sum   'Zn8 Te16 O40'
_cell_volume   974.58149303
_cell_formula_units_Z   8
loop_
 _symmetry_equiv_pos_site_id
 _symmetry_equiv_pos_as_xyz
  1  'x, y, z'
loop_
 _atom_site_type_symbol
 _atom_site_label
 _atom_site_symmetry_multiplicity
 _atom_site_fract_x
 _atom_site_fract_y
 _atom_site_fract_z
 _atom_site_occupancy
  Zn  Zn0  1  0.51836500  0.01478600  0.12301000  1
  Zn  Zn1  1  0.51836500  0.01478600  0.37699000  1
  Zn  Zn2  1  0.01836500  0.48521400  0.62301000  1
  Zn  Zn3  1  0.01836500  0.48521400  0.87699000  1
  Zn  Zn4  1  0.98163500  0.51478600  0.12301000  1
  Zn  Zn5  1  0.98163500  0.51478600  0.37699000  1
  Zn  Zn6  1  0.48163500  0.98521400  0.87699000  1
  Zn  Zn7  1  0.48163500  0.98521400  0.62301000  1
  Te  Te0  1  0.19856900  0.10475600  0.25000000  1
  Te  Te1  1  0.83855400  0.14946800  0.51464800  1
  Te  Te2  1  0.83855400  0.14946800  0.98535200  1
  Te  Te3  1  0.18222200  0.16668400  0.75000000  1
  Te  Te4  1  0.68222200  0.33331600  0.25000000  1
  Te  Te5  1  0.33855400  0.35053200  0.01464800  1
  Te  Te6  1  0.33855400  0.35053200  0.48535200  1
  Te  Te7  1  0.69856900  0.39524400  0.75000000  1
  Te  Te8  1  0.30143100  0.60475600  0.25000000  1
  Te  Te9  1  0.66144600  0.64946800  0.51464800  1
  Te  Te10  1  0.66144600  0.64946800  0.98535200  1
  Te  Te11  1  0.31777800  0.66668400  0.75000000  1
  Te  Te12  1  0.81777800  0.83331600  0.25000000  1
  Te  Te13  1  0.16144600  0.85053200  0.01464800  1
  Te  Te14  1  0.16144600  0.85053200  0.48535200  1
  Te  Te15  1  0.80143100  0.89524400  0.75000000  1
  O  O0  1  0.90667600  0.00832700  0.62773300  1
  O  O1  1  0.90667600  0.00832700  0.87226700  1
  O  O2  1  0.63348100  0.03148300  0.75000000  1
  O  O3  1  0.62040700  0.11803800  0.51223100  1
  O  O4  1  0.62040700  0.11803800  0.98776900  1
  O  O5  1  0.65798400  0.12366100  0.25000000  1
  O  O6  1  0.32229100  0.15613800  0.63054800  1
  O  O7  1  0.32229100  0.15613800  0.86945200  1
  O  O8  1  0.34970900  0.19146100  0.11418200  1
  O  O9  1  0.34970900  0.19146100  0.38581800  1
  O  O10  1  0.84970900  0.30853900  0.61418200  1
  O  O11  1  0.84970900  0.30853900  0.88581800  1
  O  O12  1  0.82229100  0.34386200  0.13054800  1
  O  O13  1  0.82229100  0.34386200  0.36945200  1
  O  O14  1  0.15798400  0.37633900  0.75000000  1
  O  O15  1  0.12040700  0.38196200  0.01223100  1
  O  O16  1  0.12040700  0.38196200  0.48776900  1
  O  O17  1  0.13348100  0.46851700  0.25000000  1
  O  O18  1  0.40667600  0.49167300  0.37226700  1
  O  O19  1  0.40667600  0.49167300  0.12773300  1
  O  O20  1  0.59332400  0.50832700  0.87226700  1
  O  O21  1  0.59332400  0.50832700  0.62773300  1
  O  O22  1  0.86651900  0.53148300  0.75000000  1
  O  O23  1  0.87959300  0.61803800  0.51223100  1
  O  O24  1  0.87959300  0.61803800  0.98776900  1
  O  O25  1  0.84201600  0.62366100  0.25000000  1
  O  O26  1  0.17770900  0.65613800  0.86945200  1
  O  O27  1  0.17770900  0.65613800  0.63054800  1
  O  O28  1  0.15029100  0.69146100  0.11418200  1
  O  O29  1  0.15029100  0.69146100  0.38581800  1
  O  O30  1  0.65029100  0.80853900  0.88581800  1
  O  O31  1  0.65029100  0.80853900  0.61418200  1
  O  O32  1  0.67770900  0.84386200  0.13054800  1
  O  O33  1  0.67770900  0.84386200  0.36945200  1
  O  O34  1  0.34201600  0.87633900  0.75000000  1
  O  O35  1  0.37959300  0.88196200  0.01223100  1
  O  O36  1  0.37959300  0.88196200  0.48776900  1
  O  O37  1  0.36651900  0.96851700  0.25000000  1
  O  O38  1  0.09332400  0.99167300  0.12773300  1
  O  O39  1  0.09332400  0.99167300  0.37226700  1
loop_
_geom_bond_atom_site_label_1
_geom_bond_atom_site_label_2
_geom_bond_distance
_geom_bond_site_symmetry_2
O0 Te1 1.988749 1_555
O0 Te15 2.043242 1_545
O1 Te2 1.988749 1_555
O1 Te15 2.043242 1_545
O2 Te15 1.911395 1_545
O2 Zn7 2.089900 1_545
O2 Zn6 2.089900 1_545
O3 Te1 1.909537 1_555
O3 Zn1 2.111600 1_555
O3 Zn7 2.186684 1_545
O4 Te2 1.909537 1_555
O4 Zn0 2.111600 1_556
O4 Zn6 2.186684 1_545
O5 Te4 1.921961 1_555
O5 Zn0 2.215259 1_555
O5 Zn1 2.215259 1_555
O6 Te3 1.912577 1_555
O6 Zn7 2.082277 1_545
O6 Te6 2.525484 1_555
O7 Te3 1.912577 1_555
O7 Zn6 2.082277 1_545
O7 Te5 2.525484 1_556
O8 Te5 1.903631 1_555
O8 Zn0 2.175732 1_555
O8 Te0 2.269924 1_555
O9 Te6 1.903631 1_555
O9 Zn1 2.175732 1_555
O9 Te0 2.269924 1_555
O10 Te1 1.903631 1_555
O10 Zn2 2.175732 1_655
O10 Te7 2.269924 1_555
O11 Te2 1.903631 1_555
O11 Zn3 2.175732 1_655
O11 Te7 2.269924 1_555
O12 Te4 1.912577 1_555
O12 Zn4 2.082277 1_555
O12 Te2 2.525484 1_554
O13 Te4 1.912577 1_555
O13 Zn5 2.082277 1_555
O13 Te1 2.525484 1_555
O14 Te3 1.921961 1_555
O14 Zn2 2.215259 1_555
O14 Zn3 2.215259 1_555
O15 Te5 1.909537 1_555
O15 Zn3 2.111600 1_554
O15 Zn4 2.186684 1_455
O16 Te6 1.909537 1_555
O16 Zn2 2.111600 1_555
O16 Zn5 2.186684 1_455
O17 Te8 1.911395 1_555
O17 Zn4 2.089900 1_455
O17 Zn5 2.089900 1_455
O18 Te6 1.988749 1_555
O18 Te8 2.043242 1_555
O19 Te5 1.988749 1_555
O19 Te8 2.043242 1_555
O20 Te10 1.988749 1_555
O20 Te7 2.043242 1_555
O21 Te9 1.988749 1_555
O21 Te7 2.043242 1_555
O22 Te7 1.911395 1_555
O22 Zn2 2.089900 1_655
O22 Zn3 2.089900 1_655
O23 Te9 1.909537 1_555
O23 Zn5 2.111600 1_555
O23 Zn2 2.186684 1_655
O24 Te10 1.909537 1_555
O24 Zn4 2.111600 1_556
O24 Zn3 2.186684 1_655
O25 Te12 1.921961 1_555
O25 Zn4 2.215259 1_555
O25 Zn5 2.215259 1_555
O26 Te11 1.912577 1_555
O26 Zn3 2.082277 1_555
O26 Te13 2.525484 1_556
O27 Te11 1.912577 1_555
O27 Zn2 2.082277 1_555
O27 Te14 2.525484 1_555
O28 Te13 1.903631 1_555
O28 Zn4 2.175732 1_455
O28 Te8 2.269924 1_555
O29 Te14 1.903631 1_555
O29 Zn5 2.175732 1_455
O29 Te8 2.269924 1_555
O30 Te10 1.903631 1_555
O30 Zn6 2.175732 1_555
O30 Te15 2.269924 1_555
O31 Te9 1.903631 1_555
O31 Zn7 2.175732 1_555
O31 Te15 2.269924 1_555
O32 Te12 1.912577 1_555
O32 Zn0 2.082277 1_565
O32 Te10 2.525484 1_554
O33 Te12 1.912577 1_555
O33 Zn1 2.082277 1_565
O33 Te9 2.525484 1_555
O34 Te11 1.921961 1_555
O34 Zn7 2.215259 1_555
O34 Zn6 2.215259 1_555
O35 Te13 1.909537 1_555
O35 Zn6 2.111600 1_554
O35 Zn0 2.186684 1_565
O36 Te14 1.909537 1_555
O36 Zn7 2.111600 1_555
O36 Zn1 2.186684 1_565
O37 Te0 1.911395 1_565
O37 Zn0 2.089900 1_565
O37 Zn1 2.089900 1_565
O38 Te13 1.988749 1_555
O38 Te0 2.043242 1_565
O39 Te14 1.988749 1_555
O39 Te0 2.043242 1_565
