# generated using pymatgen
data_NaLi2NiPCO7
_symmetry_space_group_name_H-M   'P 1'
_cell_length_a   4.95998563
_cell_length_b   12.88251089
_cell_length_c   8.35876748
_cell_angle_alpha   90.00584543
_cell_angle_beta   84.85775738
_cell_angle_gamma   90.00002801
_symmetry_Int_Tables_number   1
_chemical_formula_structural   NaLi2NiPCO7
_chemical_formula_sum   'Na4 Li8 Ni4 P4 C4 O28'
_cell_volume   531.95111961
_cell_formula_units_Z   4
loop_
 _symmetry_equiv_pos_site_id
 _symmetry_equiv_pos_as_xyz
  1  'x, y, z'
loop_
 _atom_site_type_symbol
 _atom_site_label
 _atom_site_symmetry_multiplicity
 _atom_site_fract_x
 _atom_site_fract_y
 _atom_site_fract_z
 _atom_site_occupancy
  Na  Na0  1  0.26849262  0.01067947  0.26748339  1
  Na  Na1  1  0.26848301  0.51066404  0.26754334  1
  Na  Na2  1  0.73148929  0.26069909  0.73256823  1
  Na  Na3  1  0.73150919  0.76068652  0.73253493  1
  Li  Li0  1  0.78729984  0.13672261  0.10281936  1
  Li  Li1  1  0.78732740  0.63664996  0.10287812  1
  Li  Li2  1  0.21264435  0.38678864  0.89718824  1
  Li  Li3  1  0.21267955  0.88673733  0.89712796  1
  Li  Li4  1  0.26380242  0.24940547  0.27693233  1
  Li  Li5  1  0.26381783  0.74938865  0.27693151  1
  Li  Li6  1  0.73621527  0.99941734  0.72305933  1
  Li  Li7  1  0.73623856  0.49942993  0.72308303  1
  Ni  Ni0  1  0.78988138  0.87521702  0.33418494  1
  Ni  Ni1  1  0.21017197  0.62522537  0.66578751  1
  Ni  Ni2  1  0.78984213  0.37521600  0.33422651  1
  Ni  Ni3  1  0.21013869  0.12522382  0.66577594  1
  P  P0  1  0.72707169  0.12813880  0.41101199  1
  P  P1  1  0.72710390  0.62813295  0.41101896  1
  P  P2  1  0.27289506  0.37813514  0.58899227  1
  P  P3  1  0.27293856  0.87811965  0.58896016  1
  C  C0  1  0.68709772  0.38172768  0.04639851  1
  C  C1  1  0.68713489  0.88172443  0.04634187  1
  C  C2  1  0.31285326  0.13171674  0.95361493  1
  C  C3  1  0.31291979  0.63168512  0.95362086  1
  O  O0  1  0.38967278  0.14453464  0.09464991  1
  O  O1  1  0.38977341  0.64447689  0.09467047  1
  O  O2  1  0.61022673  0.39460743  0.90536632  1
  O  O3  1  0.61027276  0.89459358  0.90531481  1
  O  O4  1  0.93891574  0.38107714  0.07466094  1
  O  O5  1  0.93895740  0.88108439  0.07461667  1
  O  O6  1  0.06103863  0.13106414  0.92531789  1
  O  O7  1  0.06110318  0.63104166  0.92535109  1
  O  O8  1  0.50916067  0.36907789  0.16865725  1
  O  O9  1  0.50919860  0.86907340  0.16860771  1
  O  O10  1  0.49082079  0.11912443  0.83134210  1
  O  O11  1  0.49087832  0.61911592  0.83133622  1
  O  O12  1  0.79323866  0.03354859  0.30106553  1
  O  O13  1  0.79325711  0.53353511  0.30108857  1
  O  O14  1  0.20663055  0.28357024  0.69895141  1
  O  O15  1  0.20664926  0.78356462  0.69892870  1
  O  O16  1  0.84391196  0.21948796  0.30685489  1
  O  O17  1  0.84393613  0.71947377  0.30683085  1
  O  O18  1  0.15611273  0.46951069  0.69315936  1
  O  O19  1  0.15616654  0.96949805  0.69311421  1
  O  O20  1  0.15035378  0.37054554  0.42883515  1
  O  O21  1  0.15041622  0.87053138  0.42879332  1
  O  O22  1  0.84959530  0.12054681  0.57118267  1
  O  O23  1  0.84964922  0.62055422  0.57117466  1
  O  O24  1  0.41704878  0.14049720  0.44318152  1
  O  O25  1  0.41708389  0.64048780  0.44319361  1
  O  O26  1  0.58292374  0.39045060  0.55682579  1
  O  O27  1  0.58297875  0.89041914  0.55679918  1
loop_
_geom_bond_atom_site_label_1
_geom_bond_atom_site_label_2
_geom_bond_distance
_geom_bond_site_symmetry_2
Na0 O9 2.293280 1_545
Na0 O0 2.294935 1_555
Na0 O21 2.297754 1_545
Na0 O12 2.367193 1_455
Na0 O24 2.385393 1_555
Na0 O12 2.659090 1_555
Na0 O5 2.920543 1_445
Na1 O8 2.293035 1_555
Na1 O1 2.294837 1_555
Na1 O20 2.297422 1_555
Na1 O13 2.367050 1_455
Na1 O25 2.385271 1_555
Na1 O13 2.659170 1_555
Na1 O4 2.920658 1_455
Na2 O10 2.292734 1_555
Na2 O2 2.295133 1_555
Na2 O22 2.297967 1_555
Na2 O14 2.366661 1_655
Na2 O26 2.385261 1_555
Na2 O14 2.659708 1_555
Na2 O6 2.920479 1_655
Na3 O11 2.292673 1_555
Na3 O3 2.295002 1_555
Na3 O23 2.297679 1_555
Na3 O15 2.366664 1_655
Na3 O27 2.384991 1_555
Na3 O15 2.659706 1_555
Na3 O7 2.921022 1_655
Li0 O6 1.920674 1_654
Li0 O0 1.982071 1_555
Li0 O16 2.051789 1_555
Li0 O12 2.126650 1_555
Li1 O7 1.920918 1_654
Li1 O1 1.981758 1_555
Li1 O17 2.051593 1_555
Li1 O13 2.125937 1_555
Li2 O4 1.920509 1_456
Li2 O2 1.981862 1_555
Li2 O18 2.051549 1_555
Li2 O14 2.126766 1_555
Li3 O5 1.920555 1_456
Li3 O3 1.981949 1_555
Li3 O19 2.051681 1_555
Li3 O15 2.126160 1_555
Li4 O20 2.058102 1_555
Li4 O0 2.089393 1_555
Li4 O16 2.110729 1_455
Li4 O8 2.116544 1_555
Li4 O24 2.160331 1_555
Li5 O21 2.057874 1_555
Li5 O1 2.089707 1_555
Li5 O17 2.110675 1_455
Li5 O9 2.116873 1_555
Li5 O25 2.160382 1_555
Li6 O22 2.057990 1_565
Li6 O3 2.089127 1_555
Li6 O19 2.111024 1_655
Li6 O10 2.116857 1_565
Li6 O27 2.160941 1_555
Li7 O23 2.058130 1_555
Li7 O2 2.089360 1_555
Li7 O18 2.110646 1_655
Li7 O11 2.116475 1_555
Li7 O26 2.160926 1_555
Ni0 O21 2.019991 1_655
Ni0 O17 2.034349 1_555
Ni0 O9 2.050689 1_555
Ni0 O27 2.052226 1_555
Ni0 O12 2.058304 1_565
Ni0 O5 2.229882 1_555
Ni1 O23 2.019942 1_455
Ni1 O18 2.034050 1_555
Ni1 O11 2.050594 1_555
Ni1 O25 2.052209 1_555
Ni1 O15 2.058367 1_555
Ni1 O7 2.229799 1_555
Ni2 O20 2.019880 1_655
Ni2 O16 2.034180 1_555
Ni2 O8 2.050632 1_555
Ni2 O26 2.052191 1_555
Ni2 O13 2.058164 1_555
Ni2 O4 2.229855 1_555
Ni3 O22 2.019962 1_455
Ni3 O19 2.034110 1_545
Ni3 O10 2.050607 1_555
Ni3 O24 2.052223 1_555
Ni3 O14 2.058497 1_555
Ni3 O6 2.229677 1_555
C0 O2 1.281880 1_554
C0 O4 1.291823 1_555
C0 O8 1.299300 1_555
C1 O3 1.281805 1_554
C1 O5 1.291872 1_555
C1 O9 1.299343 1_555
C2 O0 1.281671 1_556
C2 O6 1.291885 1_555
C2 O10 1.299359 1_555
C3 O1 1.281807 1_556
C3 O7 1.291832 1_555
C3 O11 1.299366 1_555
O12 P0 1.543662 1_555
O13 P1 1.543651 1_555
O14 P2 1.543691 1_555
O15 P3 1.543655 1_555
O16 P0 1.545470 1_555
O17 P1 1.545512 1_555
O18 P2 1.545545 1_555
O19 P3 1.545498 1_555
O20 P2 1.522161 1_555
O21 P3 1.522190 1_555
O22 P0 1.522243 1_555
O23 P1 1.522169 1_555
O24 P0 1.545339 1_555
O25 P1 1.545324 1_555
O26 P2 1.545314 1_555
O27 P3 1.545345 1_555
