# generated using pymatgen
data_HgAsC4Se3N
_symmetry_space_group_name_H-M   'P 1'
_cell_length_a   18.63869200
_cell_length_b   7.11392200
_cell_length_c   10.73294676
_cell_angle_alpha   52.86956852
_cell_angle_beta   90.00000000
_cell_angle_gamma   90.00000000
_symmetry_Int_Tables_number   1
_chemical_formula_structural   HgAsC4Se3N
_chemical_formula_sum   'Hg4 As4 C16 Se12 N4'
_cell_volume   1134.60672224
_cell_formula_units_Z   4
loop_
 _symmetry_equiv_pos_site_id
 _symmetry_equiv_pos_as_xyz
  1  'x, y, z'
loop_
 _atom_site_type_symbol
 _atom_site_label
 _atom_site_symmetry_multiplicity
 _atom_site_fract_x
 _atom_site_fract_y
 _atom_site_fract_z
 _atom_site_occupancy
  Hg  Hg0  1  0.48372700  0.29965100  0.42813500  1
  Hg  Hg1  1  0.01627300  0.29965100  0.92813500  1
  Hg  Hg2  1  0.51627300  0.70034900  0.57186500  1
  Hg  Hg3  1  0.98372700  0.70034900  0.07186500  1
  As  As0  1  0.44579200  0.84081500  0.84559000  1
  As  As1  1  0.05420800  0.84081500  0.34559000  1
  As  As2  1  0.55420800  0.15918500  0.15441000  1
  As  As3  1  0.94579200  0.15918500  0.65441000  1
  C  C0  1  0.62149000  0.02468800  0.88910300  1
  C  C1  1  0.87851000  0.02468800  0.38910300  1
  C  C2  1  0.37851000  0.97531200  0.11089700  1
  C  C3  1  0.12149000  0.97531200  0.61089700  1
  C  C4  1  0.67007700  0.82428100  0.92342900  1
  C  C5  1  0.82992300  0.82428100  0.42342900  1
  C  C6  1  0.32992300  0.17571900  0.07657100  1
  C  C7  1  0.17007700  0.17571900  0.57657100  1
  C  C8  1  0.71382800  0.03592800  0.88266400  1
  C  C9  1  0.78617200  0.03592800  0.38266400  1
  C  C10  1  0.28617200  0.96407200  0.11733600  1
  C  C11  1  0.21382800  0.96407200  0.61733600  1
  C  C12  1  0.66715600  0.14278000  0.93088600  1
  C  C13  1  0.83284400  0.14278000  0.43088600  1
  C  C14  1  0.33284400  0.85722000  0.06911400  1
  C  C15  1  0.16715600  0.85722000  0.56911400  1
  Se  Se0  1  0.32845700  0.69912100  0.98375200  1
  Se  Se1  1  0.17154300  0.69912100  0.48375200  1
  Se  Se2  1  0.67154300  0.30087900  0.01624800  1
  Se  Se3  1  0.82845700  0.30087900  0.51624800  1
  Se  Se4  1  0.39523700  0.22111000  0.62947700  1
  Se  Se5  1  0.10476300  0.22111000  0.12947700  1
  Se  Se6  1  0.60476300  0.77889000  0.37052300  1
  Se  Se7  1  0.89523700  0.77889000  0.87052300  1
  Se  Se8  1  0.42470800  0.57590300  0.77724200  1
  Se  Se9  1  0.07529200  0.57590300  0.27724200  1
  Se  Se10  1  0.57529200  0.42409700  0.22275800  1
  Se  Se11  1  0.92470800  0.42409700  0.72275800  1
  N  N0  1  0.66698100  0.06299200  0.76028100  1
  N  N1  1  0.83301900  0.06299200  0.26028100  1
  N  N2  1  0.33301900  0.93700800  0.23971900  1
  N  N3  1  0.16698100  0.93700800  0.73971900  1
loop_
_geom_bond_atom_site_label_1
_geom_bond_atom_site_label_2
_geom_bond_distance
_geom_bond_site_symmetry_2
Hg0 Se10 2.489864 1_555
Hg0 Se4 2.498943 1_555
Hg1 Se11 2.489864 1_455
Hg1 Se5 2.498943 1_556
Hg2 Se8 2.489864 1_555
Hg2 Se6 2.498943 1_555
Hg3 Se9 2.489864 1_655
Hg3 Se7 2.498943 1_554
As0 Se8 2.431696 1_555
As0 Se4 2.451812 1_565
As0 Se0 2.488634 1_555
As1 Se9 2.431696 1_555
As1 Se5 2.451812 1_565
As1 Se1 2.488634 1_555
As2 Se10 2.431696 1_555
As2 Se6 2.451812 1_545
As2 Se2 2.488634 1_555
As3 Se11 2.431696 1_555
As3 Se7 2.451812 1_545
As3 Se3 2.488634 1_555
C0 C12 1.444358 1_555
C0 N0 1.500007 1_555
C0 C4 1.534370 1_545
C0 C8 1.722366 1_555
C1 C13 1.444358 1_555
C1 N1 1.500007 1_555
C1 C5 1.534370 1_545
C1 C9 1.722366 1_555
C2 N2 1.500007 1_555
C2 C6 1.534370 1_565
C3 N3 1.500007 1_555
C3 C7 1.534370 1_565
C4 C8 1.525799 1_565
C4 N0 1.537338 1_565
C5 C9 1.525799 1_565
C5 N1 1.537338 1_565
C6 N2 1.537338 1_545
C7 N3 1.537338 1_545
C8 N0 1.489812 1_555
C9 N1 1.489812 1_555
C10 C14 1.441311 1_555
C10 N2 1.489812 1_555
C10 C6 1.525799 1_565
C10 C2 1.722366 1_555
C11 C15 1.441311 1_555
C11 N3 1.489812 1_555
C11 C7 1.525799 1_565
C11 C3 1.722366 1_555
C12 C8 1.441311 1_555
C12 Se2 1.831680 1_556
C13 C9 1.441311 1_555
C13 Se3 1.831680 1_555
C14 C2 1.444358 1_555
C14 Se0 1.831680 1_554
C15 C3 1.444358 1_555
C15 Se1 1.831680 1_555
