# generated using pymatgen
data_Ca3Cu5Si9O26
_symmetry_space_group_name_H-M   'P 1'
_cell_length_a   7.19479992
_cell_length_b   7.19479992
_cell_length_c   20.20672971
_cell_angle_alpha   88.95710896
_cell_angle_beta   91.04289104
_cell_angle_gamma   90.79726489
_symmetry_Int_Tables_number   1
_chemical_formula_structural   Ca3Cu5Si9O26
_chemical_formula_sum   'Ca6 Cu10 Si18 O52'
_cell_volume   1045.56126658
_cell_formula_units_Z   2
loop_
 _symmetry_equiv_pos_site_id
 _symmetry_equiv_pos_as_xyz
  1  'x, y, z'
loop_
 _atom_site_type_symbol
 _atom_site_label
 _atom_site_symmetry_multiplicity
 _atom_site_fract_x
 _atom_site_fract_y
 _atom_site_fract_z
 _atom_site_occupancy
  Ca  Ca0  1  0.27380400  0.27380400  0.75000000  1
  Ca  Ca1  1  0.72619600  0.72619600  0.25000000  1
  Ca  Ca2  1  0.71102000  0.76241500  0.92984900  1
  Ca  Ca3  1  0.76241500  0.71102000  0.57015100  1
  Ca  Ca4  1  0.28898000  0.23758500  0.07015100  1
  Ca  Ca5  1  0.23758500  0.28898000  0.42984900  1
  Cu  Cu0  1  0.00000000  0.50000000  0.00000000  1
  Cu  Cu1  1  0.50000000  0.00000000  0.50000000  1
  Cu  Cu2  1  0.97392900  0.51047800  0.83954800  1
  Cu  Cu3  1  0.51047800  0.97392900  0.66045200  1
  Cu  Cu4  1  0.02607100  0.48952200  0.16045200  1
  Cu  Cu5  1  0.48952200  0.02607100  0.33954800  1
  Cu  Cu6  1  0.96097600  0.01769100  0.82862900  1
  Cu  Cu7  1  0.01769100  0.96097600  0.67137100  1
  Cu  Cu8  1  0.03902400  0.98230900  0.17137100  1
  Cu  Cu9  1  0.98230900  0.03902400  0.32862900  1
  Si  Si0  1  0.24328100  0.24777000  0.91147600  1
  Si  Si1  1  0.24777000  0.24328100  0.58852400  1
  Si  Si2  1  0.75671900  0.75223000  0.08852400  1
  Si  Si3  1  0.75223000  0.75671900  0.41147600  1
  Si  Si4  1  0.65465000  0.25609900  0.90690300  1
  Si  Si5  1  0.25609900  0.65465000  0.59309700  1
  Si  Si6  1  0.34535000  0.74390100  0.09309700  1
  Si  Si7  1  0.74390100  0.34535000  0.40690300  1
  Si  Si8  1  0.69313900  0.23723300  0.19570200  1
  Si  Si9  1  0.23723300  0.69313900  0.30429800  1
  Si  Si10  1  0.30686100  0.76276700  0.80429800  1
  Si  Si11  1  0.76276700  0.30686100  0.69570200  1
  Si  Si12  1  0.28019900  0.28019900  0.25000000  1
  Si  Si13  1  0.71980100  0.71980100  0.75000000  1
  Si  Si14  1  0.75031200  0.18054800  0.05127900  1
  Si  Si15  1  0.18054800  0.75031200  0.44872100  1
  Si  Si16  1  0.24968800  0.81945200  0.94872100  1
  Si  Si17  1  0.81945200  0.24968800  0.55127900  1
  O  O0  1  0.44268200  0.26423700  0.87166300  1
  O  O1  1  0.26423700  0.44268200  0.62833700  1
  O  O2  1  0.55731800  0.73576300  0.12833700  1
  O  O3  1  0.73576300  0.55731800  0.37166300  1
  O  O4  1  0.08291100  0.25743000  0.85221200  1
  O  O5  1  0.25743000  0.08291100  0.64778800  1
  O  O6  1  0.91708900  0.74257000  0.14778800  1
  O  O7  1  0.74257000  0.91708900  0.35221200  1
  O  O8  1  0.15209700  0.23507500  0.18394100  1
  O  O9  1  0.23507500  0.15209700  0.31605900  1
  O  O10  1  0.84790300  0.76492500  0.81605900  1
  O  O11  1  0.76492500  0.84790300  0.68394100  1
  O  O12  1  0.22966100  0.40121100  0.96803300  1
  O  O13  1  0.40121100  0.22966100  0.53196700  1
  O  O14  1  0.77033900  0.59878900  0.03196700  1
  O  O15  1  0.59878900  0.77033900  0.46803300  1
  O  O16  1  0.80556400  0.43007800  0.20938900  1
  O  O17  1  0.43007800  0.80556400  0.29061100  1
  O  O18  1  0.19443600  0.56992200  0.79061100  1
  O  O19  1  0.56992200  0.19443600  0.70938900  1
  O  O20  1  0.76345600  0.45234500  0.89458300  1
  O  O21  1  0.45234500  0.76345600  0.60541700  1
  O  O22  1  0.23654400  0.54765500  0.10541700  1
  O  O23  1  0.54765500  0.23654400  0.39458300  1
  O  O24  1  0.80614200  0.04931000  0.21550000  1
  O  O25  1  0.04931000  0.80614200  0.28450000  1
  O  O26  1  0.19385800  0.95069000  0.78450000  1
  O  O27  1  0.95069000  0.19385800  0.71550000  1
  O  O28  1  0.61180900  0.23460100  0.98816500  1
  O  O29  1  0.23460100  0.61180900  0.51183500  1
  O  O30  1  0.38819100  0.76539900  0.01183500  1
  O  O31  1  0.76539900  0.38819100  0.48816500  1
  O  O32  1  0.61960600  0.22764600  0.11596900  1
  O  O33  1  0.22764600  0.61960600  0.38403100  1
  O  O34  1  0.38039400  0.77235400  0.88403100  1
  O  O35  1  0.77235400  0.38039400  0.61596900  1
  O  O36  1  0.50112200  0.24444900  0.23811600  1
  O  O37  1  0.24444900  0.50112200  0.26188400  1
  O  O38  1  0.49887800  0.75555100  0.76188400  1
  O  O39  1  0.75555100  0.49887800  0.73811600  1
  O  O40  1  0.95631200  0.27087100  0.05420100  1
  O  O41  1  0.27087100  0.95631200  0.44579900  1
  O  O42  1  0.04368800  0.72912900  0.94579900  1
  O  O43  1  0.72912900  0.04368800  0.55420100  1
  O  O44  1  0.23376500  0.04737100  0.95213300  1
  O  O45  1  0.04737100  0.23376500  0.54786700  1
  O  O46  1  0.76623500  0.95262900  0.04786700  1
  O  O47  1  0.95262900  0.76623500  0.45213300  1
  O  O48  1  0.06639100  0.75331700  0.61496800  1
  O  O49  1  0.75331700  0.06639100  0.88503200  1
  O  O50  1  0.93360900  0.24668300  0.38503200  1
  O  O51  1  0.24668300  0.93360900  0.11496800  1
loop_
_geom_bond_atom_site_label_1
_geom_bond_atom_site_label_2
_geom_bond_distance
_geom_bond_site_symmetry_2
Ca0 O19 2.377629 1_555
Ca0 O18 2.377629 1_555
Ca0 O26 2.477832 1_545
Ca0 O27 2.477832 1_455
Ca0 O5 2.501172 1_555
Ca0 O4 2.501172 1_555
Ca0 O1 2.722552 1_555
Ca0 O0 2.722552 1_555
Ca1 O16 2.377629 1_555
Ca1 O17 2.377629 1_555
Ca1 O24 2.477832 1_565
Ca1 O25 2.477832 1_655
Ca1 O6 2.501172 1_555
Ca1 O7 2.501172 1_555
Ca1 O2 2.722552 1_555
Ca1 O3 2.722552 1_555
Ca2 O49 2.369666 1_565
Ca2 O20 2.391255 1_555
Ca2 O14 2.391545 1_556
Ca2 O42 2.423847 1_655
Ca2 O10 2.517451 1_555
Ca2 O34 2.538319 1_555
Ca2 O46 2.790521 1_556
Ca2 O30 2.877960 1_556
Ca3 O48 2.369666 1_655
Ca3 O21 2.391255 1_555
Ca3 O15 2.391545 1_555
Ca3 O43 2.423847 1_565
Ca3 O11 2.517451 1_555
Ca3 O35 2.538319 1_555
Ca3 O47 2.790521 1_555
Ca3 O31 2.877960 1_555
Ca4 O51 2.369666 1_545
Ca4 O22 2.391255 1_555
Ca4 O12 2.391545 1_554
Ca4 O40 2.423847 1_455
Ca4 O8 2.517451 1_555
Ca4 O32 2.538319 1_555
Ca4 O44 2.790521 1_554
Ca4 O28 2.877960 1_554
Ca5 O50 2.369666 1_455
Ca5 O23 2.391255 1_555
Ca5 O13 2.391545 1_555
Ca5 O41 2.423847 1_545
Ca5 O9 2.517451 1_555
Ca5 O33 2.538319 1_555
Ca5 O45 2.790521 1_555
Ca5 O29 2.877960 1_555
Cu0 O12 1.934166 1_554
Cu0 O14 1.934166 1_455
Cu0 O40 1.987053 1_455
Cu0 O42 1.987053 1_554
Cu1 O13 1.934166 1_555
Cu1 O15 1.934166 1_545
Cu1 O41 1.987053 1_545
Cu1 O43 1.987053 1_555
Cu2 O18 1.923689 1_655
Cu2 O20 1.931718 1_555
Cu2 O4 2.002613 1_655
Cu2 O10 2.097090 1_555
Cu3 O19 1.923689 1_565
Cu3 O21 1.931718 1_555
Cu3 O5 2.002613 1_565
Cu3 O11 2.097090 1_555
Cu4 O16 1.923689 1_455
Cu4 O22 1.931718 1_555
Cu4 O6 2.002613 1_455
Cu4 O8 2.097090 1_555
Cu5 O17 1.923689 1_545
Cu5 O23 1.931718 1_555
Cu5 O7 2.002613 1_545
Cu5 O9 2.097090 1_555
Cu6 O49 1.935214 1_555
Cu6 O26 1.981782 1_645
Cu6 O4 1.986081 1_655
Cu6 O10 2.000447 1_545
Cu6 O27 2.593959 1_555
Cu7 O48 1.935214 1_555
Cu7 O27 1.981782 1_465
Cu7 O5 1.986081 1_565
Cu7 O11 2.000447 1_455
Cu7 O26 2.593959 1_555
Cu8 O51 1.935214 1_555
Cu8 O24 1.981782 1_465
Cu8 O6 1.986081 1_455
Cu8 O8 2.000447 1_565
Cu8 O25 2.593959 1_555
Cu9 O50 1.935214 1_555
Cu9 O25 1.981782 1_645
Cu9 O7 1.986081 1_545
Cu9 O9 2.000447 1_655
Cu9 O24 2.593959 1_555
O0 Si0 1.659300 1_555
O0 Si4 1.672651 1_555
O1 Si1 1.659300 1_555
O1 Si5 1.672651 1_555
O2 Si2 1.659300 1_555
O2 Si6 1.672651 1_555
O3 Si3 1.659300 1_555
O3 Si7 1.672651 1_555
O4 Si0 1.648982 1_555
O5 Si1 1.648982 1_555
O6 Si2 1.648982 1_555
O7 Si3 1.648982 1_555
O8 Si12 1.642963 1_555
O9 Si12 1.642963 1_555
O10 Si13 1.642963 1_555
O11 Si13 1.642963 1_555
O12 Si0 1.608554 1_555
O13 Si1 1.608554 1_555
O14 Si2 1.608554 1_555
O15 Si3 1.608554 1_555
O16 Si8 1.621871 1_555
O17 Si9 1.621871 1_555
O18 Si10 1.621871 1_555
O19 Si11 1.621871 1_555
O20 Si4 1.622329 1_555
O21 Si5 1.622329 1_555
O22 Si6 1.622329 1_555
O23 Si7 1.622329 1_555
O24 Si8 1.627334 1_555
O25 Si9 1.627334 1_555
O26 Si10 1.627334 1_555
O27 Si11 1.627334 1_555
O28 Si14 1.648389 1_556
O28 Si4 1.680201 1_555
O29 Si15 1.648389 1_555
O29 Si5 1.680201 1_555
O30 Si16 1.648389 1_554
O30 Si6 1.680201 1_555
O31 Si17 1.648389 1_555
O31 Si7 1.680201 1_555
O32 Si14 1.666622 1_555
O32 Si8 1.688917 1_555
O33 Si15 1.666622 1_555
O33 Si9 1.688917 1_555
O34 Si16 1.666622 1_555
O34 Si10 1.688917 1_555
O35 Si17 1.666622 1_555
O35 Si11 1.688917 1_555
O36 Si12 1.636412 1_555
O36 Si8 1.640900 1_555
O37 Si12 1.636412 1_555
O37 Si9 1.640900 1_555
O38 Si13 1.636412 1_555
O38 Si10 1.640900 1_555
O39 Si13 1.636412 1_555
O39 Si11 1.640900 1_555
O40 Si14 1.610563 1_555
O41 Si15 1.610563 1_555
O42 Si16 1.610563 1_555
O43 Si17 1.610563 1_555
O44 Si0 1.647629 1_555
O44 Si16 1.648198 1_545
O45 Si1 1.647629 1_555
O45 Si17 1.648198 1_455
O46 Si2 1.647629 1_555
O46 Si14 1.648198 1_565
O47 Si3 1.647629 1_555
O47 Si15 1.648198 1_655
O48 Si5 1.619438 1_555
O49 Si4 1.619438 1_555
O50 Si7 1.619438 1_555
O51 Si6 1.619438 1_555
