# generated using pymatgen
data_V4O7F5
_symmetry_space_group_name_H-M   'P 1'
_cell_length_a   5.28666072
_cell_length_b   5.28666072
_cell_length_c   8.77785032
_cell_angle_alpha   75.06816131
_cell_angle_beta   75.06816131
_cell_angle_gamma   59.14546116
_symmetry_Int_Tables_number   1
_chemical_formula_structural   V4O7F5
_chemical_formula_sum   'V4 O7 F5'
_cell_volume   201.15407595
_cell_formula_units_Z   1
loop_
 _symmetry_equiv_pos_site_id
 _symmetry_equiv_pos_as_xyz
  1  'x, y, z'
loop_
 _atom_site_type_symbol
 _atom_site_label
 _atom_site_symmetry_multiplicity
 _atom_site_fract_x
 _atom_site_fract_y
 _atom_site_fract_z
 _atom_site_occupancy
  V  V0  1  0.78092900  0.52258600  0.61916800  1
  V  V1  1  0.47741400  0.21907100  0.38083200  1
  V  V2  1  0.19858900  0.01451000  0.12983700  1
  V  V3  1  0.98549000  0.80141100  0.87016300  1
  O  O0  1  0.79840900  0.69583000  0.75515800  1
  O  O1  1  0.83603800  0.15957700  0.79194500  1
  O  O2  1  0.84042300  0.16396200  0.20805500  1
  O  O3  1  0.16687000  0.33780200  0.54157100  1
  O  O4  1  0.30417000  0.20159100  0.24484200  1
  O  O5  1  0.20995500  0.79004500  0.00000000  1
  O  O6  1  0.66219800  0.83313000  0.45842900  1
  F  F0  1  0.33585800  0.67562200  0.29260700  1
  F  F1  1  0.32437800  0.66414200  0.70739300  1
  F  F2  1  0.70704800  0.29295200  0.50000000  1
  F  F3  1  0.18459300  0.31236000  0.95584600  1
  F  F4  1  0.68764000  0.81540700  0.04415400  1
loop_
_geom_bond_atom_site_label_1
_geom_bond_atom_site_label_2
_geom_bond_distance
_geom_bond_site_symmetry_2
O0 V0 1.726087 1_555
O0 V3 1.918328 1_555
O1 V3 1.660139 1_545
O1 V0 2.054811 1_555
O2 V2 1.660139 1_655
O2 V1 2.054811 1_555
O3 V0 1.778624 1_455
O3 V1 1.812657 1_555
O4 V1 1.726087 1_555
O4 V2 1.918328 1_555
O5 V2 1.816376 1_565
O5 V3 1.816376 1_454
O6 V1 1.778624 1_565
O6 V0 1.812657 1_555
F0 V2 1.912955 1_565
F0 V1 2.113781 1_555
F1 V3 1.912955 1_455
F1 V0 2.113781 1_555
F2 V0 2.017890 1_555
F2 V1 2.017890 1_555
F3 V2 1.875335 1_556
F3 V3 2.229937 1_455
F4 V3 1.875335 1_554
F4 V2 2.229937 1_565
