# generated using pymatgen
data_V3O7
_symmetry_space_group_name_H-M   'P 1'
_cell_length_a   10.76812852
_cell_length_b   10.76812852
_cell_length_c   9.55351800
_cell_angle_alpha   90.00000000
_cell_angle_beta   90.00000000
_cell_angle_gamma   120.00000320
_symmetry_Int_Tables_number   1
_chemical_formula_structural   V3O7
_chemical_formula_sum   'V18 O42'
_cell_volume   959.34409026
_cell_formula_units_Z   6
loop_
 _symmetry_equiv_pos_site_id
 _symmetry_equiv_pos_as_xyz
  1  'x, y, z'
loop_
 _atom_site_type_symbol
 _atom_site_label
 _atom_site_symmetry_multiplicity
 _atom_site_fract_x
 _atom_site_fract_y
 _atom_site_fract_z
 _atom_site_occupancy
  V  V0  1  0.11484700  0.80289300  0.39474400  1
  V  V1  1  0.15902900  0.84097100  0.75000000  1
  V  V2  1  0.19710700  0.88515300  0.10525600  1
  V  V3  1  0.11484700  0.31195400  0.10525600  1
  V  V4  1  0.15902900  0.31805800  0.75000000  1
  V  V5  1  0.19710700  0.31195400  0.39474400  1
  V  V6  1  0.31195400  0.19710700  0.89474400  1
  V  V7  1  0.31805800  0.15902900  0.25000000  1
  V  V8  1  0.68804600  0.88515300  0.39474400  1
  V  V9  1  0.31195400  0.11484700  0.60525600  1
  V  V10  1  0.68194200  0.84097100  0.75000000  1
  V  V11  1  0.68804600  0.80289300  0.10525600  1
  V  V12  1  0.80289300  0.68804600  0.60525600  1
  V  V13  1  0.84097100  0.68194200  0.25000000  1
  V  V14  1  0.88515300  0.68804600  0.89474400  1
  V  V15  1  0.80289300  0.11484700  0.89474400  1
  V  V16  1  0.84097100  0.15902900  0.25000000  1
  V  V17  1  0.88515300  0.19710700  0.60525600  1
  O  O0  1  0.07799800  0.82395800  0.93602100  1
  O  O1  1  0.03293600  0.74244200  0.20502600  1
  O  O2  1  0.17604200  0.92200200  0.56397900  1
  O  O3  1  0.25755800  0.96706400  0.29497400  1
  O  O4  1  0.15678900  0.68546800  0.43531100  1
  O  O5  1  0.24395300  0.75604700  0.75000000  1
  O  O6  1  0.03293600  0.29049300  0.29497400  1
  O  O7  1  0.31453200  0.84321100  0.06468900  1
  O  O8  1  0.15678900  0.47132000  0.06468900  1
  O  O9  1  0.07799800  0.25404000  0.56397900  1
  O  O10  1  0.24395300  0.48790500  0.75000000  1
  O  O11  1  0.17604200  0.25404000  0.93602100  1
  O  O12  1  0.31453200  0.47132000  0.43531100  1
  O  O13  1  0.52868000  0.84321100  0.43531100  1
  O  O14  1  0.25755800  0.29049300  0.20502600  1
  O  O15  1  0.51209500  0.75604700  0.75000000  1
  O  O16  1  0.25404000  0.17604200  0.43602100  1
  O  O17  1  0.29049300  0.25755800  0.70502600  1
  O  O18  1  0.52868000  0.68546800  0.06468900  1
  O  O19  1  0.25404000  0.07799800  0.06397900  1
  O  O20  1  0.70950700  0.96706400  0.20502600  1
  O  O21  1  0.29049300  0.03293600  0.79497400  1
  O  O22  1  0.74596000  0.92200200  0.93602100  1
  O  O23  1  0.47132000  0.31453200  0.93531100  1
  O  O24  1  0.70950700  0.74244200  0.29497400  1
  O  O25  1  0.74596000  0.82395800  0.56397900  1
  O  O26  1  0.48790500  0.24395300  0.25000000  1
  O  O27  1  0.74244200  0.70950700  0.79497400  1
  O  O28  1  0.47132000  0.15678900  0.56468900  1
  O  O29  1  0.68546800  0.52868000  0.56468900  1
  O  O30  1  0.82395800  0.74596000  0.06397900  1
  O  O31  1  0.75604700  0.51209500  0.25000000  1
  O  O32  1  0.92200200  0.74596000  0.43602100  1
  O  O33  1  0.84321100  0.52868000  0.93531100  1
  O  O34  1  0.68546800  0.15678900  0.93531100  1
  O  O35  1  0.96706400  0.70950700  0.70502600  1
  O  O36  1  0.75604700  0.24395300  0.25000000  1
  O  O37  1  0.84321100  0.31453200  0.56468900  1
  O  O38  1  0.74244200  0.03293600  0.70502600  1
  O  O39  1  0.82395800  0.07799800  0.43602100  1
  O  O40  1  0.96706400  0.25755800  0.79497400  1
  O  O41  1  0.92200200  0.17604200  0.06397900  1
loop_
_geom_bond_atom_site_label_1
_geom_bond_atom_site_label_2
_geom_bond_distance
_geom_bond_site_symmetry_2
O0 V14 1.889566 1_455
O0 V1 1.947650 1_555
O0 V2 1.961653 1_556
O1 V13 1.880234 1_455
O1 V2 1.917957 1_555
O1 V0 1.978033 1_555
O2 V9 1.889566 1_565
O2 V1 1.947650 1_555
O2 V0 1.961653 1_555
O3 V7 1.880234 1_565
O3 V0 1.917957 1_555
O3 V2 1.978033 1_555
O4 V0 1.588734 1_555
O5 V1 1.583913 1_555
O6 V16 1.880232 1_455
O6 V5 1.917953 1_555
O6 V3 1.978032 1_555
O7 V2 1.588734 1_555
O8 V3 1.588724 1_555
O9 V17 1.889566 1_455
O9 V4 1.947650 1_555
O9 V5 1.961653 1_555
O10 V4 1.583904 1_555
O11 V6 1.889566 1_555
O11 V4 1.947650 1_555
O11 V3 1.961653 1_556
O12 V5 1.588726 1_555
O13 V8 1.588724 1_555
O14 V7 1.880224 1_555
O14 V3 1.917962 1_555
O14 V5 1.978036 1_555
O15 V10 1.583904 1_555
O16 V5 1.889566 1_555
O16 V7 1.947650 1_555
O16 V9 1.961653 1_555
O17 V4 1.880224 1_555
O17 V9 1.917962 1_555
O17 V6 1.978036 1_555
O18 V11 1.588726 1_555
O19 V2 1.889566 1_545
O19 V7 1.947650 1_555
O19 V6 1.961653 1_554
O20 V16 1.880232 1_565
O20 V11 1.917953 1_555
O20 V8 1.978032 1_555
O21 V1 1.880232 1_545
O21 V6 1.917953 1_555
O21 V9 1.978032 1_555
O22 V15 1.889566 1_565
O22 V10 1.947650 1_555
O22 V11 1.961653 1_556
O23 V6 1.588726 1_555
O24 V13 1.880224 1_555
O24 V8 1.917962 1_555
O24 V11 1.978036 1_555
O25 V12 1.889566 1_555
O25 V10 1.947650 1_555
O25 V8 1.961653 1_555
O26 V7 1.583904 1_555
O27 V10 1.880224 1_555
O27 V14 1.917962 1_555
O27 V12 1.978036 1_555
O28 V9 1.588724 1_555
O29 V12 1.588726 1_555
O30 V11 1.889566 1_555
O30 V13 1.947650 1_555
O30 V14 1.961653 1_554
O31 V13 1.583904 1_555
O32 V0 1.889566 1_655
O32 V13 1.947650 1_555
O32 V12 1.961653 1_555
O33 V14 1.588724 1_555
O34 V15 1.588734 1_555
O35 V1 1.880232 1_655
O35 V12 1.917953 1_555
O35 V14 1.978032 1_555
O36 V16 1.583913 1_555
O37 V17 1.588734 1_555
O38 V10 1.880234 1_545
O38 V17 1.917957 1_555
O38 V15 1.978033 1_555
O39 V8 1.889566 1_545
O39 V16 1.947650 1_555
O39 V17 1.961653 1_555
O40 V4 1.880234 1_655
O40 V15 1.917957 1_555
O40 V17 1.978033 1_555
O41 V3 1.889566 1_655
O41 V16 1.947650 1_555
O41 V15 1.961653 1_554
