# generated using pymatgen
data_Li4Ni3Sn3(SbO8)2
_symmetry_space_group_name_H-M   'P 1'
_cell_length_a   6.11949727
_cell_length_b   6.11949727
_cell_length_c   9.81478910
_cell_angle_alpha   89.89256686
_cell_angle_beta   89.89256686
_cell_angle_gamma   60.40578082
_symmetry_Int_Tables_number   1
_chemical_formula_structural   Li4Ni3Sn3(SbO8)2
_chemical_formula_sum   'Li4 Ni3 Sn3 Sb2 O16'
_cell_volume   319.59750774
_cell_formula_units_Z   1
loop_
 _symmetry_equiv_pos_site_id
 _symmetry_equiv_pos_as_xyz
  1  'x, y, z'
loop_
 _atom_site_type_symbol
 _atom_site_label
 _atom_site_symmetry_multiplicity
 _atom_site_fract_x
 _atom_site_fract_y
 _atom_site_fract_z
 _atom_site_occupancy
  Li  Li0  1  0.33215200  0.33215200  0.10470800  1
  Li  Li1  1  0.01803100  0.01803100  0.02040500  1
  Li  Li2  1  0.01129900  0.01129900  0.50207000  1
  Li  Li3  1  0.66873400  0.66873400  0.58742600  1
  Ni  Ni0  1  0.17076200  0.17076200  0.78539900  1
  Ni  Ni1  1  0.82613700  0.34073900  0.28758600  1
  Ni  Ni2  1  0.34073900  0.82613700  0.28758600  1
  Sn  Sn0  1  0.66031400  0.16779300  0.78651200  1
  Sn  Sn1  1  0.16779300  0.66031400  0.78651200  1
  Sn  Sn2  1  0.82856200  0.82856200  0.28703000  1
  Sb  Sb0  1  0.32741100  0.32741100  0.50645300  1
  Sb  Sb1  1  0.65602100  0.65602100  0.02169600  1
  O  O0  1  0.66227800  0.16712300  0.41156900  1
  O  O1  1  0.48277100  0.48277100  0.65205600  1
  O  O2  1  0.33374500  0.33374500  0.89753800  1
  O  O3  1  0.00129900  0.00129900  0.69129200  1
  O  O4  1  0.99937700  0.99937700  0.20193400  1
  O  O5  1  0.16712300  0.66227800  0.41156900  1
  O  O6  1  0.48186800  0.03958800  0.65295300  1
  O  O7  1  0.03958800  0.48186800  0.65295300  1
  O  O8  1  0.83097600  0.83097600  0.90501900  1
  O  O9  1  0.16879300  0.16879300  0.40633600  1
  O  O10  1  0.96139300  0.51897100  0.14541000  1
  O  O11  1  0.51897100  0.96139300  0.14541000  1
  O  O12  1  0.66657700  0.66657700  0.39188100  1
  O  O13  1  0.82965400  0.33380300  0.90537000  1
  O  O14  1  0.51413000  0.51413000  0.15211700  1
  O  O15  1  0.33380300  0.82965400  0.90537000  1
loop_
_geom_bond_atom_site_label_1
_geom_bond_atom_site_label_2
_geom_bond_distance
_geom_bond_site_symmetry_2
Li0 O14 1.981303 1_555
Li0 O10 2.012623 1_455
Li0 O11 2.012623 1_545
Li0 O2 2.033363 1_554
Li1 O4 1.792136 1_445
Li1 O13 2.033265 1_454
Li1 O15 2.033265 1_544
Li1 O8 2.281895 1_444
Li2 O3 1.859955 1_555
Li2 O9 1.910836 1_555
Li2 O0 2.062128 1_455
Li2 O5 2.062128 1_545
Li3 O12 1.919418 1_555
Li3 O1 2.065472 1_555
Li3 O6 2.076314 1_565
Li3 O7 2.076314 1_655
Ni0 O3 2.018257 1_555
Ni0 O2 2.047349 1_555
Ni0 O6 2.108048 1_555
Ni0 O7 2.108048 1_555
Ni0 O15 2.162717 1_545
Ni0 O13 2.162717 1_455
Ni1 O4 2.002558 1_545
Ni1 O12 2.014450 1_555
Ni1 O14 2.131298 1_555
Ni1 O0 2.158207 1_555
Ni1 O9 2.165131 1_655
Ni1 O10 2.168764 1_555
Ni2 O4 2.002558 1_455
Ni2 O12 2.014450 1_555
Ni2 O14 2.131298 1_555
Ni2 O5 2.158207 1_555
Ni2 O9 2.165131 1_565
Ni2 O11 2.168764 1_555
O0 Sb0 2.009879 1_555
O0 Sn2 2.178187 1_545
O1 Sn1 2.136492 1_555
O1 Sn0 2.136492 1_555
O1 Sb0 2.180123 1_555
O2 Sn1 2.050354 1_555
O2 Sn0 2.050354 1_555
O3 Sn0 2.040098 1_455
O3 Sn1 2.040098 1_545
O4 Sn2 1.988856 1_555
O5 Sb0 2.009879 1_555
O5 Sn2 2.178187 1_455
O6 Sn0 2.093261 1_555
O6 Sb0 2.101049 1_555
O7 Sn1 2.093261 1_555
O7 Sb0 2.101049 1_555
O8 Sn0 2.135725 1_565
O8 Sn1 2.135725 1_655
O8 Sb1 2.174142 1_556
O9 Sb0 1.946198 1_555
O10 Sb1 2.031392 1_555
O10 Sn2 2.160235 1_555
O11 Sb1 2.031392 1_555
O11 Sn2 2.160235 1_555
O12 Sn2 1.996779 1_555
O13 Sb1 2.062781 1_556
O13 Sn0 2.124989 1_555
O14 Sb1 1.970477 1_555
O15 Sb1 2.062781 1_556
O15 Sn1 2.124989 1_555
