# generated using pymatgen
data_Li5Ni5(SnO6)2
_symmetry_space_group_name_H-M   'P 1'
_cell_length_a   5.21174096
_cell_length_b   5.21174096
_cell_length_c   9.94206931
_cell_angle_alpha   84.82528279
_cell_angle_beta   84.82528279
_cell_angle_gamma   120.09874933
_symmetry_Int_Tables_number   1
_chemical_formula_structural   Li5Ni5(SnO6)2
_chemical_formula_sum   'Li5 Ni5 Sn2 O12'
_cell_volume   229.79198759
_cell_formula_units_Z   1
loop_
 _symmetry_equiv_pos_site_id
 _symmetry_equiv_pos_as_xyz
  1  'x, y, z'
loop_
 _atom_site_type_symbol
 _atom_site_label
 _atom_site_symmetry_multiplicity
 _atom_site_fract_x
 _atom_site_fract_y
 _atom_site_fract_z
 _atom_site_occupancy
  Li  Li0  1  0.81529500  0.67974700  0.25184700  1
  Li  Li1  1  0.67684600  0.82647100  0.74467700  1
  Li  Li2  1  0.32025300  0.18470500  0.74815300  1
  Li  Li3  1  0.17352900  0.32315400  0.25532300  1
  Li  Li4  1  0.08640700  0.91359300  0.50000000  1
  Ni  Ni0  1  0.91567300  0.08432700  0.00000000  1
  Ni  Ni1  1  0.00008500  0.50359800  0.74666000  1
  Ni  Ni2  1  0.49640200  0.99991500  0.25334000  1
  Ni  Ni3  1  0.58444300  0.41555700  0.00000000  1
  Ni  Ni4  1  0.41891200  0.58108800  0.50000000  1
  Sn  Sn0  1  0.75235800  0.24764200  0.50000000  1
  Sn  Sn1  1  0.25017900  0.74982100  0.00000000  1
  O  O0  1  0.03603400  0.22323500  0.62557200  1
  O  O1  1  0.77676500  0.96396600  0.37442800  1
  O  O2  1  0.87082900  0.37169600  0.11949000  1
  O  O3  1  0.62830400  0.12917100  0.88051000  1
  O  O4  1  0.69810700  0.52905000  0.61977600  1
  O  O5  1  0.47095000  0.30189300  0.38022400  1
  O  O6  1  0.54242400  0.71965200  0.12016000  1
  O  O7  1  0.28034800  0.45757600  0.87984000  1
  O  O8  1  0.38034700  0.85272600  0.61748200  1
  O  O9  1  0.14727400  0.61965300  0.38251800  1
  O  O10  1  0.21810800  0.03987100  0.12232900  1
  O  O11  1  0.96012900  0.78189200  0.87767100  1
loop_
_geom_bond_atom_site_label_1
_geom_bond_atom_site_label_2
_geom_bond_distance
_geom_bond_site_symmetry_2
Li0 O1 2.073545 1_555
Li0 O5 2.077629 1_555
Li0 O6 2.088833 1_555
Li0 O10 2.170826 1_665
Li0 O2 2.274070 1_555
Li0 O9 2.378020 1_655
Li1 O4 2.109906 1_555
Li1 O0 2.111497 1_665
Li1 O8 2.130523 1_555
Li1 O11 2.150070 1_555
Li1 O7 2.195587 1_555
Li1 O3 2.258215 1_565
Li2 O0 2.073545 1_555
Li2 O4 2.077629 1_555
Li2 O7 2.088833 1_555
Li2 O11 2.170826 1_445
Li2 O3 2.274070 1_555
Li2 O8 2.378020 1_545
Li3 O5 2.109906 1_555
Li3 O1 2.111497 1_445
Li3 O9 2.130523 1_555
Li3 O10 2.150070 1_555
Li3 O6 2.195587 1_555
Li3 O2 2.258215 1_455
Li4 O8 2.134262 1_555
Li4 O9 2.134262 1_555
Li4 O5 2.144047 1_565
Li4 O4 2.144047 1_455
Li4 O0 2.227339 1_565
Li4 O1 2.227339 1_455
Ni0 O7 2.070395 1_654
Ni0 O6 2.070395 1_545
Ni0 O2 2.081091 1_555
Ni0 O3 2.081091 1_554
Ni0 O10 2.162992 1_655
Ni0 O11 2.162992 1_544
Ni1 O0 2.042215 1_555
Ni1 O8 2.095324 1_555
Ni1 O11 2.106741 1_455
Ni1 O7 2.141782 1_555
Ni1 O3 2.146474 1_455
Ni1 O4 2.150171 1_455
Ni2 O1 2.042215 1_555
Ni2 O9 2.095324 1_555
Ni2 O10 2.106741 1_565
Ni2 O6 2.141782 1_555
Ni2 O2 2.146474 1_565
Ni2 O5 2.150171 1_565
Ni3 O3 2.074700 1_554
Ni3 O2 2.074700 1_555
Ni3 O10 2.088112 1_555
Ni3 O11 2.088112 1_554
Ni3 O7 2.151596 1_554
Ni3 O6 2.151596 1_555
Ni4 O8 1.987513 1_555
Ni4 O9 1.987513 1_555
Ni4 O4 2.063739 1_555
Ni4 O5 2.063739 1_555
Ni4 O0 2.101604 1_555
Ni4 O1 2.101604 1_555
O0 Sn0 2.062408 1_455
O1 Sn0 2.062408 1_565
O2 Sn1 2.109483 1_655
O3 Sn1 2.109483 1_546
O4 Sn0 2.078271 1_555
O5 Sn0 2.078271 1_555
O6 Sn1 2.075156 1_555
O7 Sn1 2.075156 1_556
O8 Sn0 2.124839 1_565
O9 Sn0 2.124839 1_455
O10 Sn1 2.083414 1_545
O11 Sn1 2.083414 1_656
