# generated using pymatgen
data_Li9V21O40
_symmetry_space_group_name_H-M   'P 1'
_cell_length_a   10.44772131
_cell_length_b   10.44772131
_cell_length_c   10.44772131
_cell_angle_alpha   99.07533288
_cell_angle_beta   99.07533288
_cell_angle_gamma   133.19897795
_symmetry_Int_Tables_number   1
_chemical_formula_structural   Li9V21O40
_chemical_formula_sum   'Li9 V21 O40'
_cell_volume   762.96700463
_cell_formula_units_Z   1
loop_
 _symmetry_equiv_pos_site_id
 _symmetry_equiv_pos_as_xyz
  1  'x, y, z'
loop_
 _atom_site_type_symbol
 _atom_site_label
 _atom_site_symmetry_multiplicity
 _atom_site_fract_x
 _atom_site_fract_y
 _atom_site_fract_z
 _atom_site_occupancy
  Li  Li0  1  0.04901700  0.14931900  0.70118200  1
  Li  Li1  1  0.85068100  0.55186300  0.89969800  1
  Li  Li2  1  0.39992300  0.19827900  0.59971800  1
  Li  Li3  1  0.19979500  0.60007700  0.79835600  1
  Li  Li4  1  0.44813700  0.34783500  0.29881800  1
  Li  Li5  1  0.25000000  0.75000000  0.50000000  1
  Li  Li6  1  0.80172100  0.40143900  0.20164400  1
  Li  Li7  1  0.59856100  0.80020500  0.40028200  1
  Li  Li8  1  0.65216500  0.95098300  0.10030200  1
  V  V0  1  0.00000000  0.00000000  0.00000000  1
  V  V1  1  0.33212600  0.97562800  0.04908000  1
  V  V2  1  0.52132800  0.57052500  0.85066200  1
  V  V3  1  0.42947500  0.28013700  0.95080200  1
  V  V4  1  0.71695500  0.66787400  0.64350200  1
  V  V5  1  0.12190700  0.87030100  0.74699800  1
  V  V6  1  0.32933500  0.47867200  0.04919800  1
  V  V7  1  0.52383200  0.07817900  0.84905800  1
  V  V8  1  0.92654800  0.28304500  0.95092000  1
  V  V9  1  0.82244400  0.47634600  0.54748800  1
  V  V10  1  0.92182100  0.77087900  0.44565300  1
  V  V11  1  0.72504400  0.17755600  0.65390300  1
  V  V12  1  0.02437200  0.07345200  0.35649800  1
  V  V13  1  0.62509100  0.87809300  0.74839300  1
  V  V14  1  0.71986300  0.67066500  0.14933800  1
  V  V15  1  0.92885900  0.27495600  0.45251200  1
  V  V16  1  0.52365400  0.07114100  0.34609700  1
  V  V17  1  0.12969900  0.87669800  0.25160700  1
  V  V18  1  0.32522600  0.47616800  0.55434700  1
  V  V19  1  0.12330200  0.37490900  0.25300200  1
  V  V20  1  0.22912100  0.67477400  0.15094200  1
  O  O0  1  0.57508400  0.70952200  0.04770900  1
  O  O1  1  0.66181300  0.52737500  0.95229100  1
  O  O2  1  0.29047800  0.33818700  0.86556200  1
  O  O3  1  0.76566700  0.81594700  0.83625900  1
  O  O4  1  0.54989100  0.20045400  0.03997900  1
  O  O5  1  0.18405300  0.02031200  0.94972000  1
  O  O6  1  0.16047600  0.50991300  0.96002100  1
  O  O7  1  0.49008700  0.45010900  0.65056300  1
  O  O8  1  0.58231600  0.72619700  0.56812000  1
  O  O9  1  0.37175000  0.11778400  0.76438400  1
  O  O10  1  0.27380300  0.84192300  0.85611900  1
  O  O11  1  0.95817500  0.89238000  0.64345000  1
  O  O12  1  0.68527600  0.04182500  0.93420600  1
  O  O13  1  0.77814200  0.31221500  0.84450500  1
  O  O14  1  0.86475800  0.61979700  0.72651200  1
  O  O15  1  0.50078200  0.95389100  0.65760400  1
  O  O16  1  0.86175400  0.13524200  0.75503900  1
  O  O17  1  0.24893000  0.31472400  0.35655000  1
  O  O18  1  0.68778500  0.53229000  0.46592700  1
  O  O19  1  0.04610900  0.70371300  0.54689100  1
  O  O20  1  0.59590100  0.23018600  0.54203600  1
  O  O21  1  0.15807700  0.01419600  0.43188000  1
  O  O22  1  0.94613500  0.40409900  0.63428500  1
  O  O23  1  0.79954600  0.83952400  0.34943700  1
  O  O24  1  0.39263400  0.62825000  0.74603400  1
  O  O25  1  0.68815000  0.05386500  0.45796400  1
  O  O26  1  0.97968800  0.92940800  0.16374100  1
  O  O27  1  0.76981400  0.31185000  0.36571500  1
  O  O28  1  0.88221600  0.64660000  0.25396600  1
  O  O29  1  0.47262500  0.42491600  0.13443800  1
  O  O30  1  0.06636300  0.22185800  0.53407300  1
  O  O31  1  0.38020300  0.10671500  0.24496100  1
  O  O32  1  0.29628700  0.84317800  0.34239600  1
  O  O33  1  0.15682200  0.49921800  0.45310900  1
  O  O34  1  0.46771000  0.93363700  0.15549500  1
  O  O35  1  0.10762000  0.75107000  0.06579400  1
  O  O36  1  0.89328500  0.13824600  0.27348800  1
  O  O37  1  0.98580400  0.41768400  0.14388100  1
  O  O38  1  0.35340000  0.60736600  0.23561600  1
  O  O39  1  0.07059200  0.23433300  0.05028000  1
loop_
_geom_bond_atom_site_label_1
_geom_bond_atom_site_label_2
_geom_bond_distance
_geom_bond_site_symmetry_2
Li0 O2 1.989042 1_555
Li0 O30 1.996145 1_555
Li0 O16 2.036045 1_455
Li0 O11 2.071542 1_445
Li1 O1 1.989042 1_555
Li1 O13 1.996145 1_555
Li1 O14 2.036045 1_555
Li1 O35 2.071537 1_656
Li2 O9 2.007709 1_555
Li2 O21 2.010836 1_555
Li2 O7 2.024851 1_555
Li2 O20 2.045687 1_555
Li3 O24 2.007709 1_555
Li3 O10 2.010836 1_555
Li3 O6 2.024841 1_555
Li3 O22 2.045687 1_455
Li4 O29 1.989042 1_555
Li4 O18 1.996145 1_555
Li4 O31 2.036045 1_555
Li4 O17 2.071537 1_555
Li5 O15 2.001304 1_555
Li5 O32 2.001304 1_555
Li5 O19 2.001304 1_555
Li5 O33 2.001304 1_555
Li6 O28 2.007709 1_555
Li6 O37 2.010836 1_555
Li6 O4 2.024846 1_555
Li6 O27 2.045687 1_555
Li7 O38 2.007709 1_555
Li7 O8 2.010836 1_555
Li7 O23 2.024851 1_555
Li7 O25 2.045687 1_565
Li8 O0 1.989042 1_555
Li8 O34 1.996145 1_555
Li8 O36 2.036045 1_565
Li8 O12 2.071532 1_564
O0 V6 1.988955 1_555
O0 V14 2.012517 1_555
O0 V2 2.058651 1_554
O1 V3 1.988952 1_555
O1 V2 2.012509 1_555
O1 V14 2.058648 1_556
O2 V2 1.988956 1_555
O2 V6 2.012513 1_556
O2 V3 2.058648 1_555
O3 V0 1.952899 1_666
O3 V4 2.079401 1_555
O3 V2 2.096545 1_555
O3 V13 2.118871 1_555
O4 V1 1.877491 1_545
O4 V7 2.057557 1_554
O4 V3 2.110139 1_554
O5 V0 1.952899 1_556
O5 V1 2.079396 1_546
O5 V3 2.096549 1_555
O5 V5 2.118868 1_545
O6 V8 1.877504 1_455
O6 V20 2.057556 1_556
O6 V6 2.110147 1_556
O7 V4 1.877501 1_555
O7 V18 2.057548 1_555
O7 V2 2.110130 1_555
O8 V4 1.986373 1_555
O8 V13 2.021417 1_555
O8 V18 2.052450 1_555
O9 V5 1.998545 1_545
O9 V7 2.012615 1_555
O9 V3 2.054491 1_555
O10 V1 1.986364 1_556
O10 V5 2.021425 1_555
O10 V7 2.052450 1_565
O11 V4 1.939321 1_555
O11 V5 2.045723 1_655
O11 V10 2.071461 1_555
O12 V8 1.939321 1_555
O12 V13 2.045735 1_545
O12 V7 2.071473 1_555
O13 V8 1.985707 1_555
O13 V11 1.987898 1_555
O13 V7 2.054905 1_555
O14 V9 1.971736 1_555
O14 V5 2.031960 1_655
O14 V4 2.041047 1_555
O15 V11 1.874319 1_565
O15 V7 2.084641 1_565
O15 V13 2.114243 1_555
O16 V11 1.971732 1_555
O16 V13 2.031956 1_545
O16 V8 2.041052 1_555
O17 V12 1.939321 1_555
O17 V19 2.045740 1_555
O17 V18 2.071465 1_555
O18 V4 1.985694 1_555
O18 V9 1.987906 1_555
O18 V10 2.054905 1_555
O19 V9 1.874323 1_455
O19 V10 2.084641 1_455
O19 V5 2.114247 1_555
O20 V9 1.948604 1_555
O20 V11 2.051779 1_555
O20 V16 2.060059 1_555
O21 V12 1.986364 1_555
O21 V17 2.021412 1_545
O21 V10 2.052450 1_445
O22 V11 1.948609 1_555
O22 V15 2.051779 1_555
O22 V9 2.060046 1_555
O23 V12 1.877496 1_665
O23 V10 2.057548 1_555
O23 V14 2.110135 1_555
O24 V13 1.998549 1_555
O24 V18 2.012615 1_555
O24 V2 2.054499 1_555
O25 V15 1.948609 1_555
O25 V16 2.051770 1_555
O25 V11 2.060055 1_555
O26 V0 1.952899 1_665
O26 V12 2.079396 1_665
O26 V14 2.096549 1_555
O26 V17 2.118863 1_655
O27 V16 1.948605 1_555
O27 V9 2.051773 1_555
O27 V15 2.060055 1_555
O28 V17 1.998544 1_655
O28 V10 2.012615 1_555
O28 V14 2.054491 1_555
O29 V14 1.988952 1_555
O29 V3 2.012517 1_554
O29 V6 2.058639 1_555
O30 V12 1.985699 1_555
O30 V15 1.987898 1_455
O30 V18 2.054905 1_555
O31 V16 1.971740 1_555
O31 V17 2.031961 1_545
O31 V1 2.041056 1_545
O32 V16 1.874323 1_565
O32 V20 2.084641 1_555
O32 V17 2.114252 1_555
O33 V15 1.874319 1_455
O33 V18 2.084641 1_555
O33 V19 2.114243 1_555
O34 V1 1.985699 1_555
O34 V16 1.987894 1_565
O34 V20 2.054905 1_555
O35 V1 1.939321 1_555
O35 V17 2.045745 1_555
O35 V20 2.071465 1_555
O36 V15 1.971732 1_555
O36 V19 2.031956 1_655
O36 V12 2.041056 1_655
O37 V8 1.986368 1_554
O37 V19 2.021417 1_655
O37 V20 2.052450 1_655
O38 V19 1.998549 1_555
O38 V20 2.012615 1_555
O38 V6 2.054495 1_555
O39 V0 1.952899 1_555
O39 V8 2.079388 1_454
O39 V6 2.096546 1_555
O39 V19 2.118871 1_555
