# generated using pymatgen
data_Li4MnV(WO6)2
_symmetry_space_group_name_H-M   'P 1'
_cell_length_a   5.07133431
_cell_length_b   9.74673833
_cell_length_c   9.00676361
_cell_angle_alpha   110.08308374
_cell_angle_beta   89.16012057
_cell_angle_gamma   90.57557951
_symmetry_Int_Tables_number   1
_chemical_formula_structural   Li4MnV(WO6)2
_chemical_formula_sum   'Li8 Mn2 V2 W4 O24'
_cell_volume   418.07437429
_cell_formula_units_Z   2
loop_
 _symmetry_equiv_pos_site_id
 _symmetry_equiv_pos_as_xyz
  1  'x, y, z'
loop_
 _atom_site_type_symbol
 _atom_site_label
 _atom_site_symmetry_multiplicity
 _atom_site_fract_x
 _atom_site_fract_y
 _atom_site_fract_z
 _atom_site_occupancy
  Li  Li0  1  0.99698600  0.43153800  0.13848900  1
  Li  Li1  1  0.99707000  0.93151300  0.63850200  1
  Li  Li2  1  0.51102700  0.93531600  0.15685000  1
  Li  Li3  1  0.51106900  0.43534300  0.65689100  1
  Li  Li4  1  0.99617100  0.16330500  0.38981400  1
  Li  Li5  1  0.99610200  0.66334000  0.88977100  1
  Li  Li6  1  0.49412000  0.69386400  0.39634300  1
  Li  Li7  1  0.49412300  0.19393300  0.89631600  1
  Mn  Mn0  1  0.49971200  0.49887100  0.00186700  1
  Mn  Mn1  1  0.49967000  0.99885100  0.50196100  1
  V  V0  1  0.99477100  0.52401100  0.49817900  1
  V  V1  1  0.99472300  0.02403900  0.99819700  1
  W  W0  1  0.01354900  0.75739700  0.23910400  1
  W  W1  1  0.01357200  0.25745600  0.73911000  1
  W  W2  1  0.49105300  0.26057800  0.26356200  1
  W  W3  1  0.49104500  0.76060800  0.76359400  1
  O  O0  1  0.30161000  0.61561200  0.18698000  1
  O  O1  1  0.30166900  0.11563200  0.68694700  1
  O  O2  1  0.12878700  0.86252700  0.11685400  1
  O  O3  1  0.12876800  0.36259600  0.61687900  1
  O  O4  1  0.29806000  0.11426500  0.05587900  1
  O  O5  1  0.29797800  0.61426900  0.55590300  1
  O  O6  1  0.19412600  0.86133700  0.43184000  1
  O  O7  1  0.19411500  0.36138000  0.93184900  1
  O  O8  1  0.80878600  0.10757500  0.17542200  1
  O  O9  1  0.80871700  0.60753900  0.67539800  1
  O  O10  1  0.37887600  0.11446200  0.34729600  1
  O  O11  1  0.37881400  0.61445900  0.84732900  1
  O  O12  1  0.62866500  0.34493000  0.12105400  1
  O  O13  1  0.62866400  0.84493000  0.62107700  1
  O  O14  1  0.17880700  0.36881500  0.31550500  1
  O  O15  1  0.17879400  0.86880500  0.81554700  1
  O  O16  1  0.81977600  0.61355600  0.07119200  1
  O  O17  1  0.81971800  0.11354900  0.57122200  1
  O  O18  1  0.69550600  0.36410800  0.43668800  1
  O  O19  1  0.69551300  0.86408600  0.93670300  1
  O  O20  1  0.87588700  0.61213400  0.37585800  1
  O  O21  1  0.87589300  0.11218200  0.87591600  1
  O  O22  1  0.69383500  0.86242400  0.31662400  1
  O  O23  1  0.69387500  0.36247900  0.81668600  1
loop_
_geom_bond_atom_site_label_1
_geom_bond_atom_site_label_2
_geom_bond_distance
_geom_bond_site_symmetry_2
Li0 O7 2.004015 1_654
Li0 O12 2.027830 1_555
Li0 O14 2.118890 1_655
Li0 O16 2.260287 1_555
Li0 O0 2.285201 1_655
Li0 O20 2.333463 1_555
Li1 O6 2.003998 1_655
Li1 O13 2.028138 1_555
Li1 O15 2.118813 1_655
Li1 O17 2.260653 1_565
Li1 O1 2.285457 1_665
Li1 O21 2.334144 1_565
Li2 O22 2.046843 1_555
Li2 O2 2.051359 1_555
Li2 O19 2.074161 1_554
Li2 O10 2.091204 1_565
Li2 O8 2.211492 1_565
Li2 O4 2.488295 1_565
Li3 O23 2.046834 1_555
Li3 O3 2.051548 1_555
Li3 O18 2.074473 1_555
Li3 O11 2.091170 1_555
Li3 O9 2.210768 1_555
Li3 O5 2.488483 1_555
Li4 O10 2.002912 1_655
Li4 O17 2.048942 1_555
Li4 O8 2.061522 1_555
Li4 O3 2.386137 1_655
Li4 O18 2.409839 1_555
Li4 O14 2.486616 1_655
Li5 O11 2.002949 1_655
Li5 O16 2.048910 1_556
Li5 O9 2.061333 1_555
Li5 O2 2.385835 1_656
Li5 O19 2.409112 1_555
Li5 O15 2.485912 1_655
Li6 O0 2.035175 1_555
Li6 O20 2.082439 1_555
Li6 O5 2.089225 1_555
Li6 O13 2.168900 1_555
Li6 O6 2.181391 1_555
Li6 O22 2.235146 1_555
Li7 O1 2.035104 1_555
Li7 O21 2.082570 1_555
Li7 O4 2.089491 1_556
Li7 O12 2.168684 1_556
Li7 O7 2.181223 1_555
Li7 O23 2.234659 1_555
Mn0 O0 1.937727 1_555
Mn0 O16 1.946255 1_555
Mn0 O23 1.993506 1_554
Mn0 O7 2.000477 1_554
Mn0 O11 2.167560 1_554
Mn0 O12 2.231092 1_555
Mn1 O1 1.936836 1_565
Mn1 O17 1.946167 1_565
Mn1 O22 1.994486 1_555
Mn1 O6 2.000483 1_555
Mn1 O10 2.168514 1_565
Mn1 O13 2.230534 1_555
O0 W0 1.959376 1_555
O1 W1 1.959747 1_555
O2 W0 1.829701 1_555
O2 V1 2.297990 1_464
O3 W1 1.829576 1_555
O3 V0 2.297356 1_455
O4 V1 1.758463 1_454
O4 W2 2.164306 1_555
O5 V0 1.758060 1_455
O5 W3 2.164615 1_555
O6 W0 1.923174 1_555
O7 W1 1.923077 1_555
O8 V1 1.782906 1_554
O8 W2 2.155981 1_555
O9 V0 1.783163 1_555
O9 W3 2.156178 1_555
O10 W2 1.905097 1_555
O11 W3 1.905464 1_555
O12 W2 1.870126 1_555
O13 W3 1.870010 1_555
O14 W2 1.874082 1_555
O14 V0 2.034785 1_455
O15 W3 1.873919 1_555
O15 V1 2.034922 1_465
O16 W0 1.943750 1_655
O17 W1 1.944133 1_655
O18 W2 1.862930 1_555
O18 V0 2.103191 1_555
O19 W3 1.862746 1_555
O19 V1 2.103305 1_565
O20 V0 1.730533 1_555
O20 W0 2.271935 1_655
O21 V1 1.730281 1_555
O21 W1 2.272398 1_655
O22 W0 1.916653 1_655
O23 W1 1.916649 1_655
