# generated using pymatgen
data_Li2Cr5O12
_symmetry_space_group_name_H-M   'P 1'
_cell_length_a   9.06043800
_cell_length_b   9.10772400
_cell_length_c   12.53342000
_cell_angle_alpha   90.00000000
_cell_angle_beta   90.00000000
_cell_angle_gamma   90.00000000
_symmetry_Int_Tables_number   1
_chemical_formula_structural   Li2Cr5O12
_chemical_formula_sum   'Li8 Cr20 O48'
_cell_volume   1034.25742514
_cell_formula_units_Z   4
loop_
 _symmetry_equiv_pos_site_id
 _symmetry_equiv_pos_as_xyz
  1  'x, y, z'
loop_
 _atom_site_type_symbol
 _atom_site_label
 _atom_site_symmetry_multiplicity
 _atom_site_fract_x
 _atom_site_fract_y
 _atom_site_fract_z
 _atom_site_occupancy
  Li  Li0  1  0.27284600  0.21767500  0.18900000  1
  Li  Li1  1  0.77284600  0.78232500  0.18900000  1
  Li  Li2  1  0.77284600  0.28232500  0.31100000  1
  Li  Li3  1  0.27284600  0.71767500  0.31100000  1
  Li  Li4  1  0.72715400  0.28232500  0.68900000  1
  Li  Li5  1  0.22715400  0.71767500  0.68900000  1
  Li  Li6  1  0.22715400  0.21767500  0.81100000  1
  Li  Li7  1  0.72715400  0.78232500  0.81100000  1
  Cr  Cr0  1  0.25000000  0.46268400  0.00000000  1
  Cr  Cr1  1  0.75000000  0.53731600  0.00000000  1
  Cr  Cr2  1  0.96679400  0.24878100  0.12044500  1
  Cr  Cr3  1  0.46679400  0.75121900  0.12044500  1
  Cr  Cr4  1  0.60425500  0.09965200  0.14244900  1
  Cr  Cr5  1  0.10425500  0.90034800  0.14244900  1
  Cr  Cr6  1  0.10425500  0.40034800  0.35755100  1
  Cr  Cr7  1  0.60425500  0.59965200  0.35755100  1
  Cr  Cr8  1  0.46679400  0.25121900  0.37955500  1
  Cr  Cr9  1  0.96679400  0.74878100  0.37955500  1
  Cr  Cr10  1  0.75000000  0.03731600  0.50000000  1
  Cr  Cr11  1  0.25000000  0.96268400  0.50000000  1
  Cr  Cr12  1  0.03320600  0.25121900  0.62044500  1
  Cr  Cr13  1  0.53320600  0.74878100  0.62044500  1
  Cr  Cr14  1  0.39574500  0.40034800  0.64244900  1
  Cr  Cr15  1  0.89574500  0.59965200  0.64244900  1
  Cr  Cr16  1  0.89574500  0.09965200  0.85755100  1
  Cr  Cr17  1  0.39574500  0.90034800  0.85755100  1
  Cr  Cr18  1  0.53320600  0.24878100  0.87955500  1
  Cr  Cr19  1  0.03320600  0.75121900  0.87955500  1
  O  O0  1  0.56507600  0.14585900  0.01532300  1
  O  O1  1  0.06507600  0.85414100  0.01532300  1
  O  O2  1  0.36899000  0.56479400  0.06555400  1
  O  O3  1  0.86899000  0.43520600  0.06555400  1
  O  O4  1  0.16256100  0.35254700  0.08786800  1
  O  O5  1  0.66256100  0.64745300  0.08786800  1
  O  O6  1  0.10328200  0.08844400  0.16298800  1
  O  O7  1  0.60328200  0.91155600  0.16298800  1
  O  O8  1  0.77529000  0.17358000  0.17470000  1
  O  O9  1  0.27529000  0.82642000  0.17470000  1
  O  O10  1  0.47536000  0.17452400  0.22870000  1
  O  O11  1  0.97536000  0.82547600  0.22870000  1
  O  O12  1  0.97536000  0.32547600  0.27130000  1
  O  O13  1  0.47536000  0.67452400  0.27130000  1
  O  O14  1  0.77529000  0.67358000  0.32530000  1
  O  O15  1  0.27529000  0.32642000  0.32530000  1
  O  O16  1  0.60328200  0.41155600  0.33701200  1
  O  O17  1  0.10328200  0.58844400  0.33701200  1
  O  O18  1  0.66256100  0.14745300  0.41213200  1
  O  O19  1  0.16256100  0.85254700  0.41213200  1
  O  O20  1  0.36899000  0.06479400  0.43444600  1
  O  O21  1  0.86899000  0.93520600  0.43444600  1
  O  O22  1  0.56507600  0.64585900  0.48467700  1
  O  O23  1  0.06507600  0.35414100  0.48467700  1
  O  O24  1  0.43492400  0.35414100  0.51532300  1
  O  O25  1  0.93492400  0.64585900  0.51532300  1
  O  O26  1  0.13101000  0.06479400  0.56555400  1
  O  O27  1  0.63101000  0.93520600  0.56555400  1
  O  O28  1  0.83743900  0.14745300  0.58786800  1
  O  O29  1  0.33743900  0.85254700  0.58786800  1
  O  O30  1  0.89671800  0.41155600  0.66298800  1
  O  O31  1  0.39671800  0.58844400  0.66298800  1
  O  O32  1  0.22471000  0.32642000  0.67470000  1
  O  O33  1  0.72471000  0.67358000  0.67470000  1
  O  O34  1  0.52464000  0.32547600  0.72870000  1
  O  O35  1  0.02464000  0.67452400  0.72870000  1
  O  O36  1  0.02464000  0.17452400  0.77130000  1
  O  O37  1  0.52464000  0.82547600  0.77130000  1
  O  O38  1  0.72471000  0.17358000  0.82530000  1
  O  O39  1  0.22471000  0.82642000  0.82530000  1
  O  O40  1  0.39671800  0.08844400  0.83701200  1
  O  O41  1  0.89671800  0.91155600  0.83701200  1
  O  O42  1  0.33743900  0.35254700  0.91213200  1
  O  O43  1  0.83743900  0.64745300  0.91213200  1
  O  O44  1  0.63101000  0.43520600  0.93444600  1
  O  O45  1  0.13101000  0.56479400  0.93444600  1
  O  O46  1  0.93492400  0.14585900  0.98467700  1
  O  O47  1  0.43492400  0.85414100  0.98467700  1
loop_
_geom_bond_atom_site_label_1
_geom_bond_atom_site_label_2
_geom_bond_distance
_geom_bond_site_symmetry_2
Li0 O10 1.941332 1_555
Li0 O6 1.962628 1_555
Li0 O15 1.974773 1_555
Li0 O4 2.028301 1_555
Li1 O11 1.941332 1_555
Li1 O7 1.962628 1_555
Li1 O14 1.974773 1_555
Li1 O5 2.028301 1_555
Li2 O12 1.941332 1_555
Li2 O16 1.962628 1_555
Li2 O8 1.974773 1_555
Li2 O18 2.028301 1_555
Li3 O13 1.941332 1_555
Li3 O17 1.962628 1_555
Li3 O9 1.974773 1_555
Li3 O19 2.028301 1_555
Li4 O34 1.941332 1_555
Li4 O30 1.962628 1_555
Li4 O38 1.974773 1_555
Li4 O28 2.028301 1_555
Li5 O35 1.941332 1_555
Li5 O31 1.962628 1_555
Li5 O39 1.974773 1_555
Li5 O29 2.028301 1_555
Li6 O36 1.941332 1_555
Li6 O40 1.962628 1_555
Li6 O32 1.974773 1_555
Li6 O42 2.028301 1_555
Li7 O37 1.941332 1_555
Li7 O41 1.962628 1_555
Li7 O33 1.974773 1_555
Li7 O43 2.028301 1_555
Cr0 O2 1.643848 1_555
Cr0 O45 1.643848 1_554
Cr0 O42 1.687209 1_554
Cr0 O4 1.687209 1_555
Cr1 O44 1.643848 1_554
Cr1 O3 1.643848 1_555
Cr1 O43 1.687209 1_554
Cr1 O5 1.687209 1_555
Cr2 O46 1.964088 1_554
Cr2 O8 1.985475 1_555
Cr2 O6 1.986475 1_655
Cr2 O12 2.017128 1_555
Cr2 O3 2.035056 1_555
Cr2 O4 2.050855 1_655
Cr3 O47 1.964088 1_554
Cr3 O9 1.985475 1_555
Cr3 O7 1.986475 1_555
Cr3 O13 2.017128 1_555
Cr3 O2 2.035056 1_555
Cr3 O5 2.050855 1_555
Cr4 O0 1.685763 1_555
Cr4 O10 1.731321 1_555
Cr4 O7 1.732382 1_545
Cr4 O8 1.737287 1_555
Cr5 O1 1.685763 1_555
Cr5 O11 1.731321 1_455
Cr5 O6 1.732382 1_565
Cr5 O9 1.737287 1_555
Cr6 O23 1.685763 1_555
Cr6 O12 1.731321 1_455
Cr6 O17 1.732382 1_555
Cr6 O15 1.737287 1_555
Cr7 O22 1.685763 1_555
Cr7 O13 1.731321 1_555
Cr7 O16 1.732382 1_555
Cr7 O14 1.737287 1_555
Cr8 O24 1.964088 1_555
Cr8 O15 1.985475 1_555
Cr8 O16 1.986475 1_555
Cr8 O10 2.017128 1_555
Cr8 O20 2.035056 1_555
Cr8 O18 2.050855 1_555
Cr9 O25 1.964088 1_555
Cr9 O14 1.985475 1_555
Cr9 O17 1.986475 1_655
Cr9 O11 2.017128 1_555
Cr9 O21 2.035056 1_555
Cr9 O19 2.050855 1_655
Cr10 O27 1.643848 1_545
Cr10 O21 1.643848 1_545
Cr10 O28 1.687209 1_555
Cr10 O18 1.687209 1_555
Cr11 O20 1.643848 1_565
Cr11 O26 1.643848 1_565
Cr11 O29 1.687209 1_555
Cr11 O19 1.687209 1_555
Cr12 O23 1.964088 1_555
Cr12 O32 1.985475 1_555
Cr12 O30 1.986475 1_455
Cr12 O36 2.017128 1_555
Cr12 O26 2.035056 1_555
Cr12 O28 2.050855 1_455
Cr13 O22 1.964088 1_555
Cr13 O33 1.985475 1_555
Cr13 O31 1.986475 1_555
Cr13 O37 2.017128 1_555
Cr13 O27 2.035056 1_555
Cr13 O29 2.050855 1_555
Cr14 O24 1.685763 1_555
Cr14 O34 1.731321 1_555
Cr14 O31 1.732382 1_555
Cr14 O32 1.737287 1_555
Cr15 O25 1.685763 1_555
Cr15 O35 1.731321 1_655
Cr15 O30 1.732382 1_555
Cr15 O33 1.737287 1_555
Cr16 O46 1.685763 1_555
Cr16 O36 1.731321 1_655
Cr16 O41 1.732382 1_545
Cr16 O38 1.737287 1_555
Cr17 O47 1.685763 1_555
Cr17 O37 1.731321 1_555
Cr17 O40 1.732382 1_565
Cr17 O39 1.737287 1_555
Cr18 O0 1.964088 1_556
Cr18 O38 1.985475 1_555
Cr18 O40 1.986475 1_555
Cr18 O34 2.017128 1_555
Cr18 O44 2.035056 1_555
Cr18 O42 2.050855 1_555
Cr19 O1 1.964088 1_556
Cr19 O39 1.985475 1_555
Cr19 O41 1.986475 1_455
Cr19 O35 2.017128 1_555
Cr19 O45 2.035056 1_555
Cr19 O43 2.050855 1_455
