# generated using pymatgen
data_KCeS2
_symmetry_space_group_name_H-M   'P 1'
_cell_length_a   7.72253338
_cell_length_b   7.72253338
_cell_length_c   7.72253298
_cell_angle_alpha   31.83486512
_cell_angle_beta   31.83486512
_cell_angle_gamma   31.83486108
_symmetry_Int_Tables_number   1
_chemical_formula_structural   KCeS2
_chemical_formula_sum   'K1 Ce1 S2'
_cell_volume   113.82073074
_cell_formula_units_Z   1
loop_
 _symmetry_equiv_pos_site_id
 _symmetry_equiv_pos_as_xyz
  1  'x, y, z'
loop_
 _atom_site_type_symbol
 _atom_site_label
 _atom_site_symmetry_multiplicity
 _atom_site_fract_x
 _atom_site_fract_y
 _atom_site_fract_z
 _atom_site_occupancy
  K  K0  1  0.50000000  0.50000000  0.50000000  1
  Ce  Ce0  1  -0.00000000  -0.00000000  0.00000000  1
  S  S0  1  0.73611808  0.73611808  0.73611808  1
  S  S1  1  0.26388192  0.26388192  0.26388192  1
loop_
_geom_bond_atom_site_label_1
_geom_bond_atom_site_label_2
_geom_bond_distance
_geom_bond_site_symmetry_2
K0 S0 3.247255 1_554
K0 S1 3.247255 1_556
K0 S0 3.247256 1_545
K0 S0 3.247256 1_455
K0 S1 3.247256 1_565
K0 S1 3.247256 1_655
Ce0 S1 2.882723 1_554
Ce0 S0 2.882723 1_445
Ce0 S0 2.882723 1_544
Ce0 S1 2.882723 1_545
Ce0 S1 2.882723 1_455
Ce0 S0 2.882723 1_454
