# generated using pymatgen
data_Tb3NbO7
_symmetry_space_group_name_H-M   'P 1'
_cell_length_a   6.48788721
_cell_length_b   6.48788721
_cell_length_c   7.47328767
_cell_angle_alpha   90.00000000
_cell_angle_beta   90.00000000
_cell_angle_gamma   108.75952035
_symmetry_Int_Tables_number   1
_chemical_formula_structural   Tb3NbO7
_chemical_formula_sum   'Tb6 Nb2 O14'
_cell_volume   297.85967777
_cell_formula_units_Z   2
loop_
 _symmetry_equiv_pos_site_id
 _symmetry_equiv_pos_as_xyz
  1  'x, y, z'
loop_
 _atom_site_type_symbol
 _atom_site_label
 _atom_site_symmetry_multiplicity
 _atom_site_fract_x
 _atom_site_fract_y
 _atom_site_fract_z
 _atom_site_occupancy
  Tb  Tb0  1  0.46397373  0.00031484  0.26038406  1
  Tb  Tb1  1  -0.00031484  0.53602627  0.23961594  1
  Tb  Tb2  1  0.46453664  0.46453664  -0.00000000  1
  Tb  Tb3  1  0.53546336  0.53546336  0.50000000  1
  Tb  Tb4  1  0.53602627  -0.00031484  0.76038406  1
  Tb  Tb5  1  0.00031484  0.46397373  0.73961594  1
  Nb  Nb0  1  0.00204416  0.00204416  0.50000000  1
  Nb  Nb1  1  0.99795584  0.99795584  -0.00000000  1
  O  O0  1  0.92845937  0.07154063  0.75000000  1
  O  O1  1  0.63894776  0.36105224  0.75000000  1
  O  O2  1  0.30720752  0.05083393  0.54702605  1
  O  O3  1  0.94916607  0.69279248  0.95297395  1
  O  O4  1  0.62913805  0.37086195  0.25000000  1
  O  O5  1  0.91561864  0.66906718  0.52249329  1
  O  O6  1  0.33093282  0.08438136  0.97750671  1
  O  O7  1  0.08438136  0.33093282  0.02249329  1
  O  O8  1  0.66906718  0.91561864  0.47750671  1
  O  O9  1  0.37086195  0.62913805  0.75000000  1
  O  O10  1  0.69279248  0.94916607  0.04702605  1
  O  O11  1  0.05083393  0.30720752  0.45297395  1
  O  O12  1  0.36105224  0.63894776  0.25000000  1
  O  O13  1  0.07154063  0.92845937  0.25000000  1
loop_
_geom_bond_atom_site_label_1
_geom_bond_atom_site_label_2
_geom_bond_distance
_geom_bond_site_symmetry_2
Nb0 O11 1.934032 1_555
Nb0 O2 1.934032 1_555
Nb0 O0 2.015018 1_455
Nb0 O13 2.015018 1_545
Nb0 O8 2.056821 1_445
Nb0 O5 2.056821 1_445
Nb1 O10 1.934032 1_555
Nb1 O3 1.934032 1_554
Nb1 O0 2.015018 1_564
Nb1 O13 2.015018 1_655
Nb1 O6 2.056821 1_664
Nb1 O7 2.056821 1_665
O0 Tb4 2.437693 1_555
O0 Tb5 2.437693 1_655
O1 Tb5 2.222990 1_655
O1 Tb4 2.222990 1_555
O1 Tb3 2.389660 1_555
O1 Tb2 2.389660 1_556
O2 Tb4 2.274481 1_555
O2 Tb0 2.438266 1_555
O3 Tb5 2.274481 1_655
O3 Tb1 2.438266 1_656
O4 Tb1 2.297145 1_655
O4 Tb0 2.297145 1_555
O4 Tb3 2.327634 1_555
O4 Tb2 2.327634 1_555
O5 Tb5 2.275015 1_655
O5 Tb3 2.342580 1_555
O5 Tb1 2.411309 1_655
O6 Tb4 2.275015 1_555
O6 Tb2 2.342580 1_556
O6 Tb0 2.411309 1_556
O7 Tb1 2.275015 1_555
O7 Tb2 2.342580 1_555
O7 Tb5 2.411309 1_554
O8 Tb0 2.275015 1_565
O8 Tb3 2.342580 1_555
O8 Tb4 2.411309 1_565
O9 Tb4 2.297145 1_565
O9 Tb5 2.297145 1_555
O9 Tb2 2.327634 1_556
O9 Tb3 2.327634 1_555
O10 Tb0 2.274481 1_565
O10 Tb4 2.438266 1_564
O11 Tb1 2.274481 1_555
O11 Tb5 2.438266 1_555
O12 Tb1 2.222990 1_555
O12 Tb0 2.222990 1_565
O12 Tb2 2.389660 1_555
O12 Tb3 2.389660 1_555
O13 Tb1 2.437693 1_555
O13 Tb0 2.437693 1_565
