# generated using pymatgen
data_Li4Ti2Ni3O10
_symmetry_space_group_name_H-M   'P 1'
_cell_length_a   6.52787100
_cell_length_b   7.75764294
_cell_length_c   7.80574425
_cell_angle_alpha   95.60699508
_cell_angle_beta   89.77316499
_cell_angle_gamma   114.41843829
_symmetry_Int_Tables_number   1
_chemical_formula_structural   Li4Ti2Ni3O10
_chemical_formula_sum   'Li8 Ti4 Ni6 O20'
_cell_volume   357.91974261
_cell_formula_units_Z   2
loop_
 _symmetry_equiv_pos_site_id
 _symmetry_equiv_pos_as_xyz
  1  'x, y, z'
loop_
 _atom_site_type_symbol
 _atom_site_label
 _atom_site_symmetry_multiplicity
 _atom_site_fract_x
 _atom_site_fract_y
 _atom_site_fract_z
 _atom_site_occupancy
  Li  Li0  1  0.19077700  0.60523600  0.40114900  1
  Li  Li1  1  0.88774400  0.19591500  0.30194100  1
  Li  Li2  1  0.75195400  0.51005900  0.24761800  1
  Li  Li3  1  0.24804600  0.48994100  0.75238200  1
  Li  Li4  1  0.11225600  0.80408500  0.69805900  1
  Li  Li5  1  0.80922300  0.39476400  0.59885100  1
  Li  Li6  1  0.68188800  0.59967000  0.91322800  1
  Li  Li7  1  0.31811200  0.40033000  0.08677200  1
  Ti  Ti0  1  0.64348600  0.69556200  0.54412400  1
  Ti  Ti1  1  0.35651400  0.30443800  0.45587600  1
  Ti  Ti2  1  0.17223900  0.69074400  0.05071100  1
  Ti  Ti3  1  0.82776100  0.30925600  0.94928900  1
  Ni  Ni0  1  0.04580600  0.90150400  0.34429800  1
  Ni  Ni1  1  0.95419400  0.09849600  0.65570200  1
  Ni  Ni2  1  0.50000000  0.00000000  0.50000000  1
  Ni  Ni3  1  0.00000000  0.00000000  0.00000000  1
  Ni  Ni4  1  0.54535400  0.90253700  0.84879600  1
  Ni  Ni5  1  0.45464600  0.09746300  0.15120400  1
  O  O0  1  0.20806400  0.04180000  0.55089000  1
  O  O1  1  0.08279600  0.32565000  0.53897800  1
  O  O2  1  0.91720400  0.67435000  0.46102200  1
  O  O3  1  0.60450100  0.24148500  0.38305000  1
  O  O4  1  0.79193600  0.95820000  0.44911000  1
  O  O5  1  0.46143200  0.53080600  0.34743700  1
  O  O6  1  0.09046600  0.22373900  0.87263300  1
  O  O7  1  0.30641600  0.84847400  0.27374700  1
  O  O8  1  0.69358400  0.15152600  0.72625300  1
  O  O9  1  0.97130000  0.54298000  0.84565400  1
  O  O10  1  0.53856800  0.46919400  0.65256300  1
  O  O11  1  0.82469700  0.86145800  0.76119000  1
  O  O12  1  0.17530300  0.13854200  0.23881000  1
  O  O13  1  0.39549900  0.75851500  0.61695000  1
  O  O14  1  0.02870000  0.45702000  0.15434600  1
  O  O15  1  0.74223400  0.06786000  0.06104000  1
  O  O16  1  0.90953400  0.77626100  0.12736700  1
  O  O17  1  0.58721900  0.34611500  0.03350300  1
  O  O18  1  0.41278100  0.65388500  0.96649700  1
  O  O19  1  0.25776600  0.93214000  0.93896000  1
loop_
_geom_bond_atom_site_label_1
_geom_bond_atom_site_label_2
_geom_bond_distance
_geom_bond_site_symmetry_2
Li0 O7 2.074232 1_555
Li0 O13 2.085653 1_555
Li0 O5 2.102628 1_555
Li0 O2 2.105049 1_455
Li0 O14 2.174918 1_555
Li0 O1 2.354679 1_555
Li1 O15 2.072198 1_555
Li1 O3 2.105216 1_555
Li1 O4 2.136876 1_545
Li1 O12 2.145974 1_655
Li1 O1 2.157041 1_655
Li1 O14 2.276729 1_655
Li2 O2 2.006363 1_555
Li2 O17 2.008819 1_555
Li2 O5 2.108515 1_555
Li2 O14 2.123360 1_655
Li2 O16 2.195137 1_555
Li2 O3 2.269200 1_555
Li3 O1 2.006363 1_555
Li3 O18 2.008819 1_555
Li3 O10 2.108515 1_555
Li3 O9 2.123360 1_455
Li3 O6 2.195137 1_555
Li3 O13 2.269200 1_555
Li4 O19 2.072198 1_555
Li4 O13 2.105216 1_555
Li4 O0 2.136876 1_565
Li4 O11 2.145974 1_455
Li4 O2 2.157041 1_455
Li4 O9 2.276729 1_455
Li5 O8 2.074232 1_555
Li5 O3 2.085653 1_555
Li5 O10 2.102628 1_555
Li5 O1 2.105049 1_655
Li5 O9 2.174918 1_555
Li5 O2 2.354679 1_555
Li6 O18 2.001666 1_555
Li6 O17 2.117451 1_556
Li6 O9 2.162082 1_555
Li6 O16 2.183583 1_556
Li6 O10 2.206680 1_555
Li6 O11 2.301903 1_555
Li7 O17 2.001666 1_555
Li7 O18 2.117451 1_554
Li7 O14 2.162082 1_555
Li7 O6 2.183583 1_554
Li7 O5 2.206680 1_555
Li7 O12 2.301903 1_555
Ni0 O16 1.891680 1_455
Ni0 O0 1.903778 1_565
Ni0 O2 1.929958 1_455
Ni0 O12 1.944002 1_565
Ni0 O7 1.973233 1_555
Ni0 O4 2.032438 1_455
Ni1 O6 1.891680 1_655
Ni1 O4 1.903778 1_545
Ni1 O1 1.929958 1_655
Ni1 O11 1.944002 1_545
Ni1 O8 1.973233 1_555
Ni1 O0 2.032438 1_655
Ni2 O13 2.020103 1_545
Ni2 O3 2.020103 1_555
Ni2 O0 2.091527 1_555
Ni2 O4 2.091527 1_545
Ni2 O8 2.116964 1_555
Ni2 O7 2.116964 1_545
Ni3 O16 1.958280 1_445
Ni3 O6 1.958280 1_554
Ni3 O19 2.003129 1_544
Ni3 O15 2.003129 1_455
Ni3 O12 2.132605 1_555
Ni3 O11 2.132605 1_444
Ni4 O13 2.048322 1_555
Ni4 O18 2.067293 1_555
Ni4 O15 2.068862 1_566
Ni4 O11 2.079035 1_555
Ni4 O19 2.094487 1_555
Ni4 O8 2.095382 1_565
Ni5 O3 2.048322 1_555
Ni5 O17 2.067293 1_555
Ni5 O19 2.068862 1_544
Ni5 O12 2.079035 1_555
Ni5 O15 2.094487 1_555
Ni5 O7 2.095382 1_545
O0 Ti1 2.073040 1_555
O1 Ti1 1.963048 1_555
O2 Ti0 1.963048 1_555
O3 Ti1 1.942773 1_555
O4 Ti0 2.073040 1_555
O5 Ti1 1.887018 1_555
O5 Ti0 1.943757 1_555
O6 Ti3 2.143357 1_455
O7 Ti2 2.001261 1_555
O8 Ti3 2.001261 1_555
O9 Ti3 1.922453 1_555
O9 Ti2 2.002868 1_656
O10 Ti0 1.887018 1_555
O10 Ti1 1.943757 1_555
O11 Ti0 2.063374 1_555
O12 Ti1 2.063374 1_555
O13 Ti0 1.942773 1_555
O14 Ti2 1.922453 1_555
O14 Ti3 2.002868 1_454
O15 Ti3 2.007586 1_554
O16 Ti2 2.143357 1_655
O17 Ti3 1.818188 1_554
O18 Ti2 1.818188 1_556
O19 Ti2 2.007586 1_556
