# generated using pymatgen
data_Li6V3P8O29
_symmetry_space_group_name_H-M   'P 1'
_cell_length_a   9.79096500
_cell_length_b   9.79865148
_cell_length_c   13.99480694
_cell_angle_alpha   90.40989743
_cell_angle_beta   89.85727633
_cell_angle_gamma   119.91971368
_symmetry_Int_Tables_number   1
_chemical_formula_structural   Li6V3P8O29
_chemical_formula_sum   'Li12 V6 P16 O58'
_cell_volume   1163.66691519
_cell_formula_units_Z   2
loop_
 _symmetry_equiv_pos_site_id
 _symmetry_equiv_pos_as_xyz
  1  'x, y, z'
loop_
 _atom_site_type_symbol
 _atom_site_label
 _atom_site_symmetry_multiplicity
 _atom_site_fract_x
 _atom_site_fract_y
 _atom_site_fract_z
 _atom_site_occupancy
  Li  Li0  1  0.33127700  0.09576900  0.55959800  1
  Li  Li1  1  0.65890700  0.33188500  0.88867700  1
  Li  Li2  1  0.91032900  0.67929500  0.06097700  1
  Li  Li3  1  0.77016500  0.09663200  0.06187000  1
  Li  Li4  1  0.09697700  0.76033100  0.43868200  1
  Li  Li5  1  0.90226100  0.23463000  0.56372700  1
  Li  Li6  1  0.23594800  0.90389000  0.93972800  1
  Li  Li7  1  0.23352100  0.33168800  0.43842000  1
  Li  Li8  1  0.65995200  0.89694100  0.43985400  1
  Li  Li9  1  0.66822100  0.76988900  0.93834300  1
  Li  Li10  1  0.06331700  0.07356800  0.01079500  1
  Li  Li11  1  0.95861100  0.94400700  0.50786800  1
  V  V0  1  0.99835800  0.56336700  0.24970800  1
  V  V1  1  0.00409000  0.43670000  0.75234300  1
  V  V2  1  0.43396000  0.99949100  0.74843700  1
  V  V3  1  0.56587100  0.99816400  0.24912500  1
  V  V4  1  0.43401100  0.43325000  0.24887300  1
  V  V5  1  0.56394400  0.56165500  0.74751000  1
  P  P0  1  0.30832300  0.22177000  0.84140200  1
  P  P1  1  0.31396400  0.08679100  0.34028900  1
  P  P2  1  0.77674300  0.69418200  0.33868600  1
  P  P3  1  0.66769400  0.33276300  0.13000400  1
  P  P4  1  0.66714400  0.33070900  0.63017500  1
  P  P5  1  0.91003500  0.68572100  0.84010900  1
  P  P6  1  0.08425500  0.77242900  0.65479200  1
  P  P7  1  0.77592600  0.09416500  0.84316000  1
  P  P8  1  0.22619000  0.91188200  0.15567000  1
  P  P9  1  0.91184700  0.22824500  0.34637300  1
  P  P10  1  0.08570500  0.30712100  0.16265300  1
  P  P11  1  0.33320400  0.66778200  0.36951100  1
  P  P12  1  0.33499400  0.67002800  0.87105600  1
  P  P13  1  0.22692500  0.30989100  0.65560000  1
  P  P14  1  0.68832100  0.91141100  0.65980000  1
  P  P15  1  0.68463400  0.76942300  0.15379200  1
  O  O0  1  0.22919500  0.22691300  0.56429900  1
  O  O1  1  0.33713600  0.25424000  0.34196700  1
  O  O2  1  0.21374400  0.98722300  0.06559000  1
  O  O3  1  0.34050600  0.08028200  0.84057000  1
  O  O4  1  0.47151200  0.37417700  0.83327000  1
  O  O5  1  0.52049900  0.32556500  0.17641400  1
  O  O6  1  0.61679700  0.54183100  0.33077200  1
  O  O7  1  0.76841700  0.77043400  0.06238600  1
  O  O8  1  0.74488100  0.66771800  0.84312000  1
  O  O9  1  0.51035000  0.18583800  0.66928000  1
  O  O10  1  0.47221200  0.09040400  0.32663300  1
  O  O11  1  0.67045900  0.47893600  0.67891200  1
  O  O12  1  0.66990300  0.33346600  0.02211700  1
  O  O13  1  0.66491300  0.32793800  0.52390300  1
  O  O14  1  0.81385700  0.48976900  0.16746100  1
  O  O15  1  0.62625200  0.10877100  0.82867300  1
  O  O16  1  0.68004000  0.18845700  0.16753900  1
  O  O17  1  0.91553500  0.66052700  0.34106100  1
  O  O18  1  0.99504800  0.79147100  0.74764600  1
  O  O19  1  0.00883600  0.78708600  0.56465600  1
  O  O20  1  0.00377700  0.76874300  0.92845100  1
  O  O21  1  0.89027800  0.51901900  0.82732400  1
  O  O22  1  0.81277700  0.32286000  0.67150500  1
  O  O23  1  0.08202000  0.74205000  0.16147900  1
  O  O24  1  0.90631900  0.38034800  0.32987100  1
  O  O25  1  0.74440000  0.08200400  0.34275600  1
  O  O26  1  0.20615300  0.00203600  0.24761100  1
  O  O27  1  0.22648400  0.99747200  0.42890200  1
  O  O28  1  0.77866300  0.99561900  0.57012700  1
  O  O29  1  0.25336800  0.91721700  0.66064000  1
  O  O30  1  0.08192100  0.61607200  0.66534700  1
  O  O31  1  0.91917700  0.25893500  0.84210700  1
  O  O32  1  0.18850200  0.67745700  0.32833300  1
  O  O33  1  0.07906200  0.45989700  0.16953800  1
  O  O34  1  0.99575500  0.20065000  0.08052600  1
  O  O35  1  0.99563100  0.23047000  0.43760100  1
  O  O36  1  0.00742800  0.20781900  0.25951000  1
  O  O37  1  0.08102100  0.33011400  0.65875800  1
  O  O38  1  0.32993200  0.81653900  0.82975400  1
  O  O39  1  0.38141200  0.91149900  0.16833600  1
  O  O40  1  0.18645300  0.52475800  0.82328500  1
  O  O41  1  0.33408000  0.67282600  0.97720400  1
  O  O42  1  0.33665400  0.67943000  0.47638000  1
  O  O43  1  0.32139900  0.51082200  0.33315800  1
  O  O44  1  0.53387600  0.91704300  0.67045000  1
  O  O45  1  0.48894800  0.81051500  0.32678300  1
  O  O46  1  0.25735800  0.34157300  0.16594900  1
  O  O47  1  0.21155100  0.19782000  0.74312000  1
  O  O48  1  0.20871200  0.21167500  0.92335500  1
  O  O49  1  0.37821200  0.46904400  0.67070200  1
  O  O50  1  0.48441000  0.66928000  0.82963500  1
  O  O51  1  0.52790100  0.62049500  0.16988300  1
  O  O52  1  0.66586600  0.91785100  0.15874500  1
  O  O53  1  0.76669100  0.00250100  0.93181700  1
  O  O54  1  0.79449200  0.00264000  0.75179300  1
  O  O55  1  0.65904300  0.74446700  0.66290500  1
  O  O56  1  0.79126400  0.80220000  0.41995700  1
  O  O57  1  0.80192500  0.79036500  0.24046900  1
loop_
_geom_bond_atom_site_label_1
_geom_bond_atom_site_label_2
_geom_bond_distance
_geom_bond_site_symmetry_2
Li0 O0 1.983511 1_555
Li0 O27 2.079475 1_545
Li0 O29 2.083536 1_545
Li0 O9 2.158591 1_555
Li1 O12 1.870344 1_556
Li1 O15 2.205610 1_555
Li1 O4 2.215758 1_555
Li1 O21 2.258403 1_555
Li2 O7 1.991465 1_555
Li2 O23 2.037263 1_655
Li2 O20 2.063971 1_654
Li2 O14 2.201017 1_555
Li3 O34 1.933613 1_555
Li3 O53 2.027199 1_554
Li3 O52 2.047491 1_545
Li3 O16 2.131106 1_555
Li4 O27 2.022473 1_555
Li4 O19 2.032998 1_555
Li4 O17 2.058798 1_455
Li4 O32 2.132710 1_555
Li5 O35 1.995271 1_555
Li5 O37 2.016843 1_655
Li5 O28 2.032872 1_545
Li5 O22 2.126139 1_555
Li6 O20 1.985381 1_555
Li6 O2 1.992786 1_556
Li6 O3 2.055048 1_565
Li6 O38 2.169765 1_555
Li7 O35 2.025919 1_455
Li7 O0 2.035033 1_555
Li7 O1 2.042965 1_555
Li7 O43 2.124963 1_555
Li8 O56 1.943565 1_555
Li8 O25 2.086247 1_565
Li8 O28 2.115168 1_555
Li8 O45 2.145698 1_555
Li9 O53 1.985794 1_565
Li9 O7 1.994767 1_556
Li9 O8 2.016698 1_555
Li9 O50 2.178884 1_555
Li10 O48 1.857024 1_554
Li10 O34 1.934327 1_455
Li10 O2 2.175105 1_545
Li11 O56 1.960469 1_555
Li11 O19 2.002849 1_655
Li11 O28 2.234727 1_555
O0 P13 1.515659 1_555
O1 P1 1.540224 1_555
O1 V4 2.010124 1_555
O2 P8 1.500972 1_555
O3 P0 1.567499 1_555
O3 V2 1.956670 1_545
O4 P0 1.554755 1_555
O4 V5 2.000459 1_555
O5 P3 1.548683 1_555
O5 V4 1.931452 1_555
O6 P2 1.536104 1_555
O6 V4 1.934378 1_555
O7 P15 1.515335 1_555
O8 P5 1.537156 1_555
O8 V5 2.040611 1_555
O9 P4 1.582504 1_555
O9 V2 1.945027 1_545
O10 P1 1.543477 1_555
O10 V3 1.908464 1_545
O11 P4 1.585785 1_555
O11 V5 1.869044 1_555
O12 P3 1.509975 1_555
O13 P4 1.487326 1_555
O14 P3 1.576546 1_555
O14 V0 1.951177 1_555
O15 P7 1.555719 1_555
O15 V2 1.983517 1_545
O16 P3 1.572071 1_555
O16 V3 1.993699 1_545
O17 P2 1.550455 1_555
O17 V0 1.986456 1_555
O18 P5 1.610716 1_555
O18 P6 1.624735 1_655
O19 P6 1.506700 1_555
O20 P5 1.509676 1_455
O21 P5 1.555117 1_555
O21 V1 1.967790 1_655
O22 P4 1.577266 1_555
O22 V1 1.985179 1_655
O23 P8 1.557717 1_555
O23 V0 1.963736 1_455
O24 P9 1.537214 1_555
O24 V0 1.923103 1_555
O25 P9 1.549059 1_555
O25 V3 2.002701 1_545
O26 P1 1.613405 1_555
O26 P8 1.621669 1_545
O27 P1 1.516554 1_565
O28 P14 1.522943 1_555
O29 P6 1.554577 1_555
O29 V2 1.964869 1_555
O30 P6 1.529029 1_555
O30 V1 1.960114 1_555
O31 P7 1.521629 1_555
O31 V1 1.971002 1_655
O32 P11 1.577074 1_555
O32 V0 1.960315 1_455
O33 P10 1.532826 1_555
O33 V0 1.920829 1_455
O34 P10 1.502120 1_655
O35 P9 1.513406 1_555
O36 P9 1.603526 1_455
O36 P10 1.625207 1_555
O37 P13 1.537498 1_555
O37 V1 2.033156 1_555
O38 P12 1.574969 1_555
O38 V2 1.936012 1_555
O39 P8 1.532379 1_555
O39 V3 1.930721 1_555
O40 P12 1.585677 1_555
O40 V1 1.837916 1_555
O41 P12 1.485665 1_555
O42 P11 1.498327 1_555
O43 P11 1.565051 1_555
O43 V4 2.000377 1_555
O44 P14 1.547227 1_555
O44 V2 1.889800 1_555
O45 P11 1.587076 1_555
O45 V3 1.942237 1_555
O46 P10 1.541055 1_555
O46 V4 1.894834 1_555
O47 P13 1.606924 1_555
O47 P0 1.620093 1_555
O48 P0 1.475195 1_555
O49 P13 1.537278 1_555
O49 V5 1.906679 1_555
O50 P12 1.575642 1_555
O50 V5 1.958801 1_555
O51 P15 1.517952 1_555
O51 V4 1.942885 1_555
O52 P15 1.555292 1_555
O52 V3 1.981382 1_555
O53 P7 1.512848 1_555
O54 P14 1.612564 1_545
O54 P7 1.617830 1_555
O55 P14 1.514317 1_555
O55 V5 1.959257 1_555
O56 P2 1.505845 1_555
O57 P15 1.612652 1_555
O57 P2 1.619690 1_555
