# generated using pymatgen
data_Li2FeO2F
_symmetry_space_group_name_H-M   'P 1'
_cell_length_a   5.16956100
_cell_length_b   5.19022349
_cell_length_c   9.89205612
_cell_angle_alpha   100.18817849
_cell_angle_beta   85.59076288
_cell_angle_gamma   119.31631445
_symmetry_Int_Tables_number   1
_chemical_formula_structural   Li2FeO2F
_chemical_formula_sum   'Li8 Fe4 O8 F4'
_cell_volume   227.76002312
_cell_formula_units_Z   4
loop_
 _symmetry_equiv_pos_site_id
 _symmetry_equiv_pos_as_xyz
  1  'x, y, z'
loop_
 _atom_site_type_symbol
 _atom_site_label
 _atom_site_symmetry_multiplicity
 _atom_site_fract_x
 _atom_site_fract_y
 _atom_site_fract_z
 _atom_site_occupancy
  Li  Li0  1  0.80087000  0.11761600  0.99784800  1
  Li  Li1  1  0.16126700  0.30724900  0.50434700  1
  Li  Li2  1  0.49434800  0.49474700  0.00640800  1
  Li  Li3  1  0.52415100  0.76083700  0.74563800  1
  Li  Li4  1  0.48690000  0.22352700  0.24961300  1
  Li  Li5  1  0.52250800  0.03283400  0.49875200  1
  Li  Li6  1  0.82848000  0.65730500  0.49354300  1
  Li  Li7  1  0.19057200  0.86869000  0.99550100  1
  Fe  Fe0  1  0.78823100  0.39573000  0.75298900  1
  Fe  Fe1  1  0.15912100  0.07901100  0.74974100  1
  Fe  Fe2  1  0.17020800  0.59071000  0.24959800  1
  Fe  Fe3  1  0.85901200  0.96571600  0.24970100  1
  O  O0  1  0.85449100  0.07521200  0.63926500  1
  O  O1  1  0.15890900  0.22271600  0.13334000  1
  O  O2  1  0.49222600  0.13256600  0.86924600  1
  O  O3  1  0.85315000  0.30400200  0.36688700  1
  O  O4  1  0.48617700  0.35779800  0.63305900  1
  O  O5  1  0.50339400  0.85329900  0.13764200  1
  O  O6  1  0.86081200  0.78654800  0.86151500  1
  O  O7  1  0.13902300  0.92985400  0.36155100  1
  F  F0  1  0.16506200  0.45634200  0.87536000  1
  F  F1  1  0.49839800  0.63286000  0.37957000  1
  F  F2  1  0.16630800  0.71224200  0.62475200  1
  F  F3  1  0.83638300  0.54259200  0.12413700  1
loop_
_geom_bond_atom_site_label_1
_geom_bond_atom_site_label_2
_geom_bond_distance
_geom_bond_site_symmetry_2
Li0 O5 2.106510 1_546
Li0 O6 2.122443 1_545
Li0 O2 2.153695 1_555
Li0 O1 2.157285 1_656
Li1 O0 2.029657 1_455
Li1 O4 2.071293 1_555
Li1 O7 2.161218 1_545
Li1 O3 2.164480 1_455
Li2 O5 2.054290 1_555
Li2 O2 2.110574 1_554
Li2 O1 2.114676 1_555
Li2 O6 2.340466 1_554
Li3 O0 2.070825 1_565
Li3 O6 2.094249 1_555
Li3 O4 2.112339 1_555
Li3 O2 2.165864 1_565
Li4 O5 2.078341 1_545
Li4 O7 2.095262 1_545
Li4 O1 2.118737 1_555
Li4 O3 2.120593 1_555
Li5 O4 2.030822 1_555
Li5 O3 2.134201 1_555
Li5 O0 2.194247 1_555
Li5 O7 2.275353 1_545
Li6 O3 2.083319 1_555
Li6 O7 2.095309 1_655
Li6 O4 2.267644 1_555
Li6 O0 2.332118 1_565
Li7 O2 2.020279 1_565
Li7 O6 2.068887 1_455
Li7 O1 2.153173 1_566
Li7 O5 2.261514 1_556
Fe0 O2 1.941158 1_555
Fe0 O4 1.945663 1_555
Fe0 O6 1.988489 1_555
Fe0 O0 1.996752 1_555
Fe1 O0 1.975164 1_455
Fe1 O6 1.985972 1_445
Fe1 O2 2.041588 1_555
Fe1 O4 2.044407 1_555
Fe2 O7 1.977794 1_555
Fe2 O5 1.998147 1_555
Fe2 O1 2.024352 1_555
Fe2 O3 2.043751 1_455
Fe3 O1 1.936852 1_665
Fe3 O3 1.937558 1_565
Fe3 O7 1.984222 1_655
Fe3 O5 1.995746 1_555
F0 Fe1 2.113428 1_555
F0 Li2 2.129209 1_556
F0 Li7 2.204104 1_555
F0 Fe0 2.233141 1_455
F0 Li3 2.251340 1_555
F0 Li0 2.294569 1_455
F1 Li6 2.057210 1_555
F1 Fe2 2.109913 1_555
F1 Li5 2.149059 1_565
F1 Li1 2.222589 1_555
F1 Li4 2.256474 1_555
F1 Fe3 2.318049 1_555
F2 Fe1 2.093651 1_565
F2 Li6 2.132106 1_455
F2 Li3 2.166151 1_555
F2 Li1 2.214307 1_555
F2 Li5 2.256837 1_565
F2 Fe0 2.310776 1_455
F3 Li2 2.080548 1_555
F3 Fe2 2.092456 1_655
F3 Li4 2.235978 1_555
F3 Li0 2.263509 1_554
F3 Fe3 2.277090 1_555
F3 Li7 2.281512 1_654
