# generated using pymatgen
data_Li2Ni(CO3)2
_symmetry_space_group_name_H-M   'P 1'
_cell_length_a   9.55417600
_cell_length_b   7.47275500
_cell_length_c   9.13106333
_cell_angle_alpha   57.85488689
_cell_angle_beta   90.00000000
_cell_angle_gamma   90.00000000
_symmetry_Int_Tables_number   1
_chemical_formula_structural   Li2Ni(CO3)2
_chemical_formula_sum   'Li8 Ni4 C8 O24'
_cell_volume   551.98409357
_cell_formula_units_Z   4
loop_
 _symmetry_equiv_pos_site_id
 _symmetry_equiv_pos_as_xyz
  1  'x, y, z'
loop_
 _atom_site_type_symbol
 _atom_site_label
 _atom_site_symmetry_multiplicity
 _atom_site_fract_x
 _atom_site_fract_y
 _atom_site_fract_z
 _atom_site_occupancy
  Li  Li0  1  0.60626000  0.61894900  0.85435900  1
  Li  Li1  1  0.70719600  0.07440400  0.29575300  1
  Li  Li2  1  0.10626000  0.38105100  0.64564100  1
  Li  Li3  1  0.20719600  0.92559600  0.20424700  1
  Li  Li4  1  0.79280400  0.07440400  0.79575300  1
  Li  Li5  1  0.89374000  0.61894900  0.35435900  1
  Li  Li6  1  0.29280400  0.92559600  0.70424700  1
  Li  Li7  1  0.39374000  0.38105100  0.14564100  1
  Ni  Ni0  1  0.13229600  0.50442200  0.93951200  1
  Ni  Ni1  1  0.63229600  0.49557800  0.56048800  1
  Ni  Ni2  1  0.36770400  0.50442200  0.43951200  1
  Ni  Ni3  1  0.86770400  0.49557800  0.06048800  1
  C  C0  1  0.88371100  0.53585000  0.72447100  1
  C  C1  1  0.38371100  0.46415000  0.77552900  1
  C  C2  1  0.98843400  0.08063400  0.16232500  1
  C  C3  1  0.48843400  0.91936600  0.33767500  1
  C  C4  1  0.51156600  0.08063400  0.66232500  1
  C  C5  1  0.01156600  0.91936600  0.83767500  1
  C  C6  1  0.61628900  0.53585000  0.22447100  1
  C  C7  1  0.11628900  0.46415000  0.27552900  1
  O  O0  1  0.33464900  0.47318200  0.90501400  1
  O  O1  1  0.01785800  0.54080100  0.73766800  1
  O  O2  1  0.79891300  0.53643500  0.83333300  1
  O  O3  1  0.29891300  0.46356500  0.66666700  1
  O  O4  1  0.51785800  0.45919900  0.76233200  1
  O  O5  1  0.83464900  0.52681800  0.59498600  1
  O  O6  1  0.49911100  0.12059100  0.25107800  1
  O  O7  1  0.87383700  0.17453900  0.16294900  1
  O  O8  1  0.09844500  0.18809400  0.07455300  1
  O  O9  1  0.59844500  0.81190600  0.42544700  1
  O  O10  1  0.37383700  0.82546100  0.33705100  1
  O  O11  1  0.99911100  0.87940900  0.24892200  1
  O  O12  1  0.00088900  0.12059100  0.75107800  1
  O  O13  1  0.62616300  0.17453900  0.66294900  1
  O  O14  1  0.40155500  0.18809400  0.57455300  1
  O  O15  1  0.90155500  0.81190600  0.92544700  1
  O  O16  1  0.12616300  0.82546100  0.83705100  1
  O  O17  1  0.50088900  0.87940900  0.74892200  1
  O  O18  1  0.16535100  0.47318200  0.40501400  1
  O  O19  1  0.48214200  0.54080100  0.23766800  1
  O  O20  1  0.70108700  0.53643500  0.33333300  1
  O  O21  1  0.20108700  0.46356500  0.16666700  1
  O  O22  1  0.98214200  0.45919900  0.26233200  1
  O  O23  1  0.66535100  0.52681800  0.09498600  1
loop_
_geom_bond_atom_site_label_1
_geom_bond_atom_site_label_2
_geom_bond_distance
_geom_bond_site_symmetry_2
Li0 O17 1.932529 1_555
Li0 O4 1.977886 1_555
Li0 O2 1.982674 1_555
Li0 O23 2.002654 1_556
Li1 O7 1.897281 1_555
Li1 O9 1.964141 1_545
Li1 O6 2.021923 1_555
Li2 O12 1.932529 1_555
Li2 O1 1.977886 1_555
Li2 O3 1.982674 1_555
Li2 O18 2.002654 1_555
Li3 O10 1.897281 1_555
Li3 O8 1.964141 1_565
Li3 O11 2.021923 1_455
Li4 O13 1.897281 1_555
Li4 O15 1.964141 1_545
Li4 O12 2.021923 1_655
Li5 O11 1.932529 1_555
Li5 O22 1.977886 1_555
Li5 O20 1.982674 1_555
Li5 O5 2.002654 1_555
Li6 O16 1.897281 1_555
Li6 O14 1.964141 1_565
Li6 O17 2.021923 1_555
Li7 O6 1.932529 1_555
Li7 O19 1.977886 1_555
Li7 O21 1.982674 1_555
Li7 O0 2.002654 1_554
Ni0 O0 1.992408 1_555
Ni0 O8 2.027584 1_556
Ni0 O1 2.032980 1_555
Ni0 O21 2.038005 1_556
Ni0 O16 2.060516 1_555
Ni1 O5 1.992408 1_555
Ni1 O9 2.027584 1_555
Ni1 O4 2.032980 1_555
Ni1 O20 2.038005 1_555
Ni1 O13 2.060516 1_555
Ni2 O18 1.992408 1_555
Ni2 O14 2.027584 1_555
Ni2 O19 2.032980 1_555
Ni2 O3 2.038005 1_555
Ni2 O10 2.060516 1_555
Ni3 O23 1.992408 1_555
Ni3 O15 2.027584 1_554
Ni3 O22 2.032980 1_555
Ni3 O2 2.038005 1_554
Ni3 O7 2.060516 1_555
C0 O2 1.284178 1_555
C0 O1 1.289689 1_655
C0 O5 1.306566 1_555
C1 O3 1.284178 1_555
C1 O4 1.289689 1_555
C1 O0 1.306566 1_555
C2 O11 1.277306 1_545
C2 O7 1.302103 1_555
C2 O8 1.306541 1_655
C3 O6 1.277306 1_565
C3 O10 1.302103 1_555
C3 O9 1.306541 1_555
C4 O17 1.277306 1_545
C4 O13 1.302103 1_555
C4 O14 1.306541 1_555
C5 O12 1.277306 1_565
C5 O16 1.302103 1_555
C5 O15 1.306541 1_455
C6 O20 1.284178 1_555
C6 O19 1.289689 1_555
C6 O23 1.306566 1_555
C7 O21 1.284178 1_555
C7 O22 1.289689 1_455
C7 O18 1.306566 1_555
