# generated using pymatgen
data_LiVPO4
_symmetry_space_group_name_H-M   'P 1'
_cell_length_a   4.95878410
_cell_length_b   9.90824100
_cell_length_c   7.21652866
_cell_angle_alpha   90.00007495
_cell_angle_beta   90.47517999
_cell_angle_gamma   89.99979182
_symmetry_Int_Tables_number   1
_chemical_formula_structural   LiVPO4
_chemical_formula_sum   'Li4 V4 P4 O16'
_cell_volume   354.55626699
_cell_formula_units_Z   4
loop_
 _symmetry_equiv_pos_site_id
 _symmetry_equiv_pos_as_xyz
  1  'x, y, z'
loop_
 _atom_site_type_symbol
 _atom_site_label
 _atom_site_symmetry_multiplicity
 _atom_site_fract_x
 _atom_site_fract_y
 _atom_site_fract_z
 _atom_site_occupancy
  Li  Li0  1  0.20023000  0.17009900  0.51274100  1
  Li  Li1  1  0.29981700  0.67004500  0.98724400  1
  Li  Li2  1  0.70022300  0.32989600  0.01273000  1
  Li  Li3  1  0.79981600  0.82994800  0.48723700  1
  V  V0  1  0.27049400  0.61428300  0.48426200  1
  V  V1  1  0.77049600  0.88571400  0.98423900  1
  V  V2  1  0.22945400  0.11427000  0.01580300  1
  V  V3  1  0.72941800  0.38574800  0.51575700  1
  P  P0  1  0.19238100  0.40469700  0.23248000  1
  P  P1  1  0.30763100  0.90469200  0.26750900  1
  P  P2  1  0.69239400  0.09530800  0.73248500  1
  P  P3  1  0.80762300  0.59530300  0.76751000  1
  O  O0  1  0.11304500  0.62677700  0.75987900  1
  O  O1  1  0.38697200  0.12683700  0.74014300  1
  O  O2  1  0.61305300  0.87322300  0.25986900  1
  O  O3  1  0.88695800  0.37316900  0.24012100  1
  O  O4  1  0.19731300  0.87983800  0.06019900  1
  O  O5  1  0.30267500  0.37982000  0.43978700  1
  O  O6  1  0.69731600  0.62016600  0.56019700  1
  O  O7  1  0.80269500  0.12017000  0.93979900  1
  O  O8  1  0.17268700  0.81449100  0.41293900  1
  O  O9  1  0.32736100  0.31449000  0.08704300  1
  O  O10  1  0.67267600  0.68549900  0.91294300  1
  O  O11  1  0.82737100  0.18551900  0.58705100  1
  O  O12  1  0.24733500  0.05605000  0.30112800  1
  O  O13  1  0.25262400  0.55604200  0.19890300  1
  O  O14  1  0.74733300  0.44394400  0.80111000  1
  O  O15  1  0.75261100  0.94396000  0.69889200  1
loop_
_geom_bond_atom_site_label_1
_geom_bond_atom_site_label_2
_geom_bond_distance
_geom_bond_site_symmetry_2
Li0 O12 1.915593 1_555
Li0 O1 1.925900 1_555
Li0 O11 1.935431 1_455
Li0 O5 2.204004 1_555
Li1 O13 1.915649 1_556
Li1 O0 1.925758 1_555
Li1 O10 1.935441 1_555
Li1 O4 2.204741 1_556
Li2 O14 1.915634 1_554
Li2 O3 1.925841 1_555
Li2 O9 1.935442 1_555
Li2 O7 2.204037 1_554
Li3 O15 1.915683 1_555
Li3 O2 1.925770 1_555
Li3 O8 1.935492 1_655
Li3 O6 2.204647 1_555
O0 P3 1.547723 1_455
O0 V0 2.146340 1_555
O1 P2 1.547839 1_555
O1 V2 2.146798 1_556
O2 P1 1.547714 1_555
O2 V1 2.146415 1_554
O3 P0 1.547839 1_655
O3 V3 2.146683 1_555
O4 P1 1.607643 1_555
O4 V1 2.182699 1_454
O4 V2 2.350392 1_565
O5 P0 1.607618 1_555
O5 V3 2.182376 1_555
O5 V0 2.350785 1_555
O6 P3 1.607659 1_555
O6 V0 2.182682 1_555
O6 V3 2.350283 1_555
O7 P2 1.607654 1_555
O7 V2 2.182505 1_656
O7 V1 2.350690 1_545
O8 P1 1.536111 1_555
O8 V0 2.105019 1_555
O9 P0 1.536255 1_555
O9 V2 2.105101 1_555
O10 P3 1.536099 1_555
O10 V1 2.105054 1_555
O11 P2 1.536261 1_555
O11 V3 2.105330 1_555
O12 P1 1.548720 1_545
O12 V2 2.139466 1_555
O13 P0 1.548499 1_555
O13 V0 2.139755 1_555
O14 P3 1.548704 1_555
O14 V3 2.139600 1_555
O15 P2 1.548518 1_565
O15 V1 2.139689 1_555
