# generated using pymatgen
data_La8Mn7O24
_symmetry_space_group_name_H-M   'P 1'
_cell_length_a   7.86582000
_cell_length_b   7.87100332
_cell_length_c   9.45134052
_cell_angle_alpha   113.28690493
_cell_angle_beta   113.34883776
_cell_angle_gamma   90.92617006
_symmetry_Int_Tables_number   1
_chemical_formula_structural   La8Mn7O24
_chemical_formula_sum   'La8 Mn7 O24'
_cell_volume   482.99095717
_cell_formula_units_Z   1
loop_
 _symmetry_equiv_pos_site_id
 _symmetry_equiv_pos_as_xyz
  1  'x, y, z'
loop_
 _atom_site_type_symbol
 _atom_site_label
 _atom_site_symmetry_multiplicity
 _atom_site_fract_x
 _atom_site_fract_y
 _atom_site_fract_z
 _atom_site_occupancy
  La  La0  1  0.86236400  0.38465300  0.24293200  1
  La  La1  1  0.62003100  0.13818500  0.76024800  1
  La  La2  1  0.61573500  0.61347900  0.76528000  1
  La  La3  1  0.85928700  0.86287200  0.24492900  1
  La  La4  1  0.37996900  0.86181500  0.23975200  1
  La  La5  1  0.13763600  0.61534700  0.75706800  1
  La  La6  1  0.14071300  0.13712800  0.75507100  1
  La  La7  1  0.38426500  0.38652100  0.23472000  1
  Mn  Mn0  1  0.50000000  0.00000000  0.00000000  1
  Mn  Mn1  1  0.75026400  0.25084800  0.49996800  1
  Mn  Mn2  1  0.75572200  0.75506600  0.51133400  1
  Mn  Mn3  1  0.00000000  0.50000000  0.00000000  1
  Mn  Mn4  1  0.24973600  0.74915200  0.50003100  1
  Mn  Mn5  1  0.24427800  0.24493400  0.48866600  1
  Mn  Mn6  1  0.00000000  0.00000000  0.00000000  1
  O  O0  1  0.94775800  0.73506600  0.96788900  1
  O  O1  1  0.90935900  0.34300400  0.74828000  1
  O  O2  1  0.84026100  0.91754800  0.75620100  1
  O  O3  1  0.75150900  0.45603300  0.97503200  1
  O  O4  1  0.97948000  0.19655600  0.46054200  1
  O  O5  1  0.80430500  0.51812900  0.53773000  1
  O  O6  1  0.70385400  0.98595800  0.46820900  1
  O  O7  1  0.45855700  0.21972900  0.96814200  1
  O  O8  1  0.40575600  0.83691900  0.74845400  1
  O  O9  1  0.76770700  0.05208300  0.03303500  1
  O  O10  1  0.66623900  0.61354800  0.27347100  1
  O  O11  1  0.51809300  0.29610800  0.53330600  1
  O  O12  1  0.33376100  0.38645200  0.72652900  1
  O  O13  1  0.48190700  0.70389200  0.46669400  1
  O  O14  1  0.23229300  0.94791700  0.96696500  1
  O  O15  1  0.59424400  0.16308100  0.25154600  1
  O  O16  1  0.29614600  0.01404200  0.53179100  1
  O  O17  1  0.54144300  0.78027100  0.03185800  1
  O  O18  1  0.19569500  0.48187100  0.46227000  1
  O  O19  1  0.24849100  0.54396700  0.02496800  1
  O  O20  1  0.02052000  0.80344400  0.53945800  1
  O  O21  1  0.15973900  0.08245200  0.24379900  1
  O  O22  1  0.09064100  0.65699600  0.25172000  1
  O  O23  1  0.05224200  0.26493400  0.03211100  1
loop_
_geom_bond_atom_site_label_1
_geom_bond_atom_site_label_2
_geom_bond_distance
_geom_bond_site_symmetry_2
La0 O10 2.395977 1_555
La0 O9 2.449957 1_555
La0 O18 2.475891 1_655
La0 O3 2.622526 1_554
La0 O22 2.728128 1_655
La0 O15 2.761415 1_555
La0 O5 2.790174 1_555
La0 O23 2.829964 1_655
La0 O4 2.867131 1_555
La1 O3 2.384552 1_555
La1 O16 2.449169 1_555
La1 O2 2.472942 1_545
La1 O7 2.625512 1_555
La1 O9 2.736571 1_556
La1 O11 2.750572 1_555
La1 O8 2.826472 1_545
La1 O1 2.832077 1_555
La1 O6 2.888258 1_545
La1 O12 3.009370 1_555
La1 O23 3.177222 1_656
La1 O13 3.248825 1_545
La2 O0 2.430949 1_555
La2 O11 2.431003 1_555
La2 O8 2.439901 1_555
La2 O3 2.629344 1_555
La2 O12 2.637633 1_555
La2 O17 2.643771 1_556
La3 O17 2.376987 1_555
La3 O22 2.454912 1_655
La3 O4 2.470920 1_565
La3 O10 2.622330 1_555
La3 O6 2.711752 1_555
La3 O0 2.781469 1_554
La3 O20 2.797588 1_655
La3 O9 2.827894 1_565
La3 O21 2.911174 1_665
La3 O3 3.036359 1_554
La3 O15 3.174822 1_565
La3 O16 3.241411 1_665
La4 O19 2.384552 1_555
La4 O6 2.449169 1_555
La4 O21 2.472942 1_565
La4 O17 2.625512 1_555
La4 O14 2.736571 1_554
La4 O13 2.750572 1_555
La4 O15 2.826472 1_565
La4 O22 2.832077 1_555
La4 O16 2.888258 1_565
La4 O10 3.009370 1_555
La4 O0 3.177222 1_454
La4 O11 3.248825 1_565
La5 O12 2.395977 1_555
La5 O14 2.449957 1_555
La5 O5 2.475891 1_455
La5 O19 2.622526 1_556
La5 O1 2.728128 1_455
La5 O8 2.761415 1_555
La5 O18 2.790174 1_555
La5 O0 2.829964 1_455
La5 O20 2.867131 1_555
La6 O7 2.376987 1_555
La6 O1 2.454912 1_455
La6 O20 2.470920 1_545
La6 O12 2.622330 1_555
La6 O16 2.711752 1_555
La6 O23 2.781469 1_556
La6 O4 2.797588 1_455
La6 O14 2.827894 1_545
La6 O2 2.911174 1_445
La6 O19 3.036359 1_556
La6 O8 3.174822 1_545
La6 O6 3.241411 1_445
La7 O23 2.430949 1_555
La7 O13 2.431003 1_555
La7 O15 2.439901 1_555
La7 O19 2.629344 1_555
La7 O10 2.637633 1_555
La7 O7 2.643771 1_554
Mn0 O17 1.881547 1_545
Mn0 O7 1.881547 1_554
Mn0 O15 2.002196 1_555
Mn0 O8 2.002196 1_544
Mn0 O14 2.012314 1_544
Mn0 O9 2.012314 1_555
Mn1 O1 1.974015 1_555
Mn1 O15 1.975398 1_555
Mn1 O11 1.987371 1_555
Mn1 O6 1.991003 1_545
Mn1 O5 1.997770 1_555
Mn1 O4 2.000928 1_555
Mn2 O10 1.879001 1_555
Mn2 O2 1.961194 1_555
Mn2 O5 2.000395 1_555
Mn2 O20 2.002352 1_655
Mn2 O13 2.023936 1_555
Mn2 O6 2.028098 1_555
Mn3 O19 1.882500 1_555
Mn3 O3 1.882500 1_454
Mn3 O22 1.999479 1_555
Mn3 O1 1.999479 1_454
Mn3 O23 2.013438 1_555
Mn3 O0 2.013438 1_454
Mn4 O22 1.974007 1_555
Mn4 O8 1.975406 1_555
Mn4 O13 1.987366 1_555
Mn4 O16 1.991000 1_565
Mn4 O18 1.997773 1_555
Mn4 O20 2.000933 1_555
Mn5 O12 1.879001 1_555
Mn5 O21 1.961194 1_555
Mn5 O18 2.000395 1_555
Mn5 O4 2.002352 1_455
Mn5 O11 2.023936 1_555
Mn5 O16 2.028098 1_555
Mn6 O21 1.950830 1_555
Mn6 O2 1.950830 1_444
Mn6 O9 1.994824 1_455
Mn6 O14 1.994824 1_544
Mn6 O23 1.995615 1_555
Mn6 O0 1.995615 1_444
