# generated using pymatgen
data_Li(BiO2)3
_symmetry_space_group_name_H-M   'P 1'
_cell_length_a   9.35148261
_cell_length_b   9.35148261
_cell_length_c   9.35148261
_cell_angle_alpha   109.47122063
_cell_angle_beta   109.47122063
_cell_angle_gamma   109.47122063
_symmetry_Int_Tables_number   1
_chemical_formula_structural   Li(BiO2)3
_chemical_formula_sum   'Li4 Bi12 O24'
_cell_volume   629.53447824
_cell_formula_units_Z   4
loop_
 _symmetry_equiv_pos_site_id
 _symmetry_equiv_pos_as_xyz
  1  'x, y, z'
loop_
 _atom_site_type_symbol
 _atom_site_label
 _atom_site_symmetry_multiplicity
 _atom_site_fract_x
 _atom_site_fract_y
 _atom_site_fract_z
 _atom_site_occupancy
  Li  Li0  1  0.96891300  0.50000000  0.00000000  1
  Li  Li1  1  0.50000000  0.00000000  0.96891300  1
  Li  Li2  1  0.53108700  0.53108700  0.53108700  1
  Li  Li3  1  0.00000000  0.96891300  0.50000000  1
  Bi  Bi0  1  0.96344500  0.25000000  0.21344500  1
  Bi  Bi1  1  0.78687000  0.03687000  0.75000000  1
  Bi  Bi2  1  0.71313000  0.46313000  0.25000000  1
  Bi  Bi3  1  0.75000000  0.28655500  0.53655500  1
  Bi  Bi4  1  0.75000000  0.78687000  0.03687000  1
  Bi  Bi5  1  0.46313000  0.25000000  0.71313000  1
  Bi  Bi6  1  0.53655500  0.75000000  0.28655500  1
  Bi  Bi7  1  0.25000000  0.71313000  0.46313000  1
  Bi  Bi8  1  0.25000000  0.21344500  0.96344500  1
  Bi  Bi9  1  0.21344500  0.96344500  0.25000000  1
  Bi  Bi10  1  0.28655500  0.53655500  0.75000000  1
  Bi  Bi11  1  0.03687000  0.75000000  0.78687000  1
  O  O0  1  0.02611900  0.05719100  0.25960300  1
  O  O1  1  0.73348400  0.03107200  0.47388100  1
  O  O2  1  0.76651600  0.24039700  0.29758800  1
  O  O3  1  0.00516400  0.96728900  0.72446800  1
  O  O4  1  0.49483600  0.21930400  0.96212500  1
  O  O5  1  0.75717900  0.53271100  0.53787500  1
  O  O6  1  0.74282100  0.28069600  0.77553200  1
  O  O7  1  0.44280900  0.46892800  0.20241200  1
  O  O8  1  0.46892800  0.20241200  0.44280900  1
  O  O9  1  0.77553200  0.74282100  0.28069600  1
  O  O10  1  0.72446800  0.00516400  0.96728900  1
  O  O11  1  0.21930400  0.96212500  0.49483600  1
  O  O12  1  0.47388100  0.73348400  0.03107200  1
  O  O13  1  0.20241200  0.44280900  0.46892800  1
  O  O14  1  0.29758800  0.76651600  0.24039700  1
  O  O15  1  0.53271100  0.53787500  0.75717900  1
  O  O16  1  0.53787500  0.75717900  0.53271100  1
  O  O17  1  0.96212500  0.49483600  0.21930400  1
  O  O18  1  0.24039700  0.29758800  0.76651600  1
  O  O19  1  0.25960300  0.02611900  0.05719100  1
  O  O20  1  0.05719100  0.25960300  0.02611900  1
  O  O21  1  0.03107200  0.47388100  0.73348400  1
  O  O22  1  0.28069600  0.77553200  0.74282100  1
  O  O23  1  0.96728900  0.72446800  0.00516400  1
loop_
_geom_bond_atom_site_label_1
_geom_bond_atom_site_label_2
_geom_bond_distance
_geom_bond_site_symmetry_2
Li0 O17 2.088775 1_555
Li0 O6 2.088775 1_554
Li0 O23 2.088775 1_555
Li1 O4 2.088775 1_555
Li1 O10 2.088775 1_555
Li1 O22 2.088775 1_545
Li2 O5 2.088775 1_555
Li2 O16 2.088775 1_555
Li2 O15 2.088775 1_555
Li3 O11 2.088775 1_555
Li3 O9 2.088775 1_455
Li3 O3 2.088775 1_555
Bi0 O0 2.198981 1_655
Bi0 O13 2.198981 1_655
Bi0 O20 2.218451 1_655
Bi0 O2 2.218451 1_555
Bi0 O17 2.276179 1_555
Bi0 O10 2.276179 1_554
Bi1 O16 2.373641 1_545
Bi1 O10 2.373641 1_555
Bi1 O6 2.398852 1_555
Bi1 O3 2.398852 1_645
Bi1 O1 2.439007 1_555
Bi1 O20 2.439007 1_656
Bi2 O17 2.373641 1_555
Bi2 O9 2.373641 1_555
Bi2 O5 2.398852 1_555
Bi2 O4 2.398852 1_554
Bi2 O2 2.439007 1_555
Bi2 O7 2.439007 1_555
Bi3 O2 2.198981 1_555
Bi3 O1 2.198981 1_555
Bi3 O8 2.218451 1_555
Bi3 O21 2.218451 1_655
Bi3 O6 2.276179 1_555
Bi3 O5 2.276179 1_555
Bi4 O23 2.373641 1_555
Bi4 O15 2.373641 1_554
Bi4 O10 2.398852 1_564
Bi4 O9 2.398852 1_555
Bi4 O12 2.439007 1_555
Bi4 O0 2.439007 1_665
Bi5 O4 2.373641 1_555
Bi5 O6 2.373641 1_555
Bi5 O15 2.398852 1_555
Bi5 O11 2.398852 1_545
Bi5 O18 2.439007 1_555
Bi5 O8 2.439007 1_555
Bi6 O14 2.198981 1_555
Bi6 O12 2.198981 1_555
Bi6 O7 2.218451 1_555
Bi6 O1 2.218451 1_565
Bi6 O9 2.276179 1_555
Bi6 O16 2.276179 1_555
Bi7 O11 2.373641 1_555
Bi7 O22 2.373641 1_555
Bi7 O16 2.398852 1_555
Bi7 O17 2.398852 1_455
Bi7 O14 2.439007 1_555
Bi7 O13 2.439007 1_555
Bi8 O20 2.198981 1_556
Bi8 O7 2.198981 1_556
Bi8 O19 2.218451 1_556
Bi8 O18 2.218451 1_555
Bi8 O4 2.276179 1_555
Bi8 O3 2.276179 1_545
Bi9 O19 2.198981 1_565
Bi9 O8 2.198981 1_565
Bi9 O0 2.218451 1_565
Bi9 O14 2.218451 1_555
Bi9 O23 2.276179 1_455
Bi9 O11 2.276179 1_555
Bi10 O18 2.198981 1_555
Bi10 O21 2.198981 1_555
Bi10 O13 2.218451 1_555
Bi10 O12 2.218451 1_556
Bi10 O22 2.276179 1_555
Bi10 O15 2.276179 1_555
Bi11 O3 2.373641 1_555
Bi11 O5 2.373641 1_455
Bi11 O23 2.398852 1_456
Bi11 O22 2.398852 1_555
Bi11 O19 2.439007 1_566
Bi11 O21 2.439007 1_555
