# generated using pymatgen
data_Na3VAsCO7
_symmetry_space_group_name_H-M   'P 1'
_cell_length_a   5.31421396
_cell_length_b   9.15789683
_cell_length_c   14.01123800
_cell_angle_alpha   90.00039574
_cell_angle_beta   90.00182960
_cell_angle_gamma   88.44604533
_symmetry_Int_Tables_number   1
_chemical_formula_structural   Na3VAsCO7
_chemical_formula_sum   'Na12 V4 As4 C4 O28'
_cell_volume   681.63446832
_cell_formula_units_Z   4
loop_
 _symmetry_equiv_pos_site_id
 _symmetry_equiv_pos_as_xyz
  1  'x, y, z'
loop_
 _atom_site_type_symbol
 _atom_site_label
 _atom_site_symmetry_multiplicity
 _atom_site_fract_x
 _atom_site_fract_y
 _atom_site_fract_z
 _atom_site_occupancy
  Na  Na0  1  0.76734100  0.08076300  0.12501200  1
  Na  Na1  1  0.76742000  0.08073400  0.62499300  1
  Na  Na2  1  0.23266900  0.91923700  0.37499000  1
  Na  Na3  1  0.23260400  0.91927000  0.87500900  1
  Na  Na4  1  0.25186200  0.26295900  0.00414600  1
  Na  Na5  1  0.25178900  0.26296100  0.50406800  1
  Na  Na6  1  0.25186400  0.26290600  0.24589700  1
  Na  Na7  1  0.25183300  0.26296600  0.74590700  1
  Na  Na8  1  0.74814100  0.73710100  0.25411000  1
  Na  Na9  1  0.74821900  0.73704000  0.75409800  1
  Na  Na10  1  0.74816600  0.73704300  0.49586000  1
  Na  Na11  1  0.74820700  0.73706700  0.99594200  1
  V  V0  1  0.78052800  0.33795200  0.87501700  1
  V  V1  1  0.21949700  0.66205600  0.62498500  1
  V  V2  1  0.78042200  0.33788300  0.37496600  1
  V  V3  1  0.21947900  0.66209100  0.12500400  1
  As  As0  1  0.70805300  0.41438600  0.12500800  1
  As  As1  1  0.70811800  0.41436600  0.62499600  1
  As  As2  1  0.29191200  0.58561300  0.37498400  1
  As  As3  1  0.29190000  0.58564000  0.87500100  1
  C  C0  1  0.71615600  0.05513400  0.37498300  1
  C  C1  1  0.71611600  0.05518400  0.87501000  1
  C  C2  1  0.28383400  0.94484100  0.12501500  1
  C  C3  1  0.28390600  0.94481900  0.62499900  1
  O  O0  1  0.30841100  0.08466600  0.12500700  1
  O  O1  1  0.30847200  0.08463600  0.62494400  1
  O  O2  1  0.69158000  0.91531200  0.37501100  1
  O  O3  1  0.69154800  0.91536700  0.87505900  1
  O  O4  1  0.93841200  0.11295600  0.37496500  1
  O  O5  1  0.93839300  0.11299000  0.87498100  1
  O  O6  1  0.06156900  0.88702400  0.12502200  1
  O  O7  1  0.06162800  0.88701400  0.62503200  1
  O  O8  1  0.51917400  0.14428100  0.37496300  1
  O  O9  1  0.51912900  0.14433900  0.87498700  1
  O  O10  1  0.48080100  0.85568900  0.12503500  1
  O  O11  1  0.48089600  0.85566800  0.62501900  1
  O  O12  1  0.38410600  0.44219300  0.12510800  1
  O  O13  1  0.38418100  0.44212100  0.62503600  1
  O  O14  1  0.61584700  0.55781100  0.37488800  1
  O  O15  1  0.61584600  0.55788700  0.87497600  1
  O  O16  1  0.15618000  0.41746100  0.37499100  1
  O  O17  1  0.15623500  0.41752600  0.87504600  1
  O  O18  1  0.84375000  0.58255200  0.12500800  1
  O  O19  1  0.84379700  0.58247600  0.62496100  1
  O  O20  1  0.79107100  0.30526600  0.02861000  1
  O  O21  1  0.79105700  0.30513800  0.52862700  1
  O  O22  1  0.79118400  0.30514000  0.22130200  1
  O  O23  1  0.79130600  0.30516000  0.72133200  1
  O  O24  1  0.20879500  0.69484600  0.27868600  1
  O  O25  1  0.20872800  0.69484900  0.77866100  1
  O  O26  1  0.20894500  0.69474000  0.47138000  1
  O  O27  1  0.20892400  0.69487900  0.97136500  1
loop_
_geom_bond_atom_site_label_1
_geom_bond_atom_site_label_2
_geom_bond_distance
_geom_bond_site_symmetry_2
Na0 O6 2.332871 1_645
Na0 O0 2.438145 1_555
Na0 O22 2.464265 1_555
Na0 O20 2.466064 1_555
Na0 O10 2.595673 1_545
Na0 O0 2.876553 1_655
Na1 O7 2.332673 1_645
Na1 O1 2.438241 1_555
Na1 O21 2.464994 1_555
Na1 O23 2.465033 1_555
Na1 O11 2.595562 1_545
Na1 O1 2.876457 1_655
Na2 O4 2.332835 1_465
Na2 O2 2.438041 1_555
Na2 O24 2.464492 1_555
Na2 O26 2.465923 1_555
Na2 O8 2.595337 1_565
Na2 O2 2.876662 1_455
Na3 O5 2.332683 1_465
Na3 O3 2.438219 1_555
Na3 O27 2.464834 1_555
Na3 O25 2.465059 1_555
Na3 O9 2.595587 1_565
Na3 O3 2.876479 1_455
Na4 O17 2.344103 1_554
Na4 O0 2.365871 1_555
Na4 O12 2.474468 1_555
Na4 O20 2.492496 1_455
Na4 O9 2.527597 1_554
Na4 O5 2.839076 1_454
Na4 O20 2.922103 1_555
Na5 O16 2.343468 1_555
Na5 O1 2.366300 1_555
Na5 O13 2.474309 1_555
Na5 O21 2.492220 1_455
Na5 O8 2.527629 1_555
Na5 O4 2.838394 1_455
Na5 O21 2.922378 1_555
Na6 O16 2.344043 1_555
Na6 O0 2.365825 1_555
Na6 O12 2.473178 1_555
Na6 O22 2.492065 1_455
Na6 O8 2.526755 1_555
Na6 O4 2.838149 1_455
Na6 O22 2.922815 1_555
Na7 O17 2.344465 1_555
Na7 O1 2.367176 1_555
Na7 O13 2.473323 1_555
Na7 O23 2.491184 1_455
Na7 O9 2.526862 1_555
Na7 O5 2.838283 1_455
Na7 O23 2.923524 1_555
Na8 O18 2.344017 1_555
Na8 O2 2.365761 1_555
Na8 O14 2.473174 1_555
Na8 O24 2.491918 1_655
Na8 O10 2.526793 1_555
Na8 O6 2.838127 1_655
Na8 O24 2.922950 1_555
Na9 O19 2.344444 1_555
Na9 O3 2.367156 1_555
Na9 O15 2.473418 1_555
Na9 O25 2.491064 1_655
Na9 O11 2.526935 1_555
Na9 O7 2.838104 1_655
Na9 O25 2.923594 1_555
Na10 O19 2.344118 1_555
Na10 O2 2.365621 1_555
Na10 O14 2.474673 1_555
Na10 O26 2.492460 1_655
Na10 O11 2.527625 1_555
Na10 O7 2.839125 1_655
Na10 O26 2.922186 1_555
Na11 O18 2.343361 1_556
Na11 O3 2.366199 1_555
Na11 O15 2.474363 1_555
Na11 O27 2.492189 1_655
Na11 O10 2.527350 1_556
Na11 O6 2.837921 1_656
Na11 O27 2.922502 1_555
As0 O18 1.718137 1_555
As0 O22 1.729866 1_555
As0 O20 1.730212 1_555
As0 O12 1.733412 1_555
As1 O19 1.717629 1_555
As1 O23 1.730189 1_555
As1 O21 1.730359 1_555
As1 O13 1.733302 1_555
As2 O16 1.718104 1_555
As2 O24 1.729824 1_555
As2 O26 1.730162 1_555
As2 O14 1.733343 1_555
As3 O17 1.717630 1_555
As3 O25 1.730228 1_555
As3 O27 1.730409 1_555
As3 O15 1.733347 1_555
C0 O2 1.290637 1_545
C0 O4 1.307423 1_555
C0 O8 1.309945 1_555
C1 O3 1.290586 1_545
C1 O5 1.307463 1_555
C1 O9 1.310010 1_555
C2 O0 1.290665 1_565
C2 O6 1.307448 1_555
C2 O10 1.309910 1_555
C3 O1 1.290585 1_565
C3 O7 1.307464 1_555
C3 O11 1.310000 1_555
O4 V2 2.203210 1_555
O5 V0 2.203270 1_555
O6 V3 2.203109 1_555
O7 V1 2.203244 1_555
O8 V2 2.281324 1_555
O9 V0 2.281910 1_555
O10 V3 2.281543 1_555
O11 V1 2.281902 1_555
O12 V3 2.173761 1_555
O13 V1 2.174185 1_555
O14 V2 2.173908 1_555
O15 V0 2.174181 1_555
O16 V2 2.144172 1_455
O17 V0 2.143904 1_455
O18 V3 2.143896 1_655
O19 V1 2.143889 1_655
O20 V0 2.173260 1_554
O21 V2 2.174288 1_555
O22 V2 2.174342 1_555
O23 V0 2.174696 1_555
O24 V3 2.174597 1_555
O25 V1 2.174572 1_555
O26 V1 2.173425 1_555
O27 V3 2.174027 1_556
