# generated using pymatgen
data_LiBi(PO3)4
_symmetry_space_group_name_H-M   'P 1'
_cell_length_a   13.48094500
_cell_length_b   7.26790100
_cell_length_c   12.33883845
_cell_angle_alpha   54.60643588
_cell_angle_beta   90.00000000
_cell_angle_gamma   90.00000000
_symmetry_Int_Tables_number   1
_chemical_formula_structural   LiBi(PO3)4
_chemical_formula_sum   'Li4 Bi4 P16 O48'
_cell_volume   985.51669290
_cell_formula_units_Z   4
loop_
 _symmetry_equiv_pos_site_id
 _symmetry_equiv_pos_as_xyz
  1  'x, y, z'
loop_
 _atom_site_type_symbol
 _atom_site_label
 _atom_site_symmetry_multiplicity
 _atom_site_fract_x
 _atom_site_fract_y
 _atom_site_fract_z
 _atom_site_occupancy
  Li  Li0  1  0.21031900  0.90356700  0.04544100  1
  Li  Li1  1  0.71031900  0.09643300  0.45455900  1
  Li  Li2  1  0.28968100  0.90356700  0.54544100  1
  Li  Li3  1  0.78968100  0.09643300  0.95455900  1
  Bi  Bi0  1  0.77803300  0.44570200  0.07286200  1
  Bi  Bi1  1  0.27803300  0.55429800  0.42713800  1
  Bi  Bi2  1  0.72196700  0.44570200  0.57286200  1
  Bi  Bi3  1  0.22196700  0.55429800  0.92713800  1
  P  P0  1  0.37210600  0.44001400  0.20148300  1
  P  P1  1  0.58987600  0.52304600  0.19657700  1
  P  P2  1  0.12287600  0.14298900  0.23811900  1
  P  P3  1  0.90949000  0.03188100  0.23051500  1
  P  P4  1  0.40949000  0.96811900  0.26948500  1
  P  P5  1  0.62287600  0.85701100  0.26188100  1
  P  P6  1  0.08987600  0.47695400  0.30342300  1
  P  P7  1  0.87210600  0.55998600  0.29851700  1
  P  P8  1  0.12789400  0.44001400  0.70148300  1
  P  P9  1  0.91012400  0.52304600  0.69657700  1
  P  P10  1  0.37712400  0.14298900  0.73811900  1
  P  P11  1  0.59051000  0.03188100  0.73051500  1
  P  P12  1  0.09051000  0.96811900  0.76948500  1
  P  P13  1  0.87712400  0.85701100  0.76188100  1
  P  P14  1  0.41012400  0.47695400  0.80342300  1
  P  P15  1  0.62789400  0.55998600  0.79851700  1
  O  O0  1  0.65136600  0.66544800  0.07068000  1
  O  O1  1  0.89967400  0.16680800  0.08042900  1
  O  O2  1  0.15113100  0.22788700  0.09667700  1
  O  O3  1  0.29374800  0.58858800  0.09938500  1
  O  O4  1  0.47745300  0.56018300  0.14289500  1
  O  O5  1  0.69645700  0.98963000  0.15345600  1
  O  O6  1  0.85778800  0.63104500  0.15833300  1
  O  O7  1  0.38166500  0.22771900  0.19518800  1
  O  O8  1  0.34870400  0.87210500  0.21010900  1
  O  O9  1  0.52266400  0.00194100  0.22112500  1
  O  O10  1  0.08422900  0.36706500  0.22286500  1
  O  O11  1  0.12224800  0.71789600  0.21081700  1
  O  O12  1  0.62224800  0.28210400  0.28918300  1
  O  O13  1  0.58422900  0.63293500  0.27713500  1
  O  O14  1  0.02266400  0.99805900  0.27887500  1
  O  O15  1  0.84870400  0.12789500  0.28989100  1
  O  O16  1  0.88166500  0.77228100  0.30481200  1
  O  O17  1  0.35778800  0.36895500  0.34166700  1
  O  O18  1  0.19645700  0.01037000  0.34654400  1
  O  O19  1  0.97745300  0.43981700  0.35710500  1
  O  O20  1  0.79374800  0.41141200  0.40061500  1
  O  O21  1  0.65113100  0.77211300  0.40332300  1
  O  O22  1  0.39967400  0.83319200  0.41957100  1
  O  O23  1  0.15136600  0.33455200  0.42932000  1
  O  O24  1  0.84863400  0.66544800  0.57068000  1
  O  O25  1  0.60032600  0.16680800  0.58042900  1
  O  O26  1  0.34886900  0.22788700  0.59667700  1
  O  O27  1  0.20625200  0.58858800  0.59938500  1
  O  O28  1  0.02254700  0.56018300  0.64289500  1
  O  O29  1  0.80354300  0.98963000  0.65345600  1
  O  O30  1  0.64221200  0.63104500  0.65833300  1
  O  O31  1  0.11833500  0.22771900  0.69518800  1
  O  O32  1  0.15129600  0.87210500  0.71010900  1
  O  O33  1  0.97733600  0.00194100  0.72112500  1
  O  O34  1  0.41577100  0.36706500  0.72286500  1
  O  O35  1  0.37775200  0.71789600  0.71081700  1
  O  O36  1  0.87775200  0.28210400  0.78918300  1
  O  O37  1  0.91577100  0.63293500  0.77713500  1
  O  O38  1  0.47733600  0.99805900  0.77887500  1
  O  O39  1  0.65129600  0.12789500  0.78989100  1
  O  O40  1  0.61833500  0.77228100  0.80481200  1
  O  O41  1  0.14221200  0.36895500  0.84166700  1
  O  O42  1  0.30354300  0.01037000  0.84654400  1
  O  O43  1  0.52254700  0.43981700  0.85710500  1
  O  O44  1  0.70625200  0.41141200  0.90061500  1
  O  O45  1  0.84886900  0.77211300  0.90332300  1
  O  O46  1  0.10032600  0.83319200  0.91957100  1
  O  O47  1  0.34863400  0.33455200  0.92932000  1
loop_
_geom_bond_atom_site_label_1
_geom_bond_atom_site_label_2
_geom_bond_distance
_geom_bond_site_symmetry_2
Li0 O11 2.050548 1_555
Li0 O3 2.276737 1_555
Li0 O46 2.406783 1_554
Li0 O42 2.449108 1_564
Li1 O12 2.050548 1_555
Li1 O20 2.276737 1_555
Li1 O25 2.406783 1_555
Li1 O29 2.449108 1_545
Li2 O35 2.050548 1_555
Li2 O27 2.276737 1_555
Li2 O22 2.406783 1_555
Li2 O18 2.449108 1_565
Li3 O36 2.050548 1_555
Li3 O44 2.276737 1_555
Li3 O1 2.406783 1_556
Li3 O5 2.449108 1_546
Bi0 O45 2.273156 1_554
Bi0 O0 2.327549 1_555
Bi0 O6 2.393403 1_555
Bi0 O44 2.475698 1_554
Bi0 O15 2.499775 1_555
Bi0 O1 2.566549 1_555
Bi1 O26 2.273156 1_555
Bi1 O23 2.327549 1_555
Bi1 O17 2.393403 1_555
Bi1 O27 2.475698 1_555
Bi1 O8 2.499775 1_555
Bi1 O22 2.566549 1_555
Bi2 O21 2.273156 1_555
Bi2 O24 2.327549 1_555
Bi2 O30 2.393403 1_555
Bi2 O20 2.475698 1_555
Bi2 O39 2.499775 1_555
Bi2 O25 2.566549 1_555
Bi3 O2 2.273156 1_556
Bi3 O47 2.327549 1_555
Bi3 O41 2.393403 1_555
Bi3 O3 2.475698 1_556
Bi3 O32 2.499775 1_555
Bi3 O46 2.566549 1_555
O0 P1 1.519556 1_555
O1 P3 1.518221 1_555
O2 P2 1.524543 1_555
O3 P0 1.514304 1_555
O4 P0 1.603408 1_555
O4 P1 1.612898 1_555
O5 P5 1.486294 1_555
O6 P7 1.503688 1_555
O7 P4 1.592901 1_545
O7 P0 1.594404 1_555
O8 P4 1.512422 1_555
O9 P5 1.604333 1_545
O9 P4 1.604466 1_545
O10 P6 1.597270 1_555
O10 P2 1.613695 1_555
O11 P6 1.498248 1_555
O12 P1 1.498248 1_555
O13 P1 1.597270 1_555
O13 P5 1.613695 1_555
O14 P2 1.604333 1_565
O14 P3 1.604466 1_465
O15 P3 1.512422 1_555
O16 P3 1.592901 1_565
O16 P7 1.594404 1_555
O17 P0 1.503688 1_555
O18 P2 1.486294 1_555
O19 P7 1.603408 1_555
O19 P6 1.612898 1_655
O20 P7 1.514304 1_555
O21 P5 1.524543 1_555
O22 P4 1.518221 1_555
O23 P6 1.519556 1_555
O24 P9 1.519556 1_555
O25 P11 1.518221 1_555
O26 P10 1.524543 1_555
O27 P8 1.514304 1_555
O28 P8 1.603408 1_555
O28 P9 1.612898 1_455
O29 P13 1.486294 1_555
O30 P15 1.503688 1_555
O31 P12 1.592901 1_545
O31 P8 1.594404 1_555
O32 P12 1.512422 1_555
O33 P13 1.604333 1_545
O33 P12 1.604466 1_645
O34 P14 1.597270 1_555
O34 P10 1.613695 1_555
O35 P14 1.498248 1_555
O36 P9 1.498248 1_555
O37 P9 1.597270 1_555
O37 P13 1.613695 1_555
O38 P10 1.604333 1_565
O38 P11 1.604466 1_565
O39 P11 1.512422 1_555
O40 P11 1.592901 1_565
O40 P15 1.594404 1_555
O41 P8 1.503688 1_555
O42 P10 1.486294 1_555
O43 P15 1.603408 1_555
O43 P14 1.612898 1_555
O44 P15 1.514304 1_555
O45 P13 1.524543 1_555
O46 P12 1.518221 1_555
O47 P14 1.519556 1_555
