# generated using pymatgen
data_Li11Ti4Fe9O32
_symmetry_space_group_name_H-M   'P 1'
_cell_length_a   8.33833500
_cell_length_b   8.36210251
_cell_length_c   8.50297891
_cell_angle_alpha   89.70854298
_cell_angle_beta   89.80466925
_cell_angle_gamma   89.79888441
_symmetry_Int_Tables_number   1
_chemical_formula_structural   Li11Ti4Fe9O32
_chemical_formula_sum   'Li11 Ti4 Fe9 O32'
_cell_volume   592.86407761
_cell_formula_units_Z   1
loop_
 _symmetry_equiv_pos_site_id
 _symmetry_equiv_pos_as_xyz
  1  'x, y, z'
loop_
 _atom_site_type_symbol
 _atom_site_label
 _atom_site_symmetry_multiplicity
 _atom_site_fract_x
 _atom_site_fract_y
 _atom_site_fract_z
 _atom_site_occupancy
  Li  Li0  1  0.49867400  0.50589500  0.99866900  1
  Li  Li1  1  0.87133900  0.37766100  0.12280700  1
  Li  Li2  1  0.74946400  0.74563200  0.24751200  1
  Li  Li3  1  0.24951900  0.24799700  0.25058600  1
  Li  Li4  1  0.12034100  0.87835500  0.37563300  1
  Li  Li5  1  0.50289600  0.00304100  0.50264500  1
  Li  Li6  1  0.99811300  0.50100500  0.50227000  1
  Li  Li7  1  0.62901000  0.61981000  0.63112600  1
  Li  Li8  1  0.74868500  0.25017100  0.74840300  1
  Li  Li9  1  0.25286900  0.74635400  0.74745600  1
  Li  Li10  1  0.37303900  0.12443300  0.86651600  1
  Ti  Ti0  1  0.12081700  0.60617900  0.14216800  1
  Ti  Ti1  1  0.37273400  0.87411700  0.11597800  1
  Ti  Ti2  1  0.61446800  0.13937600  0.10976200  1
  Ti  Ti3  1  0.37680700  0.63759600  0.38323700  1
  Fe  Fe0  1  0.62359300  0.37355200  0.37890900  1
  Fe  Fe1  1  0.87382100  0.12437100  0.37312100  1
  Fe  Fe2  1  0.37200700  0.37272000  0.62033100  1
  Fe  Fe3  1  0.12638100  0.12455200  0.61907900  1
  Fe  Fe4  1  0.87799400  0.87723000  0.62318100  1
  Fe  Fe5  1  0.12571600  0.37633400  0.87522100  1
  Fe  Fe6  1  0.87900500  0.62477600  0.87892500  1
  Fe  Fe7  1  0.62350200  0.87584900  0.87624900  1
  Fe  Fe8  1  0.00226400  0.00465100  0.00480800  1
  O  O0  1  0.12836900  0.38925100  0.10807800  1
  O  O1  1  0.61556600  0.88365300  0.10216400  1
  O  O2  1  0.39129400  0.10288300  0.13001800  1
  O  O3  1  0.62158600  0.35913900  0.14799800  1
  O  O4  1  0.89532900  0.62743200  0.10429700  1
  O  O5  1  0.13986500  0.86588200  0.12061900  1
  O  O6  1  0.36067300  0.63712700  0.14059800  1
  O  O7  1  0.86173800  0.12014400  0.13703800  1
  O  O8  1  0.13890400  0.62227500  0.35784300  1
  O  O9  1  0.64153500  0.14079000  0.36339500  1
  O  O10  1  0.84778900  0.35652500  0.37655300  1
  O  O11  1  0.09514500  0.12783100  0.38520000  1
  O  O12  1  0.38716300  0.85428900  0.35885600  1
  O  O13  1  0.61216100  0.59409700  0.37560400  1
  O  O14  1  0.39387900  0.37738100  0.39103400  1
  O  O15  1  0.86556100  0.89593800  0.39469600  1
  O  O16  1  0.36915300  0.59876200  0.60451000  1
  O  O17  1  0.88981000  0.10906000  0.61891900  1
  O  O18  1  0.11186900  0.89985500  0.62218100  1
  O  O19  1  0.88231200  0.65599700  0.64619700  1
  O  O20  1  0.60081700  0.37098200  0.60174500  1
  O  O21  1  0.35320500  0.14407600  0.62436700  1
  O  O22  1  0.13543600  0.35490800  0.63223800  1
  O  O23  1  0.64599300  0.87884400  0.65685400  1
  O  O24  1  0.35208600  0.37690100  0.84706000  1
  O  O25  1  0.87575100  0.86939100  0.87130600  1
  O  O26  1  0.65830600  0.63911100  0.87544400  1
  O  O27  1  0.39232700  0.87032700  0.89231900  1
  O  O28  1  0.11995900  0.14224500  0.86794500  1
  O  O29  1  0.89635800  0.39574600  0.87182400  1
  O  O30  1  0.11115300  0.61164800  0.88371600  1
  O  O31  1  0.62594400  0.11594700  0.89479700  1
loop_
_geom_bond_atom_site_label_1
_geom_bond_atom_site_label_2
_geom_bond_distance
_geom_bond_site_symmetry_2
Li0 O6 1.994967 1_556
Li0 O26 2.024728 1_555
Li0 O3 2.037844 1_556
Li0 O24 2.086510 1_555
Li1 O3 2.098967 1_555
Li1 O4 2.103914 1_555
Li1 O29 2.148183 1_554
Li1 O0 2.148930 1_655
Li1 O7 2.157917 1_555
Li1 O10 2.172210 1_555
Li2 O4 1.983150 1_555
Li2 O13 2.022458 1_555
Li2 O1 2.022837 1_555
Li2 O15 2.028775 1_555
Li3 O0 1.967078 1_555
Li3 O2 1.978720 1_555
Li3 O11 1.991013 1_555
Li3 O14 2.019349 1_555
Li4 O11 2.097924 1_565
Li4 O18 2.105923 1_555
Li4 O15 2.134676 1_455
Li4 O8 2.152464 1_555
Li4 O5 2.176930 1_555
Li4 O12 2.237364 1_555
Li5 O12 2.001320 1_545
Li5 O21 2.003323 1_555
Li5 O9 2.012778 1_555
Li5 O23 2.051765 1_545
Li6 O8 1.974973 1_655
Li6 O22 2.002493 1_655
Li6 O19 2.027099 1_555
Li6 O10 2.050947 1_555
Li7 O26 2.099664 1_555
Li7 O20 2.110975 1_555
Li7 O19 2.139101 1_555
Li7 O23 2.183335 1_555
Li7 O16 2.187129 1_555
Li7 O13 2.189437 1_555
Li8 O31 1.960073 1_555
Li8 O17 1.995980 1_555
Li8 O20 2.021089 1_555
Li8 O29 2.032667 1_555
Li9 O16 1.984827 1_555
Li9 O27 1.993835 1_555
Li9 O30 1.998578 1_555
Li9 O18 2.036810 1_555
Li10 O21 2.071824 1_555
Li10 O28 2.114992 1_555
Li10 O24 2.123431 1_555
Li10 O31 2.124185 1_555
Li10 O27 2.140592 1_545
Li10 O2 2.252497 1_556
Fe0 O13 1.846424 1_555
Fe0 O10 1.874384 1_555
Fe0 O20 1.903639 1_555
Fe0 O14 1.918018 1_555
Fe0 O9 1.956684 1_555
Fe0 O3 1.967870 1_555
Fe1 O11 1.849015 1_655
Fe1 O15 1.919494 1_545
Fe1 O9 1.943270 1_555
Fe1 O10 1.952990 1_555
Fe1 O7 2.010775 1_555
Fe1 O17 2.097949 1_555
Fe2 O16 1.894357 1_555
Fe2 O20 1.913902 1_555
Fe2 O21 1.919033 1_555
Fe2 O24 1.934933 1_555
Fe2 O14 1.957803 1_555
Fe2 O22 1.980951 1_555
Fe3 O18 1.883301 1_545
Fe3 O21 1.899643 1_555
Fe3 O22 1.931831 1_555
Fe3 O17 1.977317 1_455
Fe3 O11 2.006569 1_555
Fe3 O28 2.122499 1_555
Fe4 O19 1.859541 1_555
Fe4 O17 1.941582 1_565
Fe4 O15 1.951377 1_555
Fe4 O23 1.954620 1_555
Fe4 O18 1.959930 1_655
Fe4 O25 2.110508 1_555
Fe5 O24 1.901886 1_555
Fe5 O29 1.919076 1_455
Fe5 O28 1.959530 1_555
Fe5 O30 1.972712 1_555
Fe5 O0 1.983674 1_556
Fe5 O22 2.076024 1_555
Fe6 O26 1.844071 1_555
Fe6 O29 1.921364 1_555
Fe6 O4 1.921871 1_556
Fe6 O30 1.939008 1_655
Fe6 O19 1.994822 1_555
Fe6 O25 2.046280 1_555
Fe7 O23 1.874327 1_555
Fe7 O1 1.923296 1_556
Fe7 O27 1.932684 1_555
Fe7 O26 1.999821 1_555
Fe7 O31 2.014888 1_565
Fe7 O25 2.104122 1_555
Fe8 O7 1.887852 1_455
Fe8 O5 1.902476 1_545
Fe8 O28 1.904664 1_554
Fe8 O25 1.926220 1_444
O0 Ti0 1.839270 1_555
O1 Ti1 2.029642 1_555
O1 Ti2 2.139673 1_565
O2 Ti2 1.893938 1_555
O2 Ti1 1.924101 1_545
O3 Ti2 1.869030 1_555
O4 Ti0 1.916145 1_655
O5 Ti1 1.943461 1_555
O5 Ti0 2.184741 1_555
O6 Ti1 1.994554 1_555
O6 Ti0 2.017564 1_555
O6 Ti3 2.068018 1_555
O7 Ti2 2.081180 1_555
O8 Ti0 1.846217 1_555
O8 Ti3 2.000787 1_555
O9 Ti2 2.169275 1_555
O12 Ti3 1.825093 1_555
O12 Ti1 2.074857 1_555
O13 Ti3 1.995528 1_555
O14 Ti3 2.180783 1_555
O16 Ti3 1.908560 1_555
O27 Ti1 1.908631 1_556
O30 Ti0 2.199600 1_556
O31 Ti2 1.841431 1_556
