# generated using pymatgen
data_Li7Mn8(BO3)8
_symmetry_space_group_name_H-M   'P 1'
_cell_length_a   5.28533100
_cell_length_b   9.10165139
_cell_length_c   10.46373087
_cell_angle_alpha   89.59258812
_cell_angle_beta   88.27932344
_cell_angle_gamma   89.50374499
_symmetry_Int_Tables_number   1
_chemical_formula_structural   Li7Mn8(BO3)8
_chemical_formula_sum   'Li7 Mn8 B8 O24'
_cell_volume   503.10262781
_cell_formula_units_Z   1
loop_
 _symmetry_equiv_pos_site_id
 _symmetry_equiv_pos_as_xyz
  1  'x, y, z'
loop_
 _atom_site_type_symbol
 _atom_site_label
 _atom_site_symmetry_multiplicity
 _atom_site_fract_x
 _atom_site_fract_y
 _atom_site_fract_z
 _atom_site_occupancy
  Li  Li0  1  0.16564500  0.01512400  0.32410500  1
  Li  Li1  1  0.15626600  0.98083000  0.83986000  1
  Li  Li2  1  0.33931700  0.50028900  0.59031500  1
  Li  Li3  1  0.65999200  0.51685200  0.33741500  1
  Li  Li4  1  0.66024700  0.48474500  0.83022600  1
  Li  Li5  1  0.84646100  0.00415300  0.08390700  1
  Li  Li6  1  0.84194800  0.00853400  0.58658200  1
  Mn  Mn0  1  0.16509400  0.33692600  0.36145300  1
  Mn  Mn1  1  0.16135400  0.64812400  0.87439900  1
  Mn  Mn2  1  0.34837300  0.81462700  0.11984700  1
  Mn  Mn3  1  0.33445700  0.16269000  0.61732300  1
  Mn  Mn4  1  0.65716400  0.84929600  0.37335000  1
  Mn  Mn5  1  0.65235800  0.16384600  0.87035800  1
  Mn  Mn6  1  0.82722100  0.34583600  0.11491600  1
  Mn  Mn7  1  0.84120400  0.66877300  0.61911800  1
  B  B0  1  0.16727000  0.66978100  0.37149600  1
  B  B1  1  0.16142000  0.32299500  0.86869400  1
  B  B2  1  0.33106700  0.16380200  0.12369700  1
  B  B3  1  0.33139700  0.82884100  0.62930600  1
  B  B4  1  0.67139700  0.17396200  0.37676200  1
  B  B5  1  0.67318800  0.82305500  0.88177600  1
  B  B6  1  0.82831400  0.68484600  0.12987700  1
  B  B7  1  0.83466400  0.33083900  0.62253100  1
  O  O0  1  0.06975600  0.68997200  0.07398100  1
  O  O1  1  0.08640300  0.33499900  0.57989200  1
  O  O2  1  0.20464500  0.03019800  0.13232600  1
  O  O3  1  0.20399300  0.29051300  0.16080600  1
  O  O4  1  0.18216100  0.95279400  0.64486100  1
  O  O5  1  0.23238000  0.69182000  0.66340200  1
  O  O6  1  0.27750800  0.79806300  0.31453800  1
  O  O7  1  0.26114900  0.18480200  0.83552400  1
  O  O8  1  0.31311900  0.54823300  0.39371400  1
  O  O9  1  0.31269800  0.44361000  0.86351400  1
  O  O10  1  0.41168500  0.15621600  0.40472600  1
  O  O11  1  0.41593200  0.82091400  0.92592300  1
  O  O12  1  0.58560600  0.16686000  0.08221600  1
  O  O13  1  0.58047800  0.84080800  0.58168300  1
  O  O14  1  0.70482800  0.55841600  0.15224100  1
  O  O15  1  0.71331800  0.82268500  0.16115600  1
  O  O16  1  0.69454700  0.45867800  0.63561100  1
  O  O17  1  0.72209000  0.19585800  0.65632300  1
  O  O18  1  0.76604800  0.30915700  0.33880400  1
  O  O19  1  0.77688100  0.69391100  0.83274700  1
  O  O20  1  0.82978000  0.05244900  0.39149500  1
  O  O21  1  0.80786100  0.95049400  0.89068000  1
  O  O22  1  0.91189400  0.67436100  0.40780300  1
  O  O23  1  0.90384400  0.33734600  0.90469000  1
loop_
_geom_bond_atom_site_label_1
_geom_bond_atom_site_label_2
_geom_bond_distance
_geom_bond_site_symmetry_2
Li0 O20 1.918755 1_455
Li0 O2 2.014941 1_555
Li0 O10 2.040100 1_555
Li0 O6 2.059527 1_545
Li1 O21 1.922969 1_455
Li1 O7 1.941906 1_565
Li1 O4 2.058440 1_555
Li1 O11 2.198629 1_555
Li2 O5 1.979687 1_555
Li2 O16 1.982848 1_555
Li2 O1 2.026803 1_555
Li2 O8 2.108287 1_555
Li3 O8 1.928265 1_555
Li3 O18 1.967143 1_555
Li3 O14 1.979181 1_555
Li3 O22 2.115940 1_555
Li4 O9 1.899309 1_555
Li4 O19 2.006742 1_555
Li4 O23 2.019906 1_555
Li4 O16 2.054271 1_555
Li5 O15 1.960493 1_545
Li5 O2 1.990947 1_655
Li5 O12 2.014929 1_555
Li5 O21 2.099681 1_544
Li6 O17 1.952421 1_555
Li6 O4 1.976918 1_645
Li6 O13 2.069975 1_545
Li6 O20 2.080094 1_555
Mn0 O8 2.115671 1_555
Mn0 O10 2.143969 1_555
Mn0 O18 2.146721 1_455
Mn0 O3 2.147993 1_555
Mn0 O1 2.310870 1_555
Mn1 O9 2.022235 1_555
Mn1 O19 2.128110 1_455
Mn1 O11 2.160254 1_555
Mn1 O0 2.165214 1_556
Mn1 O5 2.261386 1_555
Mn2 O0 1.940413 1_555
Mn2 O15 1.991399 1_555
Mn2 O11 2.050241 1_554
Mn2 O6 2.064936 1_555
Mn2 O2 2.101341 1_565
Mn3 O1 2.078049 1_555
Mn3 O4 2.094149 1_545
Mn3 O17 2.125511 1_555
Mn3 O10 2.250701 1_555
Mn3 O7 2.314232 1_555
Mn4 O20 2.081326 1_565
Mn4 O22 2.112231 1_555
Mn4 O6 2.171882 1_555
Mn4 O13 2.206235 1_555
Mn4 O15 2.245772 1_555
Mn5 O23 2.112479 1_555
Mn5 O21 2.113881 1_545
Mn5 O7 2.117057 1_555
Mn5 O12 2.234562 1_556
Mn5 O17 2.275866 1_555
Mn6 O14 2.070859 1_555
Mn6 O12 2.114619 1_555
Mn6 O3 2.118081 1_655
Mn6 O23 2.226488 1_554
Mn6 O18 2.376869 1_555
Mn7 O16 2.073671 1_555
Mn7 O13 2.119066 1_555
Mn7 O5 2.144687 1_655
Mn7 O22 2.231692 1_555
Mn7 O19 2.263854 1_555
B0 O8 1.365459 1_555
B0 O22 1.391524 1_455
B0 O6 1.427920 1_555
B1 O9 1.363501 1_555
B1 O7 1.401449 1_555
B1 O23 1.406803 1_455
B2 O3 1.381739 1_555
B2 O2 1.393631 1_555
B2 O12 1.401597 1_555
B3 O4 1.378734 1_555
B3 O5 1.396508 1_555
B3 O13 1.398429 1_555
B4 O18 1.383445 1_555
B4 O20 1.391750 1_555
B4 O10 1.405333 1_555
B5 O21 1.371324 1_555
B5 O19 1.387699 1_555
B5 O11 1.423067 1_555
B6 O14 1.343466 1_555
B6 O0 1.388710 1_655
B6 O15 1.425182 1_555
B7 O16 1.379224 1_555
B7 O1 1.391320 1_655
B7 O17 1.407915 1_555
