# generated using pymatgen
data_Li5SbS4
_symmetry_space_group_name_H-M   'P 1'
_cell_length_a   10.65643600
_cell_length_b   12.30870000
_cell_length_c   12.61042100
_cell_angle_alpha   90.00000000
_cell_angle_beta   90.00000000
_cell_angle_gamma   90.00000000
_symmetry_Int_Tables_number   1
_chemical_formula_structural   Li5SbS4
_chemical_formula_sum   'Li40 Sb8 S32'
_cell_volume   1654.06949979
_cell_formula_units_Z   8
loop_
 _symmetry_equiv_pos_site_id
 _symmetry_equiv_pos_as_xyz
  1  'x, y, z'
loop_
 _atom_site_type_symbol
 _atom_site_label
 _atom_site_symmetry_multiplicity
 _atom_site_fract_x
 _atom_site_fract_y
 _atom_site_fract_z
 _atom_site_occupancy
  Li  Li0  1  0.38004400  0.11864500  0.13029900  1
  Li  Li1  1  0.88004400  0.11864500  0.36970100  1
  Li  Li2  1  0.59471100  0.14611000  0.66129700  1
  Li  Li3  1  0.09471100  0.14611000  0.83870300  1
  Li  Li4  1  0.38702200  0.14097700  0.90175200  1
  Li  Li5  1  0.88702200  0.14097700  0.59824800  1
  Li  Li6  1  0.15768100  0.09731300  0.36182300  1
  Li  Li7  1  0.65768100  0.09731300  0.13817700  1
  Li  Li8  1  0.16107500  0.11682600  0.60463500  1
  Li  Li9  1  0.66107500  0.11682600  0.89536500  1
  Li  Li10  1  0.16107500  0.38317400  0.10463500  1
  Li  Li11  1  0.66107500  0.38317400  0.39536500  1
  Li  Li12  1  0.15768100  0.40268700  0.86182300  1
  Li  Li13  1  0.65768100  0.40268700  0.63817700  1
  Li  Li14  1  0.38702200  0.35902300  0.40175200  1
  Li  Li15  1  0.88702200  0.35902300  0.09824800  1
  Li  Li16  1  0.09471100  0.35389000  0.33870300  1
  Li  Li17  1  0.59471100  0.35389000  0.16129700  1
  Li  Li18  1  0.88004400  0.38135500  0.86970100  1
  Li  Li19  1  0.38004400  0.38135500  0.63029900  1
  Li  Li20  1  0.11995600  0.61864500  0.13029900  1
  Li  Li21  1  0.61995600  0.61864500  0.36970100  1
  Li  Li22  1  0.90528900  0.64611000  0.66129700  1
  Li  Li23  1  0.40528900  0.64611000  0.83870300  1
  Li  Li24  1  0.61297800  0.64097700  0.59824800  1
  Li  Li25  1  0.11297800  0.64097700  0.90175200  1
  Li  Li26  1  0.34231900  0.59731300  0.36182300  1
  Li  Li27  1  0.84231900  0.59731300  0.13817700  1
  Li  Li28  1  0.33892500  0.61682600  0.60463500  1
  Li  Li29  1  0.83892500  0.61682600  0.89536500  1
  Li  Li30  1  0.33892500  0.88317400  0.10463500  1
  Li  Li31  1  0.83892500  0.88317400  0.39536500  1
  Li  Li32  1  0.34231900  0.90268700  0.86182300  1
  Li  Li33  1  0.84231900  0.90268700  0.63817700  1
  Li  Li34  1  0.61297800  0.85902300  0.09824800  1
  Li  Li35  1  0.11297800  0.85902300  0.40175200  1
  Li  Li36  1  0.90528900  0.85389000  0.16129700  1
  Li  Li37  1  0.40528900  0.85389000  0.33870300  1
  Li  Li38  1  0.11995600  0.88135500  0.63029900  1
  Li  Li39  1  0.61995600  0.88135500  0.86970100  1
  Sb  Sb0  1  0.06899100  0.12052500  0.10842500  1
  Sb  Sb1  1  0.56899100  0.12052500  0.39157500  1
  Sb  Sb2  1  0.06899100  0.37947500  0.60842500  1
  Sb  Sb3  1  0.56899100  0.37947500  0.89157500  1
  Sb  Sb4  1  0.43100900  0.62052500  0.10842500  1
  Sb  Sb5  1  0.93100900  0.62052500  0.39157500  1
  Sb  Sb6  1  0.43100900  0.87947500  0.60842500  1
  Sb  Sb7  1  0.93100900  0.87947500  0.89157500  1
  S  S0  1  0.00339700  0.97503100  0.28601100  1
  S  S1  1  0.50339700  0.97503100  0.21398900  1
  S  S2  1  0.23153000  0.03027800  0.99443600  1
  S  S3  1  0.73153000  0.03027800  0.50556400  1
  S  S4  1  0.22088200  0.22453500  0.22123700  1
  S  S5  1  0.72088200  0.22453500  0.27876300  1
  S  S6  1  0.53429800  0.21991600  0.02467500  1
  S  S7  1  0.03429800  0.21991600  0.47532500  1
  S  S8  1  0.03429800  0.28008400  0.97532500  1
  S  S9  1  0.53429800  0.28008400  0.52467500  1
  S  S10  1  0.22088200  0.27546500  0.72123700  1
  S  S11  1  0.72088200  0.27546500  0.77876300  1
  S  S12  1  0.23153000  0.46972200  0.49443600  1
  S  S13  1  0.73153000  0.46972200  0.00556400  1
  S  S14  1  0.50339700  0.52496900  0.71398900  1
  S  S15  1  0.00339700  0.52496900  0.78601100  1
  S  S16  1  0.49660300  0.47503100  0.28601100  1
  S  S17  1  0.99660300  0.47503100  0.21398900  1
  S  S18  1  0.26847000  0.53027800  0.99443600  1
  S  S19  1  0.76847000  0.53027800  0.50556400  1
  S  S20  1  0.27911800  0.72453500  0.22123700  1
  S  S21  1  0.77911800  0.72453500  0.27876300  1
  S  S22  1  0.46570200  0.71991600  0.47532500  1
  S  S23  1  0.96570200  0.71991600  0.02467500  1
  S  S24  1  0.96570200  0.78008400  0.52467500  1
  S  S25  1  0.46570200  0.78008400  0.97532500  1
  S  S26  1  0.27911800  0.77546500  0.72123700  1
  S  S27  1  0.77911800  0.77546500  0.77876300  1
  S  S28  1  0.26847000  0.96972200  0.49443600  1
  S  S29  1  0.76847000  0.96972200  0.00556400  1
  S  S30  1  0.49660300  0.02496900  0.78601100  1
  S  S31  1  0.99660300  0.02496900  0.71398900  1
loop_
_geom_bond_atom_site_label_1
_geom_bond_atom_site_label_2
_geom_bond_distance
_geom_bond_site_symmetry_2
Li0 S4 2.427055 1_555
Li0 S1 2.442639 1_545
Li0 S6 2.455605 1_555
Li0 S2 2.573545 1_554
Li1 S5 2.427055 1_555
Li1 S0 2.442639 1_645
Li1 S7 2.455605 1_655
Li1 S3 2.573545 1_555
Li2 S30 2.406190 1_555
Li2 S9 2.470236 1_555
Li2 S11 2.556772 1_555
Li2 S3 2.831122 1_555
Li3 S31 2.406190 1_455
Li3 S8 2.470236 1_555
Li3 S10 2.556772 1_555
Li3 S2 2.831122 1_555
Li4 S30 2.352192 1_555
Li4 S6 2.410405 1_556
Li4 S2 2.442999 1_555
Li5 S31 2.352192 1_555
Li5 S7 2.410405 1_655
Li5 S3 2.442999 1_555
Li6 S0 2.425391 1_545
Li6 S4 2.459421 1_555
Li6 S7 2.460637 1_555
Li6 S28 2.580090 1_545
Li7 S1 2.425391 1_545
Li7 S5 2.459421 1_555
Li7 S6 2.460637 1_555
Li7 S29 2.580090 1_545
Li8 S7 2.468669 1_555
Li8 S31 2.500379 1_455
Li8 S10 2.526078 1_555
Li8 S28 2.553310 1_545
Li9 S6 2.468669 1_556
Li9 S30 2.500379 1_555
Li9 S11 2.526078 1_555
Li9 S29 2.553310 1_546
Li10 S8 2.468669 1_554
Li10 S17 2.500379 1_455
Li10 S4 2.526078 1_555
Li10 S18 2.553310 1_554
Li11 S9 2.468669 1_555
Li11 S16 2.500379 1_555
Li11 S5 2.526078 1_555
Li11 S19 2.553310 1_555
Li12 S15 2.425391 1_555
Li12 S10 2.459421 1_555
Li12 S8 2.460637 1_555
Li12 S18 2.580090 1_555
Li13 S14 2.425391 1_555
Li13 S11 2.459421 1_555
Li13 S9 2.460637 1_555
Li13 S19 2.580090 1_555
Li14 S16 2.352192 1_555
Li14 S9 2.410405 1_555
Li14 S12 2.442999 1_555
Li15 S17 2.352192 1_555
Li15 S8 2.410405 1_654
Li15 S13 2.442999 1_555
Li16 S17 2.406190 1_455
Li16 S7 2.470236 1_555
Li16 S4 2.556772 1_555
Li16 S12 2.831122 1_555
Li17 S16 2.406190 1_555
Li17 S6 2.470236 1_555
Li17 S5 2.556772 1_555
Li17 S13 2.831122 1_555
Li18 S11 2.427055 1_555
Li18 S15 2.442639 1_655
Li18 S8 2.455605 1_655
Li18 S13 2.573545 1_556
Li19 S10 2.427055 1_555
Li19 S14 2.442639 1_555
Li19 S9 2.455605 1_555
Li19 S12 2.573545 1_555
Li20 S20 2.427055 1_555
Li20 S17 2.442639 1_455
Li20 S23 2.455605 1_455
Li20 S18 2.573545 1_554
Li21 S21 2.427055 1_555
Li21 S16 2.442639 1_555
Li21 S22 2.455605 1_555
Li21 S19 2.573545 1_555
Li22 S15 2.406190 1_655
Li22 S24 2.470236 1_555
Li22 S27 2.556772 1_555
Li22 S19 2.831122 1_555
Li23 S14 2.406190 1_555
Li23 S25 2.470236 1_555
Li23 S26 2.556772 1_555
Li23 S18 2.831122 1_555
Li24 S14 2.352192 1_555
Li24 S22 2.410405 1_555
Li24 S19 2.442999 1_555
Li25 S15 2.352192 1_555
Li25 S23 2.410405 1_456
Li25 S18 2.442999 1_555
Li26 S16 2.425391 1_555
Li26 S20 2.459421 1_555
Li26 S22 2.460637 1_555
Li26 S12 2.580090 1_555
Li27 S17 2.425391 1_555
Li27 S21 2.459421 1_555
Li27 S23 2.460637 1_555
Li27 S13 2.580090 1_555
Li28 S22 2.468669 1_555
Li28 S14 2.500379 1_555
Li28 S26 2.526078 1_555
Li28 S12 2.553310 1_555
Li29 S23 2.468669 1_556
Li29 S15 2.500379 1_655
Li29 S27 2.526078 1_555
Li29 S13 2.553310 1_556
Li30 S25 2.468669 1_554
Li30 S1 2.500379 1_555
Li30 S20 2.526078 1_555
Li30 S2 2.553310 1_564
Li31 S24 2.468669 1_555
Li31 S0 2.500379 1_655
Li31 S21 2.526078 1_555
Li31 S3 2.553310 1_565
Li32 S30 2.425391 1_565
Li32 S26 2.459421 1_555
Li32 S25 2.460637 1_555
Li32 S2 2.580090 1_565
Li33 S31 2.425391 1_565
Li33 S27 2.459421 1_555
Li33 S24 2.460637 1_555
Li33 S3 2.580090 1_565
Li34 S1 2.352192 1_555
Li34 S25 2.410405 1_554
Li34 S29 2.442999 1_555
Li35 S0 2.352192 1_555
Li35 S24 2.410405 1_455
Li35 S28 2.442999 1_555
Li36 S0 2.406190 1_655
Li36 S23 2.470236 1_555
Li36 S21 2.556772 1_555
Li36 S29 2.831122 1_555
Li37 S1 2.406190 1_555
Li37 S22 2.470236 1_555
Li37 S20 2.556772 1_555
Li37 S28 2.831122 1_555
Li38 S26 2.427055 1_555
Li38 S31 2.442639 1_465
Li38 S24 2.455605 1_455
Li38 S28 2.573545 1_555
Li39 S27 2.427055 1_555
Li39 S30 2.442639 1_565
Li39 S25 2.455605 1_555
Li39 S29 2.573545 1_556
S0 Sb0 2.951403 1_565
S1 Sb1 2.951403 1_565
S2 Sb0 2.510042 1_556
S3 Sb1 2.510042 1_555
S4 Sb0 2.506534 1_555
S5 Sb1 2.506534 1_555
S6 Sb3 2.609793 1_554
S7 Sb2 2.609793 1_555
S8 Sb0 2.609793 1_556
S9 Sb1 2.609793 1_555
S10 Sb2 2.506534 1_555
S11 Sb3 2.506534 1_555
S12 Sb2 2.510042 1_555
S13 Sb3 2.510042 1_554
S14 Sb3 2.951403 1_555
S15 Sb2 2.951403 1_555
S16 Sb4 2.951403 1_555
S17 Sb5 2.951403 1_555
S18 Sb4 2.510042 1_556
S19 Sb5 2.510042 1_555
S20 Sb4 2.506534 1_555
S21 Sb5 2.506534 1_555
S22 Sb6 2.609793 1_555
S23 Sb7 2.609793 1_554
S24 Sb5 2.609793 1_555
S25 Sb4 2.609793 1_556
S26 Sb6 2.506534 1_555
S27 Sb7 2.506534 1_555
S28 Sb6 2.510042 1_555
S29 Sb7 2.510042 1_554
S30 Sb6 2.951403 1_545
S31 Sb7 2.951403 1_545
