# generated using pymatgen
data_Li32Mn11Cr5O48
_symmetry_space_group_name_H-M   'P 1'
_cell_length_a   5.00784399
_cell_length_b   5.00784399
_cell_length_c   38.34902288
_cell_angle_alpha   88.94932062
_cell_angle_beta   88.94932062
_cell_angle_gamma   119.80345233
_symmetry_Int_Tables_number   1
_chemical_formula_structural   Li32Mn11Cr5O48
_chemical_formula_sum   'Li32 Mn11 Cr5 O48'
_cell_volume   833.97442442
_cell_formula_units_Z   1
loop_
 _symmetry_equiv_pos_site_id
 _symmetry_equiv_pos_as_xyz
  1  'x, y, z'
loop_
 _atom_site_type_symbol
 _atom_site_label
 _atom_site_symmetry_multiplicity
 _atom_site_fract_x
 _atom_site_fract_y
 _atom_site_fract_z
 _atom_site_occupancy
  Li  Li0  1  0.91518900  0.46633600  0.93742300  1
  Li  Li1  1  0.99790100  0.87525200  0.68735200  1
  Li  Li2  1  0.93975300  0.81176700  0.87501300  1
  Li  Li3  1  0.87567400  0.74991300  0.06246400  1
  Li  Li4  1  0.80989900  0.68501200  0.24998900  1
  Li  Li5  1  0.75125900  0.62428400  0.43747100  1
  Li  Li6  1  0.68735800  0.56253400  0.62499900  1
  Li  Li7  1  0.96570400  0.16436900  0.81253700  1
  Li  Li8  1  0.62193600  0.49800200  0.81262800  1
  Li  Li9  1  0.83563100  0.03429600  0.18746300  1
  Li  Li10  1  0.71396200  0.91406200  0.56242900  1
  Li  Li11  1  0.56265000  0.43735000  0.00000000  1
  Li  Li12  1  0.50199800  0.37806400  0.18737200  1
  Li  Li13  1  0.58400300  0.78386000  0.93766100  1
  Li  Li14  1  0.46429200  0.66086000  0.31253100  1
  Li  Li15  1  0.78589000  0.33724700  0.31269100  1
  Li  Li16  1  0.66275300  0.21411000  0.68730900  1
  Li  Li17  1  0.33914000  0.53570800  0.68746900  1
  Li  Li18  1  0.21614000  0.41599700  0.06233900  1
  Li  Li19  1  0.53366400  0.08481100  0.06257700  1
  Li  Li20  1  0.41362900  0.96453300  0.43733300  1
  Li  Li21  1  0.43746600  0.31264200  0.37500100  1
  Li  Li22  1  0.28668800  0.83775200  0.81275700  1
  Li  Li23  1  0.16224800  0.71331200  0.18724300  1
  Li  Li24  1  0.37571600  0.24874100  0.56252900  1
  Li  Li25  1  0.03546700  0.58637100  0.56266700  1
  Li  Li26  1  0.31498800  0.19010100  0.75001100  1
  Li  Li27  1  0.25008700  0.12432600  0.93753600  1
  Li  Li28  1  0.18823300  0.06024700  0.12498700  1
  Li  Li29  1  0.12474800  0.00209900  0.31264800  1
  Li  Li30  1  0.06322900  0.93677100  0.50000000  1
  Li  Li31  1  0.08593800  0.28603800  0.43757100  1
  Mn  Mn0  1  0.89537900  0.10462100  0.00000000  1
  Mn  Mn1  1  0.77046600  0.97943200  0.37501500  1
  Mn  Mn2  1  0.64618300  0.85485000  0.75003600  1
  Mn  Mn3  1  0.52009900  0.72922000  0.12494600  1
  Mn  Mn4  1  0.72913800  0.27086200  0.50000000  1
  Mn  Mn5  1  0.27078000  0.47990100  0.87505400  1
  Mn  Mn6  1  0.35456800  0.89521700  0.62504400  1
  Mn  Mn7  1  0.22951000  0.77049000  0.00000000  1
  Mn  Mn8  1  0.10478300  0.64543200  0.37495600  1
  Mn  Mn9  1  0.14515000  0.35381700  0.24996400  1
  Mn  Mn10  1  0.02056800  0.22953400  0.62498500  1
  Cr  Cr0  1  0.98469600  0.52319300  0.75003300  1
  Cr  Cr1  1  0.85663000  0.39115700  0.12492400  1
  Cr  Cr2  1  0.39401500  0.60598500  0.50000000  1
  Cr  Cr3  1  0.60884300  0.14337000  0.87507600  1
  Cr  Cr4  1  0.47680700  0.01530400  0.24996700  1
  O  O0  1  0.91127600  0.42905800  0.02806400  1
  O  O1  1  0.95173000  0.46821200  0.84675900  1
  O  O2  1  0.92897500  0.80406300  0.97153200  1
  O  O3  1  0.80446700  0.67923700  0.34651900  1
  O  O4  1  0.94321600  0.81701200  0.77852800  1
  O  O5  1  0.81984900  0.69638600  0.15350900  1
  O  O6  1  0.69901800  0.57049800  0.52873600  1
  O  O7  1  0.67582200  0.55486300  0.72124500  1
  O  O8  1  0.55622200  0.43093100  0.09644300  1
  O  O9  1  0.92797600  0.16283000  0.90302800  1
  O  O10  1  0.56906900  0.44377800  0.90355700  1
  O  O11  1  0.80323500  0.03919300  0.27794300  1
  O  O12  1  0.67912600  0.91133500  0.65297900  1
  O  O13  1  0.96080700  0.19676500  0.72205700  1
  O  O14  1  0.83717000  0.07202400  0.09697200  1
  O  O15  1  0.71607300  0.94922400  0.47179600  1
  O  O16  1  0.78602600  0.30402200  0.40298200  1
  O  O17  1  0.82417700  0.34062500  0.22173900  1
  O  O18  1  0.69597800  0.21397400  0.59701800  1
  O  O19  1  0.55409400  0.78633400  0.02798700  1
  O  O20  1  0.42890900  0.66116400  0.40303900  1
  O  O21  1  0.58642400  0.82260100  0.84714100  1
  O  O22  1  0.46241800  0.69184700  0.22176500  1
  O  O23  1  0.33883600  0.57109100  0.59696100  1
  O  O24  1  0.65937500  0.17582300  0.77826100  1
  O  O25  1  0.53178800  0.04827000  0.15324100  1
  O  O26  1  0.41369100  0.92910600  0.52806300  1
  O  O27  1  0.57094200  0.08872400  0.97193600  1
  O  O28  1  0.44614200  0.96321900  0.34697900  1
  O  O29  1  0.30815300  0.53758200  0.77823500  1
  O  O30  1  0.17739900  0.41357600  0.15285900  1
  O  O31  1  0.21366600  0.44590600  0.97201300  1
  O  O32  1  0.28115100  0.79775100  0.90341000  1
  O  O33  1  0.16210700  0.67869300  0.27798000  1
  O  O34  1  0.03678100  0.55385800  0.65302100  1
  O  O35  1  0.32130700  0.83789300  0.72202000  1
  O  O36  1  0.20224900  0.71884900  0.09659000  1
  O  O37  1  0.42950200  0.30098200  0.47126400  1
  O  O38  1  0.07089400  0.58630900  0.47193700  1
  O  O39  1  0.44513700  0.32417800  0.27875500  1
  O  O40  1  0.32076300  0.19553300  0.65348100  1
  O  O41  1  0.30361400  0.18015100  0.84649100  1
  O  O42  1  0.18298800  0.05678400  0.22147200  1
  O  O43  1  0.05424900  0.92899000  0.59653900  1
  O  O44  1  0.19593700  0.07102500  0.02846800  1
  O  O45  1  0.07101000  0.94575100  0.40346100  1
  O  O46  1  0.05077600  0.28392700  0.52820400  1
  O  O47  1  0.08866500  0.32087400  0.34702100  1
loop_
_geom_bond_atom_site_label_1
_geom_bond_atom_site_label_2
_geom_bond_distance
_geom_bond_site_symmetry_2
Li0 O9 2.054557 1_555
Li0 O31 2.055240 1_655
Li0 O2 2.131800 1_555
Li0 O10 2.144092 1_555
Li0 O32 2.150345 1_655
Li0 O27 2.209886 1_555
Li1 O7 2.034539 1_555
Li1 O40 2.035348 1_665
Li1 O12 2.161903 1_555
Li1 O34 2.177504 1_655
Li1 O13 2.182893 1_565
Li1 O35 2.190107 1_655
Li2 O32 2.073299 1_655
Li2 O1 2.075133 1_555
Li2 O9 2.102028 1_565
Li2 O41 2.105072 1_665
Li2 O21 2.106872 1_555
Li2 O10 2.119234 1_555
Li3 O8 2.028761 1_555
Li3 O44 2.034831 1_665
Li3 O0 2.169736 1_555
Li3 O36 2.176114 1_655
Li3 O19 2.176248 1_555
Li3 O14 2.183708 1_565
Li4 O22 2.080302 1_555
Li4 O17 2.083606 1_555
Li4 O33 2.094736 1_655
Li4 O39 2.095410 1_555
Li4 O11 2.103218 1_565
Li4 O42 2.132036 1_665
Li5 O45 2.034867 1_655
Li5 O37 2.037219 1_555
Li5 O16 2.167673 1_555
Li5 O38 2.171706 1_655
Li5 O20 2.179253 1_555
Li5 O15 2.183297 1_555
Li6 O18 2.083764 1_555
Li6 O12 2.083948 1_555
Li6 O23 2.084625 1_555
Li6 O34 2.088423 1_655
Li6 O43 2.106190 1_655
Li6 O40 2.107135 1_555
Li7 O1 2.053829 1_555
Li7 O24 2.059861 1_555
Li7 O41 2.125299 1_655
Li7 O4 2.152533 1_545
Li7 O29 2.192145 1_655
Li7 O21 2.211497 1_545
Li8 O41 2.021678 1_555
Li8 O4 2.035205 1_555
Li8 O29 2.150381 1_555
Li8 O24 2.178272 1_555
Li8 O1 2.186350 1_555
Li8 O21 2.187099 1_555
Li9 O25 2.053829 1_555
Li9 O17 2.059861 1_555
Li9 O5 2.125299 1_545
Li9 O42 2.152533 1_655
Li9 O22 2.192145 1_545
Li9 O30 2.211497 1_655
Li10 O26 2.045810 1_555
Li10 O18 2.055839 1_565
Li10 O43 2.139941 1_655
Li10 O6 2.142979 1_555
Li10 O46 2.173120 1_665
Li10 O23 2.202429 1_555
Li11 O0 2.085034 1_555
Li11 O27 2.085034 1_554
Li11 O19 2.085569 1_555
Li11 O31 2.085569 1_554
Li11 O2 2.105675 1_554
Li11 O44 2.105675 1_555
Li12 O5 2.021678 1_555
Li12 O42 2.035205 1_555
Li12 O22 2.150381 1_555
Li12 O17 2.178272 1_555
Li12 O25 2.186350 1_555
Li12 O30 2.187099 1_555
Li13 O32 2.050577 1_555
Li13 O27 2.057307 1_565
Li13 O10 2.138975 1_555
Li13 O2 2.143661 1_555
Li13 O31 2.178945 1_555
Li13 O9 2.215152 1_565
Li14 O28 2.062011 1_555
Li14 O33 2.063296 1_555
Li14 O39 2.110352 1_555
Li14 O3 2.130583 1_555
Li14 O47 2.197549 1_555
Li14 O11 2.204220 1_565
Li15 O11 2.051510 1_555
Li15 O47 2.057133 1_655
Li15 O3 2.133589 1_555
Li15 O39 2.140896 1_555
Li15 O28 2.189042 1_545
Li15 O33 2.206236 1_655
Li16 O13 2.051510 1_555
Li16 O12 2.057133 1_545
Li16 O40 2.133589 1_555
Li16 O7 2.140896 1_555
Li16 O34 2.189042 1_655
Li16 O35 2.206236 1_545
Li17 O34 2.062011 1_555
Li17 O35 2.063296 1_555
Li17 O7 2.110352 1_555
Li17 O40 2.130583 1_555
Li17 O12 2.197549 1_555
Li17 O13 2.204220 1_455
Li18 O36 2.050577 1_555
Li18 O0 2.057307 1_455
Li18 O8 2.138975 1_555
Li18 O44 2.143661 1_555
Li18 O19 2.178945 1_555
Li18 O14 2.215152 1_455
Li19 O14 2.054557 1_555
Li19 O19 2.055240 1_545
Li19 O44 2.131800 1_555
Li19 O8 2.144092 1_555
Li19 O36 2.150345 1_545
Li19 O0 2.209886 1_555
Li20 O20 2.056365 1_555
Li20 O15 2.057103 1_555
Li20 O37 2.118818 1_565
Li20 O45 2.136783 1_555
Li20 O16 2.186248 1_565
Li20 O38 2.210692 1_555
Li21 O16 2.083764 1_555
Li21 O47 2.083948 1_555
Li21 O20 2.084625 1_555
Li21 O28 2.088423 1_545
Li21 O45 2.106190 1_545
Li21 O3 2.107135 1_555
Li22 O21 2.044423 1_555
Li22 O29 2.062095 1_555
Li22 O41 2.135833 1_565
Li22 O4 2.145376 1_455
Li22 O1 2.164310 1_455
Li22 O24 2.187682 1_565
Li23 O30 2.044423 1_555
Li23 O22 2.062095 1_555
Li23 O5 2.135833 1_455
Li23 O42 2.145376 1_565
Li23 O25 2.164310 1_565
Li23 O17 2.187682 1_455
Li24 O43 2.034867 1_545
Li24 O6 2.037219 1_555
Li24 O18 2.167673 1_555
Li24 O26 2.171706 1_545
Li24 O23 2.179253 1_555
Li24 O46 2.183297 1_555
Li25 O23 2.056365 1_555
Li25 O46 2.057103 1_555
Li25 O6 2.118818 1_455
Li25 O43 2.136783 1_555
Li25 O18 2.186248 1_455
Li25 O26 2.210692 1_555
Li26 O29 2.080302 1_555
Li26 O24 2.083606 1_555
Li26 O35 2.094736 1_545
Li26 O7 2.095410 1_555
Li26 O13 2.103218 1_455
Li26 O4 2.132036 1_445
Li27 O10 2.028761 1_555
Li27 O2 2.034831 1_445
Li27 O27 2.169736 1_555
Li27 O32 2.176114 1_545
Li27 O31 2.176248 1_555
Li27 O9 2.183708 1_455
Li28 O36 2.073299 1_545
Li28 O25 2.075133 1_555
Li28 O14 2.102028 1_455
Li28 O5 2.105072 1_445
Li28 O30 2.106872 1_555
Li28 O8 2.119234 1_555
Li29 O39 2.034539 1_555
Li29 O3 2.035348 1_445
Li29 O47 2.161903 1_555
Li29 O28 2.177504 1_545
Li29 O11 2.182893 1_455
Li29 O33 2.190107 1_545
Li30 O15 2.090548 1_455
Li30 O46 2.090548 1_565
Li30 O38 2.091556 1_555
Li30 O26 2.091556 1_555
Li30 O6 2.105243 1_455
Li30 O37 2.105243 1_565
Li31 O38 2.045810 1_555
Li31 O16 2.055839 1_455
Li31 O45 2.139941 1_545
Li31 O37 2.142979 1_555
Li31 O15 2.173120 1_445
Li31 O20 2.202429 1_555
Mn0 O0 1.934695 1_555
Mn0 O27 1.934695 1_554
Mn0 O19 1.943081 1_545
Mn0 O31 1.943081 1_654
Mn0 O2 1.947018 1_544
Mn0 O44 1.947018 1_655
Mn1 O28 1.933032 1_555
Mn1 O16 1.933823 1_565
Mn1 O47 1.943420 1_665
Mn1 O20 1.944415 1_555
Mn1 O45 1.946672 1_655
Mn1 O3 1.947066 1_555
Mn2 O24 1.928861 1_565
Mn2 O35 1.933527 1_555
Mn2 O13 1.937632 1_565
Mn2 O29 1.937954 1_555
Mn2 O7 1.942788 1_555
Mn2 O4 1.942835 1_555
Mn3 O36 1.924112 1_555
Mn3 O25 1.925251 1_565
Mn3 O30 1.940019 1_555
Mn3 O5 1.944019 1_555
Mn3 O14 1.944099 1_565
Mn3 O8 1.944260 1_555
Mn4 O46 1.931387 1_655
Mn4 O15 1.931387 1_545
Mn4 O26 1.940447 1_545
Mn4 O38 1.940447 1_655
Mn4 O6 1.941205 1_555
Mn4 O37 1.941205 1_555
Mn5 O32 1.924112 1_555
Mn5 O1 1.925251 1_455
Mn5 O21 1.940019 1_555
Mn5 O41 1.944019 1_555
Mn5 O9 1.944099 1_455
Mn5 O10 1.944260 1_555
Mn6 O12 1.931965 1_555
Mn6 O23 1.934123 1_555
Mn6 O34 1.942120 1_555
Mn6 O18 1.945029 1_565
Mn6 O40 1.945817 1_565
Mn6 O43 1.947251 1_555
Mn7 O19 1.933714 1_555
Mn7 O31 1.933714 1_554
Mn7 O0 1.944863 1_455
Mn7 O27 1.944863 1_564
Mn7 O44 1.946870 1_565
Mn7 O2 1.946870 1_454
Mn8 O47 1.931965 1_555
Mn8 O20 1.934123 1_555
Mn8 O28 1.942120 1_555
Mn8 O16 1.945029 1_455
Mn8 O3 1.945817 1_455
Mn8 O45 1.947251 1_555
Mn9 O17 1.928861 1_455
Mn9 O33 1.933527 1_555
Mn9 O11 1.937632 1_455
Mn9 O22 1.937954 1_555
Mn9 O39 1.942788 1_555
Mn9 O42 1.942835 1_555
Mn10 O34 1.933032 1_555
Mn10 O18 1.933823 1_455
Mn10 O12 1.943420 1_445
Mn10 O23 1.944415 1_555
Mn10 O43 1.946672 1_545
Mn10 O40 1.947066 1_555
Cr0 O35 1.926136 1_655
Cr0 O13 1.926706 1_555
Cr0 O29 1.936434 1_655
Cr0 O4 1.938234 1_555
Cr0 O24 1.975143 1_555
Cr0 O7 1.984082 1_555
Cr1 O14 1.903816 1_555
Cr1 O30 1.904964 1_655
Cr1 O8 1.961115 1_555
Cr1 O25 1.965756 1_555
Cr1 O5 1.976347 1_555
Cr1 O36 1.977765 1_655
Cr2 O26 1.922375 1_555
Cr2 O38 1.922375 1_555
Cr2 O15 1.959000 1_555
Cr2 O46 1.959000 1_555
Cr2 O6 1.975684 1_555
Cr2 O37 1.975684 1_555
Cr3 O9 1.903816 1_555
Cr3 O21 1.904964 1_545
Cr3 O10 1.961115 1_555
Cr3 O1 1.965756 1_555
Cr3 O41 1.976347 1_555
Cr3 O32 1.977765 1_545
Cr4 O33 1.926136 1_545
Cr4 O11 1.926706 1_555
Cr4 O22 1.936434 1_545
Cr4 O42 1.938234 1_555
Cr4 O17 1.975143 1_555
Cr4 O39 1.984082 1_555
