# generated using pymatgen
data_Ba3CuP2Br3O7
_symmetry_space_group_name_H-M   'P 1'
_cell_length_a   7.10247400
_cell_length_b   10.42469836
_cell_length_c   10.54512238
_cell_angle_alpha   118.29840197
_cell_angle_beta   90.37166289
_cell_angle_gamma   90.56750948
_symmetry_Int_Tables_number   1
_chemical_formula_structural   Ba3CuP2Br3O7
_chemical_formula_sum   'Ba6 Cu2 P4 Br6 O14'
_cell_volume   687.37408207
_cell_formula_units_Z   2
loop_
 _symmetry_equiv_pos_site_id
 _symmetry_equiv_pos_as_xyz
  1  'x, y, z'
loop_
 _atom_site_type_symbol
 _atom_site_label
 _atom_site_symmetry_multiplicity
 _atom_site_fract_x
 _atom_site_fract_y
 _atom_site_fract_z
 _atom_site_occupancy
  Ba  Ba0  1  0.75524300  0.60400200  0.93247100  1
  Ba  Ba1  1  0.75761100  0.06331900  0.67314400  1
  Ba  Ba2  1  0.25226300  0.64404000  0.60995200  1
  Ba  Ba3  1  0.73684000  0.33265300  0.39249900  1
  Ba  Ba4  1  0.25768600  0.98437700  0.37613800  1
  Ba  Ba5  1  0.23638600  0.36959900  0.01202600  1
  Cu  Cu0  1  0.25044100  0.00133700  0.00440000  1
  Cu  Cu1  1  0.74650200  0.99331300  0.99023200  1
  P  P0  1  0.02701900  0.31746900  0.64328100  1
  P  P1  1  0.47106800  0.33424200  0.67423300  1
  P  P2  1  0.91081200  0.69248600  0.37287400  1
  P  P3  1  0.59164700  0.68955100  0.36631900  1
  Br  Br0  1  0.25435900  0.01823300  0.78411300  1
  Br  Br1  1  0.24634200  0.76243200  0.97824200  1
  Br  Br2  1  0.74807300  0.79253300  0.75488900  1
  Br  Br3  1  0.25091300  0.21613700  0.23332000  1
  Br  Br4  1  0.73958500  0.23636400  0.02905100  1
  Br  Br5  1  0.74041800  0.96604300  0.19980200  1
  O  O0  1  0.96102200  0.33981200  0.79156900  1
  O  O1  1  0.24431200  0.27559800  0.62774500  1
  O  O2  1  0.55201900  0.18998300  0.54971000  1
  O  O3  1  0.94500200  0.17835800  0.51649400  1
  O  O4  1  0.49488200  0.45865800  0.63070300  1
  O  O5  1  0.99582600  0.45445600  0.62584700  1
  O  O6  1  0.52469800  0.56152100  0.38722300  1
  O  O7  1  0.97219700  0.56262900  0.39064000  1
  O  O8  1  0.52407100  0.84039800  0.47501700  1
  O  O9  1  0.97928700  0.84301600  0.48610100  1
  O  O10  1  0.00001400  0.69448100  0.23204300  1
  O  O11  1  0.50899500  0.68505200  0.21992900  1
  O  O12  1  0.97307600  0.55427200  0.10001800  1
  O  O13  1  0.52539100  0.54163700  0.08897300  1
loop_
_geom_bond_atom_site_label_1
_geom_bond_atom_site_label_2
_geom_bond_distance
_geom_bond_site_symmetry_2
Ba0 O12 2.575441 1_556
Ba0 O13 2.615837 1_556
Ba0 O0 2.856032 1_555
Ba1 O2 2.685720 1_555
Ba1 O9 2.731421 1_545
Ba1 O8 2.791439 1_545
Ba1 O3 2.795267 1_555
Ba1 O0 2.904484 1_555
Ba1 Br4 3.308760 1_556
Ba1 Br2 3.319682 1_545
Ba2 O4 2.685901 1_555
Ba2 O5 2.738263 1_455
Ba2 O7 2.841028 1_455
Ba2 O6 2.859510 1_555
Ba3 O4 2.821459 1_555
Ba3 O5 2.825492 1_555
Ba3 O6 2.856876 1_555
Ba3 O3 2.915273 1_555
Ba3 O7 2.916840 1_555
Ba3 O2 3.001802 1_555
Ba3 Br5 3.372737 1_545
Ba3 Br4 3.471401 1_555
Ba4 O8 2.904160 1_555
Ba4 O2 2.907983 1_565
Ba4 O3 2.916476 1_465
Ba4 O1 2.938907 1_565
Ba4 O9 3.003036 1_455
Ba4 O10 3.208060 1_555
Ba4 O11 3.303203 1_555
Ba4 Br3 3.399835 1_565
Ba4 Br1 3.708436 1_554
Ba4 Br5 3.874040 1_555
Ba5 O12 2.542607 1_455
Ba5 O13 2.571758 1_555
Ba5 O0 2.927531 1_454
Ba5 Br0 3.297853 1_554
Ba5 Br3 3.399306 1_555
Br0 Cu0 2.411759 1_556
Br1 Cu0 2.372067 1_566
Br2 Cu1 2.369781 1_555
Br3 Cu0 2.390850 1_555
Br4 Cu1 2.368360 1_544
Br5 Cu1 2.358639 1_554
O0 P0 1.544513 1_655
O1 P0 1.596252 1_555
O1 P1 1.701167 1_555
O2 P1 1.571955 1_555
O3 P0 1.537780 1_655
O4 P1 1.575646 1_555
O5 P0 1.541707 1_655
O6 P3 1.524397 1_555
O7 P2 1.519483 1_555
O8 P3 1.526490 1_555
O9 P2 1.524965 1_555
O10 O12 1.474078 1_455
O10 P2 1.627426 1_455
O11 O13 1.484523 1_555
O11 P3 1.627536 1_555
