# generated using pymatgen
data_Li24Ti7Cr5O36
_symmetry_space_group_name_H-M   'P 1'
_cell_length_a   5.06340600
_cell_length_b   5.06743807
_cell_length_c   28.97833371
_cell_angle_alpha   89.89974416
_cell_angle_beta   89.90235624
_cell_angle_gamma   60.10200532
_symmetry_Int_Tables_number   1
_chemical_formula_structural   Li24Ti7Cr5O36
_chemical_formula_sum   'Li24 Ti7 Cr5 O36'
_cell_volume   644.58450424
_cell_formula_units_Z   1
loop_
 _symmetry_equiv_pos_site_id
 _symmetry_equiv_pos_as_xyz
  1  'x, y, z'
loop_
 _atom_site_type_symbol
 _atom_site_label
 _atom_site_symmetry_multiplicity
 _atom_site_fract_x
 _atom_site_fract_y
 _atom_site_fract_z
 _atom_site_occupancy
  Li  Li0  1  0.83599000  0.49365500  0.66667800  1
  Li  Li1  1  0.83323400  0.50019000  0.91673500  1
  Li  Li2  1  0.50185100  0.82216500  0.83305400  1
  Li  Li3  1  0.16935600  0.50047800  0.33333500  1
  Li  Li4  1  0.16333700  0.50186600  0.58336700  1
  Li  Li5  1  0.16610900  0.49704300  0.83321600  1
  Li  Li6  1  0.83500600  0.82512400  0.49980300  1
  Li  Li7  1  0.50061200  0.49641000  0.00020200  1
  Li  Li8  1  0.49750300  0.49860000  0.24998300  1
  Li  Li9  1  0.50562700  0.49361800  0.49985100  1
  Li  Li10  1  0.15733200  0.17676700  0.99999300  1
  Li  Li11  1  0.16466900  0.81963800  0.16646100  1
  Li  Li12  1  0.83339000  0.49998800  0.16665700  1
  Li  Li13  1  0.17073400  0.82747800  0.66684500  1
  Li  Li14  1  0.49444400  0.17596600  0.66649600  1
  Li  Li15  1  0.51214600  0.82390500  0.33367700  1
  Li  Li16  1  0.81756000  0.17709900  0.33304100  1
  Li  Li17  1  0.83236000  0.18073000  0.83328900  1
  Li  Li18  1  0.84281300  0.82527600  0.00048700  1
  Li  Li19  1  0.50210500  0.50198600  0.74998800  1
  Li  Li20  1  0.16056000  0.17931900  0.50001200  1
  Li  Li21  1  0.82997500  0.50176900  0.41666600  1
  Li  Li22  1  0.50194400  0.18038800  0.16684200  1
  Li  Li23  1  0.16894200  0.50155800  0.08335800  1
  Ti  Ti0  1  0.83066300  0.83195600  0.74984300  1
  Ti  Ti1  1  0.17092400  0.83205100  0.41674900  1
  Ti  Ti2  1  0.50110900  0.16458800  0.91664500  1
  Ti  Ti3  1  0.49704500  0.83244600  0.08320800  1
  Ti  Ti4  1  0.16944200  0.16738800  0.25014500  1
  Ti  Ti5  1  0.16630200  0.83379800  0.91669800  1
  Ti  Ti6  1  0.50470200  0.83061200  0.58349500  1
  Cr  Cr0  1  0.16889700  0.16728500  0.75009200  1
  Cr  Cr1  1  0.49738100  0.16748500  0.41655600  1
  Cr  Cr2  1  0.83539600  0.16759000  0.08353900  1
  Cr  Cr3  1  0.83151900  0.16623300  0.58315300  1
  Cr  Cr4  1  0.83144000  0.83226300  0.24984600  1
  O  O0  1  0.85316600  0.50415000  0.78880200  1
  O  O1  1  0.14621500  0.49055100  0.71184800  1
  O  O2  1  0.19647200  0.49084300  0.45478700  1
  O  O3  1  0.47847500  0.85500600  0.95465100  1
  O  O4  1  0.50337000  0.85299400  0.71175100  1
  O  O5  1  0.47608900  0.50478000  0.37782500  1
  O  O6  1  0.18841300  0.14478400  0.87880600  1
  O  O7  1  0.52034800  0.50380600  0.12228800  1
  O  O8  1  0.80999700  0.85230500  0.62158500  1
  O  O9  1  0.82770900  0.86058400  0.37948000  1
  O  O10  1  0.83286100  0.85615600  0.87865300  1
  O  O11  1  0.48973100  0.14730200  0.78731300  1
  O  O12  1  0.81285200  0.49069100  0.04534200  1
  O  O13  1  0.52930700  0.14770500  0.54600400  1
  O  O14  1  0.13904400  0.85599400  0.28726800  1
  O  O15  1  0.14460600  0.86068000  0.78718500  1
  O  O16  1  0.17048100  0.85289700  0.04525200  1
  O  O17  1  0.16058600  0.86110400  0.54603300  1
  O  O18  1  0.82795800  0.14496900  0.45371800  1
  O  O19  1  0.83356900  0.14477100  0.95452700  1
  O  O20  1  0.85552800  0.13921100  0.21278600  1
  O  O21  1  0.86035300  0.14508800  0.71289000  1
  O  O22  1  0.47566900  0.85418500  0.45495500  1
  O  O23  1  0.18919100  0.49957200  0.95525700  1
  O  O24  1  0.51024900  0.85344000  0.21248600  1
  O  O25  1  0.15631400  0.14662400  0.12088300  1
  O  O26  1  0.16171600  0.14433300  0.62039000  1
  O  O27  1  0.19594400  0.14779600  0.37924300  1
  O  O28  1  0.47682300  0.50054900  0.87806700  1
  O  O29  1  0.81137300  0.86070900  0.12054000  1
  O  O30  1  0.53000200  0.48969200  0.62145700  1
  O  O31  1  0.49657400  0.14703100  0.28806800  1
  O  O32  1  0.52686500  0.14492600  0.04626200  1
  O  O33  1  0.80927400  0.50431500  0.54441400  1
  O  O34  1  0.85422900  0.50950200  0.28809300  1
  O  O35  1  0.14622600  0.49624500  0.21109300  1
loop_
_geom_bond_atom_site_label_1
_geom_bond_atom_site_label_2
_geom_bond_distance
_geom_bond_site_symmetry_2
Li0 O30 2.038656 1_555
Li0 O1 2.040417 1_655
Li0 O21 2.168768 1_555
Li0 O26 2.177869 1_655
Li0 O8 2.186717 1_555
Li0 O4 2.191296 1_555
Li1 O19 2.105527 1_555
Li1 O3 2.108822 1_555
Li1 O6 2.111207 1_655
Li1 O10 2.112179 1_555
Li1 O23 2.120341 1_655
Li1 O28 2.125085 1_555
Li2 O6 2.088805 1_565
Li2 O11 2.089777 1_565
Li2 O0 2.132458 1_555
Li2 O28 2.138122 1_555
Li2 O15 2.175374 1_555
Li2 O10 2.209292 1_555
Li3 O5 2.028662 1_555
Li3 O34 2.049654 1_455
Li3 O31 2.171686 1_555
Li3 O27 2.175871 1_555
Li3 O14 2.183544 1_555
Li3 O9 2.228063 1_455
Li4 O8 2.100902 1_455
Li4 O26 2.107518 1_555
Li4 O17 2.110082 1_555
Li4 O33 2.114947 1_455
Li4 O13 2.124044 1_555
Li4 O30 2.135785 1_555
Li5 O0 2.029409 1_455
Li5 O28 2.049305 1_555
Li5 O11 2.168222 1_555
Li5 O6 2.176191 1_555
Li5 O10 2.198212 1_455
Li5 O15 2.231278 1_555
Li6 O13 2.082942 1_565
Li6 O18 2.084861 1_565
Li6 O33 2.129378 1_555
Li6 O22 2.182073 1_555
Li6 O2 2.197675 1_655
Li6 O17 2.203107 1_655
Li7 O23 2.040780 1_554
Li7 O12 2.042722 1_555
Li7 O32 2.174364 1_555
Li7 O16 2.179970 1_555
Li7 O19 2.185206 1_554
Li7 O3 2.201381 1_554
Li8 O31 2.096052 1_555
Li8 O35 2.112312 1_555
Li8 O14 2.113018 1_555
Li8 O20 2.115144 1_555
Li8 O24 2.127616 1_555
Li8 O34 2.142825 1_555
Li9 O33 2.030891 1_555
Li9 O2 2.045703 1_555
Li9 O13 2.158371 1_555
Li9 O18 2.167616 1_555
Li9 O22 2.184072 1_555
Li9 O17 2.251326 1_555
Li10 O16 2.074099 1_546
Li10 O3 2.094318 1_545
Li10 O12 2.129154 1_456
Li10 O23 2.153454 1_555
Li10 O19 2.173179 1_455
Li10 O32 2.243121 1_556
Li11 O20 2.085227 1_465
Li11 O25 2.101064 1_565
Li11 O35 2.124104 1_555
Li11 O7 2.137591 1_555
Li11 O29 2.156431 1_455
Li11 O24 2.275426 1_555
Li12 O7 2.035239 1_555
Li12 O35 2.035805 1_655
Li12 O25 2.172905 1_655
Li12 O24 2.174453 1_555
Li12 O29 2.220026 1_555
Li12 O20 2.220242 1_555
Li13 O26 2.076524 1_565
Li13 O21 2.078317 1_465
Li13 O4 2.184499 1_555
Li13 O1 2.198672 1_555
Li13 O8 2.202460 1_455
Li13 O30 2.205585 1_555
Li14 O4 2.078315 1_545
Li14 O8 2.079563 1_545
Li14 O30 2.130858 1_555
Li14 O1 2.138857 1_555
Li14 O26 2.219635 1_555
Li14 O21 2.232345 1_555
Li15 O31 2.073224 1_565
Li15 O27 2.093190 1_565
Li15 O34 2.128825 1_555
Li15 O5 2.138104 1_555
Li15 O9 2.157188 1_555
Li15 O14 2.259574 1_555
Li16 O9 2.072846 1_545
Li16 O14 2.101547 1_645
Li16 O5 2.137442 1_555
Li16 O31 2.148951 1_555
Li16 O34 2.207174 1_555
Li16 O27 2.282484 1_655
Li17 O15 2.087838 1_645
Li17 O10 2.102766 1_545
Li17 O0 2.126811 1_555
Li17 O28 2.154519 1_555
Li17 O6 2.168658 1_655
Li17 O11 2.261670 1_555
Li18 O19 2.077101 1_564
Li18 O32 2.087957 1_565
Li18 O23 2.152200 1_654
Li18 O16 2.166680 1_655
Li18 O12 2.198925 1_555
Li18 O3 2.218284 1_554
Li19 O4 2.096677 1_555
Li19 O21 2.108710 1_555
Li19 O0 2.109797 1_555
Li19 O15 2.112476 1_555
Li19 O11 2.123553 1_555
Li19 O1 2.140857 1_555
Li20 O22 2.084424 1_545
Li20 O17 2.090706 1_545
Li20 O2 2.126212 1_555
Li20 O33 2.147313 1_455
Li20 O18 2.228661 1_455
Li20 O13 2.235533 1_555
Li21 O18 2.105614 1_555
Li21 O9 2.107091 1_555
Li21 O22 2.108318 1_555
Li21 O5 2.111265 1_555
Li21 O27 2.124537 1_655
Li21 O2 2.138093 1_655
Li22 O29 2.085544 1_545
Li22 O24 2.102209 1_545
Li22 O7 2.122748 1_555
Li22 O35 2.139079 1_555
Li22 O20 2.157813 1_555
Li22 O25 2.274419 1_555
Li23 O16 2.096695 1_555
Li23 O32 2.107391 1_555
Li23 O7 2.113254 1_555
Li23 O29 2.113412 1_455
Li23 O25 2.128169 1_555
Li23 O12 2.138579 1_455
Cr0 O11 1.911616 1_555
Cr0 O1 1.931683 1_555
Cr0 O15 1.941321 1_545
Cr0 O21 1.948571 1_455
Cr0 O4 1.987462 1_545
Cr0 O0 2.002020 1_455
Cr1 O27 1.914810 1_555
Cr1 O2 1.935330 1_555
Cr1 O9 1.943469 1_545
Cr1 O18 1.946740 1_555
Cr1 O22 1.984500 1_545
Cr1 O5 2.000687 1_555
Cr2 O25 1.912140 1_655
Cr2 O12 1.930473 1_555
Cr2 O29 1.940387 1_545
Cr2 O32 1.950808 1_555
Cr2 O16 1.988758 1_645
Cr2 O7 1.999868 1_555
Cr3 O13 1.912715 1_555
Cr3 O30 1.937898 1_555
Cr3 O17 1.937898 1_645
Cr3 O26 1.947506 1_655
Cr3 O8 1.987229 1_545
Cr3 O33 2.002327 1_555
Cr4 O24 1.913147 1_555
Cr4 O34 1.929445 1_555
Cr4 O20 1.941764 1_565
Cr4 O14 1.951733 1_655
Cr4 O31 1.987350 1_565
Cr4 O35 1.998983 1_655
O0 Ti0 1.962679 1_555
O1 Ti0 2.000796 1_455
O2 Ti1 1.998050 1_555
O3 Ti2 1.964679 1_565
O3 Ti5 1.973655 1_555
O4 Ti0 1.950871 1_555
O5 Ti1 1.963714 1_555
O6 Ti5 1.967517 1_545
O6 Ti2 1.970780 1_555
O7 Ti3 1.966676 1_555
O8 Ti6 1.948248 1_555
O9 Ti1 1.990659 1_655
O10 Ti2 1.964434 1_565
O10 Ti5 1.973329 1_655
O11 Ti0 1.990537 1_545
O12 Ti3 2.000045 1_555
O13 Ti6 1.992689 1_545
O14 Ti4 1.976504 1_565
O15 Ti0 1.989000 1_455
O16 Ti3 1.946700 1_555
O17 Ti6 1.993938 1_555
O18 Ti1 1.982984 1_645
O19 Ti5 1.968862 1_645
O19 Ti2 1.971373 1_555
O20 Ti4 1.987838 1_655
O21 Ti0 1.979511 1_545
O22 Ti1 1.948883 1_555
O23 Ti5 1.982072 1_555
O23 Ti2 1.988922 1_555
O24 Ti4 1.990616 1_565
O25 Ti3 1.991120 1_545
O26 Ti6 1.983360 1_545
O27 Ti1 1.988189 1_545
O28 Ti5 1.982604 1_555
O28 Ti2 1.987048 1_555
O29 Ti3 1.989370 1_555
O30 Ti6 1.996083 1_555
O31 Ti4 1.948706 1_555
O32 Ti3 1.976944 1_545
O33 Ti6 1.963004 1_555
O34 Ti4 2.001103 1_655
O35 Ti4 1.967266 1_555
