# generated using pymatgen
data_Li3Ti3CrO8
_symmetry_space_group_name_H-M   'P 1'
_cell_length_a   10.47583851
_cell_length_b   10.47583808
_cell_length_c   14.86152857
_cell_angle_alpha   18.95649909
_cell_angle_beta   18.95650456
_cell_angle_gamma   32.67902261
_symmetry_Int_Tables_number   1
_chemical_formula_structural   Li3Ti3CrO8
_chemical_formula_sum   'Li3 Ti3 Cr1 O8'
_cell_volume   149.05211813
_cell_formula_units_Z   1
loop_
 _symmetry_equiv_pos_site_id
 _symmetry_equiv_pos_as_xyz
  1  'x, y, z'
loop_
 _atom_site_type_symbol
 _atom_site_label
 _atom_site_symmetry_multiplicity
 _atom_site_fract_x
 _atom_site_fract_y
 _atom_site_fract_z
 _atom_site_occupancy
  Li  Li0  1  0.00000000  0.50000000  0.50000000  1
  Li  Li1  1  0.50000000  0.00000000  0.50000000  1
  Li  Li2  1  0.50000000  0.50000000  0.50000000  1
  Ti  Ti0  1  0.00000000  0.50000000  0.00000000  1
  Ti  Ti1  1  0.50000000  0.00000000  0.00000000  1
  Ti  Ti2  1  0.50000000  0.50000000  0.00000000  1
  Cr  Cr0  1  0.00000000  0.00000000  0.00000000  1
  O  O0  1  0.00000000  0.00000000  0.25469200  1
  O  O1  1  0.00000000  0.50537800  0.25625800  1
  O  O2  1  0.50537800  0.00000000  0.25625800  1
  O  O3  1  0.00000000  0.00000000  0.74530800  1
  O  O4  1  0.49462200  0.49462200  0.26701200  1
  O  O5  1  0.00000000  0.49462200  0.74374200  1
  O  O6  1  0.49462200  0.00000000  0.74374200  1
  O  O7  1  0.50537800  0.50537800  0.73298800  1
loop_
_geom_bond_atom_site_label_1
_geom_bond_atom_site_label_2
_geom_bond_distance
_geom_bond_site_symmetry_2
Li0 O0 2.146299 1_565
Li0 O3 2.146299 1_555
Li0 O7 2.186750 1_455
Li0 O4 2.186750 1_555
Li0 O2 2.186769 1_456
Li0 O6 2.186769 1_564
Li1 O0 2.146299 1_655
Li1 O3 2.146299 1_555
Li1 O4 2.186749 1_555
Li1 O7 2.186749 1_545
Li1 O1 2.186769 1_546
Li1 O5 2.186769 1_654
Li2 O0 2.146299 1_556
Li2 O3 2.146299 1_664
Li2 O2 2.186768 1_565
Li2 O6 2.186768 1_555
Li2 O1 2.186769 1_655
Li2 O5 2.186769 1_555
Cr0 O1 2.006522 1_545
Cr0 O5 2.006522 1_554
Cr0 O2 2.006523 1_455
Cr0 O6 2.006523 1_554
Cr0 O7 2.006539 1_445
Cr0 O4 2.006539 1_554
O0 Ti0 2.064259 1_555
O0 Ti2 2.064260 1_446
O0 Ti1 2.064260 1_555
O1 Ti1 2.029669 1_456
O1 Ti2 2.029669 1_555
O2 Ti2 2.029669 1_555
O2 Ti0 2.029669 1_546
O3 Ti0 2.064259 1_546
O3 Ti2 2.064260 1_555
O3 Ti1 2.064260 1_456
O4 Ti1 2.029685 1_565
O4 Ti0 2.029685 1_655
O5 Ti1 2.029669 1_565
O5 Ti2 2.029669 1_456
O6 Ti2 2.029669 1_546
O6 Ti0 2.029669 1_655
O7 Ti1 2.029685 1_556
O7 Ti0 2.029685 1_556
