# generated using pymatgen
data_NaV5O8
_symmetry_space_group_name_H-M   'P 1'
_cell_length_a   3.05783000
_cell_length_b   7.88184062
_cell_length_c   14.49639645
_cell_angle_alpha   105.64614751
_cell_angle_beta   83.94607924
_cell_angle_gamma   101.18350402
_symmetry_Int_Tables_number   1
_chemical_formula_structural   NaV5O8
_chemical_formula_sum   'Na2 V10 O16'
_cell_volume   329.52476594
_cell_formula_units_Z   2
loop_
 _symmetry_equiv_pos_site_id
 _symmetry_equiv_pos_as_xyz
  1  'x, y, z'
loop_
 _atom_site_type_symbol
 _atom_site_label
 _atom_site_symmetry_multiplicity
 _atom_site_fract_x
 _atom_site_fract_y
 _atom_site_fract_z
 _atom_site_occupancy
  Na  Na0  1  0.00000800  0.99998700  0.99998600  1
  Na  Na1  1  0.00000200  0.49999900  0.50000900  1
  V  V0  1  0.50003200  0.75000000  0.75000100  1
  V  V1  1  0.84631600  0.40704600  0.71445100  1
  V  V2  1  0.15370600  0.09295000  0.78554900  1
  V  V3  1  0.79822200  0.01244700  0.41600600  1
  V  V4  1  0.20174600  0.48755200  0.08399400  1
  V  V5  1  0.49999500  0.25000000  0.25000000  1
  V  V6  1  0.84631900  0.90703200  0.21439900  1
  V  V7  1  0.15367400  0.59296100  0.28559300  1
  V  V8  1  0.79818900  0.51240600  0.91604600  1
  V  V9  1  0.20179500  0.98758700  0.58395700  1
  O  O0  1  0.91832800  0.14866100  0.31197300  1
  O  O1  1  0.91835000  0.64865600  0.81200400  1
  O  O2  1  0.08167200  0.35134900  0.18802200  1
  O  O3  1  0.08170700  0.85134500  0.68799500  1
  O  O4  1  0.42437100  0.99938600  0.15057000  1
  O  O5  1  0.42436700  0.49936400  0.65061000  1
  O  O6  1  0.57562700  0.50062900  0.34942900  1
  O  O7  1  0.57566700  0.00064000  0.84939200  1
  O  O8  1  0.32631300  0.14333300  0.49066000  1
  O  O9  1  0.32629900  0.64329600  0.99069500  1
  O  O10  1  0.67365600  0.35666900  0.00934700  1
  O  O11  1  0.67365700  0.85670700  0.50931000  1
  O  O12  1  0.26941900  0.86005400  0.32118500  1
  O  O13  1  0.26939600  0.36003300  0.82121600  1
  O  O14  1  0.73055900  0.63994700  0.17881500  1
  O  O15  1  0.73060600  0.13996400  0.67878800  1
loop_
_geom_bond_atom_site_label_1
_geom_bond_atom_site_label_2
_geom_bond_distance
_geom_bond_site_symmetry_2
Na0 O4 2.656026 1_556
Na0 O4 2.656193 1_456
Na0 O7 2.656244 1_465
Na0 O7 2.656380 1_565
Na1 O6 2.656069 1_455
Na1 O6 2.656150 1_555
Na1 O5 2.656330 1_555
Na1 O5 2.656401 1_455
O0 V5 2.026622 1_555
O0 V5 2.026712 1_655
O0 V6 2.031320 1_545
O0 V3 2.040950 1_555
O1 V0 2.026881 1_555
O1 V0 2.026959 1_655
O1 V1 2.031072 1_555
O1 V8 2.041258 1_555
O2 V5 2.026694 1_555
O2 V5 2.026795 1_455
O2 V7 2.031202 1_555
O2 V4 2.040828 1_555
O3 V0 2.026929 1_555
O3 V0 2.026965 1_455
O3 V2 2.031050 1_565
O3 V9 2.041165 1_555
O4 V6 2.007388 1_455
O4 V6 2.007535 1_555
O4 V5 2.095290 1_565
O5 V1 2.007377 1_455
O5 V1 2.007473 1_555
O5 V0 2.095166 1_555
O6 V7 2.007368 1_655
O6 V7 2.007504 1_555
O6 V5 2.095371 1_555
O7 V2 2.007342 1_655
O7 V2 2.007480 1_555
O7 V0 2.095189 1_545
O8 V3 1.990796 1_455
O8 V3 1.990877 1_555
O8 V9 2.021549 1_545
O9 V8 1.990812 1_455
O9 V8 1.990825 1_555
O9 V4 2.021561 1_556
O10 V4 1.990739 1_655
O10 V4 1.990834 1_555
O10 V8 2.021543 1_554
O11 V9 1.990709 1_555
O11 V9 1.990847 1_655
O11 V3 2.021596 1_565
O12 V7 1.996722 1_555
O12 V3 2.184306 1_465
O12 V3 2.184417 1_565
O12 V6 2.263784 1_455
O12 V6 2.263881 1_555
O13 V2 1.996639 1_555
O13 V8 2.184301 1_455
O13 V8 2.184431 1_555
O13 V1 2.263629 1_455
O13 V1 2.263780 1_555
O14 V6 1.996663 1_555
O14 V4 2.184293 1_655
O14 V4 2.184442 1_555
O14 V7 2.263752 1_655
O14 V7 2.263787 1_555
O15 V1 1.996632 1_555
O15 V9 2.184285 1_645
O15 V9 2.184486 1_545
O15 V2 2.263628 1_655
O15 V2 2.263703 1_555
