# generated using pymatgen
data_DyGaO3
_symmetry_space_group_name_H-M   'P 1'
_cell_length_a   5.30715300
_cell_length_b   5.59716500
_cell_length_c   7.63874000
_cell_angle_alpha   90.00000000
_cell_angle_beta   90.00000000
_cell_angle_gamma   90.00000000
_symmetry_Int_Tables_number   1
_chemical_formula_structural   DyGaO3
_chemical_formula_sum   'Dy4 Ga4 O12'
_cell_volume   226.90885589
_cell_formula_units_Z   4
loop_
 _symmetry_equiv_pos_site_id
 _symmetry_equiv_pos_as_xyz
  1  'x, y, z'
loop_
 _atom_site_type_symbol
 _atom_site_label
 _atom_site_symmetry_multiplicity
 _atom_site_fract_x
 _atom_site_fract_y
 _atom_site_fract_z
 _atom_site_occupancy
  Dy  Dy0  1  0.48158900  0.06768100  0.25000000  1
  Dy  Dy1  1  0.01841100  0.56768100  0.25000000  1
  Dy  Dy2  1  0.51841100  0.93231900  0.75000000  1
  Dy  Dy3  1  0.98158900  0.43231900  0.75000000  1
  Ga  Ga0  1  0.50000000  0.50000000  0.50000000  1
  Ga  Ga1  1  0.00000000  0.00000000  0.00000000  1
  Ga  Ga2  1  0.50000000  0.50000000  0.00000000  1
  Ga  Ga3  1  0.00000000  0.00000000  0.50000000  1
  O  O0  1  0.39038800  0.53744200  0.75000000  1
  O  O1  1  0.10961200  0.03744200  0.75000000  1
  O  O2  1  0.60961200  0.46255800  0.25000000  1
  O  O3  1  0.89038800  0.96255800  0.25000000  1
  O  O4  1  0.80572500  0.69548100  0.55611600  1
  O  O5  1  0.69427500  0.19548100  0.94388400  1
  O  O6  1  0.19427500  0.30451900  0.05611600  1
  O  O7  1  0.30572500  0.80451900  0.44388400  1
  O  O8  1  0.19427500  0.30451900  0.44388400  1
  O  O9  1  0.30572500  0.80451900  0.05611600  1
  O  O10  1  0.80572500  0.69548100  0.94388400  1
  O  O11  1  0.69427500  0.19548100  0.55611600  1
loop_
_geom_bond_atom_site_label_1
_geom_bond_atom_site_label_2
_geom_bond_distance
_geom_bond_site_symmetry_2
Dy0 O3 2.247930 1_545
Dy0 O7 2.287833 1_545
Dy0 O9 2.287833 1_545
Dy0 O2 2.312268 1_555
Dy0 O8 2.505154 1_555
Dy0 O6 2.505154 1_555
Dy0 O11 2.693252 1_555
Dy0 O5 2.693252 1_554
Dy1 O2 2.247930 1_455
Dy1 O8 2.287833 1_555
Dy1 O6 2.287833 1_555
Dy1 O3 2.312268 1_455
Dy1 O7 2.505154 1_555
Dy1 O9 2.505154 1_555
Dy1 O4 2.693252 1_455
Dy1 O10 2.693252 1_454
Dy2 O1 2.247930 1_565
Dy2 O11 2.287833 1_565
Dy2 O5 2.287833 1_565
Dy2 O0 2.312268 1_555
Dy2 O10 2.505154 1_555
Dy2 O4 2.505154 1_555
Dy2 O9 2.693252 1_556
Dy2 O7 2.693252 1_555
Dy3 O0 2.247930 1_655
Dy3 O4 2.287833 1_555
Dy3 O10 2.287833 1_555
Dy3 O1 2.312268 1_655
Dy3 O11 2.505154 1_555
Dy3 O5 2.505154 1_555
Dy3 O8 2.693252 1_655
Dy3 O6 2.693252 1_656
Ga0 O8 2.003369 1_555
Ga0 O4 2.003369 1_555
Ga0 O0 2.007292 1_555
Ga0 O2 2.007292 1_555
Ga0 O7 2.037629 1_555
Ga0 O11 2.037629 1_555
Ga1 O9 2.003369 1_545
Ga1 O5 2.003369 1_454
Ga1 O3 2.007292 1_445
Ga1 O1 2.007292 1_554
Ga1 O6 2.037629 1_555
Ga1 O10 2.037629 1_444
Ga2 O6 2.003369 1_555
Ga2 O10 2.003369 1_554
Ga2 O0 2.007292 1_554
Ga2 O2 2.007292 1_555
Ga2 O9 2.037629 1_555
Ga2 O5 2.037629 1_554
Ga3 O7 2.003369 1_545
Ga3 O11 2.003369 1_455
Ga3 O3 2.007292 1_445
Ga3 O1 2.007292 1_555
Ga3 O8 2.037629 1_555
Ga3 O4 2.037629 1_445
