# generated using pymatgen
data_Li2CrCo3O8
_symmetry_space_group_name_H-M   'P 1'
_cell_length_a   8.07319900
_cell_length_b   8.07319900
_cell_length_c   8.07319900
_cell_angle_alpha   90.00000000
_cell_angle_beta   90.00000000
_cell_angle_gamma   90.00000000
_symmetry_Int_Tables_number   1
_chemical_formula_structural   Li2CrCo3O8
_chemical_formula_sum   'Li8 Cr4 Co12 O32'
_cell_volume   526.18319445
_cell_formula_units_Z   4
loop_
 _symmetry_equiv_pos_site_id
 _symmetry_equiv_pos_as_xyz
  1  'x, y, z'
loop_
 _atom_site_type_symbol
 _atom_site_label
 _atom_site_symmetry_multiplicity
 _atom_site_fract_x
 _atom_site_fract_y
 _atom_site_fract_z
 _atom_site_occupancy
  Li  Li0  1  0.75024600  0.24975400  0.74975400  1
  Li  Li1  1  0.49975400  0.50024600  0.00024600  1
  Li  Li2  1  0.99975400  0.99975400  0.99975400  1
  Li  Li3  1  0.25024600  0.25024600  0.25024600  1
  Li  Li4  1  0.74975400  0.75024600  0.24975400  1
  Li  Li5  1  0.00024600  0.49975400  0.50024600  1
  Li  Li6  1  0.50024600  0.00024600  0.49975400  1
  Li  Li7  1  0.24975400  0.74975400  0.75024600  1
  Cr  Cr0  1  0.37500000  0.12500000  0.87500000  1
  Cr  Cr1  1  0.87500000  0.37500000  0.12500000  1
  Cr  Cr2  1  0.12500000  0.87500000  0.37500000  1
  Cr  Cr3  1  0.62500000  0.62500000  0.62500000  1
  Co  Co0  1  0.12500000  0.37790400  0.87209600  1
  Co  Co1  1  0.87790400  0.62790400  0.87500000  1
  Co  Co2  1  0.62790400  0.87500000  0.87790400  1
  Co  Co3  1  0.12790400  0.62500000  0.12209600  1
  Co  Co4  1  0.37790400  0.87209600  0.12500000  1
  Co  Co5  1  0.62500000  0.12209600  0.12790400  1
  Co  Co6  1  0.37500000  0.62209600  0.37209600  1
  Co  Co7  1  0.62209600  0.37209600  0.37500000  1
  Co  Co8  1  0.87209600  0.12500000  0.37790400  1
  Co  Co9  1  0.37209600  0.37500000  0.62209600  1
  Co  Co10  1  0.12209600  0.12790400  0.62500000  1
  Co  Co11  1  0.87500000  0.87790400  0.62790400  1
  O  O0  1  0.36093700  0.36286100  0.85757300  1
  O  O1  1  0.13713900  0.14242700  0.86093700  1
  O  O2  1  0.86156100  0.86156100  0.86156100  1
  O  O3  1  0.88906300  0.39242700  0.88713900  1
  O  O4  1  0.64242700  0.63906300  0.86286100  1
  O  O5  1  0.11156100  0.61156100  0.88843900  1
  O  O6  1  0.39242700  0.88713900  0.88906300  1
  O  O7  1  0.61286100  0.11093700  0.89242700  1
  O  O8  1  0.11286100  0.38906300  0.10757300  1
  O  O9  1  0.89242700  0.61286100  0.11093700  1
  O  O10  1  0.61156100  0.88843900  0.11156100  1
  O  O11  1  0.14242700  0.86093700  0.13713900  1
  O  O12  1  0.38906300  0.10757300  0.11286100  1
  O  O13  1  0.36156100  0.63843900  0.13843900  1
  O  O14  1  0.63713900  0.35757300  0.13906300  1
  O  O15  1  0.86093700  0.13713900  0.14242700  1
  O  O16  1  0.13906300  0.63713900  0.35757300  1
  O  O17  1  0.36286100  0.85757300  0.36093700  1
  O  O18  1  0.63843900  0.13843900  0.36156100  1
  O  O19  1  0.61093700  0.60757300  0.38713900  1
  O  O20  1  0.85757300  0.36093700  0.36286100  1
  O  O21  1  0.38843900  0.38843900  0.38843900  1
  O  O22  1  0.10757300  0.11286100  0.38906300  1
  O  O23  1  0.88713900  0.88906300  0.39242700  1
  O  O24  1  0.38713900  0.61093700  0.60757300  1
  O  O25  1  0.60757300  0.38713900  0.61093700  1
  O  O26  1  0.88843900  0.11156100  0.61156100  1
  O  O27  1  0.35757300  0.13906300  0.63713900  1
  O  O28  1  0.11093700  0.89242700  0.61286100  1
  O  O29  1  0.13843900  0.36156100  0.63843900  1
  O  O30  1  0.86286100  0.64242700  0.63906300  1
  O  O31  1  0.63906300  0.86286100  0.64242700  1
loop_
_geom_bond_atom_site_label_1
_geom_bond_atom_site_label_2
_geom_bond_distance
_geom_bond_site_symmetry_2
Li0 O26 1.932379 1_555
Li0 O7 1.952653 1_555
Li0 O25 1.952653 1_555
Li0 O3 1.952653 1_555
Li1 O13 1.932379 1_555
Li1 O4 1.952653 1_554
Li1 O0 1.952653 1_554
Li1 O14 1.952653 1_555
Li2 O2 1.932379 1_555
Li2 O15 1.952653 1_566
Li2 O1 1.952653 1_665
Li2 O11 1.952653 1_656
Li3 O21 1.932379 1_555
Li3 O22 1.952653 1_555
Li3 O8 1.952653 1_555
Li3 O12 1.952653 1_555
Li4 O10 1.932379 1_555
Li4 O9 1.952653 1_555
Li4 O19 1.952653 1_555
Li4 O23 1.952653 1_555
Li5 O29 1.932379 1_555
Li5 O30 1.952653 1_455
Li5 O20 1.952653 1_455
Li5 O16 1.952653 1_555
Li6 O18 1.932379 1_555
Li6 O31 1.952653 1_545
Li6 O17 1.952653 1_545
Li6 O27 1.952653 1_555
Li7 O5 1.932379 1_555
Li7 O28 1.952653 1_555
Li7 O24 1.952653 1_555
Li7 O6 1.952653 1_555
Cr0 O12 1.928791 1_556
Cr0 O6 1.928791 1_545
Cr0 O27 1.928791 1_555
Cr0 O7 1.928791 1_555
Cr0 O0 1.928791 1_555
Cr0 O1 1.928791 1_555
Cr1 O8 1.928791 1_655
Cr1 O3 1.928791 1_554
Cr1 O9 1.928791 1_555
Cr1 O14 1.928791 1_555
Cr1 O20 1.928791 1_555
Cr1 O15 1.928791 1_555
Cr2 O22 1.928791 1_565
Cr2 O23 1.928791 1_455
Cr2 O16 1.928791 1_555
Cr2 O28 1.928791 1_555
Cr2 O17 1.928791 1_555
Cr2 O11 1.928791 1_555
Cr3 O4 1.928791 1_555
Cr3 O31 1.928791 1_555
Cr3 O30 1.928791 1_555
Cr3 O25 1.928791 1_555
Cr3 O19 1.928791 1_555
Cr3 O24 1.928791 1_555
Co0 O29 1.894078 1_555
Co0 O5 1.894078 1_555
Co0 O1 1.905708 1_555
Co0 O8 1.905708 1_556
Co0 O0 1.912232 1_555
Co0 O3 1.912232 1_455
Co1 O2 1.894078 1_555
Co1 O5 1.894078 1_655
Co1 O4 1.905708 1_555
Co1 O3 1.905708 1_555
Co1 O9 1.912232 1_556
Co1 O30 1.912232 1_555
Co2 O2 1.894078 1_555
Co2 O10 1.894078 1_556
Co2 O31 1.905708 1_555
Co2 O6 1.905708 1_555
Co2 O7 1.912232 1_565
Co2 O4 1.912232 1_555
Co3 O13 1.894078 1_555
Co3 O5 1.894078 1_554
Co3 O16 1.905708 1_555
Co3 O9 1.905708 1_455
Co3 O11 1.912232 1_555
Co3 O8 1.912232 1_555
Co4 O13 1.894078 1_555
Co4 O10 1.894078 1_555
Co4 O11 1.905708 1_555
Co4 O12 1.905708 1_565
Co4 O17 1.912232 1_555
Co4 O6 1.912232 1_554
Co5 O18 1.894078 1_555
Co5 O10 1.894078 1_545
Co5 O14 1.905708 1_555
Co5 O7 1.905708 1_554
Co5 O15 1.912232 1_555
Co5 O12 1.912232 1_555
Co6 O21 1.894078 1_555
Co6 O13 1.894078 1_555
Co6 O24 1.905708 1_555
Co6 O17 1.905708 1_555
Co6 O19 1.912232 1_555
Co6 O16 1.912232 1_555
Co7 O21 1.894078 1_555
Co7 O18 1.894078 1_555
Co7 O19 1.905708 1_555
Co7 O20 1.905708 1_555
Co7 O25 1.912232 1_555
Co7 O14 1.912232 1_555
Co8 O18 1.894078 1_555
Co8 O26 1.894078 1_555
Co8 O15 1.905708 1_555
Co8 O22 1.905708 1_655
Co8 O20 1.912232 1_555
Co8 O23 1.912232 1_545
Co9 O21 1.894078 1_555
Co9 O29 1.894078 1_555
Co9 O25 1.905708 1_555
Co9 O0 1.905708 1_555
Co9 O24 1.912232 1_555
Co9 O27 1.912232 1_555
Co10 O29 1.894078 1_555
Co10 O26 1.894078 1_455
Co10 O27 1.905708 1_555
Co10 O28 1.905708 1_545
Co10 O1 1.912232 1_555
Co10 O22 1.912232 1_555
Co11 O2 1.894078 1_555
Co11 O26 1.894078 1_565
Co11 O30 1.905708 1_555
Co11 O23 1.905708 1_555
Co11 O28 1.912232 1_655
Co11 O31 1.912232 1_555
