# generated using pymatgen
data_LiFe7(O3F5)2
_symmetry_space_group_name_H-M   'P 1'
_cell_length_a   11.36089600
_cell_length_b   4.59692800
_cell_length_c   5.12019182
_cell_angle_alpha   89.26541283
_cell_angle_beta   90.00000000
_cell_angle_gamma   90.00000000
_symmetry_Int_Tables_number   1
_chemical_formula_structural   LiFe7(O3F5)2
_chemical_formula_sum   'Li1 Fe7 O6 F10'
_cell_volume   267.38117157
_cell_formula_units_Z   1
loop_
 _symmetry_equiv_pos_site_id
 _symmetry_equiv_pos_as_xyz
  1  'x, y, z'
loop_
 _atom_site_type_symbol
 _atom_site_label
 _atom_site_symmetry_multiplicity
 _atom_site_fract_x
 _atom_site_fract_y
 _atom_site_fract_z
 _atom_site_occupancy
  Li  Li0  1  0.32819700  0.50000000  0.00000000  1
  Fe  Fe0  1  0.16121400  0.50000000  0.50000000  1
  Fe  Fe1  1  0.43470600  0.00000000  0.50000000  1
  Fe  Fe2  1  0.67425200  0.50000000  0.50000000  1
  Fe  Fe3  1  0.92002500  0.00000000  0.50000000  1
  Fe  Fe4  1  0.08573400  0.00000000  0.00000000  1
  Fe  Fe5  1  0.56840800  0.00000000  0.00000000  1
  Fe  Fe6  1  0.82637300  0.50000000  0.00000000  1
  O  O0  1  0.05868900  0.22115500  0.67788400  1
  O  O1  1  0.55852800  0.23238300  0.68188800  1
  O  O2  1  0.80939200  0.28069900  0.68525700  1
  O  O3  1  0.05868900  0.77884500  0.32211600  1
  O  O4  1  0.55852800  0.76761700  0.31811200  1
  O  O5  1  0.80939200  0.71930100  0.31474300  1
  F  F0  1  0.30594300  0.25908300  0.64959700  1
  F  F1  1  0.30594300  0.74091700  0.35040300  1
  F  F2  1  0.19207800  0.27454600  0.16890500  1
  F  F3  1  0.43896400  0.23542900  0.17319400  1
  F  F4  1  0.69136200  0.26470500  0.17132600  1
  F  F5  1  0.94448000  0.23639500  0.16567600  1
  F  F6  1  0.19207800  0.72545400  0.83109500  1
  F  F7  1  0.43896400  0.76457100  0.82680600  1
  F  F8  1  0.69136200  0.73529500  0.82867400  1
  F  F9  1  0.94448000  0.76360500  0.83432400  1
loop_
_geom_bond_atom_site_label_1
_geom_bond_atom_site_label_2
_geom_bond_distance
_geom_bond_site_symmetry_2
Fe0 O3 1.949208 1_555
Fe0 O0 1.949208 1_555
Fe1 O1 2.003215 1_555
Fe1 O4 2.003215 1_545
Fe2 O1 2.019873 1_555
Fe2 O4 2.019873 1_555
Fe2 O5 2.061237 1_555
Fe2 O2 2.061237 1_555
Fe3 O5 2.043506 1_545
Fe3 O2 2.043506 1_555
Fe3 O3 2.090111 1_645
Fe3 O0 2.090111 1_655
Fe4 O0 1.950675 1_554
Fe4 O3 1.950675 1_545
Fe5 O1 1.939616 1_554
Fe5 O4 1.939616 1_545
Fe6 O5 1.921520 1_555
Fe6 O2 1.921520 1_554
F0 Fe1 2.041693 1_555
F0 Fe0 2.120147 1_555
F0 Li0 2.135481 1_556
F1 Fe1 2.041693 1_565
F1 Fe0 2.120147 1_555
F1 Li0 2.135481 1_555
F2 Fe4 1.956626 1_555
F2 Fe0 2.028807 1_555
F2 Li0 2.047075 1_555
F3 Li0 1.954869 1_555
F3 Fe1 1.981700 1_555
F3 Fe5 2.035910 1_555
F4 Fe2 2.021498 1_555
F4 Fe5 2.056405 1_555
F4 Fe6 2.065867 1_555
F5 Fe6 1.990495 1_555
F5 Fe3 2.034861 1_555
F5 Fe4 2.121185 1_655
F6 Fe4 1.956626 1_566
F6 Fe0 2.028807 1_555
F6 Li0 2.047075 1_556
F7 Li0 1.954869 1_556
F7 Fe1 1.981700 1_565
F7 Fe5 2.035910 1_566
F8 Fe2 2.021498 1_555
F8 Fe5 2.056405 1_566
F8 Fe6 2.065867 1_556
F9 Fe6 1.990495 1_556
F9 Fe3 2.034861 1_565
F9 Fe4 2.121185 1_666
