# generated using pymatgen
data_BCl(OF2)2
_symmetry_space_group_name_H-M   'P 1'
_cell_length_a   5.17852097
_cell_length_b   5.17852097
_cell_length_c   9.96566960
_cell_angle_alpha   85.29371256
_cell_angle_beta   85.29371256
_cell_angle_gamma   118.84641460
_symmetry_Int_Tables_number   1
_chemical_formula_structural   BCl(OF2)2
_chemical_formula_sum   'B2 Cl2 O4 F8'
_cell_volume   231.02374740
_cell_formula_units_Z   2
loop_
 _symmetry_equiv_pos_site_id
 _symmetry_equiv_pos_as_xyz
  1  'x, y, z'
loop_
 _atom_site_type_symbol
 _atom_site_label
 _atom_site_symmetry_multiplicity
 _atom_site_fract_x
 _atom_site_fract_y
 _atom_site_fract_z
 _atom_site_occupancy
  B  B0  1  0.58230100  0.44691800  0.52008400  1
  B  B1  1  0.44691800  0.58230100  0.02008400  1
  Cl  Cl0  1  0.14486700  0.67398900  0.75286100  1
  Cl  Cl1  1  0.67398900  0.14486700  0.25286100  1
  O  O0  1  0.91558200  0.38033700  0.80613900  1
  O  O1  1  0.13563600  0.91819400  0.80537700  1
  O  O2  1  0.38033700  0.91558200  0.30613900  1
  O  O3  1  0.91819400  0.13563600  0.30537700  1
  F  F0  1  0.81225000  0.69164900  0.56876000  1
  F  F1  1  0.50272200  0.63896300  0.87060400  1
  F  F2  1  0.69164900  0.81225000  0.06876000  1
  F  F3  1  0.63896300  0.50272200  0.37060400  1
  F  F4  1  0.58587600  0.18262600  0.56104600  1
  F  F5  1  0.30532500  0.42254600  0.56055900  1
  F  F6  1  0.18262600  0.58587600  0.06104600  1
  F  F7  1  0.42254600  0.30532500  0.06055900  1
loop_
_geom_bond_atom_site_label_1
_geom_bond_atom_site_label_2
_geom_bond_distance
_geom_bond_site_symmetry_2
B0 F5 1.399268 1_555
B0 F4 1.405052 1_555
B0 F0 1.413832 1_555
B0 F3 1.471235 1_555
B1 F7 1.399268 1_555
B1 F6 1.405052 1_555
B1 F2 1.413832 1_555
B1 F1 1.471235 1_554
Cl0 O0 1.423374 1_455
Cl0 O1 1.427686 1_555
Cl1 O2 1.423374 1_545
Cl1 O3 1.427686 1_555
