# generated using pymatgen
data_LiVF5
_symmetry_space_group_name_H-M   'P 1'
_cell_length_a   5.31607300
_cell_length_b   8.29656000
_cell_length_c   9.31848900
_cell_angle_alpha   90.00000000
_cell_angle_beta   90.00000000
_cell_angle_gamma   90.00000000
_symmetry_Int_Tables_number   1
_chemical_formula_structural   LiVF5
_chemical_formula_sum   'Li4 V4 F20'
_cell_volume   410.99306260
_cell_formula_units_Z   4
loop_
 _symmetry_equiv_pos_site_id
 _symmetry_equiv_pos_as_xyz
  1  'x, y, z'
loop_
 _atom_site_type_symbol
 _atom_site_label
 _atom_site_symmetry_multiplicity
 _atom_site_fract_x
 _atom_site_fract_y
 _atom_site_fract_z
 _atom_site_occupancy
  Li  Li0  1  0.75000000  0.69220200  0.01804100  1
  Li  Li1  1  0.25000000  0.19220200  0.48195900  1
  Li  Li2  1  0.75000000  0.80779800  0.51804100  1
  Li  Li3  1  0.25000000  0.30779800  0.98195900  1
  V  V0  1  0.75000000  0.08755200  0.21510700  1
  V  V1  1  0.25000000  0.58755200  0.28489300  1
  V  V2  1  0.75000000  0.41244800  0.71510700  1
  V  V3  1  0.25000000  0.91244800  0.78489300  1
  F  F0  1  0.98809000  0.19508700  0.10756500  1
  F  F1  1  0.51191000  0.19508700  0.10756500  1
  F  F2  1  0.01760500  0.58945400  0.13713900  1
  F  F3  1  0.48239500  0.58945400  0.13713900  1
  F  F4  1  0.75000000  0.88832300  0.15191300  1
  F  F5  1  0.25000000  0.38832300  0.34808700  1
  F  F6  1  0.51760500  0.08945400  0.36286100  1
  F  F7  1  0.98239500  0.08945400  0.36286100  1
  F  F8  1  0.01191000  0.69508700  0.39243500  1
  F  F9  1  0.48809000  0.69508700  0.39243500  1
  F  F10  1  0.51191000  0.30491300  0.60756500  1
  F  F11  1  0.98809000  0.30491300  0.60756500  1
  F  F12  1  0.01760500  0.91054600  0.63713900  1
  F  F13  1  0.48239500  0.91054600  0.63713900  1
  F  F14  1  0.75000000  0.61167700  0.65191300  1
  F  F15  1  0.25000000  0.11167700  0.84808700  1
  F  F16  1  0.51760500  0.41054600  0.86286100  1
  F  F17  1  0.98239500  0.41054600  0.86286100  1
  F  F18  1  0.01191000  0.80491300  0.89243500  1
  F  F19  1  0.48809000  0.80491300  0.89243500  1
loop_
_geom_bond_atom_site_label_1
_geom_bond_atom_site_label_2
_geom_bond_distance
_geom_bond_site_symmetry_2
F0 V0 1.844515 1_555
F0 Li3 2.045238 1_654
F1 V0 1.844515 1_555
F1 Li3 2.045238 1_554
F2 V1 1.849928 1_555
F2 Li0 1.995540 1_455
F3 V1 1.849928 1_555
F3 Li0 1.995540 1_555
F4 V0 1.754679 1_565
F4 Li0 2.050310 1_555
F5 V1 1.754679 1_555
F5 Li1 2.050310 1_555
F6 V0 1.849928 1_555
F6 Li1 1.995540 1_555
F7 V0 1.849928 1_555
F7 Li1 1.995540 1_655
F8 V1 1.844515 1_555
F8 Li2 2.045238 1_455
F9 V1 1.844515 1_555
F9 Li2 2.045238 1_555
F10 V2 1.844515 1_555
F10 Li1 2.045238 1_555
F11 V2 1.844515 1_555
F11 Li1 2.045238 1_655
F12 V3 1.849928 1_555
F12 Li2 1.995540 1_455
F13 V3 1.849928 1_555
F13 Li2 1.995540 1_555
F14 V2 1.754679 1_555
F14 Li2 2.050310 1_555
F15 V3 1.754679 1_545
F15 Li3 2.050310 1_555
F16 V2 1.849928 1_555
F16 Li3 1.995540 1_555
F17 V2 1.849928 1_555
F17 Li3 1.995540 1_655
F18 V3 1.844515 1_555
F18 Li0 2.045238 1_456
F19 V3 1.844515 1_555
F19 Li0 2.045238 1_556
