# generated using pymatgen
data_K4MoC5N6O
_symmetry_space_group_name_H-M   'P 1'
_cell_length_a   8.60117300
_cell_length_b   14.40792300
_cell_length_c   21.42939300
_cell_angle_alpha   90.00000000
_cell_angle_beta   90.00000000
_cell_angle_gamma   90.00000000
_symmetry_Int_Tables_number   1
_chemical_formula_structural   K4MoC5N6O
_chemical_formula_sum   'K32 Mo8 C40 N48 O8'
_cell_volume   2655.63834814
_cell_formula_units_Z   8
loop_
 _symmetry_equiv_pos_site_id
 _symmetry_equiv_pos_as_xyz
  1  'x, y, z'
loop_
 _atom_site_type_symbol
 _atom_site_label
 _atom_site_symmetry_multiplicity
 _atom_site_fract_x
 _atom_site_fract_y
 _atom_site_fract_z
 _atom_site_occupancy
  K  K0  1  0.87500800  0.88693900  0.04816600  1
  K  K1  1  0.87448400  0.15091600  0.35996100  1
  K  K2  1  0.12499200  0.38693900  0.45183400  1
  K  K3  1  0.62507200  0.90243500  0.25034700  1
  K  K4  1  0.37463100  0.88401400  0.04581800  1
  K  K5  1  0.37492800  0.40243500  0.24965300  1
  K  K6  1  0.12499200  0.11306100  0.95183400  1
  K  K7  1  0.87463100  0.88401400  0.45418200  1
  K  K8  1  0.12536900  0.38401400  0.04581800  1
  K  K9  1  0.87492800  0.09756500  0.75034700  1
  K  K10  1  0.12507200  0.59756500  0.74965300  1
  K  K11  1  0.12551600  0.65091600  0.14003900  1
  K  K12  1  0.62499200  0.11306100  0.54816600  1
  K  K13  1  0.62551600  0.65091600  0.35996100  1
  K  K14  1  0.62499200  0.38693900  0.04816600  1
  K  K15  1  0.37500800  0.88693900  0.45183400  1
  K  K16  1  0.62507200  0.59756500  0.75034700  1
  K  K17  1  0.37500800  0.61306100  0.95183400  1
  K  K18  1  0.87448400  0.34908400  0.85996100  1
  K  K19  1  0.12507200  0.90243500  0.24965300  1
  K  K20  1  0.87463100  0.61598600  0.95418200  1
  K  K21  1  0.62536900  0.11598600  0.95418200  1
  K  K22  1  0.87492800  0.40243500  0.25034700  1
  K  K23  1  0.62551600  0.84908400  0.85996100  1
  K  K24  1  0.62536900  0.38401400  0.45418200  1
  K  K25  1  0.37448400  0.15091600  0.14003900  1
  K  K26  1  0.12536900  0.11598600  0.54581800  1
  K  K27  1  0.37463100  0.61598600  0.54581800  1
  K  K28  1  0.12551600  0.84908400  0.64003900  1
  K  K29  1  0.37448400  0.34908400  0.64003900  1
  K  K30  1  0.87500800  0.61306100  0.54816600  1
  K  K31  1  0.37492800  0.09756500  0.74965300  1
  Mo  Mo0  1  0.12535100  0.66532300  0.38111800  1
  Mo  Mo1  1  0.37464900  0.33467700  0.88111800  1
  Mo  Mo2  1  0.37464900  0.16532300  0.38111800  1
  Mo  Mo3  1  0.12535100  0.83467700  0.88111800  1
  Mo  Mo4  1  0.87464900  0.33467700  0.61888200  1
  Mo  Mo5  1  0.87464900  0.16532300  0.11888200  1
  Mo  Mo6  1  0.62535100  0.83467700  0.61888200  1
  Mo  Mo7  1  0.62535100  0.66532300  0.11888200  1
  C  C0  1  0.44772000  0.74427300  0.65768600  1
  C  C1  1  0.44955500  0.56542700  0.09357400  1
  C  C2  1  0.87486400  0.41448200  0.71028900  1
  C  C3  1  0.44955500  0.93457300  0.59357400  1
  C  C4  1  0.05228000  0.24427300  0.65768600  1
  C  C5  1  0.05044500  0.43457300  0.59357400  1
  C  C6  1  0.55044500  0.43457300  0.90642600  1
  C  C7  1  0.19722400  0.24420800  0.84249900  1
  C  C8  1  0.80277600  0.75579200  0.15750100  1
  C  C9  1  0.80277600  0.74420800  0.65750100  1
  C  C10  1  0.62513600  0.91448200  0.71028900  1
  C  C11  1  0.69722400  0.24420800  0.65750100  1
  C  C12  1  0.12513600  0.91448200  0.78971100  1
  C  C13  1  0.94772000  0.75572700  0.34231400  1
  C  C14  1  0.87486400  0.08551800  0.21028900  1
  C  C15  1  0.69722400  0.25579200  0.15750100  1
  C  C16  1  0.05228000  0.25572700  0.15768600  1
  C  C17  1  0.37486400  0.41448200  0.78971100  1
  C  C18  1  0.30277600  0.74420800  0.84249900  1
  C  C19  1  0.12513600  0.58551800  0.28971100  1
  C  C20  1  0.80249300  0.93369700  0.59382700  1
  C  C21  1  0.19750700  0.06630300  0.40617300  1
  C  C22  1  0.30249300  0.56630300  0.40617300  1
  C  C23  1  0.37486400  0.08551800  0.28971100  1
  C  C24  1  0.94772000  0.74427300  0.84231400  1
  C  C25  1  0.19750700  0.43369700  0.90617300  1
  C  C26  1  0.94955500  0.56542700  0.40642600  1
  C  C27  1  0.55228000  0.24427300  0.84231400  1
  C  C28  1  0.80249300  0.56630300  0.09382700  1
  C  C29  1  0.94955500  0.93457300  0.90642600  1
  C  C30  1  0.69750700  0.43369700  0.59382700  1
  C  C31  1  0.19722400  0.25579200  0.34249900  1
  C  C32  1  0.55228000  0.25572700  0.34231400  1
  C  C33  1  0.05044500  0.06542700  0.09357400  1
  C  C34  1  0.30249300  0.93369700  0.90617300  1
  C  C35  1  0.55044500  0.06542700  0.40642600  1
  C  C36  1  0.30277600  0.75579200  0.34249900  1
  C  C37  1  0.62513600  0.58551800  0.21028900  1
  C  C38  1  0.69750700  0.06630300  0.09382700  1
  C  C39  1  0.44772000  0.75572700  0.15768600  1
  N  N0  1  0.62511600  0.72131400  0.04223200  1
  N  N1  1  0.39860100  0.98677100  0.92326200  1
  N  N2  1  0.59882300  0.30880000  0.17198800  1
  N  N3  1  0.62485400  0.53962800  0.25586600  1
  N  N4  1  0.65112900  0.30847000  0.32778000  1
  N  N5  1  0.12511600  0.77868600  0.95776800  1
  N  N6  1  0.12485400  0.96037200  0.74413400  1
  N  N7  1  0.10139900  0.01322900  0.42326200  1
  N  N8  1  0.62485400  0.96037200  0.75586600  1
  N  N9  1  0.40117700  0.80880000  0.32801200  1
  N  N10  1  0.60139900  0.48677100  0.57673800  1
  N  N11  1  0.64427800  0.48866800  0.92395900  1
  N  N12  1  0.15112900  0.30847000  0.17222000  1
  N  N13  1  0.62511600  0.77868600  0.54223200  1
  N  N14  1  0.87488400  0.22131400  0.04223200  1
  N  N15  1  0.34887100  0.69153000  0.67222000  1
  N  N16  1  0.35572200  0.98866800  0.57604100  1
  N  N17  1  0.85572200  0.98866800  0.92395900  1
  N  N18  1  0.09882300  0.19120000  0.82801200  1
  N  N19  1  0.59882300  0.19120000  0.67198800  1
  N  N20  1  0.87514600  0.46037200  0.75586600  1
  N  N21  1  0.12511600  0.72131400  0.45776800  1
  N  N22  1  0.37488400  0.27868600  0.95776800  1
  N  N23  1  0.10139900  0.48677100  0.92326200  1
  N  N24  1  0.37514600  0.03962800  0.24413400  1
  N  N25  1  0.14427800  0.01133200  0.07604100  1
  N  N26  1  0.89860100  0.51322900  0.07673800  1
  N  N27  1  0.14427800  0.48866800  0.57604100  1
  N  N28  1  0.15112900  0.19153000  0.67222000  1
  N  N29  1  0.90117700  0.80880000  0.17198800  1
  N  N30  1  0.85572200  0.51133200  0.42395900  1
  N  N31  1  0.84887100  0.80847000  0.32778000  1
  N  N32  1  0.84887100  0.69153000  0.82778000  1
  N  N33  1  0.09882300  0.30880000  0.32801200  1
  N  N34  1  0.60139900  0.01322900  0.07673800  1
  N  N35  1  0.87514600  0.03962800  0.25586600  1
  N  N36  1  0.40117700  0.69120000  0.82801200  1
  N  N37  1  0.65112900  0.19153000  0.82778000  1
  N  N38  1  0.37488400  0.22131400  0.45776800  1
  N  N39  1  0.34887100  0.80847000  0.17222000  1
  N  N40  1  0.12485400  0.53962800  0.24413400  1
  N  N41  1  0.89860100  0.98677100  0.57673800  1
  N  N42  1  0.64427800  0.01133200  0.42395900  1
  N  N43  1  0.39860100  0.51322900  0.42326200  1
  N  N44  1  0.87488400  0.27868600  0.54223200  1
  N  N45  1  0.35572200  0.51133200  0.07604100  1
  N  N46  1  0.90117700  0.69120000  0.67198800  1
  N  N47  1  0.37514600  0.46037200  0.74413400  1
  O  O0  1  0.87517700  0.25742900  0.98851900  1
  O  O1  1  0.12482300  0.75742900  0.51148100  1
  O  O2  1  0.87517700  0.24257100  0.48851900  1
  O  O3  1  0.12482300  0.74257100  0.01148100  1
  O  O4  1  0.62482300  0.75742900  0.98851900  1
  O  O5  1  0.62482300  0.74257100  0.48851900  1
  O  O6  1  0.37517700  0.24257100  0.01148100  1
  O  O7  1  0.37517700  0.25742900  0.51148100  1
loop_
_geom_bond_atom_site_label_1
_geom_bond_atom_site_label_2
_geom_bond_distance
_geom_bond_site_symmetry_2
K0 N29 2.891164 1_555
K0 N25 2.988811 1_665
K0 N34 3.037111 1_565
K0 N17 3.043082 1_554
K0 O3 3.092169 1_655
K0 O4 3.121897 1_554
K0 N0 3.214098 1_555
K0 N5 3.288323 1_654
K1 N35 2.747182 1_555
K1 N4 3.052749 1_555
K1 O2 3.055077 1_555
K1 N33 3.060497 1_655
K1 N7 3.095927 1_655
K1 N42 3.137833 1_555
K2 N33 2.891164 1_555
K2 N30 2.988811 1_455
K2 N43 3.037111 1_555
K2 N27 3.043082 1_555
K2 O2 3.092169 1_455
K2 O7 3.121897 1_555
K2 N38 3.214098 1_555
K2 N44 3.288323 1_455
K3 N31 2.879526 1_555
K3 N9 2.880716 1_555
K3 N24 2.923347 1_565
K3 N35 2.923644 1_565
K3 N29 3.206166 1_555
K3 N39 3.206182 1_555
K4 N34 2.776575 1_565
K4 N25 2.776692 1_565
K4 N39 2.927615 1_555
K4 N1 3.021901 1_554
K4 O3 3.051414 1_555
K4 O4 3.076509 1_554
K4 N0 3.184769 1_555
K4 N5 3.235592 1_554
K5 N12 2.879526 1_555
K5 N2 2.880716 1_555
K5 N3 2.923347 1_555
K5 N40 2.923644 1_555
K5 N33 3.206166 1_555
K5 N4 3.206182 1_555
K6 N18 2.891164 1_555
K6 N17 2.988811 1_445
K6 N1 3.037111 1_545
K6 N25 3.043082 1_556
K6 O0 3.092169 1_455
K6 O6 3.121897 1_556
K6 N22 3.214098 1_555
K6 N14 3.288323 1_456
K7 N7 2.776575 1_665
K7 N42 2.776692 1_565
K7 N31 2.927615 1_555
K7 N41 3.021901 1_555
K7 O5 3.051414 1_555
K7 O1 3.076509 1_655
K7 N21 3.184769 1_655
K7 N13 3.235592 1_555
K8 N26 2.776575 1_455
K8 N45 2.776692 1_555
K8 N12 2.927615 1_555
K8 N23 3.021901 1_554
K8 O6 3.051414 1_555
K8 O0 3.076509 1_454
K8 N14 3.184769 1_455
K8 N22 3.235592 1_554
K9 N37 2.879526 1_555
K9 N18 2.880716 1_655
K9 N6 2.923347 1_645
K9 N8 2.923644 1_545
K9 N19 3.206166 1_555
K9 N28 3.206182 1_655
K10 N15 2.879526 1_555
K10 N46 2.880716 1_455
K10 N20 2.923347 1_455
K10 N47 2.923644 1_555
K10 N36 3.206166 1_555
K10 N32 3.206182 1_455
K11 N40 2.747182 1_555
K11 N39 3.052749 1_555
K11 O3 3.055077 1_555
K11 N29 3.060497 1_455
K11 N26 3.095927 1_455
K11 N45 3.137833 1_555
K12 N19 2.891164 1_555
K12 N16 2.988811 1_545
K12 N41 3.037111 1_545
K12 N42 3.043082 1_555
K12 O7 3.092169 1_555
K12 O2 3.121897 1_555
K12 N44 3.214098 1_555
K12 N38 3.288323 1_555
K13 N3 2.747182 1_555
K13 N31 3.052749 1_555
K13 O5 3.055077 1_555
K13 N9 3.060497 1_555
K13 N43 3.095927 1_555
K13 N30 3.137833 1_555
K14 N2 2.891164 1_555
K14 N45 2.988811 1_555
K14 N26 3.037111 1_555
K14 N11 3.043082 1_554
K14 O6 3.092169 1_555
K14 O0 3.121897 1_554
K14 N14 3.214098 1_555
K14 N22 3.288323 1_554
K15 N9 2.891164 1_555
K15 N42 2.988811 1_565
K15 N7 3.037111 1_565
K15 N16 3.043082 1_555
K15 O5 3.092169 1_555
K15 O1 3.121897 1_555
K15 N21 3.214098 1_555
K15 N13 3.288323 1_555
K16 N32 2.879526 1_555
K16 N36 2.880716 1_555
K16 N47 2.923347 1_555
K16 N20 2.923644 1_555
K16 N46 3.206166 1_555
K16 N15 3.206182 1_555
K17 N36 2.891164 1_555
K17 N11 2.988811 1_555
K17 N23 3.037111 1_555
K17 N45 3.043082 1_556
K17 O4 3.092169 1_555
K17 O3 3.121897 1_556
K17 N5 3.214098 1_555
K17 N0 3.288323 1_556
K18 N20 2.747182 1_555
K18 N37 3.052749 1_555
K18 O0 3.055077 1_555
K18 N18 3.060497 1_655
K18 N23 3.095927 1_655
K18 N11 3.137833 1_555
K19 N39 2.879526 1_555
K19 N29 2.880716 1_455
K19 N35 2.923347 1_465
K19 N24 2.923644 1_565
K19 N9 3.206166 1_555
K19 N31 3.206182 1_455
K20 N23 2.776575 1_655
K20 N11 2.776692 1_555
K20 N32 2.927615 1_555
K20 N26 3.021901 1_556
K20 O4 3.051414 1_555
K20 O3 3.076509 1_656
K20 N5 3.184769 1_655
K20 N0 3.235592 1_556
K21 N1 2.776575 1_545
K21 N17 2.776692 1_545
K21 N37 2.927615 1_555
K21 N34 3.021901 1_556
K21 O0 3.051414 1_555
K21 O6 3.076509 1_556
K21 N22 3.184769 1_555
K21 N14 3.235592 1_556
K22 N4 2.879526 1_555
K22 N33 2.880716 1_655
K22 N40 2.923347 1_655
K22 N3 2.923644 1_555
K22 N2 3.206166 1_555
K22 N12 3.206182 1_655
K23 N8 2.747182 1_555
K23 N32 3.052749 1_555
K23 O4 3.055077 1_555
K23 N36 3.060497 1_555
K23 N1 3.095927 1_555
K23 N17 3.137833 1_555
K24 N43 2.776575 1_555
K24 N30 2.776692 1_555
K24 N4 2.927615 1_555
K24 N10 3.021901 1_555
K24 O2 3.051414 1_555
K24 O7 3.076509 1_555
K24 N38 3.184769 1_555
K24 N44 3.235592 1_555
K25 N24 2.747182 1_555
K25 N12 3.052749 1_555
K25 O6 3.055077 1_555
K25 N2 3.060497 1_555
K25 N34 3.095927 1_555
K25 N25 3.137833 1_555
K26 N41 2.776575 1_445
K26 N16 2.776692 1_545
K26 N28 2.927615 1_555
K26 N7 3.021901 1_555
K26 O7 3.051414 1_555
K26 O2 3.076509 1_455
K26 N44 3.184769 1_455
K26 N38 3.235592 1_555
K27 N10 2.776575 1_555
K27 N27 2.776692 1_555
K27 N15 2.927615 1_555
K27 N43 3.021901 1_555
K27 O1 3.051414 1_555
K27 O5 3.076509 1_555
K27 N13 3.184769 1_555
K27 N21 3.235592 1_555
K28 N6 2.747182 1_555
K28 N15 3.052749 1_555
K28 O1 3.055077 1_555
K28 N46 3.060497 1_455
K28 N41 3.095927 1_455
K28 N16 3.137833 1_555
K29 N47 2.747182 1_555
K29 N28 3.052749 1_555
K29 O7 3.055077 1_555
K29 N19 3.060497 1_555
K29 N10 3.095927 1_555
K29 N27 3.137833 1_555
K30 N46 2.891164 1_555
K30 N27 2.988811 1_655
K30 N10 3.037111 1_555
K30 N30 3.043082 1_555
K30 O1 3.092169 1_655
K30 O5 3.121897 1_555
K30 N13 3.214098 1_555
K30 N21 3.288323 1_655
K31 N28 2.879526 1_555
K31 N19 2.880716 1_555
K31 N8 2.923347 1_545
K31 N6 2.923644 1_545
K31 N18 3.206166 1_555
K31 N37 3.206182 1_555
Mo0 N21 1.829974 1_555
Mo1 N22 1.829974 1_555
Mo2 N38 1.829974 1_555
Mo3 N5 1.829974 1_555
Mo4 N44 1.829974 1_555
Mo5 N14 1.829974 1_555
Mo6 N13 1.829974 1_555
Mo7 N0 1.829974 1_555
C0 N15 1.182095 1_555
C0 Mo6 2.173095 1_555
C0 K27 3.091677 1_555
C0 K28 3.178635 1_555
C0 K16 3.276859 1_555
C1 N45 1.183213 1_555
C1 Mo7 2.156848 1_555
C1 K14 3.136426 1_555
C1 K17 3.179301 1_554
C1 K11 3.205713 1_555
C2 N20 1.179442 1_555
C2 Mo4 2.271340 1_555
C3 N16 1.183213 1_555
C3 Mo6 2.156848 1_555
C3 K12 3.136426 1_565
C3 K15 3.179301 1_555
C3 K28 3.205713 1_555
C4 N28 1.182095 1_555
C4 Mo4 2.173095 1_455
C4 K26 3.091677 1_555
C4 K29 3.178635 1_555
C4 K9 3.276859 1_455
C5 N27 1.183213 1_555
C5 Mo4 2.156848 1_455
C5 K30 3.136426 1_455
C5 K2 3.179301 1_555
C5 K29 3.205713 1_555
C6 N11 1.183213 1_555
C6 Mo1 2.156848 1_555
C6 K17 3.136426 1_555
C6 K14 3.179301 1_556
C6 K18 3.205713 1_555
C7 N18 1.181525 1_555
C7 Mo1 2.170897 1_555
C7 K6 3.073431 1_555
C7 K18 3.182631 1_455
C7 K31 3.280069 1_555
C8 N29 1.181525 1_555
C8 Mo7 2.170897 1_555
C8 K0 3.073431 1_555
C8 K11 3.182631 1_655
C8 K3 3.280069 1_555
C9 N46 1.181525 1_555
C9 Mo6 2.170897 1_555
C9 K30 3.073431 1_555
C9 K28 3.182631 1_655
C9 K16 3.280069 1_555
C10 N8 1.179442 1_555
C10 Mo6 2.271340 1_555
C11 N19 1.181525 1_555
C11 Mo4 2.170897 1_555
C11 K12 3.073431 1_555
C11 K29 3.182631 1_555
C11 K9 3.280069 1_555
C12 N6 1.179442 1_555
C12 Mo3 2.271340 1_555
C13 N31 1.182095 1_555
C13 Mo0 2.173095 1_655
C13 K7 3.091677 1_555
C13 K13 3.178635 1_555
C13 K19 3.276859 1_655
C14 N35 1.179442 1_555
C14 Mo5 2.271340 1_555
C15 N2 1.181525 1_555
C15 Mo5 2.170897 1_555
C15 K14 3.073431 1_555
C15 K25 3.182631 1_555
C15 K22 3.280069 1_555
C16 N12 1.182095 1_555
C16 Mo5 2.173095 1_455
C16 K8 3.091677 1_555
C16 K25 3.178635 1_555
C16 K22 3.276859 1_455
C17 N47 1.179442 1_555
C17 Mo1 2.271340 1_555
C18 N36 1.181525 1_555
C18 Mo3 2.170897 1_555
C18 K17 3.073431 1_555
C18 K23 3.182631 1_555
C18 K10 3.280069 1_555
C19 N40 1.179442 1_555
C19 Mo0 2.271340 1_555
C20 N41 1.184140 1_555
C20 Mo6 2.155253 1_555
C20 K7 3.138869 1_555
C20 K12 3.157011 1_565
C20 K28 3.191592 1_655
C21 N7 1.184140 1_555
C21 Mo2 2.155253 1_555
C21 K26 3.138869 1_555
C21 K15 3.157011 1_545
C21 K1 3.191592 1_455
C22 N43 1.184140 1_555
C22 Mo0 2.155253 1_555
C22 K27 3.138869 1_555
C22 K2 3.157011 1_555
C22 K13 3.191592 1_555
C23 N24 1.179442 1_555
C23 Mo2 2.271340 1_555
C24 N32 1.182095 1_555
C24 Mo3 2.173095 1_655
C24 K20 3.091677 1_555
C24 K23 3.178635 1_555
C24 K10 3.276859 1_655
C25 N23 1.184140 1_555
C25 Mo1 2.155253 1_555
C25 K8 3.138869 1_556
C25 K17 3.157011 1_555
C25 K18 3.191592 1_455
C26 N30 1.183213 1_555
C26 Mo0 2.156848 1_655
C26 K2 3.136426 1_655
C26 K30 3.179301 1_555
C26 K13 3.205713 1_555
C27 N37 1.182095 1_555
C27 Mo1 2.173095 1_555
C27 K21 3.091677 1_555
C27 K18 3.178635 1_555
C27 K31 3.276859 1_555
C28 N26 1.184140 1_555
C28 Mo7 2.155253 1_555
C28 K20 3.138869 1_554
C28 K14 3.157011 1_555
C28 K11 3.191592 1_655
C29 N17 1.183213 1_555
C29 Mo3 2.156848 1_655
C29 K6 3.136426 1_665
C29 K0 3.179301 1_556
C29 K23 3.205713 1_555
C30 N10 1.184140 1_555
C30 Mo4 2.155253 1_555
C30 K24 3.138869 1_555
C30 K30 3.157011 1_555
C30 K29 3.191592 1_555
C31 N33 1.181525 1_555
C31 Mo2 2.170897 1_555
C31 K2 3.073431 1_555
C31 K1 3.182631 1_455
C31 K5 3.280069 1_555
C32 N4 1.182095 1_555
C32 Mo2 2.173095 1_555
C32 K24 3.091677 1_555
C32 K1 3.178635 1_555
C32 K5 3.276859 1_555
C33 N25 1.183213 1_555
C33 Mo5 2.156848 1_455
C33 K0 3.136426 1_445
C33 K6 3.179301 1_554
C33 K25 3.205713 1_555
C34 N1 1.184140 1_555
C34 Mo3 2.155253 1_555
C34 K4 3.138869 1_556
C34 K6 3.157011 1_565
C34 K23 3.191592 1_555
C35 N42 1.183213 1_555
C35 Mo2 2.156848 1_555
C35 K15 3.136426 1_545
C35 K12 3.179301 1_555
C35 K1 3.205713 1_555
C36 N9 1.181525 1_555
C36 Mo0 2.170897 1_555
C36 K15 3.073431 1_555
C36 K13 3.182631 1_555
C36 K19 3.280069 1_555
C37 N3 1.179442 1_555
C37 Mo7 2.271340 1_555
C38 N34 1.184140 1_555
C38 Mo5 2.155253 1_555
C38 K21 3.138869 1_554
C38 K0 3.157011 1_545
C38 K25 3.191592 1_555
C39 N39 1.182095 1_555
C39 Mo7 2.173095 1_555
C39 K4 3.091677 1_555
C39 K11 3.178635 1_555
C39 K3 3.276859 1_555
N0 O4 1.263190 1_554
N5 O3 1.263190 1_556
N13 O5 1.263190 1_555
N14 O0 1.263190 1_554
N21 O1 1.263190 1_555
N22 O6 1.263190 1_556
N38 O7 1.263190 1_555
N44 O2 1.263190 1_555
