# generated using pymatgen
data_Li3FePCO7
_symmetry_space_group_name_H-M   'P 1'
_cell_length_a   6.64018942
_cell_length_b   9.85474954
_cell_length_c   9.94831267
_cell_angle_alpha   117.27723169
_cell_angle_beta   100.92346904
_cell_angle_gamma   89.40617572
_symmetry_Int_Tables_number   1
_chemical_formula_structural   Li3FePCO7
_chemical_formula_sum   'Li12 Fe4 P4 C4 O28'
_cell_volume   565.93157846
_cell_formula_units_Z   4
loop_
 _symmetry_equiv_pos_site_id
 _symmetry_equiv_pos_as_xyz
  1  'x, y, z'
loop_
 _atom_site_type_symbol
 _atom_site_label
 _atom_site_symmetry_multiplicity
 _atom_site_fract_x
 _atom_site_fract_y
 _atom_site_fract_z
 _atom_site_occupancy
  Li  Li0  1  0.47052700  0.52765100  0.11177100  1
  Li  Li1  1  0.47056500  0.02757000  0.11197200  1
  Li  Li2  1  0.78075100  0.60525800  0.96295800  1
  Li  Li3  1  0.78082000  0.10538500  0.96283500  1
  Li  Li4  1  0.12838100  0.29542400  0.26274200  1
  Li  Li5  1  0.12788400  0.79548300  0.26291600  1
  Li  Li6  1  0.12304600  0.83759800  0.81207100  1
  Li  Li7  1  0.12339000  0.33750500  0.81195200  1
  Li  Li8  1  0.54098700  0.32731000  0.34520400  1
  Li  Li9  1  0.54101300  0.82784900  0.34507200  1
  Li  Li10  1  0.71036200  0.80578900  0.72960500  1
  Li  Li11  1  0.71026000  0.30535900  0.72971800  1
  Fe  Fe0  1  0.85829300  0.63839500  0.39376800  1
  Fe  Fe1  1  0.39300100  0.49459800  0.68099300  1
  Fe  Fe2  1  0.85851400  0.13861300  0.39370500  1
  Fe  Fe3  1  0.39278000  0.99454000  0.68104600  1
  P  P0  1  0.36061400  0.62602500  0.45337100  1
  P  P1  1  0.36055600  0.12609500  0.45342400  1
  P  P2  1  0.89065500  0.50707400  0.62146800  1
  P  P3  1  0.89070300  0.00699900  0.62136900  1
  C  C0  1  0.38723900  0.21531700  0.01044200  1
  C  C1  1  0.38715300  0.71529600  0.01049300  1
  C  C2  1  0.86425000  0.41765400  0.06430400  1
  C  C3  1  0.86430700  0.91759700  0.06433700  1
  O  O0  1  0.78569200  0.04401600  0.15062200  1
  O  O1  1  0.78540400  0.54406500  0.15018000  1
  O  O2  1  0.46571900  0.58875200  0.92450700  1
  O  O3  1  0.46566900  0.08879000  0.92415400  1
  O  O4  1  0.90752500  0.31555700  0.10831600  1
  O  O5  1  0.90753300  0.81533800  0.10811000  1
  O  O6  1  0.34412200  0.81740100  0.96647600  1
  O  O7  1  0.34415100  0.31752300  0.96659000  1
  O  O8  1  0.36200400  0.23049200  0.14292400  1
  O  O9  1  0.36164600  0.73066100  0.14302800  1
  O  O10  1  0.88953300  0.90253700  0.93190200  1
  O  O11  1  0.88979100  0.40231700  0.93178300  1
  O  O12  1  0.15617900  0.65383600  0.36938300  1
  O  O13  1  0.15650100  0.15398100  0.36911100  1
  O  O14  1  0.09493100  0.47918100  0.70555300  1
  O  O15  1  0.09474300  0.97910600  0.70568200  1
  O  O16  1  0.53086000  0.62458900  0.36388300  1
  O  O17  1  0.53075100  0.12456800  0.36402300  1
  O  O18  1  0.72030600  0.50846100  0.71082800  1
  O  O19  1  0.72048900  0.00847000  0.71075200  1
  O  O20  1  0.34073400  0.46706800  0.45182100  1
  O  O21  1  0.34074900  0.96714900  0.45208900  1
  O  O22  1  0.91071000  0.66604200  0.62307100  1
  O  O23  1  0.91046600  0.16595900  0.62272800  1
  O  O24  1  0.83045300  0.38181900  0.44918500  1
  O  O25  1  0.83065000  0.88185000  0.44900000  1
  O  O26  1  0.42087400  0.75131700  0.62558600  1
  O  O27  1  0.42065100  0.25128800  0.62576100  1
loop_
_geom_bond_atom_site_label_1
_geom_bond_atom_site_label_2
_geom_bond_distance
_geom_bond_site_symmetry_2
Li0 O7 1.978275 1_554
Li0 O9 2.026541 1_555
Li0 O1 2.047282 1_555
Li0 O16 2.189655 1_555
Li0 O2 2.199877 1_554
Li1 O6 1.979231 1_544
Li1 O8 2.025657 1_555
Li1 O0 2.048819 1_555
Li1 O17 2.189081 1_555
Li1 O3 2.205910 1_554
Li2 O5 1.978689 1_556
Li2 O11 2.026506 1_555
Li2 O2 2.048283 1_555
Li2 O18 2.189918 1_555
Li2 O1 2.200226 1_556
Li3 O4 1.979743 1_556
Li3 O10 2.025413 1_545
Li3 O3 2.048969 1_555
Li3 O19 2.189413 1_555
Li3 O0 2.206606 1_556
Li4 O4 1.992409 1_455
Li4 O8 2.053762 1_555
Li4 O13 2.090274 1_555
Li4 O20 2.124980 1_555
Li5 O5 1.991781 1_455
Li5 O9 2.054922 1_555
Li5 O12 2.092839 1_555
Li5 O21 2.127151 1_555
Li6 O6 1.993409 1_555
Li6 O10 2.053210 1_455
Li6 O15 2.090991 1_555
Li6 O22 2.124269 1_455
Li7 O7 1.992804 1_555
Li7 O11 2.053656 1_455
Li7 O14 2.092544 1_555
Li7 O23 2.127080 1_455
Li8 O8 1.931211 1_555
Li8 O24 1.952341 1_555
Li8 O20 1.986865 1_555
Li8 O17 2.093336 1_555
Li9 O9 1.930741 1_555
Li9 O25 1.953027 1_555
Li9 O21 1.986305 1_555
Li9 O16 2.098344 1_555
Li10 O10 1.931842 1_555
Li10 O26 1.952538 1_555
Li10 O22 1.987015 1_555
Li10 O19 2.092875 1_565
Li11 O11 1.931293 1_555
Li11 O27 1.952953 1_555
Li11 O23 1.986351 1_555
Li11 O18 2.097170 1_555
Fe0 O12 2.053412 1_655
Fe0 O1 2.114417 1_555
Fe0 O22 2.128502 1_555
Fe0 O16 2.134992 1_555
Fe0 O25 2.216413 1_555
Fe1 O14 2.055167 1_555
Fe1 O2 2.113880 1_555
Fe1 O20 2.127677 1_555
Fe1 O18 2.134196 1_555
Fe1 O27 2.215035 1_555
Fe2 O13 2.054670 1_655
Fe2 O0 2.109668 1_555
Fe2 O23 2.126960 1_555
Fe2 O17 2.137363 1_555
Fe2 O24 2.213798 1_555
Fe3 O15 2.055228 1_555
Fe3 O3 2.110179 1_565
Fe3 O21 2.126133 1_555
Fe3 O19 2.136974 1_565
Fe3 O26 2.214032 1_555
C0 O7 1.279114 1_554
C0 O8 1.300006 1_555
C0 O3 1.318233 1_554
C1 O6 1.279203 1_554
C1 O9 1.300449 1_555
C1 O2 1.317924 1_554
C2 O4 1.279341 1_555
C2 O11 1.300480 1_554
C2 O1 1.317710 1_555
C3 O5 1.279226 1_555
C3 O10 1.299924 1_554
C3 O0 1.318165 1_565
O12 P0 1.545421 1_555
O13 P1 1.545255 1_555
O14 P2 1.545381 1_455
O15 P3 1.545207 1_465
O16 P0 1.562130 1_555
O17 P1 1.561007 1_555
O18 P2 1.561929 1_555
O19 P3 1.561129 1_555
O20 P0 1.566174 1_555
O21 P1 1.567016 1_565
O22 P2 1.566146 1_555
O23 P3 1.567015 1_555
O24 P2 1.559615 1_555
O25 P3 1.559846 1_565
O26 P0 1.559278 1_555
O27 P1 1.559768 1_555
