# generated using pymatgen
data_Li2Mn3CuO8
_symmetry_space_group_name_H-M   'P 1'
_cell_length_a   5.81911064
_cell_length_b   5.82266096
_cell_length_c   9.67334918
_cell_angle_alpha   87.36334489
_cell_angle_beta   91.31878777
_cell_angle_gamma   120.02018187
_symmetry_Int_Tables_number   1
_chemical_formula_structural   Li2Mn3CuO8
_chemical_formula_sum   'Li4 Mn6 Cu2 O16'
_cell_volume   283.48967460
_cell_formula_units_Z   2
loop_
 _symmetry_equiv_pos_site_id
 _symmetry_equiv_pos_as_xyz
  1  'x, y, z'
loop_
 _atom_site_type_symbol
 _atom_site_label
 _atom_site_symmetry_multiplicity
 _atom_site_fract_x
 _atom_site_fract_y
 _atom_site_fract_z
 _atom_site_occupancy
  Li  Li0  1  0.33340500  0.65743500  0.89053900  1
  Li  Li1  1  0.99961000  0.01299000  0.99657500  1
  Li  Li2  1  0.00039000  0.01338000  0.49657500  1
  Li  Li3  1  0.66659500  0.32403000  0.39053900  1
  Mn  Mn0  1  0.16770200  0.83238200  0.21549400  1
  Mn  Mn1  1  0.17061900  0.33877500  0.21444800  1
  Mn  Mn2  1  0.66293300  0.83026700  0.21518700  1
  Mn  Mn3  1  0.33706700  0.16733500  0.71518700  1
  Mn  Mn4  1  0.83229800  0.66468000  0.71549400  1
  Mn  Mn5  1  0.82938100  0.16815600  0.71444800  1
  Cu  Cu0  1  0.33255900  0.66900200  0.49381200  1
  Cu  Cu1  1  0.66744100  0.33644300  0.99381200  1
  O  O0  1  0.15687900  0.84930300  0.60763700  1
  O  O1  1  0.03608600  0.50875000  0.33057500  1
  O  O2  1  0.33286000  0.67507600  0.10837300  1
  O  O3  1  0.00033700  0.99405700  0.31213400  1
  O  O4  1  0.99966300  0.99372000  0.81213400  1
  O  O5  1  0.15939100  0.32503000  0.60454100  1
  O  O6  1  0.48147500  0.95386500  0.33519100  1
  O  O7  1  0.48451100  0.50603400  0.32420200  1
  O  O8  1  0.31629300  0.16451400  0.10521200  1
  O  O9  1  0.68370700  0.84822100  0.60521200  1
  O  O10  1  0.51852500  0.47239000  0.83519100  1
  O  O11  1  0.51548900  0.02152300  0.82420200  1
  O  O12  1  0.66714000  0.34221700  0.60837300  1
  O  O13  1  0.84312100  0.69242300  0.10763700  1
  O  O14  1  0.96391400  0.47266400  0.83057500  1
  O  O15  1  0.84060900  0.16563800  0.10454100  1
loop_
_geom_bond_atom_site_label_1
_geom_bond_atom_site_label_2
_geom_bond_distance
_geom_bond_site_symmetry_2
Li0 O11 1.920214 1_565
Li0 O14 1.949945 1_455
Li0 O10 1.961885 1_555
Li0 O2 2.114553 1_556
Li1 O4 1.792848 1_545
Li1 O13 1.904530 1_546
Li1 O8 1.909981 1_656
Li1 O15 1.920831 1_556
Li2 O3 1.792848 1_545
Li2 O0 1.904526 1_545
Li2 O9 1.909981 1_445
Li2 O5 1.920835 1_555
Li3 O7 1.920214 1_555
Li3 O1 1.949945 1_655
Li3 O6 1.961886 1_545
Li3 O12 2.114554 1_555
Mn0 O3 1.936201 1_555
Mn0 O13 1.941002 1_455
Mn0 O1 1.943946 1_555
Mn0 O8 1.950666 1_565
Mn0 O2 1.962228 1_555
Mn0 O6 1.964831 1_555
Mn1 O7 1.907331 1_555
Mn1 O1 1.942247 1_555
Mn1 O3 1.944748 1_545
Mn1 O2 1.946412 1_555
Mn1 O8 1.966015 1_555
Mn1 O15 1.975329 1_455
Mn2 O7 1.913140 1_555
Mn2 O3 1.941089 1_655
Mn2 O13 1.948105 1_555
Mn2 O2 1.957351 1_555
Mn2 O15 1.966273 1_565
Mn2 O6 1.968277 1_555
Mn3 O11 1.913144 1_555
Mn3 O4 1.941089 1_445
Mn3 O0 1.948105 1_545
Mn3 O12 1.957351 1_555
Mn3 O5 1.966273 1_555
Mn3 O10 1.968273 1_555
Mn4 O4 1.936201 1_555
Mn4 O0 1.941002 1_655
Mn4 O14 1.943946 1_555
Mn4 O9 1.950666 1_555
Mn4 O12 1.962224 1_555
Mn4 O10 1.964831 1_555
Mn5 O11 1.907331 1_555
Mn5 O14 1.942247 1_555
Mn5 O4 1.944748 1_545
Mn5 O12 1.946416 1_555
Mn5 O9 1.966015 1_545
Mn5 O5 1.975329 1_655
Cu0 O5 2.001729 1_555
Cu0 O6 2.060412 1_555
Cu0 O9 2.072207 1_555
Cu0 O0 2.142816 1_555
Cu0 O1 2.177109 1_555
Cu0 O7 2.328893 1_555
Cu1 O15 2.001733 1_556
Cu1 O10 2.060412 1_555
Cu1 O8 2.072208 1_556
Cu1 O13 2.142812 1_556
Cu1 O14 2.177109 1_555
Cu1 O11 2.328893 1_555
