# generated using pymatgen
data_Li24Ti7Cr5O36
_symmetry_space_group_name_H-M   'P 1'
_cell_length_a   5.07264500
_cell_length_b   9.79981476
_cell_length_c   13.41193652
_cell_angle_alpha   97.18828826
_cell_angle_beta   100.68346717
_cell_angle_gamma   94.84197894
_symmetry_Int_Tables_number   1
_chemical_formula_structural   Li24Ti7Cr5O36
_chemical_formula_sum   'Li24 Ti7 Cr5 O36'
_cell_volume   646.04316334
_cell_formula_units_Z   1
loop_
 _symmetry_equiv_pos_site_id
 _symmetry_equiv_pos_as_xyz
  1  'x, y, z'
loop_
 _atom_site_type_symbol
 _atom_site_label
 _atom_site_symmetry_multiplicity
 _atom_site_fract_x
 _atom_site_fract_y
 _atom_site_fract_z
 _atom_site_occupancy
  Li  Li0  1  0.16706500  0.00073800  0.83329200  1
  Li  Li1  1  0.04685100  0.00019400  0.61236100  1
  Li  Li2  1  0.00093400  0.75018900  0.25126800  1
  Li  Li3  1  0.33245900  0.75020500  0.91566600  1
  Li  Li4  1  0.04723300  0.49995400  0.11269800  1
  Li  Li5  1  0.38418700  0.49892200  0.78027100  1
  Li  Li6  1  0.16099100  0.50035800  0.33430200  1
  Li  Li7  1  0.50229200  0.49844500  0.99934600  1
  Li  Li8  1  0.28669900  0.50041300  0.55374100  1
  Li  Li9  1  0.33276300  0.25017400  0.41584300  1
  Li  Li10  1  0.49355300  0.99959500  0.50069000  1
  Li  Li11  1  0.28510700  0.00054500  0.05347200  1
  Li  Li12  1  0.61996600  0.00112400  0.72166300  1
  Li  Li13  1  0.38520800  0.00129700  0.28066000  1
  Li  Li14  1  0.71162200  0.99924700  0.94477900  1
  Li  Li15  1  0.66754900  0.74963900  0.58400600  1
  Li  Li16  1  0.72032800  0.50016400  0.44703300  1
  Li  Li17  1  0.83286500  0.50048000  0.66672400  1
  Li  Li18  1  0.61638500  0.49944600  0.21973600  1
  Li  Li19  1  0.94850600  0.50007200  0.88628700  1
  Li  Li20  1  0.66749000  0.25002300  0.08314300  1
  Li  Li21  1  0.83680600  0.00057300  0.16597200  1
  Li  Li22  1  0.00140400  0.24968000  0.75035700  1
  Li  Li23  1  0.95250100  0.99899400  0.38718400  1
  Ti  Ti0  1  0.11200800  0.25276600  0.97541800  1
  Ti  Ti1  1  0.22111400  0.74677600  0.69406900  1
  Ti  Ti2  1  0.43766600  0.24679700  0.63931800  1
  Ti  Ti3  1  0.44436900  0.74978800  0.13881600  1
  Ti  Ti4  1  0.55658400  0.75106500  0.36139200  1
  Ti  Ti5  1  0.88527600  0.25086900  0.52516900  1
  Ti  Ti6  1  0.89239900  0.75168500  0.02666400  1
  Cr  Cr0  1  0.11277300  0.74999500  0.47404900  1
  Cr  Cr1  1  0.22581700  0.25054500  0.19810600  1
  Cr  Cr2  1  0.56012600  0.24945300  0.86089800  1
  Cr  Cr3  1  0.77417900  0.75040400  0.80609300  1
  Cr  Cr4  1  0.77507200  0.24965100  0.30154700  1
  O  O0  1  0.00412400  0.86366300  0.92853500  1
  O  O1  1  0.06538300  0.63556500  0.78604400  1
  O  O2  1  0.99922000  0.36158500  0.42584000  1
  O  O3  1  0.14368900  0.36392300  0.64298000  1
  O  O4  1  0.26759400  0.36346400  0.88123000  1
  O  O5  1  0.33261700  0.86231300  0.59376800  1
  O  O6  1  0.07623900  0.13596500  0.28238600  1
  O  O7  1  0.19078300  0.13606400  0.52252100  1
  O  O8  1  0.40617900  0.13601100  0.95118300  1
  O  O9  1  0.14346600  0.86372000  0.14303100  1
  O  O10  1  0.26484000  0.86574600  0.38122500  1
  O  O11  1  0.48458200  0.86227100  0.81069900  1
  O  O12  1  0.32692800  0.13557100  0.73679100  1
  O  O13  1  0.18979500  0.63631400  0.02230500  1
  O  O14  1  0.39519700  0.63563100  0.45302800  1
  O  O15  1  0.52262800  0.63678400  0.68930900  1
  O  O16  1  0.33223700  0.63597100  0.23816700  1
  O  O17  1  0.66340600  0.63815900  0.90196800  1
  O  O18  1  0.33431600  0.36290900  0.09806300  1
  O  O19  1  0.66944800  0.36155200  0.76581800  1
  O  O20  1  0.46829600  0.36221800  0.30757800  1
  O  O21  1  0.59771900  0.36636200  0.54851300  1
  O  O22  1  0.81343200  0.36465300  0.97873700  1
  O  O23  1  0.66857000  0.86393300  0.26245300  1
  O  O24  1  0.53241300  0.13827500  0.19234400  1
  O  O25  1  0.73612500  0.13390400  0.61747400  1
  O  O26  1  0.84769300  0.13788200  0.85639500  1
  O  O27  1  0.59653600  0.86631200  0.04788700  1
  O  O28  1  0.81639200  0.86133700  0.47786700  1
  O  O29  1  0.92822100  0.86445800  0.71545500  1
  O  O30  1  0.66496100  0.13789500  0.40196600  1
  O  O31  1  0.73579600  0.63410600  0.11749300  1
  O  O32  1  0.85797800  0.63734800  0.35748900  1
  O  O33  1  0.99757500  0.63606400  0.57154000  1
  O  O34  1  0.92396700  0.36440600  0.21681800  1
  O  O35  1  0.00351200  0.13740600  0.07306200  1
loop_
_geom_bond_atom_site_label_1
_geom_bond_atom_site_label_2
_geom_bond_distance
_geom_bond_site_symmetry_2
Li0 O8 2.054635 1_555
Li0 O29 2.058623 1_445
Li0 O12 2.171382 1_555
Li0 O0 2.180101 1_545
Li0 O11 2.230323 1_545
Li0 O26 2.230779 1_455
Li1 O7 2.078795 1_555
Li1 O5 2.090363 1_545
Li1 O25 2.138304 1_455
Li1 O29 2.162640 1_445
Li1 O28 2.192589 1_445
Li1 O12 2.193679 1_555
Li2 O32 2.102425 1_455
Li2 O23 2.115810 1_455
Li2 O16 2.118000 1_555
Li2 O10 2.120728 1_555
Li2 O9 2.127317 1_555
Li2 O31 2.158315 1_455
Li3 O0 2.100285 1_555
Li3 O11 2.104791 1_555
Li3 O17 2.105414 1_555
Li3 O13 2.112318 1_556
Li3 O1 2.121536 1_555
Li3 O27 2.142614 1_556
Li4 O18 2.081614 1_555
Li4 O13 2.084662 1_555
Li4 O31 2.143689 1_455
Li4 O22 2.177383 1_454
Li4 O34 2.180209 1_455
Li4 O16 2.215835 1_555
Li5 O19 2.076358 1_555
Li5 O15 2.092067 1_555
Li5 O4 2.135331 1_555
Li5 O17 2.188897 1_555
Li5 O1 2.190991 1_555
Li5 O3 2.216774 1_555
Li6 O34 2.050666 1_455
Li6 O14 2.051538 1_555
Li6 O2 2.152460 1_455
Li6 O32 2.163945 1_455
Li6 O16 2.198279 1_555
Li6 O20 2.198427 1_555
Li7 O4 2.046260 1_555
Li7 O31 2.047536 1_556
Li7 O22 2.169542 1_555
Li7 O13 2.207147 1_556
Li7 O17 2.214189 1_555
Li7 O18 2.215962 1_556
Li8 O3 2.075240 1_555
Li8 O33 2.086787 1_455
Li8 O14 2.117506 1_555
Li8 O21 2.141874 1_555
Li8 O15 2.199849 1_555
Li8 O2 2.252474 1_455
Li9 O20 2.104383 1_555
Li9 O2 2.105237 1_455
Li9 O7 2.112529 1_555
Li9 O30 2.112584 1_555
Li9 O6 2.130482 1_555
Li9 O21 2.148703 1_555
Li10 O10 2.040024 1_555
Li10 O25 2.048378 1_565
Li10 O5 2.155815 1_555
Li10 O7 2.156059 1_565
Li10 O30 2.241228 1_565
Li10 O28 2.251220 1_555
Li11 O35 2.069464 1_555
Li11 O9 2.077820 1_545
Li11 O27 2.145168 1_545
Li11 O8 2.156892 1_554
Li11 O0 2.206342 1_544
Li11 O24 2.254616 1_555
Li12 O11 2.074166 1_545
Li12 O12 2.088609 1_555
Li12 O29 2.149330 1_545
Li12 O25 2.150331 1_555
Li12 O26 2.180485 1_555
Li12 O5 2.252053 1_545
Li13 O23 2.076621 1_545
Li13 O24 2.078261 1_555
Li13 O6 2.133912 1_555
Li13 O10 2.138546 1_545
Li13 O30 2.175078 1_555
Li13 O9 2.233281 1_545
Li14 O26 2.067726 1_565
Li14 O0 2.096346 1_655
Li14 O27 2.138241 1_556
Li14 O8 2.139025 1_565
Li14 O11 2.174648 1_555
Li14 O35 2.262685 1_666
Li15 O15 2.096853 1_555
Li15 O33 2.107402 1_555
Li15 O28 2.107994 1_555
Li15 O5 2.118001 1_555
Li15 O29 2.123847 1_555
Li15 O14 2.142720 1_555
Li16 O32 2.072126 1_555
Li16 O2 2.074451 1_555
Li16 O21 2.140423 1_555
Li16 O33 2.190109 1_555
Li16 O14 2.209307 1_555
Li16 O20 2.269166 1_555
Li17 O21 2.043664 1_555
Li17 O1 2.052081 1_655
Li17 O33 2.173888 1_555
Li17 O15 2.186995 1_555
Li17 O3 2.194077 1_655
Li17 O19 2.231123 1_555
Li18 O16 2.074514 1_555
Li18 O20 2.077235 1_555
Li18 O34 2.132011 1_555
Li18 O31 2.148176 1_555
Li18 O18 2.182951 1_555
Li18 O32 2.235548 1_555
Li19 O17 2.083005 1_555
Li19 O22 2.083591 1_555
Li19 O1 2.128737 1_655
Li19 O19 2.176192 1_555
Li19 O4 2.191010 1_655
Li19 O13 2.212550 1_656
Li20 O22 2.099622 1_554
Li20 O24 2.112014 1_555
Li20 O18 2.122693 1_555
Li20 O35 2.123048 1_655
Li20 O8 2.126741 1_554
Li20 O34 2.132947 1_555
Li21 O6 2.044452 1_655
Li21 O27 2.053535 1_545
Li21 O35 2.164125 1_655
Li21 O9 2.177041 1_645
Li21 O24 2.182911 1_555
Li21 O23 2.201346 1_545
Li22 O12 2.093434 1_555
Li22 O19 2.112972 1_455
Li22 O26 2.118432 1_455
Li22 O3 2.121512 1_555
Li22 O4 2.127164 1_555
Li22 O25 2.149747 1_455
Li23 O28 2.083381 1_555
Li23 O30 2.096309 1_565
Li23 O10 2.142869 1_655
Li23 O6 2.197340 1_665
Li23 O23 2.203525 1_555
Li23 O7 2.205067 1_665
Cr0 O5 1.928709 1_555
Cr0 O14 1.931253 1_555
Cr0 O28 1.935201 1_455
Cr0 O33 1.958628 1_455
Cr0 O32 1.977662 1_455
Cr0 O10 1.998353 1_555
Cr1 O20 1.888741 1_555
Cr1 O6 1.898959 1_555
Cr1 O18 1.963934 1_555
Cr1 O35 1.983923 1_555
Cr1 O24 1.986813 1_555
Cr1 O34 2.003336 1_455
Cr2 O26 1.900627 1_555
Cr2 O19 1.910609 1_555
Cr2 O8 1.962891 1_555
Cr2 O4 1.969354 1_555
Cr2 O22 1.994749 1_555
Cr2 O12 1.999410 1_555
Cr3 O11 1.911082 1_555
Cr3 O17 1.922678 1_555
Cr3 O1 1.968008 1_655
Cr3 O29 1.970381 1_555
Cr3 O15 1.975851 1_555
Cr3 O0 1.975940 1_655
Cr4 O24 1.885812 1_555
Cr4 O34 1.902934 1_555
Cr4 O30 1.967260 1_555
Cr4 O2 1.975870 1_555
Cr4 O20 1.989784 1_555
Cr4 O6 2.000603 1_655
O0 Ti6 1.946925 1_456
O1 Ti1 1.971270 1_555
O2 Ti5 1.956373 1_555
O3 Ti2 1.961043 1_555
O3 Ti5 1.997794 1_455
O4 Ti0 1.990873 1_555
O5 Ti1 1.991661 1_555
O7 Ti2 1.953869 1_555
O7 Ti5 1.993350 1_455
O8 Ti0 2.004125 1_555
O9 Ti6 1.965040 1_455
O9 Ti3 1.970662 1_555
O10 Ti4 1.968720 1_555
O11 Ti1 2.010099 1_555
O12 Ti2 1.933440 1_555
O13 Ti6 1.965103 1_455
O13 Ti3 1.980044 1_555
O14 Ti4 2.006243 1_555
O15 Ti1 1.950008 1_555
O16 Ti3 1.972058 1_555
O16 Ti4 1.979423 1_555
O17 Ti6 1.994977 1_556
O18 Ti0 1.950615 1_554
O19 Ti2 2.021198 1_555
O21 Ti5 1.966240 1_555
O21 Ti2 2.019511 1_555
O22 Ti0 1.947123 1_655
O23 Ti4 1.961552 1_555
O23 Ti3 1.978934 1_555
O25 Ti2 1.991989 1_555
O25 Ti5 1.993716 1_555
O26 Ti0 2.028622 1_655
O27 Ti3 1.983879 1_555
O27 Ti6 1.989541 1_555
O28 Ti4 1.979593 1_555
O29 Ti1 1.996044 1_655
O30 Ti5 1.963088 1_555
O31 Ti3 1.977598 1_555
O31 Ti6 1.999574 1_555
O32 Ti4 1.970981 1_555
O33 Ti1 1.954160 1_655
O35 Ti0 1.956704 1_554
