# generated using pymatgen
data_Li4TiCo3O8
_symmetry_space_group_name_H-M   'P 1'
_cell_length_a   5.10024500
_cell_length_b   5.56253651
_cell_length_c   6.46087990
_cell_angle_alpha   89.78467451
_cell_angle_beta   89.56704599
_cell_angle_gamma   89.62757983
_symmetry_Int_Tables_number   1
_chemical_formula_structural   Li4TiCo3O8
_chemical_formula_sum   'Li4 Ti1 Co3 O8'
_cell_volume   183.28672869
_cell_formula_units_Z   1
loop_
 _symmetry_equiv_pos_site_id
 _symmetry_equiv_pos_as_xyz
  1  'x, y, z'
loop_
 _atom_site_type_symbol
 _atom_site_label
 _atom_site_symmetry_multiplicity
 _atom_site_fract_x
 _atom_site_fract_y
 _atom_site_fract_z
 _atom_site_occupancy
  Li  Li0  1  0.00358100  0.91600800  0.62122300  1
  Li  Li1  1  0.50483000  0.57844800  0.12538000  1
  Li  Li2  1  0.00225400  0.42106000  0.87582100  1
  Li  Li3  1  0.50687100  0.08709700  0.37458500  1
  Ti  Ti0  1  0.50140600  0.08054000  0.87662700  1
  Co  Co0  1  0.01123900  0.91118800  0.13922400  1
  Co  Co1  1  0.50326200  0.58148300  0.62193100  1
  Co  Co2  1  0.98995200  0.42628100  0.38257300  1
  O  O0  1  0.63142000  0.92586200  0.10842200  1
  O  O1  1  0.60763600  0.92412600  0.64109900  1
  O  O2  1  0.10719300  0.59351900  0.13164600  1
  O  O3  1  0.11862300  0.57408600  0.61151400  1
  O  O4  1  0.63230800  0.42062000  0.37227400  1
  O  O5  1  0.60700000  0.39366500  0.87052100  1
  O  O6  1  0.10879700  0.09440400  0.35952400  1
  O  O7  1  0.13723000  0.07161100  0.88763900  1
loop_
_geom_bond_atom_site_label_1
_geom_bond_atom_site_label_2
_geom_bond_distance
_geom_bond_site_symmetry_2
Li0 O3 1.987829 1_555
Li0 O1 2.022749 1_455
Li0 O6 2.027836 1_565
Li0 O7 2.052613 1_565
Li1 O4 1.932798 1_555
Li1 O5 2.008025 1_554
Li1 O2 2.029338 1_555
Li1 O0 2.043767 1_555
Li2 O2 1.992641 1_556
Li2 O3 1.993297 1_555
Li2 O5 2.023188 1_455
Li2 O7 2.059240 1_555
Li3 O4 1.966338 1_555
Li3 O1 2.011591 1_545
Li3 O6 2.033475 1_555
Li3 O0 2.037834 1_545
Co0 O6 1.827650 1_565
Co0 O2 1.831228 1_555
Co0 O0 1.950011 1_455
Co0 O7 1.957577 1_564
Co1 O4 1.955196 1_555
Co1 O3 1.964119 1_555
Co1 O5 1.985966 1_555
Co1 O1 1.986800 1_555
Co2 O3 1.823561 1_655
Co2 O4 1.826268 1_555
Co2 O6 1.945184 1_655
Co2 O2 1.957681 1_655
O0 Ti0 1.849516 1_564
O1 Ti0 1.832358 1_565
O5 Ti0 1.826668 1_555
O7 Ti0 1.859191 1_555
