# generated using pymatgen
data_LiV2OF5
_symmetry_space_group_name_H-M   'P 1'
_cell_length_a   5.24191000
_cell_length_b   5.60053507
_cell_length_c   11.60463884
_cell_angle_alpha   99.31004876
_cell_angle_beta   103.04016710
_cell_angle_gamma   90.03538700
_symmetry_Int_Tables_number   1
_chemical_formula_structural   LiV2OF5
_chemical_formula_sum   'Li3 V6 O3 F15'
_cell_volume   327.28149567
_cell_formula_units_Z   3
loop_
 _symmetry_equiv_pos_site_id
 _symmetry_equiv_pos_as_xyz
  1  'x, y, z'
loop_
 _atom_site_type_symbol
 _atom_site_label
 _atom_site_symmetry_multiplicity
 _atom_site_fract_x
 _atom_site_fract_y
 _atom_site_fract_z
 _atom_site_occupancy
  Li  Li0  1  0.73077600  0.31474000  0.51067900  1
  Li  Li1  1  0.94393100  0.41423400  0.83286800  1
  Li  Li2  1  0.05636700  0.52488600  0.15572100  1
  V  V0  1  0.82940700  0.83467400  0.66282100  1
  V  V1  1  0.66507800  0.66521400  0.31614200  1
  V  V2  1  0.49794000  0.49724900  0.99577100  1
  V  V3  1  0.33276400  0.33474600  0.66972400  1
  V  V4  1  0.00117400  0.99638300  0.00280900  1
  V  V5  1  0.18112700  0.16921800  0.34925900  1
  O  O0  1  0.69725600  0.57790200  0.15905200  1
  O  O1  1  0.30868300  0.41679300  0.83281300  1
  O  O2  1  0.36684100  0.25894200  0.50616000  1
  F  F0  1  0.32522800  0.46690100  0.29013700  1
  F  F1  1  0.18842700  0.69102800  0.04273700  1
  F  F2  1  0.45228400  0.96325600  0.29694800  1
  F  F3  1  0.31826900  0.20020700  0.03632400  1
  F  F4  1  0.64771600  0.72567800  0.49807800  1
  F  F5  1  0.02598600  0.91676600  0.83257000  1
  F  F6  1  0.86296500  0.36694400  0.37336300  1
  F  F7  1  0.97645500  0.14150300  0.62398400  1
  F  F8  1  0.98916100  0.87215500  0.37109900  1
  F  F9  1  0.11298100  0.62993300  0.63006500  1
  F  F10  1  0.98140700  0.10434000  0.16776000  1
  F  F11  1  0.68376900  0.79425700  0.95975200  1
  F  F12  1  0.55097300  0.03392600  0.70462600  1
  F  F13  1  0.81286100  0.30269000  0.95753300  1
  F  F14  1  0.68997300  0.52771600  0.70710300  1
loop_
_geom_bond_atom_site_label_1
_geom_bond_atom_site_label_2
_geom_bond_distance
_geom_bond_site_symmetry_2
Li0 O2 1.920572 1_555
Li1 O1 1.912187 1_655
Li2 O0 1.913897 1_455
O0 V1 1.855056 1_555
O0 V2 1.927454 1_554
O1 V3 1.906692 1_555
O1 V2 1.908013 1_555
O2 V5 1.849032 1_555
O2 V3 1.925436 1_555
F0 Li2 1.922825 1_555
F0 V1 2.035866 1_555
F0 V5 2.103141 1_555
F1 Li2 1.966625 1_555
F1 V4 2.038626 1_555
F1 V2 2.077739 1_554
F2 V5 1.970845 1_565
F2 V1 2.022504 1_555
F3 V4 1.944086 1_545
F3 V2 2.080245 1_554
F4 V0 1.932523 1_555
F4 V1 2.106175 1_555
F4 Li0 2.364133 1_555
F5 V0 1.985948 1_455
F5 V4 1.987358 1_556
F6 Li0 1.937432 1_555
F6 V5 2.049042 1_655
F6 V1 2.087491 1_555
F7 Li0 1.994707 1_555
F7 V0 2.038605 1_545
F7 V3 2.075029 1_655
F8 V1 1.976217 1_555
F8 V5 2.023412 1_665
F9 V0 1.945501 1_455
F9 V3 2.069166 1_555
F10 V4 1.937928 1_645
F10 V5 2.102643 1_655
F10 Li2 2.418960 1_655
F11 V4 1.933619 1_656
F11 V2 2.072967 1_555
F12 V0 1.938354 1_545
F12 V3 2.079637 1_555
F13 Li1 1.922407 1_555
F13 V4 2.062285 1_646
F13 V2 2.070181 1_555
F13 Li2 2.492918 1_656
F14 Li1 1.931456 1_555
F14 V0 2.051210 1_555
F14 V3 2.083635 1_555
F14 Li0 2.450489 1_555
