# generated using pymatgen
data_Li4Ti5Co3O16
_symmetry_space_group_name_H-M   'P 1'
_cell_length_a   5.80453662
_cell_length_b   5.80453662
_cell_length_c   9.51549190
_cell_angle_alpha   89.68334659
_cell_angle_beta   89.68334659
_cell_angle_gamma   60.57777467
_symmetry_Int_Tables_number   1
_chemical_formula_structural   Li4Ti5Co3O16
_chemical_formula_sum   'Li4 Ti5 Co3 O16'
_cell_volume   279.24618153
_cell_formula_units_Z   1
loop_
 _symmetry_equiv_pos_site_id
 _symmetry_equiv_pos_as_xyz
  1  'x, y, z'
loop_
 _atom_site_type_symbol
 _atom_site_label
 _atom_site_symmetry_multiplicity
 _atom_site_fract_x
 _atom_site_fract_y
 _atom_site_fract_z
 _atom_site_occupancy
  Li  Li0  1  0.33357100  0.33357100  0.10777100  1
  Li  Li1  1  0.01136200  0.01136200  0.00807700  1
  Li  Li2  1  0.00425500  0.00425500  0.50456600  1
  Li  Li3  1  0.66507500  0.66507500  0.59810400  1
  Ti  Ti0  1  0.82470700  0.82470700  0.27345200  1
  Ti  Ti1  1  0.65147000  0.16141800  0.77888300  1
  Ti  Ti2  1  0.33342000  0.33342000  0.49649800  1
  Ti  Ti3  1  0.16141800  0.65147000  0.77888300  1
  Ti  Ti4  1  0.65414800  0.65414800  0.00581700  1
  Co  Co0  1  0.17268900  0.17268900  0.79079300  1
  Co  Co1  1  0.82897000  0.34365500  0.28805400  1
  Co  Co2  1  0.34365500  0.82897000  0.28805400  1
  O  O0  1  0.66631800  0.17464000  0.40257900  1
  O  O1  1  0.48399500  0.48399500  0.66492300  1
  O  O2  1  0.33915600  0.33915600  0.89848000  1
  O  O3  1  0.00307500  0.00307500  0.69512300  1
  O  O4  1  0.00378700  0.00378700  0.19650500  1
  O  O5  1  0.17464000  0.66631800  0.40257900  1
  O  O6  1  0.49934800  0.03566000  0.65080500  1
  O  O7  1  0.03566000  0.49934800  0.65080500  1
  O  O8  1  0.83311600  0.83311600  0.90416100  1
  O  O9  1  0.16837100  0.16837100  0.39913900  1
  O  O10  1  0.96489600  0.51712700  0.16283500  1
  O  O11  1  0.51712700  0.96489600  0.16283500  1
  O  O12  1  0.66634700  0.66634700  0.39315600  1
  O  O13  1  0.81962200  0.33993000  0.90889300  1
  O  O14  1  0.52152100  0.52152100  0.16988700  1
  O  O15  1  0.33993000  0.81962200  0.90889300  1
loop_
_geom_bond_atom_site_label_1
_geom_bond_atom_site_label_2
_geom_bond_distance
_geom_bond_site_symmetry_2
Li0 O10 1.934666 1_455
Li0 O11 1.934666 1_545
Li0 O14 1.978222 1_555
Li0 O2 1.991935 1_554
Li1 O4 1.794107 1_555
Li1 O15 1.916518 1_544
Li1 O13 1.916518 1_454
Li1 O8 2.047688 1_444
Li2 O3 1.813206 1_555
Li2 O9 1.921408 1_555
Li2 O5 1.967760 1_545
Li2 O0 1.967760 1_455
Li3 O1 1.919499 1_555
Li3 O6 1.943593 1_565
Li3 O7 1.943593 1_655
Li3 O12 1.950141 1_555
Co0 O3 1.933770 1_555
Co0 O2 1.963805 1_555
Co0 O13 2.106476 1_455
Co0 O15 2.106476 1_545
Co0 O6 2.122332 1_555
Co0 O7 2.122332 1_555
Co1 O12 1.916457 1_555
Co1 O14 1.927218 1_555
Co1 O4 1.929469 1_655
Co1 O10 1.952691 1_555
Co1 O0 1.981975 1_555
Co1 O9 2.018779 1_655
Co2 O12 1.916457 1_555
Co2 O14 1.927218 1_555
Co2 O4 1.929469 1_565
Co2 O11 1.952691 1_555
Co2 O5 1.981975 1_555
Co2 O9 2.018779 1_565
O0 Ti2 1.903223 1_555
O0 Ti0 2.158962 1_545
O1 Ti3 1.956454 1_555
O1 Ti1 1.956454 1_555
O1 Ti2 2.208571 1_555
O2 Ti3 1.948977 1_555
O2 Ti1 1.948977 1_555
O3 Ti3 1.947421 1_545
O3 Ti1 1.947421 1_455
O4 Ti0 1.934394 1_445
O5 Ti2 1.903223 1_555
O5 Ti0 2.158962 1_455
O6 Ti1 1.858178 1_555
O6 Ti2 2.103063 1_555
O7 Ti3 1.858178 1_555
O7 Ti2 2.103063 1_555
O8 Ti4 2.032743 1_556
O8 Ti1 2.044248 1_565
O8 Ti3 2.044248 1_655
O9 Ti2 1.901388 1_555
O10 Ti0 1.881896 1_555
O10 Ti4 2.173846 1_555
O11 Ti0 1.881896 1_555
O11 Ti4 2.173846 1_555
O12 Ti0 1.947894 1_555
O13 Ti4 1.840483 1_556
O13 Ti1 2.139609 1_555
O14 Ti4 2.044106 1_555
O15 Ti4 1.840483 1_556
O15 Ti3 2.139609 1_555
