# generated using pymatgen
data_Li8Fe7Ni(PO4)12
_symmetry_space_group_name_H-M   'P 1'
_cell_length_a   8.68802000
_cell_length_b   8.82226197
_cell_length_c   12.26899168
_cell_angle_alpha   89.86989584
_cell_angle_beta   89.96682456
_cell_angle_gamma   89.96172818
_symmetry_Int_Tables_number   1
_chemical_formula_structural   Li8Fe7Ni(PO4)12
_chemical_formula_sum   'Li8 Fe7 Ni1 P12 O48'
_cell_volume   940.39074097
_cell_formula_units_Z   1
loop_
 _symmetry_equiv_pos_site_id
 _symmetry_equiv_pos_as_xyz
  1  'x, y, z'
loop_
 _atom_site_type_symbol
 _atom_site_label
 _atom_site_symmetry_multiplicity
 _atom_site_fract_x
 _atom_site_fract_y
 _atom_site_fract_z
 _atom_site_occupancy
  Li  Li0  1  0.21771400  0.72215300  0.18310800  1
  Li  Li1  1  0.21858200  0.77759300  0.81672100  1
  Li  Li2  1  0.28161000  0.22202600  0.31758400  1
  Li  Li3  1  0.28286200  0.27772700  0.68233900  1
  Li  Li4  1  0.71659800  0.72217300  0.31759700  1
  Li  Li5  1  0.71716500  0.77633000  0.68257700  1
  Li  Li6  1  0.78284400  0.22226900  0.18314000  1
  Li  Li7  1  0.78283500  0.27851700  0.81419600  1
  Fe  Fe0  1  0.24965400  0.95807800  0.61338800  1
  Fe  Fe1  1  0.24849800  0.54150000  0.38681800  1
  Fe  Fe2  1  0.25053500  0.04096500  0.11342600  1
  Fe  Fe3  1  0.25082800  0.45813200  0.88725400  1
  Fe  Fe4  1  0.75038600  0.54061000  0.11216300  1
  Fe  Fe5  1  0.74955200  0.95942000  0.88619100  1
  Fe  Fe6  1  0.74951800  0.04061500  0.38671100  1
  Ni  Ni0  1  0.74892700  0.46052400  0.61408000  1
  P  P0  1  0.03884800  0.25127200  0.50056000  1
  P  P1  1  0.46012700  0.74985900  0.99995700  1
  P  P2  1  0.53960100  0.25000300  0.99989700  1
  P  P3  1  0.96125200  0.74971000  0.50008500  1
  P  P4  1  0.10608500  0.39273000  0.14642500  1
  P  P5  1  0.10621900  0.10709300  0.85325200  1
  P  P6  1  0.39552400  0.60785500  0.64656700  1
  P  P7  1  0.39416100  0.89278600  0.35352100  1
  P  P8  1  0.60539600  0.10857000  0.64677400  1
  P  P9  1  0.60558800  0.39193200  0.35257900  1
  P  P10  1  0.89396300  0.60727600  0.85300500  1
  P  P11  1  0.89401900  0.89228600  0.14637500  1
  O  O0  1  0.05700100  0.64250500  0.42927800  1
  O  O1  1  0.05842300  0.85623000  0.57005300  1
  O  O2  1  0.07281100  0.89528000  0.15522200  1
  O  O3  1  0.07295800  0.60405400  0.84371800  1
  O  O4  1  0.14678200  0.16242100  0.57928600  1
  O  O5  1  0.14741800  0.33864200  0.42130000  1
  O  O6  1  0.15648700  0.43476500  0.03091200  1
  O  O7  1  0.15677900  0.06517700  0.96898500  1
  O  O8  1  0.16235900  0.23237400  0.17945800  1
  O  O9  1  0.16302500  0.26699900  0.82037000  1
  O  O10  1  0.17356900  0.51210300  0.22676000  1
  O  O11  1  0.17317200  0.98715500  0.77311700  1
  O  O12  1  0.32677200  0.01230700  0.27367000  1
  O  O13  1  0.32848000  0.48734100  0.72689200  1
  O  O14  1  0.33800900  0.76781700  0.67909400  1
  O  O15  1  0.33771100  0.73220800  0.32111100  1
  O  O16  1  0.34392800  0.56442300  0.53115300  1
  O  O17  1  0.34257400  0.93446000  0.46922100  1
  O  O18  1  0.35124300  0.83755300  0.07852500  1
  O  O19  1  0.35084400  0.66238900  0.92156600  1
  O  O20  1  0.42627400  0.10394100  0.65449700  1
  O  O21  1  0.42678200  0.39442900  0.34445000  1
  O  O22  1  0.44240000  0.14294400  0.06974800  1
  O  O23  1  0.44272300  0.35731600  0.93040700  1
  O  O24  1  0.55794600  0.64296400  0.06946500  1
  O  O25  1  0.55788900  0.85647300  0.92998800  1
  O  O26  1  0.57284300  0.60632000  0.65690200  1
  O  O27  1  0.57249200  0.89537800  0.34491000  1
  O  O28  1  0.64885500  0.33721200  0.07857600  1
  O  O29  1  0.64922800  0.16291200  0.92139600  1
  O  O30  1  0.65607800  0.06611900  0.53064100  1
  O  O31  1  0.65593000  0.43954300  0.46675400  1
  O  O32  1  0.66296900  0.23224700  0.32048700  1
  O  O33  1  0.66020500  0.26673600  0.68002700  1
  O  O34  1  0.67157000  0.51221700  0.27204400  1
  O  O35  1  0.67239800  0.98725600  0.72626600  1
  O  O36  1  0.82723900  0.01173800  0.22677100  1
  O  O37  1  0.82973600  0.48708900  0.77449500  1
  O  O38  1  0.83727800  0.73210600  0.17905300  1
  O  O39  1  0.83776600  0.76816000  0.82077800  1
  O  O40  1  0.84331400  0.56537500  0.96903000  1
  O  O41  1  0.84325200  0.93420200  0.03067200  1
  O  O42  1  0.85276900  0.66455800  0.57893100  1
  O  O43  1  0.85136600  0.83690300  0.42177800  1
  O  O44  1  0.92752800  0.10391600  0.84450500  1
  O  O45  1  0.92725100  0.39611200  0.15572700  1
  O  O46  1  0.93954000  0.14534500  0.43037500  1
  O  O47  1  0.94714500  0.35427200  0.57534700  1
loop_
_geom_bond_atom_site_label_1
_geom_bond_atom_site_label_2
_geom_bond_distance
_geom_bond_site_symmetry_2
Li0 O10 1.965750 1_555
Li0 O15 1.991076 1_555
Li0 O18 2.005662 1_555
Li0 O2 2.007575 1_555
Li1 O11 1.963346 1_555
Li1 O14 1.983359 1_555
Li1 O19 2.000574 1_555
Li1 O3 2.013500 1_555
Li2 O12 1.967429 1_555
Li2 O8 1.988679 1_555
Li2 O21 2.004528 1_555
Li2 O5 2.009865 1_555
Li3 O13 1.970150 1_555
Li3 O9 1.989535 1_555
Li3 O20 2.004772 1_555
Li3 O4 2.010061 1_555
Li4 O34 1.975421 1_555
Li4 O38 1.998413 1_555
Li4 O27 2.003507 1_555
Li4 O43 2.009580 1_555
Li5 O35 1.976019 1_555
Li5 O26 1.981454 1_555
Li5 O39 1.994859 1_555
Li5 O42 1.994945 1_555
Li6 O36 1.969740 1_555
Li6 O32 1.982557 1_555
Li6 O28 2.005867 1_555
Li6 O45 2.009753 1_555
Li7 O37 1.945734 1_555
Li7 O33 1.964323 1_555
Li7 O44 2.021554 1_555
Li7 O29 2.027602 1_555
Fe0 O17 1.955384 1_555
Fe0 O1 1.963552 1_555
Fe0 O14 2.012324 1_555
Fe0 O4 2.053942 1_565
Fe0 O20 2.066749 1_565
Fe0 O11 2.085272 1_555
Fe1 O0 1.957689 1_555
Fe1 O16 1.966658 1_555
Fe1 O15 2.018968 1_555
Fe1 O5 2.037480 1_555
Fe1 O10 2.085995 1_555
Fe1 O21 2.086230 1_555
Fe2 O7 1.961975 1_554
Fe2 O22 1.968256 1_555
Fe2 O8 2.024487 1_555
Fe2 O18 2.042126 1_545
Fe2 O2 2.073107 1_545
Fe2 O12 2.089722 1_555
Fe3 O6 1.953906 1_556
Fe3 O23 1.961582 1_555
Fe3 O9 2.026668 1_555
Fe3 O19 2.045843 1_555
Fe3 O3 2.079869 1_555
Fe3 O13 2.094974 1_555
Fe4 O40 1.944298 1_554
Fe4 O24 1.970280 1_555
Fe4 O38 2.026399 1_555
Fe4 O28 2.042985 1_555
Fe4 O45 2.065717 1_555
Fe4 O34 2.091858 1_555
Fe5 O41 1.963181 1_556
Fe5 O25 1.971086 1_555
Fe5 O39 2.020473 1_555
Fe5 O29 2.042115 1_565
Fe5 O44 2.067926 1_565
Fe5 O35 2.087739 1_555
Fe6 O30 1.956496 1_555
Fe6 O46 1.967616 1_555
Fe6 O32 2.019050 1_555
Fe6 O43 2.047636 1_545
Fe6 O27 2.068040 1_545
Fe6 O36 2.090931 1_555
Ni0 O31 1.989391 1_555
Ni0 O47 2.017211 1_555
Ni0 O33 2.041192 1_555
Ni0 O42 2.058700 1_555
Ni0 O26 2.066478 1_555
Ni0 O37 2.103635 1_555
O0 P3 1.530707 1_455
O1 P3 1.529155 1_455
O2 P11 1.557445 1_455
O3 P10 1.559460 1_455
O4 P0 1.556714 1_555
O5 P0 1.557567 1_555
O6 P4 1.528045 1_555
O7 P5 1.531018 1_555
O8 P4 1.549636 1_555
O9 P5 1.547453 1_555
O10 P4 1.559015 1_555
O11 P5 1.558160 1_565
O12 P7 1.552283 1_545
O13 P6 1.560871 1_555
O14 P6 1.549805 1_555
O15 P7 1.552188 1_555
O16 P6 1.535019 1_555
O17 P7 1.533787 1_555
O18 P1 1.556918 1_554
O19 P1 1.558005 1_555
O20 P8 1.559599 1_555
O21 P9 1.556864 1_555
O22 P2 1.528477 1_554
O23 P2 1.525688 1_555
O24 P1 1.528063 1_554
O25 P1 1.529570 1_555
O26 P6 1.545882 1_555
O27 P7 1.553060 1_555
O28 P2 1.558899 1_554
O29 P2 1.557699 1_555
O30 P8 1.538109 1_555
O31 P9 1.527621 1_555
O32 P9 1.545827 1_555
O33 P8 1.531008 1_555
O34 P9 1.557703 1_555
O35 P8 1.559035 1_565
O36 P11 1.556718 1_545
O37 P10 1.539328 1_555
O38 P11 1.548832 1_555
O39 P10 1.551144 1_555
O40 P10 1.534199 1_555
O41 P11 1.531195 1_555
O42 P3 1.544357 1_555
O43 P3 1.556575 1_555
O44 P5 1.556513 1_655
O45 P4 1.558104 1_655
O46 P0 1.537794 1_655
O47 P0 1.518016 1_655
