# generated using pymatgen
data_LiNiPO4
_symmetry_space_group_name_H-M   'P 1'
_cell_length_a   7.41899700
_cell_length_b   8.53777200
_cell_length_c   17.20192681
_cell_angle_alpha   61.86576613
_cell_angle_beta   90.00000000
_cell_angle_gamma   90.00000000
_symmetry_Int_Tables_number   1
_chemical_formula_structural   LiNiPO4
_chemical_formula_sum   'Li12 Ni12 P12 O48'
_cell_volume   960.85806461
_cell_formula_units_Z   12
loop_
 _symmetry_equiv_pos_site_id
 _symmetry_equiv_pos_as_xyz
  1  'x, y, z'
loop_
 _atom_site_type_symbol
 _atom_site_label
 _atom_site_symmetry_multiplicity
 _atom_site_fract_x
 _atom_site_fract_y
 _atom_site_fract_z
 _atom_site_occupancy
  Li  Li0  1  0.97879600  0.29553100  0.93286100  1
  Li  Li1  1  0.02818500  0.64212600  0.58562500  1
  Li  Li2  1  0.06330300  0.00129900  0.24314100  1
  Li  Li3  1  0.56330300  0.99870100  0.25685900  1
  Li  Li4  1  0.52818500  0.35787400  0.91437500  1
  Li  Li5  1  0.47879600  0.70446900  0.56713900  1
  Li  Li6  1  0.52120400  0.29553100  0.43286100  1
  Li  Li7  1  0.47181500  0.64212600  0.08562500  1
  Li  Li8  1  0.43669700  0.00129900  0.74314100  1
  Li  Li9  1  0.93669700  0.99870100  0.75685900  1
  Li  Li10  1  0.97181500  0.35787400  0.41437500  1
  Li  Li11  1  0.02120400  0.70446900  0.06713900  1
  Ni  Ni0  1  0.68894400  0.64681300  0.40524900  1
  Ni  Ni1  1  0.81412600  0.32770300  0.76206300  1
  Ni  Ni2  1  0.68022100  0.00177000  0.07910000  1
  Ni  Ni3  1  0.18022100  0.99823000  0.42090000  1
  Ni  Ni4  1  0.31412600  0.67229700  0.73793700  1
  Ni  Ni5  1  0.18894400  0.35318700  0.09475100  1
  Ni  Ni6  1  0.81105600  0.64681300  0.90524900  1
  Ni  Ni7  1  0.68587400  0.32770300  0.26206300  1
  Ni  Ni8  1  0.81977900  0.00177000  0.57910000  1
  Ni  Ni9  1  0.31977900  0.99823000  0.92090000  1
  Ni  Ni10  1  0.18587400  0.67229700  0.23793700  1
  Ni  Ni11  1  0.31105600  0.35318700  0.59475100  1
  P  P0  1  0.26490500  0.65716900  0.40590700  1
  P  P1  1  0.22708500  0.30832200  0.76709700  1
  P  P2  1  0.26038900  0.02971600  0.07781200  1
  P  P3  1  0.76038900  0.97028400  0.42218800  1
  P  P4  1  0.72708500  0.69167800  0.73290300  1
  P  P5  1  0.76490500  0.34283100  0.09409300  1
  P  P6  1  0.23509500  0.65716900  0.90590700  1
  P  P7  1  0.27291500  0.30832200  0.26709700  1
  P  P8  1  0.23961100  0.02971600  0.57781200  1
  P  P9  1  0.73961100  0.97028400  0.92218800  1
  P  P10  1  0.77291500  0.69167800  0.23290300  1
  P  P11  1  0.73509500  0.34283100  0.59409300  1
  O  O0  1  0.44271500  0.57958400  0.38990500  1
  O  O1  1  0.88662000  0.40192700  0.63786600  1
  O  O2  1  0.38393800  0.25519800  0.83492500  1
  O  O3  1  0.22695700  0.58411100  0.50591400  1
  O  O4  1  0.78722000  0.09967100  0.95994400  1
  O  O5  1  0.76070900  0.80499400  0.28200800  1
  O  O6  1  0.26099100  0.92298200  0.18026800  1
  O  O7  1  0.05083200  0.26743200  0.82218200  1
  O  O8  1  0.44632300  0.11873300  0.04070200  1
  O  O9  1  0.23200200  0.50715600  0.69456400  1
  O  O10  1  0.12541700  0.18726800  0.04592000  1
  O  O11  1  0.26987600  0.86334600  0.36131400  1
  O  O12  1  0.76987600  0.13665400  0.13868600  1
  O  O13  1  0.62541700  0.81273200  0.45408000  1
  O  O14  1  0.73200200  0.49284400  0.80543600  1
  O  O15  1  0.94632300  0.88126700  0.45929800  1
  O  O16  1  0.55083200  0.73256800  0.67781800  1
  O  O17  1  0.76099100  0.07701800  0.31973200  1
  O  O18  1  0.26070900  0.19500600  0.21799200  1
  O  O19  1  0.28722000  0.90032900  0.54005600  1
  O  O20  1  0.72695700  0.41588900  0.99408600  1
  O  O21  1  0.88393800  0.74480200  0.66507500  1
  O  O22  1  0.38662000  0.59807300  0.86213400  1
  O  O23  1  0.94271500  0.42041600  0.11009500  1
  O  O24  1  0.05728500  0.57958400  0.88990500  1
  O  O25  1  0.61338000  0.40192700  0.13786600  1
  O  O26  1  0.11606200  0.25519800  0.33492500  1
  O  O27  1  0.27304300  0.58411100  0.00591400  1
  O  O28  1  0.71278000  0.09967100  0.45994400  1
  O  O29  1  0.73929100  0.80499400  0.78200800  1
  O  O30  1  0.23900900  0.92298200  0.68026800  1
  O  O31  1  0.44916800  0.26743200  0.32218200  1
  O  O32  1  0.05367700  0.11873300  0.54070200  1
  O  O33  1  0.26799800  0.50715600  0.19456400  1
  O  O34  1  0.37458300  0.18726800  0.54592000  1
  O  O35  1  0.23012400  0.86334600  0.86131400  1
  O  O36  1  0.73012400  0.13665400  0.63868600  1
  O  O37  1  0.76799800  0.49284400  0.30543600  1
  O  O38  1  0.87458300  0.81273200  0.95408000  1
  O  O39  1  0.55367700  0.88126700  0.95929800  1
  O  O40  1  0.94916800  0.73256800  0.17781800  1
  O  O41  1  0.73900900  0.07701800  0.81973200  1
  O  O42  1  0.23929100  0.19500600  0.71799200  1
  O  O43  1  0.21278000  0.90032900  0.04005600  1
  O  O44  1  0.77304300  0.41588900  0.49408600  1
  O  O45  1  0.61606200  0.74480200  0.16507500  1
  O  O46  1  0.11338000  0.59807300  0.36213400  1
  O  O47  1  0.55728500  0.42041600  0.61009500  1
loop_
_geom_bond_atom_site_label_1
_geom_bond_atom_site_label_2
_geom_bond_distance
_geom_bond_site_symmetry_2
Li0 O10 2.030933 1_656
Li0 O4 2.073335 1_555
Li0 O7 2.097315 1_655
Li0 O24 2.253125 1_655
Li0 O20 2.583927 1_555
Li1 O1 2.092429 1_455
Li1 O21 2.216181 1_455
Li1 O3 2.222769 1_555
Li1 O15 2.252882 1_455
Li1 O9 2.256014 1_555
Li2 O18 2.095823 1_555
Li2 O6 2.109474 1_545
Li2 O11 2.368609 1_545
Li3 O5 2.095823 1_555
Li3 O17 2.109474 1_565
Li3 O12 2.368609 1_565
Li4 O22 2.092429 1_555
Li4 O2 2.216181 1_555
Li4 O20 2.222769 1_555
Li4 O8 2.252882 1_556
Li4 O14 2.256014 1_555
Li5 O13 2.030933 1_555
Li5 O19 2.073335 1_555
Li5 O16 2.097315 1_555
Li5 O47 2.253125 1_555
Li5 O3 2.583927 1_555
Li6 O34 2.030933 1_555
Li6 O28 2.073335 1_555
Li6 O31 2.097315 1_555
Li6 O0 2.253125 1_555
Li6 O44 2.583927 1_555
Li7 O25 2.092429 1_555
Li7 O45 2.216181 1_555
Li7 O27 2.222769 1_555
Li7 O39 2.252882 1_554
Li7 O33 2.256014 1_555
Li8 O42 2.095823 1_555
Li8 O30 2.109474 1_545
Li8 O35 2.368609 1_545
Li9 O29 2.095823 1_555
Li9 O41 2.109474 1_565
Li9 O36 2.368609 1_565
Li10 O46 2.092429 1_655
Li10 O26 2.216181 1_655
Li10 O44 2.222769 1_555
Li10 O32 2.252882 1_655
Li10 O37 2.256014 1_555
Li11 O38 2.030933 1_454
Li11 O43 2.073335 1_555
Li11 O40 2.097315 1_455
Li11 O23 2.253125 1_455
Li11 O27 2.583927 1_555
Ni0 O44 1.941726 1_555
Ni0 O0 1.969544 1_555
Ni0 O5 1.975246 1_555
Ni0 O13 2.014095 1_555
Ni1 O41 1.968038 1_555
Ni1 O14 1.976835 1_555
Ni1 O7 1.978984 1_655
Ni1 O1 1.994585 1_555
Ni2 O8 1.955165 1_555
Ni2 O4 1.978483 1_554
Ni2 O12 1.983039 1_555
Ni2 O45 2.041366 1_545
Ni3 O15 1.955165 1_455
Ni3 O19 1.978483 1_555
Ni3 O11 1.983039 1_555
Ni3 O26 2.041366 1_565
Ni4 O30 1.968038 1_555
Ni4 O9 1.976835 1_555
Ni4 O16 1.978984 1_555
Ni4 O22 1.994585 1_555
Ni5 O27 1.941726 1_555
Ni5 O23 1.969544 1_455
Ni5 O18 1.975246 1_555
Ni5 O10 2.014095 1_555
Ni6 O20 1.941726 1_555
Ni6 O24 1.969544 1_655
Ni6 O29 1.975246 1_555
Ni6 O38 2.014095 1_555
Ni7 O17 1.968038 1_555
Ni7 O37 1.976835 1_555
Ni7 O31 1.978984 1_555
Ni7 O25 1.994585 1_555
Ni8 O32 1.955165 1_655
Ni8 O28 1.978483 1_555
Ni8 O36 1.983039 1_555
Ni8 O21 2.041366 1_545
Ni9 O39 1.955165 1_555
Ni9 O43 1.978483 1_556
Ni9 O35 1.983039 1_555
Ni9 O2 2.041366 1_565
Ni10 O6 1.968038 1_555
Ni10 O33 1.976835 1_555
Ni10 O40 1.978984 1_455
Ni10 O46 1.994585 1_555
Ni11 O3 1.941726 1_555
Ni11 O47 1.969544 1_555
Ni11 O42 1.975246 1_555
Ni11 O34 2.014095 1_555
O0 P0 1.557794 1_555
O1 P11 1.563196 1_555
O2 P1 1.556334 1_555
O3 P0 1.554297 1_555
O4 P9 1.563173 1_545
O5 P10 1.558336 1_555
O6 P2 1.556275 1_565
O7 P1 1.554882 1_555
O8 P2 1.558987 1_555
O9 P1 1.562821 1_555
O10 P2 1.554718 1_555
O11 P0 1.554019 1_555
O12 P5 1.554019 1_555
O13 P3 1.554718 1_555
O14 P4 1.562821 1_555
O15 P3 1.558987 1_555
O16 P4 1.554882 1_555
O17 P3 1.556275 1_545
O18 P7 1.558336 1_555
O19 P8 1.563173 1_565
O20 P5 1.554297 1_556
O21 P4 1.556334 1_555
O22 P6 1.563196 1_555
O23 P5 1.557794 1_555
O24 P6 1.557794 1_555
O25 P5 1.563196 1_555
O26 P7 1.556334 1_555
O27 P6 1.554297 1_554
O28 P3 1.563173 1_545
O29 P4 1.558336 1_555
O30 P8 1.556275 1_565
O31 P7 1.554882 1_555
O32 P8 1.558987 1_555
O33 P7 1.562821 1_555
O34 P8 1.554718 1_555
O35 P6 1.554019 1_555
O36 P11 1.554019 1_555
O37 P10 1.562821 1_555
O38 P9 1.554718 1_555
O39 P9 1.558987 1_555
O40 P10 1.554882 1_555
O41 P9 1.556275 1_545
O42 P1 1.558336 1_555
O43 P2 1.563173 1_565
O44 P11 1.554297 1_555
O45 P10 1.556334 1_555
O46 P0 1.563196 1_555
O47 P11 1.557794 1_555
