# generated using pymatgen
data_K2ScSi2O7
_symmetry_space_group_name_H-M   'P 1'
_cell_length_a   8.53862800
_cell_length_b   12.79516600
_cell_length_c   12.85978000
_cell_angle_alpha   90.00000000
_cell_angle_beta   90.00000000
_cell_angle_gamma   90.00000000
_symmetry_Int_Tables_number   1
_chemical_formula_structural   K2ScSi2O7
_chemical_formula_sum   'K16 Sc8 Si16 O56'
_cell_volume   1404.97163627
_cell_formula_units_Z   8
loop_
 _symmetry_equiv_pos_site_id
 _symmetry_equiv_pos_as_xyz
  1  'x, y, z'
loop_
 _atom_site_type_symbol
 _atom_site_label
 _atom_site_symmetry_multiplicity
 _atom_site_fract_x
 _atom_site_fract_y
 _atom_site_fract_z
 _atom_site_occupancy
  K  K0  1  0.00000000  0.48148300  0.29127800  1
  K  K1  1  0.00000000  0.51851700  0.70872200  1
  K  K2  1  0.00000000  0.98148300  0.20872200  1
  K  K3  1  0.00000000  0.01851700  0.79127800  1
  K  K4  1  0.50000000  0.52588800  0.34283100  1
  K  K5  1  0.50000000  0.47411200  0.65716900  1
  K  K6  1  0.50000000  0.02588800  0.15716900  1
  K  K7  1  0.50000000  0.97411200  0.84283100  1
  K  K8  1  0.00000000  0.84438000  0.52111400  1
  K  K9  1  0.00000000  0.15562000  0.47888600  1
  K  K10  1  0.00000000  0.34438000  0.97888600  1
  K  K11  1  0.00000000  0.65562000  0.02111400  1
  K  K12  1  0.50000000  0.78464400  0.52106700  1
  K  K13  1  0.50000000  0.21535600  0.47893300  1
  K  K14  1  0.50000000  0.28464400  0.97893300  1
  K  K15  1  0.50000000  0.71535600  0.02106700  1
  Sc  Sc0  1  0.25070200  0.74978000  0.25185100  1
  Sc  Sc1  1  0.25070200  0.25022000  0.74814900  1
  Sc  Sc2  1  0.74929800  0.24978000  0.24814900  1
  Sc  Sc3  1  0.74929800  0.75022000  0.75185100  1
  Sc  Sc4  1  0.74929800  0.25022000  0.74814900  1
  Sc  Sc5  1  0.74929800  0.74978000  0.25185100  1
  Sc  Sc6  1  0.25070200  0.75022000  0.75185100  1
  Sc  Sc7  1  0.25070200  0.24978000  0.24814900  1
  Si  Si0  1  0.18847500  0.62242500  0.49409300  1
  Si  Si1  1  0.18847500  0.37757500  0.50590700  1
  Si  Si2  1  0.81152500  0.12242500  0.00590700  1
  Si  Si3  1  0.81152500  0.87757500  0.99409300  1
  Si  Si4  1  0.81152500  0.37757500  0.50590700  1
  Si  Si5  1  0.81152500  0.62242500  0.49409300  1
  Si  Si6  1  0.18847500  0.87757500  0.99409300  1
  Si  Si7  1  0.18847500  0.12242500  0.00590700  1
  Si  Si8  1  0.31156500  0.49299900  0.12087300  1
  Si  Si9  1  0.31156500  0.50700100  0.87912700  1
  Si  Si10  1  0.68843500  0.99299900  0.37912700  1
  Si  Si11  1  0.68843500  0.00700100  0.62087300  1
  Si  Si12  1  0.68843500  0.50700100  0.87912700  1
  Si  Si13  1  0.68843500  0.49299900  0.12087300  1
  Si  Si14  1  0.31156500  0.00700100  0.62087300  1
  Si  Si15  1  0.31156500  0.99299900  0.37912700  1
  O  O0  1  0.25794900  0.50000000  0.50000000  1
  O  O1  1  0.74205100  0.00000000  0.00000000  1
  O  O2  1  0.74205100  0.50000000  0.50000000  1
  O  O3  1  0.25794900  0.00000000  0.00000000  1
  O  O4  1  0.23968700  0.50000000  0.00000000  1
  O  O5  1  0.76031300  0.00000000  0.50000000  1
  O  O6  1  0.76031300  0.50000000  0.00000000  1
  O  O7  1  0.23968700  0.00000000  0.50000000  1
  O  O8  1  0.00000000  0.61211400  0.46636300  1
  O  O9  1  0.00000000  0.38788600  0.53363700  1
  O  O10  1  0.00000000  0.11211400  0.03363700  1
  O  O11  1  0.00000000  0.88788600  0.96636300  1
  O  O12  1  0.50000000  0.46807300  0.10969000  1
  O  O13  1  0.50000000  0.53192700  0.89031000  1
  O  O14  1  0.50000000  0.96807300  0.39031000  1
  O  O15  1  0.50000000  0.03192700  0.60969000  1
  O  O16  1  0.00000000  0.72737300  0.25321300  1
  O  O17  1  0.00000000  0.27262700  0.74678700  1
  O  O18  1  0.00000000  0.22737300  0.24678700  1
  O  O19  1  0.00000000  0.77262700  0.75321300  1
  O  O20  1  0.50000000  0.76813100  0.23514100  1
  O  O21  1  0.50000000  0.23186900  0.76485900  1
  O  O22  1  0.50000000  0.26813100  0.26485900  1
  O  O23  1  0.50000000  0.73186900  0.73514100  1
  O  O24  1  0.27838700  0.67822500  0.39907700  1
  O  O25  1  0.27838700  0.32177500  0.60092300  1
  O  O26  1  0.72161300  0.17822500  0.10092300  1
  O  O27  1  0.72161300  0.82177500  0.89907700  1
  O  O28  1  0.72161300  0.32177500  0.60092300  1
  O  O29  1  0.72161300  0.67822500  0.39907700  1
  O  O30  1  0.27838700  0.82177500  0.89907700  1
  O  O31  1  0.27838700  0.17822500  0.10092300  1
  O  O32  1  0.28578100  0.60405400  0.17769000  1
  O  O33  1  0.28578100  0.39594600  0.82231000  1
  O  O34  1  0.71421900  0.10405400  0.32231000  1
  O  O35  1  0.71421900  0.89594600  0.67769000  1
  O  O36  1  0.71421900  0.39594600  0.82231000  1
  O  O37  1  0.71421900  0.60405400  0.17769000  1
  O  O38  1  0.28578100  0.89594600  0.67769000  1
  O  O39  1  0.28578100  0.10405400  0.32231000  1
  O  O40  1  0.20809200  0.81899500  0.10435400  1
  O  O41  1  0.20809200  0.18100500  0.89564600  1
  O  O42  1  0.79190800  0.31899500  0.39564600  1
  O  O43  1  0.79190800  0.68100500  0.60435400  1
  O  O44  1  0.79190800  0.18100500  0.89564600  1
  O  O45  1  0.79190800  0.81899500  0.10435400  1
  O  O46  1  0.20809200  0.68100500  0.60435400  1
  O  O47  1  0.20809200  0.31899500  0.39564600  1
  O  O48  1  0.22716800  0.89619500  0.32276200  1
  O  O49  1  0.22716800  0.10380500  0.67723800  1
  O  O50  1  0.77283200  0.39619500  0.17723800  1
  O  O51  1  0.77283200  0.60380500  0.82276200  1
  O  O52  1  0.77283200  0.10380500  0.67723800  1
  O  O53  1  0.77283200  0.89619500  0.32276200  1
  O  O54  1  0.22716800  0.60380500  0.82276200  1
  O  O55  1  0.22716800  0.39619500  0.17723800  1
loop_
_geom_bond_atom_site_label_1
_geom_bond_atom_site_label_2
_geom_bond_distance
_geom_bond_site_symmetry_2
K0 O55 2.665340 1_555
K0 O50 2.665340 1_455
K0 O8 2.804145 1_555
K1 O54 2.665340 1_555
K1 O51 2.665340 1_455
K1 O9 2.804145 1_555
K2 O48 2.665340 1_555
K2 O53 2.665340 1_455
K2 O10 2.804145 1_565
K3 O49 2.665340 1_555
K3 O52 2.665340 1_455
K3 O11 2.804145 1_545
K4 O29 2.811256 1_555
K4 O24 2.811256 1_555
K4 O2 2.909707 1_555
K4 O0 2.909707 1_555
K4 O37 2.975910 1_555
K4 O32 2.975910 1_555
K4 O12 3.088056 1_555
K5 O28 2.811256 1_555
K5 O25 2.811256 1_555
K5 O0 2.909707 1_555
K5 O2 2.909707 1_555
K5 O36 2.975910 1_555
K5 O33 2.975910 1_555
K5 O13 3.088056 1_555
K6 O26 2.811256 1_555
K6 O31 2.811256 1_555
K6 O1 2.909707 1_555
K6 O3 2.909707 1_555
K6 O34 2.975910 1_555
K6 O39 2.975910 1_555
K6 O14 3.088056 1_545
K7 O27 2.811256 1_555
K7 O30 2.811256 1_555
K7 O1 2.909707 1_566
K7 O3 2.909707 1_566
K7 O35 2.975910 1_555
K7 O38 2.975910 1_555
K7 O15 3.088056 1_565
K8 O7 2.868292 1_565
K8 O5 2.868292 1_465
K8 O46 2.944956 1_555
K8 O43 2.944956 1_455
K8 O8 3.054148 1_555
K8 O19 3.122752 1_555
K8 O38 3.231735 1_555
K8 O35 3.231735 1_455
K8 O48 3.272367 1_555
K8 O53 3.272367 1_455
K9 O7 2.868292 1_555
K9 O5 2.868292 1_455
K9 O47 2.944956 1_555
K9 O42 2.944956 1_455
K9 O9 3.054148 1_555
K9 O18 3.122752 1_555
K9 O39 3.231735 1_555
K9 O34 3.231735 1_455
K9 O49 3.272367 1_555
K9 O52 3.272367 1_455
K10 O4 2.868292 1_556
K10 O6 2.868292 1_456
K10 O41 2.944956 1_555
K10 O44 2.944956 1_455
K10 O10 3.054148 1_556
K10 O17 3.122752 1_555
K10 O33 3.231735 1_555
K10 O36 3.231735 1_455
K10 O55 3.272367 1_556
K10 O50 3.272367 1_456
K11 O4 2.868292 1_555
K11 O6 2.868292 1_455
K11 O40 2.944956 1_555
K11 O45 2.944956 1_455
K11 O11 3.054148 1_554
K11 O16 3.122752 1_555
K11 O32 3.231735 1_555
K11 O37 3.231735 1_455
K11 O54 3.272367 1_554
K11 O51 3.272367 1_454
K12 O29 2.809946 1_555
K12 O24 2.809946 1_555
K12 O23 2.834552 1_555
K12 O14 2.887195 1_555
K12 O43 3.019630 1_555
K12 O46 3.019630 1_555
K12 O35 3.070933 1_555
K12 O38 3.070933 1_555
K13 O28 2.809946 1_555
K13 O25 2.809946 1_555
K13 O22 2.834552 1_555
K13 O15 2.887195 1_555
K13 O47 3.019630 1_555
K13 O42 3.019630 1_555
K13 O34 3.070933 1_555
K13 O39 3.070933 1_555
K14 O26 2.809946 1_556
K14 O31 2.809946 1_556
K14 O21 2.834552 1_555
K14 O12 2.887195 1_556
K14 O44 3.019630 1_555
K14 O41 3.019630 1_555
K14 O36 3.070933 1_555
K14 O33 3.070933 1_555
K15 O27 2.809946 1_554
K15 O30 2.809946 1_554
K15 O20 2.834552 1_555
K15 O13 2.887195 1_554
K15 O45 3.019630 1_555
K15 O40 3.019630 1_555
K15 O37 3.070933 1_555
K15 O32 3.070933 1_555
O0 Si0 1.676732 1_555
O0 Si1 1.676732 1_555
O1 Si2 1.676732 1_555
O1 Si3 1.676732 1_544
O2 Si4 1.676732 1_555
O2 Si5 1.676732 1_555
O3 Si7 1.676732 1_555
O3 Si6 1.676732 1_544
O4 Si9 1.673577 1_554
O4 Si8 1.673577 1_555
O5 Si11 1.673577 1_555
O5 Si10 1.673577 1_545
O6 Si12 1.673577 1_554
O6 Si13 1.673577 1_555
O7 Si14 1.673577 1_555
O7 Si15 1.673577 1_545
O8 Si0 1.653625 1_555
O8 Si5 1.653625 1_455
O9 Si1 1.653625 1_555
O9 Si4 1.653625 1_455
O10 Si7 1.653625 1_555
O10 Si2 1.653625 1_455
O11 Si6 1.653625 1_555
O11 Si3 1.653625 1_455
O12 Si13 1.646574 1_555
O12 Si8 1.646574 1_555
O13 Si9 1.646574 1_555
O13 Si12 1.646574 1_555
O14 Si10 1.646574 1_555
O14 Si15 1.646574 1_555
O15 Si14 1.646574 1_555
O15 Si11 1.646574 1_555
O16 Sc5 2.159836 1_455
O16 Sc0 2.159836 1_555
O17 Sc4 2.159836 1_455
O17 Sc1 2.159836 1_555
O18 Sc7 2.159836 1_555
O18 Sc2 2.159836 1_455
O19 Sc3 2.159836 1_455
O19 Sc6 2.159836 1_555
O20 Sc0 2.152328 1_555
O20 Sc5 2.152328 1_555
O21 Sc1 2.152328 1_555
O21 Sc4 2.152328 1_555
O22 Sc7 2.152328 1_555
O22 Sc2 2.152328 1_555
O23 Sc3 2.152328 1_555
O23 Sc6 2.152328 1_555
O24 Si0 1.610018 1_555
O24 Sc0 2.116292 1_555
O25 Si1 1.610018 1_555
O25 Sc1 2.116292 1_555
O26 Si2 1.610018 1_555
O26 Sc2 2.116292 1_555
O27 Si3 1.610018 1_555
O27 Sc3 2.116292 1_555
O28 Si4 1.610018 1_555
O28 Sc4 2.116292 1_555
O29 Si5 1.610018 1_555
O29 Sc5 2.116292 1_555
O30 Si6 1.610018 1_555
O30 Sc6 2.116292 1_555
O31 Si7 1.610018 1_555
O31 Sc7 2.116292 1_555
O32 Si8 1.612908 1_555
O32 Sc0 2.115641 1_555
O33 Si9 1.612908 1_555
O33 Sc1 2.115641 1_555
O34 Si10 1.612908 1_545
O34 Sc2 2.115641 1_555
O35 Si11 1.612908 1_565
O35 Sc3 2.115641 1_555
O36 Si12 1.612908 1_555
O36 Sc4 2.115641 1_555
O37 Si13 1.612908 1_555
O37 Sc5 2.115641 1_555
O38 Si14 1.612908 1_565
O38 Sc6 2.115641 1_555
O39 Si15 1.612908 1_545
O39 Sc7 2.115641 1_555
O40 Si6 1.612576 1_554
O40 Sc0 2.124726 1_555
O41 Si7 1.612576 1_556
O41 Sc1 2.124726 1_555
O42 Si4 1.612576 1_555
O42 Sc2 2.124726 1_555
O43 Si5 1.612576 1_555
O43 Sc3 2.124726 1_555
O44 Si2 1.612576 1_556
O44 Sc4 2.124726 1_555
O45 Si3 1.612576 1_554
O45 Sc5 2.124726 1_555
O46 Si0 1.612576 1_555
O46 Sc6 2.124726 1_555
O47 Si1 1.612576 1_555
O47 Sc7 2.124726 1_555
O48 Si15 1.605894 1_555
O48 Sc0 2.093224 1_555
O49 Si14 1.605894 1_555
O49 Sc1 2.093224 1_555
O50 Si13 1.605894 1_555
O50 Sc2 2.093224 1_555
O51 Si12 1.605894 1_555
O51 Sc3 2.093224 1_555
O52 Si11 1.605894 1_555
O52 Sc4 2.093224 1_555
O53 Si10 1.605894 1_555
O53 Sc5 2.093224 1_555
O54 Si9 1.605894 1_555
O54 Sc6 2.093224 1_555
O55 Si8 1.605894 1_555
O55 Sc7 2.093224 1_555
