# generated using pymatgen
data_Ce(IO3)2
_symmetry_space_group_name_H-M   'P 1'
_cell_length_a   11.50103400
_cell_length_b   7.13053200
_cell_length_c   8.95163878
_cell_angle_alpha   52.29563291
_cell_angle_beta   90.00000000
_cell_angle_gamma   90.00000000
_symmetry_Int_Tables_number   1
_chemical_formula_structural   Ce(IO3)2
_chemical_formula_sum   'Ce4 I8 O24'
_cell_volume   580.81119585
_cell_formula_units_Z   4
loop_
 _symmetry_equiv_pos_site_id
 _symmetry_equiv_pos_as_xyz
  1  'x, y, z'
loop_
 _atom_site_type_symbol
 _atom_site_label
 _atom_site_symmetry_multiplicity
 _atom_site_fract_x
 _atom_site_fract_y
 _atom_site_fract_z
 _atom_site_occupancy
  Ce  Ce0  1  0.93554300  0.21747600  0.78262300  1
  Ce  Ce1  1  0.43554300  0.78252400  0.71737700  1
  Ce  Ce2  1  0.56445700  0.21747600  0.28262300  1
  Ce  Ce3  1  0.06445700  0.78252400  0.21737700  1
  I  I0  1  0.10368000  0.78150700  0.68109300  1
  I  I1  1  0.60368000  0.21849300  0.81890700  1
  I  I2  1  0.25345300  0.27739000  0.67590200  1
  I  I3  1  0.75345300  0.72261000  0.82409800  1
  I  I4  1  0.24654700  0.27739000  0.17590200  1
  I  I5  1  0.74654700  0.72261000  0.32409800  1
  I  I6  1  0.39632000  0.78150700  0.18109300  1
  I  I7  1  0.89632000  0.21849300  0.31890700  1
  O  O0  1  0.10615100  0.39947700  0.55724100  1
  O  O1  1  0.49750100  0.45905900  0.72083800  1
  O  O2  1  0.91732000  0.07089000  0.57545500  1
  O  O3  1  0.73878500  0.38447200  0.78647100  1
  O  O4  1  0.23878500  0.61552800  0.71352900  1
  O  O5  1  0.54926700  0.07042000  0.58318700  1
  O  O6  1  0.99750100  0.54094100  0.77916200  1
  O  O7  1  0.26828000  0.04580300  0.63152400  1
  O  O8  1  0.76828000  0.95419700  0.86847600  1
  O  O9  1  0.39384900  0.39947700  0.05724100  1
  O  O10  1  0.04926700  0.92958000  0.91681300  1
  O  O11  1  0.58268000  0.07089000  0.07545500  1
  O  O12  1  0.41732000  0.92911000  0.92454500  1
  O  O13  1  0.95073300  0.07042000  0.08318700  1
  O  O14  1  0.60615100  0.60052300  0.94275900  1
  O  O15  1  0.23172000  0.04580300  0.13152400  1
  O  O16  1  0.73172000  0.95419700  0.36847600  1
  O  O17  1  0.00249900  0.45905900  0.22083800  1
  O  O18  1  0.45073300  0.92958000  0.41681300  1
  O  O19  1  0.76121500  0.38447200  0.28647100  1
  O  O20  1  0.26121500  0.61552800  0.21352900  1
  O  O21  1  0.08268000  0.92911000  0.42454500  1
  O  O22  1  0.50249900  0.54094100  0.27916200  1
  O  O23  1  0.89384900  0.60052300  0.44275900  1
loop_
_geom_bond_atom_site_label_1
_geom_bond_atom_site_label_2
_geom_bond_distance
_geom_bond_site_symmetry_2
Ce0 O10 2.086046 1_645
Ce0 O13 2.217693 1_556
Ce0 O6 2.396073 1_555
Ce0 O8 2.459840 1_545
Ce0 O0 2.530244 1_655
Ce0 O3 2.567119 1_555
Ce0 O23 2.604189 1_555
Ce0 O2 2.635635 1_555
Ce1 O5 2.086046 1_565
Ce1 O18 2.217693 1_555
Ce1 O1 2.396073 1_555
Ce1 O7 2.459840 1_565
Ce1 O14 2.530244 1_555
Ce1 O4 2.567119 1_555
Ce1 O9 2.604189 1_556
Ce1 O12 2.635635 1_555
Ce2 O18 2.086046 1_545
Ce2 O5 2.217693 1_555
Ce2 O22 2.396073 1_555
Ce2 O16 2.459840 1_545
Ce2 O9 2.530244 1_555
Ce2 O19 2.567119 1_555
Ce2 O14 2.604189 1_554
Ce2 O11 2.635635 1_555
Ce3 O13 2.086046 1_465
Ce3 O10 2.217693 1_554
Ce3 O17 2.396073 1_555
Ce3 O15 2.459840 1_565
Ce3 O23 2.530244 1_455
Ce3 O20 2.567119 1_555
Ce3 O0 2.604189 1_555
Ce3 O21 2.635635 1_555
I0 O6 1.833696 1_455
I0 O4 1.865243 1_555
I0 O21 1.866440 1_555
I0 O7 2.511844 1_565
I1 O1 1.833696 1_555
I1 O3 1.865243 1_555
I1 O11 1.866440 1_556
I1 O8 2.511844 1_545
I2 O0 1.903977 1_555
I2 O7 1.927749 1_555
I2 O4 2.636037 1_555
I3 O14 1.903977 1_555
I3 O8 1.927749 1_555
I3 O3 2.636037 1_555
I4 O9 1.903977 1_555
I4 O15 1.927749 1_555
I4 O20 2.636037 1_555
I5 O23 1.903977 1_555
I5 O16 1.927749 1_555
I5 O19 2.636037 1_555
I6 O22 1.833696 1_555
I6 O20 1.865243 1_555
I6 O12 1.866440 1_554
I6 O15 2.511844 1_565
I7 O17 1.833696 1_655
I7 O19 1.865243 1_555
I7 O2 1.866440 1_555
I7 O16 2.511844 1_545
