# generated using pymatgen
data_Li4Ti2V3Ni3O16
_symmetry_space_group_name_H-M   'P 1'
_cell_length_a   5.86395700
_cell_length_b   5.89264118
_cell_length_c   9.60855606
_cell_angle_alpha   90.50351088
_cell_angle_beta   90.03819299
_cell_angle_gamma   119.74600411
_symmetry_Int_Tables_number   1
_chemical_formula_structural   Li4Ti2V3Ni3O16
_chemical_formula_sum   'Li4 Ti2 V3 Ni3 O16'
_cell_volume   288.25135066
_cell_formula_units_Z   1
loop_
 _symmetry_equiv_pos_site_id
 _symmetry_equiv_pos_as_xyz
  1  'x, y, z'
loop_
 _atom_site_type_symbol
 _atom_site_label
 _atom_site_symmetry_multiplicity
 _atom_site_fract_x
 _atom_site_fract_y
 _atom_site_fract_z
 _atom_site_occupancy
  Li  Li0  1  0.34123800  0.68276900  0.10399200  1
  Li  Li1  1  0.00560400  0.00168000  0.01126500  1
  Li  Li2  1  0.99788600  0.99548000  0.50200600  1
  Li  Li3  1  0.66037400  0.33688200  0.59554900  1
  Ti  Ti0  1  0.33481400  0.66437200  0.48972300  1
  Ti  Ti1  1  0.64037900  0.28719900  0.00997600  1
  V  V0  1  0.16762300  0.81140000  0.77312500  1
  V  V1  1  0.66063400  0.81283900  0.78754500  1
  V  V2  1  0.82288600  0.63907900  0.26509900  1
  Ni  Ni0  1  0.16949000  0.33616200  0.79426500  1
  Ni  Ni1  1  0.33859300  0.16880600  0.29178000  1
  Ni  Ni2  1  0.83036200  0.16849700  0.29200700  1
  O  O0  1  0.16320900  0.81990300  0.40503100  1
  O  O1  1  0.46853600  0.97079900  0.66934500  1
  O  O2  1  0.33122500  0.69278100  0.89741400  1
  O  O3  1  0.00571000  0.98677400  0.69482400  1
  O  O4  1  0.98652300  0.97285700  0.20036000  1
  O  O5  1  0.65763000  0.82291500  0.40552800  1
  O  O6  1  0.03248000  0.53143100  0.66468000  1
  O  O7  1  0.49911500  0.54536400  0.66552200  1
  O  O8  1  0.84379600  0.67344700  0.89583800  1
  O  O9  1  0.16980400  0.33779100  0.41371500  1
  O  O10  1  0.53515800  0.50433000  0.15499500  1
  O  O11  1  0.97149600  0.50251900  0.15604300  1
  O  O12  1  0.68771000  0.37601000  0.39366500  1
  O  O13  1  0.33452000  0.16213100  0.90701700  1
  O  O14  1  0.52464900  0.04841800  0.14973600  1
  O  O15  1  0.81825900  0.14736400  0.90211300  1
loop_
_geom_bond_atom_site_label_1
_geom_bond_atom_site_label_2
_geom_bond_distance
_geom_bond_site_symmetry_2
Li0 O14 1.917181 1_565
Li0 O11 1.950580 1_455
Li0 O10 1.957970 1_555
Li0 O2 1.988004 1_554
Li1 O4 1.824675 1_445
Li1 O13 1.956272 1_554
Li1 O15 1.998485 1_454
Li1 O8 2.002783 1_444
Li2 O3 1.855030 1_655
Li2 O9 1.953999 1_665
Li2 O5 1.960114 1_555
Li2 O0 1.964188 1_655
Li3 O12 1.952776 1_555
Li3 O7 1.998640 1_555
Li3 O6 2.004769 1_655
Li3 O1 2.010387 1_545
Ni0 O3 2.018952 1_545
Ni0 O13 2.040780 1_555
Ni0 O2 2.069356 1_555
Ni0 O15 2.074339 1_455
Ni0 O7 2.109875 1_555
Ni0 O6 2.112111 1_555
Ni1 O4 1.995336 1_445
Ni1 O12 2.033756 1_555
Ni1 O9 2.074353 1_555
Ni1 O14 2.075901 1_555
Ni1 O0 2.100341 1_545
Ni1 O10 2.179747 1_555
Ni2 O4 1.993444 1_545
Ni2 O12 2.035732 1_555
Ni2 O14 2.074645 1_555
Ni2 O9 2.081042 1_655
Ni2 O5 2.087187 1_545
Ni2 O11 2.167016 1_555
O0 Ti0 1.855250 1_555
O0 V2 2.187900 1_455
O1 V0 1.834220 1_555
O1 V1 2.117191 1_555
O1 Ti0 2.322170 1_555
O2 V0 1.874485 1_555
O2 V1 2.001498 1_555
O3 V0 1.876645 1_555
O3 V1 1.974651 1_455
O4 V2 1.823636 1_555
O5 Ti0 1.836047 1_555
O5 V2 2.225076 1_555
O6 V0 1.762619 1_555
O6 Ti0 2.287307 1_555
O7 V1 1.800179 1_555
O7 Ti0 2.227652 1_555
O8 V1 1.949347 1_555
O8 V0 2.035926 1_655
O8 Ti1 2.271002 1_556
O9 Ti0 1.816490 1_555
O10 V2 1.802747 1_555
O10 Ti1 2.170848 1_555
O11 V2 1.785285 1_555
O11 Ti1 2.206833 1_555
O12 V2 1.836584 1_555
O13 Ti1 1.847107 1_556
O13 V0 2.197447 1_545
O14 Ti1 1.824990 1_555
O15 Ti1 1.918450 1_556
O15 V1 2.025940 1_545
