# generated using pymatgen
data_K2MnPCO7
_symmetry_space_group_name_H-M   'P 1'
_cell_length_a   5.41693924
_cell_length_b   9.54720934
_cell_length_c   14.53343001
_cell_angle_alpha   89.99589107
_cell_angle_beta   89.99949833
_cell_angle_gamma   89.18872766
_symmetry_Int_Tables_number   1
_chemical_formula_structural   K2MnPCO7
_chemical_formula_sum   'K8 Mn4 P4 C4 O28'
_cell_volume   751.54500959
_cell_formula_units_Z   4
loop_
 _symmetry_equiv_pos_site_id
 _symmetry_equiv_pos_as_xyz
  1  'x, y, z'
loop_
 _atom_site_type_symbol
 _atom_site_label
 _atom_site_symmetry_multiplicity
 _atom_site_fract_x
 _atom_site_fract_y
 _atom_site_fract_z
 _atom_site_occupancy
  K  K0  1  0.25075800  0.24561200  0.23624000  1
  K  K1  1  0.25078800  0.24562200  0.73626400  1
  K  K2  1  0.25077800  0.24558800  0.01375400  1
  K  K3  1  0.25080100  0.24562700  0.51377200  1
  K  K4  1  0.74924200  0.75440100  0.26376000  1
  K  K5  1  0.74923400  0.75437400  0.76374700  1
  K  K6  1  0.74922000  0.75440600  0.48625000  1
  K  K7  1  0.74918700  0.75437400  0.98622500  1
  Mn  Mn0  1  0.77943000  0.36196000  0.87501600  1
  Mn  Mn1  1  0.22059700  0.63801900  0.62496800  1
  Mn  Mn2  1  0.77945600  0.36198600  0.37502800  1
  Mn  Mn3  1  0.22056400  0.63801000  0.12497500  1
  P  P0  1  0.72273400  0.42580600  0.12496200  1
  P  P1  1  0.72270900  0.42580900  0.62502600  1
  P  P2  1  0.27726400  0.57419500  0.37503500  1
  P  P3  1  0.27728900  0.57418300  0.87497700  1
  C  C0  1  0.72925000  0.10666800  0.37499400  1
  C  C1  1  0.72924900  0.10664600  0.87500300  1
  C  C2  1  0.27073900  0.89332500  0.12500300  1
  C  C3  1  0.27074800  0.89336800  0.62500000  1
  O  O0  1  0.29776300  0.02218000  0.12501300  1
  O  O1  1  0.29777100  0.02222500  0.62502000  1
  O  O2  1  0.70223200  0.97781100  0.37499000  1
  O  O3  1  0.70222900  0.97779500  0.87498400  1
  O  O4  1  0.94390700  0.17058800  0.37498900  1
  O  O5  1  0.94391200  0.17056300  0.87501200  1
  O  O6  1  0.05608700  0.82939900  0.12500800  1
  O  O7  1  0.05608200  0.82946300  0.62498700  1
  O  O8  1  0.54488400  0.19971400  0.37500900  1
  O  O9  1  0.54490700  0.19970400  0.87502000  1
  O  O10  1  0.45509900  0.80027600  0.12499100  1
  O  O11  1  0.45510600  0.80031900  0.62497700  1
  O  O12  1  0.11557300  0.43855400  0.37497900  1
  O  O13  1  0.11562400  0.43854700  0.87494400  1
  O  O14  1  0.88441700  0.56144900  0.12501800  1
  O  O15  1  0.88436800  0.56144500  0.62506000  1
  O  O16  1  0.44059500  0.47463200  0.12490400  1
  O  O17  1  0.44059000  0.47464600  0.62495400  1
  O  O18  1  0.55940100  0.52536400  0.37509600  1
  O  O19  1  0.55941200  0.52535900  0.87504600  1
  O  O20  1  0.76997400  0.34042000  0.03664800  1
  O  O21  1  0.76996500  0.34040400  0.53668800  1
  O  O22  1  0.76966100  0.34036800  0.21331200  1
  O  O23  1  0.76965500  0.34037600  0.71335800  1
  O  O24  1  0.23033600  0.65963700  0.28668800  1
  O  O25  1  0.23035000  0.65961300  0.78664400  1
  O  O26  1  0.23002500  0.65957900  0.46334800  1
  O  O27  1  0.23003800  0.65958800  0.96331200  1
loop_
_geom_bond_atom_site_label_1
_geom_bond_atom_site_label_2
_geom_bond_distance
_geom_bond_site_symmetry_2
K0 O8 2.603479 1_555
K0 O0 2.685774 1_555
K0 O4 2.715814 1_455
K0 O22 2.766634 1_455
K0 O12 2.820889 1_555
K0 O16 2.918840 1_555
K0 O22 2.983681 1_555
K1 O9 2.603340 1_555
K1 O1 2.685648 1_555
K1 O5 2.715978 1_455
K1 O23 2.766773 1_455
K1 O13 2.820142 1_555
K1 O17 2.918591 1_555
K1 O23 2.983455 1_555
K2 O9 2.603101 1_554
K2 O0 2.685682 1_555
K2 O5 2.715889 1_454
K2 O20 2.765325 1_455
K2 O13 2.821510 1_554
K2 O16 2.917660 1_555
K2 O20 2.985378 1_555
K3 O8 2.603319 1_555
K3 O1 2.685533 1_555
K3 O4 2.716461 1_455
K3 O21 2.765361 1_455
K3 O12 2.821235 1_555
K3 O17 2.917682 1_555
K3 O21 2.985083 1_555
K4 O10 2.603500 1_555
K4 O2 2.685636 1_555
K4 O6 2.715759 1_655
K4 O24 2.766643 1_655
K4 O14 2.820968 1_555
K4 O18 2.918970 1_555
K4 O24 2.983721 1_555
K5 O11 2.603568 1_555
K5 O3 2.685778 1_555
K5 O7 2.716092 1_655
K5 O25 2.766692 1_655
K5 O15 2.820199 1_555
K5 O19 2.918477 1_555
K5 O25 2.983549 1_555
K6 O11 2.603016 1_555
K6 O2 2.685669 1_555
K6 O7 2.715905 1_655
K6 O26 2.765329 1_655
K6 O15 2.821514 1_555
K6 O18 2.917681 1_555
K6 O26 2.985371 1_555
K7 O10 2.603353 1_556
K7 O3 2.685610 1_555
K7 O6 2.716445 1_656
K7 O27 2.765459 1_655
K7 O14 2.821226 1_556
K7 O19 2.917602 1_555
K7 O27 2.985029 1_555
Mn0 O19 1.949720 1_555
Mn0 O13 1.972032 1_655
Mn0 O9 2.017256 1_555
Mn0 O5 2.021586 1_555
Mn0 O20 2.358656 1_556
Mn0 O23 2.359140 1_555
Mn1 O17 1.949442 1_555
Mn1 O15 1.972161 1_455
Mn1 O11 2.017534 1_555
Mn1 O7 2.022065 1_555
Mn1 O26 2.358496 1_555
Mn1 O25 2.359406 1_555
Mn2 O18 1.949682 1_555
Mn2 O12 1.971575 1_655
Mn2 O8 2.017545 1_555
Mn2 O4 2.021522 1_555
Mn2 O21 2.359101 1_555
Mn2 O22 2.360010 1_555
Mn3 O16 1.949604 1_555
Mn3 O14 1.971700 1_455
Mn3 O10 2.017372 1_555
Mn3 O6 2.021506 1_555
Mn3 O27 2.359139 1_554
Mn3 O24 2.359972 1_555
C0 O2 1.240956 1_545
C0 O4 1.320824 1_555
C0 O8 1.327180 1_555
C1 O3 1.240900 1_545
C1 O5 1.320839 1_555
C1 O9 1.327159 1_555
C2 O0 1.240941 1_565
C2 O6 1.320827 1_555
C2 O10 1.327175 1_555
C3 O1 1.240959 1_565
C3 O7 1.320799 1_555
C3 O11 1.327167 1_555
O12 P2 1.573619 1_555
O13 P3 1.573499 1_555
O14 P0 1.573610 1_555
O15 P1 1.573480 1_555
O16 P0 1.591514 1_555
O17 P1 1.591440 1_555
O18 P2 1.591517 1_555
O19 P3 1.591426 1_555
O20 P0 1.540017 1_555
O21 P1 1.540418 1_555
O22 P0 1.540353 1_555
O23 P1 1.540126 1_555
O24 P2 1.540338 1_555
O25 P3 1.540117 1_555
O26 P2 1.539994 1_555
O27 P3 1.540377 1_555
