# generated using pymatgen
data_H6CN3Cl
_symmetry_space_group_name_H-M   'P 1'
_cell_length_a   8.15010000
_cell_length_b   8.51657000
_cell_length_c   13.52236200
_cell_angle_alpha   90.00000000
_cell_angle_beta   90.00000000
_cell_angle_gamma   90.00000000
_symmetry_Int_Tables_number   1
_chemical_formula_structural   H6CN3Cl
_chemical_formula_sum   'H48 C8 N24 Cl8'
_cell_volume   938.59927810
_cell_formula_units_Z   8
loop_
 _symmetry_equiv_pos_site_id
 _symmetry_equiv_pos_as_xyz
  1  'x, y, z'
loop_
 _atom_site_type_symbol
 _atom_site_label
 _atom_site_symmetry_multiplicity
 _atom_site_fract_x
 _atom_site_fract_y
 _atom_site_fract_z
 _atom_site_occupancy
  H  H0  1  0.08755200  0.83391600  0.21700600  1
  H  H1  1  0.91244800  0.33391600  0.28299400  1
  H  H2  1  0.41244800  0.16608400  0.71700600  1
  H  H3  1  0.58755200  0.66608400  0.78299400  1
  H  H4  1  0.91244800  0.16608400  0.78299400  1
  H  H5  1  0.08755200  0.66608400  0.71700600  1
  H  H6  1  0.58755200  0.83391600  0.28299400  1
  H  H7  1  0.41244800  0.33391600  0.21700600  1
  H  H8  1  0.97178100  0.69591600  0.28894900  1
  H  H9  1  0.02821900  0.19591600  0.21105100  1
  H  H10  1  0.52821900  0.30408400  0.78894900  1
  H  H11  1  0.47178100  0.80408400  0.71105100  1
  H  H12  1  0.02821900  0.30408400  0.71105100  1
  H  H13  1  0.97178100  0.80408400  0.78894900  1
  H  H14  1  0.47178100  0.69591600  0.21105100  1
  H  H15  1  0.52821900  0.19591600  0.28894900  1
  H  H16  1  0.97832700  0.69727900  0.45505500  1
  H  H17  1  0.02167300  0.19727900  0.04494500  1
  H  H18  1  0.52167300  0.30272100  0.95505500  1
  H  H19  1  0.47832700  0.80272100  0.54494500  1
  H  H20  1  0.02167300  0.30272100  0.54494500  1
  H  H21  1  0.97832700  0.80272100  0.95505500  1
  H  H22  1  0.47832700  0.69727900  0.04494500  1
  H  H23  1  0.52167300  0.19727900  0.45505500  1
  H  H24  1  0.10802700  0.83102700  0.51803900  1
  H  H25  1  0.89197300  0.33102700  0.98196100  1
  H  H26  1  0.39197300  0.16897300  0.01803900  1
  H  H27  1  0.60802700  0.66897300  0.48196100  1
  H  H28  1  0.89197300  0.16897300  0.48196100  1
  H  H29  1  0.10802700  0.66897300  0.01803900  1
  H  H30  1  0.60802700  0.83102700  0.98196100  1
  H  H31  1  0.39197300  0.33102700  0.51803900  1
  H  H32  1  0.25340800  0.01819600  0.43106200  1
  H  H33  1  0.74659200  0.51819600  0.06893800  1
  H  H34  1  0.24659200  0.98180400  0.93106200  1
  H  H35  1  0.75340800  0.48180400  0.56893800  1
  H  H36  1  0.74659200  0.98180400  0.56893800  1
  H  H37  1  0.25340800  0.48180400  0.93106200  1
  H  H38  1  0.75340800  0.01819600  0.06893800  1
  H  H39  1  0.24659200  0.51819600  0.43106200  1
  H  H40  1  0.25288100  0.01396300  0.30113200  1
  H  H41  1  0.74711900  0.51396300  0.19886800  1
  H  H42  1  0.24711900  0.98603700  0.80113200  1
  H  H43  1  0.75288100  0.48603700  0.69886800  1
  H  H44  1  0.74711900  0.98603700  0.69886800  1
  H  H45  1  0.25288100  0.48603700  0.80113200  1
  H  H46  1  0.75288100  0.01396300  0.19886800  1
  H  H47  1  0.24711900  0.51396300  0.30113200  1
  C  C0  1  0.10559200  0.85132000  0.36792600  1
  C  C1  1  0.89440800  0.35132000  0.13207400  1
  C  C2  1  0.39440800  0.14868000  0.86792600  1
  C  C3  1  0.60559200  0.64868000  0.63207400  1
  C  C4  1  0.89440800  0.14868000  0.63207400  1
  C  C5  1  0.10559200  0.64868000  0.86792600  1
  C  C6  1  0.60559200  0.85132000  0.13207400  1
  C  C7  1  0.39440800  0.35132000  0.36792600  1
  N  N0  1  0.05557800  0.78492000  0.28358300  1
  N  N1  1  0.94442200  0.28492000  0.21641700  1
  N  N2  1  0.44442200  0.21508000  0.78358300  1
  N  N3  1  0.55557800  0.71508000  0.71641700  1
  N  N4  1  0.94442200  0.21508000  0.71641700  1
  N  N5  1  0.05557800  0.71508000  0.78358300  1
  N  N6  1  0.55557800  0.78492000  0.21641700  1
  N  N7  1  0.44442200  0.28492000  0.28358300  1
  N  N8  1  0.05876900  0.78984300  0.45402800  1
  N  N9  1  0.94123100  0.28984300  0.04597200  1
  N  N10  1  0.44123100  0.21015700  0.95402800  1
  N  N11  1  0.55876900  0.71015700  0.54597200  1
  N  N12  1  0.94123100  0.21015700  0.54597200  1
  N  N13  1  0.05876900  0.71015700  0.95402800  1
  N  N14  1  0.55876900  0.78984300  0.04597200  1
  N  N15  1  0.44123100  0.28984300  0.45402800  1
  N  N16  1  0.20279300  0.97871500  0.36638300  1
  N  N17  1  0.79720700  0.47871500  0.13361700  1
  N  N18  1  0.29720700  0.02128500  0.86638300  1
  N  N19  1  0.70279300  0.52128500  0.63361700  1
  N  N20  1  0.79720700  0.02128500  0.63361700  1
  N  N21  1  0.20279300  0.52128500  0.86638300  1
  N  N22  1  0.70279300  0.97871500  0.13361700  1
  N  N23  1  0.29720700  0.47871500  0.36638300  1
  Cl  Cl0  1  0.30646600  0.51183400  0.11254800  1
  Cl  Cl1  1  0.69353400  0.01183400  0.38745200  1
  Cl  Cl2  1  0.19353400  0.48816600  0.61254800  1
  Cl  Cl3  1  0.80646600  0.98816600  0.88745200  1
  Cl  Cl4  1  0.69353400  0.48816600  0.88745200  1
  Cl  Cl5  1  0.30646600  0.98816600  0.61254800  1
  Cl  Cl6  1  0.80646600  0.51183400  0.38745200  1
  Cl  Cl7  1  0.19353400  0.01183400  0.11254800  1
loop_
_geom_bond_atom_site_label_1
_geom_bond_atom_site_label_2
_geom_bond_distance
_geom_bond_site_symmetry_2
H0 N0 1.025929 1_555
H1 N1 1.025929 1_555
H2 N2 1.025929 1_555
H3 N3 1.025929 1_555
H4 N4 1.025929 1_555
H5 N5 1.025929 1_555
H6 N6 1.025929 1_555
H7 N7 1.025929 1_555
H8 N0 1.022873 1_655
H9 N1 1.022873 1_455
H10 N2 1.022873 1_555
H11 N3 1.022873 1_555
H12 N4 1.022873 1_455
H13 N5 1.022873 1_655
H14 N6 1.022873 1_555
H15 N7 1.022873 1_555
H16 N8 1.025416 1_655
H17 N9 1.025416 1_455
H18 N10 1.025416 1_555
H19 N11 1.025416 1_555
H20 N12 1.025416 1_455
H21 N13 1.025416 1_655
H22 N14 1.025416 1_555
H23 N15 1.025416 1_555
H24 N8 1.016573 1_555
H25 N9 1.016573 1_556
H26 N10 1.016573 1_554
H27 N11 1.016573 1_555
H28 N12 1.016573 1_555
H29 N13 1.016573 1_554
H30 N14 1.016573 1_556
H31 N15 1.016573 1_555
H32 N16 1.023805 1_545
H33 N17 1.023805 1_555
H34 N18 1.023805 1_565
H35 N19 1.023805 1_555
H36 N20 1.023805 1_565
H37 N21 1.023805 1_555
H38 N22 1.023805 1_545
H39 N23 1.023805 1_555
H40 N16 1.017496 1_545
H41 N17 1.017496 1_555
H42 N18 1.017496 1_565
H43 N19 1.017496 1_555
H44 N20 1.017496 1_565
H45 N21 1.017496 1_555
H46 N22 1.017496 1_545
H47 N23 1.017496 1_555
C0 N8 1.332425 1_555
C0 N0 1.336683 1_555
C0 N16 1.343566 1_555
C1 N9 1.332425 1_555
C1 N1 1.336683 1_555
C1 N17 1.343566 1_555
C2 N10 1.332425 1_555
C2 N2 1.336683 1_555
C2 N18 1.343566 1_555
C3 N11 1.332425 1_555
C3 N3 1.336683 1_555
C3 N19 1.343566 1_555
C4 N12 1.332425 1_555
C4 N4 1.336683 1_555
C4 N20 1.343566 1_555
C5 N13 1.332425 1_555
C5 N5 1.336683 1_555
C5 N21 1.343566 1_555
C6 N14 1.332425 1_555
C6 N6 1.336683 1_555
C6 N22 1.343566 1_555
C7 N15 1.332425 1_555
C7 N7 1.336683 1_555
C7 N23 1.343566 1_555
