# generated using pymatgen
data_Li4Ti5VO12
_symmetry_space_group_name_H-M   'P 1'
_cell_length_a   5.12577524
_cell_length_b   5.12577524
_cell_length_c   10.19312257
_cell_angle_alpha   89.89630713
_cell_angle_beta   89.89630713
_cell_angle_gamma   120.58694453
_symmetry_Int_Tables_number   1
_chemical_formula_structural   Li4Ti5VO12
_chemical_formula_sum   'Li4 Ti5 V1 O12'
_cell_volume   230.54461645
_cell_formula_units_Z   1
loop_
 _symmetry_equiv_pos_site_id
 _symmetry_equiv_pos_as_xyz
  1  'x, y, z'
loop_
 _atom_site_type_symbol
 _atom_site_label
 _atom_site_symmetry_multiplicity
 _atom_site_fract_x
 _atom_site_fract_y
 _atom_site_fract_z
 _atom_site_occupancy
  Li  Li0  1  0.33920595  0.85159692  0.75056627  1
  Li  Li1  1  0.14840308  0.66079405  0.24943373  1
  Li  Li2  1  0.85159692  0.33920595  0.75056627  1
  Li  Li3  1  0.66079405  0.14840308  0.24943373  1
  Ti  Ti0  1  0.16051828  0.83948172  0.50000000  1
  Ti  Ti1  1  0.66077129  0.33922871  -0.00000000  1
  Ti  Ti2  1  0.33922871  0.66077129  -0.00000000  1
  Ti  Ti3  1  0.83948172  0.16051828  0.50000000  1
  Ti  Ti4  1  0.50000000  0.50000000  0.50000000  1
  V  V0  1  -0.00000000  0.00000000  -0.00000000  1
  O  O0  1  0.35116283  0.99331807  0.10855333  1
  O  O1  1  0.00668193  0.64883717  0.89144667  1
  O  O2  1  0.49248768  0.84151123  0.39135680  1
  O  O3  1  0.84151123  0.49248768  0.39135680  1
  O  O4  1  0.15848877  0.50751232  0.60864320  1
  O  O5  1  0.83986118  0.83986118  0.60406817  1
  O  O6  1  0.50751232  0.15848877  0.60864320  1
  O  O7  1  0.99331807  0.35116283  0.10855333  1
  O  O8  1  0.65310321  0.65310321  0.10261419  1
  O  O9  1  0.64883717  0.00668193  0.89144667  1
  O  O10  1  0.34689679  0.34689679  0.89738581  1
  O  O11  1  0.16013882  0.16013882  0.39593183  1
loop_
_geom_bond_atom_site_label_1
_geom_bond_atom_site_label_2
_geom_bond_distance
_geom_bond_site_symmetry_2
Li0 O6 1.979316 1_565
Li0 O9 1.985285 1_565
Li0 O1 2.056787 1_555
Li0 O4 2.100692 1_555
Li1 O3 1.979316 1_455
Li1 O7 1.985285 1_455
Li1 O0 2.056787 1_555
Li1 O2 2.100692 1_555
Li2 O4 1.979316 1_655
Li2 O1 1.985285 1_655
Li2 O9 2.056787 1_555
Li2 O6 2.100692 1_555
Li3 O2 1.979316 1_545
Li3 O0 1.985285 1_545
Li3 O7 2.056787 1_555
Li3 O3 2.100692 1_555
O0 Ti1 2.002384 1_565
O0 Ti2 2.008621 1_555
O0 V0 2.129614 1_565
O1 Ti1 2.002384 1_456
O1 Ti2 2.008621 1_556
O1 V0 2.129614 1_566
O2 Ti0 2.024115 1_555
O2 Ti3 2.029161 1_565
O2 Ti4 2.086592 1_555
O3 Ti3 2.024115 1_555
O3 Ti0 2.029161 1_655
O3 Ti4 2.086592 1_555
O4 Ti0 2.024115 1_555
O4 Ti3 2.029161 1_455
O4 Ti4 2.086592 1_555
O5 Ti3 1.955424 1_565
O5 Ti0 1.955424 1_655
O5 Ti4 2.029702 1_555
O6 Ti3 2.024115 1_555
O6 Ti0 2.029161 1_545
O6 Ti4 2.086592 1_555
O7 Ti2 2.002384 1_655
O7 Ti1 2.008621 1_555
O7 V0 2.129614 1_655
O8 Ti1 1.937594 1_555
O8 Ti2 1.937594 1_555
O8 V0 2.046052 1_665
O9 Ti2 2.002384 1_546
O9 Ti1 2.008621 1_556
O9 V0 2.129614 1_656
O10 Ti2 1.937594 1_556
O10 Ti1 1.937594 1_556
O10 V0 2.046052 1_556
O11 Ti0 1.955424 1_545
O11 Ti3 1.955424 1_455
O11 Ti4 2.029702 1_555
