# generated using pymatgen
data_Li2MnO2F
_symmetry_space_group_name_H-M   'P 1'
_cell_length_a   5.17385949
_cell_length_b   6.35893300
_cell_length_c   7.61795411
_cell_angle_alpha   90.00000000
_cell_angle_beta   73.58432783
_cell_angle_gamma   90.00000000
_symmetry_Int_Tables_number   1
_chemical_formula_structural   Li2MnO2F
_chemical_formula_sum   'Li8 Mn4 O8 F4'
_cell_volume   240.41580884
_cell_formula_units_Z   4
loop_
 _symmetry_equiv_pos_site_id
 _symmetry_equiv_pos_as_xyz
  1  'x, y, z'
loop_
 _atom_site_type_symbol
 _atom_site_label
 _atom_site_symmetry_multiplicity
 _atom_site_fract_x
 _atom_site_fract_y
 _atom_site_fract_z
 _atom_site_occupancy
  Li  Li0  1  0.99836000  0.25000000  0.66611800  1
  Li  Li1  1  0.49835900  0.25000000  0.16611900  1
  Li  Li2  1  0.00163900  0.75000000  0.33388200  1
  Li  Li3  1  0.50164100  0.75000000  0.83388000  1
  Li  Li4  1  0.06126400  0.75000000  0.68708100  1
  Li  Li5  1  0.56126700  0.75000000  0.18708100  1
  Li  Li6  1  0.93873600  0.25000000  0.31291900  1
  Li  Li7  1  0.43873200  0.25000000  0.81291900  1
  Mn  Mn0  1  0.50000000  0.00000000  0.50000100  1
  Mn  Mn1  1  0.49999900  0.50000000  0.50000000  1
  Mn  Mn2  1  0.00000200  0.00000000  0.00000000  1
  Mn  Mn3  1  0.00000200  0.50000000  0.00000100  1
  O  O0  1  0.32273700  0.75000000  0.44091100  1
  O  O1  1  0.82275000  0.75000000  0.94091500  1
  O  O2  1  0.67726300  0.25000000  0.55908900  1
  O  O3  1  0.17725000  0.25000000  0.05908500  1
  O  O4  1  0.75000300  0.50000000  0.24999600  1
  O  O5  1  0.24999700  0.50000000  0.75000300  1
  O  O6  1  0.75000300  0.00000000  0.24999600  1
  O  O7  1  0.24999700  0.00000000  0.75000300  1
  F  F0  1  0.24374300  0.25000000  0.41456200  1
  F  F1  1  0.74376000  0.25000000  0.91456700  1
  F  F2  1  0.75625600  0.75000000  0.58543800  1
  F  F3  1  0.25624000  0.75000000  0.08543300  1
loop_
_geom_bond_atom_site_label_1
_geom_bond_atom_site_label_2
_geom_bond_distance
_geom_bond_site_symmetry_2
Li0 O2 2.047030 1_555
Li0 O7 2.258514 1_655
Li0 O5 2.258514 1_655
Li1 O3 2.047111 1_555
Li1 O4 2.258511 1_555
Li1 O6 2.258511 1_555
Li2 O0 2.047034 1_555
Li2 O4 2.258514 1_455
Li2 O6 2.258514 1_465
Li3 O1 2.047116 1_555
Li3 O7 2.258511 1_565
Li3 O5 2.258511 1_555
Li4 O0 1.978134 1_555
Li4 O1 1.978206 1_455
Li4 O5 1.993760 1_555
Li4 O7 1.993760 1_565
Li5 O1 1.978133 1_554
Li5 O0 1.978211 1_555
Li5 O6 1.993748 1_565
Li5 O4 1.993748 1_555
Li6 O2 1.978134 1_555
Li6 O3 1.978206 1_655
Li6 O6 1.993762 1_555
Li6 O4 1.993762 1_555
Li7 O3 1.978131 1_556
Li7 O2 1.978212 1_555
Li7 O7 1.993748 1_555
Li7 O5 1.993748 1_555
Mn0 O2 1.950471 1_555
Mn0 O0 1.950477 1_545
Mn0 O7 1.976834 1_555
Mn0 O6 1.976852 1_555
Mn1 O0 1.950471 1_555
Mn1 O2 1.950477 1_555
Mn1 O5 1.976838 1_555
Mn1 O4 1.976848 1_555
Mn2 O3 1.950421 1_555
Mn2 O1 1.950432 1_444
Mn2 O7 1.976788 1_554
Mn2 O6 1.976790 1_455
Mn3 O3 1.950418 1_555
Mn3 O1 1.950435 1_454
Mn3 O4 1.976784 1_455
Mn3 O5 1.976794 1_554
F0 Li6 1.944345 1_455
F0 Li1 1.976927 1_555
F0 Li0 1.977138 1_455
F0 Mn1 2.279571 1_555
F0 Mn0 2.279578 1_555
F1 Li7 1.944469 1_555
F1 Li0 1.976929 1_555
F1 Li1 1.977148 1_556
F1 Mn2 2.279506 1_656
F1 Mn3 2.279509 1_656
F2 Li4 1.944350 1_655
F2 Li3 1.976919 1_555
F2 Li2 1.977138 1_655
F2 Mn0 2.279567 1_565
F2 Mn1 2.279574 1_555
F3 Li5 1.944464 1_555
F3 Li2 1.976931 1_555
F3 Li3 1.977154 1_554
F3 Mn3 2.279489 1_555
F3 Mn2 2.279492 1_565
