# generated using pymatgen
data_Mn2OF2
_symmetry_space_group_name_H-M   'P 1'
_cell_length_a   5.62067241
_cell_length_b   5.62067241
_cell_length_c   14.60975679
_cell_angle_alpha   89.81806709
_cell_angle_beta   89.81806709
_cell_angle_gamma   58.53809315
_symmetry_Int_Tables_number   1
_chemical_formula_structural   Mn2OF2
_chemical_formula_sum   'Mn12 O6 F12'
_cell_volume   393.69441415
_cell_formula_units_Z   6
loop_
 _symmetry_equiv_pos_site_id
 _symmetry_equiv_pos_as_xyz
  1  'x, y, z'
loop_
 _atom_site_type_symbol
 _atom_site_label
 _atom_site_symmetry_multiplicity
 _atom_site_fract_x
 _atom_site_fract_y
 _atom_site_fract_z
 _atom_site_occupancy
  Mn  Mn0  1  0.00946700  0.98166900  0.14413600  1
  Mn  Mn1  1  0.98166900  0.00946700  0.64413600  1
  Mn  Mn2  1  0.37694300  0.33558700  0.31022500  1
  Mn  Mn3  1  0.35732200  0.34672900  0.02281700  1
  Mn  Mn4  1  0.33558700  0.37694300  0.81022500  1
  Mn  Mn5  1  0.34672900  0.35732200  0.52281700  1
  Mn  Mn6  1  0.65327100  0.64267800  0.47718300  1
  Mn  Mn7  1  0.66441300  0.62305700  0.18977500  1
  Mn  Mn8  1  0.64267800  0.65327100  0.97718300  1
  Mn  Mn9  1  0.62305700  0.66441300  0.68977500  1
  Mn  Mn10  1  0.01833100  0.99053300  0.35586400  1
  Mn  Mn11  1  0.99053300  0.01833100  0.85586400  1
  O  O0  1  0.33165300  0.62580500  0.41355800  1
  O  O1  1  0.62580500  0.33165300  0.91355800  1
  O  O2  1  0.37419500  0.66834700  0.08644200  1
  O  O3  1  0.66834700  0.37419500  0.58644200  1
  O  O4  1  0.74832000  0.25168000  0.25000000  1
  O  O5  1  0.25168000  0.74832000  0.75000000  1
  F  F0  1  0.00474600  0.66381300  0.24499300  1
  F  F1  1  0.66381300  0.00474600  0.74499300  1
  F  F2  1  0.64671700  0.00678700  0.41988800  1
  F  F3  1  0.00678700  0.64671700  0.91988800  1
  F  F4  1  0.67468300  0.95207800  0.08196700  1
  F  F5  1  0.95207800  0.67468300  0.58196700  1
  F  F6  1  0.04792200  0.32531700  0.41803300  1
  F  F7  1  0.32531700  0.04792200  0.91803300  1
  F  F8  1  0.99321300  0.35328300  0.08011200  1
  F  F9  1  0.35328300  0.99321300  0.58011200  1
  F  F10  1  0.33618700  0.99525400  0.25500700  1
  F  F11  1  0.99525400  0.33618700  0.75500700  1
loop_
_geom_bond_atom_site_label_1
_geom_bond_atom_site_label_2
_geom_bond_distance
_geom_bond_site_symmetry_2
Mn0 O2 2.060169 1_555
Mn0 O4 2.127207 1_465
Mn1 O3 2.060169 1_555
Mn1 O5 2.127207 1_645
Mn2 O4 2.077772 1_555
Mn2 O0 2.141150 1_555
Mn3 O2 2.081118 1_555
Mn3 O1 2.164373 1_554
Mn4 O5 2.077772 1_555
Mn4 O1 2.141150 1_555
Mn5 O3 2.081118 1_555
Mn5 O0 2.164373 1_555
Mn6 O0 2.081118 1_555
Mn6 O3 2.164373 1_555
Mn7 O4 2.077772 1_555
Mn7 O2 2.141150 1_555
Mn8 O1 2.081118 1_555
Mn8 O2 2.164373 1_556
Mn9 O5 2.077772 1_555
Mn9 O3 2.141150 1_555
Mn10 O0 2.060169 1_555
Mn10 O4 2.127207 1_465
Mn11 O1 2.060169 1_555
Mn11 O5 2.127207 1_645
F0 Mn2 2.158928 1_555
F0 Mn7 2.197921 1_455
F0 Mn0 2.322978 1_555
F0 Mn10 2.483533 1_555
F1 Mn4 2.158928 1_555
F1 Mn9 2.197921 1_545
F1 Mn1 2.322978 1_555
F1 Mn11 2.483533 1_555
F2 Mn6 2.191112 1_545
F2 Mn10 2.243874 1_645
F2 Mn2 2.313638 1_555
F2 Mn5 2.349707 1_555
F3 Mn8 2.191112 1_455
F3 Mn11 2.243874 1_465
F3 Mn4 2.313638 1_555
F3 Mn3 2.349707 1_556
F4 Mn3 2.171718 1_565
F4 Mn0 2.175309 1_655
F4 Mn8 2.351612 1_554
F4 Mn7 2.448765 1_555
F5 Mn5 2.171718 1_655
F5 Mn1 2.175309 1_565
F5 Mn6 2.351612 1_555
F5 Mn9 2.448765 1_555
F6 Mn6 2.171718 1_455
F6 Mn10 2.175309 1_545
F6 Mn5 2.351612 1_555
F6 Mn2 2.448765 1_555
F7 Mn8 2.171718 1_545
F7 Mn11 2.175309 1_455
F7 Mn3 2.351612 1_556
F7 Mn4 2.448765 1_555
F8 Mn3 2.191112 1_655
F8 Mn0 2.243874 1_645
F8 Mn7 2.313638 1_555
F8 Mn8 2.349707 1_554
F9 Mn5 2.191112 1_565
F9 Mn1 2.243874 1_465
F9 Mn9 2.313638 1_555
F9 Mn6 2.349707 1_555
F10 Mn7 2.158928 1_555
F10 Mn2 2.197921 1_565
F10 Mn10 2.322978 1_555
F10 Mn0 2.483533 1_555
F11 Mn9 2.158928 1_555
F11 Mn4 2.197921 1_655
F11 Mn11 2.322978 1_555
F11 Mn1 2.483533 1_555
