# generated using pymatgen
data_LiV3F10
_symmetry_space_group_name_H-M   'P 1'
_cell_length_a   6.56416100
_cell_length_b   7.45816000
_cell_length_c   7.88365000
_cell_angle_alpha   90.00000000
_cell_angle_beta   90.00000000
_cell_angle_gamma   90.00000000
_symmetry_Int_Tables_number   1
_chemical_formula_structural   LiV3F10
_chemical_formula_sum   'Li2 V6 F20'
_cell_volume   385.95640792
_cell_formula_units_Z   2
loop_
 _symmetry_equiv_pos_site_id
 _symmetry_equiv_pos_as_xyz
  1  'x, y, z'
loop_
 _atom_site_type_symbol
 _atom_site_label
 _atom_site_symmetry_multiplicity
 _atom_site_fract_x
 _atom_site_fract_y
 _atom_site_fract_z
 _atom_site_occupancy
  Li  Li0  1  0.31718500  0.00000000  0.25000000  1
  Li  Li1  1  0.68281500  0.00000000  0.75000000  1
  V  V0  1  0.50000000  0.50000000  0.50000000  1
  V  V1  1  0.50000000  0.50000000  0.00000000  1
  V  V2  1  0.00000000  0.23492800  0.50000000  1
  V  V3  1  0.00000000  0.23492800  0.00000000  1
  V  V4  1  0.00000000  0.76507200  0.50000000  1
  V  V5  1  0.00000000  0.76507200  0.00000000  1
  F  F0  1  0.46131000  0.50000000  0.75000000  1
  F  F1  1  0.53869000  0.50000000  0.25000000  1
  F  F2  1  0.00000000  0.50000000  0.00000000  1
  F  F3  1  0.30140200  0.30114600  0.02893100  1
  F  F4  1  0.69859800  0.30114600  0.97106900  1
  F  F5  1  0.30140200  0.30114600  0.47106900  1
  F  F6  1  0.69859800  0.30114600  0.52893100  1
  F  F7  1  0.95217500  0.23116700  0.25000000  1
  F  F8  1  0.04782500  0.23116700  0.75000000  1
  F  F9  1  0.16611000  0.00000000  0.44959900  1
  F  F10  1  0.83389000  0.00000000  0.55040100  1
  F  F11  1  0.16611000  0.00000000  0.05040100  1
  F  F12  1  0.83389000  0.00000000  0.94959900  1
  F  F13  1  0.04782500  0.76883300  0.75000000  1
  F  F14  1  0.95217500  0.76883300  0.25000000  1
  F  F15  1  0.30140200  0.69885400  0.02893100  1
  F  F16  1  0.69859800  0.69885400  0.97106900  1
  F  F17  1  0.30140200  0.69885400  0.47106900  1
  F  F18  1  0.69859800  0.69885400  0.52893100  1
  F  F19  1  0.00000000  0.50000000  0.50000000  1
loop_
_geom_bond_atom_site_label_1
_geom_bond_atom_site_label_2
_geom_bond_distance
_geom_bond_site_symmetry_2
F0 V0 1.987208 1_555
F0 V1 1.987208 1_556
F1 V1 1.987208 1_555
F1 V0 1.987208 1_555
F2 V3 1.976949 1_555
F2 V5 1.976949 1_555
F3 V1 1.987715 1_555
F3 V3 2.051875 1_555
F4 V1 1.987715 1_556
F4 V3 2.051875 1_656
F5 V0 1.987715 1_555
F5 V2 2.051875 1_555
F6 V0 1.987715 1_555
F6 V2 2.051875 1_655
F7 V3 1.995955 1_655
F7 V2 1.995955 1_655
F8 V3 1.995955 1_556
F8 V2 1.995955 1_555
F9 Li0 1.859986 1_555
F9 V2 2.101608 1_555
F9 V4 2.101608 1_545
F10 Li1 1.859986 1_555
F10 V2 2.101608 1_655
F10 V4 2.101608 1_645
F11 Li0 1.859986 1_555
F11 V3 2.101608 1_555
F11 V5 2.101608 1_545
F12 Li1 1.859986 1_555
F12 V5 2.101608 1_646
F12 V3 2.101608 1_656
F13 V5 1.995955 1_556
F13 V4 1.995955 1_555
F14 V5 1.995955 1_655
F14 V4 1.995955 1_655
F15 V1 1.987715 1_555
F15 V5 2.051875 1_555
F16 V1 1.987715 1_556
F16 V5 2.051875 1_656
F17 V0 1.987715 1_555
F17 V4 2.051875 1_555
F18 V0 1.987715 1_555
F18 V4 2.051875 1_655
F19 V4 1.976949 1_555
F19 V2 1.976949 1_555
