# generated using pymatgen
data_Li2Mn3(BO3)3
_symmetry_space_group_name_H-M   'P 1'
_cell_length_a   5.26676100
_cell_length_b   8.25261415
_cell_length_c   9.29052862
_cell_angle_alpha   104.26781018
_cell_angle_beta   106.18888456
_cell_angle_gamma   91.39363620
_symmetry_Int_Tables_number   1
_chemical_formula_structural   Li2Mn3(BO3)3
_chemical_formula_sum   'Li4 Mn6 B6 O18'
_cell_volume   373.95253886
_cell_formula_units_Z   2
loop_
 _symmetry_equiv_pos_site_id
 _symmetry_equiv_pos_as_xyz
  1  'x, y, z'
loop_
 _atom_site_type_symbol
 _atom_site_label
 _atom_site_symmetry_multiplicity
 _atom_site_fract_x
 _atom_site_fract_y
 _atom_site_fract_z
 _atom_site_occupancy
  Li  Li0  1  0.68182600  0.29437400  0.04083100  1
  Li  Li1  1  0.33765900  0.95742400  0.36117700  1
  Li  Li2  1  0.66234100  0.04257600  0.63882300  1
  Li  Li3  1  0.31817400  0.70562600  0.95916900  1
  Mn  Mn0  1  0.78998900  0.03403400  0.21531600  1
  Mn  Mn1  1  0.88079800  0.63349200  0.12049400  1
  Mn  Mn2  1  0.55054400  0.31115600  0.44364300  1
  Mn  Mn3  1  0.44945600  0.68884400  0.55635700  1
  Mn  Mn4  1  0.11920200  0.36650800  0.87950600  1
  Mn  Mn5  1  0.21001100  0.96596600  0.78468400  1
  B  B0  1  0.22247500  0.14433100  0.10402000  1
  B  B1  1  0.43742500  0.52339900  0.22220900  1
  B  B2  1  0.10640000  0.17425100  0.55409700  1
  B  B3  1  0.89360000  0.82574900  0.44590300  1
  B  B4  1  0.56257500  0.47660100  0.77779100  1
  B  B5  1  0.77752500  0.85566900  0.89598000  1
  O  O0  1  0.96487000  0.16171800  0.10019000  1
  O  O1  1  0.68445800  0.82547700  0.01674000  1
  O  O2  1  0.25038400  0.57022000  0.10248300  1
  O  O3  1  0.40719700  0.10432100  0.22832400  1
  O  O4  1  0.68224900  0.49007300  0.20911200  1
  O  O5  1  0.36759100  0.49980200  0.34998500  1
  O  O6  1  0.90424900  0.20314600  0.43290600  1
  O  O7  1  0.96959500  0.84644500  0.31692500  1
  O  O8  1  0.35947600  0.15318500  0.54632300  1
  O  O9  1  0.64052400  0.84681500  0.45367700  1
  O  O10  1  0.03040500  0.15355500  0.68307500  1
  O  O11  1  0.09575100  0.79685400  0.56709400  1
  O  O12  1  0.63240900  0.50019800  0.65001500  1
  O  O13  1  0.31775100  0.50992700  0.79088800  1
  O  O14  1  0.59280300  0.89567900  0.77167600  1
  O  O15  1  0.74961600  0.42978000  0.89751700  1
  O  O16  1  0.31554200  0.17452300  0.98326000  1
  O  O17  1  0.03513000  0.83828200  0.89981000  1
loop_
_geom_bond_atom_site_label_1
_geom_bond_atom_site_label_2
_geom_bond_distance
_geom_bond_site_symmetry_2
Li0 O0 1.908780 1_555
Li0 O4 1.950873 1_555
Li0 O16 2.014195 1_554
Li0 O15 2.031751 1_554
Li1 O9 1.951734 1_555
Li1 O7 2.012283 1_455
Li1 O8 2.023103 1_565
Li1 O3 2.023660 1_565
Li2 O8 1.951734 1_555
Li2 O10 2.012283 1_655
Li2 O9 2.023103 1_545
Li2 O14 2.023660 1_545
Li3 O17 1.908780 1_555
Li3 O13 1.950873 1_555
Li3 O1 2.014195 1_556
Li3 O2 2.031751 1_556
Mn0 O0 2.039691 1_555
Mn0 O6 2.070417 1_555
Mn0 O7 2.115704 1_545
Mn0 O1 2.119288 1_545
Mn0 O3 2.138646 1_555
Mn1 O4 2.018017 1_555
Mn1 O2 2.068233 1_655
Mn1 O7 2.130946 1_555
Mn1 O1 2.187554 1_555
Mn1 O15 2.241394 1_554
Mn2 O12 2.080334 1_555
Mn2 O5 2.093432 1_555
Mn2 O6 2.101277 1_555
Mn2 O8 2.169499 1_555
Mn2 O3 2.213006 1_555
Mn3 O5 2.080334 1_555
Mn3 O12 2.093432 1_555
Mn3 O11 2.101277 1_555
Mn3 O9 2.169499 1_555
Mn3 O14 2.213006 1_555
Mn4 O13 2.018017 1_555
Mn4 O15 2.068233 1_455
Mn4 O10 2.130946 1_555
Mn4 O16 2.187554 1_555
Mn4 O2 2.241394 1_556
Mn5 O17 2.039691 1_555
Mn5 O11 2.070417 1_555
Mn5 O10 2.115704 1_565
Mn5 O16 2.119288 1_565
Mn5 O14 2.138646 1_555
B0 O0 1.359292 1_455
B0 O3 1.402246 1_555
B0 O16 1.414053 1_554
B1 O4 1.356951 1_555
B1 O5 1.391526 1_555
B1 O2 1.405824 1_555
B2 O8 1.367772 1_555
B2 O6 1.390818 1_455
B2 O10 1.410750 1_555
B3 O9 1.367772 1_555
B3 O11 1.390818 1_655
B3 O7 1.410750 1_555
B4 O13 1.356951 1_555
B4 O12 1.391526 1_555
B4 O15 1.405824 1_555
B5 O17 1.359292 1_655
B5 O14 1.402246 1_555
B5 O1 1.414053 1_556
