# generated using pymatgen
data_Li2MnBO4
_symmetry_space_group_name_H-M   'P 1'
_cell_length_a   4.96999000
_cell_length_b   6.02104200
_cell_length_c   10.23356400
_cell_angle_alpha   90.00000000
_cell_angle_beta   90.00000000
_cell_angle_gamma   90.00000000
_symmetry_Int_Tables_number   1
_chemical_formula_structural   Li2MnBO4
_chemical_formula_sum   'Li8 Mn4 B4 O16'
_cell_volume   306.23447554
_cell_formula_units_Z   4
loop_
 _symmetry_equiv_pos_site_id
 _symmetry_equiv_pos_as_xyz
  1  'x, y, z'
loop_
 _atom_site_type_symbol
 _atom_site_label
 _atom_site_symmetry_multiplicity
 _atom_site_fract_x
 _atom_site_fract_y
 _atom_site_fract_z
 _atom_site_occupancy
  Li  Li0  1  0.23794600  0.99281200  0.67555500  1
  Li  Li1  1  0.26205400  0.99281200  0.17555500  1
  Li  Li2  1  0.23794600  0.50718800  0.67555500  1
  Li  Li3  1  0.26205400  0.50718800  0.17555500  1
  Li  Li4  1  0.73794600  0.49281200  0.82444500  1
  Li  Li5  1  0.76205400  0.49281200  0.32444500  1
  Li  Li6  1  0.76205400  0.00718800  0.32444500  1
  Li  Li7  1  0.73794600  0.00718800  0.82444500  1
  Mn  Mn0  1  0.83033100  0.25000000  0.56680200  1
  Mn  Mn1  1  0.66966900  0.25000000  0.06680200  1
  Mn  Mn2  1  0.33033100  0.75000000  0.93319800  1
  Mn  Mn3  1  0.16966900  0.75000000  0.43319800  1
  B  B0  1  0.20313700  0.25000000  0.92801700  1
  B  B1  1  0.29686300  0.25000000  0.42801700  1
  B  B2  1  0.70313700  0.75000000  0.57198300  1
  B  B3  1  0.79686300  0.75000000  0.07198300  1
  O  O0  1  0.32080900  0.04795300  0.86173400  1
  O  O1  1  0.17919100  0.04795300  0.36173400  1
  O  O2  1  0.90928800  0.25000000  0.91794400  1
  O  O3  1  0.22039900  0.25000000  0.56932600  1
  O  O4  1  0.27960100  0.25000000  0.06932600  1
  O  O5  1  0.59071200  0.25000000  0.41794400  1
  O  O6  1  0.32080900  0.45204700  0.86173400  1
  O  O7  1  0.17919100  0.45204700  0.36173400  1
  O  O8  1  0.67919100  0.54795300  0.13826600  1
  O  O9  1  0.82080900  0.54795300  0.63826600  1
  O  O10  1  0.72039900  0.75000000  0.93067400  1
  O  O11  1  0.40928800  0.75000000  0.58205600  1
  O  O12  1  0.77960100  0.75000000  0.43067400  1
  O  O13  1  0.09071200  0.75000000  0.08205600  1
  O  O14  1  0.82080900  0.95204700  0.63826600  1
  O  O15  1  0.67919100  0.95204700  0.13826600  1
loop_
_geom_bond_atom_site_label_1
_geom_bond_atom_site_label_2
_geom_bond_distance
_geom_bond_site_symmetry_2
Li0 O3 1.894035 1_565
Li0 O11 1.943728 1_555
Li0 O0 1.977347 1_565
Li0 O14 2.122235 1_455
Li1 O4 1.894035 1_565
Li1 O13 1.943728 1_555
Li1 O1 1.977347 1_565
Li1 O15 2.122235 1_555
Li2 O3 1.894035 1_555
Li2 O11 1.943728 1_555
Li2 O6 1.977347 1_555
Li2 O9 2.122235 1_455
Li3 O4 1.894035 1_555
Li3 O13 1.943728 1_555
Li3 O7 1.977347 1_555
Li3 O8 2.122235 1_555
Li4 O10 1.894035 1_555
Li4 O2 1.943728 1_555
Li4 O9 1.977347 1_555
Li4 O6 2.122235 1_555
Li5 O12 1.894035 1_555
Li5 O5 1.943728 1_555
Li5 O8 1.977347 1_555
Li5 O7 2.122235 1_655
Li6 O12 1.894035 1_545
Li6 O5 1.943728 1_555
Li6 O15 1.977347 1_545
Li6 O1 2.122235 1_655
Li7 O10 1.894035 1_545
Li7 O2 1.943728 1_555
Li7 O14 1.977347 1_545
Li7 O0 2.122235 1_555
Mn0 O5 1.933608 1_555
Mn0 O9 1.937905 1_555
Mn0 O14 1.937905 1_545
Mn0 O3 1.938806 1_655
Mn1 O2 1.933608 1_554
Mn1 O15 1.937905 1_545
Mn1 O8 1.937905 1_555
Mn1 O4 1.938806 1_555
Mn2 O13 1.933608 1_556
Mn2 O0 1.937905 1_565
Mn2 O6 1.937905 1_555
Mn2 O10 1.938806 1_555
Mn3 O11 1.933608 1_555
Mn3 O1 1.937905 1_565
Mn3 O7 1.937905 1_555
Mn3 O12 1.938806 1_455
B0 O2 1.464060 1_455
B0 O4 1.495195 1_556
B0 O0 1.510657 1_555
B0 O6 1.510657 1_555
B1 O5 1.464060 1_555
B1 O3 1.495195 1_555
B1 O7 1.510657 1_555
B1 O1 1.510657 1_555
B2 O11 1.464060 1_555
B2 O12 1.495195 1_555
B2 O14 1.510657 1_555
B2 O9 1.510657 1_555
B3 O13 1.464060 1_655
B3 O10 1.495195 1_554
B3 O15 1.510657 1_555
B3 O8 1.510657 1_555
