# generated using pymatgen
data_Li2MnO2F
_symmetry_space_group_name_H-M   'P 1'
_cell_length_a   5.28036918
_cell_length_b   8.73647660
_cell_length_c   6.35669041
_cell_angle_alpha   108.51560610
_cell_angle_beta   114.54779450
_cell_angle_gamma   72.50011655
_symmetry_Int_Tables_number   1
_chemical_formula_structural   Li2MnO2F
_chemical_formula_sum   'Li8 Mn4 O8 F4'
_cell_volume   248.04418745
_cell_formula_units_Z   4
loop_
 _symmetry_equiv_pos_site_id
 _symmetry_equiv_pos_as_xyz
  1  'x, y, z'
loop_
 _atom_site_type_symbol
 _atom_site_label
 _atom_site_symmetry_multiplicity
 _atom_site_fract_x
 _atom_site_fract_y
 _atom_site_fract_z
 _atom_site_occupancy
  Li  Li0  1  0.88975400  0.37157900  0.28644200  1
  Li  Li1  1  0.38958800  0.87161200  0.78639300  1
  Li  Li2  1  0.27617600  0.12144100  0.53727800  1
  Li  Li3  1  0.77624400  0.62139000  0.03728500  1
  Li  Li4  1  0.22382800  0.37855000  0.96271000  1
  Li  Li5  1  0.72375600  0.87859900  0.46270400  1
  Li  Li6  1  0.61024000  0.12841400  0.21354700  1
  Li  Li7  1  0.11040600  0.62838000  0.71360000  1
  Mn  Mn0  1  0.09295600  0.87567700  0.12461800  1
  Mn  Mn1  1  0.40703600  0.62433300  0.37539500  1
  Mn  Mn2  1  0.59338400  0.37567900  0.62451500  1
  Mn  Mn3  1  0.90662500  0.12433300  0.87548700  1
  O  O0  1  0.83326500  0.36200700  0.94723000  1
  O  O1  1  0.33327200  0.86200700  0.44726400  1
  O  O2  1  0.00205400  0.11266100  0.19805500  1
  O  O3  1  0.50226400  0.61263800  0.69798000  1
  O  O4  1  0.49794300  0.38734900  0.30195800  1
  O  O5  1  0.99773300  0.88736900  0.80203500  1
  O  O6  1  0.66674400  0.13799900  0.55277800  1
  O  O7  1  0.16672800  0.63800300  0.05275100  1
  F  F0  1  0.16320300  0.37513800  0.62468100  1
  F  F1  1  0.66310600  0.87510300  0.12467400  1
  F  F2  1  0.33679900  0.12484900  0.87530500  1
  F  F3  1  0.83689500  0.62488900  0.37531500  1
loop_
_geom_bond_atom_site_label_1
_geom_bond_atom_site_label_2
_geom_bond_distance
_geom_bond_site_symmetry_2
Li0 O0 2.027685 1_554
Li0 O4 2.073302 1_555
Li0 O2 2.108798 1_655
Li1 O1 2.027348 1_555
Li1 O5 2.073915 1_455
Li1 O3 2.109385 1_555
Li2 O2 2.029559 1_555
Li2 O6 2.070126 1_555
Li2 O1 2.112861 1_545
Li3 O3 2.029761 1_554
Li3 O7 2.069938 1_655
Li3 O0 2.112465 1_554
Li4 O4 2.029654 1_556
Li4 O0 2.070103 1_455
Li4 O7 2.113015 1_556
Li5 O5 2.029867 1_555
Li5 O1 2.069937 1_555
Li5 O6 2.112607 1_565
Li6 O6 2.027753 1_555
Li6 O2 2.073287 1_655
Li6 O4 2.108937 1_555
Li7 O7 2.027438 1_556
Li7 O3 2.073902 1_555
Li7 O5 2.109509 1_455
Mn0 O2 1.926020 1_565
Mn0 O5 1.927043 1_454
Mn0 O7 1.931568 1_555
Mn0 O1 1.932068 1_555
Mn1 O4 1.926021 1_555
Mn1 O3 1.927058 1_555
Mn1 O1 1.931569 1_555
Mn1 O7 1.932049 1_555
Mn2 O3 1.925850 1_555
Mn2 O4 1.926595 1_555
Mn2 O6 1.931687 1_555
Mn2 O0 1.931974 1_555
Mn3 O5 1.925888 1_545
Mn3 O2 1.926681 1_656
Mn3 O0 1.931637 1_555
Mn3 O6 1.931933 1_555
F0 Li0 2.028219 1_455
F0 Li4 2.028296 1_555
F0 Li7 2.063455 1_555
F0 Li2 2.067646 1_555
F0 Mn2 2.273379 1_555
F1 Li5 2.028065 1_555
F1 Li1 2.028586 1_554
F1 Li6 2.064000 1_565
F1 Li3 2.067835 1_555
F1 Mn0 2.271428 1_655
F2 Li6 2.028216 1_556
F2 Li2 2.028296 1_555
F2 Li1 2.063417 1_545
F2 Li4 2.067677 1_555
F2 Mn3 2.273319 1_455
F3 Li3 2.028056 1_555
F3 Li7 2.028595 1_655
F3 Li0 2.063995 1_555
F3 Li5 2.067812 1_555
F3 Mn1 2.271491 1_555
