# generated using pymatgen
data_Li2Fe3(SiO4)2
_symmetry_space_group_name_H-M   'P 1'
_cell_length_a   5.06315700
_cell_length_b   8.94267978
_cell_length_c   13.44848456
_cell_angle_alpha   108.48354840
_cell_angle_beta   99.31954209
_cell_angle_gamma   90.96058935
_symmetry_Int_Tables_number   1
_chemical_formula_structural   Li2Fe3(SiO4)2
_chemical_formula_sum   'Li6 Fe9 Si6 O24'
_cell_volume   568.37784642
_cell_formula_units_Z   3
loop_
 _symmetry_equiv_pos_site_id
 _symmetry_equiv_pos_as_xyz
  1  'x, y, z'
loop_
 _atom_site_type_symbol
 _atom_site_label
 _atom_site_symmetry_multiplicity
 _atom_site_fract_x
 _atom_site_fract_y
 _atom_site_fract_z
 _atom_site_occupancy
  Li  Li0  1  0.45592100  0.36235400  0.77773100  1
  Li  Li1  1  0.38562100  0.62357900  0.68589100  1
  Li  Li2  1  0.25743400  0.52221000  0.46894400  1
  Li  Li3  1  0.48108300  0.09644900  0.85643400  1
  Li  Li4  1  0.73246700  0.34691400  0.35848400  1
  Li  Li5  1  0.62738700  0.22984100  0.09884200  1
  Fe  Fe0  1  0.01237900  0.01382200  0.99464500  1
  Fe  Fe1  1  0.27453500  0.20989500  0.49365700  1
  Fe  Fe2  1  0.20053800  0.45031300  0.18654000  1
  Fe  Fe3  1  0.28769800  0.86365100  0.34589100  1
  Fe  Fe4  1  0.92957900  0.59870900  0.83298200  1
  Fe  Fe5  1  0.59487300  0.53401900  0.03589400  1
  Fe  Fe6  1  0.69136600  0.92650300  0.18952500  1
  Fe  Fe7  1  0.92334300  0.12553400  0.69097700  1
  Fe  Fe8  1  0.84997400  0.71232300  0.54030300  1
  Si  Si0  1  0.02699900  0.32030100  0.93399700  1
  Si  Si1  1  0.49345900  0.80198900  0.93475500  1
  Si  Si2  1  0.19758900  0.15409600  0.25063100  1
  Si  Si3  1  0.37850300  0.92531500  0.60191300  1
  Si  Si4  1  0.82533000  0.40533900  0.59385100  1
  Si  Si5  1  0.75726200  0.63789600  0.28629600  1
  O  O0  1  0.04356200  0.53985100  0.58883800  1
  O  O1  1  0.00696300  0.25363500  0.59799400  1
  O  O2  1  0.17427700  0.25035700  0.82989200  1
  O  O3  1  0.07134700  0.91235200  0.62566100  1
  O  O4  1  0.37827800  0.97906900  0.95837700  1
  O  O5  1  0.07120200  0.23999900  0.35751800  1
  O  O6  1  0.31326000  0.65721800  0.83797900  1
  O  O7  1  0.37940100  0.99098600  0.49902100  1
  O  O8  1  0.39965800  0.27660500  0.22229200  1
  O  O9  1  0.47620800  0.74298300  0.57208900  1
  O  O10  1  0.55858100  0.05805900  0.70701900  1
  O  O11  1  0.38267400  0.00937400  0.26411500  1
  O  O12  1  0.27958000  0.39105500  0.03484500  1
  O  O13  1  0.42964700  0.65040600  0.27976600  1
  O  O14  1  0.78793100  0.81354100  0.89963800  1
  O  O15  1  0.57989200  0.36093500  0.48983000  1
  O  O16  1  0.67884500  0.46398800  0.70026800  1
  O  O17  1  0.82235700  0.45769400  0.91817800  1
  O  O18  1  0.83062900  0.19459500  0.96078500  1
  O  O19  1  0.53124200  0.75756200  0.04781700  1
  O  O20  1  0.89206100  0.58315100  0.38656200  1
  O  O21  1  0.80863500  0.49994200  0.17449000  1
  O  O22  1  0.88126400  0.81158800  0.28898700  1
  O  O23  1  0.93626800  0.08190500  0.15065900  1
loop_
_geom_bond_atom_site_label_1
_geom_bond_atom_site_label_2
_geom_bond_distance
_geom_bond_site_symmetry_2
Li0 O16 2.032751 1_555
Li0 O2 2.061618 1_555
Li0 O17 2.351084 1_555
Li1 O0 1.966829 1_555
Li1 O6 2.065057 1_555
Li1 O16 2.105087 1_555
Li1 O9 2.222610 1_555
Li2 O0 2.051156 1_555
Li2 O20 2.167851 1_455
Li2 O9 2.177512 1_555
Li2 O15 2.238699 1_555
Li2 O5 2.562902 1_555
Li3 O10 2.032735 1_555
Li3 O18 2.057788 1_555
Li3 O4 2.092288 1_545
Li3 O2 2.153702 1_555
Li4 O5 1.977395 1_655
Li4 O15 2.009341 1_555
Li4 O20 2.143992 1_555
Li4 O8 2.196389 1_555
Li5 O8 2.111069 1_555
Li5 O18 2.205466 1_554
Li5 O23 2.232166 1_555
Li5 O21 2.403462 1_555
Li5 O12 2.510242 1_555
Li5 O4 2.576009 1_544
Fe0 O4 1.995615 1_545
Fe0 O18 2.012084 1_455
Fe0 O14 2.035261 1_445
Fe0 O23 2.093130 1_456
Fe1 O5 2.048354 1_555
Fe1 O15 2.053585 1_555
Fe1 O7 2.057044 1_545
Fe1 O1 2.059785 1_555
Fe2 O8 2.007433 1_555
Fe2 O21 2.032617 1_455
Fe2 O13 2.038687 1_555
Fe2 O12 2.046686 1_555
Fe3 O7 1.984673 1_555
Fe3 O13 2.030179 1_555
Fe3 O11 2.048884 1_565
Fe3 O22 2.066161 1_455
Fe4 O6 1.988332 1_655
Fe4 O16 2.024865 1_555
Fe4 O14 2.042372 1_555
Fe4 O17 2.071803 1_555
Fe5 O19 1.990196 1_555
Fe5 O12 2.023851 1_555
Fe5 O17 2.056814 1_554
Fe5 O21 2.110982 1_555
Fe6 O11 2.018307 1_565
Fe6 O19 2.050511 1_555
Fe6 O22 2.063466 1_555
Fe6 O23 2.086805 1_565
Fe7 O10 1.998928 1_555
Fe7 O1 2.029480 1_655
Fe7 O3 2.041289 1_645
Fe7 O2 2.052272 1_655
Fe8 O3 1.996970 1_655
Fe8 O9 2.011048 1_555
Fe8 O0 2.060938 1_655
Fe8 O20 2.071532 1_555
O0 Si4 1.644198 1_455
O1 Si4 1.662069 1_455
O2 Si0 1.644979 1_555
O3 Si3 1.646911 1_555
O4 Si1 1.649455 1_555
O5 Si2 1.637124 1_555
O6 Si1 1.646156 1_555
O7 Si3 1.666393 1_555
O8 Si2 1.657015 1_555
O9 Si3 1.655561 1_555
O10 Si3 1.649506 1_545
O11 Si2 1.649382 1_555
O12 Si0 1.655971 1_554
O13 Si5 1.654389 1_555
O14 Si1 1.646358 1_555
O15 Si4 1.651405 1_555
O16 Si4 1.659590 1_555
O17 Si0 1.662971 1_655
O18 Si0 1.648440 1_655
O19 Si1 1.672655 1_554
O20 Si5 1.629556 1_555
O21 Si5 1.676826 1_555
O22 Si5 1.653012 1_555
O23 Si2 1.679245 1_655
