# generated using pymatgen
data_Fe3OF5
_symmetry_space_group_name_H-M   'P 1'
_cell_length_a   4.80227400
_cell_length_b   5.78049180
_cell_length_c   8.04882509
_cell_angle_alpha   87.89645692
_cell_angle_beta   89.29309809
_cell_angle_gamma   88.37252122
_symmetry_Int_Tables_number   1
_chemical_formula_structural   Fe3OF5
_chemical_formula_sum   'Fe6 O2 F10'
_cell_volume   223.17650195
_cell_formula_units_Z   2
loop_
 _symmetry_equiv_pos_site_id
 _symmetry_equiv_pos_as_xyz
  1  'x, y, z'
loop_
 _atom_site_type_symbol
 _atom_site_label
 _atom_site_symmetry_multiplicity
 _atom_site_fract_x
 _atom_site_fract_y
 _atom_site_fract_z
 _atom_site_occupancy
  Fe  Fe0  1  0.50384300  0.16655300  0.33510000  1
  Fe  Fe1  1  0.51661700  0.48990200  0.99297200  1
  Fe  Fe2  1  0.50910200  0.82361000  0.66083900  1
  Fe  Fe3  1  0.99449600  0.66704600  0.34533300  1
  Fe  Fe4  1  0.96242900  0.35188700  0.67461100  1
  Fe  Fe5  1  0.99695900  0.01028400  0.99295800  1
  O  O0  1  0.80452400  0.61571700  0.57349300  1
  O  O1  1  0.79253900  0.30601900  0.89325300  1
  F  F0  1  0.80951900  0.97209000  0.23046800  1
  F  F1  1  0.68376400  0.79291300  0.91494500  1
  F  F2  1  0.69425300  0.47333400  0.22107600  1
  F  F3  1  0.71501700  0.12765500  0.56465800  1
  F  F4  1  0.30828800  0.86461000  0.42518200  1
  F  F5  1  0.28983200  0.52817600  0.78181000  1
  F  F6  1  0.30604700  0.21592400  0.09418700  1
  F  F7  1  0.20192000  0.04559500  0.75428700  1
  F  F8  1  0.20079900  0.35224000  0.44893100  1
  F  F9  1  0.21005300  0.69644500  0.09589700  1
loop_
_geom_bond_atom_site_label_1
_geom_bond_atom_site_label_2
_geom_bond_distance
_geom_bond_site_symmetry_2
Fe1 O1 1.867131 1_555
Fe2 O0 1.972731 1_555
Fe3 O0 2.055917 1_555
Fe4 O0 1.849777 1_555
Fe4 O1 1.943056 1_555
Fe5 O1 2.086502 1_555
F0 Fe0 2.018151 1_565
F0 Fe5 2.109821 1_564
F0 Fe3 2.136517 1_555
F1 Fe1 2.023197 1_555
F1 Fe5 2.103290 1_565
F1 Fe2 2.219308 1_555
F2 Fe1 2.031934 1_554
F2 Fe3 2.131318 1_555
F2 Fe0 2.185197 1_555
F3 Fe4 2.018064 1_555
F3 Fe0 2.120298 1_555
F3 Fe2 2.155459 1_545
F4 Fe3 2.040485 1_455
F4 Fe0 2.106509 1_565
F4 Fe2 2.140800 1_555
F5 Fe1 2.031771 1_555
F5 Fe4 2.108079 1_455
F5 Fe2 2.219919 1_555
F6 Fe1 2.042143 1_554
F6 Fe5 2.116897 1_454
F6 Fe0 2.175570 1_555
F7 Fe2 2.079511 1_545
F7 Fe5 2.153314 1_455
F7 Fe4 2.165159 1_455
F8 Fe0 2.014945 1_555
F8 Fe4 2.135055 1_455
F8 Fe3 2.189713 1_455
F9 Fe1 2.054700 1_554
F9 Fe5 2.197711 1_464
F9 Fe3 2.250519 1_455
