# generated using pymatgen
data_Na2IrO3
_symmetry_space_group_name_H-M   'P 1'
_cell_length_a   5.46958944
_cell_length_b   5.46958857
_cell_length_c   5.53310646
_cell_angle_alpha   99.69941102
_cell_angle_beta   99.69940947
_cell_angle_gamma   119.91468364
_symmetry_Int_Tables_number   1
_chemical_formula_structural   Na2IrO3
_chemical_formula_sum   'Na4 Ir2 O6'
_cell_volume   135.10849658
_cell_formula_units_Z   2
loop_
 _symmetry_equiv_pos_site_id
 _symmetry_equiv_pos_as_xyz
  1  'x, y, z'
loop_
 _atom_site_type_symbol
 _atom_site_label
 _atom_site_symmetry_multiplicity
 _atom_site_fract_x
 _atom_site_fract_y
 _atom_site_fract_z
 _atom_site_occupancy
  Na  Na0  1  -0.00000000  0.00000000  0.00000000  1
  Na  Na1  1  0.50000000  0.50000000  0.50000000  1
  Na  Na2  1  0.15953565  0.84046535  0.50000000  1
  Na  Na3  1  0.84046435  0.15953465  0.50000000  1
  Ir  Ir0  1  0.33305985  0.66694015  0.00000000  1
  Ir  Ir1  1  0.66694015  0.33305985  -0.00000000  1
  O  O0  1  0.56097415  0.92960112  0.79283239  1
  O  O1  1  0.92960112  0.56097415  0.79283339  1
  O  O2  1  0.43902585  0.07039888  0.20716761  1
  O  O3  1  0.07039888  0.43902585  0.20716661  1
  O  O4  1  0.70404881  0.70404881  0.20899379  1
  O  O5  1  0.29595119  0.29595119  0.79100621  1
loop_
_geom_bond_atom_site_label_1
_geom_bond_atom_site_label_2
_geom_bond_distance
_geom_bond_site_symmetry_2
Na0 O5 2.285994 1_554
Na0 O4 2.285994 1_445
Na0 O3 2.286909 1_555
Na0 O1 2.286909 1_444
Na0 O0 2.286911 1_444
Na0 O2 2.286911 1_555
Na1 O4 2.247780 1_555
Na1 O5 2.247780 1_555
Na1 O0 2.451777 1_555
Na1 O2 2.451777 1_555
Na1 O3 2.451780 1_555
Na1 O1 2.451780 1_555
Na2 O0 2.269673 1_555
Na2 O3 2.269677 1_555
Na2 O5 2.396968 1_565
Na2 O4 2.396971 1_455
Na2 O2 2.479417 1_565
Na2 O1 2.479426 1_455
Na3 O2 2.269673 1_555
Na3 O1 2.269677 1_555
Na3 O4 2.396968 1_545
Na3 O5 2.396971 1_655
Na3 O0 2.479417 1_545
Na3 O3 2.479426 1_655
Ir0 O1 2.041495 1_454
Ir0 O2 2.041497 1_565
Ir0 O3 2.044995 1_555
Ir0 O0 2.044999 1_554
Ir0 O5 2.053132 1_554
Ir0 O4 2.053132 1_555
Ir1 O3 2.041495 1_655
Ir1 O0 2.041497 1_544
Ir1 O1 2.044995 1_554
Ir1 O2 2.044999 1_555
Ir1 O4 2.053132 1_555
Ir1 O5 2.053132 1_554
