# generated using pymatgen
data_Na2FeAsCO7
_symmetry_space_group_name_H-M   'P 1'
_cell_length_a   5.38045504
_cell_length_b   11.40217093
_cell_length_c   11.39622375
_cell_angle_alpha   106.78190676
_cell_angle_beta   91.46277369
_cell_angle_gamma   88.55293788
_symmetry_Int_Tables_number   1
_chemical_formula_structural   Na2FeAsCO7
_chemical_formula_sum   'Na8 Fe4 As4 C4 O28'
_cell_volume   669.03438301
_cell_formula_units_Z   4
loop_
 _symmetry_equiv_pos_site_id
 _symmetry_equiv_pos_as_xyz
  1  'x, y, z'
loop_
 _atom_site_type_symbol
 _atom_site_label
 _atom_site_symmetry_multiplicity
 _atom_site_fract_x
 _atom_site_fract_y
 _atom_site_fract_z
 _atom_site_occupancy
  Na  Na0  1  0.23357300  0.35908800  0.14340700  1
  Na  Na1  1  0.23356600  0.85907900  0.64341100  1
  Na  Na2  1  0.23395200  0.60677400  0.39096000  1
  Na  Na3  1  0.23393200  0.10678600  0.89096200  1
  Na  Na4  1  0.76640500  0.64091700  0.85660700  1
  Na  Na5  1  0.76644800  0.14091300  0.35658800  1
  Na  Na6  1  0.76604400  0.39321100  0.60902900  1
  Na  Na7  1  0.76606600  0.89322100  0.10905300  1
  Fe  Fe0  1  0.78778000  0.05070700  0.69958700  1
  Fe  Fe1  1  0.21230500  0.94930000  0.30043200  1
  Fe  Fe2  1  0.78773600  0.55071400  0.19953900  1
  Fe  Fe3  1  0.21217800  0.44930800  0.80042000  1
  As  As0  1  0.71577000  0.33820700  0.91205600  1
  As  As1  1  0.71582500  0.83821200  0.41205900  1
  As  As2  1  0.28418600  0.66179100  0.08794300  1
  As  As3  1  0.28420200  0.16179000  0.58794700  1
  C  C0  1  0.72681700  0.41421000  0.33586700  1
  C  C1  1  0.72681200  0.91421300  0.83586900  1
  C  C2  1  0.27320200  0.58579000  0.66413200  1
  C  C3  1  0.27317600  0.08578300  0.16413300  1
  O  O0  1  0.30920600  0.15353000  0.09661600  1
  O  O1  1  0.30920600  0.65352300  0.59663000  1
  O  O2  1  0.69079900  0.84646900  0.90338800  1
  O  O3  1  0.69078800  0.34647600  0.40336600  1
  O  O4  1  0.94791100  0.44273000  0.30762500  1
  O  O5  1  0.94790900  0.94272500  0.80763100  1
  O  O6  1  0.05207700  0.55727300  0.69237300  1
  O  O7  1  0.05210300  0.05726600  0.19237100  1
  O  O8  1  0.54280400  0.46411100  0.28593600  1
  O  O9  1  0.54280000  0.96410000  0.78594700  1
  O  O10  1  0.45719400  0.53589200  0.71406000  1
  O  O11  1  0.45721100  0.03589600  0.21405300  1
  O  O12  1  0.14949600  0.57777000  0.17238500  1
  O  O13  1  0.14947500  0.07776900  0.67238600  1
  O  O14  1  0.85050200  0.42222900  0.82761400  1
  O  O15  1  0.85053600  0.92223200  0.32761600  1
  O  O16  1  0.39463800  0.35293700  0.89749000  1
  O  O17  1  0.39466200  0.85292500  0.39749200  1
  O  O18  1  0.60534700  0.64707600  0.10249000  1
  O  O19  1  0.60534300  0.14706800  0.60251800  1
  O  O20  1  0.80245200  0.18700000  0.86048900  1
  O  O21  1  0.80246300  0.68699900  0.36047400  1
  O  O22  1  0.80340400  0.38949900  0.06316700  1
  O  O23  1  0.80339400  0.88949200  0.56317400  1
  O  O24  1  0.19659900  0.61050500  0.93683600  1
  O  O25  1  0.19661100  0.11050400  0.43683100  1
  O  O26  1  0.19757000  0.81299400  0.13951700  1
  O  O27  1  0.19752500  0.31299600  0.63951900  1
loop_
_geom_bond_atom_site_label_1
_geom_bond_atom_site_label_2
_geom_bond_distance
_geom_bond_site_symmetry_2
Na0 O0 2.276965 1_555
Na0 O8 2.383276 1_555
Na0 O4 2.411728 1_455
Na0 O12 2.450744 1_555
Na0 O22 2.519498 1_455
Na0 O16 2.935556 1_554
Na1 O1 2.276956 1_555
Na1 O9 2.383321 1_555
Na1 O5 2.411733 1_455
Na1 O13 2.450850 1_565
Na1 O23 2.519504 1_455
Na1 O17 2.935622 1_555
Na2 O1 2.276565 1_555
Na2 O8 2.383438 1_555
Na2 O4 2.411255 1_455
Na2 O12 2.448407 1_555
Na2 O21 2.526339 1_455
Na2 O17 2.937549 1_555
Na3 O0 2.276411 1_556
Na3 O9 2.383600 1_545
Na3 O5 2.411316 1_445
Na3 O13 2.448396 1_555
Na3 O20 2.526216 1_455
Na3 O16 2.937554 1_555
Na4 O2 2.276883 1_555
Na4 O10 2.383315 1_555
Na4 O6 2.411890 1_655
Na4 O14 2.450802 1_555
Na4 O24 2.519575 1_655
Na4 O18 2.935150 1_556
Na5 O3 2.277051 1_555
Na5 O11 2.383311 1_555
Na5 O7 2.411705 1_655
Na5 O15 2.450753 1_545
Na5 O25 2.519476 1_655
Na5 O19 2.935755 1_555
Na6 O3 2.276500 1_555
Na6 O10 2.383563 1_555
Na6 O6 2.411382 1_655
Na6 O14 2.448495 1_555
Na6 O27 2.526267 1_655
Na6 O19 2.937508 1_555
Na7 O2 2.276520 1_554
Na7 O11 2.383432 1_565
Na7 O7 2.411219 1_665
Na7 O15 2.448273 1_555
Na7 O26 2.526366 1_655
Na7 O18 2.937408 1_555
Fe0 O19 1.996596 1_555
Fe0 O13 2.023589 1_655
Fe0 O20 2.033938 1_555
Fe0 O23 2.037521 1_545
Fe0 O9 2.091500 1_545
Fe0 O5 2.131197 1_545
Fe1 O17 1.996436 1_555
Fe1 O15 2.023947 1_455
Fe1 O26 2.034126 1_555
Fe1 O25 2.037371 1_565
Fe1 O11 2.091296 1_565
Fe1 O7 2.131352 1_565
Fe2 O18 1.996325 1_555
Fe2 O12 2.023794 1_655
Fe2 O21 2.034158 1_555
Fe2 O22 2.037296 1_555
Fe2 O8 2.091565 1_555
Fe2 O4 2.131658 1_555
Fe3 O16 1.996741 1_555
Fe3 O14 2.023515 1_455
Fe3 O27 2.034036 1_555
Fe3 O24 2.037391 1_555
Fe3 O10 2.091463 1_555
Fe3 O6 2.131023 1_555
As0 O22 1.709051 1_556
As0 O20 1.709870 1_555
As0 O14 1.724085 1_555
As0 O16 1.740110 1_555
As1 O23 1.708993 1_555
As1 O21 1.709884 1_555
As1 O15 1.724026 1_555
As1 O17 1.740256 1_555
As2 O24 1.708940 1_554
As2 O26 1.709743 1_555
As2 O12 1.723975 1_555
As2 O18 1.740226 1_555
As3 O25 1.709038 1_555
As3 O27 1.709857 1_555
As3 O13 1.724039 1_555
As3 O19 1.740154 1_555
C0 O3 1.258573 1_555
C0 O4 1.313003 1_555
C0 O8 1.325714 1_555
C1 O2 1.258829 1_555
C1 O5 1.312971 1_555
C1 O9 1.325570 1_555
C2 O1 1.258566 1_555
C2 O6 1.313141 1_555
C2 O10 1.325596 1_555
C3 O0 1.258855 1_555
C3 O7 1.312872 1_555
C3 O11 1.325648 1_555
