# generated using pymatgen
data_Li2MnCr(PO4)2
_symmetry_space_group_name_H-M   'P 1'
_cell_length_a   4.78364040
_cell_length_b   10.42248987
_cell_length_c   6.25838500
_cell_angle_alpha   89.99979976
_cell_angle_beta   89.99990503
_cell_angle_gamma   88.53149448
_symmetry_Int_Tables_number   1
_chemical_formula_structural   Li2MnCr(PO4)2
_chemical_formula_sum   'Li4 Mn2 Cr2 P4 O16'
_cell_volume   311.92459592
_cell_formula_units_Z   2
loop_
 _symmetry_equiv_pos_site_id
 _symmetry_equiv_pos_as_xyz
  1  'x, y, z'
loop_
 _atom_site_type_symbol
 _atom_site_label
 _atom_site_symmetry_multiplicity
 _atom_site_fract_x
 _atom_site_fract_y
 _atom_site_fract_z
 _atom_site_occupancy
  Li  Li0  1  0.99998900  0.99998100  0.99999000  1
  Li  Li1  1  0.99998800  0.99998000  0.50000800  1
  Li  Li2  1  0.49995600  0.50002000  0.99998600  1
  Li  Li3  1  0.49995500  0.50002000  0.50001200  1
  Mn  Mn0  1  0.02711300  0.71834500  0.75000600  1
  Mn  Mn1  1  0.97286300  0.28160300  0.24999900  1
  Cr  Cr0  1  0.45239100  0.21641500  0.75000000  1
  Cr  Cr1  1  0.54758000  0.78367800  0.24999600  1
  P  P0  1  0.41857000  0.08947400  0.25000000  1
  P  P1  1  0.58141900  0.91050100  0.75000600  1
  P  P2  1  0.90823600  0.40421500  0.74999800  1
  P  P3  1  0.09184600  0.59582800  0.25000000  1
  O  O0  1  0.69639700  0.04958000  0.75000100  1
  O  O1  1  0.30359200  0.95037000  0.25000100  1
  O  O2  1  0.73999300  0.09223000  0.24999900  1
  O  O3  1  0.26001500  0.90778100  0.75000100  1
  O  O4  1  0.23268500  0.39606200  0.74999800  1
  O  O5  1  0.76734300  0.60397000  0.24999900  1
  O  O6  1  0.21012200  0.45525400  0.24999900  1
  O  O7  1  0.78985000  0.54473400  0.74999900  1
  O  O8  1  0.28194900  0.15955400  0.05325100  1
  O  O9  1  0.28195000  0.15955400  0.44674600  1
  O  O10  1  0.71801200  0.84041900  0.55321200  1
  O  O11  1  0.71800900  0.84042200  0.94679000  1
  O  O12  1  0.78100900  0.33776100  0.54927400  1
  O  O13  1  0.78100900  0.33776100  0.95072400  1
  O  O14  1  0.21907900  0.66224400  0.04929200  1
  O  O15  1  0.21908000  0.66224400  0.45071100  1
loop_
_geom_bond_atom_site_label_1
_geom_bond_atom_site_label_2
_geom_bond_distance
_geom_bond_site_symmetry_2
Li0 O0 2.187602 1_565
Li0 O1 2.187763 1_656
Li0 O11 2.193380 1_555
Li0 O8 2.193490 1_666
Li0 O3 2.203890 1_655
Li0 O2 2.204115 1_566
Li1 O0 2.187618 1_565
Li1 O1 2.187745 1_655
Li1 O10 2.193385 1_555
Li1 O9 2.193503 1_665
Li1 O3 2.203904 1_655
Li1 O2 2.204115 1_565
Li2 O7 2.149669 1_555
Li2 O6 2.149727 1_556
Li2 O14 2.154719 1_556
Li2 O13 2.155468 1_555
Li2 O4 2.308107 1_555
Li2 O5 2.308487 1_556
Li3 O7 2.149678 1_555
Li3 O6 2.149730 1_555
Li3 O15 2.154708 1_555
Li3 O12 2.155470 1_555
Li3 O4 2.308088 1_555
Li3 O5 2.308481 1_555
Mn0 O14 2.160078 1_556
Mn0 O15 2.160130 1_555
Mn0 O7 2.160460 1_455
Mn0 O11 2.285944 1_455
Mn0 O10 2.285950 1_455
Mn0 O3 2.291777 1_555
Mn1 O13 2.159949 1_554
Mn1 O12 2.159950 1_555
Mn1 O6 2.160804 1_655
Mn1 O9 2.285608 1_655
Mn1 O8 2.285611 1_655
Mn1 O2 2.291126 1_555
Cr0 O0 2.069291 1_555
Cr0 O4 2.123557 1_555
Cr0 O8 2.154673 1_556
Cr0 O9 2.154693 1_555
Cr0 O12 2.398054 1_555
Cr0 O13 2.398055 1_555
Cr1 O1 2.068013 1_555
Cr1 O5 2.124238 1_555
Cr1 O11 2.154054 1_554
Cr1 O10 2.154111 1_555
Cr1 O14 2.398114 1_555
Cr1 O15 2.398140 1_555
O0 P1 1.563513 1_545
O1 P0 1.563757 1_565
O2 P0 1.538576 1_555
O3 P1 1.538469 1_555
O4 P2 1.552196 1_455
O5 P3 1.552450 1_655
O6 P3 1.556997 1_555
O7 P2 1.556641 1_555
O8 P0 1.565990 1_555
O9 P0 1.565975 1_555
O10 P1 1.566169 1_555
O11 P1 1.566097 1_555
O12 P2 1.565182 1_555
O13 P2 1.565186 1_555
O14 P3 1.564928 1_555
O15 P3 1.564951 1_555
