# generated using pymatgen
data_Cs3TmO3
_symmetry_space_group_name_H-M   'P 1'
_cell_length_a   7.47485594
_cell_length_b   7.47485594
_cell_length_c   7.57211500
_cell_angle_alpha   83.88025574
_cell_angle_beta   83.88025574
_cell_angle_gamma   116.21459346
_symmetry_Int_Tables_number   1
_chemical_formula_structural   Cs3TmO3
_chemical_formula_sum   'Cs6 Tm2 O6'
_cell_volume   371.75744268
_cell_formula_units_Z   2
loop_
 _symmetry_equiv_pos_site_id
 _symmetry_equiv_pos_as_xyz
  1  'x, y, z'
loop_
 _atom_site_type_symbol
 _atom_site_label
 _atom_site_symmetry_multiplicity
 _atom_site_fract_x
 _atom_site_fract_y
 _atom_site_fract_z
 _atom_site_occupancy
  Cs  Cs0  1  0.64267911  0.64267911  0.64870170  1
  Cs  Cs1  1  0.79037688  0.20962312  0.50000000  1
  Cs  Cs2  1  0.20962312  0.79037688  0.50000000  1
  Cs  Cs3  1  0.73726223  0.26273777  -0.00000000  1
  Cs  Cs4  1  0.26273777  0.73726223  -0.00000000  1
  Cs  Cs5  1  0.35732089  0.35732089  0.35129830  1
  Tm  Tm0  1  0.82943140  0.82943140  0.15004958  1
  Tm  Tm1  1  0.17056860  0.17056860  0.84995042  1
  O  O0  1  0.89838391  0.89838391  0.86077135  1
  O  O1  1  0.56852808  0.83717837  0.26573627  1
  O  O2  1  0.83717837  0.56852808  0.26573627  1
  O  O3  1  0.16282163  0.43147192  0.73426373  1
  O  O4  1  0.43147192  0.16282163  0.73426373  1
  O  O5  1  0.10161609  0.10161609  0.13922865  1
loop_
_geom_bond_atom_site_label_1
_geom_bond_atom_site_label_2
_geom_bond_distance
_geom_bond_site_symmetry_2
Cs0 O0 2.822495 1_555
Cs0 O4 3.171966 1_555
Cs0 O3 3.171966 1_555
Cs0 O2 3.314483 1_555
Cs0 O1 3.314483 1_555
Cs1 O2 2.913777 1_555
Cs1 O4 2.913777 1_555
Cs1 O1 3.353880 1_545
Cs1 O3 3.353880 1_655
Cs2 O1 2.913777 1_555
Cs2 O3 2.913777 1_555
Cs2 O2 3.353880 1_455
Cs2 O4 3.353880 1_565
Cs3 O4 3.102283 1_554
Cs3 O2 3.102283 1_555
Cs3 O1 3.210611 1_545
Cs3 O3 3.210611 1_654
Cs4 O1 3.102283 1_555
Cs4 O3 3.102283 1_554
Cs4 O2 3.210611 1_455
Cs4 O4 3.210611 1_564
Cs5 O5 2.822495 1_555
Cs5 O1 3.171966 1_555
Cs5 O2 3.171966 1_555
Cs5 O4 3.314483 1_555
Cs5 O3 3.314483 1_555
O0 Tm1 2.134795 1_665
O0 Tm0 2.147845 1_556
O1 Tm0 2.078556 1_555
O2 Tm0 2.078556 1_555
O3 Tm1 2.078556 1_555
O4 Tm1 2.078556 1_555
O5 Tm0 2.134795 1_445
O5 Tm1 2.147845 1_554
