# generated using pymatgen
data_V2NiO6
_symmetry_space_group_name_H-M   'P 1'
_cell_length_a   6.62879652
_cell_length_b   6.62887775
_cell_length_c   5.72835692
_cell_angle_alpha   74.50881691
_cell_angle_beta   105.49231374
_cell_angle_gamma   96.20099681
_symmetry_Int_Tables_number   1
_chemical_formula_structural   V2NiO6
_chemical_formula_sum   'V4 Ni2 O12'
_cell_volume   233.57241597
_cell_formula_units_Z   2
loop_
 _symmetry_equiv_pos_site_id
 _symmetry_equiv_pos_as_xyz
  1  'x, y, z'
loop_
 _atom_site_type_symbol
 _atom_site_label
 _atom_site_symmetry_multiplicity
 _atom_site_fract_x
 _atom_site_fract_y
 _atom_site_fract_z
 _atom_site_occupancy
  V  V0  1  0.20266724  0.61089732  0.75680503  1
  V  V1  1  0.38913262  0.79739922  0.25682867  1
  V  V2  1  0.61086738  0.20260078  0.74317133  1
  V  V3  1  0.79733276  0.38910268  0.24319397  1
  Ni  Ni0  1  0.08229251  0.08227776  0.75000503  1
  Ni  Ni1  1  0.91770749  0.91772224  0.24999497  1
  O  O0  1  0.03022828  0.80734891  0.63782878  1
  O  O1  1  0.08389882  0.37583713  0.77244257  1
  O  O2  1  0.19261550  0.96978066  0.13782279  1
  O  O3  1  0.37490731  0.65040100  0.55856783  1
  O  O4  1  0.37582917  0.08375789  0.72758935  1
  O  O5  1  0.34969131  0.62513158  0.05858278  1
  O  O6  1  0.65030869  0.37486842  0.94141722  1
  O  O7  1  0.62417083  0.91624211  0.27241065  1
  O  O8  1  0.62509269  0.34959900  0.44143217  1
  O  O9  1  0.80738450  0.03021934  0.86217721  1
  O  O10  1  0.91610118  0.62416287  0.22755743  1
  O  O11  1  0.96977172  0.19265109  0.36217122  1
loop_
_geom_bond_atom_site_label_1
_geom_bond_atom_site_label_2
_geom_bond_distance
_geom_bond_site_symmetry_2
Ni0 O4 1.982770 1_555
Ni0 O1 1.982884 1_555
Ni0 O9 2.055242 1_455
Ni0 O0 2.055394 1_545
Ni0 O2 2.095515 1_546
Ni0 O11 2.095647 1_455
Ni1 O7 1.982770 1_555
Ni1 O10 1.982884 1_555
Ni1 O2 2.055242 1_655
Ni1 O11 2.055394 1_565
Ni1 O9 2.095515 1_564
Ni1 O0 2.095647 1_655
O0 V0 1.702424 1_555
O1 V0 1.659485 1_555
O2 V1 1.702494 1_555
O3 V1 1.764520 1_555
O3 V0 1.769428 1_555
O4 V2 1.659556 1_555
O5 V0 1.764748 1_554
O5 V1 1.769646 1_555
O6 V3 1.764744 1_556
O6 V2 1.769646 1_555
O7 V1 1.659556 1_555
O8 V2 1.764520 1_555
O8 V3 1.769432 1_555
O9 V2 1.702494 1_555
O10 V3 1.659485 1_555
O11 V3 1.702424 1_555
