# generated using pymatgen
data_Li3TiV4O8
_symmetry_space_group_name_H-M   'P 1'
_cell_length_a   6.04265341
_cell_length_b   6.04265341
_cell_length_c   6.08503342
_cell_angle_alpha   60.21765251
_cell_angle_beta   60.21765251
_cell_angle_gamma   60.42808332
_symmetry_Int_Tables_number   1
_chemical_formula_structural   Li3TiV4O8
_chemical_formula_sum   'Li3 Ti1 V4 O8'
_cell_volume   158.13168526
_cell_formula_units_Z   1
loop_
 _symmetry_equiv_pos_site_id
 _symmetry_equiv_pos_as_xyz
  1  'x, y, z'
loop_
 _atom_site_type_symbol
 _atom_site_label
 _atom_site_symmetry_multiplicity
 _atom_site_fract_x
 _atom_site_fract_y
 _atom_site_fract_z
 _atom_site_occupancy
  Li  Li0  1  0.50000000  0.00000000  0.50000000  1
  Li  Li1  1  0.00000000  0.50000000  0.50000000  1
  Li  Li2  1  0.00000000  0.00000000  0.50000000  1
  Ti  Ti0  1  0.50000000  0.50000000  0.00000000  1
  V  V0  1  0.00000000  0.00000000  0.00000000  1
  V  V1  1  0.00000000  0.50000000  0.00000000  1
  V  V2  1  0.50000000  0.00000000  0.00000000  1
  V  V3  1  0.50000000  0.50000000  0.50000000  1
  O  O0  1  0.73366000  0.73366000  0.77384100  1
  O  O1  1  0.73481000  0.25883100  0.76579700  1
  O  O2  1  0.25883100  0.73481000  0.76579700  1
  O  O3  1  0.26634000  0.26634000  0.22615900  1
  O  O4  1  0.24991200  0.24991200  0.76204300  1
  O  O5  1  0.26519000  0.74116900  0.23420300  1
  O  O6  1  0.74116900  0.26519000  0.23420300  1
  O  O7  1  0.75008800  0.75008800  0.23795700  1
loop_
_geom_bond_atom_site_label_1
_geom_bond_atom_site_label_2
_geom_bond_distance
_geom_bond_site_symmetry_2
Li0 O6 2.167090 1_555
Li0 O2 2.167090 1_545
Li0 O3 2.188742 1_555
Li0 O0 2.188742 1_545
Li0 O4 2.202856 1_555
Li0 O7 2.202856 1_545
Li1 O5 2.167090 1_555
Li1 O1 2.167090 1_455
Li1 O0 2.188742 1_455
Li1 O3 2.188742 1_555
Li1 O7 2.202856 1_455
Li1 O4 2.202856 1_555
Li2 O1 2.257088 1_455
Li2 O2 2.257088 1_545
Li2 O6 2.257088 1_455
Li2 O5 2.257088 1_545
Li2 O3 2.277129 1_555
Li2 O0 2.277129 1_445
O0 Ti0 1.997021 1_556
O0 V2 2.122422 1_566
O0 V1 2.122422 1_656
O1 Ti0 2.044853 1_556
O1 V2 2.111335 1_556
O1 V0 2.150735 1_656
O1 V3 2.156435 1_555
O2 Ti0 2.044853 1_556
O2 V1 2.111335 1_556
O2 V0 2.150735 1_566
O2 V3 2.156435 1_555
O3 Ti0 1.997021 1_555
O3 V2 2.122422 1_555
O3 V1 2.122422 1_555
O4 V2 2.099968 1_556
O4 V1 2.099968 1_556
O4 V0 2.136373 1_556
O4 V3 2.139274 1_555
O5 Ti0 2.044853 1_555
O5 V2 2.111335 1_565
O5 V0 2.150735 1_565
O5 V3 2.156435 1_555
O6 Ti0 2.044853 1_555
O6 V1 2.111335 1_655
O6 V0 2.150735 1_655
O6 V3 2.156435 1_555
O7 V1 2.099968 1_655
O7 V2 2.099968 1_565
O7 V0 2.136373 1_665
O7 V3 2.139274 1_555
