# generated using pymatgen
data_Rb2S2O7
_symmetry_space_group_name_H-M   'P 1'
_cell_length_a   7.48394293
_cell_length_b   7.61274567
_cell_length_c   14.98677916
_cell_angle_alpha   59.66723108
_cell_angle_beta   90.00000000
_cell_angle_gamma   90.00000000
_symmetry_Int_Tables_number   1
_chemical_formula_structural   Rb2S2O7
_chemical_formula_sum   'Rb8 S8 O28'
_cell_volume   736.96126620
_cell_formula_units_Z   4
loop_
 _symmetry_equiv_pos_site_id
 _symmetry_equiv_pos_as_xyz
  1  'x, y, z'
loop_
 _atom_site_type_symbol
 _atom_site_label
 _atom_site_symmetry_multiplicity
 _atom_site_fract_x
 _atom_site_fract_y
 _atom_site_fract_z
 _atom_site_occupancy
  Rb  Rb0  1  0.19615766  0.68442091  0.12886569  1
  Rb  Rb1  1  0.86633049  0.19931920  0.15900953  1
  Rb  Rb2  1  0.36633049  0.80068080  0.34099047  1
  Rb  Rb3  1  0.69615766  0.31557909  0.37113431  1
  Rb  Rb4  1  0.30384234  0.68442091  0.62886569  1
  Rb  Rb5  1  0.63366951  0.19931920  0.65900953  1
  Rb  Rb6  1  0.13366951  0.80068080  0.84099047  1
  Rb  Rb7  1  0.80384234  0.31557909  0.87113431  1
  S  S0  1  0.32339541  0.23988173  0.08151098  1
  S  S1  1  0.70368383  0.75714661  0.11365081  1
  S  S2  1  0.20368383  0.24285339  0.38634919  1
  S  S3  1  0.82339541  0.76011827  0.41848902  1
  S  S4  1  0.17660459  0.23988173  0.58151098  1
  S  S5  1  0.79631617  0.75714661  0.61365081  1
  S  S6  1  0.29631617  0.24285339  0.88634919  1
  S  S7  1  0.67660459  0.76011827  0.91848902  1
  O  O0  1  0.58658975  0.75911695  0.01971995  1
  O  O1  1  0.21621832  0.42254495  0.04079039  1
  O  O2  1  0.80295266  0.94514291  0.06751721  1
  O  O3  1  0.48038813  0.23728973  0.13730648  1
  O  O4  1  0.21690061  0.05603413  0.13322676  1
  O  O5  1  0.81641722  0.57850781  0.15507433  1
  O  O6  1  0.56198183  0.74162837  0.18242977  1
  O  O7  1  0.06198183  0.25837163  0.31757023  1
  O  O8  1  0.71690061  0.94396587  0.36677324  1
  O  O9  1  0.98038813  0.76271027  0.36269352  1
  O  O10  1  0.31641722  0.42149219  0.34492567  1
  O  O11  1  0.30295266  0.05485709  0.43248279  1
  O  O12  1  0.71621832  0.57745505  0.45920961  1
  O  O13  1  0.08658975  0.24088305  0.48028005  1
  O  O14  1  0.91341025  0.75911695  0.51971995  1
  O  O15  1  0.28378168  0.42254495  0.54079039  1
  O  O16  1  0.69704734  0.94514291  0.56751721  1
  O  O17  1  0.68358278  0.57850781  0.65507433  1
  O  O18  1  0.01961187  0.23728973  0.63730648  1
  O  O19  1  0.28309939  0.05603413  0.63322676  1
  O  O20  1  0.93801817  0.74162837  0.68242977  1
  O  O21  1  0.43801817  0.25837163  0.81757023  1
  O  O22  1  0.18358278  0.42149219  0.84492567  1
  O  O23  1  0.78309939  0.94396587  0.86677324  1
  O  O24  1  0.51961187  0.76271027  0.86269352  1
  O  O25  1  0.19704734  0.05485709  0.93248279  1
  O  O26  1  0.78378168  0.57745505  0.95920961  1
  O  O27  1  0.41341025  0.24088305  0.98028005  1
loop_
_geom_bond_atom_site_label_1
_geom_bond_atom_site_label_2
_geom_bond_distance
_geom_bond_site_symmetry_2
O0 S1 1.651824 1_555
O0 S7 1.656464 1_554
O0 Rb0 3.255370 1_555
O1 S0 1.446493 1_555
O1 Rb0 2.897787 1_555
O1 Rb6 2.988009 1_554
O1 Rb1 3.137284 1_455
O2 S1 1.441792 1_555
O2 Rb7 2.869082 1_564
O2 Rb1 2.920459 1_565
O2 Rb0 3.406058 1_655
O3 S0 1.436452 1_555
O3 Rb1 2.904664 1_555
O3 Rb2 3.293388 1_545
O4 S0 1.448830 1_555
O4 Rb0 2.866766 1_545
O4 Rb2 2.934465 1_545
O4 Rb1 2.940812 1_455
O5 S1 1.447030 1_555
O5 Rb1 2.881650 1_555
O5 Rb0 2.925956 1_655
O5 Rb3 2.958886 1_555
O6 S1 1.441561 1_555
O6 Rb0 2.946656 1_555
O6 Rb2 3.011972 1_555
O6 Rb3 3.203329 1_555
O7 S2 1.441561 1_555
O7 Rb3 2.946656 1_455
O7 Rb1 3.011972 1_455
O7 Rb0 3.203329 1_555
O8 S3 1.448830 1_555
O8 Rb3 2.866766 1_565
O8 Rb1 2.934465 1_565
O8 Rb2 2.940812 1_555
O9 S3 1.436452 1_555
O9 Rb2 2.904664 1_655
O9 Rb1 3.293388 1_565
O10 S2 1.447030 1_555
O10 Rb2 2.881650 1_555
O10 Rb3 2.925956 1_555
O10 Rb0 2.958886 1_555
O11 S2 1.441792 1_555
O11 Rb4 2.869082 1_545
O11 Rb2 2.920459 1_545
O11 Rb3 3.406058 1_555
O12 S3 1.446493 1_555
O12 Rb3 2.897787 1_555
O12 Rb5 2.988009 1_555
O12 Rb2 3.137284 1_555
O13 S2 1.651824 1_555
O13 S4 1.656464 1_555
O13 Rb3 3.255370 1_455
O14 S5 1.651824 1_555
O14 S3 1.656464 1_555
O14 Rb4 3.255370 1_655
O15 S4 1.446493 1_555
O15 Rb4 2.897787 1_555
O15 Rb2 2.988009 1_555
O15 Rb5 3.137284 1_555
O16 S5 1.441792 1_555
O16 Rb3 2.869082 1_565
O16 Rb5 2.920459 1_565
O16 Rb4 3.406058 1_555
O17 S5 1.447030 1_555
O17 Rb5 2.881650 1_555
O17 Rb4 2.925956 1_555
O17 Rb7 2.958886 1_555
O18 S4 1.436452 1_555
O18 Rb5 2.904664 1_455
O18 Rb6 3.293388 1_545
O19 S4 1.448830 1_555
O19 Rb4 2.866766 1_545
O19 Rb6 2.934465 1_545
O19 Rb5 2.940812 1_555
O20 S5 1.441561 1_555
O20 Rb4 2.946656 1_655
O20 Rb6 3.011972 1_655
O20 Rb7 3.203329 1_555
O21 S6 1.441561 1_555
O21 Rb7 2.946656 1_555
O21 Rb5 3.011972 1_555
O21 Rb4 3.203329 1_555
O22 S6 1.447030 1_555
O22 Rb6 2.881650 1_555
O22 Rb7 2.925956 1_455
O22 Rb4 2.958886 1_555
O23 S7 1.448830 1_555
O23 Rb7 2.866766 1_565
O23 Rb5 2.934465 1_565
O23 Rb6 2.940812 1_655
O24 S7 1.436452 1_555
O24 Rb6 2.904664 1_555
O24 Rb5 3.293388 1_565
O25 S6 1.441792 1_555
O25 Rb0 2.869082 1_546
O25 Rb6 2.920459 1_545
O25 Rb7 3.406058 1_455
O26 S7 1.446493 1_555
O26 Rb7 2.897787 1_555
O26 Rb1 2.988009 1_556
O26 Rb6 3.137284 1_655
O27 S6 1.651824 1_555
O27 S0 1.656464 1_556
O27 Rb7 3.255370 1_555
