# generated using pymatgen
data_NaIr(N2O3)4
_symmetry_space_group_name_H-M   'P 1'
_cell_length_a   7.44145317
_cell_length_b   7.44145317
_cell_length_c   7.44145317
_cell_angle_alpha   60.00000000
_cell_angle_beta   60.00000000
_cell_angle_gamma   60.00000000
_symmetry_Int_Tables_number   1
_chemical_formula_structural   NaIr(N2O3)4
_chemical_formula_sum   'Na1 Ir1 N8 O12'
_cell_volume   291.37900884
_cell_formula_units_Z   1
loop_
 _symmetry_equiv_pos_site_id
 _symmetry_equiv_pos_as_xyz
  1  'x, y, z'
loop_
 _atom_site_type_symbol
 _atom_site_label
 _atom_site_symmetry_multiplicity
 _atom_site_fract_x
 _atom_site_fract_y
 _atom_site_fract_z
 _atom_site_occupancy
  Na  Na0  1  0.50000000  0.50000000  0.50000000  1
  Ir  Ir0  1  0.00000000  0.00000000  0.00000000  1
  N  N0  1  0.79894000  0.79894000  0.20106000  1
  N  N1  1  0.79894000  0.20106000  0.20106000  1
  N  N2  1  0.20106000  0.79894000  0.20106000  1
  N  N3  1  0.20106000  0.20106000  0.79894000  1
  N  N4  1  0.20106000  0.79894000  0.79894000  1
  N  N5  1  0.79894000  0.20106000  0.79894000  1
  N  N6  1  0.75000000  0.75000000  0.75000000  1
  N  N7  1  0.25000000  0.25000000  0.25000000  1
  O  O0  1  0.64053100  0.84872200  0.35946900  1
  O  O1  1  0.84872200  0.15127800  0.35946900  1
  O  O2  1  0.15127800  0.64053100  0.35946900  1
  O  O3  1  0.35946900  0.15127800  0.64053100  1
  O  O4  1  0.15127800  0.84872200  0.64053100  1
  O  O5  1  0.84872200  0.35946900  0.64053100  1
  O  O6  1  0.15127800  0.35946900  0.84872200  1
  O  O7  1  0.64053100  0.35946900  0.15127800  1
  O  O8  1  0.84872200  0.64053100  0.15127800  1
  O  O9  1  0.35946900  0.64053100  0.84872200  1
  O  O10  1  0.35946900  0.84872200  0.15127800  1
  O  O11  1  0.64053100  0.15127800  0.84872200  1
loop_
_geom_bond_atom_site_label_1
_geom_bond_atom_site_label_2
_geom_bond_distance
_geom_bond_site_symmetry_2
Na0 O11 2.797788 1_555
Na0 O5 2.797788 1_555
Na0 O9 2.797788 1_555
Na0 O0 2.797788 1_555
Na0 O8 2.797788 1_555
Na0 O4 2.797788 1_555
Na0 O10 2.797788 1_555
Na0 O7 2.797788 1_555
Na0 O1 2.797788 1_555
Na0 O2 2.797788 1_555
Na0 O3 2.797788 1_555
Na0 O6 2.797788 1_555
Ir0 N3 2.115916 1_554
Ir0 N1 2.115916 1_455
Ir0 N2 2.115916 1_545
Ir0 N0 2.115916 1_445
Ir0 N4 2.115916 1_544
Ir0 N5 2.115916 1_454
N0 O8 1.235632 1_555
N0 O0 1.235632 1_555
N1 O1 1.235632 1_555
N1 O7 1.235632 1_555
N2 O2 1.235632 1_555
N2 O10 1.235632 1_555
N3 O3 1.235632 1_555
N3 O6 1.235632 1_555
N4 O4 1.235632 1_555
N4 O9 1.235632 1_555
N5 O11 1.235632 1_555
N5 O5 1.235632 1_555
