# generated using pymatgen
data_Mn6PbO12
_symmetry_space_group_name_H-M   'P 1'
_cell_length_a   8.09626775
_cell_length_b   8.09626775
_cell_length_c   9.61378376
_cell_angle_alpha   54.50040883
_cell_angle_beta   54.50040883
_cell_angle_gamma   65.13875264
_symmetry_Int_Tables_number   1
_chemical_formula_structural   Mn6PbO12
_chemical_formula_sum   'Mn12 Pb2 O24'
_cell_volume   414.37207072
_cell_formula_units_Z   2
loop_
 _symmetry_equiv_pos_site_id
 _symmetry_equiv_pos_as_xyz
  1  'x, y, z'
loop_
 _atom_site_type_symbol
 _atom_site_label
 _atom_site_symmetry_multiplicity
 _atom_site_fract_x
 _atom_site_fract_y
 _atom_site_fract_z
 _atom_site_occupancy
  Mn  Mn0  1  0.67000698  0.00227634  0.81571019  1
  Mn  Mn1  1  0.18675428  0.51854869  0.47951892  1
  Mn  Mn2  1  0.85400980  0.85400980  0.47383250  1
  Mn  Mn3  1  0.81324572  0.48145131  0.52048108  1
  Mn  Mn4  1  0.32999302  -0.00227634  0.18428981  1
  Mn  Mn5  1  -0.00227634  0.32999302  0.18428981  1
  Mn  Mn6  1  0.33296652  0.33296652  0.81936015  1
  Mn  Mn7  1  0.00227634  0.67000698  0.81571019  1
  Mn  Mn8  1  0.51854869  0.18675428  0.47951892  1
  Mn  Mn9  1  0.48145131  0.81324572  0.52048108  1
  Mn  Mn10  1  0.14599020  0.14599020  0.52616750  1
  Mn  Mn11  1  0.66703348  0.66703348  0.18063985  1
  Pb  Pb0  1  0.27629544  0.72370456  -0.00000000  1
  Pb  Pb1  1  0.72370456  0.27629544  -0.00000000  1
  O  O0  1  0.70457221  0.70457221  0.94415494  1
  O  O1  1  0.01477278  0.67453095  0.34745543  1
  O  O2  1  0.67453095  0.01477278  0.34745543  1
  O  O3  1  0.68089017  0.01370684  0.60881062  1
  O  O4  1  0.01370684  0.68089017  0.60881062  1
  O  O5  1  0.04320861  0.04320861  0.28119163  1
  O  O6  1  0.70990570  0.37755275  0.27751048  1
  O  O7  1  0.37755275  0.70990570  0.27751048  1
  O  O8  1  0.98629316  0.31910983  0.39118938  1
  O  O9  1  0.98522722  0.32546905  0.65254457  1
  O  O10  1  0.03264732  0.37073416  0.94446166  1
  O  O11  1  0.37073416  0.03264732  0.94446166  1
  O  O12  1  0.29542779  0.29542779  0.05584506  1
  O  O13  1  0.96735268  0.62926584  0.05553834  1
  O  O14  1  0.34087153  0.34087153  0.35571015  1
  O  O15  1  0.34917338  0.34917338  0.60893881  1
  O  O16  1  0.29009430  0.62244725  0.72248952  1
  O  O17  1  0.62244725  0.29009430  0.72248952  1
  O  O18  1  0.95679139  0.95679139  0.71880837  1
  O  O19  1  0.65082662  0.65082662  0.39106119  1
  O  O20  1  0.31910983  0.98629316  0.39118938  1
  O  O21  1  0.65912847  0.65912847  0.64428985  1
  O  O22  1  0.32546905  0.98522722  0.65254457  1
  O  O23  1  0.62926584  0.96735268  0.05553834  1
loop_
_geom_bond_atom_site_label_1
_geom_bond_atom_site_label_2
_geom_bond_distance
_geom_bond_site_symmetry_2
Mn0 O18 1.887310 1_545
Mn0 O3 1.887410 1_555
Mn0 O17 1.897999 1_555
Mn0 O0 1.946829 1_545
Mn0 O11 1.957752 1_555
Mn0 O23 1.985651 1_546
Mn1 O15 1.886826 1_555
Mn1 O4 1.887310 1_555
Mn1 O7 1.895231 1_555
Mn1 O14 1.948702 1_555
Mn1 O9 1.960964 1_455
Mn1 O1 1.964190 1_555
Mn2 O5 1.872487 1_665
Mn2 O4 1.905933 1_655
Mn2 O3 1.905933 1_565
Mn2 O21 1.936973 1_555
Mn2 O2 1.976174 1_565
Mn2 O1 1.976174 1_655
Mn3 O19 1.886826 1_555
Mn3 O8 1.887310 1_555
Mn3 O17 1.895231 1_555
Mn3 O21 1.948702 1_555
Mn3 O1 1.960964 1_655
Mn3 O9 1.964190 1_555
Mn4 O5 1.887310 1_555
Mn4 O20 1.887410 1_545
Mn4 O7 1.897999 1_545
Mn4 O12 1.946829 1_555
Mn4 O23 1.957752 1_545
Mn4 O11 1.985651 1_554
Mn5 O5 1.887310 1_555
Mn5 O8 1.887410 1_455
Mn5 O6 1.897999 1_455
Mn5 O12 1.946829 1_555
Mn5 O13 1.957752 1_455
Mn5 O10 1.985651 1_554
Mn6 O15 1.877407 1_555
Mn6 O16 1.907148 1_555
Mn6 O17 1.907148 1_555
Mn6 O12 1.956090 1_556
Mn6 O11 1.964096 1_555
Mn6 O10 1.964096 1_555
Mn7 O18 1.887310 1_455
Mn7 O4 1.887410 1_555
Mn7 O16 1.897999 1_555
Mn7 O0 1.946829 1_455
Mn7 O10 1.957752 1_555
Mn7 O13 1.985651 1_456
Mn8 O15 1.886826 1_555
Mn8 O3 1.887310 1_555
Mn8 O6 1.895231 1_555
Mn8 O14 1.948702 1_555
Mn8 O22 1.960964 1_545
Mn8 O2 1.964190 1_555
Mn9 O19 1.886826 1_555
Mn9 O20 1.887310 1_555
Mn9 O16 1.895231 1_555
Mn9 O21 1.948702 1_555
Mn9 O2 1.960964 1_565
Mn9 O22 1.964190 1_555
Mn10 O18 1.872487 1_445
Mn10 O20 1.905933 1_545
Mn10 O8 1.905933 1_455
Mn10 O14 1.936973 1_555
Mn10 O9 1.976174 1_455
Mn10 O22 1.976174 1_545
Mn11 O19 1.877407 1_555
Mn11 O6 1.907148 1_555
Mn11 O7 1.907148 1_555
Mn11 O0 1.956090 1_554
Mn11 O13 1.964096 1_555
Mn11 O23 1.964096 1_555
O1 Pb0 2.598033 1_555
O2 Pb1 2.598033 1_555
O9 Pb1 2.598033 1_556
O10 Pb1 2.590178 1_456
O11 Pb0 2.590178 1_546
O13 Pb0 2.590178 1_655
O22 Pb0 2.598033 1_556
O23 Pb1 2.590178 1_565
