# generated using pymatgen
data_NdZrO3
_symmetry_space_group_name_H-M   'P 1'
_cell_length_a   5.86120563
_cell_length_b   5.86120563
_cell_length_c   5.63108411
_cell_angle_alpha   61.40900686
_cell_angle_beta   61.40900686
_cell_angle_gamma   89.43292890
_symmetry_Int_Tables_number   1
_chemical_formula_structural   NdZrO3
_chemical_formula_sum   'Nd2 Zr2 O6'
_cell_volume   142.99614026
_cell_formula_units_Z   2
loop_
 _symmetry_equiv_pos_site_id
 _symmetry_equiv_pos_as_xyz
  1  'x, y, z'
loop_
 _atom_site_type_symbol
 _atom_site_label
 _atom_site_symmetry_multiplicity
 _atom_site_fract_x
 _atom_site_fract_y
 _atom_site_fract_z
 _atom_site_occupancy
  Nd  Nd0  1  0.24405700  0.24405700  0.96873200  1
  Nd  Nd1  1  0.75594300  0.75594300  0.03126800  1
  Zr  Zr0  1  0.00000000  0.50000000  0.50000000  1
  Zr  Zr1  1  0.50000000  0.00000000  0.50000000  1
  O  O0  1  0.18004600  0.81995400  0.00000000  1
  O  O1  1  0.81995400  0.18004600  0.00000000  1
  O  O2  1  0.32197800  0.67802200  0.50000000  1
  O  O3  1  0.67802200  0.32197800  0.50000000  1
  O  O4  1  0.24421700  0.24421700  0.38910700  1
  O  O5  1  0.75578300  0.75578300  0.61089300  1
loop_
_geom_bond_atom_site_label_1
_geom_bond_atom_site_label_2
_geom_bond_distance
_geom_bond_site_symmetry_2
Nd0 O4 2.368065 1_556
Nd0 O1 2.426329 1_456
Nd0 O0 2.426329 1_546
Nd0 O3 2.467512 1_555
Nd0 O2 2.467512 1_555
Nd1 O5 2.368065 1_554
Nd1 O1 2.426329 1_565
Nd1 O0 2.426329 1_655
Nd1 O3 2.467512 1_555
Nd1 O2 2.467512 1_555
O0 Zr0 2.167849 1_555
O0 Zr1 2.167849 1_564
O1 Zr1 2.167849 1_555
O1 Zr0 2.167849 1_654
O2 Zr1 2.165446 1_565
O2 Zr0 2.165446 1_555
O3 Zr0 2.165446 1_655
O3 Zr1 2.165446 1_555
O4 Zr1 2.164368 1_555
O4 Zr0 2.164368 1_555
O5 Zr0 2.164368 1_655
O5 Zr1 2.164368 1_565
