# generated using pymatgen
data_LuNiSn2
_symmetry_space_group_name_H-M   'P 1'
_cell_length_a   4.40883200
_cell_length_b   14.42335700
_cell_length_c   16.08583500
_cell_angle_alpha   90.00000000
_cell_angle_beta   90.00000000
_cell_angle_gamma   90.00000000
_symmetry_Int_Tables_number   1
_chemical_formula_structural   LuNiSn2
_chemical_formula_sum   'Lu12 Ni12 Sn24'
_cell_volume   1022.90078743
_cell_formula_units_Z   12
loop_
 _symmetry_equiv_pos_site_id
 _symmetry_equiv_pos_as_xyz
  1  'x, y, z'
loop_
 _atom_site_type_symbol
 _atom_site_label
 _atom_site_symmetry_multiplicity
 _atom_site_fract_x
 _atom_site_fract_y
 _atom_site_fract_z
 _atom_site_occupancy
  Lu  Lu0  1  0.25000000  0.40142600  0.64841300  1
  Lu  Lu1  1  0.75000000  0.59857400  0.35158700  1
  Lu  Lu2  1  0.75000000  0.90142600  0.85158700  1
  Lu  Lu3  1  0.25000000  0.09857400  0.14841300  1
  Lu  Lu4  1  0.25000000  0.27815900  0.87090100  1
  Lu  Lu5  1  0.75000000  0.72184100  0.12909900  1
  Lu  Lu6  1  0.75000000  0.77815900  0.62909900  1
  Lu  Lu7  1  0.25000000  0.22184100  0.37090100  1
  Lu  Lu8  1  0.25000000  0.96962000  0.34931400  1
  Lu  Lu9  1  0.75000000  0.03038000  0.65068600  1
  Lu  Lu10  1  0.75000000  0.46962000  0.15068600  1
  Lu  Lu11  1  0.25000000  0.53038000  0.84931400  1
  Ni  Ni0  1  0.75000000  0.23898100  0.18856900  1
  Ni  Ni1  1  0.25000000  0.04992600  0.80028200  1
  Ni  Ni2  1  0.75000000  0.95007400  0.19971800  1
  Ni  Ni3  1  0.75000000  0.54992600  0.69971800  1
  Ni  Ni4  1  0.25000000  0.45007400  0.30028200  1
  Ni  Ni5  1  0.25000000  0.73898100  0.31143100  1
  Ni  Ni6  1  0.75000000  0.26101900  0.68856900  1
  Ni  Ni7  1  0.25000000  0.76101900  0.81143100  1
  Ni  Ni8  1  0.25000000  0.60701700  0.05381500  1
  Ni  Ni9  1  0.75000000  0.39298300  0.94618500  1
  Ni  Ni10  1  0.75000000  0.10701700  0.44618500  1
  Ni  Ni11  1  0.25000000  0.89298300  0.55381500  1
  Sn  Sn0  1  0.25000000  0.89929300  0.71505100  1
  Sn  Sn1  1  0.75000000  0.10070700  0.28494900  1
  Sn  Sn2  1  0.75000000  0.39929300  0.78494900  1
  Sn  Sn3  1  0.25000000  0.60070700  0.21505100  1
  Sn  Sn4  1  0.25000000  0.76687800  0.97242500  1
  Sn  Sn5  1  0.25000000  0.86367500  0.17636000  1
  Sn  Sn6  1  0.75000000  0.23312200  0.02757500  1
  Sn  Sn7  1  0.75000000  0.26687800  0.52757500  1
  Sn  Sn8  1  0.25000000  0.73312200  0.47242500  1
  Sn  Sn9  1  0.25000000  0.63632500  0.67636000  1
  Sn  Sn10  1  0.75000000  0.36367500  0.32364000  1
  Sn  Sn11  1  0.75000000  0.13632500  0.82364000  1
  Sn  Sn12  1  0.25000000  0.31958300  0.18211500  1
  Sn  Sn13  1  0.75000000  0.68041700  0.81788500  1
  Sn  Sn14  1  0.75000000  0.81958300  0.31788500  1
  Sn  Sn15  1  0.25000000  0.18041700  0.68211500  1
  Sn  Sn16  1  0.25000000  0.44349000  0.45852900  1
  Sn  Sn17  1  0.75000000  0.55651000  0.54147100  1
  Sn  Sn18  1  0.75000000  0.94349000  0.04147100  1
  Sn  Sn19  1  0.25000000  0.05651000  0.95852900  1
  Sn  Sn20  1  0.25000000  0.42172100  0.02030000  1
  Sn  Sn21  1  0.75000000  0.57827900  0.97970000  1
  Sn  Sn22  1  0.75000000  0.92172100  0.47970000  1
  Sn  Sn23  1  0.25000000  0.07827900  0.52030000  1
loop_
_geom_bond_atom_site_label_1
_geom_bond_atom_site_label_2
_geom_bond_distance
_geom_bond_site_symmetry_2
Lu0 Ni6 3.062333 1_555
Lu0 Ni6 3.062333 1_455
Lu0 Sn2 3.111930 1_555
Lu0 Sn2 3.111930 1_455
Lu0 Sn16 3.114115 1_555
Lu0 Ni3 3.182474 1_455
Lu0 Ni3 3.182474 1_555
Lu0 Sn15 3.233462 1_555
Lu0 Sn9 3.417727 1_555
Lu0 Sn7 3.521902 1_555
Lu0 Sn7 3.521902 1_455
Lu0 Sn17 3.580800 1_455
Lu0 Sn17 3.580800 1_555
Lu1 Ni5 3.062333 1_555
Lu1 Ni5 3.062333 1_655
Lu1 Sn3 3.111930 1_655
Lu1 Sn3 3.111930 1_555
Lu1 Sn17 3.114115 1_555
Lu1 Ni4 3.182474 1_555
Lu1 Ni4 3.182474 1_655
Lu1 Sn14 3.233462 1_555
Lu1 Sn10 3.417727 1_555
Lu1 Sn8 3.521902 1_555
Lu1 Sn8 3.521902 1_655
Lu1 Sn16 3.580800 1_655
Lu1 Sn16 3.580800 1_555
Lu2 Ni7 3.062333 1_555
Lu2 Ni7 3.062333 1_655
Lu2 Sn0 3.111930 1_655
Lu2 Sn0 3.111930 1_555
Lu2 Sn18 3.114115 1_556
Lu2 Ni1 3.182474 1_565
Lu2 Ni1 3.182474 1_665
Lu2 Sn13 3.233462 1_555
Lu2 Sn11 3.417727 1_565
Lu2 Sn4 3.521902 1_555
Lu2 Sn4 3.521902 1_655
Lu2 Sn19 3.580800 1_665
Lu2 Sn19 3.580800 1_565
Lu3 Ni0 3.062333 1_455
Lu3 Ni0 3.062333 1_555
Lu3 Sn1 3.111930 1_555
Lu3 Sn1 3.111930 1_455
Lu3 Sn19 3.114115 1_554
Lu3 Ni2 3.182474 1_545
Lu3 Ni2 3.182474 1_445
Lu3 Sn12 3.233462 1_555
Lu3 Sn5 3.417727 1_545
Lu3 Sn6 3.521902 1_455
Lu3 Sn6 3.521902 1_555
Lu3 Sn18 3.580800 1_445
Lu3 Sn18 3.580800 1_545
Lu4 Ni9 3.011447 1_455
Lu4 Ni9 3.011447 1_555
Lu4 Sn11 3.101997 1_555
Lu4 Sn11 3.101997 1_455
Lu4 Sn2 3.134266 1_555
Lu4 Sn2 3.134266 1_455
Lu4 Sn20 3.172220 1_556
Lu4 Sn15 3.348056 1_555
Lu4 Sn6 3.410715 1_456
Lu4 Sn6 3.410715 1_556
Lu4 Ni1 3.482374 1_555
Lu4 Sn19 3.493880 1_555
Lu5 Ni8 3.011447 1_655
Lu5 Ni8 3.011447 1_555
Lu5 Sn5 3.101997 1_555
Lu5 Sn5 3.101997 1_655
Lu5 Sn3 3.134266 1_655
Lu5 Sn3 3.134266 1_555
Lu5 Sn21 3.172220 1_554
Lu5 Sn14 3.348056 1_555
Lu5 Sn4 3.410715 1_554
Lu5 Sn4 3.410715 1_654
Lu5 Ni2 3.482374 1_555
Lu5 Sn18 3.493880 1_555
Lu6 Ni11 3.011447 1_655
Lu6 Ni11 3.011447 1_555
Lu6 Sn9 3.101997 1_555
Lu6 Sn9 3.101997 1_655
Lu6 Sn0 3.134266 1_655
Lu6 Sn0 3.134266 1_555
Lu6 Sn22 3.172220 1_555
Lu6 Sn13 3.348056 1_555
Lu6 Sn8 3.410715 1_555
Lu6 Sn8 3.410715 1_655
Lu6 Ni3 3.482374 1_555
Lu6 Sn17 3.493880 1_555
Lu7 Ni10 3.011447 1_555
Lu7 Ni10 3.011447 1_455
Lu7 Sn10 3.101997 1_555
Lu7 Sn10 3.101997 1_455
Lu7 Sn1 3.134266 1_555
Lu7 Sn1 3.134266 1_455
Lu7 Sn23 3.172220 1_555
Lu7 Sn12 3.348056 1_555
Lu7 Sn7 3.410715 1_555
Lu7 Sn7 3.410715 1_455
Lu7 Ni4 3.482374 1_555
Lu7 Sn16 3.493880 1_555
Lu8 Sn1 3.083218 1_465
Lu8 Sn1 3.083218 1_565
Lu8 Sn22 3.120207 1_555
Lu8 Sn22 3.120207 1_455
Lu8 Sn14 3.130192 1_555
Lu8 Sn14 3.130192 1_455
Lu8 Sn23 3.165627 1_565
Lu8 Sn5 3.174141 1_555
Lu8 Ni2 3.275603 1_555
Lu8 Ni2 3.275603 1_455
Lu8 Ni10 3.348856 1_465
Lu8 Ni10 3.348856 1_565
Lu8 Ni5 3.381943 1_555
Lu8 Ni11 3.470316 1_555
Lu9 Sn0 3.083218 1_545
Lu9 Sn0 3.083218 1_645
Lu9 Sn23 3.120207 1_555
Lu9 Sn23 3.120207 1_655
Lu9 Sn15 3.130192 1_555
Lu9 Sn15 3.130192 1_655
Lu9 Sn22 3.165627 1_545
Lu9 Sn11 3.174141 1_555
Lu9 Ni1 3.275603 1_555
Lu9 Ni1 3.275603 1_655
Lu9 Ni11 3.348856 1_545
Lu9 Ni11 3.348856 1_645
Lu9 Ni6 3.381943 1_555
Lu9 Ni10 3.470316 1_555
Lu10 Sn3 3.083218 1_655
Lu10 Sn3 3.083218 1_555
Lu10 Sn20 3.120207 1_655
Lu10 Sn20 3.120207 1_555
Lu10 Sn12 3.130192 1_555
Lu10 Sn12 3.130192 1_655
Lu10 Sn21 3.165627 1_554
Lu10 Sn10 3.174141 1_555
Lu10 Ni4 3.275603 1_555
Lu10 Ni4 3.275603 1_655
Lu10 Ni8 3.348856 1_555
Lu10 Ni8 3.348856 1_655
Lu10 Ni0 3.381943 1_555
Lu10 Ni9 3.470316 1_554
Lu11 Sn2 3.083218 1_455
Lu11 Sn2 3.083218 1_555
Lu11 Sn21 3.120207 1_455
Lu11 Sn21 3.120207 1_555
Lu11 Sn13 3.130192 1_455
Lu11 Sn13 3.130192 1_555
Lu11 Sn20 3.165627 1_556
Lu11 Sn9 3.174141 1_555
Lu11 Ni3 3.275603 1_455
Lu11 Ni3 3.275603 1_555
Lu11 Ni9 3.348856 1_555
Lu11 Ni9 3.348856 1_455
Lu11 Ni7 3.381943 1_555
Lu11 Ni8 3.470316 1_556
Ni0 Sn12 2.494344 1_555
Ni0 Sn12 2.494344 1_655
Ni0 Sn1 2.526089 1_555
Ni0 Sn6 2.591101 1_555
Ni0 Sn10 2.820528 1_555
Ni1 Sn19 2.547306 1_555
Ni1 Sn11 2.559990 1_555
Ni1 Sn11 2.559990 1_455
Ni1 Sn0 2.569048 1_545
Ni1 Sn15 2.674970 1_555
Ni2 Sn18 2.547306 1_555
Ni2 Sn5 2.559990 1_555
Ni2 Sn5 2.559990 1_655
Ni2 Sn1 2.569048 1_565
Ni2 Sn14 2.674970 1_555
Ni3 Sn17 2.547306 1_555
Ni3 Sn9 2.559990 1_555
Ni3 Sn9 2.559990 1_655
Ni3 Sn2 2.569048 1_555
Ni3 Sn13 2.674970 1_555
Ni4 Sn16 2.547306 1_555
Ni4 Sn10 2.559990 1_555
Ni4 Sn10 2.559990 1_455
Ni4 Sn3 2.569048 1_555
Ni4 Sn12 2.674970 1_555
Ni5 Sn14 2.494344 1_455
Ni5 Sn14 2.494344 1_555
Ni5 Sn3 2.526089 1_555
Ni5 Sn8 2.591101 1_555
Ni5 Sn5 2.820528 1_555
Ni6 Sn15 2.494344 1_555
Ni6 Sn15 2.494344 1_655
Ni6 Sn2 2.526089 1_555
Ni6 Sn7 2.591101 1_555
Ni6 Sn11 2.820528 1_555
Ni7 Sn13 2.494344 1_455
Ni7 Sn13 2.494344 1_555
Ni7 Sn0 2.526089 1_555
Ni7 Sn4 2.591101 1_555
Ni7 Sn9 2.820528 1_555
Ni8 Sn21 2.540198 1_454
Ni8 Sn21 2.540198 1_554
Ni8 Sn3 2.595212 1_555
Ni8 Sn4 2.651504 1_554
Ni8 Sn20 2.726424 1_555
Ni9 Sn20 2.540198 1_556
Ni9 Sn20 2.540198 1_656
Ni9 Sn2 2.595212 1_555
Ni9 Sn6 2.651504 1_556
Ni9 Sn21 2.726424 1_555
Ni10 Sn23 2.540198 1_555
Ni10 Sn23 2.540198 1_655
Ni10 Sn1 2.595212 1_555
Ni10 Sn7 2.651504 1_555
Ni10 Sn22 2.726424 1_545
Ni11 Sn22 2.540198 1_555
Ni11 Sn22 2.540198 1_455
Ni11 Sn0 2.595212 1_555
Ni11 Sn8 2.651504 1_555
Ni11 Sn23 2.726424 1_565
Sn12 Sn20 2.990899 1_555
Sn13 Sn21 2.990899 1_555
Sn14 Sn22 2.990899 1_555
Sn15 Sn23 2.990899 1_555
