# generated using pymatgen
data_Dy11Y5O24
_symmetry_space_group_name_H-M   'P 1'
_cell_length_a   9.25722600
_cell_length_b   9.25718845
_cell_length_c   9.25669206
_cell_angle_alpha   109.47400440
_cell_angle_beta   109.45989605
_cell_angle_gamma   109.47827474
_symmetry_Int_Tables_number   1
_chemical_formula_structural   Dy11Y5O24
_chemical_formula_sum   'Dy11 Y5 O24'
_cell_volume   610.66335036
_cell_formula_units_Z   1
loop_
 _symmetry_equiv_pos_site_id
 _symmetry_equiv_pos_as_xyz
  1  'x, y, z'
loop_
 _atom_site_type_symbol
 _atom_site_label
 _atom_site_symmetry_multiplicity
 _atom_site_fract_x
 _atom_site_fract_y
 _atom_site_fract_z
 _atom_site_occupancy
  Dy  Dy0  1  0.53275400  0.81520300  0.21746600  1
  Dy  Dy1  1  0.00016900  0.49998000  0.00004600  1
  Dy  Dy2  1  0.50010800  0.50015800  0.49981900  1
  Dy  Dy3  1  0.03287700  0.81576400  0.71707100  1
  Dy  Dy4  1  0.99993900  0.99981300  0.50011600  1
  Dy  Dy5  1  0.96726800  0.18463400  0.28259000  1
  Dy  Dy6  1  0.31541800  0.78278100  0.46726800  1
  Dy  Dy7  1  0.31545800  0.28283600  0.96724900  1
  Dy  Dy8  1  0.71721100  0.46722300  0.25003000  1
  Dy  Dy9  1  0.78281900  0.03274800  0.74988400  1
  Dy  Dy10  1  0.46727600  0.18449000  0.78278100  1
  Y  Y0  1  0.50009700  0.00022300  0.99986000  1
  Y  Y1  1  0.21743400  0.96744800  0.25004300  1
  Y  Y2  1  0.28276400  0.53267900  0.74993200  1
  Y  Y3  1  0.68451700  0.21719000  0.53276400  1
  Y  Y4  1  0.68501800  0.71741300  0.03251200  1
  O  O0  1  0.78318500  0.05332900  0.48870700  1
  O  O1  1  0.19879300  0.68750000  0.27054100  1
  O  O2  1  0.18708500  0.92696700  0.04202400  1
  O  O3  1  0.49066000  0.03222800  0.23936300  1
  O  O4  1  0.55295200  0.31417000  0.45758700  1
  O  O5  1  0.24914400  0.20721000  0.26131300  1
  O  O6  1  0.02005200  0.24953900  0.01118200  1
  O  O7  1  0.99861600  0.00982900  0.22950700  1
  O  O8  1  0.18529700  0.71719500  0.77206400  1
  O  O9  1  0.70665100  0.47875500  0.53194000  1
  O  O10  1  0.46749400  0.49854100  0.27190000  1
  O  O11  1  0.42669100  0.69809500  0.03099000  1
  O  O12  1  0.53294400  0.50111800  0.72836000  1
  O  O13  1  0.57392500  0.30277400  0.96822200  1
  O  O14  1  0.29167900  0.52017700  0.46892300  1
  O  O15  1  0.81343900  0.28240100  0.22854400  1
  O  O16  1  0.00165700  0.99074700  0.76997900  1
  O  O17  1  0.98010200  0.75009400  0.98912400  1
  O  O18  1  0.44741400  0.68681700  0.54161500  1
  O  O19  1  0.74972300  0.79181400  0.73931000  1
  O  O20  1  0.81250200  0.07322000  0.95812900  1
  O  O21  1  0.50933000  0.96695600  0.76126000  1
  O  O22  1  0.21755100  0.94706800  0.51087500  1
  O  O23  1  0.80199100  0.31287000  0.72910800  1
loop_
_geom_bond_atom_site_label_1
_geom_bond_atom_site_label_2
_geom_bond_distance
_geom_bond_site_symmetry_2
Dy0 O11 1.425505 1_555
Dy0 O3 2.128939 1_565
Dy0 O0 2.358193 1_565
Dy0 O10 3.036216 1_555
Dy1 O1 2.137619 1_555
Dy1 O23 2.138817 1_454
Dy1 O17 2.415780 1_454
Dy1 O6 2.418816 1_555
Dy2 O4 1.896526 1_555
Dy2 O18 1.901454 1_555
Dy2 O9 1.922653 1_555
Dy2 O14 1.935235 1_555
Dy2 O10 2.023376 1_555
Dy2 O12 2.031048 1_555
Dy2 O19 2.445199 1_555
Dy2 O5 2.452491 1_555
Dy3 O16 1.680734 1_555
Dy3 O8 1.942260 1_555
Dy3 O9 2.914374 1_455
Dy3 O17 2.931311 1_455
Dy4 O0 2.199867 1_565
Dy4 O22 2.204810 1_655
Dy4 O16 2.522241 1_655
Dy4 O7 2.533509 1_565
Dy5 O7 1.679957 1_555
Dy5 O15 1.945246 1_555
Dy5 O14 2.897872 1_655
Dy5 O6 2.922372 1_655
Dy6 O1 1.497924 1_555
Dy6 O18 1.824044 1_555
Dy6 O22 2.012437 1_555
Dy6 O21 2.268373 1_555
Dy6 O14 2.372544 1_555
Dy7 O13 2.334335 1_555
Dy7 O10 2.376444 1_556
Dy7 O16 2.649427 1_545
Dy7 O6 2.828618 1_556
Dy8 O13 2.140521 1_554
Dy8 O15 2.160547 1_555
Dy8 O10 2.487683 1_555
Dy8 O9 2.611879 1_555
Dy9 O20 1.740294 1_555
Dy9 O19 2.111101 1_545
Dy9 O16 2.147606 1_645
Dy9 O6 2.232892 1_656
Dy9 O21 2.446192 1_545
Dy9 O0 2.488657 1_555
Dy9 O23 2.615569 1_555
Dy10 O13 1.420185 1_555
Dy10 O21 2.133884 1_545
Dy10 O22 2.357131 1_545
Dy10 O12 3.035595 1_555
O0 Y3 2.015264 1_555
O1 Y1 2.614049 1_555
O2 Y1 1.736485 1_555
O2 Y0 2.937343 1_564
O3 Y0 2.172297 1_554
O3 Y3 2.265213 1_555
O3 Y1 2.441602 1_545
O4 O9 1.422005 1_555
O4 Y3 1.831562 1_555
O5 Y1 2.100960 1_545
O7 Y1 2.148596 1_645
O7 Y4 2.649771 1_545
O8 Y2 2.165946 1_555
O8 Y0 2.633146 1_565
O9 Y3 2.363788 1_555
O11 Y2 2.135922 1_554
O11 Y4 2.332724 1_555
O11 Y0 2.787035 1_564
O12 Y4 2.374502 1_556
O12 Y2 2.491879 1_555
O13 Y0 2.793008 1_555
O14 O18 1.445427 1_555
O14 Y2 2.595226 1_555
O15 Y0 2.624341 1_554
O17 O2 1.827586 1_656
O17 Y1 2.232693 1_656
O17 Y4 2.824123 1_556
O20 O6 1.828191 1_656
O20 Y0 2.929957 1_555
O21 Y0 2.161039 1_565
O22 Y1 2.483391 1_555
O23 Y3 1.495921 1_555
