# generated using pymatgen
data_LiCu5(PO4)2
_symmetry_space_group_name_H-M   'P 1'
_cell_length_a   6.20527300
_cell_length_b   5.66216600
_cell_length_c   10.34157461
_cell_angle_alpha   89.24593875
_cell_angle_beta   90.00000000
_cell_angle_gamma   90.00000000
_symmetry_Int_Tables_number   1
_chemical_formula_structural   LiCu5(PO4)2
_chemical_formula_sum   'Li2 Cu10 P4 O16'
_cell_volume   363.32271204
_cell_formula_units_Z   2
loop_
 _symmetry_equiv_pos_site_id
 _symmetry_equiv_pos_as_xyz
  1  'x, y, z'
loop_
 _atom_site_type_symbol
 _atom_site_label
 _atom_site_symmetry_multiplicity
 _atom_site_fract_x
 _atom_site_fract_y
 _atom_site_fract_z
 _atom_site_occupancy
  Li  Li0  1  0.00000000  0.14148600  0.24636200  1
  Li  Li1  1  0.50000000  0.85413000  0.49562100  1
  Cu  Cu0  1  0.00000000  0.25008200  0.73350700  1
  Cu  Cu1  1  0.79995500  0.35022900  0.48900800  1
  Cu  Cu2  1  0.71400000  0.35810300  0.00006200  1
  Cu  Cu3  1  0.71502700  0.63704200  0.23650500  1
  Cu  Cu4  1  0.74335900  0.65027100  0.75152600  1
  Cu  Cu5  1  0.50000000  0.74083000  0.98906500  1
  Cu  Cu6  1  0.25664100  0.65027100  0.75152600  1
  Cu  Cu7  1  0.28497300  0.63704200  0.23650500  1
  Cu  Cu8  1  0.20004500  0.35022900  0.48900800  1
  Cu  Cu9  1  0.28600000  0.35810300  0.00006200  1
  P  P0  1  0.00000000  0.85663500  0.00579300  1
  P  P1  1  0.00000000  0.82446900  0.49973500  1
  P  P2  1  0.50000000  0.16499700  0.25927600  1
  P  P3  1  0.50000000  0.15932700  0.74795300  1
  O  O0  1  0.00000000  0.84024100  0.64950800  1
  O  O1  1  0.00000000  0.07693000  0.43478200  1
  O  O2  1  0.00000000  0.83539000  0.15629700  1
  O  O3  1  0.00000000  0.11540300  0.95759500  1
  O  O4  1  0.78885500  0.69886500  0.45154100  1
  O  O5  1  0.80302600  0.71509000  0.95014300  1
  O  O6  1  0.71075600  0.28828200  0.20605700  1
  O  O7  1  0.69913500  0.30502200  0.69783400  1
  O  O8  1  0.50000000  0.14338300  0.89807900  1
  O  O9  1  0.50000000  0.91136400  0.68614600  1
  O  O10  1  0.50000000  0.17112400  0.40951500  1
  O  O11  1  0.50000000  0.90839800  0.20800500  1
  O  O12  1  0.30086500  0.30502200  0.69783400  1
  O  O13  1  0.28924400  0.28828200  0.20605700  1
  O  O14  1  0.21114500  0.69886500  0.45154100  1
  O  O15  1  0.19697400  0.71509000  0.95014300  1
loop_
_geom_bond_atom_site_label_1
_geom_bond_atom_site_label_2
_geom_bond_distance
_geom_bond_site_symmetry_2
Li0 O1 1.977814 1_555
Li0 O2 1.978355 1_545
Li0 O6 2.019140 1_455
Li0 O13 2.019140 1_555
Li1 O10 1.993098 1_565
Li1 O9 2.001005 1_555
Li1 O14 2.050370 1_555
Li1 O4 2.050370 1_555
Cu0 O12 1.927524 1_555
Cu0 O7 1.927524 1_455
Cu0 O3 2.430114 1_555
Cu0 O0 2.488533 1_545
Cu1 O4 2.007874 1_555
Cu1 O1 2.067093 1_655
Cu1 O7 2.259689 1_555
Cu1 O10 2.278301 1_555
Cu2 O8 2.094656 1_554
Cu2 O5 2.151732 1_554
Cu2 O6 2.161657 1_555
Cu2 O3 2.290589 1_654
Cu3 O6 2.003947 1_555
Cu3 O11 2.053297 1_555
Cu3 O2 2.247627 1_655
Cu3 O4 2.301790 1_555
Cu4 O7 2.057585 1_555
Cu4 O5 2.123816 1_555
Cu4 O0 2.185489 1_655
Cu4 O9 2.212871 1_555
Cu5 O5 1.928874 1_555
Cu5 O15 1.928874 1_555
Cu5 O8 2.454429 1_565
Cu5 O11 2.466433 1_556
Cu6 O12 2.057585 1_555
Cu6 O15 2.123816 1_555
Cu6 O0 2.185489 1_555
Cu6 O9 2.212871 1_555
Cu7 O13 2.003947 1_555
Cu7 O11 2.053297 1_555
Cu7 O2 2.247627 1_555
Cu7 O14 2.301790 1_555
Cu8 O14 2.007874 1_555
Cu8 O1 2.067093 1_555
Cu8 O12 2.259689 1_555
Cu8 O10 2.278301 1_555
Cu9 O8 2.094656 1_554
Cu9 O15 2.151732 1_554
Cu9 O13 2.161657 1_555
Cu9 O3 2.290589 1_554
O0 P1 1.552634 1_555
O1 P1 1.571411 1_545
O2 P0 1.559511 1_555
O3 P0 1.541427 1_546
O4 P1 1.574860 1_655
O5 P0 1.574686 1_656
O6 P2 1.578106 1_555
O7 P3 1.569985 1_555
O8 P3 1.553975 1_555
O9 P3 1.550294 1_565
O10 P2 1.554551 1_555
O11 P2 1.553174 1_565
O12 P3 1.569985 1_555
O13 P2 1.578106 1_555
O14 P1 1.574860 1_555
O15 P0 1.574686 1_556
