# generated using pymatgen
data_Li7V3P8O29
_symmetry_space_group_name_H-M   'P 1'
_cell_length_a   9.85947600
_cell_length_b   9.86703054
_cell_length_c   13.88665355
_cell_angle_alpha   90.29085704
_cell_angle_beta   90.01623565
_cell_angle_gamma   119.80118276
_symmetry_Int_Tables_number   1
_chemical_formula_structural   Li7V3P8O29
_chemical_formula_sum   'Li14 V6 P16 O58'
_cell_volume   1172.26895013
_cell_formula_units_Z   2
loop_
 _symmetry_equiv_pos_site_id
 _symmetry_equiv_pos_as_xyz
  1  'x, y, z'
loop_
 _atom_site_type_symbol
 _atom_site_label
 _atom_site_symmetry_multiplicity
 _atom_site_fract_x
 _atom_site_fract_y
 _atom_site_fract_z
 _atom_site_occupancy
  Li  Li0  1  0.77313600  0.68693600  0.93714800  1
  Li  Li1  1  0.90732700  0.67243600  0.43796400  1
  Li  Li2  1  0.32744100  0.23499600  0.43766500  1
  Li  Li3  1  0.66161700  0.32445200  0.61902600  1
  Li  Li4  1  0.66552200  0.33430100  0.11616100  1
  Li  Li5  1  0.31735900  0.08910200  0.93335400  1
  Li  Li6  1  0.91250700  0.22504600  0.93711600  1
  Li  Li7  1  0.76617800  0.09177200  0.43889900  1
  Li  Li8  1  0.09749500  0.77297500  0.05839500  1
  Li  Li9  1  0.68437700  0.90789000  0.05879200  1
  Li  Li10  1  0.66697300  0.76537000  0.56054600  1
  Li  Li11  1  0.10344400  0.33740800  0.56000400  1
  Li  Li12  1  0.22624800  0.32036800  0.06187100  1
  Li  Li13  1  0.03138700  0.97961300  0.50778200  1
  V  V0  1  0.43096200  0.99707400  0.74731000  1
  V  V1  1  0.56142200  0.99902000  0.25261900  1
  V  V2  1  0.00164300  0.56750400  0.25192600  1
  V  V3  1  0.00215100  0.43585700  0.74866300  1
  V  V4  1  0.56194900  0.56640600  0.75070100  1
  V  V5  1  0.43399000  0.43280300  0.25178900  1
  P  P0  1  0.76921100  0.67688800  0.15789800  1
  P  P1  1  0.90797500  0.68412700  0.65551000  1
  P  P2  1  0.31564600  0.22584100  0.65781200  1
  P  P3  1  0.66666400  0.33509000  0.87252600  1
  P  P4  1  0.66789800  0.33263800  0.37573600  1
  P  P5  1  0.31935800  0.08822500  0.15399100  1
  P  P6  1  0.22401600  0.91818200  0.34138500  1
  P  P7  1  0.90731800  0.22989500  0.15745400  1
  P  P8  1  0.08547900  0.76874100  0.84134300  1
  P  P9  1  0.77476200  0.09064900  0.65715800  1
  P  P10  1  0.68009600  0.91374700  0.84277300  1
  P  P11  1  0.33106700  0.66249900  0.62717600  1
  P  P12  1  0.33242500  0.66782700  0.12806700  1
  P  P13  1  0.68480800  0.77157200  0.34334600  1
  P  P14  1  0.08439900  0.31438000  0.34314800  1
  P  P15  1  0.23129200  0.32059500  0.84322600  1
  O  O0  1  0.77849500  0.77671200  0.43183300  1
  O  O1  1  0.74217800  0.66325800  0.65757600  1
  O  O2  1  0.99314800  0.75169000  0.93165100  1
  O  O3  1  0.92170400  0.66629200  0.15824000  1
  O  O4  1  0.63136200  0.51076500  0.17301200  1
  O  O5  1  0.66881900  0.48646100  0.83169300  1
  O  O6  1  0.47892300  0.37580200  0.66930600  1
  O  O7  1  0.24066900  0.24023600  0.93280500  1
  O  O8  1  0.32831500  0.24756300  0.15508100  1
  O  O9  1  0.81329400  0.48704200  0.33700100  1
  O  O10  1  0.89431600  0.52103300  0.66796600  1
  O  O11  1  0.51362400  0.32204900  0.34051000  1
  O  O12  1  0.67623900  0.34308400  0.98104100  1
  O  O13  1  0.67515900  0.32957300  0.48392700  1
  O  O14  1  0.51562200  0.18958800  0.83643900  1
  O  O15  1  0.88378000  0.37303800  0.17564400  1
  O  O16  1  0.81498600  0.33258700  0.83069700  1
  O  O17  1  0.33655500  0.08432000  0.65820300  1
  O  O18  1  0.20614800  0.98952300  0.24063300  1
  O  O19  1  0.20688600  0.01056200  0.42196700  1
  O  O20  1  0.25096200  0.99701900  0.06260600  1
  O  O21  1  0.48693000  0.11469700  0.17511400  1
  O  O22  1  0.67690000  0.18750900  0.33269700  1
  O  O23  1  0.24491100  0.91514000  0.84196300  1
  O  O24  1  0.63214800  0.11237200  0.66570400  1
  O  O25  1  0.92395200  0.25458800  0.65716600  1
  O  O26  1  0.99396500  0.78625300  0.74959800  1
  O  O27  1  0.99051600  0.77064400  0.56582000  1
  O  O28  1  0.99439500  0.23156100  0.43248500  1
  O  O29  1  0.08346200  0.74855200  0.34142500  1
  O  O30  1  0.38226500  0.92246600  0.33709900  1
  O  O31  1  0.74502500  0.08137000  0.15573000  1
  O  O32  1  0.32893700  0.80437900  0.66821000  1
  O  O33  1  0.52291500  0.90245600  0.82765500  1
  O  O34  1  0.76407500  0.00400500  0.93266000  1
  O  O35  1  0.77274300  0.99799400  0.56886500  1
  O  O36  1  0.79178400  0.00438900  0.75065400  1
  O  O37  1  0.66809400  0.91963000  0.34133200  1
  O  O38  1  0.18247100  0.66887900  0.16907100  1
  O  O39  1  0.09548000  0.61918600  0.82288100  1
  O  O40  1  0.48001300  0.81914800  0.17644200  1
  O  O41  1  0.34225100  0.68497100  0.02151500  1
  O  O42  1  0.33552200  0.64639900  0.52040000  1
  O  O43  1  0.48451900  0.66440500  0.67062700  1
  O  O44  1  0.08891200  0.47245000  0.32756700  1
  O  O45  1  0.18452700  0.50813500  0.66850200  1
  O  O46  1  0.66787600  0.75132200  0.84152200  1
  O  O47  1  0.78975000  0.78771800  0.24895200  1
  O  O48  1  0.75416300  0.75449000  0.06866800  1
  O  O49  1  0.52888100  0.62331600  0.33295100  1
  O  O50  1  0.33115800  0.51962600  0.16517200  1
  O  O51  1  0.37877200  0.47967600  0.82844600  1
  O  O52  1  0.08237700  0.33495000  0.84184000  1
  O  O53  1  0.00143800  0.24826400  0.06836500  1
  O  O54  1  0.99572300  0.21013900  0.24906700  1
  O  O55  1  0.24678500  0.33218400  0.34309400  1
  O  O56  1  0.22744800  0.22943000  0.56864500  1
  O  O57  1  0.21090800  0.21242300  0.75041100  1
loop_
_geom_bond_atom_site_label_1
_geom_bond_atom_site_label_2
_geom_bond_distance
_geom_bond_site_symmetry_2
Li0 O2 1.934544 1_555
Li0 O46 1.976657 1_555
Li0 O48 1.981591 1_556
Li0 O5 2.250042 1_555
Li1 O27 1.988919 1_555
Li1 O0 1.994794 1_555
Li1 O29 2.022916 1_655
Li1 O9 2.111638 1_555
Li2 O19 1.934664 1_555
Li2 O55 2.011683 1_555
Li2 O56 2.057058 1_555
Li2 O11 2.091316 1_555
Li3 O13 1.880008 1_555
Li3 O24 2.071978 1_555
Li3 O6 2.212029 1_555
Li3 O10 2.247288 1_555
Li4 O12 1.879383 1_554
Li4 O4 2.082663 1_555
Li4 O15 2.153451 1_555
Li4 O21 2.166162 1_555
Li5 O23 1.955983 1_545
Li5 O20 1.975265 1_546
Li5 O7 1.979010 1_555
Li5 O14 2.168867 1_555
Li6 O34 1.930890 1_555
Li6 O53 1.984536 1_656
Li6 O52 1.985461 1_655
Li6 O16 2.294252 1_555
Li7 O28 1.972263 1_555
Li7 O37 1.999775 1_545
Li7 O35 2.047947 1_545
Li7 O22 2.163810 1_555
Li8 O20 1.963082 1_555
Li8 O2 1.995189 1_454
Li8 O3 2.058444 1_455
Li8 O38 2.233762 1_555
Li9 O48 1.954596 1_555
Li9 O34 1.965122 1_564
Li9 O31 2.014560 1_565
Li9 O40 2.399689 1_555
Li10 O35 1.996823 1_555
Li10 O1 2.033785 1_555
Li10 O0 2.072954 1_555
Li10 O43 2.191117 1_555
Li11 O56 1.985016 1_555
Li11 O25 2.048215 1_455
Li11 O28 2.060709 1_455
Li11 O45 2.093295 1_555
Li12 O53 1.964821 1_555
Li12 O8 1.982782 1_555
Li12 O7 1.988765 1_554
Li12 O50 2.223132 1_555
Li13 O19 1.996758 1_565
Li13 O27 2.062660 1_455
Li13 O56 2.401818 1_565
Li13 O0 2.520457 1_455
O0 P13 1.522459 1_555
O1 P1 1.543011 1_555
O1 V4 2.017208 1_555
O2 P8 1.510058 1_655
O3 P0 1.558113 1_555
O3 V2 2.009926 1_655
O4 P0 1.538606 1_555
O4 V5 2.024137 1_555
O5 P3 1.590543 1_555
O5 V4 1.957537 1_555
O6 P2 1.560838 1_555
O6 V4 1.983010 1_555
O7 P15 1.505814 1_555
O8 P5 1.530219 1_555
O8 V5 2.076343 1_555
O9 P4 1.582189 1_555
O9 V2 2.004962 1_655
O10 P1 1.557298 1_555
O10 V3 1.997384 1_655
O11 P4 1.550781 1_555
O11 V5 2.048072 1_555
O12 P3 1.509047 1_555
O13 P4 1.505268 1_555
O14 P3 1.548265 1_555
O14 V0 2.058258 1_545
O15 P7 1.560367 1_555
O15 V2 1.979047 1_655
O16 P3 1.585180 1_555
O16 V3 1.971109 1_655
O17 P2 1.509520 1_555
O17 V0 1.986268 1_545
O18 P5 1.604404 1_565
O18 P6 1.617767 1_555
O19 P6 1.501450 1_545
O20 P5 1.503253 1_565
O21 P5 1.566504 1_555
O21 V1 1.961085 1_545
O22 P4 1.591653 1_555
O22 V1 1.966049 1_545
O23 P8 1.516740 1_555
O23 V0 2.069844 1_555
O24 P9 1.528578 1_555
O24 V0 2.069879 1_545
O25 P9 1.554089 1_555
O25 V3 2.003383 1_655
O26 P1 1.605661 1_555
O26 P8 1.619776 1_655
O27 P1 1.504365 1_555
O28 P14 1.511435 1_655
O29 P6 1.554458 1_555
O29 V2 1.982709 1_555
O30 P6 1.540856 1_555
O30 V1 1.936729 1_555
O31 P7 1.541885 1_555
O31 V1 2.073130 1_545
O32 P11 1.518581 1_555
O32 V0 1.977516 1_555
O33 P10 1.511982 1_555
O33 V0 1.946716 1_555
O34 P10 1.513918 1_545
O35 P9 1.519880 1_565
O36 P9 1.609774 1_555
O36 P10 1.637801 1_545
O37 P13 1.549791 1_555
O37 V1 2.016279 1_555
O38 P12 1.589299 1_555
O38 V2 1.934740 1_555
O39 P8 1.547204 1_555
O39 V3 1.872735 1_555
O40 P12 1.621018 1_555
O40 V1 1.864856 1_555
O41 P12 1.487851 1_555
O42 P11 1.493428 1_555
O43 P11 1.620047 1_555
O43 V4 1.870418 1_555
O44 P14 1.554301 1_555
O44 V2 1.880150 1_555
O45 P11 1.599581 1_555
O45 V3 1.927581 1_555
O46 P10 1.546318 1_555
O46 V4 2.022925 1_555
O47 P0 1.612880 1_555
O47 P13 1.628869 1_555
O48 P0 1.505372 1_555
O49 P13 1.512141 1_555
O49 V5 1.977120 1_555
O50 P12 1.547088 1_555
O50 V5 2.020329 1_555
O51 P15 1.534619 1_555
O51 V4 1.906278 1_555
O52 P15 1.543644 1_555
O52 V3 2.021512 1_555
O53 P7 1.503419 1_455
O54 P7 1.608414 1_555
O54 P14 1.618962 1_655
O55 P14 1.521390 1_555
O55 V5 2.047614 1_555
O56 P2 1.523514 1_555
O57 P2 1.613696 1_555
O57 P15 1.616633 1_555
