# generated using pymatgen
data_Na4CuP6(H4O11)2
_symmetry_space_group_name_H-M   'P 1'
_cell_length_a   7.18476000
_cell_length_b   8.01293548
_cell_length_c   8.42929331
_cell_angle_alpha   84.20026375
_cell_angle_beta   77.83657485
_cell_angle_gamma   81.96922486
_symmetry_Int_Tables_number   1
_chemical_formula_structural   Na4CuP6(H4O11)2
_chemical_formula_sum   'Na4 Cu1 P6 H8 O22'
_cell_volume   468.44902117
_cell_formula_units_Z   1
loop_
 _symmetry_equiv_pos_site_id
 _symmetry_equiv_pos_as_xyz
  1  'x, y, z'
loop_
 _atom_site_type_symbol
 _atom_site_label
 _atom_site_symmetry_multiplicity
 _atom_site_fract_x
 _atom_site_fract_y
 _atom_site_fract_z
 _atom_site_occupancy
  Na  Na0  1  0.64321000  0.57867800  0.79631800  1
  Na  Na1  1  0.35679000  0.42132200  0.20368200  1
  Na  Na2  1  0.89840100  0.68922000  0.40628000  1
  Na  Na3  1  0.10159900  0.31078000  0.59372000  1
  Cu  Cu0  1  0.00000000  0.00000000  0.00000000  1
  P  P0  1  0.55824500  0.79159900  0.16497900  1
  P  P1  1  0.44175500  0.20840100  0.83502100  1
  P  P2  1  0.78386600  0.98469100  0.70442200  1
  P  P3  1  0.21613400  0.01530900  0.29557800  1
  P  P4  1  0.66274600  0.28947900  0.50935100  1
  P  P5  1  0.33725400  0.71052100  0.49064900  1
  H  H0  1  0.76850000  0.21180800  0.18426500  1
  H  H1  1  0.23150000  0.78819200  0.81573500  1
  H  H2  1  0.74215400  0.24726900  0.00120100  1
  H  H3  1  0.25784600  0.75273100  0.99879900  1
  H  H4  1  0.03068200  0.58872300  0.81487900  1
  H  H5  1  0.96931800  0.41127700  0.18512100  1
  H  H6  1  0.96070100  0.60040300  0.11168300  1
  H  H7  1  0.03929900  0.39959700  0.88831700  1
  O  O0  1  0.53244000  0.31795400  0.92554600  1
  O  O1  1  0.46756000  0.68204600  0.07445400  1
  O  O2  1  0.76424500  0.81569100  0.10693700  1
  O  O3  1  0.23575500  0.18430900  0.89306300  1
  O  O4  1  0.56974700  0.02451000  0.81464700  1
  O  O5  1  0.43025300  0.97549000  0.18535300  1
  O  O6  1  0.53785000  0.71892500  0.35635400  1
  O  O7  1  0.46215000  0.28107500  0.64364600  1
  O  O8  1  0.92796600  0.05772900  0.77805200  1
  O  O9  1  0.07203400  0.94227100  0.22194800  1
  O  O10  1  0.81558000  0.80336400  0.66916900  1
  O  O11  1  0.18442000  0.19663600  0.33083100  1
  O  O12  1  0.76657400  0.09680100  0.53627600  1
  O  O13  1  0.23342600  0.90319900  0.46372400  1
  O  O14  1  0.77784900  0.41335400  0.55381000  1
  O  O15  1  0.22215100  0.58664600  0.44619000  1
  O  O16  1  0.61468900  0.30444800  0.34362300  1
  O  O17  1  0.38531100  0.69555200  0.65637700  1
  O  O18  1  0.84122300  0.21040300  0.06904000  1
  O  O19  1  0.15877700  0.78959700  0.93096000  1
  O  O20  1  0.97292300  0.48370700  0.81984100  1
  O  O21  1  0.02707700  0.51629300  0.18015900  1
loop_
_geom_bond_atom_site_label_1
_geom_bond_atom_site_label_2
_geom_bond_distance
_geom_bond_site_symmetry_2
Na0 O10 2.365909 1_555
Na0 O0 2.413272 1_555
Na0 O20 2.427736 1_555
Na0 O17 2.432047 1_555
Na0 O14 2.495046 1_555
Na0 O1 2.574667 1_556
Na1 O11 2.365909 1_555
Na1 O1 2.413272 1_555
Na1 O21 2.427736 1_555
Na1 O16 2.432047 1_555
Na1 O15 2.495046 1_555
Na1 O0 2.574667 1_554
Na2 O10 2.408949 1_555
Na2 O21 2.416817 1_655
Na2 O15 2.437005 1_655
Na2 O14 2.590070 1_555
Na2 O6 2.685365 1_555
Na2 O9 2.708365 1_655
Na3 O11 2.408949 1_555
Na3 O20 2.416817 1_455
Na3 O14 2.437005 1_455
Na3 O15 2.590070 1_555
Na3 O7 2.685365 1_555
Na3 O8 2.708365 1_455
Cu0 O18 1.965605 1_455
Cu0 O19 1.965605 1_544
Cu0 O9 2.036713 1_545
Cu0 O8 2.036713 1_454
Cu0 O3 2.376813 1_554
Cu0 O2 2.376813 1_445
H0 O18 1.001598 1_555
H0 O16 1.709803 1_555
H1 O19 1.001598 1_555
H1 O17 1.709803 1_555
H2 O18 0.999765 1_555
H2 O0 1.758190 1_554
H3 O19 0.999765 1_555
H3 O1 1.758190 1_556
H4 O20 0.982448 1_455
H5 O21 0.982448 1_655
H6 O21 0.981018 1_655
H7 O20 0.981018 1_455
O0 P1 1.510657 1_555
O1 P0 1.510657 1_555
O2 P0 1.490910 1_555
O3 P1 1.490910 1_555
O4 P2 1.628544 1_545
O4 P1 1.628604 1_555
O5 P3 1.628544 1_565
O5 P0 1.628604 1_555
O6 P5 1.639310 1_555
O6 P0 1.642325 1_555
O7 P4 1.639310 1_555
O7 P1 1.642325 1_555
O8 P2 1.520891 1_545
O9 P3 1.520891 1_565
O10 P2 1.489141 1_555
O11 P3 1.489141 1_555
O12 P2 1.617718 1_545
O12 P4 1.634135 1_555
O13 P3 1.617718 1_565
O13 P5 1.634135 1_555
O14 P4 1.498249 1_555
O15 P5 1.498249 1_555
O16 P4 1.497649 1_555
O17 P5 1.497649 1_555
