# generated using pymatgen
data_NbV5(PO4)6
_symmetry_space_group_name_H-M   'P 1'
_cell_length_a   8.65528652
_cell_length_b   8.65528652
_cell_length_c   8.65528641
_cell_angle_alpha   60.52865817
_cell_angle_beta   60.52865817
_cell_angle_gamma   60.52866076
_symmetry_Int_Tables_number   1
_chemical_formula_structural   NbV5(PO4)6
_chemical_formula_sum   'Nb1 V5 P6 O24'
_cell_volume   463.96628525
_cell_formula_units_Z   1
loop_
 _symmetry_equiv_pos_site_id
 _symmetry_equiv_pos_as_xyz
  1  'x, y, z'
loop_
 _atom_site_type_symbol
 _atom_site_label
 _atom_site_symmetry_multiplicity
 _atom_site_fract_x
 _atom_site_fract_y
 _atom_site_fract_z
 _atom_site_occupancy
  Nb  Nb0  1  0.14352200  0.14352200  0.14352200  1
  V  V0  1  0.99848000  0.99848000  0.99848000  1
  V  V1  1  0.64333600  0.64333600  0.64333600  1
  V  V2  1  0.49879000  0.49879000  0.49879000  1
  V  V3  1  0.85624700  0.85624700  0.85624700  1
  V  V4  1  0.35718000  0.35718000  0.35718000  1
  P  P0  1  0.95389600  0.25201900  0.55014600  1
  P  P1  1  0.55014600  0.95389600  0.25201900  1
  P  P2  1  0.25201900  0.55014600  0.95389600  1
  P  P3  1  0.74506200  0.46104600  0.04332200  1
  P  P4  1  0.46104600  0.04332200  0.74506200  1
  P  P5  1  0.04332200  0.74506200  0.46104600  1
  O  O0  1  0.50542700  0.11049200  0.31462900  1
  O  O1  1  0.31462900  0.50542700  0.11049200  1
  O  O2  1  0.11049200  0.31462900  0.50542700  1
  O  O3  1  0.93845000  0.09035700  0.74076700  1
  O  O4  1  0.00557800  0.18290000  0.38592400  1
  O  O5  1  0.76014200  0.40768600  0.55585600  1
  O  O6  1  0.74076700  0.93845000  0.09035700  1
  O  O7  1  0.55585600  0.76014200  0.40768600  1
  O  O8  1  0.81562200  0.61053700  0.00335700  1
  O  O9  1  0.40768600  0.55585600  0.76014200  1
  O  O10  1  0.90884100  0.26074800  0.06295000  1
  O  O11  1  0.61053700  0.00335700  0.81562200  1
  O  O12  1  0.38592400  0.00557800  0.18290000  1
  O  O13  1  0.09035700  0.74076700  0.93845000  1
  O  O14  1  0.58995400  0.43978000  0.24000300  1
  O  O15  1  0.18290000  0.38592400  0.00557800  1
  O  O16  1  0.43978000  0.24000300  0.58995400  1
  O  O17  1  0.26074800  0.06295000  0.90884100  1
  O  O18  1  0.24000300  0.58995400  0.43978000  1
  O  O19  1  0.00335700  0.81562200  0.61053700  1
  O  O20  1  0.06295000  0.90884100  0.26074800  1
  O  O21  1  0.88892600  0.68548800  0.49255200  1
  O  O22  1  0.68548800  0.49255200  0.88892600  1
  O  O23  1  0.49255200  0.88892600  0.68548800  1
loop_
_geom_bond_atom_site_label_1
_geom_bond_atom_site_label_2
_geom_bond_distance
_geom_bond_site_symmetry_2
Nb0 O4 1.944711 1_555
Nb0 O15 1.944711 1_555
Nb0 O12 1.944711 1_555
Nb0 O20 2.076385 1_545
Nb0 O17 2.076385 1_554
Nb0 O10 2.076385 1_455
O0 P1 1.510190 1_545
O0 V4 1.988450 1_555
O1 P2 1.510190 1_554
O1 V4 1.988449 1_555
O2 P0 1.510190 1_455
O2 V4 1.988449 1_555
O3 P0 1.547023 1_555
O3 V3 2.082565 1_545
O3 V0 2.205962 1_545
O4 P0 1.589371 1_455
O5 P0 1.546214 1_555
O5 V1 2.119625 1_555
O5 V2 2.223454 1_555
O6 P1 1.547023 1_555
O6 V3 2.082565 1_554
O6 V0 2.205962 1_554
O7 P1 1.546214 1_555
O7 V1 2.119625 1_555
O7 V2 2.223454 1_555
O8 P3 1.515271 1_555
O8 V3 1.974456 1_554
O9 P2 1.546214 1_555
O9 V1 2.119625 1_555
O9 V2 2.223454 1_555
O10 P3 1.604006 1_555
O10 V0 2.270167 1_544
O11 P4 1.515271 1_555
O11 V3 1.974456 1_545
O12 P1 1.589371 1_545
O13 P2 1.547023 1_555
O13 V3 2.082566 1_455
O13 V0 2.205962 1_455
O14 P3 1.555696 1_555
O14 V4 2.071736 1_555
O14 V2 2.211467 1_555
O15 P2 1.589371 1_554
O16 P4 1.555696 1_555
O16 V4 2.071736 1_555
O16 V2 2.211467 1_555
O17 P4 1.604006 1_555
O17 V0 2.270167 1_445
O18 P5 1.555696 1_555
O18 V4 2.071736 1_555
O18 V2 2.211467 1_555
O19 P5 1.515271 1_555
O19 V3 1.974456 1_455
O20 P5 1.604006 1_555
O20 V0 2.270167 1_454
O21 P5 1.518925 1_655
O21 V1 1.979803 1_555
O22 P3 1.518925 1_556
O22 V1 1.979803 1_555
O23 P4 1.518925 1_565
O23 V1 1.979803 1_555
