# generated using pymatgen
data_YUO4
_symmetry_space_group_name_H-M   'P 1'
_cell_length_a   6.52448208
_cell_length_b   6.52448208
_cell_length_c   6.52447623
_cell_angle_alpha   131.74979646
_cell_angle_beta   131.74979646
_cell_angle_gamma   70.62452576
_symmetry_Int_Tables_number   1
_chemical_formula_structural   YUO4
_chemical_formula_sum   'Y2 U2 O8'
_cell_volume   151.44991721
_cell_formula_units_Z   2
loop_
 _symmetry_equiv_pos_site_id
 _symmetry_equiv_pos_as_xyz
  1  'x, y, z'
loop_
 _atom_site_type_symbol
 _atom_site_label
 _atom_site_symmetry_multiplicity
 _atom_site_fract_x
 _atom_site_fract_y
 _atom_site_fract_z
 _atom_site_occupancy
  Y  Y0  1  0.75000000  0.25000000  0.50000000  1
  Y  Y1  1  0.00000000  -0.00000000  -0.00000000  1
  U  U0  1  0.25000200  0.74999800  0.50000000  1
  U  U1  1  0.49999800  0.50000200  -0.00000000  1
  O  O0  1  0.61353347  0.62499900  0.48853347  1
  O  O1  1  0.13646753  0.12500000  0.51146753  1
  O  O2  1  0.61353247  0.12500000  0.98853247  1
  O  O3  1  0.13646653  0.62500100  0.01146653  1
  O  O4  1  0.37499900  0.86353347  0.98853347  1
  O  O5  1  0.87500000  0.38646753  0.01146753  1
  O  O6  1  0.37500100  0.38646653  0.51146653  1
  O  O7  1  0.87500000  0.86353247  0.48853247  1
loop_
_geom_bond_atom_site_label_1
_geom_bond_atom_site_label_2
_geom_bond_distance
_geom_bond_site_symmetry_2
O0 U0 2.273322 1_555
O0 U1 2.273333 1_555
O0 Y0 2.343971 1_555
O0 Y1 2.343978 1_666
O1 U1 2.273329 1_556
O1 U0 2.273343 1_545
O1 Y1 2.343977 1_555
O1 Y0 2.343980 1_455
O2 U0 2.273329 1_545
O2 U1 2.273343 1_556
O2 Y0 2.343977 1_556
O2 Y1 2.343980 1_656
O3 U1 2.273322 1_555
O3 U0 2.273333 1_555
O3 Y1 2.343971 1_565
O3 Y0 2.343978 1_454
O4 U1 2.273322 1_556
O4 U0 2.273333 1_555
O4 Y1 2.343971 1_566
O4 Y0 2.343978 1_566
O5 U0 2.273329 1_655
O5 U1 2.273343 1_555
O5 Y0 2.343977 1_554
O5 Y1 2.343980 1_655
O6 U0 2.273322 1_555
O6 U1 2.273333 1_556
O6 Y0 2.343971 1_555
O6 Y1 2.343978 1_555
O7 U1 2.273329 1_555
O7 U0 2.273343 1_655
O7 Y1 2.343977 1_666
O7 Y0 2.343980 1_565
