# generated using pymatgen
data_Li3Fe2F9
_symmetry_space_group_name_H-M   'P 1'
_cell_length_a   7.81677600
_cell_length_b   9.52244800
_cell_length_c   10.68220800
_cell_angle_alpha   90.00000000
_cell_angle_beta   90.00000000
_cell_angle_gamma   90.00000000
_symmetry_Int_Tables_number   1
_chemical_formula_structural   Li3Fe2F9
_chemical_formula_sum   'Li12 Fe8 F36'
_cell_volume   795.12847524
_cell_formula_units_Z   4
loop_
 _symmetry_equiv_pos_site_id
 _symmetry_equiv_pos_as_xyz
  1  'x, y, z'
loop_
 _atom_site_type_symbol
 _atom_site_label
 _atom_site_symmetry_multiplicity
 _atom_site_fract_x
 _atom_site_fract_y
 _atom_site_fract_z
 _atom_site_occupancy
  Li  Li0  1  0.75000000  0.01604300  0.84159400  1
  Li  Li1  1  0.75000000  0.03286300  0.53067600  1
  Li  Li2  1  0.25000000  0.11334000  0.84863900  1
  Li  Li3  1  0.75000000  0.38666000  0.34863900  1
  Li  Li4  1  0.25000000  0.46713700  0.03067600  1
  Li  Li5  1  0.25000000  0.48395700  0.34159400  1
  Li  Li6  1  0.75000000  0.51604300  0.65840600  1
  Li  Li7  1  0.75000000  0.53286300  0.96932400  1
  Li  Li8  1  0.25000000  0.61334000  0.65136100  1
  Li  Li9  1  0.75000000  0.88666000  0.15136100  1
  Li  Li10  1  0.25000000  0.96713700  0.46932400  1
  Li  Li11  1  0.25000000  0.98395700  0.15840600  1
  Fe  Fe0  1  0.93954300  0.22675700  0.06811000  1
  Fe  Fe1  1  0.56045700  0.22675700  0.06811000  1
  Fe  Fe2  1  0.06045700  0.27324300  0.56811000  1
  Fe  Fe3  1  0.43954300  0.27324300  0.56811000  1
  Fe  Fe4  1  0.56045700  0.72675700  0.43189000  1
  Fe  Fe5  1  0.93954300  0.72675700  0.43189000  1
  Fe  Fe6  1  0.06045700  0.77324300  0.93189000  1
  Fe  Fe7  1  0.43954300  0.77324300  0.93189000  1
  F  F0  1  0.75000000  0.07610100  0.02443200  1
  F  F1  1  0.05252900  0.09478400  0.16857700  1
  F  F2  1  0.44747100  0.09478400  0.16857700  1
  F  F3  1  0.56039300  0.10740600  0.60893800  1
  F  F4  1  0.93960700  0.10740600  0.60893800  1
  F  F5  1  0.25000000  0.16248700  0.47303800  1
  F  F6  1  0.05232200  0.19305600  0.91593900  1
  F  F7  1  0.44767800  0.19305600  0.91593900  1
  F  F8  1  0.25000000  0.23201600  0.69619700  1
  F  F9  1  0.75000000  0.26798400  0.19619700  1
  F  F10  1  0.94767800  0.30694400  0.41593900  1
  F  F11  1  0.55232200  0.30694400  0.41593900  1
  F  F12  1  0.75000000  0.33751300  0.97303800  1
  F  F13  1  0.06039300  0.39259400  0.10893800  1
  F  F14  1  0.43960700  0.39259400  0.10893800  1
  F  F15  1  0.55252900  0.40521600  0.66857700  1
  F  F16  1  0.94747100  0.40521600  0.66857700  1
  F  F17  1  0.25000000  0.42389900  0.52443200  1
  F  F18  1  0.75000000  0.57610100  0.47556800  1
  F  F19  1  0.05252900  0.59478400  0.33142300  1
  F  F20  1  0.44747100  0.59478400  0.33142300  1
  F  F21  1  0.56039300  0.60740600  0.89106200  1
  F  F22  1  0.93960700  0.60740600  0.89106200  1
  F  F23  1  0.25000000  0.66248700  0.02696200  1
  F  F24  1  0.05232200  0.69305600  0.58406100  1
  F  F25  1  0.44767800  0.69305600  0.58406100  1
  F  F26  1  0.25000000  0.73201600  0.80380300  1
  F  F27  1  0.75000000  0.76798400  0.30380300  1
  F  F28  1  0.55232200  0.80694400  0.08406100  1
  F  F29  1  0.94767800  0.80694400  0.08406100  1
  F  F30  1  0.75000000  0.83751300  0.52696200  1
  F  F31  1  0.06039300  0.89259400  0.39106200  1
  F  F32  1  0.43960700  0.89259400  0.39106200  1
  F  F33  1  0.55252900  0.90521600  0.83142300  1
  F  F34  1  0.94747100  0.90521600  0.83142300  1
  F  F35  1  0.25000000  0.92389900  0.97556800  1
loop_
_geom_bond_atom_site_label_1
_geom_bond_atom_site_label_2
_geom_bond_distance
_geom_bond_site_symmetry_2
F0 Li0 2.035122 1_554
F0 Fe1 2.114473 1_555
F0 Fe0 2.114473 1_555
F0 Li9 2.256684 1_545
F1 Li11 1.873023 1_545
F1 Fe0 1.873795 1_455
F2 Li11 1.873023 1_545
F2 Fe1 1.873795 1_555
F3 Li1 1.843758 1_555
F3 Fe3 1.891132 1_555
F4 Li1 1.843758 1_555
F4 Fe2 1.891132 1_655
F5 Li10 1.860633 1_545
F5 Fe3 2.083005 1_555
F5 Fe2 2.083005 1_555
F6 Li2 1.865667 1_555
F6 Fe0 1.876825 1_456
F7 Li2 1.865667 1_555
F7 Fe1 1.876825 1_556
F8 Li2 1.982129 1_555
F8 Fe2 2.054609 1_555
F8 Fe3 2.054609 1_555
F9 Li3 1.982129 1_555
F9 Fe1 2.054609 1_555
F9 Fe0 2.054609 1_555
F10 Li3 1.865667 1_555
F10 Fe2 1.876825 1_655
F11 Li3 1.865667 1_555
F11 Fe3 1.876825 1_555
F12 Li7 1.860633 1_555
F12 Fe1 2.083005 1_556
F12 Fe0 2.083005 1_556
F13 Li4 1.843758 1_555
F13 Fe0 1.891132 1_455
F14 Li4 1.843758 1_555
F14 Fe1 1.891132 1_555
F15 Li6 1.873023 1_555
F15 Fe3 1.873795 1_555
F16 Li6 1.873023 1_555
F16 Fe2 1.873795 1_655
F17 Li5 2.035122 1_555
F17 Fe2 2.114473 1_555
F17 Fe3 2.114473 1_555
F17 Li8 2.256684 1_555
F18 Li6 2.035122 1_555
F18 Fe4 2.114473 1_555
F18 Fe5 2.114473 1_555
F18 Li3 2.256684 1_555
F19 Li5 1.873023 1_555
F19 Fe5 1.873795 1_455
F20 Li5 1.873023 1_555
F20 Fe4 1.873795 1_555
F21 Li7 1.843758 1_555
F21 Fe7 1.891132 1_555
F22 Li7 1.843758 1_555
F22 Fe6 1.891132 1_655
F23 Li4 1.860633 1_555
F23 Fe6 2.083005 1_554
F23 Fe7 2.083005 1_554
F24 Li8 1.865667 1_555
F24 Fe5 1.876825 1_455
F25 Li8 1.865667 1_555
F25 Fe4 1.876825 1_555
F26 Li8 1.982129 1_555
F26 Fe7 2.054609 1_555
F26 Fe6 2.054609 1_555
F27 Li9 1.982129 1_555
F27 Fe4 2.054609 1_555
F27 Fe5 2.054609 1_555
F28 Li9 1.865667 1_555
F28 Fe7 1.876825 1_554
F29 Li9 1.865667 1_555
F29 Fe6 1.876825 1_654
F30 Li1 1.860633 1_565
F30 Fe4 2.083005 1_555
F30 Fe5 2.083005 1_555
F31 Li10 1.843758 1_555
F31 Fe5 1.891132 1_455
F32 Li10 1.843758 1_555
F32 Fe4 1.891132 1_555
F33 Li0 1.873023 1_565
F33 Fe7 1.873795 1_555
F34 Li0 1.873023 1_565
F34 Fe6 1.873795 1_655
F35 Li11 2.035122 1_556
F35 Fe6 2.114473 1_555
F35 Fe7 2.114473 1_555
F35 Li2 2.256684 1_565
