# generated using pymatgen
data_Li3VSi2O7
_symmetry_space_group_name_H-M   'P 1'
_cell_length_a   13.08343300
_cell_length_b   8.62937400
_cell_length_c   8.64258461
_cell_angle_alpha   60.14038110
_cell_angle_beta   90.00000000
_cell_angle_gamma   90.00000000
_symmetry_Int_Tables_number   1
_chemical_formula_structural   Li3VSi2O7
_chemical_formula_sum   'Li18 V6 Si12 O42'
_cell_volume   846.22895821
_cell_formula_units_Z   6
loop_
 _symmetry_equiv_pos_site_id
 _symmetry_equiv_pos_as_xyz
  1  'x, y, z'
loop_
 _atom_site_type_symbol
 _atom_site_label
 _atom_site_symmetry_multiplicity
 _atom_site_fract_x
 _atom_site_fract_y
 _atom_site_fract_z
 _atom_site_occupancy
  Li  Li0  1  0.89650300  0.97847000  0.68890900  1
  Li  Li1  1  0.56664900  0.97879400  0.69006200  1
  Li  Li2  1  0.21813300  0.66907300  0.66502600  1
  Li  Li3  1  0.73430200  0.66852900  0.66592900  1
  Li  Li4  1  0.46280500  0.00227000  0.99757000  1
  Li  Li5  1  0.96280500  0.99773000  0.00243000  1
  Li  Li6  1  0.56550400  0.69190100  0.33129200  1
  Li  Li7  1  0.89858800  0.69151000  0.33270400  1
  Li  Li8  1  0.89788900  0.33632400  0.97314000  1
  Li  Li9  1  0.56607500  0.33380000  0.97408300  1
  Li  Li10  1  0.06607500  0.66620000  0.02591700  1
  Li  Li11  1  0.39788900  0.66367600  0.02686000  1
  Li  Li12  1  0.39858800  0.30849000  0.66729600  1
  Li  Li13  1  0.06550400  0.30809900  0.66870800  1
  Li  Li14  1  0.23430200  0.33147100  0.33407100  1
  Li  Li15  1  0.71813300  0.33092700  0.33497400  1
  Li  Li16  1  0.06664900  0.02120600  0.30993800  1
  Li  Li17  1  0.39650300  0.02153000  0.31109100  1
  V  V0  1  0.23129300  0.99779900  0.99786800  1
  V  V1  1  0.73129300  0.00220100  0.00213200  1
  V  V2  1  0.50946600  0.66847300  0.66549700  1
  V  V3  1  0.95594400  0.66860500  0.66530000  1
  V  V4  1  0.45594400  0.33139500  0.33470000  1
  V  V5  1  0.00946600  0.33152700  0.33450300  1
  Si  Si0  1  0.34521900  0.97663300  0.67223800  1
  Si  Si1  1  0.12013900  0.97948600  0.67115200  1
  Si  Si2  1  0.12074500  0.67437600  0.34887200  1
  Si  Si3  1  0.34519600  0.67571300  0.35075100  1
  Si  Si4  1  0.12074600  0.35137100  0.97447600  1
  Si  Si5  1  0.34470700  0.35282000  0.97168100  1
  Si  Si6  1  0.84470700  0.64718000  0.02831900  1
  Si  Si7  1  0.62074600  0.64862900  0.02552400  1
  Si  Si8  1  0.84519600  0.32428700  0.64924900  1
  Si  Si9  1  0.62074500  0.32562400  0.65112800  1
  Si  Si10  1  0.62013900  0.02051400  0.32884800  1
  Si  Si11  1  0.84521900  0.02336700  0.32776200  1
  O  O0  1  0.84157500  0.86904900  0.92899400  1
  O  O1  1  0.62627700  0.86968800  0.92502600  1
  O  O2  1  0.23239800  0.87450000  0.69348900  1
  O  O3  1  0.03687100  0.81486400  0.75440500  1
  O  O4  1  0.42923700  0.81419400  0.75633800  1
  O  O5  1  0.60541200  0.88321200  0.53772600  1
  O  O6  1  0.85997800  0.88320900  0.53574500  1
  O  O7  1  0.84272800  0.93166300  0.20193900  1
  O  O8  1  0.85963800  0.58379100  0.87925800  1
  O  O9  1  0.62543600  0.92706900  0.20535400  1
  O  O10  1  0.60504800  0.58191300  0.87978000  1
  O  O11  1  0.03682100  0.75789200  0.42970800  1
  O  O12  1  0.42953200  0.75942100  0.42957300  1
  O  O13  1  0.23263000  0.69639700  0.43229300  1
  O  O14  1  0.34256300  0.79860500  0.13326400  1
  O  O15  1  0.23256100  0.43665500  0.86963900  1
  O  O16  1  0.12604800  0.79522700  0.13224900  1
  O  O17  1  0.42950600  0.43179600  0.81023200  1
  O  O18  1  0.03665500  0.43297700  0.81123500  1
  O  O19  1  0.60510800  0.54009900  0.57887700  1
  O  O20  1  0.86051500  0.53894300  0.57987900  1
  O  O21  1  0.36051500  0.46105700  0.42012100  1
  O  O22  1  0.10510800  0.45990100  0.42112300  1
  O  O23  1  0.53665500  0.56702300  0.18876500  1
  O  O24  1  0.92950600  0.56820400  0.18976800  1
  O  O25  1  0.62604800  0.20477300  0.86775100  1
  O  O26  1  0.73256100  0.56334500  0.13036100  1
  O  O27  1  0.84256300  0.20139500  0.86673600  1
  O  O28  1  0.73263000  0.30360300  0.56770700  1
  O  O29  1  0.92953200  0.24057900  0.57042700  1
  O  O30  1  0.53682100  0.24210800  0.57029200  1
  O  O31  1  0.10504800  0.41808700  0.12022000  1
  O  O32  1  0.12543600  0.07293100  0.79464600  1
  O  O33  1  0.35963800  0.41620900  0.12074200  1
  O  O34  1  0.34272800  0.06833700  0.79806100  1
  O  O35  1  0.35997800  0.11679100  0.46425500  1
  O  O36  1  0.10541200  0.11678800  0.46227400  1
  O  O37  1  0.92923700  0.18580600  0.24366200  1
  O  O38  1  0.53687100  0.18513600  0.24559500  1
  O  O39  1  0.73239800  0.12550000  0.30651100  1
  O  O40  1  0.12627700  0.13031200  0.07497400  1
  O  O41  1  0.34157500  0.13095100  0.07100600  1
loop_
_geom_bond_atom_site_label_1
_geom_bond_atom_site_label_2
_geom_bond_distance
_geom_bond_site_symmetry_2
Li0 O6 1.933890 1_555
Li0 O0 1.939728 1_555
Li0 O29 2.011203 1_565
Li0 O3 2.211468 1_655
Li1 O1 1.927429 1_555
Li1 O5 1.937063 1_555
Li1 O30 2.011162 1_565
Li1 O4 2.183491 1_555
Li2 O15 1.911462 1_555
Li2 O13 1.914446 1_555
Li2 O2 1.916261 1_555
Li3 O8 2.297945 1_555
Li3 O6 2.307812 1_555
Li3 O20 2.314832 1_555
Li3 O10 2.336408 1_555
Li3 O5 2.336550 1_555
Li3 O19 2.341301 1_555
Li4 O34 2.188011 1_555
Li4 O41 2.203040 1_556
Li4 O14 2.210585 1_546
Li5 O7 2.188011 1_555
Li5 O0 2.203040 1_554
Li5 O27 2.210585 1_564
Li6 O9 1.928306 1_555
Li6 O19 1.942163 1_555
Li6 O23 2.035396 1_555
Li6 O12 2.172222 1_555
Li7 O20 1.935047 1_555
Li7 O7 1.942663 1_555
Li7 O24 2.032432 1_555
Li7 O11 2.186344 1_655
Li8 O8 1.934879 1_555
Li8 O27 1.947191 1_555
Li8 O37 2.073088 1_556
Li8 O18 2.188076 1_655
Li9 O25 1.928417 1_555
Li9 O10 1.941854 1_555
Li9 O38 2.073780 1_556
Li9 O17 2.172703 1_555
Li10 O16 1.928417 1_555
Li10 O31 1.941854 1_555
Li10 O3 2.073780 1_554
Li10 O24 2.172703 1_455
Li11 O33 1.934879 1_555
Li11 O14 1.947191 1_555
Li11 O4 2.073088 1_554
Li11 O23 2.188076 1_555
Li12 O21 1.935047 1_555
Li12 O34 1.942663 1_555
Li12 O17 2.032432 1_555
Li12 O30 2.186344 1_555
Li13 O32 1.928306 1_555
Li13 O22 1.942163 1_555
Li13 O18 2.035396 1_555
Li13 O29 2.172222 1_455
Li14 O33 2.297945 1_555
Li14 O35 2.307812 1_555
Li14 O21 2.314832 1_555
Li14 O31 2.336408 1_555
Li14 O36 2.336550 1_555
Li14 O22 2.341301 1_555
Li15 O26 1.911462 1_555
Li15 O28 1.914446 1_555
Li15 O39 1.916261 1_555
Li16 O40 1.927429 1_555
Li16 O36 1.937063 1_555
Li16 O11 2.011162 1_545
Li16 O37 2.183491 1_455
Li17 O35 1.933890 1_555
Li17 O41 1.939728 1_555
Li17 O12 2.011203 1_545
Li17 O38 2.211468 1_555
O0 Si6 1.663634 1_556
O0 V1 2.127175 1_566
O1 Si7 1.657934 1_556
O1 V1 2.097205 1_566
O2 Si0 1.681709 1_555
O2 Si1 1.685545 1_555
O3 Si1 1.644637 1_555
O3 V3 2.067583 1_455
O4 Si0 1.639210 1_555
O4 V2 2.069422 1_555
O5 Si10 1.603133 1_565
O5 V2 2.047303 1_555
O6 Si11 1.601983 1_565
O6 V3 2.048153 1_555
O7 Si11 1.633002 1_565
O7 V1 2.105108 1_565
O8 Si6 1.642780 1_556
O8 V3 2.048176 1_555
O9 Si10 1.628243 1_565
O9 V1 2.071092 1_565
O10 Si7 1.637783 1_556
O10 V2 2.043059 1_555
O11 Si2 1.647567 1_555
O11 V3 2.072916 1_455
O12 Si3 1.641142 1_555
O12 V2 2.067295 1_555
O13 Si3 1.680105 1_555
O13 Si2 1.683794 1_555
O14 Si3 1.635244 1_555
O14 V0 2.107233 1_554
O15 Si5 1.678888 1_555
O15 Si4 1.684854 1_555
O16 Si2 1.628898 1_555
O16 V0 2.068585 1_554
O17 Si5 1.641776 1_555
O17 V2 2.070389 1_555
O18 Si4 1.645441 1_555
O18 V3 2.070412 1_455
O19 Si9 1.645112 1_555
O19 V2 2.044317 1_555
O20 Si8 1.650748 1_555
O20 V3 2.044100 1_555
O21 Si3 1.650748 1_555
O21 V4 2.044100 1_555
O22 Si2 1.645112 1_555
O22 V5 2.044317 1_555
O23 Si7 1.645441 1_555
O23 V4 2.070412 1_555
O24 Si6 1.641776 1_555
O24 V5 2.070389 1_655
O25 Si9 1.628898 1_555
O25 V1 2.068585 1_556
O26 Si6 1.678888 1_555
O26 Si7 1.684854 1_555
O27 Si8 1.635244 1_555
O27 V1 2.107233 1_556
O28 Si8 1.680105 1_555
O28 Si9 1.683794 1_555
O29 Si8 1.641142 1_555
O29 V5 2.067295 1_655
O30 Si9 1.647567 1_555
O30 V4 2.072916 1_555
O31 Si4 1.637783 1_554
O31 V5 2.043059 1_555
O32 Si1 1.628243 1_545
O32 V0 2.071092 1_545
O33 Si5 1.642780 1_554
O33 V4 2.048176 1_555
O34 Si0 1.633002 1_545
O34 V0 2.105108 1_545
O35 Si0 1.601983 1_545
O35 V4 2.048153 1_555
O36 Si1 1.603133 1_545
O36 V5 2.047303 1_555
O37 Si11 1.639210 1_555
O37 V5 2.069422 1_655
O38 Si10 1.644637 1_555
O38 V4 2.067583 1_555
O39 Si11 1.681709 1_555
O39 Si10 1.685545 1_555
O40 Si4 1.657934 1_554
O40 V0 2.097205 1_544
O41 Si5 1.663634 1_554
O41 V0 2.127175 1_544
