# generated using pymatgen
data_U(MoO4)2
_symmetry_space_group_name_H-M   'P 1'
_cell_length_a   9.66013300
_cell_length_b   10.28380400
_cell_length_c   14.39065100
_cell_angle_alpha   90.00000000
_cell_angle_beta   90.00000000
_cell_angle_gamma   90.00000000
_symmetry_Int_Tables_number   1
_chemical_formula_structural   U(MoO4)2
_chemical_formula_sum   'U8 Mo16 O64'
_cell_volume   1429.60921025
_cell_formula_units_Z   8
loop_
 _symmetry_equiv_pos_site_id
 _symmetry_equiv_pos_as_xyz
  1  'x, y, z'
loop_
 _atom_site_type_symbol
 _atom_site_label
 _atom_site_symmetry_multiplicity
 _atom_site_fract_x
 _atom_site_fract_y
 _atom_site_fract_z
 _atom_site_occupancy
  U  U0  1  0.72393900  0.53347000  0.61028500  1
  U  U1  1  0.22393900  0.96653000  0.61028500  1
  U  U2  1  0.22393900  0.46653000  0.88971500  1
  U  U3  1  0.27606100  0.96653000  0.11028500  1
  U  U4  1  0.27606100  0.46653000  0.38971500  1
  U  U5  1  0.77606100  0.03347000  0.38971500  1
  U  U6  1  0.72393900  0.03347000  0.88971500  1
  U  U7  1  0.77606100  0.53347000  0.11028500  1
  Mo  Mo0  1  0.00391900  0.22445000  0.06023600  1
  Mo  Mo1  1  0.50391900  0.77555000  0.43976400  1
  Mo  Mo2  1  0.31493500  0.10543100  0.84898000  1
  Mo  Mo3  1  0.81493500  0.89456900  0.65102000  1
  Mo  Mo4  1  0.18506500  0.60543100  0.15102000  1
  Mo  Mo5  1  0.99608100  0.77555000  0.93976400  1
  Mo  Mo6  1  0.00391900  0.72445000  0.43976400  1
  Mo  Mo7  1  0.49608100  0.72445000  0.93976400  1
  Mo  Mo8  1  0.99608100  0.27555000  0.56023600  1
  Mo  Mo9  1  0.81493500  0.39456900  0.84898000  1
  Mo  Mo10  1  0.50391900  0.27555000  0.06023600  1
  Mo  Mo11  1  0.68506500  0.89456900  0.15102000  1
  Mo  Mo12  1  0.18506500  0.10543100  0.34898000  1
  Mo  Mo13  1  0.31493500  0.60543100  0.65102000  1
  Mo  Mo14  1  0.68506500  0.39456900  0.34898000  1
  Mo  Mo15  1  0.49608100  0.22445000  0.56023600  1
  O  O0  1  0.88838200  0.82742700  0.37546400  1
  O  O1  1  0.50011700  0.08129500  0.84759400  1
  O  O2  1  0.26755200  0.27006000  0.82065700  1
  O  O3  1  0.76889700  0.50354500  0.26910100  1
  O  O4  1  0.62464300  0.16687600  0.00618300  1
  O  O5  1  0.50011700  0.58129500  0.65240600  1
  O  O6  1  0.59326700  0.89340200  0.36553400  1
  O  O7  1  0.90673300  0.89340200  0.86553400  1
  O  O8  1  0.41102700  0.85994900  0.52857600  1
  O  O9  1  0.73110300  0.00354500  0.73089900  1
  O  O10  1  0.75590500  0.42730200  0.96510000  1
  O  O11  1  0.58897300  0.14005100  0.47142400  1
  O  O12  1  0.24409500  0.57269800  0.03490000  1
  O  O13  1  0.23110300  0.99645500  0.76910100  1
  O  O14  1  0.73110300  0.50354500  0.76910100  1
  O  O15  1  0.76755200  0.22994000  0.82065700  1
  O  O16  1  0.08897300  0.35994900  0.47142400  1
  O  O17  1  0.23110300  0.49645500  0.73089900  1
  O  O18  1  0.37535700  0.83312400  0.99381700  1
  O  O19  1  0.76755200  0.72994000  0.67934300  1
  O  O20  1  0.91102700  0.14005100  0.97142400  1
  O  O21  1  0.73244800  0.22994000  0.32065700  1
  O  O22  1  0.23244800  0.77006000  0.17934300  1
  O  O23  1  0.41102700  0.35994900  0.97142400  1
  O  O24  1  0.99988300  0.58129500  0.15240600  1
  O  O25  1  0.74409500  0.92730200  0.03490000  1
  O  O26  1  0.76889700  0.00354500  0.23089900  1
  O  O27  1  0.12464300  0.83312400  0.49381700  1
  O  O28  1  0.99988300  0.08129500  0.34759400  1
  O  O29  1  0.91102700  0.64005100  0.52857600  1
  O  O30  1  0.26755200  0.77006000  0.67934300  1
  O  O31  1  0.58897300  0.64005100  0.02857600  1
  O  O32  1  0.12464300  0.33312400  0.00618300  1
  O  O33  1  0.59326700  0.39340200  0.13446600  1
  O  O34  1  0.38838200  0.67257300  0.37546400  1
  O  O35  1  0.40673300  0.10659800  0.63446600  1
  O  O36  1  0.00011700  0.41870500  0.84759400  1
  O  O37  1  0.88838200  0.32742700  0.12453600  1
  O  O38  1  0.11161800  0.17257300  0.62453600  1
  O  O39  1  0.87535700  0.16687600  0.50618300  1
  O  O40  1  0.11161800  0.67257300  0.87546400  1
  O  O41  1  0.74409500  0.42730200  0.46510000  1
  O  O42  1  0.00011700  0.91870500  0.65240600  1
  O  O43  1  0.62464300  0.66687600  0.49381700  1
  O  O44  1  0.90673300  0.39340200  0.63446600  1
  O  O45  1  0.08897300  0.85994900  0.02857600  1
  O  O46  1  0.38838200  0.17257300  0.12453600  1
  O  O47  1  0.25590500  0.07269800  0.96510000  1
  O  O48  1  0.75590500  0.92730200  0.53490000  1
  O  O49  1  0.73244800  0.72994000  0.17934300  1
  O  O50  1  0.09326700  0.10659800  0.13446600  1
  O  O51  1  0.09326700  0.60659800  0.36553400  1
  O  O52  1  0.26889700  0.99645500  0.26910100  1
  O  O53  1  0.40673300  0.60659800  0.86553400  1
  O  O54  1  0.37535700  0.33312400  0.50618300  1
  O  O55  1  0.49988300  0.41870500  0.34759400  1
  O  O56  1  0.61161800  0.32742700  0.62453600  1
  O  O57  1  0.61161800  0.82742700  0.87546400  1
  O  O58  1  0.49988300  0.91870500  0.15240600  1
  O  O59  1  0.25590500  0.57269800  0.53490000  1
  O  O60  1  0.23244800  0.27006000  0.32065700  1
  O  O61  1  0.26889700  0.49645500  0.23089900  1
  O  O62  1  0.87535700  0.66687600  0.99381700  1
  O  O63  1  0.24409500  0.07269800  0.46510000  1
loop_
_geom_bond_atom_site_label_1
_geom_bond_atom_site_label_2
_geom_bond_distance
_geom_bond_site_symmetry_2
Mo0 O20 1.786618 1_454
Mo0 O32 1.792791 1_555
Mo0 O37 1.795375 1_455
Mo0 O50 1.831644 1_555
Mo1 O8 1.786618 1_555
Mo1 O43 1.792791 1_555
Mo1 O34 1.795375 1_555
Mo1 O6 1.831644 1_555
Mo2 O47 1.797461 1_555
Mo2 O13 1.798093 1_545
Mo2 O2 1.800536 1_555
Mo2 O1 1.806131 1_555
Mo3 O48 1.797461 1_555
Mo3 O9 1.798093 1_565
Mo3 O19 1.800536 1_555
Mo3 O42 1.806131 1_655
Mo4 O12 1.797461 1_555
Mo4 O61 1.798093 1_555
Mo4 O22 1.800536 1_555
Mo4 O24 1.806131 1_455
Mo5 O45 1.786618 1_656
Mo5 O62 1.792791 1_555
Mo5 O40 1.795375 1_655
Mo5 O7 1.831644 1_555
Mo6 O29 1.786618 1_455
Mo6 O27 1.792791 1_555
Mo6 O0 1.795375 1_455
Mo6 O51 1.831644 1_555
Mo7 O31 1.786618 1_556
Mo7 O18 1.792791 1_555
Mo7 O57 1.795375 1_555
Mo7 O53 1.831644 1_555
Mo8 O16 1.786618 1_655
Mo8 O39 1.792791 1_555
Mo8 O38 1.795375 1_655
Mo8 O44 1.831644 1_555
Mo9 O10 1.797461 1_555
Mo9 O14 1.798093 1_555
Mo9 O15 1.800536 1_555
Mo9 O36 1.806131 1_655
Mo10 O23 1.786618 1_554
Mo10 O4 1.792791 1_555
Mo10 O46 1.795375 1_555
Mo10 O33 1.831644 1_555
Mo11 O25 1.797461 1_555
Mo11 O26 1.798093 1_565
Mo11 O49 1.800536 1_555
Mo11 O58 1.806131 1_555
Mo12 O63 1.797461 1_555
Mo12 O52 1.798093 1_545
Mo12 O60 1.800536 1_555
Mo12 O28 1.806131 1_455
Mo13 O59 1.797461 1_555
Mo13 O17 1.798093 1_555
Mo13 O30 1.800536 1_555
Mo13 O5 1.806131 1_555
Mo14 O41 1.797461 1_555
Mo14 O3 1.798093 1_555
Mo14 O21 1.800536 1_555
Mo14 O55 1.806131 1_555
Mo15 O11 1.786618 1_555
Mo15 O54 1.792791 1_555
Mo15 O56 1.795375 1_555
Mo15 O35 1.831644 1_555
O0 U5 2.389377 1_565
O1 U6 2.298739 1_555
O2 U2 2.290714 1_555
O3 U7 2.307130 1_555
O4 U6 2.368840 1_554
O5 U0 2.298739 1_555
O6 U5 2.305219 1_565
O7 U6 2.305219 1_565
O8 U1 2.418733 1_555
O9 U6 2.307130 1_555
O10 U7 2.365410 1_556
O11 U5 2.418733 1_555
O12 U2 2.365410 1_554
O13 U1 2.307130 1_555
O14 U0 2.307130 1_555
O15 U6 2.290714 1_555
O16 U4 2.418733 1_555
O17 U2 2.307130 1_555
O18 U3 2.368840 1_556
O19 U0 2.290714 1_555
O20 U6 2.418733 1_555
O21 U5 2.290714 1_555
O22 U3 2.290714 1_555
O23 U2 2.418733 1_555
O24 U7 2.298739 1_555
O25 U6 2.365410 1_564
O26 U5 2.307130 1_555
O27 U1 2.368840 1_555
O28 U5 2.298739 1_555
O29 U0 2.418733 1_555
O30 U1 2.290714 1_555
O31 U7 2.418733 1_555
O32 U2 2.368840 1_554
O33 U7 2.305219 1_555
O34 U4 2.389377 1_555
O35 U1 2.305219 1_545
O36 U2 2.298739 1_555
O37 U7 2.389377 1_555
O38 U1 2.389377 1_545
O39 U5 2.368840 1_555
O40 U2 2.389377 1_555
O41 U0 2.365410 1_555
O42 U1 2.298739 1_555
O43 U0 2.368840 1_555
O44 U0 2.305219 1_555
O45 U3 2.418733 1_555
O46 U3 2.389377 1_545
O47 U3 2.365410 1_546
O48 U5 2.365410 1_565
O49 U7 2.290714 1_555
O50 U3 2.305219 1_545
O51 U4 2.305219 1_555
O52 U3 2.307130 1_555
O53 U2 2.305219 1_555
O54 U4 2.368840 1_555
O55 U4 2.298739 1_555
O56 U0 2.389377 1_555
O57 U6 2.389377 1_565
O58 U3 2.298739 1_555
O59 U4 2.365410 1_555
O60 U4 2.290714 1_555
O61 U4 2.307130 1_555
O62 U7 2.368840 1_556
O63 U1 2.365410 1_545
