# generated using pymatgen
data_Li2CrFe3O8
_symmetry_space_group_name_H-M   'P 1'
_cell_length_a   5.89027554
_cell_length_b   5.89027554
_cell_length_c   9.59957300
_cell_angle_alpha   90.00000000
_cell_angle_beta   90.00000000
_cell_angle_gamma   119.55164566
_symmetry_Int_Tables_number   1
_chemical_formula_structural   Li2CrFe3O8
_chemical_formula_sum   'Li4 Cr2 Fe6 O16'
_cell_volume   289.73315684
_cell_formula_units_Z   2
loop_
 _symmetry_equiv_pos_site_id
 _symmetry_equiv_pos_as_xyz
  1  'x, y, z'
loop_
 _atom_site_type_symbol
 _atom_site_label
 _atom_site_symmetry_multiplicity
 _atom_site_fract_x
 _atom_site_fract_y
 _atom_site_fract_z
 _atom_site_occupancy
  Li  Li0  1  0.33199200  0.66800800  0.89438500  1
  Li  Li1  1  0.99974500  0.00025500  0.99742700  1
  Li  Li2  1  0.00025500  0.99974500  0.49742700  1
  Li  Li3  1  0.66800800  0.33199200  0.39438500  1
  Cr  Cr0  1  0.33590900  0.66409100  0.48468000  1
  Cr  Cr1  1  0.66409100  0.33590900  0.98468000  1
  Fe  Fe0  1  0.16880600  0.33822000  0.21291900  1
  Fe  Fe1  1  0.66178000  0.83119400  0.21291900  1
  Fe  Fe2  1  0.16872200  0.83127800  0.21310900  1
  Fe  Fe3  1  0.83127800  0.16872200  0.71310900  1
  Fe  Fe4  1  0.33822000  0.16880600  0.71291900  1
  Fe  Fe5  1  0.83119400  0.66178000  0.71291900  1
  O  O0  1  0.16662600  0.32688300  0.60093800  1
  O  O1  1  0.48123800  0.51876200  0.34095800  1
  O  O2  1  0.33338600  0.66661400  0.10249300  1
  O  O3  1  0.99952700  0.00047300  0.31022400  1
  O  O4  1  0.00047300  0.99952700  0.81022400  1
  O  O5  1  0.67311700  0.83337400  0.60093800  1
  O  O6  1  0.04244200  0.51685000  0.34173300  1
  O  O7  1  0.48315000  0.95755800  0.34173300  1
  O  O8  1  0.83406300  0.16593700  0.09899700  1
  O  O9  1  0.16593700  0.83406300  0.59899700  1
  O  O10  1  0.51685000  0.04244200  0.84173300  1
  O  O11  1  0.95755800  0.48315000  0.84173300  1
  O  O12  1  0.66661400  0.33338600  0.60249300  1
  O  O13  1  0.32688300  0.16662600  0.10093800  1
  O  O14  1  0.51876200  0.48123800  0.84095800  1
  O  O15  1  0.83337400  0.67311700  0.10093800  1
loop_
_geom_bond_atom_site_label_1
_geom_bond_atom_site_label_2
_geom_bond_distance
_geom_bond_site_symmetry_2
Li0 O14 1.969121 1_555
Li0 O11 1.984066 1_455
Li0 O10 1.984066 1_565
Li0 O2 1.997798 1_556
Li1 O4 1.797084 1_645
Li1 O8 1.948066 1_556
Li1 O15 1.948869 1_546
Li1 O13 1.948869 1_656
Li2 O3 1.797084 1_465
Li2 O9 1.948066 1_555
Li2 O5 1.948869 1_455
Li2 O0 1.948869 1_565
Li3 O1 1.969121 1_555
Li3 O7 1.984066 1_545
Li3 O6 1.984066 1_655
Li3 O12 1.997798 1_555
Cr0 O1 2.022841 1_555
Cr0 O6 2.035789 1_555
Cr0 O7 2.035789 1_555
Cr0 O9 2.048842 1_555
Cr0 O0 2.057018 1_555
Cr0 O5 2.057018 1_555
Cr1 O14 2.022841 1_555
Cr1 O10 2.035789 1_555
Cr1 O11 2.035789 1_555
Cr1 O8 2.048842 1_556
Cr1 O13 2.057018 1_556
Cr1 O15 2.057018 1_556
Fe0 O3 1.966678 1_455
Fe0 O2 1.988818 1_555
Fe0 O6 1.990651 1_555
Fe0 O13 1.993102 1_555
Fe0 O1 2.024329 1_555
Fe0 O8 2.034642 1_455
Fe1 O3 1.966678 1_565
Fe1 O2 1.988818 1_555
Fe1 O7 1.990651 1_555
Fe1 O15 1.993102 1_555
Fe1 O1 2.024329 1_555
Fe1 O8 2.034642 1_565
Fe2 O3 1.958389 1_465
Fe2 O2 1.984186 1_555
Fe2 O15 2.028289 1_455
Fe2 O13 2.028289 1_565
Fe2 O6 2.036934 1_555
Fe2 O7 2.036934 1_555
Fe3 O4 1.958389 1_645
Fe3 O12 1.984186 1_555
Fe3 O5 2.028289 1_545
Fe3 O0 2.028289 1_655
Fe3 O10 2.036934 1_555
Fe3 O11 2.036934 1_555
Fe4 O4 1.966678 1_545
Fe4 O12 1.988818 1_555
Fe4 O10 1.990651 1_555
Fe4 O0 1.993102 1_555
Fe4 O14 2.024329 1_555
Fe4 O9 2.034642 1_545
Fe5 O4 1.966678 1_655
Fe5 O12 1.988818 1_555
Fe5 O11 1.990651 1_555
Fe5 O5 1.993102 1_555
Fe5 O14 2.024329 1_555
Fe5 O9 2.034642 1_655
