# generated using pymatgen
data_KU2Cl2O9
_symmetry_space_group_name_H-M   'P 1'
_cell_length_a   7.36020700
_cell_length_b   8.11176494
_cell_length_c   12.03256779
_cell_angle_alpha   93.40205974
_cell_angle_beta   104.08194235
_cell_angle_gamma   115.40621655
_symmetry_Int_Tables_number   1
_chemical_formula_structural   KU2Cl2O9
_chemical_formula_sum   'K2 U4 Cl4 O18'
_cell_volume   618.32979595
_cell_formula_units_Z   2
loop_
 _symmetry_equiv_pos_site_id
 _symmetry_equiv_pos_as_xyz
  1  'x, y, z'
loop_
 _atom_site_type_symbol
 _atom_site_label
 _atom_site_symmetry_multiplicity
 _atom_site_fract_x
 _atom_site_fract_y
 _atom_site_fract_z
 _atom_site_occupancy
  K  K0  1  0.53065800  0.02347400  0.21576500  1
  K  K1  1  0.46934200  0.97652600  0.78423500  1
  U  U0  1  0.80001500  0.66888300  0.75047100  1
  U  U1  1  0.19998500  0.33111700  0.24952900  1
  U  U2  1  0.85746000  0.78151600  0.05817900  1
  U  U3  1  0.14254000  0.21848400  0.94182100  1
  Cl  Cl0  1  0.00971100  0.02798700  0.69976300  1
  Cl  Cl1  1  0.99028900  0.97201300  0.30023700  1
  Cl  Cl2  1  0.61912000  0.33187600  0.62186500  1
  Cl  Cl3  1  0.38088000  0.66812400  0.37813500  1
  O  O0  1  0.05797700  0.67493700  0.77569600  1
  O  O1  1  0.94202300  0.32506300  0.22430400  1
  O  O2  1  0.55616400  0.68802500  0.69869000  1
  O  O3  1  0.44383600  0.31197500  0.30131000  1
  O  O4  1  0.10652600  0.76370400  0.09389100  1
  O  O5  1  0.89347400  0.23629600  0.90610900  1
  O  O6  1  0.64164200  0.84865000  0.03699600  1
  O  O7  1  0.35835800  0.15135000  0.96300400  1
  O  O8  1  0.73085300  0.56517900  0.89503600  1
  O  O9  1  0.26914700  0.43482100  0.10496400  1
  O  O10  1  0.92338200  0.90132500  0.90425700  1
  O  O11  1  0.07661800  0.09867500  0.09574300  1
  O  O12  1  0.88132700  0.66646600  0.50754500  1
  O  O13  1  0.11867300  0.33353400  0.49245500  1
  O  O14  1  0.72914100  0.57944700  0.12845300  1
  O  O15  1  0.27085900  0.42055300  0.87154700  1
  O  O16  1  0.93305500  0.25324400  0.49187100  1
  O  O17  1  0.06694500  0.74675600  0.50812900  1
loop_
_geom_bond_atom_site_label_1
_geom_bond_atom_site_label_2
_geom_bond_distance
_geom_bond_site_symmetry_2
K0 O4 2.845519 1_545
K0 O3 2.874380 1_555
K0 O1 2.936952 1_555
K0 O6 2.965196 1_545
K0 O7 3.400066 1_554
K1 O5 2.845519 1_565
K1 O2 2.874380 1_555
K1 O0 2.936952 1_555
K1 O7 2.965196 1_565
K1 O6 3.400066 1_556
Cl0 U0 2.837460 1_445
Cl0 U3 2.934392 1_555
Cl0 K1 3.498681 1_545
Cl1 U1 2.837460 1_665
Cl1 U2 2.934392 1_555
Cl1 K0 3.498681 1_565
Cl2 U0 2.648160 1_555
Cl2 K1 3.511557 1_545
Cl3 U1 2.648160 1_555
Cl3 K0 3.511557 1_565
O0 U0 1.826805 1_455
O1 U1 1.826805 1_655
O2 U0 1.827579 1_555
O3 U1 1.827579 1_555
O4 U2 1.848617 1_455
O5 U3 1.848617 1_655
O6 U2 1.856466 1_555
O7 U3 1.856466 1_555
O8 U0 2.056629 1_555
O8 U2 2.258148 1_556
O9 U1 2.056629 1_555
O9 U3 2.258148 1_554
O10 U2 2.203729 1_556
O10 U0 2.258981 1_555
O10 U3 2.317628 1_665
O11 U3 2.203729 1_554
O11 U1 2.258981 1_555
O11 U2 2.317628 1_445
O12 O17 1.233688 1_655
O12 U0 3.123644 1_555
O13 O16 1.233688 1_455
O13 U1 3.123644 1_555
O14 U2 1.875770 1_555
O15 U3 1.875770 1_555
