# generated using pymatgen
data_Li2Bi(PO3)5
_symmetry_space_group_name_H-M   'P 1'
_cell_length_a   7.12089461
_cell_length_b   7.12089461
_cell_length_c   13.40791843
_cell_angle_alpha   88.11868773
_cell_angle_beta   88.11868773
_cell_angle_gamma   114.13480412
_symmetry_Int_Tables_number   1
_chemical_formula_structural   Li2Bi(PO3)5
_chemical_formula_sum   'Li4 Bi2 P10 O30'
_cell_volume   619.31412468
_cell_formula_units_Z   2
loop_
 _symmetry_equiv_pos_site_id
 _symmetry_equiv_pos_as_xyz
  1  'x, y, z'
loop_
 _atom_site_type_symbol
 _atom_site_label
 _atom_site_symmetry_multiplicity
 _atom_site_fract_x
 _atom_site_fract_y
 _atom_site_fract_z
 _atom_site_occupancy
  Li  Li0  1  0.68555500  0.28246700  0.72325800  1
  Li  Li1  1  0.28246700  0.68555500  0.22325800  1
  Li  Li2  1  0.23678600  0.27792300  0.59578600  1
  Li  Li3  1  0.27792300  0.23678600  0.09578600  1
  Bi  Bi0  1  0.10768600  0.87870500  0.76007100  1
  Bi  Bi1  1  0.87870500  0.10768600  0.26007100  1
  P  P0  1  0.37167000  0.97455100  0.50360000  1
  P  P1  1  0.73060200  0.59991900  0.56404300  1
  P  P2  1  0.58737400  0.84716600  0.84926500  1
  P  P3  1  0.97455100  0.37167000  0.00360000  1
  P  P4  1  0.59991900  0.73060200  0.06404300  1
  P  P5  1  0.84716600  0.58737400  0.34926500  1
  P  P6  1  0.82063000  0.06612700  0.52821400  1
  P  P7  1  0.06612700  0.82063000  0.02821400  1
  P  P8  1  0.23851700  0.44083000  0.81820300  1
  P  P9  1  0.44083000  0.23851700  0.31820300  1
  O  O0  1  0.81151800  0.90807800  0.82304800  1
  O  O1  1  0.90807800  0.81151800  0.32304800  1
  O  O2  1  0.84947400  0.59982200  0.65556400  1
  O  O3  1  0.59982200  0.84947400  0.15556400  1
  O  O4  1  0.75367200  0.82432800  0.53001200  1
  O  O5  1  0.82432800  0.75367200  0.03001200  1
  O  O6  1  0.54695300  0.84675900  0.96832400  1
  O  O7  1  0.84675900  0.54695300  0.46832400  1
  O  O8  1  0.49231800  0.97338800  0.79385800  1
  O  O9  1  0.97338800  0.49231800  0.29385800  1
  O  O10  1  0.78376700  0.33160500  0.95209800  1
  O  O11  1  0.33160500  0.78376700  0.45209800  1
  O  O12  1  0.15567900  0.91936600  0.92667800  1
  O  O13  1  0.50941400  0.45795500  0.57379700  1
  O  O14  1  0.91936600  0.15567900  0.42667800  1
  O  O15  1  0.47336400  0.60424800  0.82797100  1
  O  O16  1  0.45795500  0.50941400  0.07379700  1
  O  O17  1  0.60424800  0.47336400  0.32797100  1
  O  O18  1  0.93958800  0.16342200  0.61621000  1
  O  O19  1  0.16342200  0.93958800  0.11621000  1
  O  O20  1  0.60417200  0.08376600  0.54294200  1
  O  O21  1  0.08376600  0.60417200  0.04294200  1
  O  O22  1  0.11482500  0.55235900  0.77738400  1
  O  O23  1  0.55235900  0.11482500  0.27738400  1
  O  O24  1  0.15800900  0.35949100  0.93045300  1
  O  O25  1  0.35949100  0.15800900  0.43045300  1
  O  O26  1  0.25299400  0.26756000  0.76143500  1
  O  O27  1  0.26756000  0.25299400  0.26143500  1
  O  O28  1  0.24263400  0.98774400  0.59358700  1
  O  O29  1  0.98774400  0.24263400  0.09358700  1
loop_
_geom_bond_atom_site_label_1
_geom_bond_atom_site_label_2
_geom_bond_distance
_geom_bond_site_symmetry_2
Li0 O2 2.220776 1_555
Li0 O8 2.221393 1_545
Li1 O3 2.220776 1_555
Li1 O9 2.221393 1_455
Li2 O13 1.844348 1_555
Li2 O18 1.937724 1_455
Li2 O28 2.084857 1_545
Li2 O26 2.228156 1_555
Li3 O16 1.844348 1_555
Li3 O19 1.937724 1_545
Li3 O29 2.084857 1_455
Li3 O27 2.228156 1_555
Bi0 O12 2.280878 1_555
Bi0 O0 2.336654 1_455
Bi0 O22 2.349219 1_555
Bi0 O28 2.375760 1_555
Bi0 O26 2.529795 1_565
Bi0 O2 2.579503 1_455
Bi0 O8 2.598632 1_555
Bi1 O14 2.280878 1_555
Bi1 O1 2.336654 1_545
Bi1 O23 2.349219 1_555
Bi1 O29 2.375760 1_555
Bi1 O27 2.529795 1_655
Bi1 O3 2.579503 1_545
Bi1 O9 2.598632 1_555
O0 P2 1.498752 1_555
O1 P5 1.498752 1_555
O2 P1 1.513583 1_555
O3 P4 1.513583 1_555
O4 P6 1.586745 1_565
O4 P1 1.587857 1_555
O5 P7 1.586745 1_655
O5 P4 1.587857 1_555
O6 P2 1.612446 1_555
O6 P4 1.640340 1_556
O7 P5 1.612446 1_555
O7 P1 1.640340 1_555
O8 P2 1.518100 1_555
O9 P5 1.518100 1_555
O10 P3 1.470193 1_556
O11 P0 1.470193 1_555
O12 P7 1.505941 1_556
O13 P1 1.481740 1_555
O14 P6 1.505941 1_555
O15 P8 1.612741 1_555
O15 P2 1.622352 1_555
O16 P4 1.481740 1_555
O17 P9 1.612741 1_555
O17 P5 1.622352 1_555
O18 P6 1.492967 1_555
O19 P7 1.492967 1_555
O20 P6 1.603301 1_555
O20 P0 1.629567 1_545
O21 P7 1.603301 1_555
O21 P3 1.629567 1_455
O22 P8 1.510373 1_555
O23 P9 1.510373 1_555
O24 P8 1.594946 1_555
O24 P3 1.640166 1_456
O25 P9 1.594946 1_555
O25 P0 1.640166 1_545
O26 P8 1.507595 1_555
O27 P9 1.507595 1_555
O28 P0 1.521214 1_555
O29 P3 1.521214 1_555
