# generated using pymatgen
data_Na3TlPCO7
_symmetry_space_group_name_H-M   'P 1'
_cell_length_a   7.21440600
_cell_length_b   5.33310400
_cell_length_c   9.46301894
_cell_angle_alpha   89.69175958
_cell_angle_beta   90.00000000
_cell_angle_gamma   90.00000000
_symmetry_Int_Tables_number   1
_chemical_formula_structural   Na3TlPCO7
_chemical_formula_sum   'Na6 Tl2 P2 C2 O14'
_cell_volume   364.08606458
_cell_formula_units_Z   2
loop_
 _symmetry_equiv_pos_site_id
 _symmetry_equiv_pos_as_xyz
  1  'x, y, z'
loop_
 _atom_site_type_symbol
 _atom_site_label
 _atom_site_symmetry_multiplicity
 _atom_site_fract_x
 _atom_site_fract_y
 _atom_site_fract_z
 _atom_site_occupancy
  Na  Na0  1  0.25000000  0.75920900  0.91734300  1
  Na  Na1  1  0.00231000  0.24061600  0.74514600  1
  Na  Na2  1  0.49769000  0.24061600  0.74514600  1
  Na  Na3  1  0.50231000  0.75938400  0.25485400  1
  Na  Na4  1  0.99769000  0.75938400  0.25485400  1
  Na  Na5  1  0.75000000  0.24079100  0.08265700  1
  Tl  Tl0  1  0.75000000  0.76057600  0.62925500  1
  Tl  Tl1  1  0.25000000  0.23942400  0.37074500  1
  P  P0  1  0.25000000  0.70334300  0.59855200  1
  P  P1  1  0.75000000  0.29665700  0.40144800  1
  C  C0  1  0.75000000  0.73515900  0.94910900  1
  C  C1  1  0.25000000  0.26484100  0.05089100  1
  O  O0  1  0.25000000  0.28364700  0.91382000  1
  O  O1  1  0.75000000  0.95599800  0.88888600  1
  O  O2  1  0.75000000  0.53001700  0.87320800  1
  O  O3  1  0.07977100  0.81097300  0.68144300  1
  O  O4  1  0.42022900  0.81097300  0.68144300  1
  O  O5  1  0.25000000  0.41207300  0.60986500  1
  O  O6  1  0.75000000  0.22392500  0.56149600  1
  O  O7  1  0.25000000  0.77607500  0.43850400  1
  O  O8  1  0.75000000  0.58792700  0.39013500  1
  O  O9  1  0.57977100  0.18902700  0.31855700  1
  O  O10  1  0.92022900  0.18902700  0.31855700  1
  O  O11  1  0.25000000  0.46998300  0.12679200  1
  O  O12  1  0.25000000  0.04400200  0.11111400  1
  O  O13  1  0.75000000  0.71635300  0.08618000  1
loop_
_geom_bond_atom_site_label_1
_geom_bond_atom_site_label_2
_geom_bond_distance
_geom_bond_site_symmetry_2
Na0 O12 2.387282 1_566
Na0 O11 2.504941 1_556
Na0 O0 2.536620 1_555
Na0 O4 2.561463 1_555
Na0 O3 2.561463 1_555
Na0 O0 2.796902 1_565
Na1 O5 2.378129 1_555
Na1 O0 2.407798 1_555
Na1 O3 2.437365 1_545
Na1 O6 2.518571 1_455
Na1 O2 2.680333 1_455
Na1 O1 2.728617 1_445
Na2 O5 2.378129 1_555
Na2 O0 2.407798 1_555
Na2 O4 2.437365 1_545
Na2 O6 2.518571 1_555
Na2 O2 2.680333 1_555
Na2 O1 2.728617 1_545
Na3 O8 2.378129 1_555
Na3 O13 2.407798 1_555
Na3 O9 2.437365 1_565
Na3 O7 2.518571 1_555
Na3 O11 2.680333 1_555
Na3 O12 2.728617 1_565
Na4 O8 2.378129 1_555
Na4 O13 2.407798 1_555
Na4 O10 2.437365 1_565
Na4 O7 2.518571 1_655
Na4 O11 2.680333 1_655
Na4 O12 2.728617 1_665
Na5 O1 2.387282 1_544
Na5 O2 2.504941 1_554
Na5 O13 2.536620 1_555
Na5 O10 2.561463 1_555
Na5 O9 2.561463 1_555
Na5 O13 2.796902 1_545
C0 O13 1.300439 1_556
C0 O1 1.305629 1_555
C0 O2 1.311973 1_555
C1 O0 1.300439 1_554
C1 O12 1.305629 1_555
C1 O11 1.311973 1_555
O1 Tl0 2.673961 1_555
O2 Tl0 2.609728 1_555
O3 P0 1.567749 1_555
O3 Tl0 2.444931 1_455
O4 P0 1.567749 1_555
O4 Tl0 2.444931 1_555
O5 P0 1.556483 1_555
O5 Tl1 2.447541 1_555
O6 P1 1.561396 1_555
O6 Tl0 2.549583 1_545
O7 P0 1.561396 1_555
O7 Tl1 2.549583 1_565
O8 P1 1.556483 1_555
O8 Tl0 2.447541 1_555
O9 P1 1.567749 1_555
O9 Tl1 2.444931 1_555
O10 P1 1.567749 1_555
O10 Tl1 2.444931 1_655
O11 Tl1 2.609728 1_555
O12 Tl1 2.673961 1_555
