# generated using pymatgen
data_Li4FeO3F
_symmetry_space_group_name_H-M   'P 1'
_cell_length_a   5.63762690
_cell_length_b   5.63762690
_cell_length_c   6.25795703
_cell_angle_alpha   89.49667540
_cell_angle_beta   89.49667540
_cell_angle_gamma   88.67568973
_symmetry_Int_Tables_number   1
_chemical_formula_structural   Li4FeO3F
_chemical_formula_sum   'Li8 Fe2 O6 F2'
_cell_volume   198.82750352
_cell_formula_units_Z   2
loop_
 _symmetry_equiv_pos_site_id
 _symmetry_equiv_pos_as_xyz
  1  'x, y, z'
loop_
 _atom_site_type_symbol
 _atom_site_label
 _atom_site_symmetry_multiplicity
 _atom_site_fract_x
 _atom_site_fract_y
 _atom_site_fract_z
 _atom_site_occupancy
  Li  Li0  1  0.03147700  0.14423900  0.30482500  1
  Li  Li1  1  0.82783500  0.82445600  0.49935600  1
  Li  Li2  1  0.82445600  0.82783500  0.99935600  1
  Li  Li3  1  0.64399000  0.32266000  0.21642700  1
  Li  Li4  1  0.39339200  0.14318100  0.48583500  1
  Li  Li5  1  0.32266000  0.64399000  0.71642700  1
  Li  Li6  1  0.14318100  0.39339200  0.98583500  1
  Li  Li7  1  0.14423900  0.03147700  0.80482500  1
  Fe  Fe0  1  0.68256600  0.30009800  0.75056600  1
  Fe  Fe1  1  0.30009800  0.68256600  0.25056600  1
  O  O0  1  0.85983000  0.18807600  0.98584300  1
  O  O1  1  0.74871200  0.16584700  0.48501300  1
  O  O2  1  0.35360200  0.29163500  0.76139900  1
  O  O3  1  0.29163500  0.35360200  0.26139900  1
  O  O4  1  0.16584700  0.74871200  0.98501300  1
  O  O5  1  0.18807600  0.85983000  0.48584300  1
  F  F0  1  0.66479600  0.69294400  0.24370700  1
  F  F1  1  0.69294400  0.66479600  0.74370700  1
loop_
_geom_bond_atom_site_label_1
_geom_bond_atom_site_label_2
_geom_bond_distance
_geom_bond_site_symmetry_2
Li0 O3 1.919765 1_555
Li0 O1 1.946645 1_455
Li0 O5 2.133953 1_545
Li0 O0 2.235267 1_454
Li1 O1 1.967038 1_565
Li1 O5 2.046192 1_655
Li2 O4 1.967038 1_655
Li2 O0 2.046192 1_565
Li3 O1 1.980503 1_555
Li3 O3 2.007642 1_555
Li3 O0 2.020955 1_554
Li4 O3 1.913745 1_555
Li4 O2 1.932470 1_555
Li4 O5 1.994250 1_545
Li4 O1 2.010137 1_555
Li5 O4 1.980503 1_555
Li5 O2 2.007642 1_555
Li5 O5 2.020955 1_555
Li6 O2 1.913745 1_555
Li6 O3 1.932470 1_556
Li6 O0 1.994250 1_455
Li6 O4 2.010137 1_555
Li7 O2 1.919765 1_555
Li7 O4 1.946645 1_545
Li7 O0 2.133953 1_455
Li7 O5 2.235267 1_545
Fe0 O2 1.856919 1_555
Fe0 O1 1.863250 1_555
Fe0 O0 1.883004 1_555
Fe1 O3 1.856919 1_555
Fe1 O4 1.863250 1_554
Fe1 O5 1.883004 1_555
F0 Li2 1.927118 1_554
F0 Li1 2.008035 1_555
F0 Fe1 2.058275 1_555
F0 Li3 2.102043 1_555
F1 Li1 1.927118 1_555
F1 Li2 2.008035 1_555
F1 Fe0 2.058275 1_555
F1 Li5 2.102043 1_555
