# generated using pymatgen
data_K2Mg2O3
_symmetry_space_group_name_H-M   'P 1'
_cell_length_a   6.49053700
_cell_length_b   6.49053700
_cell_length_c   10.39352900
_cell_angle_alpha   90.00000000
_cell_angle_beta   90.00000000
_cell_angle_gamma   90.00000000
_symmetry_Int_Tables_number   1
_chemical_formula_structural   K2Mg2O3
_chemical_formula_sum   'K8 Mg8 O12'
_cell_volume   437.84892943
_cell_formula_units_Z   4
loop_
 _symmetry_equiv_pos_site_id
 _symmetry_equiv_pos_as_xyz
  1  'x, y, z'
loop_
 _atom_site_type_symbol
 _atom_site_label
 _atom_site_symmetry_multiplicity
 _atom_site_fract_x
 _atom_site_fract_y
 _atom_site_fract_z
 _atom_site_occupancy
  K  K0  1  0.93286500  0.73674400  0.36208300  1
  K  K1  1  0.26325600  0.06713500  0.13791700  1
  K  K2  1  0.23674400  0.56713500  0.61208300  1
  K  K3  1  0.56713500  0.23674400  0.38791700  1
  K  K4  1  0.43286500  0.76325600  0.88791700  1
  K  K5  1  0.76325600  0.43286500  0.11208300  1
  K  K6  1  0.73674400  0.93286500  0.63791700  1
  K  K7  1  0.06713500  0.26325600  0.86208300  1
  Mg  Mg0  1  0.92717300  0.77769600  0.88231400  1
  Mg  Mg1  1  0.22230400  0.07282700  0.61768600  1
  Mg  Mg2  1  0.27769600  0.57282700  0.13231400  1
  Mg  Mg3  1  0.57282700  0.27769600  0.86768600  1
  Mg  Mg4  1  0.42717300  0.72230400  0.36768600  1
  Mg  Mg5  1  0.72230400  0.42717300  0.63231400  1
  Mg  Mg6  1  0.77769600  0.92717300  0.11768600  1
  Mg  Mg7  1  0.07282700  0.22230400  0.38231400  1
  O  O0  1  0.97138900  0.26442800  0.56470100  1
  O  O1  1  0.38316800  0.38316800  0.00000000  1
  O  O2  1  0.23557200  0.47138900  0.31470100  1
  O  O3  1  0.26442800  0.97138900  0.43529900  1
  O  O4  1  0.11683200  0.88316800  0.75000000  1
  O  O5  1  0.52861100  0.76442800  0.18529900  1
  O  O6  1  0.47138900  0.23557200  0.68529900  1
  O  O7  1  0.88316800  0.11683200  0.25000000  1
  O  O8  1  0.73557200  0.02861100  0.93529900  1
  O  O9  1  0.76442800  0.52861100  0.81470100  1
  O  O10  1  0.61683200  0.61683200  0.50000000  1
  O  O11  1  0.02861100  0.73557200  0.06470100  1
loop_
_geom_bond_atom_site_label_1
_geom_bond_atom_site_label_2
_geom_bond_distance
_geom_bond_site_symmetry_2
K0 O10 2.620691 1_555
K0 O2 2.658758 1_655
K0 O3 2.744034 1_655
K0 O7 2.747197 1_565
K1 O1 2.620691 1_555
K1 O5 2.658758 1_545
K1 O11 2.744034 1_545
K1 O7 2.747197 1_455
K2 O4 2.620691 1_555
K2 O0 2.658758 1_455
K2 O6 2.744034 1_555
K2 O10 2.747197 1_555
K3 O7 2.620691 1_555
K3 O3 2.658758 1_545
K3 O2 2.744034 1_555
K3 O10 2.747197 1_555
K4 O4 2.620691 1_555
K4 O8 2.658758 1_565
K4 O9 2.744034 1_555
K4 O1 2.747197 1_556
K5 O7 2.620691 1_555
K5 O11 2.658758 1_655
K5 O5 2.744034 1_555
K5 O1 2.747197 1_555
K6 O10 2.620691 1_555
K6 O6 2.658758 1_565
K6 O0 2.744034 1_565
K6 O4 2.747197 1_655
K7 O1 2.620691 1_556
K7 O9 2.658758 1_455
K7 O8 2.744034 1_455
K7 O4 2.747197 1_545
Mg0 O4 1.968545 1_655
Mg0 O11 2.025264 1_656
Mg0 O9 2.055072 1_555
Mg0 O8 2.121803 1_565
Mg1 O4 1.968545 1_545
Mg1 O3 2.025264 1_545
Mg1 O6 2.055072 1_555
Mg1 O0 2.121803 1_455
Mg2 O1 1.968545 1_555
Mg2 O2 2.025264 1_555
Mg2 O11 2.055072 1_555
Mg2 O5 2.121803 1_555
Mg3 O1 1.968545 1_556
Mg3 O6 2.025264 1_555
Mg3 O8 2.055072 1_555
Mg3 O9 2.121803 1_555
Mg4 O10 1.968545 1_555
Mg4 O5 2.025264 1_555
Mg4 O3 2.055072 1_555
Mg4 O2 2.121803 1_555
Mg5 O10 1.968545 1_555
Mg5 O9 2.025264 1_555
Mg5 O0 2.055072 1_555
Mg5 O6 2.121803 1_555
Mg6 O7 1.968545 1_565
Mg6 O8 2.025264 1_564
Mg6 O5 2.055072 1_555
Mg6 O11 2.121803 1_655
Mg7 O7 1.968545 1_455
Mg7 O0 2.025264 1_455
Mg7 O2 2.055072 1_555
Mg7 O3 2.121803 1_545
