# generated using pymatgen
data_LiSbP2O7
_symmetry_space_group_name_H-M   'P 1'
_cell_length_a   10.80030300
_cell_length_b   7.44329500
_cell_length_c   8.58728133
_cell_angle_alpha   65.55333561
_cell_angle_beta   90.00000000
_cell_angle_gamma   90.00000000
_symmetry_Int_Tables_number   1
_chemical_formula_structural   LiSbP2O7
_chemical_formula_sum   'Li4 Sb4 P8 O28'
_cell_volume   628.43994747
_cell_formula_units_Z   4
loop_
 _symmetry_equiv_pos_site_id
 _symmetry_equiv_pos_as_xyz
  1  'x, y, z'
loop_
 _atom_site_type_symbol
 _atom_site_label
 _atom_site_symmetry_multiplicity
 _atom_site_fract_x
 _atom_site_fract_y
 _atom_site_fract_z
 _atom_site_occupancy
  Li  Li0  1  0.84405100  0.88373400  0.57716600  1
  Li  Li1  1  0.65594900  0.88373400  0.07716600  1
  Li  Li2  1  0.34405100  0.11626600  0.92283400  1
  Li  Li3  1  0.15594900  0.11626600  0.42283400  1
  Sb  Sb0  1  0.39290100  0.76997300  0.73056000  1
  Sb  Sb1  1  0.10709900  0.76997300  0.23056000  1
  Sb  Sb2  1  0.89290100  0.23002700  0.76944000  1
  Sb  Sb3  1  0.60709900  0.23002700  0.26944000  1
  P  P0  1  0.09065700  0.86560800  0.78859300  1
  P  P1  1  0.40934300  0.86560800  0.28859300  1
  P  P2  1  0.14901900  0.52650600  0.71571700  1
  P  P3  1  0.64901900  0.47349400  0.78428300  1
  P  P4  1  0.35098100  0.52650600  0.21571700  1
  P  P5  1  0.85098100  0.47349400  0.28428300  1
  P  P6  1  0.59065700  0.13439200  0.71140700  1
  P  P7  1  0.90934300  0.13439200  0.21140700  1
  O  O0  1  0.96313500  0.94019300  0.71120900  1
  O  O1  1  0.19706300  0.96369100  0.66228300  1
  O  O2  1  0.53686500  0.94019300  0.21120900  1
  O  O3  1  0.39091900  0.89155900  0.45535000  1
  O  O4  1  0.30293700  0.96369100  0.16228300  1
  O  O5  1  0.09711900  0.63118700  0.83786500  1
  O  O6  1  0.58043500  0.67156600  0.71840900  1
  O  O7  1  0.10908100  0.89155900  0.95535000  1
  O  O8  1  0.12035200  0.66408700  0.53126900  1
  O  O9  1  0.28934700  0.49032900  0.75819600  1
  O  O10  1  0.40288100  0.63118700  0.33786500  1
  O  O11  1  0.91956500  0.67156600  0.21840900  1
  O  O12  1  0.78934700  0.50967100  0.74180400  1
  O  O13  1  0.37964800  0.66408700  0.03126900  1
  O  O14  1  0.62035200  0.33591300  0.96873100  1
  O  O15  1  0.21065300  0.49032900  0.25819600  1
  O  O16  1  0.08043500  0.32843400  0.78159100  1
  O  O17  1  0.59711900  0.36881300  0.66213500  1
  O  O18  1  0.71065300  0.50967100  0.24180400  1
  O  O19  1  0.87964800  0.33591300  0.46873100  1
  O  O20  1  0.89091900  0.10844100  0.04465000  1
  O  O21  1  0.41956500  0.32843400  0.28159100  1
  O  O22  1  0.90288100  0.36881300  0.16213500  1
  O  O23  1  0.69706300  0.03630900  0.83771700  1
  O  O24  1  0.60908100  0.10844100  0.54465000  1
  O  O25  1  0.46313500  0.05980700  0.78879100  1
  O  O26  1  0.80293700  0.03630900  0.33771700  1
  O  O27  1  0.03686500  0.05980700  0.28879100  1
loop_
_geom_bond_atom_site_label_1
_geom_bond_atom_site_label_2
_geom_bond_distance
_geom_bond_site_symmetry_2
Li0 O0 1.885760 1_555
Li0 O26 1.944769 1_565
Li0 O12 2.615700 1_555
Li1 O2 1.885760 1_555
Li1 O23 1.944769 1_564
Li1 O18 2.615700 1_555
Li2 O25 1.885760 1_555
Li2 O4 1.944769 1_546
Li2 O9 2.615700 1_555
Li3 O27 1.885760 1_555
Li3 O1 1.944769 1_545
Li3 O15 2.615700 1_555
O0 P0 1.530140 1_655
O0 Sb2 2.524352 1_565
O1 P0 1.541023 1_555
O1 Sb0 2.489336 1_555
O2 P1 1.530140 1_555
O2 Sb3 2.524352 1_565
O3 P1 1.535071 1_555
O3 Sb0 2.152774 1_555
O4 P1 1.541023 1_555
O4 Sb1 2.489336 1_555
O5 P0 1.617833 1_555
O5 P2 1.642560 1_555
O6 P3 1.533614 1_555
O6 Sb0 2.170946 1_555
O7 P0 1.535071 1_555
O7 Sb1 2.152774 1_556
O8 P2 1.520127 1_555
O8 Sb1 2.371766 1_555
O9 P2 1.556043 1_555
O9 Sb0 2.287104 1_555
O10 P1 1.617833 1_555
O10 P4 1.642560 1_555
O11 P5 1.533614 1_555
O11 Sb1 2.170946 1_655
O12 P3 1.556043 1_555
O12 Sb2 2.287104 1_555
O13 P4 1.520127 1_555
O13 Sb0 2.371766 1_554
O14 P3 1.520127 1_555
O14 Sb3 2.371766 1_556
O15 P4 1.556043 1_555
O15 Sb1 2.287104 1_555
O16 P2 1.533614 1_555
O16 Sb2 2.170946 1_455
O17 P6 1.617833 1_555
O17 P3 1.642560 1_555
O18 P5 1.556043 1_555
O18 Sb3 2.287104 1_555
O19 P5 1.520127 1_555
O19 Sb2 2.371766 1_555
O20 P7 1.535071 1_555
O20 Sb2 2.152774 1_554
O21 P4 1.533614 1_555
O21 Sb3 2.170946 1_555
O22 P7 1.617833 1_555
O22 P5 1.642560 1_555
O23 P6 1.541023 1_555
O23 Sb2 2.489336 1_555
O24 P6 1.535071 1_555
O24 Sb3 2.152774 1_555
O25 P6 1.530140 1_555
O25 Sb0 2.524352 1_545
O26 P7 1.541023 1_555
O26 Sb3 2.489336 1_555
O27 P7 1.530140 1_455
O27 Sb1 2.524352 1_545
