# generated using pymatgen
data_Li6Co3Sb(PO4)6
_symmetry_space_group_name_H-M   'P 1'
_cell_length_a   8.65042552
_cell_length_b   8.68325762
_cell_length_c   8.71344369
_cell_angle_alpha   60.97239328
_cell_angle_beta   60.83255295
_cell_angle_gamma   61.21500124
_symmetry_Int_Tables_number   1
_chemical_formula_structural   Li6Co3Sb(PO4)6
_chemical_formula_sum   'Li6 Co3 Sb1 P6 O24'
_cell_volume   473.28465133
_cell_formula_units_Z   1
loop_
 _symmetry_equiv_pos_site_id
 _symmetry_equiv_pos_as_xyz
  1  'x, y, z'
loop_
 _atom_site_type_symbol
 _atom_site_label
 _atom_site_symmetry_multiplicity
 _atom_site_fract_x
 _atom_site_fract_y
 _atom_site_fract_z
 _atom_site_occupancy
  Li  Li0  1  0.03143900  0.01906100  0.00673900  1
  Li  Li1  1  0.73829300  0.15981400  0.35130000  1
  Li  Li2  1  0.47170700  0.49760400  0.48695700  1
  Li  Li3  1  0.30873300  0.84091800  0.63916000  1
  Li  Li4  1  0.64061300  0.30962700  0.83921800  1
  Li  Li5  1  0.84001500  0.64064700  0.31016600  1
  Co  Co0  1  0.14491100  0.15012500  0.14004300  1
  Co  Co1  1  0.35487300  0.35822100  0.35311300  1
  Co  Co2  1  0.64699900  0.65131100  0.64829200  1
  Sb  Sb0  1  0.85523000  0.85191600  0.85212800  1
  P  P0  1  0.05177900  0.74835100  0.44327000  1
  P  P1  1  0.44891400  0.05070000  0.74499000  1
  P  P2  1  0.74608900  0.44829000  0.04774300  1
  P  P3  1  0.24524600  0.53911500  0.95785800  1
  P  P4  1  0.54362400  0.96090400  0.24713000  1
  P  P5  1  0.95400100  0.24483800  0.53561200  1
  O  O0  1  0.13317100  0.26087900  0.50576300  1
  O  O1  1  0.27692200  0.52303400  0.12041700  1
  O  O2  1  0.05552700  0.92372300  0.26597100  1
  O  O3  1  0.54854900  0.11726500  0.27655100  1
  O  O4  1  0.23743300  0.59333900  0.43454600  1
  O  O5  1  0.00909500  0.80572700  0.61302500  1
  O  O6  1  0.26424700  0.07896500  0.90697200  1
  O  O7  1  0.46780900  0.22583800  0.57551500  1
  O  O8  1  0.59521200  0.43753100  0.23979100  1
  O  O9  1  0.17028200  0.39048900  0.99895300  1
  O  O10  1  0.09501300  0.74672800  0.90609500  1
  O  O11  1  0.38236500  0.01380200  0.18481200  1
  O  O12  1  0.61526600  0.00172000  0.81021400  1
  O  O13  1  0.90828500  0.25991500  0.07040200  1
  O  O14  1  0.80943600  0.61317100  0.00320300  1
  O  O15  1  0.41252900  0.54678500  0.77377600  1
  O  O16  1  0.54824300  0.77686400  0.41421900  1
  O  O17  1  0.74684200  0.90451100  0.09262900  1
  O  O18  1  0.96519100  0.18548900  0.38911300  1
  O  O19  1  0.77521300  0.41524700  0.55579400  1
  O  O20  1  0.47331800  0.89153300  0.69593800  1
  O  O21  1  0.90821000  0.09237000  0.74333700  1
  O  O22  1  0.68766600  0.47829400  0.89480300  1
  O  O23  1  0.89170800  0.69433900  0.47544300  1
loop_
_geom_bond_atom_site_label_1
_geom_bond_atom_site_label_2
_geom_bond_distance
_geom_bond_site_symmetry_2
Li0 O6 1.986348 1_554
Li0 O13 2.054444 1_455
Li0 O2 2.075785 1_545
Li1 O8 2.077299 1_555
Li1 O13 2.136980 1_555
Li1 O7 2.227026 1_555
Li1 O3 2.261503 1_555
Li1 O18 2.265779 1_555
Li1 O2 2.521649 1_645
Li2 O4 1.979357 1_555
Li2 O8 2.088675 1_555
Li2 O7 2.109363 1_555
Li2 O15 2.503701 1_555
Li2 O16 2.523038 1_555
Li2 O19 2.659838 1_555
Li3 O20 1.991261 1_555
Li3 O16 2.105597 1_555
Li3 O15 2.148466 1_555
Li3 O10 2.217077 1_555
Li4 O22 1.999974 1_555
Li4 O19 2.079256 1_555
Li4 O15 2.121991 1_555
Li4 O21 2.248156 1_555
Li5 O23 1.992829 1_555
Li5 O16 2.127571 1_555
Li5 O19 2.132506 1_555
Li5 O17 2.233413 1_555
Co0 O9 1.898355 1_554
Co0 O11 1.940078 1_555
Co0 O18 2.029661 1_455
Co0 O6 2.032693 1_554
Co0 O2 2.051864 1_545
Co0 O13 2.058383 1_455
Co1 O0 2.035996 1_555
Co1 O1 2.049681 1_555
Co1 O4 2.099863 1_555
Co1 O8 2.118865 1_555
Co1 O3 2.125769 1_555
Co1 O7 2.152493 1_555
Co2 O20 1.998739 1_555
Co2 O23 1.999231 1_555
Co2 O22 2.022479 1_555
Co2 O19 2.150335 1_555
Co2 O16 2.172963 1_555
Co2 O15 2.186621 1_555
O0 P5 1.506338 1_455
O1 P3 1.500143 1_554
O2 P0 1.556376 1_555
O3 P4 1.521539 1_545
O4 P0 1.514997 1_555
O5 P0 1.605642 1_555
O5 Sb0 1.966442 1_455
O6 P1 1.537887 1_555
O7 P1 1.531288 1_555
O8 P2 1.532736 1_555
O9 P3 1.531480 1_555
O10 P3 1.633484 1_555
O10 Sb0 2.016720 1_455
O11 P4 1.526747 1_545
O12 P1 1.596191 1_555
O12 Sb0 1.952400 1_545
O13 P2 1.558692 1_555
O14 P2 1.584206 1_555
O14 Sb0 1.954916 1_554
O15 P3 1.548530 1_555
O16 P4 1.553189 1_555
O17 P4 1.626776 1_555
O17 Sb0 2.020001 1_554
O18 P5 1.540894 1_555
O19 P5 1.547866 1_555
O20 P1 1.530279 1_565
O21 P5 1.632928 1_555
O21 Sb0 2.011309 1_545
O22 P2 1.513913 1_556
O23 P0 1.528186 1_655
