# generated using pymatgen
data_Li2MnSiO4
_symmetry_space_group_name_H-M   'P 1'
_cell_length_a   5.09301182
_cell_length_b   6.37467076
_cell_length_c   10.89745515
_cell_angle_alpha   89.99835559
_cell_angle_beta   90.01870689
_cell_angle_gamma   90.01896624
_symmetry_Int_Tables_number   1
_chemical_formula_structural   Li2MnSiO4
_chemical_formula_sum   'Li8 Mn4 Si4 O16'
_cell_volume   353.79972123
_cell_formula_units_Z   4
loop_
 _symmetry_equiv_pos_site_id
 _symmetry_equiv_pos_as_xyz
  1  'x, y, z'
loop_
 _atom_site_type_symbol
 _atom_site_label
 _atom_site_symmetry_multiplicity
 _atom_site_fract_x
 _atom_site_fract_y
 _atom_site_fract_z
 _atom_site_occupancy
  Li  Li0  1  0.18137500  0.00046000  0.58760600  1
  Li  Li1  1  0.31842000  0.49951800  0.08767400  1
  Li  Li2  1  0.18138400  0.49809000  0.58759300  1
  Li  Li3  1  0.68153600  0.50043200  0.91307100  1
  Li  Li4  1  0.81863200  0.50182800  0.41324500  1
  Li  Li5  1  0.68150200  0.99823600  0.91318300  1
  Li  Li6  1  0.81861400  0.99939500  0.41314100  1
  Li  Li7  1  0.31843100  0.00180700  0.08763900  1
  Mn  Mn0  1  0.18103000  0.74908000  0.83338600  1
  Mn  Mn1  1  0.81890800  0.25112000  0.16747100  1
  Mn  Mn2  1  0.31893800  0.75098700  0.33384800  1
  Mn  Mn3  1  0.68108800  0.24879700  0.66694000  1
  Si  Si0  1  0.82543700  0.75084400  0.16145500  1
  Si  Si1  1  0.67437700  0.74903300  0.66129600  1
  Si  Si2  1  0.32558800  0.25082000  0.33949200  1
  Si  Si3  1  0.17456000  0.24933400  0.83930600  1
  O  O0  1  0.15013300  0.75067300  0.15748700  1
  O  O1  1  0.34968800  0.74950000  0.65718500  1
  O  O2  1  0.65030600  0.25068600  0.34362000  1
  O  O3  1  0.84992600  0.24919000  0.84326400  1
  O  O4  1  0.77001600  0.74959600  0.80761900  1
  O  O5  1  0.72998300  0.75059700  0.30757400  1
  O  O6  1  0.27010500  0.24915900  0.69319900  1
  O  O7  1  0.22998400  0.25070000  0.19314800  1
  O  O8  1  0.71209400  0.96320200  0.09215200  1
  O  O9  1  0.78799100  0.96101700  0.59176300  1
  O  O10  1  0.71188400  0.53867400  0.09191100  1
  O  O11  1  0.78756700  0.53680600  0.59213600  1
  O  O12  1  0.21223200  0.46296900  0.40870700  1
  O  O13  1  0.28802400  0.46161300  0.90879700  1
  O  O14  1  0.21216400  0.03873500  0.40891100  1
  O  O15  1  0.28806700  0.03709600  0.90866100  1
loop_
_geom_bond_atom_site_label_1
_geom_bond_atom_site_label_2
_geom_bond_distance
_geom_bond_site_symmetry_2
Li0 O1 1.967099 1_545
Li0 O14 1.968839 1_555
Li0 O6 2.010228 1_555
Li0 O9 2.019665 1_445
Li1 O0 1.969288 1_555
Li1 O13 1.970265 1_554
Li1 O7 2.009865 1_555
Li1 O10 2.019833 1_555
Li2 O12 1.968559 1_555
Li2 O1 1.969041 1_555
Li2 O6 2.011649 1_555
Li2 O11 2.021546 1_455
Li3 O3 1.969942 1_555
Li3 O10 1.970111 1_556
Li3 O4 2.011520 1_555
Li3 O13 2.019821 1_555
Li4 O2 1.967839 1_555
Li4 O11 1.968598 1_555
Li4 O5 2.011158 1_555
Li4 O12 2.020560 1_655
Li5 O3 1.968500 1_565
Li5 O8 1.969174 1_556
Li5 O4 2.009908 1_555
Li5 O15 2.019690 1_565
Li6 O9 1.968066 1_555
Li6 O2 1.968561 1_565
Li6 O5 2.010451 1_555
Li6 O14 2.020441 1_665
Li7 O0 1.968854 1_545
Li7 O15 1.969365 1_554
Li7 O7 2.010761 1_555
Li7 O8 2.020641 1_545
Mn0 O13 2.081019 1_555
Mn0 O15 2.083299 1_565
Mn0 O1 2.103776 1_555
Mn0 O4 2.111961 1_455
Mn1 O10 2.082189 1_555
Mn1 O8 2.082641 1_545
Mn1 O2 2.103142 1_555
Mn1 O7 2.112143 1_655
Mn2 O14 2.080992 1_565
Mn2 O12 2.081187 1_555
Mn2 O0 2.105160 1_555
Mn2 O5 2.113041 1_555
Mn3 O11 2.080600 1_555
Mn3 O9 2.081832 1_545
Mn3 O3 2.104861 1_555
Mn3 O6 2.112706 1_555
O0 Si0 1.654261 1_455
O1 Si1 1.654241 1_555
O2 Si2 1.654390 1_555
O3 Si3 1.653941 1_655
O4 Si1 1.667137 1_555
O5 Si0 1.665037 1_555
O6 Si3 1.665047 1_555
O7 Si2 1.667301 1_555
O8 Si0 1.654178 1_555
O9 Si1 1.653716 1_555
O10 Si0 1.654494 1_555
O11 Si1 1.652718 1_555
O12 Si2 1.652880 1_555
O13 Si3 1.654640 1_555
O14 Si2 1.653335 1_555
O15 Si3 1.654102 1_555
