# generated using pymatgen
data_Li2VPO4F
_symmetry_space_group_name_H-M   'P 1'
_cell_length_a   6.51064500
_cell_length_b   10.75210400
_cell_length_c   11.17077500
_cell_angle_alpha   90.00000000
_cell_angle_beta   90.00000000
_cell_angle_gamma   90.00000000
_symmetry_Int_Tables_number   1
_chemical_formula_structural   Li2VPO4F
_chemical_formula_sum   'Li16 V8 P8 O32 F8'
_cell_volume   781.98923851
_cell_formula_units_Z   8
loop_
 _symmetry_equiv_pos_site_id
 _symmetry_equiv_pos_as_xyz
  1  'x, y, z'
loop_
 _atom_site_type_symbol
 _atom_site_label
 _atom_site_symmetry_multiplicity
 _atom_site_fract_x
 _atom_site_fract_y
 _atom_site_fract_z
 _atom_site_occupancy
  Li  Li0  1  0.75000000  0.02656800  0.27071100  1
  Li  Li1  1  0.25000000  0.23123100  0.08422100  1
  Li  Li2  1  0.50589600  0.23969200  0.33206900  1
  Li  Li3  1  0.99410400  0.23969200  0.33206900  1
  Li  Li4  1  0.00589600  0.26030800  0.83206900  1
  Li  Li5  1  0.49410400  0.26030800  0.83206900  1
  Li  Li6  1  0.75000000  0.26876900  0.58422100  1
  Li  Li7  1  0.25000000  0.47343200  0.77071100  1
  Li  Li8  1  0.75000000  0.52656800  0.22928900  1
  Li  Li9  1  0.25000000  0.73123100  0.41577900  1
  Li  Li10  1  0.50589600  0.73969200  0.16793100  1
  Li  Li11  1  0.99410400  0.73969200  0.16793100  1
  Li  Li12  1  0.00589600  0.76030800  0.66793100  1
  Li  Li13  1  0.49410400  0.76030800  0.66793100  1
  Li  Li14  1  0.75000000  0.76876900  0.91577900  1
  Li  Li15  1  0.25000000  0.97343200  0.72928900  1
  V  V0  1  0.00000000  0.00000000  0.00000000  1
  V  V1  1  0.50000000  0.00000000  0.00000000  1
  V  V2  1  0.00000000  0.00000000  0.50000000  1
  V  V3  1  0.50000000  0.00000000  0.50000000  1
  V  V4  1  0.00000000  0.50000000  0.50000000  1
  V  V5  1  0.50000000  0.50000000  0.50000000  1
  V  V6  1  0.00000000  0.50000000  0.00000000  1
  V  V7  1  0.50000000  0.50000000  0.00000000  1
  P  P0  1  0.75000000  0.02076200  0.74612800  1
  P  P1  1  0.75000000  0.24586700  0.08007000  1
  P  P2  1  0.25000000  0.25413300  0.58007000  1
  P  P3  1  0.25000000  0.47923800  0.24612800  1
  P  P4  1  0.75000000  0.52076200  0.75387200  1
  P  P5  1  0.75000000  0.74586700  0.41993000  1
  P  P6  1  0.25000000  0.75413300  0.91993000  1
  P  P7  1  0.25000000  0.97923800  0.25387200  1
  O  O0  1  0.25000000  0.02899000  0.12229200  1
  O  O1  1  0.05607000  0.03495700  0.31486500  1
  O  O2  1  0.44393000  0.03495700  0.31486500  1
  O  O3  1  0.25000000  0.11043200  0.56165200  1
  O  O4  1  0.75000000  0.16526100  0.74462000  1
  O  O5  1  0.55369500  0.19585500  0.01668800  1
  O  O6  1  0.94630500  0.19585500  0.01668800  1
  O  O7  1  0.75000000  0.21579100  0.21569400  1
  O  O8  1  0.25000000  0.28420900  0.71569400  1
  O  O9  1  0.05369500  0.30414500  0.51668800  1
  O  O10  1  0.44630500  0.30414500  0.51668800  1
  O  O11  1  0.25000000  0.33473900  0.24462000  1
  O  O12  1  0.75000000  0.38956800  0.06165200  1
  O  O13  1  0.55607000  0.46504300  0.81486500  1
  O  O14  1  0.94393000  0.46504300  0.81486500  1
  O  O15  1  0.75000000  0.47101000  0.62229200  1
  O  O16  1  0.25000000  0.52899000  0.37770800  1
  O  O17  1  0.05607000  0.53495700  0.18513500  1
  O  O18  1  0.44393000  0.53495700  0.18513500  1
  O  O19  1  0.25000000  0.61043200  0.93834800  1
  O  O20  1  0.75000000  0.66526100  0.75538000  1
  O  O21  1  0.55369500  0.69585500  0.48331200  1
  O  O22  1  0.94630500  0.69585500  0.48331200  1
  O  O23  1  0.75000000  0.71579100  0.28430600  1
  O  O24  1  0.25000000  0.78420900  0.78430600  1
  O  O25  1  0.05369500  0.80414500  0.98331200  1
  O  O26  1  0.44630500  0.80414500  0.98331200  1
  O  O27  1  0.25000000  0.83473900  0.25538000  1
  O  O28  1  0.75000000  0.88956800  0.43834800  1
  O  O29  1  0.55607000  0.96504300  0.68513500  1
  O  O30  1  0.94393000  0.96504300  0.68513500  1
  O  O31  1  0.75000000  0.97101000  0.87770800  1
  F  F0  1  0.25000000  0.05211800  0.88335200  1
  F  F1  1  0.75000000  0.12896800  0.46871800  1
  F  F2  1  0.25000000  0.37103200  0.96871800  1
  F  F3  1  0.75000000  0.44788200  0.38335200  1
  F  F4  1  0.25000000  0.55211800  0.61664800  1
  F  F5  1  0.75000000  0.62896800  0.03128200  1
  F  F6  1  0.25000000  0.87103200  0.53128200  1
  F  F7  1  0.75000000  0.94788200  0.11664800  1
loop_
_geom_bond_atom_site_label_1
_geom_bond_atom_site_label_2
_geom_bond_distance
_geom_bond_site_symmetry_2
Li0 O2 2.054829 1_555
Li0 O1 2.054829 1_655
Li0 O7 2.125344 1_555
Li0 O28 2.382563 1_545
Li1 O11 2.109287 1_555
Li1 O5 2.150189 1_555
Li1 O6 2.150189 1_455
Li1 O0 2.215713 1_555
Li2 O7 2.069259 1_555
Li2 O11 2.185038 1_555
Li2 O10 2.209981 1_555
Li2 O2 2.246232 1_555
Li3 O7 2.069259 1_555
Li3 O11 2.185038 1_655
Li3 O9 2.209981 1_655
Li3 O1 2.246232 1_655
Li4 O8 2.069259 1_555
Li4 O4 2.185038 1_455
Li4 O6 2.209981 1_456
Li4 O14 2.246232 1_455
Li5 O8 2.069259 1_555
Li5 O4 2.185038 1_555
Li5 O5 2.209981 1_556
Li5 O13 2.246232 1_555
Li6 O4 2.109287 1_555
Li6 O9 2.150189 1_655
Li6 O10 2.150189 1_555
Li6 O15 2.215713 1_555
Li7 O14 2.054829 1_455
Li7 O13 2.054829 1_555
Li7 O8 2.125344 1_555
Li7 O19 2.382563 1_555
Li8 O18 2.054829 1_555
Li8 O17 2.054829 1_655
Li8 O23 2.125344 1_555
Li8 O12 2.382563 1_555
Li9 O27 2.109287 1_555
Li9 O21 2.150189 1_555
Li9 O22 2.150189 1_455
Li9 O16 2.215713 1_555
Li10 O23 2.069259 1_555
Li10 O27 2.185038 1_555
Li10 O26 2.209981 1_554
Li10 O18 2.246232 1_555
Li11 O23 2.069259 1_555
Li11 O27 2.185038 1_655
Li11 O25 2.209981 1_654
Li11 O17 2.246232 1_655
Li12 O24 2.069259 1_555
Li12 O20 2.185038 1_455
Li12 O22 2.209981 1_455
Li12 O30 2.246232 1_455
Li13 O24 2.069259 1_555
Li13 O20 2.185038 1_555
Li13 O21 2.209981 1_555
Li13 O29 2.246232 1_555
Li14 O20 2.109287 1_555
Li14 O26 2.150189 1_555
Li14 O25 2.150189 1_655
Li14 O31 2.215713 1_555
Li15 O29 2.054829 1_555
Li15 O30 2.054829 1_455
Li15 O24 2.125344 1_555
Li15 O3 2.382563 1_565
O0 P7 1.564168 1_545
O0 V0 2.147710 1_555
O0 V1 2.147710 1_555
O1 P7 1.554774 1_545
O1 V2 2.133443 1_555
O2 P7 1.554774 1_545
O2 V3 2.133443 1_555
O3 P2 1.558726 1_555
O3 V2 2.129191 1_555
O3 V3 2.129191 1_555
O4 P0 1.553760 1_555
O5 P1 1.556897 1_555
O5 V1 2.142798 1_555
O6 P1 1.556897 1_555
O6 V0 2.142798 1_655
O7 P1 1.549153 1_555
O8 P2 1.549153 1_555
O9 P2 1.556897 1_555
O9 V4 2.142798 1_555
O10 P2 1.556897 1_555
O10 V5 2.142798 1_555
O11 P3 1.553760 1_555
O12 P1 1.558726 1_555
O12 V6 2.129191 1_655
O12 V7 2.129191 1_555
O13 P4 1.554774 1_555
O13 V7 2.133443 1_556
O14 P4 1.554774 1_555
O14 V6 2.133443 1_656
O15 P4 1.564168 1_555
O15 V4 2.147710 1_655
O15 V5 2.147710 1_555
O16 P3 1.564168 1_555
O16 V5 2.147710 1_555
O16 V4 2.147710 1_555
O17 P3 1.554774 1_555
O17 V6 2.133443 1_555
O18 P3 1.554774 1_555
O18 V7 2.133443 1_555
O19 P6 1.558726 1_555
O19 V7 2.129191 1_556
O19 V6 2.129191 1_556
O20 P4 1.553760 1_555
O21 P5 1.556897 1_555
O21 V5 2.142798 1_555
O22 P5 1.556897 1_555
O22 V4 2.142798 1_655
O23 P5 1.549153 1_555
O24 P6 1.549153 1_555
O25 P6 1.556897 1_555
O25 V0 2.142798 1_566
O26 P6 1.556897 1_555
O26 V1 2.142798 1_566
O27 P7 1.553760 1_555
O28 P5 1.558726 1_555
O28 V3 2.129191 1_565
O28 V2 2.129191 1_665
O29 P0 1.554774 1_565
O29 V3 2.133443 1_565
O30 P0 1.554774 1_565
O30 V2 2.133443 1_665
O31 P0 1.564168 1_565
O31 V0 2.147710 1_666
O31 V1 2.147710 1_566
F0 Li15 1.917716 1_545
F0 V0 2.158991 1_556
F0 V1 2.158991 1_556
F1 Li6 1.980970 1_555
F1 V3 2.166626 1_555
F1 V2 2.166626 1_655
F1 Li0 2.470769 1_555
F1 Li2 2.504645 1_555
F1 Li3 2.504645 1_555
F2 Li1 1.980970 1_556
F2 V6 2.166626 1_556
F2 V7 2.166626 1_556
F2 Li7 2.470769 1_555
F2 Li4 2.504645 1_555
F2 Li5 2.504645 1_555
F3 Li8 1.917716 1_555
F3 V5 2.158991 1_555
F3 V4 2.158991 1_655
F4 Li7 1.917716 1_555
F4 V4 2.158991 1_555
F4 V5 2.158991 1_555
F5 Li14 1.980970 1_554
F5 V7 2.166626 1_555
F5 V6 2.166626 1_655
F5 Li8 2.470769 1_555
F5 Li11 2.504645 1_555
F5 Li10 2.504645 1_555
F6 Li9 1.980970 1_555
F6 V3 2.166626 1_565
F6 V2 2.166626 1_565
F6 Li15 2.470769 1_555
F6 Li13 2.504645 1_555
F6 Li12 2.504645 1_555
F7 Li0 1.917716 1_565
F7 V1 2.158991 1_565
F7 V0 2.158991 1_665
