# generated using pymatgen
data_Pb(SN)2
_symmetry_space_group_name_H-M   'P 1'
_cell_length_a   17.32021900
_cell_length_b   5.48013500
_cell_length_c   6.41978252
_cell_angle_alpha   86.23702092
_cell_angle_beta   90.00000000
_cell_angle_gamma   90.00000000
_symmetry_Int_Tables_number   1
_chemical_formula_structural   Pb(SN)2
_chemical_formula_sum   'Pb4 S8 N8'
_cell_volume   608.03368307
_cell_formula_units_Z   4
loop_
 _symmetry_equiv_pos_site_id
 _symmetry_equiv_pos_as_xyz
  1  'x, y, z'
loop_
 _atom_site_type_symbol
 _atom_site_label
 _atom_site_symmetry_multiplicity
 _atom_site_fract_x
 _atom_site_fract_y
 _atom_site_fract_z
 _atom_site_occupancy
  Pb  Pb0  1  0.94214700  0.85631200  0.75529700  1
  Pb  Pb1  1  0.44214700  0.64368800  0.24470300  1
  Pb  Pb2  1  0.05785300  0.14368800  0.24470300  1
  Pb  Pb3  1  0.55785300  0.35631200  0.75529700  1
  S  S0  1  0.45535500  0.77175200  0.65439700  1
  S  S1  1  0.95535500  0.72824800  0.34560300  1
  S  S2  1  0.54464500  0.22824800  0.34560300  1
  S  S3  1  0.04464500  0.27175200  0.65439700  1
  S  S4  1  0.32020200  0.48123500  0.62717000  1
  S  S5  1  0.82020200  0.01876500  0.37283000  1
  S  S6  1  0.67979800  0.51876500  0.37283000  1
  S  S7  1  0.17979800  0.98123500  0.62717000  1
  N  N0  1  0.37779600  0.62527800  0.76876600  1
  N  N1  1  0.87779600  0.87472200  0.23123400  1
  N  N2  1  0.62220400  0.37472200  0.23123400  1
  N  N3  1  0.12220400  0.12527800  0.76876600  1
  N  N4  1  0.33628700  0.46469400  0.39601900  1
  N  N5  1  0.83628700  0.03530600  0.60398100  1
  N  N6  1  0.66371300  0.53530600  0.60398100  1
  N  N7  1  0.16371300  0.96469400  0.39601900  1
loop_
_geom_bond_atom_site_label_1
_geom_bond_atom_site_label_2
_geom_bond_distance
_geom_bond_site_symmetry_2
Pb0 S1 2.775756 1_555
Pb0 S3 2.925898 1_665
Pb1 S0 2.775756 1_555
Pb1 S2 2.925898 1_555
Pb2 S3 2.775756 1_555
Pb2 S1 2.925898 1_445
Pb3 S2 2.775756 1_555
Pb3 S0 2.925898 1_555
N0 S4 1.593328 1_555
N0 S0 1.706051 1_555
N1 S5 1.593328 1_565
N1 S1 1.706051 1_555
N2 S6 1.593328 1_555
N2 S2 1.706051 1_555
N3 S7 1.593328 1_545
N3 S3 1.706051 1_555
N4 S4 1.518408 1_555
N4 Pb1 2.267720 1_555
N5 S5 1.518408 1_555
N5 Pb0 2.267720 1_545
N6 S6 1.518408 1_555
N6 Pb3 2.267720 1_555
N7 S7 1.518408 1_555
N7 Pb2 2.267720 1_565
