# generated using pymatgen
data_Li6Cr3Co(PO4)6
_symmetry_space_group_name_H-M   'P 1'
_cell_length_a   8.48080800
_cell_length_b   8.51326264
_cell_length_c   8.51518991
_cell_angle_alpha   61.42202530
_cell_angle_beta   61.45099825
_cell_angle_gamma   61.44284534
_symmetry_Int_Tables_number   1
_chemical_formula_structural   Li6Cr3Co(PO4)6
_chemical_formula_sum   'Li6 Cr3 Co1 P6 O24'
_cell_volume   448.76763511
_cell_formula_units_Z   1
loop_
 _symmetry_equiv_pos_site_id
 _symmetry_equiv_pos_as_xyz
  1  'x, y, z'
loop_
 _atom_site_type_symbol
 _atom_site_label
 _atom_site_symmetry_multiplicity
 _atom_site_fract_x
 _atom_site_fract_y
 _atom_site_fract_z
 _atom_site_occupancy
  Li  Li0  1  0.97679300  0.00762800  0.99811700  1
  Li  Li1  1  0.24981300  0.65075800  0.84934900  1
  Li  Li2  1  0.52427600  0.50262300  0.49455400  1
  Li  Li3  1  0.76419200  0.34462600  0.15000500  1
  Li  Li4  1  0.34328100  0.15271900  0.76551100  1
  Li  Li5  1  0.15197900  0.76746700  0.34184200  1
  Cr  Cr0  1  0.85991900  0.86198400  0.85652200  1
  Cr  Cr1  1  0.64033200  0.64376500  0.63775100  1
  Cr  Cr2  1  0.35760200  0.35608700  0.35526700  1
  Co  Co0  1  0.14206100  0.14427000  0.14361500  1
  P  P0  1  0.95510000  0.54176500  0.24950800  1
  P  P1  1  0.54216700  0.24973800  0.95509800  1
  P  P2  1  0.24963800  0.95847000  0.53801500  1
  P  P3  1  0.75252600  0.04018700  0.45942300  1
  P  P4  1  0.45731800  0.75258600  0.03628900  1
  P  P5  1  0.04190900  0.46269300  0.75296000  1
  O  O0  1  0.87032100  0.50001500  0.71164800  1
  O  O1  1  0.70135600  0.87935600  0.48618800  1
  O  O2  1  0.95645400  0.72748000  0.07731200  1
  O  O3  1  0.46733400  0.70577100  0.87807000  1
  O  O4  1  0.76290100  0.56465300  0.40866800  1
  O  O5  1  0.97911500  0.37750300  0.19826600  1
  O  O6  1  0.73479900  0.09092100  0.93432000  1
  O  O7  1  0.54232600  0.42257200  0.76982700  1
  O  O8  1  0.40726000  0.76168800  0.56296700  1
  O  O9  1  0.79825500  0.01317200  0.62328100  1
  O  O10  1  0.92067300  0.05692900  0.26420100  1
  O  O11  1  0.63209300  0.78790700  0.99876700  1
  O  O12  1  0.37730500  0.19586800  0.98332700  1
  O  O13  1  0.09232200  0.93616700  0.73509300  1
  O  O14  1  0.19567000  0.98305500  0.37652700  1
  O  O15  1  0.59331800  0.23752900  0.43015400  1
  O  O16  1  0.43065800  0.59353300  0.23293300  1
  O  O17  1  0.26596000  0.92330500  0.05634500  1
  O  O18  1  0.03214400  0.62406200  0.79395500  1
  O  O19  1  0.23546000  0.42912400  0.59157700  1
  O  O20  1  0.51570100  0.30372600  0.11665200  1
  O  O21  1  0.05594000  0.26864000  0.92129600  1
  O  O22  1  0.30620100  0.11752200  0.51035700  1
  O  O23  1  0.11753000  0.51113100  0.30544100  1
loop_
_geom_bond_atom_site_label_1
_geom_bond_atom_site_label_2
_geom_bond_distance
_geom_bond_site_symmetry_2
Li0 O6 2.077413 1_555
Li0 O2 2.217215 1_546
Li0 O13 2.232164 1_645
Li0 O10 2.285698 1_556
Li0 O21 2.330603 1_655
Li0 O17 2.431841 1_646
Li1 O8 2.124047 1_555
Li1 O13 2.124140 1_555
Li1 O18 2.240054 1_555
Li1 O3 2.247020 1_555
Li1 O2 2.329749 1_456
Li1 O7 2.330624 1_555
Li2 O4 2.036377 1_555
Li2 O7 2.167295 1_555
Li2 O8 2.184590 1_555
Li2 O15 2.313114 1_555
Li2 O16 2.376097 1_555
Li2 O19 2.471866 1_555
Li3 O15 2.121358 1_555
Li3 O10 2.133739 1_555
Li3 O5 2.209815 1_555
Li3 O21 2.324320 1_654
Li3 O20 2.451792 1_555
Li3 O16 2.604190 1_555
Li4 O19 2.114213 1_555
Li4 O21 2.129652 1_555
Li4 O12 2.218780 1_555
Li4 O17 2.328604 1_546
Li4 O22 2.505039 1_555
Li4 O15 2.622186 1_555
Li5 O17 2.121057 1_555
Li5 O16 2.123988 1_555
Li5 O14 2.206005 1_555
Li5 O10 2.327459 1_465
Li5 O23 2.507371 1_555
Li5 O19 2.636165 1_555
Cr0 O9 1.943777 1_565
Cr0 O11 1.948146 1_555
Cr0 O6 1.987340 1_565
Cr0 O13 1.992507 1_655
Cr0 O18 1.994986 1_655
Cr0 O2 2.007838 1_556
Cr1 O1 1.957971 1_555
Cr1 O0 1.962725 1_555
Cr1 O4 1.997187 1_555
Cr1 O8 2.003685 1_555
Cr1 O3 2.010501 1_555
Cr1 O7 2.019518 1_555
Cr2 O23 1.946306 1_555
Cr2 O22 1.946552 1_555
Cr2 O20 1.953463 1_555
Cr2 O15 2.023669 1_555
Cr2 O19 2.024250 1_555
Cr2 O16 2.030068 1_555
Co0 O14 1.919618 1_545
Co0 O12 1.922934 1_554
Co0 O5 1.927363 1_455
Co0 O10 1.973319 1_455
Co0 O17 1.973891 1_545
Co0 O21 1.975574 1_554
O0 P5 1.510838 1_655
O1 P3 1.513263 1_565
O2 P0 1.559864 1_555
O3 P4 1.533992 1_556
O4 P0 1.539199 1_555
O5 P0 1.553682 1_555
O6 P1 1.539171 1_555
O7 P1 1.559782 1_555
O8 P2 1.558352 1_555
O9 P3 1.508324 1_555
O10 P3 1.587165 1_555
O11 P4 1.507005 1_556
O12 P1 1.552193 1_555
O13 P2 1.558714 1_555
O14 P2 1.542344 1_555
O15 P3 1.568436 1_555
O16 P4 1.565276 1_555
O17 P4 1.578829 1_555
O18 P5 1.529174 1_555
O19 P5 1.560674 1_555
O20 P1 1.537925 1_554
O21 P5 1.583536 1_555
O22 P2 1.525438 1_545
O23 P0 1.535339 1_455
