# generated using pymatgen
data_Fe8O9
_symmetry_space_group_name_H-M   'P 1'
_cell_length_a   6.19122700
_cell_length_b   6.83548476
_cell_length_c   9.26247020
_cell_angle_alpha   102.96090821
_cell_angle_beta   90.29095650
_cell_angle_gamma   103.72882183
_symmetry_Int_Tables_number   1
_chemical_formula_structural   Fe8O9
_chemical_formula_sum   'Fe16 O18'
_cell_volume   370.38316944
_cell_formula_units_Z   2
loop_
 _symmetry_equiv_pos_site_id
 _symmetry_equiv_pos_as_xyz
  1  'x, y, z'
loop_
 _atom_site_type_symbol
 _atom_site_label
 _atom_site_symmetry_multiplicity
 _atom_site_fract_x
 _atom_site_fract_y
 _atom_site_fract_z
 _atom_site_occupancy
  Fe  Fe0  1  0.50348000  0.99352800  0.99792500  1
  Fe  Fe1  1  0.83345200  0.32780000  0.89032600  1
  Fe  Fe2  1  0.16615400  0.66933300  0.77760500  1
  Fe  Fe3  1  0.49388500  0.00768300  0.66364500  1
  Fe  Fe4  1  0.32827800  0.32870000  0.88797900  1
  Fe  Fe5  1  0.65856100  0.65602700  0.44706000  1
  Fe  Fe6  1  0.66184300  0.66240600  0.77465800  1
  Fe  Fe7  1  0.84035400  0.33752500  0.55738300  1
  Fe  Fe8  1  0.00037800  0.00008400  0.67128900  1
  Fe  Fe9  1  0.17187100  0.65729400  0.44549800  1
  Fe  Fe10  1  0.49811000  0.00429000  0.33940500  1
  Fe  Fe11  1  0.83841800  0.32991100  0.21816200  1
  Fe  Fe12  1  0.00741800  0.00393200  0.33541800  1
  Fe  Fe13  1  0.15887800  0.68083300  0.10826800  1
  Fe  Fe14  1  0.32745800  0.33147400  0.21789900  1
  Fe  Fe15  1  0.67457300  0.67600400  0.10940700  1
  O  O0  1  0.89339300  0.64026000  0.93846800  1
  O  O1  1  0.26944400  0.00130400  0.81886000  1
  O  O2  1  0.41290500  0.65780200  0.94317900  1
  O  O3  1  0.59744000  0.32004700  0.73257600  1
  O  O4  1  0.73503000  0.01119000  0.82374000  1
  O  O5  1  0.91722000  0.66604400  0.60868600  1
  O  O6  1  0.05943400  0.33446200  0.73744600  1
  O  O7  1  0.25471800  0.97883800  0.49407800  1
  O  O8  1  0.43305300  0.69565500  0.61675200  1
  O  O9  1  0.59885500  0.32537600  0.37082500  1
  O  O10  1  0.73238000  0.00153500  0.49973800  1
  O  O11  1  0.91156600  0.65692200  0.28082500  1
  O  O12  1  0.06717200  0.33549700  0.37206600  1
  O  O13  1  0.27775700  0.99932300  0.17884000  1
  O  O14  1  0.42765700  0.68019500  0.27692700  1
  O  O15  1  0.60096100  0.32865600  0.05715200  1
  O  O16  1  0.74001800  0.01189400  0.18903800  1
  O  O17  1  0.07455200  0.35484300  0.06331900  1
loop_
_geom_bond_atom_site_label_1
_geom_bond_atom_site_label_2
_geom_bond_distance
_geom_bond_site_symmetry_2
Fe0 O15 2.165521 1_566
Fe0 O4 2.168281 1_565
Fe0 O2 2.168462 1_555
Fe0 O13 2.186985 1_556
Fe0 O1 2.214709 1_565
Fe0 O16 2.254031 1_566
Fe1 O6 1.995887 1_655
Fe1 O0 2.023154 1_555
Fe1 O3 2.044437 1_555
Fe1 O4 2.051067 1_555
Fe1 O15 2.117111 1_556
Fe1 O17 2.131129 1_656
Fe2 O1 2.150334 1_565
Fe2 O6 2.170753 1_555
Fe2 O5 2.183370 1_455
Fe2 O2 2.186239 1_555
Fe2 O8 2.233121 1_555
Fe2 O0 2.260628 1_455
Fe3 O1 2.004832 1_555
Fe3 O8 2.020174 1_545
Fe3 O3 2.027849 1_555
Fe3 O4 2.091190 1_555
Fe3 O7 2.096941 1_545
Fe3 O10 2.123800 1_555
Fe4 O2 2.125652 1_555
Fe4 O1 2.125751 1_555
Fe4 O6 2.179059 1_555
Fe4 O3 2.210295 1_555
Fe4 O17 2.272926 1_556
Fe4 O15 2.297632 1_556
Fe5 O8 2.122248 1_555
Fe5 O9 2.151387 1_555
Fe5 O5 2.165185 1_555
Fe5 O14 2.181809 1_555
Fe5 O11 2.201971 1_555
Fe5 O10 2.234534 1_565
Fe6 O8 2.116169 1_555
Fe6 O0 2.136390 1_555
Fe6 O2 2.199160 1_555
Fe6 O5 2.210652 1_555
Fe6 O3 2.221205 1_555
Fe6 O4 2.257193 1_565
Fe7 O5 2.122907 1_555
Fe7 O6 2.151280 1_655
Fe7 O10 2.173514 1_555
Fe7 O3 2.221662 1_555
Fe7 O12 2.222970 1_655
Fe7 O9 2.253629 1_555
Fe8 O1 2.146771 1_555
Fe8 O5 2.158691 1_445
Fe8 O6 2.169356 1_555
Fe8 O4 2.175609 1_455
Fe8 O7 2.285344 1_545
Fe8 O10 2.294808 1_455
Fe9 O7 2.077326 1_555
Fe9 O12 2.090177 1_555
Fe9 O8 2.187652 1_555
Fe9 O5 2.191430 1_455
Fe9 O11 2.212489 1_455
Fe9 O14 2.233247 1_555
Fe10 O13 2.002237 1_545
Fe10 O16 2.049962 1_555
Fe10 O10 2.076816 1_555
Fe10 O9 2.086300 1_555
Fe10 O7 2.088730 1_545
Fe10 O14 2.096809 1_545
Fe11 O12 1.992190 1_655
Fe11 O9 2.054130 1_555
Fe11 O17 2.058169 1_655
Fe11 O16 2.067854 1_555
Fe11 O15 2.086036 1_555
Fe11 O11 2.115021 1_555
Fe12 O16 2.152935 1_455
Fe12 O12 2.155073 1_555
Fe12 O7 2.179040 1_545
Fe12 O13 2.221468 1_545
Fe12 O11 2.241640 1_445
Fe12 O10 2.289247 1_455
Fe13 O13 2.074775 1_555
Fe13 O17 2.107291 1_555
Fe13 O0 2.194061 1_454
Fe13 O2 2.206920 1_554
Fe13 O11 2.224636 1_455
Fe13 O14 2.278095 1_555
Fe14 O12 2.159522 1_555
Fe14 O13 2.163135 1_545
Fe14 O17 2.173894 1_555
Fe14 O9 2.206135 1_555
Fe14 O14 2.252943 1_555
Fe14 O15 2.261148 1_555
Fe15 O0 2.099368 1_554
Fe15 O14 2.184110 1_555
Fe15 O16 2.185278 1_565
Fe15 O2 2.191737 1_554
Fe15 O11 2.202489 1_555
Fe15 O15 2.246751 1_555
