# generated using pymatgen
data_Li4Ni(BO3)2
_symmetry_space_group_name_H-M   'P 1'
_cell_length_a   6.49948000
_cell_length_b   9.36387700
_cell_length_c   8.52318490
_cell_angle_alpha   89.99938469
_cell_angle_beta   112.41371679
_cell_angle_gamma   90.00007540
_symmetry_Int_Tables_number   1
_chemical_formula_structural   Li4Ni(BO3)2
_chemical_formula_sum   'Li16 Ni4 B8 O24'
_cell_volume   479.53674741
_cell_formula_units_Z   4
loop_
 _symmetry_equiv_pos_site_id
 _symmetry_equiv_pos_as_xyz
  1  'x, y, z'
loop_
 _atom_site_type_symbol
 _atom_site_label
 _atom_site_symmetry_multiplicity
 _atom_site_fract_x
 _atom_site_fract_y
 _atom_site_fract_z
 _atom_site_occupancy
  Li  Li0  1  0.33400400  0.05931300  0.16818600  1
  Li  Li1  1  0.83406300  0.05933400  0.16822000  1
  Li  Li2  1  0.33410300  0.44067600  0.66850200  1
  Li  Li3  1  0.83424600  0.44068400  0.66844500  1
  Li  Li4  1  0.16591200  0.55931700  0.33188200  1
  Li  Li5  1  0.66605400  0.55933100  0.33182700  1
  Li  Li6  1  0.66586500  0.94069500  0.83160100  1
  Li  Li7  1  0.16581200  0.94067900  0.83156800  1
  Li  Li8  1  0.00039300  0.20957400  0.00061200  1
  Li  Li9  1  0.50026400  0.20957500  0.00060400  1
  Li  Li10  1  0.50032800  0.29060100  0.50074200  1
  Li  Li11  1  0.00042500  0.29051100  0.50073000  1
  Li  Li12  1  0.49972300  0.70953000  0.49940500  1
  Li  Li13  1  0.99963500  0.70962300  0.49939900  1
  Li  Li14  1  0.49967800  0.79055300  0.99927500  1
  Li  Li15  1  0.99955700  0.79054800  0.99925400  1
  Ni  Ni0  1  0.74993900  0.00019800  0.49945800  1
  Ni  Ni1  1  0.75025500  0.49973900  0.00019900  1
  Ni  Ni2  1  0.24988800  0.99970000  0.49984200  1
  Ni  Ni3  1  0.25037100  0.50056500  0.00049900  1
  B  B0  1  0.63179700  0.19570700  0.76370900  1
  B  B1  1  0.13180100  0.19566000  0.76366700  1
  B  B2  1  0.13182300  0.30423800  0.26372300  1
  B  B3  1  0.63182900  0.30424800  0.26375500  1
  B  B4  1  0.36813000  0.69570900  0.73632000  1
  B  B5  1  0.86814200  0.69572500  0.73634900  1
  B  B6  1  0.36807200  0.80424900  0.23619700  1
  B  B7  1  0.86806900  0.80429400  0.23623100  1
  O  O0  1  0.55714600  0.10869000  0.61444300  1
  O  O1  1  0.05715900  0.10856700  0.61441900  1
  O  O2  1  0.05726600  0.39135600  0.11451300  1
  O  O3  1  0.55725800  0.39132500  0.11456100  1
  O  O4  1  0.44279200  0.60867900  0.88557200  1
  O  O5  1  0.94278200  0.60865400  0.88559600  1
  O  O6  1  0.44267900  0.89125700  0.38546400  1
  O  O7  1  0.94266400  0.89137300  0.38546100  1
  O  O8  1  0.12429300  0.15660300  0.24872300  1
  O  O9  1  0.62430800  0.15658900  0.24879700  1
  O  O10  1  0.62430800  0.34341100  0.74879100  1
  O  O11  1  0.12424300  0.34330200  0.74860300  1
  O  O12  1  0.37564900  0.65651500  0.25113100  1
  O  O13  1  0.87572800  0.65663800  0.25129500  1
  O  O14  1  0.37569400  0.84338400  0.75123900  1
  O  O15  1  0.87572500  0.84335000  0.75129400  1
  O  O16  1  0.70939700  0.13156600  0.91869200  1
  O  O17  1  0.20943600  0.13151500  0.91864900  1
  O  O18  1  0.20943300  0.36839900  0.41874500  1
  O  O19  1  0.70946400  0.36840400  0.41877700  1
  O  O20  1  0.29058600  0.63152800  0.58126900  1
  O  O21  1  0.79063400  0.63154400  0.58130000  1
  O  O22  1  0.29060200  0.86836700  0.08121600  1
  O  O23  1  0.79057400  0.86840900  0.08125000  1
loop_
_geom_bond_atom_site_label_1
_geom_bond_atom_site_label_2
_geom_bond_distance
_geom_bond_site_symmetry_2
Li0 O22 1.914821 1_545
Li0 O8 1.967850 1_555
Li0 O9 1.968067 1_555
Li0 O17 2.079164 1_554
Li0 O6 2.325354 1_545
Li1 O23 1.914637 1_545
Li1 O8 1.967655 1_655
Li1 O9 1.968144 1_555
Li1 O16 2.079188 1_554
Li1 O7 2.324537 1_545
Li2 O20 1.914727 1_555
Li2 O11 1.966731 1_555
Li2 O10 1.967530 1_555
Li2 O18 2.081045 1_555
Li2 O4 2.323837 1_555
Li3 O21 1.914549 1_555
Li3 O11 1.966941 1_655
Li3 O10 1.967989 1_555
Li3 O19 2.080391 1_555
Li3 O5 2.324098 1_555
Li4 O18 1.914260 1_555
Li4 O13 1.967617 1_455
Li4 O12 1.968701 1_555
Li4 O20 2.078087 1_555
Li4 O2 2.325306 1_555
Li5 O19 1.914584 1_555
Li5 O13 1.967691 1_555
Li5 O12 1.968194 1_555
Li5 O21 2.078734 1_555
Li5 O3 2.324993 1_555
Li6 O16 1.914506 1_565
Li6 O14 1.967541 1_555
Li6 O15 1.967688 1_555
Li6 O23 2.080254 1_556
Li6 O0 2.324271 1_565
Li7 O17 1.914172 1_565
Li7 O15 1.967181 1_455
Li7 O14 1.967704 1_555
Li7 O22 2.080325 1_556
Li7 O1 2.323541 1_565
Li8 O16 1.895033 1_454
Li8 O17 1.895282 1_554
Li8 O2 1.924292 1_555
Li8 O8 2.016879 1_555
Li9 O17 1.894281 1_554
Li9 O16 1.895324 1_554
Li9 O3 1.924233 1_555
Li9 O9 2.017540 1_555
Li10 O18 1.893701 1_555
Li10 O19 1.894881 1_555
Li10 O0 1.924609 1_555
Li10 O10 2.016046 1_555
Li11 O19 1.894416 1_455
Li11 O18 1.894583 1_555
Li11 O1 1.924839 1_555
Li11 O11 2.014658 1_555
Li12 O21 1.894479 1_555
Li12 O20 1.895051 1_555
Li12 O6 1.923966 1_555
Li12 O12 2.018236 1_555
Li13 O21 1.894773 1_555
Li13 O20 1.895098 1_655
Li13 O7 1.924145 1_555
Li13 O13 2.016869 1_555
Li14 O23 1.893922 1_556
Li14 O22 1.894462 1_556
Li14 O4 1.924327 1_555
Li14 O14 2.015984 1_555
Li15 O23 1.894414 1_556
Li15 O22 1.894621 1_656
Li15 O5 1.924328 1_555
Li15 O15 2.015337 1_555
Ni0 O7 2.116512 1_545
Ni0 O1 2.117761 1_655
Ni0 O6 2.119699 1_545
Ni0 O0 2.121130 1_555
Ni0 O9 2.458707 1_555
Ni0 O15 2.468693 1_545
Ni1 O2 2.116212 1_655
Ni1 O3 2.118140 1_555
Ni1 O5 2.119459 1_554
Ni1 O4 2.121239 1_554
Ni1 O10 2.463112 1_554
Ni1 O13 2.464319 1_555
Ni2 O7 2.117088 1_455
Ni2 O6 2.117348 1_555
Ni2 O1 2.120109 1_565
Ni2 O0 2.120429 1_565
Ni2 O14 2.462949 1_555
Ni2 O8 2.464461 1_565
Ni3 O4 2.117230 1_554
Ni3 O5 2.118287 1_454
Ni3 O3 2.119239 1_555
Ni3 O2 2.120226 1_555
Ni3 O12 2.456091 1_555
Ni3 O11 2.471412 1_554
B0 O16 1.360860 1_555
B0 O10 1.388067 1_555
B0 O0 1.430799 1_555
B1 O17 1.360870 1_555
B1 O11 1.387586 1_555
B1 O1 1.431088 1_555
B2 O18 1.361230 1_555
B2 O8 1.387480 1_555
B2 O2 1.430960 1_555
B3 O19 1.361210 1_555
B3 O9 1.387676 1_555
B3 O3 1.430638 1_555
B4 O20 1.361518 1_555
B4 O14 1.387799 1_555
B4 O4 1.430763 1_555
B5 O21 1.361504 1_555
B5 O15 1.387350 1_555
B5 O5 1.430949 1_555
B6 O22 1.360751 1_555
B6 O12 1.388357 1_555
B6 O6 1.430757 1_555
B7 O23 1.360738 1_555
B7 O13 1.387717 1_555
B7 O7 1.430896 1_555
