# generated using pymatgen
data_Li5Cu(PO4)2
_symmetry_space_group_name_H-M   'P 1'
_cell_length_a   5.35367100
_cell_length_b   6.20281806
_cell_length_c   9.95127512
_cell_angle_alpha   89.89371957
_cell_angle_beta   89.99831877
_cell_angle_gamma   89.99185292
_symmetry_Int_Tables_number   1
_chemical_formula_structural   Li5Cu(PO4)2
_chemical_formula_sum   'Li10 Cu2 P4 O16'
_cell_volume   330.45985158
_cell_formula_units_Z   2
loop_
 _symmetry_equiv_pos_site_id
 _symmetry_equiv_pos_as_xyz
  1  'x, y, z'
loop_
 _atom_site_type_symbol
 _atom_site_label
 _atom_site_symmetry_multiplicity
 _atom_site_fract_x
 _atom_site_fract_y
 _atom_site_fract_z
 _atom_site_occupancy
  Li  Li0  1  0.84493600  0.00003900  0.74562600  1
  Li  Li1  1  0.84366600  0.99980500  0.24569600  1
  Li  Li2  1  0.67245100  0.24557500  0.49435700  1
  Li  Li3  1  0.67340700  0.24815300  0.99683700  1
  Li  Li4  1  0.32699800  0.25228600  0.24465200  1
  Li  Li5  1  0.15529400  0.50044700  0.99599000  1
  Li  Li6  1  0.15616300  0.49925700  0.49506400  1
  Li  Li7  1  0.32852500  0.74747400  0.74537400  1
  Li  Li8  1  0.32595200  0.74624800  0.24600800  1
  Li  Li9  1  0.67316600  0.75232800  0.49400400  1
  Cu  Cu0  1  0.33424400  0.25673300  0.74849900  1
  Cu  Cu1  1  0.66550500  0.75648500  0.99900700  1
  P  P0  1  0.17389400  0.00215100  0.00206700  1
  P  P1  1  0.17311200  0.99721300  0.49650400  1
  P  P2  1  0.82645300  0.49812700  0.25246600  1
  P  P3  1  0.82648700  0.50118400  0.74627300  1
  O  O0  1  0.17339200  0.99106600  0.65349300  1
  O  O1  1  0.89678600  0.99859800  0.44665900  1
  O  O2  1  0.17623200  0.99628000  0.15829700  1
  O  O3  1  0.90152000  0.01428900  0.94705500  1
  O  O4  1  0.31126300  0.20390800  0.44570200  1
  O  O5  1  0.31863800  0.20906200  0.95690400  1
  O  O6  1  0.68805600  0.29430300  0.19814500  1
  O  O7  1  0.70294000  0.29053500  0.69079800  1
  O  O8  1  0.82808200  0.49110100  0.90305700  1
  O  O9  1  0.10059100  0.51296200  0.69349900  1
  O  O10  1  0.82204600  0.49637100  0.40870300  1
  O  O11  1  0.10120600  0.50010800  0.20031500  1
  O  O12  1  0.68326700  0.70490200  0.69631800  1
  O  O13  1  0.68655500  0.70797900  0.20630300  1
  O  O14  1  0.31186700  0.79190700  0.44451100  1
  O  O15  1  0.29730800  0.79312500  0.94441000  1
loop_
_geom_bond_atom_site_label_1
_geom_bond_atom_site_label_2
_geom_bond_distance
_geom_bond_site_symmetry_2
Li0 O0 1.983908 1_645
Li0 O3 2.029336 1_555
Li0 O7 2.029384 1_555
Li0 O12 2.084489 1_545
Li1 O2 1.981635 1_655
Li1 O1 2.019966 1_555
Li1 O13 2.034911 1_555
Li1 O6 2.061849 1_565
Li2 O10 1.945086 1_555
Li2 O7 1.981884 1_555
Li2 O1 2.004185 1_545
Li2 O4 2.010227 1_555
Li3 O8 1.955163 1_555
Li3 O5 1.955670 1_555
Li3 O3 1.960424 1_555
Li3 O6 2.025669 1_556
Li4 O2 1.979152 1_545
Li4 O11 2.003960 1_555
Li4 O6 2.004542 1_555
Li4 O4 2.024285 1_555
Li5 O8 1.981841 1_455
Li5 O15 2.033275 1_555
Li5 O5 2.045698 1_555
Li5 O11 2.053799 1_556
Li6 O10 1.984612 1_455
Li6 O9 1.998922 1_555
Li6 O14 2.059153 1_555
Li6 O4 2.071201 1_555
Li7 O0 1.950215 1_555
Li7 O9 1.968469 1_555
Li7 O12 1.978680 1_555
Li7 O15 2.008279 1_555
Li8 O2 1.950460 1_555
Li8 O13 1.984857 1_555
Li8 O11 1.997152 1_555
Li8 O14 1.997498 1_555
Li9 O10 1.970050 1_555
Li9 O1 1.996626 1_555
Li9 O14 2.010906 1_555
Li9 O12 2.034840 1_555
Cu0 O7 2.066267 1_555
Cu0 O0 2.087383 1_545
Cu0 O9 2.094414 1_555
Cu0 O5 2.095991 1_555
Cu1 O15 2.057174 1_555
Cu1 O13 2.087179 1_556
Cu1 O8 2.093889 1_555
Cu1 O3 2.102012 1_565
O0 P1 1.562636 1_555
O1 P1 1.560332 1_655
O2 P0 1.555097 1_565
O3 P0 1.559349 1_656
O4 P1 1.563396 1_545
O5 P0 1.564543 1_556
O6 P2 1.562826 1_555
O7 P3 1.566026 1_555
O8 P3 1.561361 1_555
O9 P3 1.560266 1_455
O10 P2 1.554954 1_555
O11 P2 1.559831 1_455
O12 P3 1.558589 1_555
O13 P2 1.569670 1_555
O14 P1 1.563143 1_555
O15 P0 1.565019 1_566
