# generated using pymatgen
data_Li6Fe3Co3O16
_symmetry_space_group_name_H-M   'P 1'
_cell_length_a   5.72094200
_cell_length_b   5.75005444
_cell_length_c   9.83798141
_cell_angle_alpha   90.36249696
_cell_angle_beta   90.30685304
_cell_angle_gamma   119.57701823
_symmetry_Int_Tables_number   1
_chemical_formula_structural   Li6Fe3Co3O16
_chemical_formula_sum   'Li6 Fe3 Co3 O16'
_cell_volume   281.43760992
_cell_formula_units_Z   1
loop_
 _symmetry_equiv_pos_site_id
 _symmetry_equiv_pos_as_xyz
  1  'x, y, z'
loop_
 _atom_site_type_symbol
 _atom_site_label
 _atom_site_symmetry_multiplicity
 _atom_site_fract_x
 _atom_site_fract_y
 _atom_site_fract_z
 _atom_site_occupancy
  Li  Li0  1  0.33476300  0.67202400  0.49837900  1
  Li  Li1  1  0.32875800  0.66172800  0.11108500  1
  Li  Li2  1  0.01525100  0.01228800  0.99975300  1
  Li  Li3  1  0.01266100  0.00706000  0.50130600  1
  Li  Li4  1  0.66688100  0.33254500  0.00035800  1
  Li  Li5  1  0.66153000  0.32799600  0.61026600  1
  Fe  Fe0  1  0.66290200  0.83003900  0.78517300  1
  Fe  Fe1  1  0.82936500  0.16771300  0.28547000  1
  Fe  Fe2  1  0.82946700  0.66240100  0.28425600  1
  Co  Co0  1  0.16699200  0.33385800  0.78627600  1
  Co  Co1  1  0.17015400  0.83095300  0.78409400  1
  Co  Co2  1  0.33567200  0.16777700  0.28557600  1
  O  O0  1  0.15734800  0.31102200  0.38731900  1
  O  O1  1  0.02829500  0.51191300  0.68448300  1
  O  O2  1  0.30933500  0.65853000  0.89415900  1
  O  O3  1  0.02095300  0.00611300  0.68367500  1
  O  O4  1  0.00639800  0.02051800  0.18298500  1
  O  O5  1  0.16057400  0.85061500  0.38429800  1
  O  O6  1  0.47606300  0.51348700  0.68018200  1
  O  O7  1  0.47243800  0.96249300  0.68020200  1
  O  O8  1  0.31468300  0.15772600  0.88483000  1
  O  O9  1  0.69165000  0.85021400  0.38931500  1
  O  O10  1  0.51246900  0.03050100  0.18016700  1
  O  O11  1  0.50845800  0.47663500  0.18193300  1
  O  O12  1  0.66037400  0.31244800  0.39611800  1
  O  O13  1  0.84950300  0.15815400  0.88487000  1
  O  O14  1  0.96458300  0.47724200  0.17858300  1
  O  O15  1  0.85247900  0.69570500  0.88704700  1
loop_
_geom_bond_atom_site_label_1
_geom_bond_atom_site_label_2
_geom_bond_distance
_geom_bond_site_symmetry_2
Li0 O5 2.078473 1_555
Li0 O9 2.083736 1_555
Li0 O0 2.100568 1_555
Li0 O7 2.293060 1_555
Li0 O6 2.327246 1_555
Li0 O1 2.394993 1_555
Li1 O14 1.936198 1_455
Li1 O11 1.938368 1_555
Li1 O10 1.958808 1_565
Li1 O2 2.135901 1_554
Li2 O4 1.804593 1_556
Li2 O8 1.878994 1_555
Li2 O13 1.914592 1_455
Li2 O15 1.923619 1_445
Li3 O3 1.794630 1_555
Li3 O5 1.897144 1_545
Li3 O0 1.898434 1_555
Li3 O9 1.931487 1_445
Li4 O8 2.079333 1_554
Li4 O13 2.102492 1_554
Li4 O15 2.141012 1_554
Li4 O14 2.284277 1_555
Li4 O11 2.332118 1_555
Li4 O10 2.338158 1_555
Li5 O1 1.958928 1_655
Li5 O7 1.960225 1_545
Li5 O6 1.962717 1_555
Li5 O12 2.107951 1_555
Fe0 O6 1.888448 1_555
Fe0 O15 1.898038 1_555
Fe0 O13 1.907426 1_565
Fe0 O7 1.910756 1_555
Fe0 O3 2.050709 1_665
Fe0 O2 2.069062 1_555
Fe1 O10 1.881483 1_555
Fe1 O14 1.882849 1_555
Fe1 O4 1.898693 1_655
Fe1 O12 1.899035 1_555
Fe1 O9 1.899920 1_545
Fe1 O0 1.909664 1_655
Fe2 O11 1.886010 1_555
Fe2 O14 1.902334 1_555
Fe2 O5 1.915952 1_655
Fe2 O9 1.921283 1_555
Fe2 O4 2.058299 1_665
Fe2 O12 2.076974 1_555
Co0 O13 1.865572 1_455
Co0 O1 1.867388 1_555
Co0 O6 1.874354 1_555
Co0 O8 1.878320 1_555
Co0 O3 1.918591 1_555
Co0 O2 1.933840 1_555
Co1 O7 1.828895 1_555
Co1 O1 1.866376 1_555
Co1 O15 1.888923 1_455
Co1 O3 1.889767 1_565
Co1 O2 1.890271 1_555
Co1 O8 1.905332 1_565
Co2 O11 1.863188 1_555
Co2 O5 1.871365 1_545
Co2 O10 1.873634 1_555
Co2 O0 1.884441 1_555
Co2 O4 1.917910 1_555
Co2 O12 1.940825 1_555
