# generated using pymatgen
data_Fe4O7F
_symmetry_space_group_name_H-M   'P 1'
_cell_length_a   9.28766100
_cell_length_b   5.53032100
_cell_length_c   5.54552368
_cell_angle_alpha   65.49225841
_cell_angle_beta   90.00000000
_cell_angle_gamma   90.00000000
_symmetry_Int_Tables_number   1
_chemical_formula_structural   Fe4O7F
_chemical_formula_sum   'Fe8 O14 F2'
_cell_volume   259.17638068
_cell_formula_units_Z   2
loop_
 _symmetry_equiv_pos_site_id
 _symmetry_equiv_pos_as_xyz
  1  'x, y, z'
loop_
 _atom_site_type_symbol
 _atom_site_label
 _atom_site_symmetry_multiplicity
 _atom_site_fract_x
 _atom_site_fract_y
 _atom_site_fract_z
 _atom_site_occupancy
  Fe  Fe0  1  0.12698700  0.99755900  0.00032600  1
  Fe  Fe1  1  0.61844300  0.01157800  0.99899100  1
  Fe  Fe2  1  0.37850500  0.50008000  0.01774700  1
  Fe  Fe3  1  0.38155700  0.01157800  0.49899100  1
  Fe  Fe4  1  0.88138200  0.48779100  0.98569000  1
  Fe  Fe5  1  0.87301300  0.99755900  0.50032600  1
  Fe  Fe6  1  0.62149500  0.50008000  0.51774700  1
  Fe  Fe7  1  0.11861800  0.48779100  0.48569000  1
  O  O0  1  0.28089800  0.16046200  0.15627900  1
  O  O1  1  0.77844500  0.15424900  0.15257400  1
  O  O2  1  0.96789600  0.34308700  0.33132500  1
  O  O3  1  0.47868300  0.35637400  0.35561900  1
  O  O4  1  0.71910200  0.16046200  0.65627900  1
  O  O5  1  0.22291100  0.65145100  0.15587100  1
  O  O6  1  0.22155500  0.15424900  0.65257400  1
  O  O7  1  0.53099500  0.84596000  0.35189800  1
  O  O8  1  0.52131700  0.35637400  0.85561900  1
  O  O9  1  0.03035600  0.83763800  0.34253800  1
  O  O10  1  0.03210400  0.34308700  0.83132500  1
  O  O11  1  0.77708900  0.65145100  0.65587100  1
  O  O12  1  0.46900500  0.84596000  0.85189800  1
  O  O13  1  0.96964400  0.83763800  0.84253800  1
  F  F0  1  0.72534200  0.65376900  0.15114300  1
  F  F1  1  0.27465800  0.65376900  0.65114300  1
loop_
_geom_bond_atom_site_label_1
_geom_bond_atom_site_label_2
_geom_bond_distance
_geom_bond_site_symmetry_2
Fe0 O9 1.948496 1_555
Fe0 O10 1.954642 1_564
Fe0 O5 1.957481 1_555
Fe0 O6 1.963395 1_564
Fe0 O0 2.061401 1_565
Fe0 O13 2.079764 1_454
Fe1 O8 1.955532 1_555
Fe1 O7 1.959974 1_546
Fe1 O4 1.966135 1_555
Fe1 O12 2.012579 1_545
Fe1 O1 2.028246 1_556
Fe2 O0 1.934567 1_555
Fe2 O12 1.936942 1_554
Fe2 O3 1.942309 1_555
Fe2 O8 1.947326 1_554
Fe2 O5 1.976815 1_555
Fe3 O3 1.955532 1_555
Fe3 O12 1.959974 1_545
Fe3 O0 1.966135 1_555
Fe3 O7 2.012579 1_545
Fe3 O6 2.028246 1_555
Fe4 O2 1.920243 1_556
Fe4 O11 1.931156 1_555
Fe4 O1 1.938236 1_556
Fe4 O13 1.941973 1_555
Fe4 O10 1.975131 1_655
Fe5 O13 1.948496 1_555
Fe5 O2 1.954642 1_565
Fe5 O11 1.957481 1_555
Fe5 O1 1.963395 1_565
Fe5 O4 2.061401 1_565
Fe5 O9 2.079764 1_655
Fe6 O4 1.934567 1_555
Fe6 O7 1.936942 1_555
Fe6 O8 1.942309 1_555
Fe6 O3 1.947326 1_555
Fe6 O11 1.976815 1_555
Fe7 O10 1.920243 1_555
Fe7 O5 1.931156 1_555
Fe7 O6 1.938236 1_555
Fe7 O9 1.941973 1_555
Fe7 O2 1.975131 1_455
F0 Fe1 2.056242 1_564
F0 Fe6 2.086200 1_555
F0 Fe4 2.117415 1_554
F1 Fe3 2.056242 1_565
F1 Fe2 2.086200 1_556
F1 Fe7 2.117415 1_555
