# generated using pymatgen
data_Tb
_symmetry_space_group_name_H-M   'P 1'
_cell_length_a   7.12753951
_cell_length_b   7.12753546
_cell_length_c   7.12753790
_cell_angle_alpha   59.99998860
_cell_angle_beta   60.00000737
_cell_angle_gamma   60.00000348
_symmetry_Int_Tables_number   1
_chemical_formula_structural   Tb
_chemical_formula_sum   Tb8
_cell_volume   256.03748696
_cell_formula_units_Z   8
loop_
 _symmetry_equiv_pos_site_id
 _symmetry_equiv_pos_as_xyz
  1  'x, y, z'
loop_
 _atom_site_type_symbol
 _atom_site_label
 _atom_site_symmetry_multiplicity
 _atom_site_fract_x
 _atom_site_fract_y
 _atom_site_fract_z
 _atom_site_occupancy
  Tb  Tb0_0  1  0.00000000  0.00000000  0.00000000  1
  Tb  Tb0_1  1  0.00000000  0.00000000  0.50000000  1
  Tb  Tb0_2  1  0.00000000  0.50000000  0.00000000  1
  Tb  Tb0_3  1  0.00000000  0.50000000  0.50000000  1
  Tb  Tb0_4  1  0.50000000  0.00000000  0.00000000  1
  Tb  Tb0_5  1  0.50000000  0.00000000  0.50000000  1
  Tb  Tb0_6  1  0.50000000  0.50000000  1.00000000  1
  Tb  Tb0_7  1  0.50000000  0.50000000  0.50000000  1
loop_
_geom_bond_atom_site_label_1
_geom_bond_atom_site_label_2
_geom_bond_distance
_geom_bond_site_symmetry_2
Tb0_0 Tb0_3 3.563768 1_554
Tb0_0 Tb0_3 3.563768 1_545
Tb0_0 Tb0_2 3.563768 1_555
Tb0_0 Tb0_2 3.563768 1_545
Tb0_0 Tb0_6 3.563769 1_544
Tb0_0 Tb0_6 3.563769 1_454
Tb0_0 Tb0_1 3.563769 1_554
Tb0_0 Tb0_1 3.563769 1_555
Tb0_0 Tb0_5 3.563770 1_554
Tb0_0 Tb0_5 3.563770 1_455
Tb0_0 Tb0_4 3.563770 1_455
Tb0_0 Tb0_4 3.563770 1_555
Tb0_1 Tb0_2 3.563768 1_546
Tb0_1 Tb0_2 3.563768 1_555
Tb0_1 Tb0_3 3.563768 1_545
Tb0_1 Tb0_3 3.563768 1_555
Tb0_1 Tb0_7 3.563769 1_545
Tb0_1 Tb0_7 3.563769 1_455
Tb0_1 Tb0_4 3.563770 1_555
Tb0_1 Tb0_4 3.563770 1_456
Tb0_1 Tb0_5 3.563770 1_455
Tb0_1 Tb0_5 3.563770 1_555
Tb0_2 Tb0_4 3.563769 1_465
Tb0_2 Tb0_4 3.563769 1_555
Tb0_2 Tb0_3 3.563769 1_554
Tb0_2 Tb0_3 3.563769 1_555
Tb0_2 Tb0_7 3.563770 1_455
Tb0_2 Tb0_7 3.563770 1_554
Tb0_2 Tb0_6 3.563770 1_454
Tb0_2 Tb0_6 3.563770 1_554
Tb0_3 Tb0_5 3.563769 1_555
Tb0_3 Tb0_5 3.563769 1_465
Tb0_3 Tb0_6 3.563770 1_455
Tb0_3 Tb0_6 3.563770 1_554
Tb0_3 Tb0_7 3.563770 1_455
Tb0_3 Tb0_7 3.563770 1_555
Tb0_4 Tb0_7 3.563768 1_545
Tb0_4 Tb0_7 3.563768 1_554
Tb0_4 Tb0_6 3.563768 1_544
Tb0_4 Tb0_6 3.563768 1_554
Tb0_4 Tb0_5 3.563769 1_554
Tb0_4 Tb0_5 3.563769 1_555
Tb0_5 Tb0_6 3.563768 1_545
Tb0_5 Tb0_6 3.563768 1_554
Tb0_5 Tb0_7 3.563768 1_545
Tb0_5 Tb0_7 3.563768 1_555
Tb0_6 Tb0_7 3.563769 1_555
Tb0_6 Tb0_7 3.563769 1_556
