# generated using pymatgen
data_Mn3(OF2)2
_symmetry_space_group_name_H-M   'P 1'
_cell_length_a   4.75342500
_cell_length_b   5.82591416
_cell_length_c   7.94128750
_cell_angle_alpha   87.17885102
_cell_angle_beta   88.41677222
_cell_angle_gamma   87.51284447
_symmetry_Int_Tables_number   1
_chemical_formula_structural   Mn3(OF2)2
_chemical_formula_sum   'Mn6 O4 F8'
_cell_volume   219.37336098
_cell_formula_units_Z   2
loop_
 _symmetry_equiv_pos_site_id
 _symmetry_equiv_pos_as_xyz
  1  'x, y, z'
loop_
 _atom_site_type_symbol
 _atom_site_label
 _atom_site_symmetry_multiplicity
 _atom_site_fract_x
 _atom_site_fract_y
 _atom_site_fract_z
 _atom_site_occupancy
  Mn  Mn0  1  0.52702100  0.51074700  0.00359500  1
  Mn  Mn1  1  0.50286700  0.83032200  0.66117000  1
  Mn  Mn2  1  0.46602300  0.18564100  0.34810800  1
  Mn  Mn3  1  0.00191600  0.33764600  0.67360900  1
  Mn  Mn4  1  0.00316000  0.65102400  0.31055200  1
  Mn  Mn5  1  0.98600200  0.98931300  0.00569800  1
  O  O0  1  0.81479300  0.69676100  0.09983900  1
  O  O1  1  0.70072900  0.53996500  0.76871900  1
  O  O2  1  0.29831300  0.13103600  0.57152500  1
  O  O3  1  0.30968700  0.47207300  0.22369600  1
  F  F0  1  0.80596400  0.36092200  0.44165900  1
  F  F1  1  0.79869400  0.04410000  0.76776300  1
  F  F2  1  0.68846100  0.19123300  0.12180200  1
  F  F3  1  0.70697700  0.86156400  0.42453100  1
  F  F4  1  0.30056300  0.80447300  0.89039100  1
  F  F5  1  0.18764500  0.63012100  0.54675600  1
  F  F6  1  0.20372600  0.96720300  0.23427600  1
  F  F7  1  0.19746000  0.29585300  0.90631300  1
loop_
_geom_bond_atom_site_label_1
_geom_bond_atom_site_label_2
_geom_bond_distance
_geom_bond_site_symmetry_2
Mn0 O0 1.974256 1_555
Mn0 O3 2.013648 1_555
Mn0 O1 2.021298 1_554
Mn1 O1 2.059032 1_555
Mn1 O2 2.071022 1_565
Mn2 O2 1.942388 1_555
Mn2 O3 2.020811 1_555
Mn3 O1 1.972534 1_455
Mn3 O2 1.994199 1_555
Mn4 O3 1.889202 1_555
Mn4 O0 1.921186 1_455
Mn5 O0 2.021752 1_555
F0 Mn3 2.082817 1_655
F0 Mn2 2.118968 1_555
F0 Mn4 2.174734 1_655
F1 Mn3 2.096309 1_655
F1 Mn5 2.115133 1_546
F1 Mn1 2.136964 1_545
F2 Mn5 2.030915 1_545
F2 Mn2 2.059380 1_555
F2 Mn0 2.163085 1_555
F3 Mn4 2.048152 1_655
F3 Mn1 2.094476 1_555
F3 Mn2 2.232221 1_565
F4 Mn5 2.028675 1_456
F4 Mn1 2.037108 1_555
F4 Mn0 2.153456 1_556
F5 Mn4 2.088415 1_555
F5 Mn3 2.147107 1_555
F5 Mn1 2.182271 1_555
F6 Mn2 2.074716 1_565
F6 Mn5 2.109945 1_455
F6 Mn4 2.163235 1_555
F7 Mn3 2.090271 1_555
F7 Mn5 2.189931 1_446
F7 Mn0 2.224988 1_556
