# generated using pymatgen
data_Li4VNi3(PO4)4
_symmetry_space_group_name_H-M   'P 1'
_cell_length_a   5.98206300
_cell_length_b   4.74214800
_cell_length_c   10.22191361
_cell_angle_alpha   89.85526821
_cell_angle_beta   90.00000000
_cell_angle_gamma   90.00000000
_symmetry_Int_Tables_number   1
_chemical_formula_structural   Li4VNi3(PO4)4
_chemical_formula_sum   'Li4 V1 Ni3 P4 O16'
_cell_volume   289.97256298
_cell_formula_units_Z   1
loop_
 _symmetry_equiv_pos_site_id
 _symmetry_equiv_pos_as_xyz
  1  'x, y, z'
loop_
 _atom_site_type_symbol
 _atom_site_label
 _atom_site_symmetry_multiplicity
 _atom_site_fract_x
 _atom_site_fract_y
 _atom_site_fract_z
 _atom_site_occupancy
  Li  Li0  1  0.25137600  0.99913900  0.00300300  1
  Li  Li1  1  0.74862400  0.99913900  0.00300300  1
  Li  Li2  1  0.74943600  0.50032300  0.49783100  1
  Li  Li3  1  0.25056400  0.50032300  0.49783100  1
  V  V0  1  0.00000000  0.01989200  0.72513100  1
  Ni  Ni0  1  0.50000000  0.98129000  0.27596000  1
  Ni  Ni1  1  0.50000000  0.51957900  0.77650200  1
  Ni  Ni2  1  0.00000000  0.48007500  0.22397100  1
  P  P0  1  0.00000000  0.91463700  0.40332600  1
  P  P1  1  0.00000000  0.58454500  0.90815800  1
  P  P2  1  0.50000000  0.41664100  0.09439800  1
  P  P3  1  0.50000000  0.08603000  0.59322800  1
  O  O0  1  0.00000000  0.79391400  0.54430000  1
  O  O1  1  0.20647000  0.77465800  0.33269600  1
  O  O2  1  0.79353000  0.77465800  0.33269600  1
  O  O3  1  0.50000000  0.76080200  0.60048900  1
  O  O4  1  0.50000000  0.74015000  0.10018200  1
  O  O5  1  0.20792500  0.72196800  0.83727600  1
  O  O6  1  0.79207500  0.72196800  0.83727600  1
  O  O7  1  0.00000000  0.70243300  0.04963600  1
  O  O8  1  0.50000000  0.29995300  0.95203100  1
  O  O9  1  0.70571000  0.27512700  0.16546100  1
  O  O10  1  0.29429000  0.27512700  0.16546100  1
  O  O11  1  0.00000000  0.26194800  0.90462400  1
  O  O12  1  0.00000000  0.23848900  0.39840700  1
  O  O13  1  0.70326800  0.22853100  0.66350800  1
  O  O14  1  0.29673200  0.22853100  0.66350800  1
  O  O15  1  0.50000000  0.20012900  0.45011200  1
loop_
_geom_bond_atom_site_label_1
_geom_bond_atom_site_label_2
_geom_bond_distance
_geom_bond_site_symmetry_2
Li0 O7 2.113009 1_555
Li0 O8 2.124770 1_564
Li0 O10 2.132481 1_565
Li0 O5 2.162456 1_554
Li0 O4 2.168177 1_555
Li0 O11 2.195316 1_564
Li1 O7 2.113009 1_655
Li1 O8 2.124770 1_564
Li1 O9 2.132481 1_565
Li1 O6 2.162456 1_554
Li1 O4 2.168177 1_555
Li1 O11 2.195316 1_664
Li2 O0 2.100953 1_655
Li2 O15 2.120014 1_555
Li2 O13 2.143483 1_555
Li2 O2 2.144819 1_555
Li2 O12 2.197186 1_655
Li2 O3 2.204538 1_555
Li3 O0 2.100953 1_555
Li3 O15 2.120014 1_555
Li3 O14 2.143483 1_555
Li3 O1 2.144819 1_555
Li3 O12 2.197186 1_555
Li3 O3 2.204538 1_555
Ni0 O15 2.062835 1_565
Ni0 O1 2.092098 1_555
Ni0 O2 2.092098 1_555
Ni0 O4 2.132245 1_555
Ni0 O9 2.173422 1_565
Ni0 O10 2.173422 1_565
Ni1 O8 2.072338 1_555
Ni1 O6 2.088736 1_555
Ni1 O5 2.088736 1_555
Ni1 O3 2.129607 1_555
Ni1 O14 2.173846 1_555
Ni1 O13 2.173846 1_555
Ni2 O7 2.068342 1_555
Ni2 O9 2.098676 1_455
Ni2 O10 2.098676 1_555
Ni2 O12 2.116956 1_555
Ni2 O2 2.172557 1_455
Ni2 O1 2.172557 1_555
O0 P0 1.549233 1_555
O0 V0 2.138950 1_565
O1 P0 1.577914 1_555
O2 P0 1.577914 1_655
O3 P3 1.543877 1_565
O4 P2 1.535416 1_555
O5 P1 1.579355 1_555
O5 V0 2.202044 1_565
O6 P1 1.579355 1_655
O6 V0 2.202044 1_665
O7 P1 1.551785 1_554
O8 P2 1.558223 1_556
O9 P2 1.577925 1_555
O10 P2 1.577925 1_555
O11 P1 1.530320 1_555
O11 V0 2.166699 1_555
O12 P0 1.536450 1_545
O13 P3 1.566449 1_555
O13 V0 2.126831 1_655
O14 P3 1.566449 1_555
O14 V0 2.126831 1_555
O15 P3 1.558491 1_555
