# generated using pymatgen
data_V7(O2F3)3
_symmetry_space_group_name_H-M   'P 1'
_cell_length_a   9.95238388
_cell_length_b   18.14584971
_cell_length_c   5.09632360
_cell_angle_alpha   81.92746170
_cell_angle_beta   90.00000000
_cell_angle_gamma   90.00000000
_symmetry_Int_Tables_number   1
_chemical_formula_structural   V7(O2F3)3
_chemical_formula_sum   'V28 O24 F36'
_cell_volume   911.24796598
_cell_formula_units_Z   4
loop_
 _symmetry_equiv_pos_site_id
 _symmetry_equiv_pos_as_xyz
  1  'x, y, z'
loop_
 _atom_site_type_symbol
 _atom_site_label
 _atom_site_symmetry_multiplicity
 _atom_site_fract_x
 _atom_site_fract_y
 _atom_site_fract_z
 _atom_site_occupancy
  V  V0  1  0.14858470  0.07161141  0.68686780  1
  V  V1  1  0.14811683  0.92913455  0.25719449  1
  V  V2  1  0.14668419  0.34780261  0.56311613  1
  V  V3  1  0.14218623  0.65364166  0.38113564  1
  V  V4  1  0.14465356  0.49179117  0.04615522  1
  V  V5  1  0.14973601  0.21032140  0.18644947  1
  V  V6  1  0.14841960  0.79116395  0.89421504  1
  V  V7  1  0.35026399  0.78967860  0.39676987  1
  V  V8  1  0.35158040  0.20883605  0.68537899  1
  V  V9  1  0.35534644  0.50820883  0.53794739  1
  V  V10  1  0.35781377  0.34635834  0.03477730  1
  V  V11  1  0.35331581  0.65219739  0.91091774  1
  V  V12  1  0.35141530  0.92838859  0.75847921  1
  V  V13  1  0.35188317  0.07086545  0.18632904  1
  V  V14  1  0.64811683  0.07086545  0.68632904  1
  V  V15  1  0.64858470  0.92838859  0.25847921  1
  V  V16  1  0.64218623  0.34635834  0.53477730  1
  V  V17  1  0.64668419  0.65219739  0.41091774  1
  V  V18  1  0.64465356  0.50820883  0.03794739  1
  V  V19  1  0.64973601  0.78967860  0.89676987  1
  V  V20  1  0.64841960  0.20883605  0.18537899  1
  V  V21  1  0.85158040  0.79116395  0.39421504  1
  V  V22  1  0.85026399  0.21032140  0.68644947  1
  V  V23  1  0.85534644  0.49179117  0.54615522  1
  V  V24  1  0.85781377  0.65364166  0.88113564  1
  V  V25  1  0.85331581  0.34780261  0.06311613  1
  V  V26  1  0.85141530  0.07161141  0.18686780  1
  V  V27  1  0.85188317  0.92913455  0.75719449  1
  O  O0  1  0.23617970  0.42830947  0.79221951  1
  O  O1  1  0.23054083  0.14231583  0.94344164  1
  O  O2  1  0.23037261  0.85652239  0.58438284  1
  O  O3  1  0.23056936  0.28244919  0.86371544  1
  O  O4  1  0.23178462  0.71212127  0.65046381  1
  O  O5  1  0.25000000  0.00000000  0.46952982  1
  O  O6  1  0.25000000  0.00000000  0.96804217  1
  O  O7  1  0.26821538  0.28787873  0.36258608  1
  O  O8  1  0.26943064  0.71755081  0.14616463  1
  O  O9  1  0.26945917  0.85768417  0.08575747  1
  O  O10  1  0.26962739  0.14347761  0.44090423  1
  O  O11  1  0.26382030  0.57169053  0.22052898  1
  O  O12  1  0.73617970  0.57169053  0.72052898  1
  O  O13  1  0.73054083  0.85768417  0.58575747  1
  O  O14  1  0.73037261  0.14347761  0.94090423  1
  O  O15  1  0.73056936  0.71755081  0.64616463  1
  O  O16  1  0.73178462  0.28787873  0.86258608  1
  O  O17  1  0.75000000  0.00000000  0.46804217  1
  O  O18  1  0.75000000  0.00000000  0.96952982  1
  O  O19  1  0.76943064  0.28244919  0.36371544  1
  O  O20  1  0.76821538  0.71212127  0.15046381  1
  O  O21  1  0.76945917  0.14231583  0.44344164  1
  O  O22  1  0.76962739  0.85652239  0.08438284  1
  O  O23  1  0.76382030  0.42830947  0.29221951  1
  F  F0  1  0.00160883  0.00197000  0.14848939  1
  F  F1  1  0.99839117  0.00197000  0.64848939  1
  F  F2  1  0.02553361  0.12608360  0.34410972  1
  F  F3  1  0.02700589  0.87853968  0.96222065  1
  F  F4  1  0.03016803  0.25663080  0.50806858  1
  F  F5  1  0.03462773  0.75245734  0.25335017  1
  F  F6  1  0.04660759  0.38482503  0.19788619  1
  F  F7  1  0.03301819  0.62890212  0.06397871  1
  F  F8  1  0.03564808  0.50416726  0.37985533  1
  F  F9  1  0.21533064  0.56957055  0.72779460  1
  F  F10  1  0.28466936  0.43042945  0.29736515  1
  F  F11  1  0.46435192  0.49583274  0.88402259  1
  F  F12  1  0.46698181  0.37109788  0.69287983  1
  F  F13  1  0.45339241  0.61517497  0.58271122  1
  F  F14  1  0.46537227  0.24754266  0.00580651  1
  F  F15  1  0.46983197  0.74336920  0.76469939  1
  F  F16  1  0.47299411  0.12146032  0.84075933  1
  F  F17  1  0.47446639  0.87391640  0.47019332  1
  F  F18  1  0.49839117  0.99803000  0.15045938  1
  F  F19  1  0.50160883  0.99803000  0.65045938  1
  F  F20  1  0.52553361  0.87391640  0.97019332  1
  F  F21  1  0.52700589  0.12146032  0.34075933  1
  F  F22  1  0.53016803  0.74336920  0.26469939  1
  F  F23  1  0.53462773  0.24754266  0.50580651  1
  F  F24  1  0.54660759  0.61517497  0.08271122  1
  F  F25  1  0.53301819  0.37109788  0.19287983  1
  F  F26  1  0.53564808  0.49583274  0.38402259  1
  F  F27  1  0.71533064  0.43042945  0.79736515  1
  F  F28  1  0.78466936  0.56957055  0.22779460  1
  F  F29  1  0.96435192  0.50416726  0.87985533  1
  F  F30  1  0.96698181  0.62890212  0.56397871  1
  F  F31  1  0.95339241  0.38482503  0.69788619  1
  F  F32  1  0.96983197  0.25663080  0.00806858  1
  F  F33  1  0.96537227  0.75245734  0.75335017  1
  F  F34  1  0.97299411  0.87853968  0.46222065  1
  F  F35  1  0.97446639  0.12608360  0.84410972  1
loop_
_geom_bond_atom_site_label_1
_geom_bond_atom_site_label_2
_geom_bond_distance
_geom_bond_site_symmetry_2
O0 V4 2.061593 1_556
O0 V9 2.158748 1_555
O0 V10 2.165320 1_556
O0 V2 2.183979 1_555
O1 V5 2.032858 1_556
O1 V8 2.047429 1_555
O1 V13 2.054479 1_556
O1 V0 2.119506 1_555
O2 V6 2.009756 1_555
O2 V7 2.033437 1_555
O2 V12 2.064944 1_555
O2 V1 2.137670 1_555
O3 V2 1.984936 1_555
O3 V10 1.998138 1_556
O3 V8 2.098031 1_555
O3 V5 2.112070 1_556
O4 V11 2.000459 1_555
O4 V3 2.052872 1_555
O4 V7 2.128754 1_555
O4 V6 2.188408 1_555
O5 V1 2.059988 1_545
O5 V13 2.059988 1_555
O5 V12 2.082876 1_545
O5 V0 2.082876 1_555
O6 V0 2.058568 1_555
O6 V12 2.058568 1_545
O6 V13 2.078718 1_556
O6 V1 2.078718 1_546
O7 V2 2.000459 1_555
O7 V10 2.052876 1_555
O7 V5 2.128754 1_555
O7 V8 2.188405 1_555
O8 V11 1.984939 1_554
O8 V3 1.998138 1_555
O8 V6 2.098031 1_554
O8 V7 2.112067 1_555
O9 V7 2.032854 1_555
O9 V6 2.047429 1_554
O9 V1 2.054479 1_555
O9 V12 2.119506 1_554
O10 V8 2.009759 1_555
O10 V5 2.033432 1_555
O10 V0 2.064947 1_555
O10 V13 2.137666 1_555
O11 V9 2.061596 1_555
O11 V4 2.158751 1_555
O11 V3 2.165320 1_555
O11 V11 2.183982 1_554
O12 V18 2.061596 1_556
O12 V23 2.158751 1_555
O12 V24 2.165320 1_555
O12 V17 2.183982 1_555
O13 V19 2.032854 1_555
O13 V21 2.047429 1_555
O13 V27 2.054479 1_555
O13 V15 2.119506 1_555
O14 V20 2.009759 1_556
O14 V22 2.033432 1_555
O14 V26 2.064947 1_556
O14 V14 2.137666 1_555
O15 V17 1.984939 1_555
O15 V24 1.998138 1_555
O15 V21 2.098031 1_555
O15 V19 2.112067 1_555
O16 V25 2.000459 1_556
O16 V16 2.052876 1_555
O16 V22 2.128754 1_555
O16 V20 2.188405 1_556
O17 V15 2.058568 1_545
O17 V26 2.058568 1_555
O17 V27 2.078718 1_545
O17 V14 2.078718 1_555
O18 V27 2.059988 1_545
O18 V14 2.059988 1_555
O18 V26 2.082876 1_556
O18 V15 2.082876 1_546
O19 V25 1.984936 1_555
O19 V16 1.998138 1_555
O19 V20 2.098031 1_555
O19 V22 2.112070 1_555
O20 V17 2.000459 1_555
O20 V24 2.052872 1_554
O20 V19 2.128754 1_554
O20 V21 2.188408 1_555
O21 V22 2.032858 1_555
O21 V20 2.047429 1_555
O21 V14 2.054479 1_555
O21 V26 2.119506 1_555
O22 V21 2.009756 1_555
O22 V19 2.033437 1_554
O22 V15 2.064944 1_555
O22 V27 2.137670 1_554
O23 V23 2.061593 1_555
O23 V18 2.158748 1_555
O23 V16 2.165320 1_555
O23 V25 2.183979 1_555
F0 V26 1.984690 1_455
F0 V1 1.993521 1_545
F1 V0 1.984690 1_655
F1 V27 1.993521 1_545
F2 V5 2.040866 1_555
F2 V26 2.201039 1_455
F2 V0 2.245707 1_555
F3 V6 2.061165 1_555
F3 V27 2.168617 1_455
F3 V1 2.223333 1_556
F4 V2 2.071416 1_555
F4 V22 2.126929 1_455
F4 V5 2.279389 1_555
F5 V3 2.111215 1_555
F5 V21 2.114024 1_455
F5 V6 2.182823 1_554
F6 V2 2.134641 1_555
F6 V25 2.180212 1_455
F6 V4 2.212697 1_555
F7 V24 1.998210 1_454
F7 V3 2.048975 1_555
F8 V23 1.983746 1_455
F8 V4 2.055923 1_555
F9 V9 2.102445 1_555
F9 V4 2.115663 1_556
F9 V3 2.285048 1_555
F9 V11 2.323329 1_555
F10 V4 2.102448 1_555
F10 V9 2.115666 1_555
F10 V10 2.285048 1_555
F10 V2 2.323331 1_555
F11 V18 1.983748 1_556
F11 V9 2.055918 1_555
F12 V16 1.998207 1_555
F12 V10 2.048979 1_556
F13 V11 2.134637 1_555
F13 V17 2.180214 1_555
F13 V9 2.212696 1_555
F14 V10 2.111216 1_555
F14 V20 2.114026 1_555
F14 V8 2.182819 1_554
F15 V11 2.071414 1_555
F15 V19 2.126927 1_555
F15 V7 2.279393 1_555
F16 V8 2.061164 1_555
F16 V14 2.168614 1_555
F16 V13 2.223337 1_556
F17 V7 2.040868 1_555
F17 V15 2.201039 1_555
F17 V12 2.245707 1_555
F18 V15 1.984690 1_555
F18 V13 1.993521 1_565
F19 V12 1.984690 1_555
F19 V14 1.993521 1_565
F20 V19 2.040868 1_555
F20 V12 2.201039 1_555
F20 V15 2.245707 1_556
F21 V20 2.061164 1_555
F21 V13 2.168614 1_555
F21 V14 2.223337 1_555
F22 V17 2.071414 1_555
F22 V7 2.126927 1_555
F22 V19 2.279393 1_554
F23 V16 2.111216 1_555
F23 V8 2.114026 1_555
F23 V20 2.182819 1_555
F24 V17 2.134637 1_555
F24 V11 2.180214 1_554
F24 V18 2.212696 1_555
F25 V10 1.998207 1_555
F25 V16 2.048979 1_555
F26 V9 1.983748 1_555
F26 V18 2.055918 1_555
F27 V23 2.102448 1_555
F27 V18 2.115666 1_556
F27 V16 2.285048 1_555
F27 V25 2.323331 1_556
F28 V18 2.102445 1_555
F28 V23 2.115663 1_555
F28 V24 2.285048 1_554
F28 V17 2.323329 1_555
F29 V4 1.983746 1_656
F29 V23 2.055923 1_555
F30 V3 1.998210 1_655
F30 V24 2.048975 1_555
F31 V25 2.134641 1_556
F31 V2 2.180212 1_655
F31 V23 2.212697 1_555
F32 V25 2.071416 1_555
F32 V5 2.126929 1_655
F32 V22 2.279389 1_554
F33 V24 2.111215 1_555
F33 V6 2.114024 1_655
F33 V21 2.182823 1_555
F34 V21 2.061165 1_555
F34 V1 2.168617 1_655
F34 V27 2.223333 1_555
F35 V22 2.040866 1_555
F35 V0 2.201039 1_655
F35 V26 2.245707 1_556
