# generated using pymatgen
data_Ho2Sb2O7
_symmetry_space_group_name_H-M   'P 1'
_cell_length_a   7.53854295
_cell_length_b   7.53854295
_cell_length_c   7.53854295
_cell_angle_alpha   121.21490041
_cell_angle_beta   118.52242450
_cell_angle_gamma   90.24338660
_symmetry_Int_Tables_number   1
_chemical_formula_structural   Ho2Sb2O7
_chemical_formula_sum   'Ho4 Sb4 O14'
_cell_volume   303.32346392
_cell_formula_units_Z   2
loop_
 _symmetry_equiv_pos_site_id
 _symmetry_equiv_pos_as_xyz
  1  'x, y, z'
loop_
 _atom_site_type_symbol
 _atom_site_label
 _atom_site_symmetry_multiplicity
 _atom_site_fract_x
 _atom_site_fract_y
 _atom_site_fract_z
 _atom_site_occupancy
  Ho  Ho0  1  0.00000000  0.00000000  0.00000000  1
  Ho  Ho1  1  0.00000000  0.00000000  0.50000000  1
  Ho  Ho2  1  0.50000000  0.50000000  0.00000000  1
  Ho  Ho3  1  0.50000000  0.00000000  0.00000000  1
  Sb  Sb0  1  0.00000000  0.50000000  0.00000000  1
  Sb  Sb1  1  0.00000000  0.50000000  0.50000000  1
  Sb  Sb2  1  0.50000000  0.50000000  0.50000000  1
  Sb  Sb3  1  0.50000000  0.00000000  0.50000000  1
  O  O0  1  0.12884100  0.82819100  0.20312600  1
  O  O1  1  0.11903000  0.87216500  0.75313400  1
  O  O2  1  0.37115900  0.57428500  0.69935000  1
  O  O3  1  0.12506500  0.42571500  0.79687400  1
  O  O4  1  0.62506500  0.82819100  0.69935000  1
  O  O5  1  0.38097000  0.13410400  0.75313400  1
  O  O6  1  0.75000000  0.53159400  0.78159400  1
  O  O7  1  0.25000000  0.46840600  0.21840600  1
  O  O8  1  0.61903000  0.86589600  0.24686600  1
  O  O9  1  0.62884100  0.42571500  0.30065000  1
  O  O10  1  0.87493500  0.57428500  0.20312600  1
  O  O11  1  0.37493500  0.17180900  0.30065000  1
  O  O12  1  0.88097000  0.12783500  0.24686600  1
  O  O13  1  0.87115900  0.17180900  0.79687400  1
loop_
_geom_bond_atom_site_label_1
_geom_bond_atom_site_label_2
_geom_bond_distance
_geom_bond_site_symmetry_2
Ho0 O12 2.222712 1_455
Ho0 O1 2.222712 1_544
Ho0 O11 2.368900 1_555
Ho0 O0 2.368900 1_545
Ho0 O4 2.368900 1_444
Ho0 O13 2.368900 1_454
Ho1 O12 2.377710 1_455
Ho1 O1 2.377710 1_545
Ho1 O8 2.377716 1_445
Ho1 O5 2.377716 1_555
Ho1 O0 2.590692 1_545
Ho1 O3 2.590692 1_555
Ho1 O10 2.590692 1_445
Ho1 O13 2.590692 1_455
Ho2 O5 2.222712 1_554
Ho2 O8 2.222712 1_555
Ho2 O2 2.368900 1_554
Ho2 O10 2.368900 1_555
Ho2 O9 2.368900 1_555
Ho2 O3 2.368900 1_554
Ho3 O8 2.377716 1_545
Ho3 O5 2.377716 1_554
Ho3 O1 2.377716 1_544
Ho3 O12 2.377716 1_555
Ho3 O9 2.590692 1_555
Ho3 O4 2.590692 1_544
Ho3 O2 2.590692 1_544
Ho3 O11 2.590692 1_555
O0 Sb0 2.010398 1_555
O0 Sb3 2.345115 1_565
O1 Sb1 2.260991 1_555
O2 Sb2 2.010398 1_555
O2 Sb1 2.345115 1_555
O3 Sb0 2.010398 1_556
O3 Sb1 2.345115 1_555
O4 Sb2 2.010398 1_555
O4 Sb3 2.345115 1_565
O5 Sb3 2.260985 1_555
O6 Sb0 1.940701 1_656
O6 Sb2 1.940701 1_555
O7 Sb0 1.940701 1_555
O7 Sb2 1.940701 1_555
O8 Sb3 2.260985 1_565
O9 Sb2 2.010398 1_555
O9 Sb1 2.345115 1_655
O10 Sb0 2.010398 1_655
O10 Sb1 2.345115 1_655
O11 Sb2 2.010398 1_555
O11 Sb3 2.345115 1_555
O12 Sb1 2.260991 1_655
O13 Sb0 2.010398 1_656
O13 Sb3 2.345115 1_555
