# generated using pymatgen
data_Cs3NO4
_symmetry_space_group_name_H-M   'P 1'
_cell_length_a   6.31910500
_cell_length_b   8.91961600
_cell_length_c   12.16956100
_cell_angle_alpha   90.00000000
_cell_angle_beta   90.00000000
_cell_angle_gamma   90.00000000
_symmetry_Int_Tables_number   1
_chemical_formula_structural   Cs3NO4
_chemical_formula_sum   'Cs12 N4 O16'
_cell_volume   685.92501528
_cell_formula_units_Z   4
loop_
 _symmetry_equiv_pos_site_id
 _symmetry_equiv_pos_as_xyz
  1  'x, y, z'
loop_
 _atom_site_type_symbol
 _atom_site_label
 _atom_site_symmetry_multiplicity
 _atom_site_fract_x
 _atom_site_fract_y
 _atom_site_fract_z
 _atom_site_occupancy
  Cs  Cs0  1  0.36768700  0.25000000  0.07217300  1
  Cs  Cs1  1  0.82772900  0.00866200  0.14570000  1
  Cs  Cs2  1  0.82772900  0.49133800  0.14570000  1
  Cs  Cs3  1  0.32772900  0.50866200  0.35430000  1
  Cs  Cs4  1  0.32772900  0.99133800  0.35430000  1
  Cs  Cs5  1  0.86768700  0.75000000  0.42782700  1
  Cs  Cs6  1  0.13231300  0.25000000  0.57217300  1
  Cs  Cs7  1  0.67227100  0.00866200  0.64570000  1
  Cs  Cs8  1  0.67227100  0.49133800  0.64570000  1
  Cs  Cs9  1  0.17227100  0.50866200  0.85430000  1
  Cs  Cs10  1  0.17227100  0.99133800  0.85430000  1
  Cs  Cs11  1  0.63231300  0.75000000  0.92782700  1
  N  N0  1  0.21690900  0.75000000  0.11543700  1
  N  N1  1  0.71690900  0.25000000  0.38456300  1
  N  N2  1  0.28309100  0.75000000  0.61543700  1
  N  N3  1  0.78309100  0.25000000  0.88456300  1
  O  O0  1  0.06947500  0.75000000  0.02810800  1
  O  O1  1  0.34269500  0.62041500  0.10870500  1
  O  O2  1  0.34269500  0.87958500  0.10870500  1
  O  O3  1  0.10529100  0.75000000  0.21590700  1
  O  O4  1  0.60529100  0.25000000  0.28409300  1
  O  O5  1  0.84269500  0.12041500  0.39129500  1
  O  O6  1  0.84269500  0.37958500  0.39129500  1
  O  O7  1  0.56947500  0.25000000  0.47189200  1
  O  O8  1  0.43052500  0.75000000  0.52810800  1
  O  O9  1  0.15730500  0.62041500  0.60870500  1
  O  O10  1  0.15730500  0.87958500  0.60870500  1
  O  O11  1  0.39470900  0.75000000  0.71590700  1
  O  O12  1  0.89470900  0.25000000  0.78409300  1
  O  O13  1  0.65730500  0.12041500  0.89129500  1
  O  O14  1  0.65730500  0.37958500  0.89129500  1
  O  O15  1  0.93052500  0.25000000  0.97189200  1
loop_
_geom_bond_atom_site_label_1
_geom_bond_atom_site_label_2
_geom_bond_distance
_geom_bond_site_symmetry_2
Cs0 O4 2.984198 1_555
Cs0 O15 3.020028 1_454
Cs0 O13 3.087176 1_554
Cs0 O14 3.087176 1_554
Cs0 O1 3.337475 1_555
Cs0 O2 3.337475 1_545
Cs1 O3 3.021475 1_645
Cs1 O4 3.073447 1_555
Cs1 O15 3.087030 1_554
Cs1 O0 3.115207 1_645
Cs1 O5 3.152042 1_555
Cs1 O2 3.304895 1_545
Cs1 O13 3.426159 1_554
Cs1 O2 3.481027 1_645
Cs2 O3 3.021475 1_655
Cs2 O4 3.073447 1_555
Cs2 O15 3.087030 1_554
Cs2 O0 3.115207 1_655
Cs2 O6 3.152042 1_555
Cs2 O1 3.304895 1_555
Cs2 O14 3.426159 1_554
Cs2 O1 3.481027 1_655
Cs3 O4 3.021475 1_555
Cs3 O3 3.073447 1_555
Cs3 O8 3.087030 1_555
Cs3 O7 3.115207 1_555
Cs3 O1 3.152042 1_555
Cs3 O6 3.304895 1_455
Cs3 O9 3.426159 1_555
Cs3 O6 3.481027 1_555
Cs4 O4 3.021475 1_565
Cs4 O3 3.073447 1_555
Cs4 O8 3.087030 1_555
Cs4 O7 3.115207 1_565
Cs4 O2 3.152042 1_555
Cs4 O5 3.304895 1_465
Cs4 O10 3.426159 1_555
Cs4 O5 3.481027 1_565
Cs5 O3 2.984198 1_655
Cs5 O8 3.020028 1_555
Cs5 O10 3.087176 1_655
Cs5 O9 3.087176 1_655
Cs5 O5 3.337475 1_565
Cs5 O6 3.337475 1_555
Cs6 O12 2.984198 1_455
Cs6 O7 3.020028 1_555
Cs6 O5 3.087176 1_455
Cs6 O6 3.087176 1_455
Cs6 O9 3.337475 1_555
Cs6 O10 3.337475 1_545
Cs7 O11 3.021475 1_545
Cs7 O12 3.073447 1_555
Cs7 O7 3.087030 1_555
Cs7 O8 3.115207 1_545
Cs7 O13 3.152042 1_555
Cs7 O10 3.304895 1_645
Cs7 O5 3.426159 1_555
Cs7 O10 3.481027 1_545
Cs8 O11 3.021475 1_555
Cs8 O12 3.073447 1_555
Cs8 O7 3.087030 1_555
Cs8 O8 3.115207 1_555
Cs8 O14 3.152042 1_555
Cs8 O9 3.304895 1_655
Cs8 O6 3.426159 1_555
Cs8 O9 3.481027 1_555
Cs9 O12 3.021475 1_455
Cs9 O11 3.073447 1_555
Cs9 O0 3.087030 1_556
Cs9 O15 3.115207 1_455
Cs9 O9 3.152042 1_555
Cs9 O14 3.304895 1_555
Cs9 O1 3.426159 1_556
Cs9 O14 3.481027 1_455
Cs10 O12 3.021475 1_465
Cs10 O11 3.073447 1_555
Cs10 O0 3.087030 1_556
Cs10 O15 3.115207 1_465
Cs10 O10 3.152042 1_555
Cs10 O13 3.304895 1_565
Cs10 O2 3.426159 1_556
Cs10 O13 3.481027 1_465
Cs11 O11 2.984198 1_555
Cs11 O0 3.020028 1_656
Cs11 O2 3.087176 1_556
Cs11 O1 3.087176 1_556
Cs11 O13 3.337475 1_565
Cs11 O14 3.337475 1_555
N0 O2 1.405166 1_555
N0 O1 1.405166 1_555
N0 O3 1.411531 1_555
N0 O0 1.413302 1_555
N1 O6 1.405166 1_555
N1 O5 1.405166 1_555
N1 O4 1.411531 1_555
N1 O7 1.413302 1_555
N2 O10 1.405166 1_555
N2 O9 1.405166 1_555
N2 O11 1.411531 1_555
N2 O8 1.413302 1_555
N3 O13 1.405166 1_555
N3 O14 1.405166 1_555
N3 O12 1.411531 1_555
N3 O15 1.413302 1_555
