# generated using pymatgen
data_Li4Ti3MnO8
_symmetry_space_group_name_H-M   'P 1'
_cell_length_a   10.46644375
_cell_length_b   10.46641435
_cell_length_c   14.82520226
_cell_angle_alpha   19.26814802
_cell_angle_beta   19.26746728
_cell_angle_gamma   33.20656337
_symmetry_Int_Tables_number   1
_chemical_formula_structural   Li4Ti3MnO8
_chemical_formula_sum   'Li4 Ti3 Mn1 O8'
_cell_volume   153.18257493
_cell_formula_units_Z   1
loop_
 _symmetry_equiv_pos_site_id
 _symmetry_equiv_pos_as_xyz
  1  'x, y, z'
loop_
 _atom_site_type_symbol
 _atom_site_label
 _atom_site_symmetry_multiplicity
 _atom_site_fract_x
 _atom_site_fract_y
 _atom_site_fract_z
 _atom_site_occupancy
  Li  Li0  1  0.00001000  0.00000300  0.49999200  1
  Li  Li1  1  0.00001300  0.50000700  0.49998800  1
  Li  Li2  1  0.50001000  0.00000400  0.49999100  1
  Li  Li3  1  0.50001200  0.50000100  0.49999200  1
  Ti  Ti0  1  0.99999500  0.49999600  0.00000600  1
  Ti  Ti1  1  0.50000800  0.99999800  0.99999800  1
  Ti  Ti2  1  0.50000800  0.50001100  0.99998800  1
  Mn  Mn0  1  0.99990800  0.99997400  0.00006500  1
  O  O0  1  0.00079800  0.00086000  0.25396700  1
  O  O1  1  0.00050600  0.47315000  0.27327500  1
  O  O2  1  0.47307100  0.00043300  0.27338900  1
  O  O3  1  0.99922200  0.99914600  0.74601800  1
  O  O4  1  0.52803200  0.52796600  0.21863800  1
  O  O5  1  0.99950700  0.52685200  0.72671600  1
  O  O6  1  0.52692600  0.99956700  0.72661200  1
  O  O7  1  0.47197400  0.47203000  0.78136400  1
loop_
_geom_bond_atom_site_label_1
_geom_bond_atom_site_label_2
_geom_bond_distance
_geom_bond_site_symmetry_2
Li0 O2 2.099053 1_555
Li0 O1 2.099096 1_555
Li0 O5 2.099101 1_445
Li0 O6 2.099128 1_445
Li0 O7 2.102410 1_554
Li0 O4 2.102461 1_446
Li1 O0 2.168185 1_565
Li1 O3 2.168201 1_445
Li1 O6 2.214293 1_554
Li1 O2 2.214321 1_456
Li1 O4 2.215149 1_555
Li1 O7 2.215176 1_455
Li2 O3 2.167877 1_445
Li2 O0 2.167895 1_655
Li2 O5 2.213982 1_554
Li2 O1 2.214003 1_546
Li2 O7 2.214938 1_545
Li2 O4 2.214946 1_555
Li3 O3 2.168086 1_554
Li3 O0 2.168095 1_556
Li3 O1 2.212537 1_655
Li3 O5 2.212570 1_455
Li3 O6 2.212618 1_545
Li3 O2 2.212632 1_565
Mn0 O2 2.152433 1_565
Mn0 O1 2.152728 1_655
Mn0 O5 2.152821 1_564
Mn0 O6 2.153094 1_654
Mn0 O7 2.156594 1_555
Mn0 O4 2.156700 1_664
O0 Ti0 2.078215 1_455
O0 Ti1 2.078503 1_544
O0 Ti2 2.085115 1_445
O1 Ti2 2.035934 1_554
O1 Ti1 2.041384 1_445
O2 Ti2 2.035972 1_554
O2 Ti0 2.041073 1_446
O3 Ti0 2.078231 1_556
O3 Ti1 2.078486 1_555
O3 Ti2 2.085141 1_664
O4 Ti0 2.033661 1_555
O4 Ti1 2.033979 1_554
O5 Ti2 2.035948 1_555
O5 Ti1 2.041355 1_654
O6 Ti2 2.035914 1_555
O6 Ti0 2.041043 1_565
O7 Ti0 2.033728 1_456
O7 Ti1 2.033989 1_545
