# generated using pymatgen
data_Pr3Se4
_symmetry_space_group_name_H-M   'P 1'
_cell_length_a   7.80118383
_cell_length_b   7.80118380
_cell_length_c   7.80118501
_cell_angle_alpha   109.47121837
_cell_angle_beta   109.47121831
_cell_angle_gamma   109.47121919
_symmetry_Int_Tables_number   1
_chemical_formula_structural   Pr3Se4
_chemical_formula_sum   'Pr6 Se8'
_cell_volume   365.47673880
_cell_formula_units_Z   2
loop_
 _symmetry_equiv_pos_site_id
 _symmetry_equiv_pos_as_xyz
  1  'x, y, z'
loop_
 _atom_site_type_symbol
 _atom_site_label
 _atom_site_symmetry_multiplicity
 _atom_site_fract_x
 _atom_site_fract_y
 _atom_site_fract_z
 _atom_site_occupancy
  Pr  Pr0  1  0.75000000  0.87500000  0.12500000  1
  Pr  Pr1  1  0.62500000  0.37500000  0.25000000  1
  Pr  Pr2  1  0.87500000  0.12500000  0.75000000  1
  Pr  Pr3  1  0.12500000  0.75000000  0.87500000  1
  Pr  Pr4  1  0.37500000  0.25000000  0.62500000  1
  Pr  Pr5  1  0.25000000  0.62500000  0.37500000  1
  Se  Se0  1  0.64829311  0.64829311  0.64829311  1
  Se  Se1  1  0.35170689  0.50000000  0.00000000  1
  Se  Se2  1  0.50000000  0.00000000  0.35170689  1
  Se  Se3  1  0.00000000  0.35170689  0.50000000  1
  Se  Se4  1  0.50000000  0.00000000  0.85170689  1
  Se  Se5  1  0.00000000  0.85170689  0.50000000  1
  Se  Se6  1  0.14829311  0.14829311  0.14829311  1
  Se  Se7  1  0.85170689  0.50000000  0.00000000  1
loop_
_geom_bond_atom_site_label_1
_geom_bond_atom_site_label_2
_geom_bond_distance
_geom_bond_site_symmetry_2
Pr0 Se6 3.030165 1_665
Pr0 Se1 3.030165 1_555
Pr0 Se4 3.030165 1_564
Pr0 Se5 3.030166 1_655
Pr0 Se7 3.209375 1_555
Pr0 Se2 3.209375 1_565
Pr0 Se3 3.209375 1_665
Pr0 Se0 3.209376 1_554
Pr1 Se1 3.030165 1_555
Pr1 Se3 3.030165 1_655
Pr1 Se4 3.030166 1_554
Pr1 Se0 3.030166 1_555
Pr1 Se2 3.209375 1_555
Pr1 Se6 3.209375 1_555
Pr1 Se5 3.209375 1_655
Pr1 Se7 3.209375 1_555
Pr2 Se7 3.030165 1_556
Pr2 Se5 3.030165 1_645
Pr2 Se2 3.030166 1_555
Pr2 Se6 3.030166 1_656
Pr2 Se0 3.209375 1_545
Pr2 Se4 3.209375 1_555
Pr2 Se1 3.209375 1_656
Pr2 Se3 3.209375 1_655
Pr3 Se4 3.030165 1_565
Pr3 Se7 3.030165 1_456
Pr3 Se6 3.030165 1_566
Pr3 Se3 3.030166 1_555
Pr3 Se1 3.209375 1_556
Pr3 Se0 3.209375 1_455
Pr3 Se5 3.209375 1_555
Pr3 Se2 3.209376 1_566
Pr4 Se0 3.030165 1_555
Pr4 Se5 3.030165 1_545
Pr4 Se2 3.030165 1_555
Pr4 Se1 3.030166 1_556
Pr4 Se3 3.209375 1_555
Pr4 Se4 3.209375 1_555
Pr4 Se7 3.209375 1_556
Pr4 Se6 3.209376 1_555
Pr5 Se2 3.030165 1_565
Pr5 Se3 3.030165 1_555
Pr5 Se0 3.030166 1_555
Pr5 Se7 3.030166 1_455
Pr5 Se5 3.209375 1_555
Pr5 Se6 3.209375 1_555
Pr5 Se1 3.209375 1_555
Pr5 Se4 3.209376 1_565
