# generated using pymatgen
data_LiMnVP2(HO5)2
_symmetry_space_group_name_H-M   'P 1'
_cell_length_a   5.24430400
_cell_length_b   7.35176103
_cell_length_c   10.12545201
_cell_angle_alpha   103.31881179
_cell_angle_beta   99.32007668
_cell_angle_gamma   103.92782744
_symmetry_Int_Tables_number   1
_chemical_formula_structural   LiMnVP2(HO5)2
_chemical_formula_sum   'Li2 Mn2 V2 P4 H4 O20'
_cell_volume   358.81628576
_cell_formula_units_Z   2
loop_
 _symmetry_equiv_pos_site_id
 _symmetry_equiv_pos_as_xyz
  1  'x, y, z'
loop_
 _atom_site_type_symbol
 _atom_site_label
 _atom_site_symmetry_multiplicity
 _atom_site_fract_x
 _atom_site_fract_y
 _atom_site_fract_z
 _atom_site_occupancy
  Li  Li0  1  0.35390200  0.12923300  0.27866900  1
  Li  Li1  1  0.64609800  0.87076700  0.72133100  1
  Mn  Mn0  1  0.00000000  0.00000000  0.00000000  1
  Mn  Mn1  1  0.50000000  0.50000000  0.50000000  1
  V  V0  1  0.74829000  0.74345000  0.24986900  1
  V  V1  1  0.25171000  0.25655000  0.75013100  1
  P  P0  1  0.61757900  0.28758200  0.06242300  1
  P  P1  1  0.88790200  0.20456900  0.43660300  1
  P  P2  1  0.11209800  0.79543100  0.56339700  1
  P  P3  1  0.38242100  0.71241800  0.93757700  1
  H  H0  1  0.15036200  0.79493800  0.14151700  1
  H  H1  1  0.32892500  0.67903300  0.34695300  1
  H  H2  1  0.67107500  0.32096700  0.65304700  1
  H  H3  1  0.84963800  0.20506200  0.85848300  1
  O  O0  1  0.80149500  0.15914500  0.08875100  1
  O  O1  1  0.35953000  0.22293600  0.11150500  1
  O  O2  1  0.43645500  0.72004700  0.09544600  1
  O  O3  1  0.77693600  0.50358300  0.14987500  1
  O  O4  1  0.15402600  0.25994600  0.39359300  1
  O  O5  1  0.03236400  0.88061100  0.16314100  1
  O  O6  1  0.70742500  0.33607700  0.40859600  1
  O  O7  1  0.48142500  0.62063400  0.34460000  1
  O  O8  1  0.28906200  0.00510000  0.65416900  1
  O  O9  1  0.06545000  0.78454000  0.40433400  1
  O  O10  1  0.93455000  0.21546000  0.59566600  1
  O  O11  1  0.71093800  0.99490000  0.34583100  1
  O  O12  1  0.51857500  0.37936600  0.65540000  1
  O  O13  1  0.29257500  0.66392300  0.59140400  1
  O  O14  1  0.96763600  0.11938900  0.83685900  1
  O  O15  1  0.84597400  0.74005400  0.60640700  1
  O  O16  1  0.22306400  0.49641700  0.85012500  1
  O  O17  1  0.56354500  0.27995300  0.90455400  1
  O  O18  1  0.64047000  0.77706400  0.88849500  1
  O  O19  1  0.19850500  0.84085500  0.91124900  1
loop_
_geom_bond_atom_site_label_1
_geom_bond_atom_site_label_2
_geom_bond_distance
_geom_bond_site_symmetry_2
Li0 O4 1.934188 1_555
Li0 O1 1.970782 1_555
Li0 O6 2.100349 1_555
Li0 O5 2.108299 1_545
Li0 O11 2.393924 1_545
Li1 O15 1.934188 1_555
Li1 O18 1.970782 1_555
Li1 O13 2.100349 1_555
Li1 O14 2.108299 1_565
Li1 O8 2.393924 1_565
Mn0 O0 1.914445 1_455
Mn0 O19 1.914445 1_544
Mn0 O5 2.043726 1_545
Mn0 O14 2.043726 1_454
Mn0 O1 2.118082 1_555
Mn0 O18 2.118082 1_444
Mn1 O7 1.976567 1_555
Mn1 O12 1.976567 1_555
Mn1 O13 1.983804 1_555
Mn1 O6 1.983804 1_555
Mn1 O15 2.125257 1_555
Mn1 O4 2.125257 1_555
H0 O5 0.997778 1_555
H1 O7 0.995621 1_555
H2 O12 0.995621 1_555
H3 O14 0.997778 1_555
O0 P0 1.537548 1_555
O1 P0 1.523578 1_555
O2 P3 1.562996 1_554
O2 V0 2.015248 1_555
O3 P0 1.574101 1_555
O3 V0 1.873926 1_555
O4 P1 1.519285 1_455
O5 V0 2.028782 1_455
O6 P1 1.546243 1_555
O7 V0 1.979769 1_555
O8 P2 1.569834 1_545
O8 V1 1.951462 1_555
O9 P2 1.569643 1_555
O9 V0 2.000447 1_455
O10 P1 1.569643 1_555
O10 V1 2.000447 1_655
O11 P1 1.569834 1_565
O11 V0 1.951462 1_555
O12 V1 1.979769 1_555
O13 P2 1.546243 1_555
O14 V1 2.028782 1_655
O15 P2 1.519285 1_655
O16 P3 1.574101 1_555
O16 V1 1.873926 1_555
O17 P0 1.562996 1_556
O17 V1 2.015248 1_555
O18 P3 1.523578 1_555
O19 P3 1.537548 1_555
