# generated using pymatgen
data_Li4Cr3CoO8
_symmetry_space_group_name_H-M   'P 1'
_cell_length_a   5.08422505
_cell_length_b   10.24775626
_cell_length_c   5.87238314
_cell_angle_alpha   73.37294484
_cell_angle_beta   90.01373118
_cell_angle_gamma   80.49168511
_symmetry_Int_Tables_number   1
_chemical_formula_structural   Li4Cr3CoO8
_chemical_formula_sum   'Li8 Cr6 Co2 O16'
_cell_volume   288.77602921
_cell_formula_units_Z   2
loop_
 _symmetry_equiv_pos_site_id
 _symmetry_equiv_pos_as_xyz
  1  'x, y, z'
loop_
 _atom_site_type_symbol
 _atom_site_label
 _atom_site_symmetry_multiplicity
 _atom_site_fract_x
 _atom_site_fract_y
 _atom_site_fract_z
 _atom_site_occupancy
  Li  Li0  1  0.00866900  0.49876900  0.99784000  1
  Li  Li1  1  0.00866500  0.99868200  0.99784200  1
  Li  Li2  1  0.49135100  0.00123600  0.75215000  1
  Li  Li3  1  0.49135500  0.50132400  0.75214600  1
  Li  Li4  1  0.50033400  0.00359500  0.24534300  1
  Li  Li5  1  0.50028500  0.50363300  0.24528600  1
  Li  Li6  1  0.99968600  0.49640500  0.50467500  1
  Li  Li7  1  0.99973700  0.99636600  0.50473200  1
  Cr  Cr0  1  0.24998800  0.74999900  0.37499800  1
  Cr  Cr1  1  0.75050600  0.74981500  0.12224400  1
  Cr  Cr2  1  0.74948200  0.75019100  0.62775900  1
  Cr  Cr3  1  0.24999100  0.24999500  0.37499900  1
  Cr  Cr4  1  0.75053600  0.24980300  0.12231000  1
  Cr  Cr5  1  0.74949200  0.25019800  0.62768700  1
  Co  Co0  1  0.25000100  0.24999900  0.87499900  1
  Co  Co1  1  0.25000100  0.74999900  0.87499900  1
  O  O0  1  0.12493500  0.13820300  0.17464900  1
  O  O1  1  0.12493400  0.63833900  0.17448500  1
  O  O2  1  0.37505600  0.36179500  0.57535200  1
  O  O3  1  0.37505500  0.86166000  0.57551200  1
  O  O4  1  0.37637200  0.36103800  0.06337700  1
  O  O5  1  0.37634000  0.86092700  0.06333500  1
  O  O6  1  0.12361400  0.13895900  0.68662200  1
  O  O7  1  0.12365100  0.63906900  0.68666500  1
  O  O8  1  0.62231700  0.13622800  0.43203100  1
  O  O9  1  0.62230500  0.63630500  0.43199000  1
  O  O10  1  0.87766700  0.36377400  0.31796700  1
  O  O11  1  0.87767800  0.86369900  0.31800800  1
  O  O12  1  0.61174800  0.13829200  0.93054800  1
  O  O13  1  0.61158400  0.63842900  0.93048700  1
  O  O14  1  0.88825200  0.36170400  0.81945100  1
  O  O15  1  0.88841300  0.86157100  0.81951100  1
loop_
_geom_bond_atom_site_label_1
_geom_bond_atom_site_label_2
_geom_bond_distance
_geom_bond_site_symmetry_2
Li0 O4 2.110039 1_556
Li0 O7 2.126671 1_555
Li0 O14 2.137994 1_455
Li0 O1 2.144592 1_556
Li0 O10 2.169829 1_456
Li0 O13 2.236441 1_455
Li1 O5 2.110046 1_556
Li1 O6 2.126670 1_565
Li1 O15 2.137830 1_455
Li1 O0 2.144816 1_566
Li1 O11 2.169900 1_456
Li1 O12 2.235537 1_465
Li2 O6 2.110135 1_555
Li2 O5 2.126811 1_546
Li2 O12 2.137912 1_555
Li2 O3 2.144677 1_545
Li2 O8 2.169708 1_555
Li2 O15 2.236370 1_545
Li3 O7 2.110113 1_555
Li3 O4 2.126824 1_556
Li3 O13 2.137772 1_555
Li3 O2 2.144891 1_555
Li3 O9 2.169774 1_555
Li3 O14 2.235500 1_555
Li4 O12 2.107620 1_554
Li4 O0 2.126039 1_555
Li4 O8 2.136547 1_555
Li4 O11 2.158434 1_545
Li4 O5 2.208116 1_545
Li4 O3 2.230097 1_545
Li5 O13 2.107871 1_554
Li5 O1 2.126299 1_555
Li5 O9 2.137019 1_555
Li5 O10 2.158410 1_555
Li5 O4 2.206928 1_555
Li5 O2 2.229136 1_555
Li6 O14 2.107600 1_555
Li6 O2 2.125931 1_655
Li6 O10 2.136684 1_555
Li6 O9 2.158600 1_555
Li6 O7 2.207952 1_655
Li6 O1 2.230114 1_655
Li7 O15 2.107833 1_555
Li7 O3 2.126165 1_655
Li7 O11 2.137137 1_555
Li7 O8 2.158576 1_565
Li7 O6 2.206763 1_665
Li7 O0 2.229137 1_665
Cr0 O11 2.024990 1_455
Cr0 O9 2.024997 1_555
Cr0 O7 2.026258 1_555
Cr0 O5 2.026265 1_555
Cr0 O1 2.027594 1_555
Cr0 O3 2.027633 1_555
Cr1 O15 2.016032 1_554
Cr1 O13 2.017771 1_554
Cr1 O5 2.023297 1_555
Cr1 O1 2.025783 1_655
Cr1 O11 2.029384 1_555
Cr1 O9 2.031430 1_555
Cr2 O13 2.016014 1_555
Cr2 O15 2.017722 1_555
Cr2 O7 2.023346 1_655
Cr2 O3 2.025753 1_555
Cr2 O9 2.029433 1_555
Cr2 O11 2.031433 1_555
Cr3 O8 2.025315 1_555
Cr3 O10 2.025353 1_455
Cr3 O6 2.026536 1_555
Cr3 O4 2.026565 1_555
Cr3 O0 2.027947 1_555
Cr3 O2 2.028043 1_555
Cr4 O14 2.016691 1_554
Cr4 O12 2.018494 1_554
Cr4 O4 2.023742 1_555
Cr4 O0 2.026117 1_655
Cr4 O10 2.029543 1_555
Cr4 O8 2.031607 1_555
Cr5 O12 2.016781 1_555
Cr5 O14 2.018399 1_555
Cr5 O6 2.023576 1_655
Cr5 O2 2.026266 1_555
Cr5 O8 2.029623 1_555
Cr5 O10 2.031513 1_555
Co0 O12 1.972293 1_555
Co0 O14 1.972294 1_455
Co0 O4 1.973053 1_556
Co0 O6 1.973091 1_555
Co0 O2 1.975000 1_555
Co0 O0 1.975036 1_556
Co1 O13 1.971064 1_555
Co1 O15 1.971093 1_455
Co1 O5 1.971906 1_556
Co1 O7 1.971937 1_555
Co1 O3 1.973794 1_555
Co1 O1 1.973813 1_556
