# generated using pymatgen
data_Li5Co2Cu5O12
_symmetry_space_group_name_H-M   'P 1'
_cell_length_a   4.99617306
_cell_length_b   4.99617306
_cell_length_c   9.52181787
_cell_angle_alpha   88.24514870
_cell_angle_beta   88.24514870
_cell_angle_gamma   115.32983826
_symmetry_Int_Tables_number   1
_chemical_formula_structural   Li5Co2Cu5O12
_chemical_formula_sum   'Li5 Co2 Cu5 O12'
_cell_volume   214.47809911
_cell_formula_units_Z   1
loop_
 _symmetry_equiv_pos_site_id
 _symmetry_equiv_pos_as_xyz
  1  'x, y, z'
loop_
 _atom_site_type_symbol
 _atom_site_label
 _atom_site_symmetry_multiplicity
 _atom_site_fract_x
 _atom_site_fract_y
 _atom_site_fract_z
 _atom_site_occupancy
  Li  Li0  1  0.83330900  0.65990700  0.25766600  1
  Li  Li1  1  0.67483000  0.84817900  0.74512400  1
  Li  Li2  1  0.34009300  0.16669100  0.74233400  1
  Li  Li3  1  0.15182100  0.32517000  0.25487600  1
  Li  Li4  1  0.08348800  0.91651200  0.50000000  1
  Co  Co0  1  0.75351700  0.24648300  0.50000000  1
  Co  Co1  1  0.24993300  0.75006700  0.00000000  1
  Cu  Cu0  1  0.91989500  0.08010500  0.00000000  1
  Cu  Cu1  1  0.00541100  0.51091900  0.74842000  1
  Cu  Cu2  1  0.48908100  0.99458900  0.25158000  1
  Cu  Cu3  1  0.58029100  0.41970900  0.00000000  1
  Cu  Cu4  1  0.41751200  0.58248800  0.50000000  1
  O  O0  1  0.01595400  0.21474400  0.62967200  1
  O  O1  1  0.78525600  0.98404600  0.37032800  1
  O  O2  1  0.92275100  0.42450100  0.09633000  1
  O  O3  1  0.57549900  0.07724900  0.90367000  1
  O  O4  1  0.69949200  0.51703700  0.62204200  1
  O  O5  1  0.48296300  0.30050800  0.37795800  1
  O  O6  1  0.51777400  0.69972400  0.12565900  1
  O  O7  1  0.30027600  0.48222600  0.87434100  1
  O  O8  1  0.43318500  0.91933300  0.59918200  1
  O  O9  1  0.08066700  0.56681500  0.40081800  1
  O  O10  1  0.19594000  0.00893700  0.13017800  1
  O  O11  1  0.99106300  0.80406000  0.86982200  1
loop_
_geom_bond_atom_site_label_1
_geom_bond_atom_site_label_2
_geom_bond_distance
_geom_bond_site_symmetry_2
Li0 O9 2.039057 1_655
Li0 O1 2.062611 1_555
Li0 O2 2.112166 1_555
Li0 O6 2.116395 1_555
Li0 O5 2.159151 1_555
Li0 O10 2.197563 1_665
Li1 O8 1.988661 1_555
Li1 O11 2.086027 1_555
Li1 O3 2.093099 1_565
Li1 O4 2.100048 1_555
Li1 O0 2.135052 1_665
Li1 O7 2.269855 1_555
Li2 O8 2.039057 1_545
Li2 O0 2.062611 1_555
Li2 O3 2.112166 1_555
Li2 O7 2.116395 1_555
Li2 O4 2.159151 1_555
Li2 O11 2.197563 1_445
Li3 O9 1.988661 1_555
Li3 O10 2.086027 1_555
Li3 O2 2.093099 1_455
Li3 O5 2.100048 1_555
Li3 O1 2.135052 1_445
Li3 O6 2.269855 1_555
Li4 O8 2.006340 1_555
Li4 O9 2.006340 1_555
Li4 O1 2.091856 1_455
Li4 O0 2.091856 1_565
Li4 O5 2.336562 1_565
Li4 O4 2.336562 1_455
Co0 O1 1.879874 1_545
Co0 O0 1.879874 1_655
Co0 O4 1.907778 1_555
Co0 O5 1.907778 1_555
Co0 O9 1.923388 1_655
Co0 O8 1.923388 1_545
Co1 O6 1.911344 1_555
Co1 O7 1.911344 1_554
Co1 O10 1.912649 1_565
Co1 O11 1.912649 1_454
Co1 O3 1.923768 1_564
Co1 O2 1.923768 1_455
Cu0 O2 1.969431 1_555
Cu0 O3 1.969431 1_554
Cu0 O11 2.015511 1_544
Cu0 O10 2.015511 1_655
Cu0 O7 2.350780 1_654
Cu0 O6 2.350780 1_545
Cu1 O0 1.906936 1_555
Cu1 O11 1.916991 1_455
Cu1 O7 1.976566 1_555
Cu1 O4 1.983792 1_455
Cu2 O1 1.906936 1_555
Cu2 O10 1.916991 1_565
Cu2 O6 1.976566 1_555
Cu2 O5 1.983792 1_565
Cu3 O2 1.957497 1_555
Cu3 O3 1.957497 1_554
Cu3 O7 1.984923 1_554
Cu3 O6 1.984923 1_555
Cu3 O10 2.400439 1_555
Cu3 O11 2.400439 1_554
Cu4 O8 1.928573 1_555
Cu4 O9 1.928573 1_555
Cu4 O5 1.978202 1_555
Cu4 O4 1.978202 1_555
Cu4 O0 2.341064 1_555
Cu4 O1 2.341064 1_555
