# generated using pymatgen
data_Li3MnV(PO4)3
_symmetry_space_group_name_H-M   'P 1'
_cell_length_a   8.33622100
_cell_length_b   8.40901993
_cell_length_c   9.24979319
_cell_angle_alpha   63.82069853
_cell_angle_beta   63.88795841
_cell_angle_gamma   60.57839228
_symmetry_Int_Tables_number   1
_chemical_formula_structural   Li3MnV(PO4)3
_chemical_formula_sum   'Li6 Mn2 V2 P6 O24'
_cell_volume   485.70213402
_cell_formula_units_Z   2
loop_
 _symmetry_equiv_pos_site_id
 _symmetry_equiv_pos_as_xyz
  1  'x, y, z'
loop_
 _atom_site_type_symbol
 _atom_site_label
 _atom_site_symmetry_multiplicity
 _atom_site_fract_x
 _atom_site_fract_y
 _atom_site_fract_z
 _atom_site_occupancy
  Li  Li0  1  0.07031900  0.31857700  0.86580500  1
  Li  Li1  1  0.29564000  0.74379000  0.91375200  1
  Li  Li2  1  0.45824000  0.73202800  0.59910300  1
  Li  Li3  1  0.54176000  0.26797200  0.40089700  1
  Li  Li4  1  0.70436000  0.25621000  0.08624800  1
  Li  Li5  1  0.92968100  0.68142300  0.13419500  1
  Mn  Mn0  1  0.86401500  0.85584200  0.43426800  1
  Mn  Mn1  1  0.13598500  0.14415800  0.56573200  1
  V  V0  1  0.34634600  0.33434400  0.96297500  1
  V  V1  1  0.65365400  0.66565600  0.03702500  1
  P  P0  1  0.73328100  0.46702900  0.75394700  1
  P  P1  1  0.05187700  0.73030700  0.75914300  1
  P  P2  1  0.45765400  0.04316800  0.75791800  1
  P  P3  1  0.54234600  0.95683200  0.24208200  1
  P  P4  1  0.94812300  0.26969300  0.24085700  1
  P  P5  1  0.26671900  0.53297100  0.24605300  1
  O  O0  1  0.78089300  0.48365300  0.89699000  1
  O  O1  1  0.86863000  0.26907300  0.74029700  1
  O  O2  1  0.51391800  0.48880200  0.82427200  1
  O  O3  1  0.17196100  0.51013800  0.82101700  1
  O  O4  1  0.86022200  0.77120500  0.90608700  1
  O  O5  1  0.49327800  0.83491600  0.88119500  1
  O  O6  1  0.73766500  0.63415100  0.59468900  1
  O  O7  1  0.16845500  0.83727800  0.74509100  1
  O  O8  1  0.01889400  0.77503300  0.59669100  1
  O  O9  1  0.47592300  0.16531400  0.83515500  1
  O  O10  1  0.24979200  0.12634500  0.75354200  1
  O  O11  1  0.60137800  0.04443100  0.58462600  1
  O  O12  1  0.39862200  0.95556900  0.41537400  1
  O  O13  1  0.75020800  0.87365500  0.24645800  1
  O  O14  1  0.52407700  0.83468600  0.16484500  1
  O  O15  1  0.98110600  0.22496700  0.40330900  1
  O  O16  1  0.83154500  0.16272200  0.25490900  1
  O  O17  1  0.26233500  0.36584900  0.40531100  1
  O  O18  1  0.50672200  0.16508400  0.11880500  1
  O  O19  1  0.13977800  0.22879500  0.09391300  1
  O  O20  1  0.82803900  0.48986200  0.17898300  1
  O  O21  1  0.48608200  0.51119800  0.17572800  1
  O  O22  1  0.13137000  0.73092700  0.25970300  1
  O  O23  1  0.21910700  0.51634700  0.10301000  1
loop_
_geom_bond_atom_site_label_1
_geom_bond_atom_site_label_2
_geom_bond_distance
_geom_bond_site_symmetry_2
Li0 O10 1.914994 1_555
Li0 O3 1.981790 1_555
Li0 O0 2.069196 1_455
Li0 O19 2.144183 1_556
Li1 O7 1.931560 1_555
Li1 O5 1.998074 1_555
Li1 O23 2.095463 1_556
Li1 O2 2.236213 1_555
Li2 O12 1.917162 1_555
Li2 O6 2.041403 1_555
Li2 O7 2.127203 1_555
Li2 O2 2.212713 1_555
Li3 O11 1.917162 1_555
Li3 O17 2.041403 1_555
Li3 O16 2.127203 1_555
Li3 O21 2.212713 1_555
Li4 O16 1.931560 1_555
Li4 O18 1.998074 1_555
Li4 O0 2.095463 1_554
Li4 O21 2.236213 1_555
Li5 O13 1.914994 1_555
Li5 O20 1.981790 1_555
Li5 O23 2.069196 1_655
Li5 O4 2.144183 1_554
Mn0 O8 2.080997 1_655
Mn0 O22 2.169465 1_655
Mn0 O6 2.213373 1_555
Mn0 O13 2.240966 1_555
Mn0 O11 2.257707 1_565
Mn0 O16 2.327312 1_565
Mn1 O15 2.080997 1_455
Mn1 O1 2.169465 1_455
Mn1 O17 2.213373 1_555
Mn1 O10 2.240966 1_555
Mn1 O12 2.257707 1_545
Mn1 O7 2.327312 1_545
O0 P0 1.614837 1_555
O0 V1 2.022402 1_556
O1 P0 1.508226 1_555
O2 P0 1.590508 1_555
O2 V0 2.004742 1_555
O3 P1 1.582994 1_555
O3 V0 1.969510 1_555
O4 P1 1.574604 1_655
O4 V1 1.984221 1_556
O5 P2 1.574903 1_565
O5 V1 1.976713 1_556
O6 P0 1.524050 1_555
O7 P1 1.554013 1_555
O8 P1 1.496136 1_555
O9 P2 1.576557 1_555
O9 V0 1.853421 1_555
O10 P2 1.529519 1_555
O11 P2 1.520493 1_555
O12 P3 1.520493 1_555
O13 P3 1.529519 1_555
O14 P3 1.576557 1_555
O14 V1 1.853421 1_555
O15 P4 1.496136 1_555
O16 P4 1.554013 1_555
O17 P5 1.524050 1_555
O18 P3 1.574903 1_545
O18 V0 1.976713 1_554
O19 P4 1.574604 1_455
O19 V0 1.984221 1_554
O20 P4 1.582994 1_555
O20 V1 1.969510 1_555
O21 P5 1.590508 1_555
O21 V1 2.004742 1_555
O22 P5 1.508226 1_555
O23 P5 1.614837 1_555
O23 V0 2.022402 1_554
