# generated using pymatgen
data_Li5Fe5O12
_symmetry_space_group_name_H-M   'P 1'
_cell_length_a   5.17125547
_cell_length_b   5.12092547
_cell_length_c   10.36248678
_cell_angle_alpha   90.56758512
_cell_angle_beta   91.49900179
_cell_angle_gamma   59.68599669
_symmetry_Int_Tables_number   1
_chemical_formula_structural   Li5Fe5O12
_chemical_formula_sum   'Li5 Fe5 O12'
_cell_volume   236.81236881
_cell_formula_units_Z   1
loop_
 _symmetry_equiv_pos_site_id
 _symmetry_equiv_pos_as_xyz
  1  'x, y, z'
loop_
 _atom_site_type_symbol
 _atom_site_label
 _atom_site_symmetry_multiplicity
 _atom_site_fract_x
 _atom_site_fract_y
 _atom_site_fract_z
 _atom_site_occupancy
  Li  Li0  1  0.14910700  0.51239900  0.74991200  1
  Li  Li1  1  0.33985400  0.50969900  0.24800600  1
  Li  Li2  1  0.00045300  0.99998800  0.99863900  1
  Li  Li3  1  0.65603600  0.49924100  0.74922500  1
  Li  Li4  1  0.83967200  0.50748600  0.24903700  1
  Fe  Fe0  1  0.16397300  0.67104900  0.49856300  1
  Fe  Fe1  1  0.66498500  0.67054800  0.99860000  1
  Fe  Fe2  1  0.33627100  0.32808100  0.99901900  1
  Fe  Fe3  1  0.83329700  0.33210100  0.49887700  1
  Fe  Fe4  1  0.50414500  0.99072500  0.49919800  1
  O  O0  1  0.02235500  0.61896200  0.10560700  1
  O  O1  1  0.35866700  0.62007600  0.89184800  1
  O  O2  1  0.16419400  0.35671000  0.39398300  1
  O  O3  1  0.50937800  0.65539500  0.38889600  1
  O  O4  1  0.47872900  0.35493300  0.60385600  1
  O  O5  1  0.17310000  0.98474200  0.59500100  1
  O  O6  1  0.83497100  0.65353000  0.60887700  1
  O  O7  1  0.64248900  0.37990300  0.10624500  1
  O  O8  1  0.36932600  0.99832600  0.09499200  1
  O  O9  1  0.97754400  0.38056900  0.89173100  1
  O  O10  1  0.63200700  0.00076600  0.90271100  1
  O  O11  1  0.83934900  0.98688600  0.40271500  1
loop_
_geom_bond_atom_site_label_1
_geom_bond_atom_site_label_2
_geom_bond_distance
_geom_bond_site_symmetry_2
Li0 O6 2.002174 1_455
Li0 O9 2.023627 1_455
Li0 O1 2.036042 1_555
Li0 O4 2.137688 1_555
Li1 O3 2.007092 1_555
Li1 O7 2.024805 1_555
Li1 O0 2.036773 1_555
Li1 O2 2.130949 1_555
Li2 O10 2.124089 1_465
Li2 O8 2.125986 1_556
Li2 O9 2.200563 1_465
Li2 O0 2.204971 1_556
Li2 O1 2.206262 1_555
Li2 O7 2.210103 1_466
Li3 O1 2.017951 1_555
Li3 O9 2.045388 1_555
Li3 O4 2.060507 1_555
Li3 O6 2.104001 1_555
Li4 O0 2.015459 1_655
Li4 O7 2.056815 1_555
Li4 O2 2.061927 1_655
Li4 O3 2.096020 1_555
Fe0 O5 1.903598 1_555
Fe0 O11 1.903741 1_455
Fe0 O2 1.931121 1_555
Fe0 O4 1.934576 1_555
Fe0 O3 2.109068 1_555
Fe0 O6 2.113589 1_455
Fe1 O8 1.899687 1_556
Fe1 O10 1.899811 1_565
Fe1 O9 1.918893 1_555
Fe1 O7 1.920293 1_556
Fe1 O1 2.028715 1_555
Fe1 O0 2.029880 1_656
Fe2 O8 1.898110 1_546
Fe2 O10 1.898249 1_555
Fe2 O0 1.922040 1_556
Fe2 O1 1.922778 1_555
Fe2 O7 2.034433 1_556
Fe2 O9 2.035739 1_455
Fe3 O3 1.995908 1_555
Fe3 O6 1.996358 1_555
Fe3 O11 2.007490 1_545
Fe3 O5 2.008053 1_645
Fe3 O2 2.107872 1_655
Fe3 O4 2.108186 1_555
Fe4 O5 2.014854 1_555
Fe4 O11 2.015103 1_555
Fe4 O6 2.038443 1_555
Fe4 O3 2.042495 1_555
Fe4 O4 2.095689 1_565
Fe4 O2 2.099042 1_565
