# generated using pymatgen
data_SrSm2O4
_symmetry_space_group_name_H-M   'P 1'
_cell_length_a   3.52187800
_cell_length_b   10.35166500
_cell_length_c   12.25952200
_cell_angle_alpha   90.00000000
_cell_angle_beta   90.00000000
_cell_angle_gamma   90.00000000
_symmetry_Int_Tables_number   1
_chemical_formula_structural   SrSm2O4
_chemical_formula_sum   'Sr4 Sm8 O16'
_cell_volume   446.94908645
_cell_formula_units_Z   4
loop_
 _symmetry_equiv_pos_site_id
 _symmetry_equiv_pos_as_xyz
  1  'x, y, z'
loop_
 _atom_site_type_symbol
 _atom_site_label
 _atom_site_symmetry_multiplicity
 _atom_site_fract_x
 _atom_site_fract_y
 _atom_site_fract_z
 _atom_site_occupancy
  Sr  Sr0  1  0.75000000  0.24679900  0.64862900  1
  Sr  Sr1  1  0.25000000  0.25320100  0.14862900  1
  Sr  Sr2  1  0.75000000  0.74679900  0.85137100  1
  Sr  Sr3  1  0.25000000  0.75320100  0.35137100  1
  Sm  Sm0  1  0.75000000  0.07764400  0.88758800  1
  Sm  Sm1  1  0.75000000  0.07819500  0.38822300  1
  Sm  Sm2  1  0.25000000  0.42180500  0.88822300  1
  Sm  Sm3  1  0.25000000  0.42235700  0.38758800  1
  Sm  Sm4  1  0.75000000  0.57764300  0.61241200  1
  Sm  Sm5  1  0.75000000  0.57819500  0.11177700  1
  Sm  Sm6  1  0.25000000  0.92180500  0.61177700  1
  Sm  Sm7  1  0.25000000  0.92235700  0.11241200  1
  O  O0  1  0.25000000  0.01840800  0.28298100  1
  O  O1  1  0.75000000  0.07641500  0.07805800  1
  O  O2  1  0.25000000  0.12792900  0.52223800  1
  O  O3  1  0.25000000  0.20999500  0.81987800  1
  O  O4  1  0.75000000  0.29000500  0.31987800  1
  O  O5  1  0.75000000  0.37207100  0.02223800  1
  O  O6  1  0.25000000  0.42358500  0.57805800  1
  O  O7  1  0.75000000  0.48159200  0.78298100  1
  O  O8  1  0.25000000  0.51840800  0.21701900  1
  O  O9  1  0.75000000  0.57641500  0.42194200  1
  O  O10  1  0.25000000  0.62792900  0.97776200  1
  O  O11  1  0.25000000  0.70999500  0.68012200  1
  O  O12  1  0.75000000  0.79000500  0.18012200  1
  O  O13  1  0.75000000  0.87207100  0.47776200  1
  O  O14  1  0.25000000  0.92358500  0.92194200  1
  O  O15  1  0.75000000  0.98159200  0.71701900  1
loop_
_geom_bond_atom_site_label_1
_geom_bond_atom_site_label_2
_geom_bond_distance
_geom_bond_site_symmetry_2
O0 Sm1 2.269052 1_455
O0 Sm1 2.269052 1_555
O0 Sm7 2.315445 1_545
O0 Sr3 2.870509 1_545
O0 Sr1 2.936023 1_555
O1 Sm0 2.335106 1_554
O1 Sm7 2.412786 1_545
O1 Sm7 2.412786 1_645
O1 Sr1 2.682989 1_655
O1 Sr1 2.682989 1_555
O2 Sm6 2.399530 1_545
O2 Sm1 2.462777 1_455
O2 Sm1 2.462777 1_555
O2 Sr0 2.648768 1_555
O2 Sr0 2.648768 1_455
O3 Sm2 2.347226 1_555
O3 Sm0 2.380547 1_455
O3 Sm0 2.380547 1_555
O3 Sr0 2.766526 1_555
O3 Sr0 2.766526 1_455
O4 Sm1 2.347226 1_555
O4 Sm3 2.380553 1_555
O4 Sm3 2.380553 1_655
O4 Sr1 2.766526 1_555
O4 Sr1 2.766526 1_655
O5 Sm5 2.399530 1_555
O5 Sm2 2.462777 1_554
O5 Sm2 2.462777 1_654
O5 Sr1 2.648768 1_655
O5 Sr1 2.648768 1_555
O6 Sm3 2.335106 1_555
O6 Sm4 2.412786 1_455
O6 Sm4 2.412786 1_555
O6 Sr0 2.682989 1_455
O6 Sr0 2.682989 1_555
O7 Sm2 2.269052 1_555
O7 Sm2 2.269052 1_655
O7 Sm4 2.315445 1_555
O7 Sr2 2.870509 1_555
O7 Sr0 2.936023 1_555
O8 Sm5 2.269052 1_555
O8 Sm5 2.269052 1_455
O8 Sm3 2.315445 1_555
O8 Sr1 2.870509 1_555
O8 Sr3 2.936023 1_555
O9 Sm4 2.335106 1_555
O9 Sm3 2.412786 1_655
O9 Sm3 2.412786 1_555
O9 Sr3 2.682989 1_555
O9 Sr3 2.682989 1_655
O10 Sm2 2.399530 1_555
O10 Sm5 2.462777 1_556
O10 Sm5 2.462777 1_456
O10 Sr2 2.648768 1_455
O10 Sr2 2.648768 1_555
O11 Sm6 2.347226 1_555
O11 Sm4 2.380553 1_455
O11 Sm4 2.380553 1_555
O11 Sr2 2.766526 1_455
O11 Sr2 2.766526 1_555
O12 Sm5 2.347226 1_555
O12 Sm7 2.380553 1_555
O12 Sm7 2.380553 1_655
O12 Sr3 2.766526 1_555
O12 Sr3 2.766526 1_655
O13 Sm1 2.399530 1_565
O13 Sm6 2.462777 1_555
O13 Sm6 2.462777 1_655
O13 Sr3 2.648768 1_555
O13 Sr3 2.648768 1_655
O14 Sm7 2.335106 1_556
O14 Sm0 2.412792 1_465
O14 Sm0 2.412792 1_565
O14 Sr2 2.682989 1_455
O14 Sr2 2.682989 1_555
O15 Sm6 2.269052 1_555
O15 Sm6 2.269052 1_655
O15 Sm0 2.315449 1_565
O15 Sr0 2.870509 1_565
O15 Sr2 2.936023 1_555
