# generated using pymatgen
data_LiVPO4
_symmetry_space_group_name_H-M   'P 1'
_cell_length_a   5.49388022
_cell_length_b   6.42395527
_cell_length_c   5.49388022
_cell_angle_alpha   76.89571897
_cell_angle_beta   61.97928120
_cell_angle_gamma   103.10428103
_symmetry_Int_Tables_number   1
_chemical_formula_structural   LiVPO4
_chemical_formula_sum   'Li2 V2 P2 O8'
_cell_volume   153.67623106
_cell_formula_units_Z   2
loop_
 _symmetry_equiv_pos_site_id
 _symmetry_equiv_pos_as_xyz
  1  'x, y, z'
loop_
 _atom_site_type_symbol
 _atom_site_label
 _atom_site_symmetry_multiplicity
 _atom_site_fract_x
 _atom_site_fract_y
 _atom_site_fract_z
 _atom_site_occupancy
  Li  Li0  1  0.80973300  0.25000000  0.80973300  1
  Li  Li1  1  0.55973400  0.75000000  0.55973400  1
  V  V0  1  0.18397400  0.74999700  0.18397900  1
  V  V1  1  0.43398000  0.25000300  0.43397600  1
  P  P0  1  0.12232200  0.25000000  0.12232200  1
  P  P1  1  0.87232400  0.75000000  0.87232400  1
  O  O0  1  0.78811200  0.10516100  0.26569500  1
  O  O1  1  0.87085800  0.60516200  0.68295200  1
  O  O2  1  0.26569500  0.39483800  0.78811200  1
  O  O3  1  0.68295200  0.89483800  0.87085800  1
  O  O4  1  0.30355900  0.09987400  0.15160000  1
  O  O5  1  0.75146800  0.59987200  0.20368700  1
  O  O6  1  0.15160000  0.40012600  0.30355900  1
  O  O7  1  0.20368700  0.90012800  0.75146800  1
loop_
_geom_bond_atom_site_label_1
_geom_bond_atom_site_label_2
_geom_bond_distance
_geom_bond_site_symmetry_2
Li0 O1 2.124988 1_555
Li0 O3 2.124988 1_545
Li0 O4 2.290412 1_556
Li0 O6 2.290412 1_655
Li0 O2 2.401726 1_655
Li0 O0 2.401727 1_556
Li1 O0 2.124982 1_565
Li1 O2 2.124987 1_555
Li1 O7 2.290418 1_555
Li1 O5 2.290418 1_555
Li1 O3 2.401731 1_555
Li1 O1 2.401731 1_555
O0 P0 1.546474 1_655
O0 V1 2.242004 1_555
O1 P1 1.546478 1_555
O1 V0 2.241992 1_655
O2 P0 1.546472 1_556
O2 V1 2.241992 1_555
O3 P1 1.546478 1_555
O3 V0 2.242014 1_556
O4 P0 1.569368 1_555
O4 V0 2.134074 1_545
O4 V1 2.293392 1_555
O5 P1 1.569356 1_554
O5 V1 2.134016 1_555
O5 V0 2.293390 1_655
O6 P0 1.569368 1_555
O6 V0 2.134044 1_555
O6 V1 2.293381 1_555
O7 P1 1.569356 1_455
O7 V1 2.134050 1_565
O7 V0 2.293407 1_556
