# generated using pymatgen
data_Ca10Ti8NbFeO30
_symmetry_space_group_name_H-M   'P 1'
_cell_length_a   5.43686100
_cell_length_b   5.53379019
_cell_length_c   38.61817823
_cell_angle_alpha   90.07275440
_cell_angle_beta   90.04505839
_cell_angle_gamma   90.23411052
_symmetry_Int_Tables_number   1
_chemical_formula_structural   Ca10Ti8NbFeO30
_chemical_formula_sum   'Ca20 Ti16 Nb2 Fe2 O60'
_cell_volume   1161.87281497
_cell_formula_units_Z   2
loop_
 _symmetry_equiv_pos_site_id
 _symmetry_equiv_pos_as_xyz
  1  'x, y, z'
loop_
 _atom_site_type_symbol
 _atom_site_label
 _atom_site_symmetry_multiplicity
 _atom_site_fract_x
 _atom_site_fract_y
 _atom_site_fract_z
 _atom_site_occupancy
  Ca  Ca0  1  0.00817100  0.95187300  0.95074600  1
  Ca  Ca1  1  0.01903200  0.96792600  0.34630900  1
  Ca  Ca2  1  0.00731200  0.96836900  0.14830600  1
  Ca  Ca3  1  0.00871000  0.96785400  0.54914900  1
  Ca  Ca4  1  0.00430300  0.94561500  0.75287800  1
  Ca  Ca5  1  0.49418000  0.46451800  0.14817300  1
  Ca  Ca6  1  0.48972800  0.45289900  0.95049500  1
  Ca  Ca7  1  0.48934800  0.46217200  0.34626200  1
  Ca  Ca8  1  0.48226800  0.45764100  0.54983200  1
  Ca  Ca9  1  0.48699100  0.44739700  0.75311700  1
  Ca  Ca10  1  0.50582000  0.53548200  0.85182700  1
  Ca  Ca11  1  0.51027200  0.54710100  0.04950500  1
  Ca  Ca12  1  0.51773200  0.54235900  0.45016800  1
  Ca  Ca13  1  0.51300900  0.55260300  0.24688300  1
  Ca  Ca14  1  0.51065200  0.53782800  0.65373800  1
  Ca  Ca15  1  0.99182900  0.04812700  0.04925400  1
  Ca  Ca16  1  0.99268800  0.03163100  0.85169400  1
  Ca  Ca17  1  0.99129000  0.03214600  0.45085100  1
  Ca  Ca18  1  0.99569700  0.05438500  0.24712200  1
  Ca  Ca19  1  0.98096800  0.03207400  0.65369100  1
  Ti  Ti0  1  0.00000000  0.50000000  0.00000000  1
  Ti  Ti1  1  0.99579300  0.51626000  0.19743100  1
  Ti  Ti2  1  0.99863500  0.51264000  0.29536900  1
  Ti  Ti3  1  0.00136500  0.48736000  0.70463100  1
  Ti  Ti4  1  0.50455700  0.98677800  0.90084300  1
  Ti  Ti5  1  0.49544300  0.01322200  0.09915700  1
  Ti  Ti6  1  0.50777300  0.98899300  0.80179900  1
  Ti  Ti7  1  0.50330800  0.00857100  0.29904200  1
  Ti  Ti8  1  0.49669200  0.99142900  0.70095800  1
  Ti  Ti9  1  0.50000000  0.00000000  0.00000000  1
  Ti  Ti10  1  0.49222700  0.01100700  0.19820100  1
  Ti  Ti11  1  0.50000000  0.00000000  0.50000000  1
  Ti  Ti12  1  0.99991800  0.48375200  0.90188900  1
  Ti  Ti13  1  0.00420700  0.48374000  0.80256900  1
  Ti  Ti14  1  0.00008200  0.51624800  0.09811100  1
  Ti  Ti15  1  0.00000000  0.50000000  0.50000000  1
  Nb  Nb0  1  0.99598100  0.49797900  0.60201600  1
  Nb  Nb1  1  0.00401900  0.50202100  0.39798400  1
  Fe  Fe0  1  0.50345900  0.00124300  0.39926800  1
  Fe  Fe1  1  0.49654100  0.99875700  0.60073200  1
  O  O0  1  0.07233100  0.47703000  0.85166700  1
  O  O1  1  0.08259400  0.48011200  0.04933800  1
  O  O2  1  0.08898000  0.48675500  0.24769500  1
  O  O3  1  0.41618900  0.97184400  0.45081900  1
  O  O4  1  0.08280800  0.47703300  0.65248400  1
  O  O5  1  0.20944500  0.21050400  0.99184500  1
  O  O6  1  0.21925700  0.21396700  0.18973400  1
  O  O7  1  0.21949400  0.21960000  0.38876700  1
  O  O8  1  0.20841500  0.21447200  0.59150900  1
  O  O9  1  0.19763700  0.20594600  0.79408200  1
  O  O10  1  0.20306100  0.21124900  0.90953800  1
  O  O11  1  0.21600900  0.21027400  0.10688700  1
  O  O12  1  0.22317000  0.22141100  0.30568000  1
  O  O13  1  0.21498500  0.21879000  0.50790600  1
  O  O14  1  0.19877600  0.20430900  0.71117900  1
  O  O15  1  0.28550100  0.71000900  0.90952800  1
  O  O16  1  0.28934300  0.71021000  0.99165200  1
  O  O17  1  0.29454400  0.71033800  0.10671000  1
  O  O18  1  0.29903500  0.71449900  0.18965500  1
  O  O19  1  0.28967600  0.71744300  0.38761000  1
  O  O20  1  0.27789600  0.70156600  0.71195300  1
  O  O21  1  0.27958300  0.71706500  0.50991200  1
  O  O22  1  0.27741100  0.71442700  0.59074100  1
  O  O23  1  0.29584800  0.72176500  0.30592300  1
  O  O24  1  0.28025500  0.70397300  0.79408900  1
  O  O25  1  0.41641000  0.97654200  0.85186400  1
  O  O26  1  0.42267100  0.97966200  0.04935900  1
  O  O27  1  0.09089900  0.49122500  0.44984300  1
  O  O28  1  0.43049500  0.98522400  0.24725700  1
  O  O29  1  0.40490200  0.96815200  0.65360600  1
  O  O30  1  0.58359000  0.02345800  0.14813600  1
  O  O31  1  0.57732900  0.02033800  0.95064100  1
  O  O32  1  0.59509800  0.03184800  0.34639400  1
  O  O33  1  0.90910100  0.50877500  0.55015700  1
  O  O34  1  0.56950500  0.01477600  0.75274300  1
  O  O35  1  0.70096500  0.28550100  0.81034500  1
  O  O36  1  0.70545600  0.28966200  0.89329000  1
  O  O37  1  0.71065700  0.28979000  0.00834800  1
  O  O38  1  0.71449900  0.28999100  0.09047200  1
  O  O39  1  0.72258900  0.28557300  0.40925900  1
  O  O40  1  0.71974500  0.29602700  0.20591100  1
  O  O41  1  0.72210400  0.29843400  0.28804700  1
  O  O42  1  0.71032400  0.28255700  0.61239000  1
  O  O43  1  0.72041700  0.28293500  0.49008800  1
  O  O44  1  0.70415200  0.27823500  0.69407700  1
  O  O45  1  0.78399100  0.78972600  0.89311300  1
  O  O46  1  0.78501500  0.78121000  0.49209400  1
  O  O47  1  0.79693900  0.78875100  0.09046200  1
  O  O48  1  0.80122400  0.79569100  0.28882100  1
  O  O49  1  0.77683000  0.77858900  0.69432000  1
  O  O50  1  0.78074300  0.78603300  0.81026600  1
  O  O51  1  0.79055500  0.78949600  0.00815500  1
  O  O52  1  0.80236300  0.79405400  0.20591800  1
  O  O53  1  0.79158500  0.78552800  0.40849100  1
  O  O54  1  0.78050600  0.78040000  0.61123300  1
  O  O55  1  0.91740600  0.51988800  0.95066200  1
  O  O56  1  0.92766900  0.52297000  0.14833300  1
  O  O57  1  0.91719200  0.52296700  0.34751600  1
  O  O58  1  0.58381100  0.02815600  0.54918100  1
  O  O59  1  0.91102000  0.51324500  0.75230500  1
loop_
_geom_bond_atom_site_label_1
_geom_bond_atom_site_label_2
_geom_bond_distance
_geom_bond_site_symmetry_2
Ca0 O31 2.374399 1_465
Ca0 O10 2.389857 1_565
Ca0 O5 2.396592 1_565
Ca0 O55 2.438940 1_455
Ca0 O15 2.571658 1_555
Ca0 O16 2.576641 1_555
Ca0 O51 2.668890 1_456
Ca0 O45 2.688134 1_455
Ca1 O32 2.333288 1_465
Ca1 O12 2.378423 1_565
Ca1 O7 2.407266 1_565
Ca1 O57 2.522084 1_455
Ca1 O23 2.562842 1_555
Ca1 O19 2.578570 1_555
Ca1 O48 2.687148 1_455
Ca1 O53 2.883592 1_455
Ca2 O30 2.325040 1_465
Ca2 O11 2.373562 1_565
Ca2 O6 2.390257 1_565
Ca2 O56 2.500750 1_455
Ca2 O18 2.656875 1_555
Ca2 O17 2.659761 1_555
Ca2 O52 2.668844 1_455
Ca2 O47 2.695780 1_455
Ca3 O58 2.335444 1_465
Ca3 O8 2.386812 1_565
Ca3 O13 2.391340 1_565
Ca3 O21 2.530960 1_555
Ca3 O22 2.588365 1_555
Ca3 O33 2.595711 1_455
Ca3 O46 2.716699 1_455
Ca3 O54 2.892101 1_455
Ca4 O9 2.385669 1_565
Ca4 O34 2.396263 1_465
Ca4 O14 2.399301 1_565
Ca4 O59 2.443847 1_455
Ca4 O20 2.559106 1_555
Ca4 O24 2.567085 1_555
Ca4 O50 2.677550 1_455
Ca4 O49 2.734726 1_455
Ca5 O17 2.367979 1_555
Ca5 O18 2.369519 1_555
Ca5 O56 2.377605 1_555
Ca5 O30 2.490617 1_555
Ca5 O6 2.593280 1_555
Ca5 O11 2.604217 1_555
Ca5 O38 2.709452 1_555
Ca5 O40 2.712080 1_555
Ca6 O55 2.353097 1_555
Ca6 O16 2.397981 1_555
Ca6 O15 2.403339 1_555
Ca6 O31 2.442545 1_555
Ca6 O5 2.581460 1_555
Ca6 O10 2.587043 1_555
Ca6 O36 2.660764 1_555
Ca6 O37 2.694216 1_556
Ca7 O57 2.349423 1_555
Ca7 O23 2.369104 1_555
Ca7 O19 2.394418 1_555
Ca7 O32 2.452041 1_555
Ca7 O12 2.510157 1_555
Ca7 O7 2.577234 1_555
Ca7 O41 2.735924 1_555
Ca7 O39 2.914290 1_555
Ca8 O33 2.336694 1_555
Ca8 O21 2.380715 1_555
Ca8 O22 2.401169 1_555
Ca8 O58 2.442257 1_555
Ca8 O13 2.540754 1_555
Ca8 O8 2.571175 1_555
Ca8 O43 2.818438 1_555
Ca8 O42 2.885066 1_555
Ca9 O59 2.332777 1_555
Ca9 O24 2.406864 1_555
Ca9 O20 2.411148 1_555
Ca9 O34 2.437532 1_555
Ca9 O9 2.599031 1_555
Ca9 O14 2.619399 1_555
Ca9 O35 2.655145 1_555
Ca9 O44 2.734339 1_555
Ca10 O36 2.367979 1_555
Ca10 O35 2.369519 1_555
Ca10 O0 2.377605 1_555
Ca10 O25 2.490617 1_555
Ca10 O50 2.593280 1_555
Ca10 O45 2.604217 1_555
Ca10 O15 2.709452 1_555
Ca10 O24 2.712080 1_555
Ca11 O1 2.353097 1_555
Ca11 O37 2.397981 1_555
Ca11 O38 2.403339 1_555
Ca11 O26 2.442545 1_555
Ca11 O51 2.581460 1_555
Ca11 O47 2.587043 1_555
Ca11 O17 2.660764 1_555
Ca11 O16 2.694216 1_554
Ca12 O27 2.336694 1_555
Ca12 O43 2.380715 1_555
Ca12 O39 2.401169 1_555
Ca12 O3 2.442257 1_555
Ca12 O46 2.540754 1_555
Ca12 O53 2.571175 1_555
Ca12 O21 2.818438 1_555
Ca12 O19 2.885066 1_555
Ca13 O2 2.332777 1_555
Ca13 O40 2.406864 1_555
Ca13 O41 2.411148 1_555
Ca13 O28 2.437532 1_555
Ca13 O52 2.599031 1_555
Ca13 O48 2.619399 1_555
Ca13 O18 2.655145 1_555
Ca13 O23 2.734339 1_555
Ca14 O4 2.349423 1_555
Ca14 O44 2.369104 1_555
Ca14 O42 2.394418 1_555
Ca14 O29 2.452041 1_555
Ca14 O49 2.510157 1_555
Ca14 O54 2.577234 1_555
Ca14 O20 2.735924 1_555
Ca14 O22 2.914290 1_555
Ca15 O26 2.374399 1_645
Ca15 O47 2.389857 1_545
Ca15 O51 2.396592 1_545
Ca15 O1 2.438940 1_655
Ca15 O38 2.571658 1_555
Ca15 O37 2.576641 1_555
Ca15 O5 2.668890 1_654
Ca15 O11 2.688134 1_655
Ca16 O25 2.325040 1_645
Ca16 O45 2.373562 1_545
Ca16 O50 2.390257 1_545
Ca16 O0 2.500750 1_655
Ca16 O35 2.656875 1_555
Ca16 O36 2.659761 1_555
Ca16 O9 2.668844 1_655
Ca16 O10 2.695780 1_655
Ca17 O3 2.335444 1_645
Ca17 O53 2.386812 1_545
Ca17 O46 2.391340 1_545
Ca17 O43 2.530960 1_555
Ca17 O39 2.588365 1_555
Ca17 O27 2.595711 1_655
Ca17 O13 2.716699 1_655
Ca17 O7 2.892101 1_655
Ca18 O52 2.385669 1_545
Ca18 O28 2.396263 1_645
Ca18 O48 2.399301 1_545
Ca18 O2 2.443847 1_655
Ca18 O41 2.559106 1_555
Ca18 O40 2.567085 1_555
Ca18 O6 2.677550 1_655
Ca18 O12 2.734726 1_655
Ca19 O29 2.333288 1_645
Ca19 O49 2.378423 1_545
Ca19 O54 2.407266 1_545
Ca19 O4 2.522084 1_655
Ca19 O44 2.562842 1_555
Ca19 O42 2.578570 1_555
Ca19 O14 2.687148 1_655
Ca19 O8 2.883592 1_655
Nb0 O22 1.988178 1_655
Nb0 O54 1.988934 1_555
Nb0 O8 1.993460 1_655
Nb0 O42 1.995173 1_555
Nb0 O4 2.008578 1_655
Nb0 O33 2.058286 1_555
Nb1 O39 1.988178 1_455
Nb1 O7 1.988934 1_555
Nb1 O53 1.993460 1_455
Nb1 O19 1.995173 1_555
Nb1 O57 2.008578 1_455
Nb1 O27 2.058286 1_555
Fe0 O19 2.000638 1_545
Fe0 O53 2.005303 1_545
Fe0 O7 2.005894 1_555
Fe0 O39 2.006571 1_555
Fe0 O3 2.053431 1_545
Fe0 O32 2.109040 1_555
Fe1 O42 2.000638 1_565
Fe1 O8 2.005303 1_565
Fe1 O54 2.005894 1_555
Fe1 O22 2.006571 1_555
Fe1 O58 2.053431 1_565
Fe1 O29 2.109040 1_555
O0 Ti13 1.932058 1_555
O0 Ti12 1.979675 1_455
O1 Ti14 1.946794 1_555
O1 Ti0 1.960532 1_555
O2 Ti2 1.911205 1_455
O2 Ti1 2.012751 1_455
O3 Ti11 1.958695 1_565
O4 Ti3 2.063039 1_555
O5 Ti9 1.991683 1_556
O5 Ti0 1.994116 1_556
O6 Ti10 1.893330 1_555
O6 Ti1 2.092535 1_455
O9 Ti13 1.894470 1_555
O9 Ti6 2.095234 1_545
O10 Ti12 1.896129 1_455
O10 Ti4 2.087857 1_545
O11 Ti5 1.897290 1_555
O11 Ti14 2.092139 1_555
O12 Ti7 1.946075 1_555
O12 Ti2 2.064709 1_455
O13 Ti15 1.973967 1_555
O13 Ti11 1.993856 1_555
O14 Ti3 1.919287 1_555
O14 Ti8 2.045116 1_545
O15 Ti4 1.965626 1_555
O15 Ti12 2.011948 1_455
O16 Ti0 1.979544 1_556
O16 Ti9 1.992592 1_566
O17 Ti14 1.952206 1_555
O17 Ti5 2.018463 1_565
O18 Ti10 1.971912 1_565
O18 Ti1 1.999653 1_455
O20 Ti3 1.931157 1_555
O20 Ti8 2.038438 1_555
O21 Ti15 1.970519 1_555
O21 Ti11 2.005235 1_565
O23 Ti7 1.961815 1_565
O23 Ti2 2.024596 1_455
O24 Ti13 1.957517 1_555
O24 Ti6 2.022067 1_555
O25 Ti4 1.951578 1_555
O25 Ti6 1.997790 1_555
O26 Ti9 1.955574 1_565
O26 Ti5 1.971464 1_565
O27 Ti15 1.999980 1_555
O28 Ti10 1.929573 1_565
O28 Ti7 2.042170 1_565
O29 Ti8 1.899220 1_555
O30 Ti5 1.951578 1_555
O30 Ti10 1.997790 1_555
O31 Ti9 1.955574 1_556
O31 Ti4 1.971464 1_545
O32 Ti7 1.899220 1_555
O33 Ti15 1.999980 1_655
O34 Ti6 1.929573 1_545
O34 Ti8 2.042170 1_545
O35 Ti6 1.971912 1_545
O35 Ti13 1.999653 1_655
O36 Ti12 1.952206 1_555
O36 Ti4 2.018463 1_545
O37 Ti0 1.979544 1_655
O37 Ti9 1.992592 1_555
O38 Ti5 1.965626 1_555
O38 Ti14 2.011948 1_655
O40 Ti1 1.957517 1_555
O40 Ti10 2.022067 1_555
O41 Ti2 1.931157 1_555
O41 Ti7 2.038438 1_555
O43 Ti15 1.970519 1_655
O43 Ti11 2.005235 1_555
O44 Ti8 1.961815 1_545
O44 Ti3 2.024596 1_655
O45 Ti4 1.897290 1_555
O45 Ti12 2.092139 1_555
O46 Ti15 1.973967 1_655
O46 Ti11 1.993856 1_565
O47 Ti14 1.896129 1_655
O47 Ti5 2.087857 1_565
O48 Ti2 1.919287 1_555
O48 Ti7 2.045116 1_565
O49 Ti8 1.946075 1_555
O49 Ti3 2.064709 1_655
O50 Ti6 1.893330 1_555
O50 Ti13 2.092535 1_655
O51 Ti9 1.991683 1_565
O51 Ti0 1.994116 1_655
O52 Ti1 1.894470 1_555
O52 Ti10 2.095234 1_565
O55 Ti12 1.946794 1_555
O55 Ti0 1.960532 1_656
O56 Ti1 1.932058 1_555
O56 Ti14 1.979675 1_655
O57 Ti2 2.063039 1_555
O58 Ti11 1.958695 1_555
O59 Ti3 1.911205 1_655
O59 Ti13 2.012751 1_655
