# generated using pymatgen
data_Li2CoP2O7
_symmetry_space_group_name_H-M   'P 1'
_cell_length_a   5.03760902
_cell_length_b   7.68650501
_cell_length_c   7.68555304
_cell_angle_alpha   90.00303369
_cell_angle_beta   89.98939698
_cell_angle_gamma   89.99431428
_symmetry_Int_Tables_number   1
_chemical_formula_structural   Li2CoP2O7
_chemical_formula_sum   'Li4 Co2 P4 O14'
_cell_volume   297.59695758
_cell_formula_units_Z   2
loop_
 _symmetry_equiv_pos_site_id
 _symmetry_equiv_pos_as_xyz
  1  'x, y, z'
loop_
 _atom_site_type_symbol
 _atom_site_label
 _atom_site_symmetry_multiplicity
 _atom_site_fract_x
 _atom_site_fract_y
 _atom_site_fract_z
 _atom_site_occupancy
  Li  Li0  1  0.53740400  0.21681000  0.71685200  1
  Li  Li1  1  0.46273000  0.28309900  0.21670200  1
  Li  Li2  1  0.46269900  0.71687200  0.78333400  1
  Li  Li3  1  0.53720200  0.78333400  0.28322900  1
  Co  Co0  1  0.99995000  0.49995400  0.50001900  1
  Co  Co1  1  0.00006900  0.00002200  0.99995300  1
  P  P0  1  0.90124800  0.14245700  0.35745200  1
  P  P1  1  0.09871300  0.35748700  0.85752400  1
  P  P2  1  0.09877400  0.64259700  0.14250400  1
  P  P3  1  0.90124600  0.85745200  0.64251900  1
  O  O0  1  0.80709700  0.99986100  0.49989400  1
  O  O1  1  0.19292000  0.50002400  0.00001000  1
  O  O2  1  0.19830300  0.15470100  0.34515000  1
  O  O3  1  0.80164300  0.34521500  0.84534800  1
  O  O4  1  0.80175400  0.65491800  0.15472000  1
  O  O5  1  0.19830000  0.84521300  0.65478800  1
  O  O6  1  0.75860100  0.08064800  0.18973100  1
  O  O7  1  0.24144700  0.18982500  0.91940600  1
  O  O8  1  0.75862200  0.31013900  0.41945200  1
  O  O9  1  0.24133500  0.41931100  0.68977500  1
  O  O10  1  0.24127300  0.58071700  0.31026100  1
  O  O11  1  0.75862300  0.68972900  0.58072500  1
  O  O12  1  0.24145600  0.81025700  0.08054200  1
  O  O13  1  0.75859700  0.91945800  0.81020900  1
loop_
_geom_bond_atom_site_label_1
_geom_bond_atom_site_label_2
_geom_bond_distance
_geom_bond_site_symmetry_2
Li0 O3 1.929243 1_555
Li0 O7 2.165301 1_555
Li0 O9 2.165705 1_555
Li1 O2 1.929482 1_555
Li1 O6 2.164595 1_555
Li1 O8 2.166580 1_555
Li2 O5 1.929663 1_555
Li2 O11 2.165563 1_555
Li2 O13 2.165629 1_555
Li3 O4 1.930038 1_555
Li3 O12 2.165627 1_555
Li3 O10 2.165987 1_555
Co0 O10 1.997445 1_655
Co0 O11 1.997445 1_555
Co0 O9 1.997591 1_655
Co0 O8 1.997657 1_555
Co1 O12 1.997481 1_546
Co1 O6 1.997551 1_456
Co1 O7 1.997604 1_555
Co1 O13 1.997629 1_445
O0 P0 1.620130 1_565
O0 P3 1.620161 1_555
O1 P2 1.620131 1_555
O1 P1 1.620174 1_554
O2 P0 1.502374 1_455
O3 P1 1.502436 1_655
O4 P2 1.502175 1_655
O5 P3 1.502367 1_455
O6 P0 1.550497 1_555
O7 P1 1.550501 1_555
O8 P0 1.550532 1_555
O9 P1 1.550474 1_555
O10 P2 1.550547 1_555
O11 P3 1.550501 1_555
O12 P2 1.550593 1_555
O13 P3 1.550504 1_555
