# generated using pymatgen
data_CsFeH24(SeO10)2
_symmetry_space_group_name_H-M   'P 1'
_cell_length_a   12.77656925
_cell_length_b   12.77656925
_cell_length_c   12.77656925
_cell_angle_alpha   90.00000000
_cell_angle_beta   90.00000000
_cell_angle_gamma   90.00000000
_symmetry_Int_Tables_number   1
_chemical_formula_structural   CsFeH24(SeO10)2
_chemical_formula_sum   'Cs4 Fe4 H96 Se8 O80'
_cell_volume   2085.65638650
_cell_formula_units_Z   4
loop_
 _symmetry_equiv_pos_site_id
 _symmetry_equiv_pos_as_xyz
  1  'x, y, z'
loop_
 _atom_site_type_symbol
 _atom_site_label
 _atom_site_symmetry_multiplicity
 _atom_site_fract_x
 _atom_site_fract_y
 _atom_site_fract_z
 _atom_site_occupancy
  Cs  Cs0  1  0.00000000  0.00000000  0.50000000  1
  Cs  Cs1  1  0.00000000  0.50000000  0.00000000  1
  Cs  Cs2  1  0.50000000  0.00000000  0.00000000  1
  Cs  Cs3  1  0.50000000  0.50000000  0.50000000  1
  Fe  Fe0  1  0.50000000  0.50000000  0.00000000  1
  Fe  Fe1  1  0.50000000  0.00000000  0.50000000  1
  Fe  Fe2  1  0.00000000  0.50000000  0.50000000  1
  Fe  Fe3  1  0.00000000  0.00000000  0.00000000  1
  H  H0  1  0.21855108  0.62135427  0.16911557  1
  H  H1  1  0.78144892  0.12135427  0.33088443  1
  H  H2  1  0.28144892  0.37864573  0.66911557  1
  H  H3  1  0.71855108  0.87864573  0.83088443  1
  H  H4  1  0.16911557  0.21855108  0.62135427  1
  H  H5  1  0.33088443  0.78144892  0.12135427  1
  H  H6  1  0.66911557  0.28144892  0.37864573  1
  H  H7  1  0.83088443  0.71855108  0.87864573  1
  H  H8  1  0.62135427  0.16911557  0.21855108  1
  H  H9  1  0.12135427  0.33088443  0.78144892  1
  H  H10  1  0.37864573  0.66911557  0.28144892  1
  H  H11  1  0.87864573  0.83088443  0.71855108  1
  H  H12  1  0.78144892  0.37864573  0.83088443  1
  H  H13  1  0.21855108  0.87864573  0.66911557  1
  H  H14  1  0.71855108  0.62135427  0.33088443  1
  H  H15  1  0.28144892  0.12135427  0.16911557  1
  H  H16  1  0.83088443  0.78144892  0.37864573  1
  H  H17  1  0.66911557  0.21855108  0.87864573  1
  H  H18  1  0.33088443  0.71855108  0.62135427  1
  H  H19  1  0.16911557  0.28144892  0.12135427  1
  H  H20  1  0.37864573  0.83088443  0.78144892  1
  H  H21  1  0.87864573  0.66911557  0.21855108  1
  H  H22  1  0.62135427  0.33088443  0.71855108  1
  H  H23  1  0.12135427  0.16911557  0.28144892  1
  H  H24  1  0.21862925  0.50162927  0.19323059  1
  H  H25  1  0.78137075  0.00162927  0.30676941  1
  H  H26  1  0.28137075  0.49837073  0.69323059  1
  H  H27  1  0.71862925  0.99837073  0.80676941  1
  H  H28  1  0.19323059  0.21862925  0.50162927  1
  H  H29  1  0.30676941  0.78137075  0.00162927  1
  H  H30  1  0.69323059  0.28137075  0.49837073  1
  H  H31  1  0.80676941  0.71862925  0.99837073  1
  H  H32  1  0.50162927  0.19323059  0.21862925  1
  H  H33  1  0.00162927  0.30676941  0.78137075  1
  H  H34  1  0.49837073  0.69323059  0.28137075  1
  H  H35  1  0.99837073  0.80676941  0.71862925  1
  H  H36  1  0.78137075  0.49837073  0.80676941  1
  H  H37  1  0.21862925  0.99837073  0.69323059  1
  H  H38  1  0.71862925  0.50162927  0.30676941  1
  H  H39  1  0.28137075  0.00162927  0.19323059  1
  H  H40  1  0.80676941  0.78137075  0.49837073  1
  H  H41  1  0.69323059  0.21862925  0.99837073  1
  H  H42  1  0.30676941  0.71862925  0.50162927  1
  H  H43  1  0.19323059  0.28137075  0.00162927  1
  H  H44  1  0.49837073  0.80676941  0.78137075  1
  H  H45  1  0.99837073  0.69323059  0.21862925  1
  H  H46  1  0.50162927  0.30676941  0.71862925  1
  H  H47  1  0.00162927  0.19323059  0.28137075  1
  H  H48  1  0.58155168  0.69172817  0.03434858  1
  H  H49  1  0.41844832  0.19172817  0.46565142  1
  H  H50  1  0.91844832  0.30827183  0.53434858  1
  H  H51  1  0.08155168  0.80827183  0.96565142  1
  H  H52  1  0.03434858  0.58155168  0.69172817  1
  H  H53  1  0.46565142  0.41844832  0.19172817  1
  H  H54  1  0.53434858  0.91844832  0.30827183  1
  H  H55  1  0.96565142  0.08155168  0.80827183  1
  H  H56  1  0.69172817  0.03434858  0.58155168  1
  H  H57  1  0.19172817  0.46565142  0.41844832  1
  H  H58  1  0.30827183  0.53434858  0.91844832  1
  H  H59  1  0.80827183  0.96565142  0.08155168  1
  H  H60  1  0.41844832  0.30827183  0.96565142  1
  H  H61  1  0.58155168  0.80827183  0.53434858  1
  H  H62  1  0.08155168  0.69172817  0.46565142  1
  H  H63  1  0.91844832  0.19172817  0.03434858  1
  H  H64  1  0.96565142  0.41844832  0.30827183  1
  H  H65  1  0.53434858  0.58155168  0.80827183  1
  H  H66  1  0.46565142  0.08155168  0.69172817  1
  H  H67  1  0.03434858  0.91844832  0.19172817  1
  H  H68  1  0.30827183  0.96565142  0.41844832  1
  H  H69  1  0.80827183  0.53434858  0.58155168  1
  H  H70  1  0.69172817  0.46565142  0.08155168  1
  H  H71  1  0.19172817  0.03434858  0.91844832  1
  H  H72  1  0.45469234  0.70807315  0.03071751  1
  H  H73  1  0.54530766  0.20807315  0.46928249  1
  H  H74  1  0.04530766  0.29192685  0.53071751  1
  H  H75  1  0.95469234  0.79192685  0.96928249  1
  H  H76  1  0.03071751  0.45469234  0.70807315  1
  H  H77  1  0.46928249  0.54530766  0.20807315  1
  H  H78  1  0.53071751  0.04530766  0.29192685  1
  H  H79  1  0.96928249  0.95469234  0.79192685  1
  H  H80  1  0.70807315  0.03071751  0.45469234  1
  H  H81  1  0.20807315  0.46928249  0.54530766  1
  H  H82  1  0.29192685  0.53071751  0.04530766  1
  H  H83  1  0.79192685  0.96928249  0.95469234  1
  H  H84  1  0.54530766  0.29192685  0.96928249  1
  H  H85  1  0.45469234  0.79192685  0.53071751  1
  H  H86  1  0.95469234  0.70807315  0.46928249  1
  H  H87  1  0.04530766  0.20807315  0.03071751  1
  H  H88  1  0.96928249  0.54530766  0.29192685  1
  H  H89  1  0.53071751  0.45469234  0.79192685  1
  H  H90  1  0.46928249  0.95469234  0.70807315  1
  H  H91  1  0.03071751  0.04530766  0.20807315  1
  H  H92  1  0.29192685  0.96928249  0.54530766  1
  H  H93  1  0.79192685  0.53071751  0.45469234  1
  H  H94  1  0.70807315  0.46928249  0.95469234  1
  H  H95  1  0.20807315  0.03071751  0.04530766  1
  Se  Se0  1  0.18873879  0.81126121  0.31126121  1
  Se  Se1  1  0.81126121  0.31126121  0.18873879  1
  Se  Se2  1  0.31126121  0.18873879  0.81126121  1
  Se  Se3  1  0.68873879  0.68873879  0.68873879  1
  Se  Se4  1  0.81126121  0.18873879  0.68873879  1
  Se  Se5  1  0.18873879  0.68873879  0.81126121  1
  Se  Se6  1  0.68873879  0.81126121  0.18873879  1
  Se  Se7  1  0.31126121  0.31126121  0.31126121  1
  O  O0  1  0.26495200  0.73504800  0.23504800  1
  O  O1  1  0.73504800  0.23504800  0.26495200  1
  O  O2  1  0.23504800  0.26495200  0.73504800  1
  O  O3  1  0.76495200  0.76495200  0.76495200  1
  O  O4  1  0.73504800  0.26495200  0.76495200  1
  O  O5  1  0.26495200  0.76495200  0.73504800  1
  O  O6  1  0.76495200  0.73504800  0.26495200  1
  O  O7  1  0.23504800  0.23504800  0.23504800  1
  O  O8  1  0.06682282  0.81318100  0.26296116  1
  O  O9  1  0.93317718  0.31318100  0.23703884  1
  O  O10  1  0.43317718  0.18681900  0.76296116  1
  O  O11  1  0.56682282  0.68681900  0.73703884  1
  O  O12  1  0.26296116  0.06682282  0.81318100  1
  O  O13  1  0.23703884  0.93317718  0.31318100  1
  O  O14  1  0.76296116  0.43317718  0.18681900  1
  O  O15  1  0.73703884  0.56682282  0.68681900  1
  O  O16  1  0.81318100  0.26296116  0.06682282  1
  O  O17  1  0.31318100  0.23703884  0.93317718  1
  O  O18  1  0.18681900  0.76296116  0.43317718  1
  O  O19  1  0.68681900  0.73703884  0.56682282  1
  O  O20  1  0.93317718  0.18681900  0.73703884  1
  O  O21  1  0.06682282  0.68681900  0.76296116  1
  O  O22  1  0.56682282  0.81318100  0.23703884  1
  O  O23  1  0.43317718  0.31318100  0.26296116  1
  O  O24  1  0.73703884  0.93317718  0.18681900  1
  O  O25  1  0.76296116  0.06682282  0.68681900  1
  O  O26  1  0.23703884  0.56682282  0.81318100  1
  O  O27  1  0.26296116  0.43317718  0.31318100  1
  O  O28  1  0.18681900  0.73703884  0.93317718  1
  O  O29  1  0.68681900  0.76296116  0.06682282  1
  O  O30  1  0.81318100  0.23703884  0.56682282  1
  O  O31  1  0.31318100  0.26296116  0.43317718  1
  O  O32  1  0.20758067  0.55221381  0.13552579  1
  O  O33  1  0.79241933  0.05221381  0.36447421  1
  O  O34  1  0.29241933  0.44778619  0.63552579  1
  O  O35  1  0.70758067  0.94778619  0.86447421  1
  O  O36  1  0.13552579  0.20758067  0.55221381  1
  O  O37  1  0.36447421  0.79241933  0.05221381  1
  O  O38  1  0.63552579  0.29241933  0.44778619  1
  O  O39  1  0.86447421  0.70758067  0.94778619  1
  O  O40  1  0.55221381  0.13552579  0.20758067  1
  O  O41  1  0.05221381  0.36447421  0.79241933  1
  O  O42  1  0.44778619  0.63552579  0.29241933  1
  O  O43  1  0.94778619  0.86447421  0.70758067  1
  O  O44  1  0.79241933  0.44778619  0.86447421  1
  O  O45  1  0.20758067  0.94778619  0.63552579  1
  O  O46  1  0.70758067  0.55221381  0.36447421  1
  O  O47  1  0.29241933  0.05221381  0.13552579  1
  O  O48  1  0.86447421  0.79241933  0.44778619  1
  O  O49  1  0.63552579  0.20758067  0.94778619  1
  O  O50  1  0.36447421  0.70758067  0.55221381  1
  O  O51  1  0.13552579  0.29241933  0.05221381  1
  O  O52  1  0.44778619  0.86447421  0.79241933  1
  O  O53  1  0.94778619  0.63552579  0.20758067  1
  O  O54  1  0.55221381  0.36447421  0.70758067  1
  O  O55  1  0.05221381  0.13552579  0.29241933  1
  O  O56  1  0.51421458  0.65793143  0.01238987  1
  O  O57  1  0.48578542  0.15793143  0.48761013  1
  O  O58  1  0.98578542  0.34206857  0.51238987  1
  O  O59  1  0.01421458  0.84206857  0.98761013  1
  O  O60  1  0.01238987  0.51421458  0.65793143  1
  O  O61  1  0.48761013  0.48578542  0.15793143  1
  O  O62  1  0.51238987  0.98578542  0.34206857  1
  O  O63  1  0.98761013  0.01421458  0.84206857  1
  O  O64  1  0.65793143  0.01238987  0.51421458  1
  O  O65  1  0.15793143  0.48761013  0.48578542  1
  O  O66  1  0.34206857  0.51238987  0.98578542  1
  O  O67  1  0.84206857  0.98761013  0.01421458  1
  O  O68  1  0.48578542  0.34206857  0.98761013  1
  O  O69  1  0.51421458  0.84206857  0.51238987  1
  O  O70  1  0.01421458  0.65793143  0.48761013  1
  O  O71  1  0.98578542  0.15793143  0.01238987  1
  O  O72  1  0.98761013  0.48578542  0.34206857  1
  O  O73  1  0.51238987  0.51421458  0.84206857  1
  O  O74  1  0.48761013  0.01421458  0.65793143  1
  O  O75  1  0.01238987  0.98578542  0.15793143  1
  O  O76  1  0.34206857  0.98761013  0.48578542  1
  O  O77  1  0.84206857  0.51238987  0.51421458  1
  O  O78  1  0.65793143  0.48761013  0.01421458  1
  O  O79  1  0.15793143  0.01238987  0.98578542  1
loop_
_geom_bond_atom_site_label_1
_geom_bond_atom_site_label_2
_geom_bond_distance
_geom_bond_site_symmetry_2
Cs0 O48 3.236869 1_445
Cs0 O33 3.236869 1_455
Cs0 O45 3.236869 1_545
Cs0 O36 3.236869 1_555
Cs0 O55 3.236869 1_555
Cs0 O43 3.236869 1_445
Cs1 O41 3.236869 1_554
Cs1 O53 3.236869 1_455
Cs1 O32 3.236869 1_555
Cs1 O39 3.236869 1_454
Cs1 O51 3.236869 1_555
Cs1 O44 3.236869 1_454
Cs2 O40 3.236869 1_555
Cs2 O37 3.236869 1_545
Cs2 O47 3.236869 1_555
Cs2 O49 3.236869 1_554
Cs2 O52 3.236869 1_544
Cs2 O35 3.236869 1_544
Cs3 O50 3.236869 1_555
Cs3 O38 3.236869 1_555
Cs3 O54 3.236869 1_555
Cs3 O42 3.236869 1_555
Cs3 O46 3.236869 1_555
Cs3 O34 3.236869 1_555
Fe0 O68 2.032153 1_554
Fe0 O61 2.032153 1_555
Fe0 O66 2.032153 1_554
Fe0 O73 2.032153 1_554
Fe0 O78 2.032153 1_555
Fe0 O56 2.032153 1_555
Fe1 O57 2.032153 1_555
Fe1 O76 2.032153 1_545
Fe1 O64 2.032153 1_555
Fe1 O74 2.032153 1_555
Fe1 O62 2.032153 1_545
Fe1 O69 2.032153 1_545
Fe2 O70 2.032153 1_555
Fe2 O60 2.032153 1_555
Fe2 O77 2.032153 1_455
Fe2 O65 2.032153 1_555
Fe2 O72 2.032153 1_455
Fe2 O58 2.032153 1_455
Fe3 O71 2.032153 1_455
Fe3 O59 2.032153 1_544
Fe3 O79 2.032153 1_554
Fe3 O63 2.032153 1_454
Fe3 O75 2.032153 1_545
Fe3 O67 2.032153 1_445
H0 O32 0.992060 1_555
H1 O33 0.992060 1_555
H2 O34 0.992060 1_555
H3 O35 0.992060 1_555
H4 O36 0.992060 1_555
H5 O37 0.992060 1_555
H6 O38 0.992060 1_555
H7 O39 0.992060 1_555
H8 O40 0.992060 1_555
H9 O41 0.992060 1_555
H10 O42 0.992060 1_555
H11 O43 0.992060 1_555
H12 O44 0.992060 1_555
H13 O45 0.992060 1_555
H14 O46 0.992060 1_555
H15 O47 0.992060 1_555
H16 O48 0.992060 1_555
H17 O49 0.992060 1_555
H18 O50 0.992060 1_555
H19 O51 0.992060 1_555
H20 O52 0.992060 1_555
H21 O53 0.992060 1_555
H22 O54 0.992060 1_555
H23 O55 0.992060 1_555
H24 O32 0.990552 1_555
H25 O33 0.990552 1_555
H26 O34 0.990552 1_555
H27 O35 0.990552 1_555
H28 O36 0.990552 1_555
H29 O37 0.990552 1_555
H30 O38 0.990552 1_555
H31 O39 0.990552 1_555
H32 O40 0.990552 1_555
H33 O41 0.990552 1_555
H34 O42 0.990552 1_555
H35 O43 0.990552 1_555
H36 O44 0.990552 1_555
H37 O45 0.990552 1_555
H38 O46 0.990552 1_555
H39 O47 0.990552 1_555
H40 O48 0.990552 1_555
H41 O49 0.990552 1_555
H42 O50 0.990552 1_555
H43 O51 0.990552 1_555
H44 O52 0.990552 1_555
H45 O53 0.990552 1_555
H46 O54 0.990552 1_555
H47 O55 0.990552 1_555
H48 O56 1.002671 1_555
H48 O29 1.676115 1_555
H49 O57 1.002671 1_555
H49 O31 1.676115 1_555
H50 O58 1.002671 1_555
H50 O30 1.676115 1_555
H51 O59 1.002671 1_555
H51 O28 1.676115 1_555
H52 O60 1.002671 1_555
H52 O21 1.676115 1_555
H53 O61 1.002671 1_555
H53 O23 1.676115 1_555
H54 O62 1.002671 1_555
H54 O22 1.676115 1_555
H55 O63 1.002671 1_555
H55 O20 1.676115 1_555
H56 O64 1.002671 1_555
H56 O25 1.676115 1_555
H57 O65 1.002671 1_555
H57 O27 1.676115 1_555
H58 O66 1.002671 1_555
H58 O26 1.676115 1_555
H59 O67 1.002671 1_555
H59 O24 1.676115 1_555
H60 O68 1.002671 1_555
H60 O17 1.676115 1_555
H61 O69 1.002671 1_555
H61 O19 1.676115 1_555
H62 O70 1.002671 1_555
H62 O18 1.676115 1_555
H63 O71 1.002671 1_555
H63 O16 1.676115 1_555
H64 O72 1.002671 1_555
H64 O9 1.676115 1_555
H65 O73 1.002671 1_555
H65 O11 1.676115 1_555
H66 O74 1.002671 1_555
H66 O10 1.676115 1_555
H67 O75 1.002671 1_555
H67 O8 1.676115 1_555
H68 O76 1.002671 1_555
H68 O13 1.676115 1_555
H69 O77 1.002671 1_555
H69 O15 1.676115 1_555
H70 O78 1.002671 1_555
H70 O14 1.676115 1_555
H71 O79 1.002671 1_555
H71 O12 1.676115 1_555
H72 O56 1.021566 1_555
H72 O37 1.601699 1_555
H73 O57 1.021566 1_555
H73 O38 1.601699 1_555
H74 O58 1.021566 1_455
H74 O36 1.601699 1_555
H75 O59 1.021566 1_655
H75 O39 1.601699 1_555
H76 O60 1.021566 1_555
H76 O41 1.601699 1_555
H77 O61 1.021566 1_555
H77 O42 1.601699 1_555
H78 O62 1.021566 1_545
H78 O40 1.601699 1_555
H79 O63 1.021566 1_565
H79 O43 1.601699 1_555
H80 O64 1.021566 1_555
H80 O33 1.601699 1_555
H81 O65 1.021566 1_555
H81 O34 1.601699 1_555
H82 O66 1.021566 1_554
H82 O32 1.601699 1_555
H83 O67 1.021566 1_556
H83 O35 1.601699 1_555
H84 O68 1.021566 1_555
H84 O49 1.601699 1_555
H85 O69 1.021566 1_555
H85 O50 1.601699 1_555
H86 O70 1.021566 1_655
H86 O48 1.601699 1_555
H87 O71 1.021566 1_455
H87 O51 1.601699 1_555
H88 O72 1.021566 1_555
H88 O53 1.601699 1_555
H89 O73 1.021566 1_555
H89 O54 1.601699 1_555
H90 O74 1.021566 1_565
H90 O52 1.601699 1_555
H91 O75 1.021566 1_545
H91 O55 1.601699 1_555
H92 O76 1.021566 1_555
H92 O45 1.601699 1_555
H93 O77 1.021566 1_555
H93 O46 1.601699 1_555
H94 O78 1.021566 1_556
H94 O44 1.601699 1_555
H95 O79 1.021566 1_554
H95 O47 1.601699 1_555
O0 Se0 1.686573 1_555
O1 Se1 1.686573 1_555
O2 Se2 1.686573 1_555
O3 Se3 1.686573 1_555
O4 Se4 1.686573 1_555
O5 Se5 1.686573 1_555
O6 Se6 1.686573 1_555
O7 Se7 1.686573 1_555
O8 Se0 1.675635 1_555
O9 Se1 1.675635 1_555
O10 Se2 1.675635 1_555
O11 Se3 1.675635 1_555
O12 Se2 1.675635 1_555
O13 Se0 1.675635 1_555
O14 Se1 1.675635 1_555
O15 Se3 1.675635 1_555
O16 Se1 1.675635 1_555
O17 Se2 1.675635 1_555
O18 Se0 1.675635 1_555
O19 Se3 1.675635 1_555
O20 Se4 1.675635 1_555
O21 Se5 1.675635 1_555
O22 Se6 1.675635 1_555
O23 Se7 1.675635 1_555
O24 Se6 1.675635 1_555
O25 Se4 1.675635 1_555
O26 Se5 1.675635 1_555
O27 Se7 1.675635 1_555
O28 Se5 1.675635 1_555
O29 Se6 1.675635 1_555
O30 Se4 1.675635 1_555
O31 Se7 1.675635 1_555
