# generated using pymatgen
data_AgBrO4
_symmetry_space_group_name_H-M   'P 1'
_cell_length_a   5.92782900
_cell_length_b   7.39439300
_cell_length_c   8.46076700
_cell_angle_alpha   90.00000000
_cell_angle_beta   90.00000000
_cell_angle_gamma   90.00000000
_symmetry_Int_Tables_number   1
_chemical_formula_structural   AgBrO4
_chemical_formula_sum   'Ag4 Br4 O16'
_cell_volume   370.85823852
_cell_formula_units_Z   4
loop_
 _symmetry_equiv_pos_site_id
 _symmetry_equiv_pos_as_xyz
  1  'x, y, z'
loop_
 _atom_site_type_symbol
 _atom_site_label
 _atom_site_symmetry_multiplicity
 _atom_site_fract_x
 _atom_site_fract_y
 _atom_site_fract_z
 _atom_site_occupancy
  Ag  Ag0  1  0.25000000  0.66849500  0.69028200  1
  Ag  Ag1  1  0.25000000  0.83150500  0.19028200  1
  Ag  Ag2  1  0.75000000  0.16849500  0.80971800  1
  Ag  Ag3  1  0.75000000  0.33150500  0.30971800  1
  Br  Br0  1  0.25000000  0.17274800  0.52560400  1
  Br  Br1  1  0.25000000  0.32725200  0.02560400  1
  Br  Br2  1  0.75000000  0.67274800  0.97439600  1
  Br  Br3  1  0.75000000  0.82725200  0.47439600  1
  O  O0  1  0.48799000  0.29724800  0.55391600  1
  O  O1  1  0.48799000  0.20275200  0.05391600  1
  O  O2  1  0.25000000  0.10439700  0.33833400  1
  O  O3  1  0.25000000  0.39560300  0.83833400  1
  O  O4  1  0.25000000  0.50050900  0.14989400  1
  O  O5  1  0.25000000  0.99949100  0.64989400  1
  O  O6  1  0.01201000  0.29724800  0.55391600  1
  O  O7  1  0.01201000  0.20275200  0.05391600  1
  O  O8  1  0.98799000  0.79724800  0.94608400  1
  O  O9  1  0.98799000  0.70275200  0.44608400  1
  O  O10  1  0.75000000  0.00050900  0.35010600  1
  O  O11  1  0.75000000  0.49949100  0.85010600  1
  O  O12  1  0.75000000  0.60439700  0.16166600  1
  O  O13  1  0.75000000  0.89560300  0.66166600  1
  O  O14  1  0.51201000  0.79724800  0.94608400  1
  O  O15  1  0.51201000  0.70275200  0.44608400  1
loop_
_geom_bond_atom_site_label_1
_geom_bond_atom_site_label_2
_geom_bond_distance
_geom_bond_site_symmetry_2
Ag0 O3 2.375056 1_555
Ag0 O5 2.471254 1_555
Ag0 O9 2.597156 1_455
Ag0 O15 2.597156 1_555
Ag1 O2 2.375056 1_565
Ag1 O4 2.471254 1_555
Ag1 O8 2.597156 1_454
Ag1 O14 2.597156 1_554
Ag2 O13 2.375056 1_545
Ag2 O11 2.471254 1_555
Ag2 O1 2.597156 1_556
Ag2 O7 2.597156 1_656
Ag3 O12 2.375056 1_555
Ag3 O10 2.471254 1_555
Ag3 O0 2.597156 1_555
Ag3 O6 2.597156 1_655
Br0 O5 1.657448 1_545
Br0 O2 1.663105 1_555
Br0 O6 1.701512 1_555
Br0 O0 1.701512 1_555
Br1 O4 1.657448 1_555
Br1 O3 1.663105 1_554
Br1 O7 1.701512 1_555
Br1 O1 1.701512 1_555
Br2 O11 1.657448 1_555
Br2 O12 1.663105 1_556
Br2 O14 1.701512 1_555
Br2 O8 1.701512 1_555
Br3 O10 1.657448 1_565
Br3 O13 1.663105 1_555
Br3 O15 1.701512 1_555
Br3 O9 1.701512 1_555
