# generated using pymatgen
data_SnSb2H24C8(SCl)2
_symmetry_space_group_name_H-M   'P 1'
_cell_length_a   10.29394700
_cell_length_b   9.48426600
_cell_length_c   13.05116920
_cell_angle_alpha   53.09684305
_cell_angle_beta   90.00000000
_cell_angle_gamma   90.00000000
_symmetry_Int_Tables_number   1
_chemical_formula_structural   SnSb2H24C8(SCl)2
_chemical_formula_sum   'Sn2 Sb4 H48 C16 S4 Cl4'
_cell_volume   1018.91010778
_cell_formula_units_Z   2
loop_
 _symmetry_equiv_pos_site_id
 _symmetry_equiv_pos_as_xyz
  1  'x, y, z'
loop_
 _atom_site_type_symbol
 _atom_site_label
 _atom_site_symmetry_multiplicity
 _atom_site_fract_x
 _atom_site_fract_y
 _atom_site_fract_z
 _atom_site_occupancy
  Sn  Sn0  1  0.00000000  0.00000000  0.00000000  1
  Sn  Sn1  1  0.50000000  0.00000000  0.50000000  1
  Sb  Sb0  1  0.65200500  0.74402800  0.05453700  1
  Sb  Sb1  1  0.15200500  0.25597200  0.44546300  1
  Sb  Sb2  1  0.84799500  0.74402800  0.55453700  1
  Sb  Sb3  1  0.34799500  0.25597200  0.94546300  1
  H  H0  1  0.70204800  0.70239400  0.27371700  1
  H  H1  1  0.19736900  0.59619400  0.34457000  1
  H  H2  1  0.26502900  0.45367500  0.50435500  1
  H  H3  1  0.44828100  0.17753200  0.79475200  1
  H  H4  1  0.55353000  0.58695200  0.29036100  1
  H  H5  1  0.34914700  0.48301200  0.37129900  1
  H  H6  1  0.91548400  0.36533700  0.45597700  1
  H  H7  1  0.98202700  0.22356000  0.61616500  1
  H  H8  1  0.53904600  0.26622900  0.51831000  1
  H  H9  1  0.41548400  0.63466300  0.04402300  1
  H  H10  1  0.41309700  0.86934500  0.95917700  1
  H  H11  1  0.18496800  0.86374700  0.93540200  1
  H  H12  1  0.05184000  0.94220000  0.82420800  1
  H  H13  1  0.55184000  0.05780000  0.67579200  1
  H  H14  1  0.84914700  0.51698800  0.12870100  1
  H  H15  1  0.68496800  0.13625300  0.56459800  1
  H  H16  1  0.91309700  0.13065500  0.54082300  1
  H  H17  1  0.05353000  0.41304800  0.20963900  1
  H  H18  1  0.03904600  0.73377100  0.98169000  1
  H  H19  1  0.76502900  0.54632500  0.99564500  1
  H  H20  1  0.69736900  0.40380600  0.15543000  1
  H  H21  1  0.48202700  0.77644000  0.88383500  1
  H  H22  1  0.20204800  0.29760600  0.22628300  1
  H  H23  1  0.05171900  0.17753200  0.29475200  1
  H  H24  1  0.94828100  0.82246800  0.70524800  1
  H  H25  1  0.79795200  0.70239400  0.77371700  1
  H  H26  1  0.51797300  0.22356000  0.11616500  1
  H  H27  1  0.30263100  0.59619400  0.84457000  1
  H  H28  1  0.23497100  0.45367500  0.00435500  1
  H  H29  1  0.96095400  0.26622900  0.01831000  1
  H  H30  1  0.94647000  0.58695200  0.79036100  1
  H  H31  1  0.08690300  0.86934500  0.45917700  1
  H  H32  1  0.31503200  0.86374700  0.43540200  1
  H  H33  1  0.15085300  0.48301200  0.87129900  1
  H  H34  1  0.44816000  0.94220000  0.32420800  1
  H  H35  1  0.94816000  0.05780000  0.17579200  1
  H  H36  1  0.81503200  0.13625300  0.06459800  1
  H  H37  1  0.58690300  0.13065500  0.04082300  1
  H  H38  1  0.58451600  0.36533700  0.95597700  1
  H  H39  1  0.46095400  0.73377100  0.48169000  1
  H  H40  1  0.01797300  0.77644000  0.38383500  1
  H  H41  1  0.08451600  0.63466300  0.54402300  1
  H  H42  1  0.65085300  0.51698800  0.62870100  1
  H  H43  1  0.44647000  0.41304800  0.70963900  1
  H  H44  1  0.55171900  0.82246800  0.20524800  1
  H  H45  1  0.73497100  0.54632500  0.49564500  1
  H  H46  1  0.80263100  0.40380600  0.65543000  1
  H  H47  1  0.29795200  0.29760600  0.72628300  1
  C  C0  1  0.60951000  0.70934900  0.22954100  1
  C  C1  1  0.25440200  0.47703800  0.41178800  1
  C  C2  1  0.96661200  0.24145300  0.52575400  1
  C  C3  1  0.07923900  0.86724600  0.92530700  1
  C  C4  1  0.57923900  0.13275400  0.57469300  1
  C  C5  1  0.75440200  0.52296200  0.08821200  1
  C  C6  1  0.46661200  0.75854700  0.97424600  1
  C  C7  1  0.10951000  0.29065100  0.27045900  1
  C  C8  1  0.89049000  0.70934900  0.72954100  1
  C  C9  1  0.53338800  0.24145300  0.02575400  1
  C  C10  1  0.24559800  0.47703800  0.91178800  1
  C  C11  1  0.42076100  0.86724600  0.42530700  1
  C  C12  1  0.92076100  0.13275400  0.07469300  1
  C  C13  1  0.03338800  0.75854700  0.47424600  1
  C  C14  1  0.74559800  0.52296200  0.58821200  1
  C  C15  1  0.39049000  0.29065100  0.77045900  1
  S  S0  1  0.75601100  0.01040100  0.90224700  1
  S  S1  1  0.25601100  0.98959900  0.59775300  1
  S  S2  1  0.74398900  0.01040100  0.40224700  1
  S  S3  1  0.24398900  0.98959900  0.09775300  1
  Cl  Cl0  1  0.95451900  0.69146300  0.22133200  1
  Cl  Cl1  1  0.45451900  0.30853700  0.27866800  1
  Cl  Cl2  1  0.54548100  0.69146300  0.72133200  1
  Cl  Cl3  1  0.04548100  0.30853700  0.77866800  1
loop_
_geom_bond_atom_site_label_1
_geom_bond_atom_site_label_2
_geom_bond_distance
_geom_bond_site_symmetry_2
C0 H44 1.094047 1_555
C0 H0 1.094759 1_555
C0 H4 1.096866 1_555
C0 Sb0 2.148036 1_555
C1 H5 1.094395 1_555
C1 H2 1.095038 1_555
C1 H1 1.095817 1_555
C1 Sb1 2.143253 1_555
C2 H16 1.094631 1_555
C2 H6 1.096286 1_555
C2 H7 1.098102 1_555
C2 Sb1 2.141457 1_655
C3 H18 1.093848 1_555
C3 H11 1.094420 1_555
C3 H12 1.095185 1_555
C3 Sn0 2.162152 1_566
C4 H8 1.093848 1_555
C4 H15 1.094420 1_555
C4 H13 1.095185 1_555
C4 Sn1 2.162152 1_555
C5 H14 1.094395 1_555
C5 H19 1.095038 1_554
C5 H20 1.095817 1_555
C5 Sb0 2.143253 1_555
C6 H10 1.094631 1_555
C6 H9 1.096286 1_556
C6 H21 1.098102 1_555
C6 Sb0 2.141457 1_556
C7 H23 1.094047 1_555
C7 H22 1.094759 1_555
C7 H17 1.096866 1_555
C7 Sb1 2.148036 1_555
C8 H24 1.094047 1_555
C8 H25 1.094759 1_555
C8 H30 1.096866 1_555
C8 Sb2 2.148036 1_555
C9 H37 1.094631 1_555
C9 H38 1.096286 1_554
C9 H26 1.098102 1_555
C9 Sb3 2.141457 1_554
C10 H33 1.094395 1_555
C10 H28 1.095038 1_556
C10 H27 1.095817 1_555
C10 Sb3 2.143253 1_555
C11 H39 1.093848 1_555
C11 H32 1.094420 1_555
C11 H34 1.095185 1_555
C11 Sn1 2.162152 1_565
C12 H29 1.093848 1_555
C12 H36 1.094420 1_555
C12 H35 1.095185 1_555
C12 Sn0 2.162152 1_655
C13 H31 1.094631 1_555
C13 H41 1.096286 1_555
C13 H40 1.098102 1_555
C13 Sb2 2.141457 1_455
C14 H42 1.094395 1_555
C14 H45 1.095038 1_555
C14 H46 1.095817 1_555
C14 Sb2 2.143253 1_555
C15 H3 1.094047 1_555
C15 H47 1.094759 1_555
C15 H43 1.096866 1_555
C15 Sb3 2.148036 1_555
S0 Sb0 2.334290 1_546
S0 Sn0 2.791849 1_656
S1 Sb1 2.334290 1_565
S1 Sn1 2.791849 1_565
S2 Sb2 2.334290 1_545
S2 Sn1 2.791849 1_555
S3 Sb3 2.334290 1_564
S3 Sn0 2.791849 1_565
Cl0 Sn0 2.641034 1_665
Cl1 Sn1 2.641034 1_555
Cl2 Sn1 2.641034 1_565
Cl3 Sn0 2.641034 1_556
