# generated using pymatgen
data_Li2Si12(NiO6)5
_symmetry_space_group_name_H-M   'P 1'
_cell_length_a   10.15014575
_cell_length_b   10.15014575
_cell_length_c   14.38804200
_cell_angle_alpha   90.00000000
_cell_angle_beta   90.00000000
_cell_angle_gamma   119.99999837
_symmetry_Int_Tables_number   1
_chemical_formula_structural   Li2Si12(NiO6)5
_chemical_formula_sum   'Li4 Si24 Ni10 O60'
_cell_volume   1283.73946549
_cell_formula_units_Z   2
loop_
 _symmetry_equiv_pos_site_id
 _symmetry_equiv_pos_as_xyz
  1  'x, y, z'
loop_
 _atom_site_type_symbol
 _atom_site_label
 _atom_site_symmetry_multiplicity
 _atom_site_fract_x
 _atom_site_fract_y
 _atom_site_fract_z
 _atom_site_occupancy
  Li  Li0  1  0.66666700  0.33333300  0.75000000  1
  Li  Li1  1  0.00000000  0.00000000  0.00000000  1
  Li  Li2  1  0.00000000  0.00000000  0.50000000  1
  Li  Li3  1  0.33333300  0.66666700  0.25000000  1
  Si  Si0  1  0.35510700  0.24045000  0.13918400  1
  Si  Si1  1  0.35510700  0.24045000  0.36081600  1
  Si  Si2  1  0.35456700  0.11709600  0.63941700  1
  Si  Si3  1  0.35456700  0.11709600  0.86058300  1
  Si  Si4  1  0.76252900  0.64543300  0.63941700  1
  Si  Si5  1  0.76252900  0.64543300  0.86058300  1
  Si  Si6  1  0.88534300  0.64489300  0.36081600  1
  Si  Si7  1  0.88534300  0.64489300  0.13918400  1
  Si  Si8  1  0.75955000  0.11465700  0.36081600  1
  Si  Si9  1  0.75955000  0.11465700  0.13918400  1
  Si  Si10  1  0.11465700  0.75955000  0.63918400  1
  Si  Si11  1  0.11465700  0.75955000  0.86081600  1
  Si  Si12  1  0.88290400  0.23747100  0.86058300  1
  Si  Si13  1  0.88290400  0.23747100  0.63941700  1
  Si  Si14  1  0.23747100  0.88290400  0.13941700  1
  Si  Si15  1  0.23747100  0.88290400  0.36058300  1
  Si  Si16  1  0.11709600  0.35456700  0.36058300  1
  Si  Si17  1  0.11709600  0.35456700  0.13941700  1
  Si  Si18  1  0.24045000  0.35510700  0.63918400  1
  Si  Si19  1  0.24045000  0.35510700  0.86081600  1
  Si  Si20  1  0.64489300  0.88534300  0.63918400  1
  Si  Si21  1  0.64489300  0.88534300  0.86081600  1
  Si  Si22  1  0.64543300  0.76252900  0.36058300  1
  Si  Si23  1  0.64543300  0.76252900  0.13941700  1
  Ni  Ni0  1  0.51182400  0.51182400  0.00000000  1
  Ni  Ni1  1  0.51182400  0.51182400  0.50000000  1
  Ni  Ni2  1  0.66666700  0.33333300  0.49868200  1
  Ni  Ni3  1  0.66666700  0.33333300  0.00131800  1
  Ni  Ni4  1  0.00000000  0.48817600  0.50000000  1
  Ni  Ni5  1  0.00000000  0.48817600  0.00000000  1
  Ni  Ni6  1  0.33333300  0.66666700  0.50131800  1
  Ni  Ni7  1  0.33333300  0.66666700  0.99868200  1
  Ni  Ni8  1  0.48817600  0.00000000  0.50000000  1
  Ni  Ni9  1  0.48817600  0.00000000  0.00000000  1
  O  O0  1  0.27097800  0.21425500  0.88728800  1
  O  O1  1  0.27097800  0.21425500  0.61271200  1
  O  O2  1  0.28395800  0.05882300  0.11486500  1
  O  O3  1  0.28395800  0.05882300  0.38513500  1
  O  O4  1  0.39102900  0.26604800  0.25000000  1
  O  O5  1  0.50047900  0.34729600  0.42328600  1
  O  O6  1  0.50047900  0.34729600  0.07671400  1
  O  O7  1  0.40345000  0.14407800  0.75000000  1
  O  O8  1  0.65356600  0.49136100  0.58422100  1
  O  O9  1  0.65356600  0.49136100  0.91577900  1
  O  O10  1  0.77486500  0.71604200  0.38513500  1
  O  O11  1  0.77486500  0.71604200  0.11486500  1
  O  O12  1  0.50863900  0.16220500  0.58422100  1
  O  O13  1  0.50863900  0.16220500  0.91577900  1
  O  O14  1  0.74062800  0.59655000  0.75000000  1
  O  O15  1  0.87501800  0.60897100  0.25000000  1
  O  O16  1  0.65270400  0.15318200  0.07671400  1
  O  O17  1  0.65270400  0.15318200  0.42328600  1
  O  O18  1  0.94327700  0.72902200  0.61271200  1
  O  O19  1  0.94327700  0.72902200  0.88728800  1
  O  O20  1  0.84681800  0.49952100  0.07671400  1
  O  O21  1  0.84681800  0.49952100  0.42328600  1
  O  O22  1  0.05672300  0.78574500  0.38728800  1
  O  O23  1  0.05672300  0.78574500  0.11271200  1
  O  O24  1  0.73395200  0.12498200  0.25000000  1
  O  O25  1  0.83779500  0.34643400  0.91577900  1
  O  O26  1  0.83779500  0.34643400  0.58422100  1
  O  O27  1  0.22513500  0.94117700  0.61486500  1
  O  O28  1  0.22513500  0.94117700  0.88513500  1
  O  O29  1  0.85592200  0.25937200  0.75000000  1
  O  O30  1  0.12498200  0.73395200  0.75000000  1
  O  O31  1  0.78574500  0.05672300  0.61271200  1
  O  O32  1  0.78574500  0.05672300  0.88728800  1
  O  O33  1  0.15318200  0.65270400  0.57671400  1
  O  O34  1  0.15318200  0.65270400  0.92328600  1
  O  O35  1  0.25937200  0.85592200  0.25000000  1
  O  O36  1  0.94117700  0.22513500  0.38513500  1
  O  O37  1  0.94117700  0.22513500  0.11486500  1
  O  O38  1  0.16220500  0.50863900  0.41577900  1
  O  O39  1  0.16220500  0.50863900  0.08422100  1
  O  O40  1  0.05882300  0.28395800  0.61486500  1
  O  O41  1  0.05882300  0.28395800  0.88513500  1
  O  O42  1  0.34643400  0.83779500  0.41577900  1
  O  O43  1  0.34643400  0.83779500  0.08422100  1
  O  O44  1  0.14407800  0.40345000  0.25000000  1
  O  O45  1  0.26604800  0.39102900  0.75000000  1
  O  O46  1  0.49952100  0.84681800  0.57671400  1
  O  O47  1  0.49952100  0.84681800  0.92328600  1
  O  O48  1  0.21425500  0.27097800  0.38728800  1
  O  O49  1  0.21425500  0.27097800  0.11271200  1
  O  O50  1  0.34729600  0.50047900  0.57671400  1
  O  O51  1  0.34729600  0.50047900  0.92328600  1
  O  O52  1  0.60897100  0.87501800  0.75000000  1
  O  O53  1  0.49136100  0.65356600  0.41577900  1
  O  O54  1  0.49136100  0.65356600  0.08422100  1
  O  O55  1  0.59655000  0.74062800  0.25000000  1
  O  O56  1  0.72902200  0.94327700  0.38728800  1
  O  O57  1  0.72902200  0.94327700  0.11271200  1
  O  O58  1  0.71604200  0.77486500  0.61486500  1
  O  O59  1  0.71604200  0.77486500  0.88513500  1
loop_
_geom_bond_atom_site_label_1
_geom_bond_atom_site_label_2
_geom_bond_distance
_geom_bond_site_symmetry_2
Li0 O29 2.386583 1_555
Li0 O7 2.386591 1_555
Li0 O14 2.386593 1_555
Li3 O35 2.386583 1_555
Li3 O44 2.386591 1_555
Li3 O55 2.386593 1_555
Ni0 O51 1.956552 1_554
Ni0 O6 1.956552 1_555
Ni0 O54 1.969829 1_555
Ni0 O9 1.969829 1_554
Ni1 O50 1.956552 1_555
Ni1 O5 1.956552 1_555
Ni1 O8 1.969829 1_555
Ni1 O53 1.969829 1_555
Ni2 O5 2.069143 1_555
Ni2 O17 2.069143 1_555
Ni2 O21 2.069143 1_555
Ni2 O26 2.078101 1_555
Ni2 O12 2.078104 1_555
Ni2 O8 2.078109 1_555
Ni3 O6 2.069143 1_555
Ni3 O16 2.069143 1_555
Ni3 O20 2.069143 1_555
Ni3 O25 2.078101 1_554
Ni3 O13 2.078104 1_554
Ni3 O9 2.078109 1_554
Ni4 O21 1.956544 1_455
Ni4 O33 1.956548 1_555
Ni4 O38 1.969829 1_555
Ni4 O26 1.969829 1_455
Ni5 O20 1.956544 1_455
Ni5 O34 1.956548 1_554
Ni5 O39 1.969829 1_555
Ni5 O25 1.969829 1_454
Ni6 O50 2.069143 1_555
Ni6 O33 2.069143 1_555
Ni6 O46 2.069143 1_555
Ni6 O42 2.078101 1_555
Ni6 O38 2.078104 1_555
Ni6 O53 2.078109 1_555
Ni7 O51 2.069143 1_555
Ni7 O34 2.069143 1_555
Ni7 O47 2.069143 1_555
Ni7 O43 2.078101 1_556
Ni7 O39 2.078104 1_556
Ni7 O54 2.078109 1_556
Ni8 O46 1.956544 1_545
Ni8 O17 1.956548 1_555
Ni8 O12 1.969829 1_555
Ni8 O42 1.969829 1_545
Ni9 O47 1.956544 1_544
Ni9 O16 1.956548 1_555
Ni9 O13 1.969829 1_554
Ni9 O43 1.969829 1_545
O0 Si3 1.636077 1_555
O0 Si19 1.651678 1_555
O1 Si2 1.636077 1_555
O1 Si18 1.651678 1_555
O2 Si14 1.641120 1_545
O2 Si0 1.646588 1_555
O3 Si15 1.641120 1_545
O3 Si1 1.646588 1_555
O4 Si0 1.627239 1_555
O4 Si1 1.627239 1_555
O5 Si1 1.600322 1_555
O6 Si0 1.600322 1_555
O7 Si2 1.648277 1_555
O7 Si3 1.648277 1_555
O8 Si4 1.603103 1_555
O9 Si5 1.603103 1_555
O10 Si22 1.641120 1_555
O10 Si6 1.646588 1_555
O11 Si23 1.641120 1_555
O11 Si7 1.646588 1_555
O12 Si2 1.603103 1_555
O13 Si3 1.603103 1_555
O14 Si4 1.648277 1_555
O14 Si5 1.648277 1_555
O15 Si7 1.627239 1_555
O15 Si6 1.627239 1_555
O16 Si9 1.600316 1_555
O17 Si8 1.600316 1_555
O18 Si4 1.636077 1_555
O18 Si10 1.651678 1_655
O19 Si5 1.636077 1_555
O19 Si11 1.651678 1_655
O20 Si7 1.600324 1_555
O21 Si6 1.600324 1_555
O22 Si15 1.636077 1_555
O22 Si6 1.651678 1_455
O23 Si14 1.636077 1_555
O23 Si7 1.651678 1_455
O24 Si9 1.627241 1_555
O24 Si8 1.627241 1_555
O25 Si12 1.603103 1_555
O26 Si13 1.603103 1_555
O27 Si2 1.641120 1_565
O27 Si10 1.646588 1_555
O28 Si3 1.641120 1_565
O28 Si11 1.646588 1_555
O29 Si13 1.648277 1_555
O29 Si12 1.648277 1_555
O30 Si11 1.627241 1_555
O30 Si10 1.627241 1_555
O31 Si13 1.636077 1_555
O31 Si20 1.651678 1_545
O32 Si12 1.636077 1_555
O32 Si21 1.651678 1_545
O33 Si10 1.600316 1_555
O34 Si11 1.600316 1_555
O35 Si15 1.648277 1_555
O35 Si14 1.648277 1_555
O36 Si16 1.641120 1_655
O36 Si8 1.646588 1_555
O37 Si17 1.641120 1_655
O37 Si9 1.646588 1_555
O38 Si16 1.603103 1_555
O39 Si17 1.603103 1_555
O40 Si13 1.641120 1_455
O40 Si18 1.646588 1_555
O41 Si12 1.641120 1_455
O41 Si19 1.646588 1_555
O42 Si15 1.603103 1_555
O43 Si14 1.603103 1_555
O44 Si17 1.648277 1_555
O44 Si16 1.648277 1_555
O45 Si19 1.627239 1_555
O45 Si18 1.627239 1_555
O46 Si20 1.600324 1_555
O47 Si21 1.600324 1_555
O48 Si16 1.636077 1_555
O48 Si1 1.651678 1_555
O49 Si17 1.636077 1_555
O49 Si0 1.651678 1_555
O50 Si18 1.600322 1_555
O51 Si19 1.600322 1_555
O52 Si21 1.627239 1_555
O52 Si20 1.627239 1_555
O53 Si22 1.603103 1_555
O54 Si23 1.603103 1_555
O55 Si23 1.648277 1_555
O55 Si22 1.648277 1_555
O56 Si22 1.636077 1_555
O56 Si8 1.651678 1_565
O57 Si23 1.636077 1_555
O57 Si9 1.651678 1_565
O58 Si4 1.641120 1_555
O58 Si20 1.646588 1_555
O59 Si5 1.641120 1_555
O59 Si21 1.646588 1_555
