# generated using pymatgen
data_LiV3P3O11
_symmetry_space_group_name_H-M   'P 1'
_cell_length_a   9.75894400
_cell_length_b   10.00644400
_cell_length_c   10.39435020
_cell_angle_alpha   59.30745453
_cell_angle_beta   90.00000000
_cell_angle_gamma   90.00000000
_symmetry_Int_Tables_number   1
_chemical_formula_structural   LiV3P3O11
_chemical_formula_sum   'Li4 V12 P12 O44'
_cell_volume   872.84540055
_cell_formula_units_Z   4
loop_
 _symmetry_equiv_pos_site_id
 _symmetry_equiv_pos_as_xyz
  1  'x, y, z'
loop_
 _atom_site_type_symbol
 _atom_site_label
 _atom_site_symmetry_multiplicity
 _atom_site_fract_x
 _atom_site_fract_y
 _atom_site_fract_z
 _atom_site_occupancy
  Li  Li0  1  0.77338400  0.36002600  0.12108400  1
  Li  Li1  1  0.72661600  0.36002600  0.62108400  1
  Li  Li2  1  0.27338400  0.63997400  0.37891600  1
  Li  Li3  1  0.22661600  0.63997400  0.87891600  1
  V  V0  1  0.86643100  0.72550900  0.63685200  1
  V  V1  1  0.63171700  0.09441100  0.40029400  1
  V  V2  1  0.36210200  0.07291300  0.23499700  1
  V  V3  1  0.36643100  0.27449100  0.86314800  1
  V  V4  1  0.86210200  0.92708700  0.26500300  1
  V  V5  1  0.86828300  0.09441100  0.90029400  1
  V  V6  1  0.13171700  0.90558900  0.09970600  1
  V  V7  1  0.13789800  0.07291300  0.73499700  1
  V  V8  1  0.63356900  0.72550900  0.13685200  1
  V  V9  1  0.63789800  0.92708700  0.76500300  1
  V  V10  1  0.36828300  0.90558900  0.59970600  1
  V  V11  1  0.13356900  0.27449100  0.36314800  1
  P  P0  1  0.55727200  0.59812800  0.76527900  1
  P  P1  1  0.05727200  0.40187200  0.73472100  1
  P  P2  1  0.07071100  0.24136200  0.06338100  1
  P  P3  1  0.65655800  0.12010800  0.05784500  1
  P  P4  1  0.15655800  0.87989200  0.44215500  1
  P  P5  1  0.42928900  0.24136200  0.56338100  1
  P  P6  1  0.57071100  0.75863800  0.43661900  1
  P  P7  1  0.84344200  0.12010800  0.55784500  1
  P  P8  1  0.34344200  0.87989200  0.94215500  1
  P  P9  1  0.92928900  0.75863800  0.93661900  1
  P  P10  1  0.94272800  0.59812800  0.26527900  1
  P  P11  1  0.44272800  0.40187200  0.23472100  1
  O  O0  1  0.21908600  0.75640400  0.59060300  1
  O  O1  1  0.70988900  0.57140200  0.79394900  1
  O  O2  1  0.52634500  0.61874300  0.59747900  1
  O  O3  1  0.45556500  0.47379700  0.86334900  1
  O  O4  1  0.48093700  0.24145200  0.25514700  1
  O  O5  1  0.01704800  0.27965600  0.17730400  1
  O  O6  1  0.95556500  0.52620300  0.63665100  1
  O  O7  1  0.02634500  0.38125700  0.90252100  1
  O  O8  1  0.20988900  0.42859800  0.70605100  1
  O  O9  1  0.21954800  0.04217800  0.40961300  1
  O  O10  1  0.22679300  0.22358700  0.05732800  1
  O  O11  1  0.71951400  0.13460100  0.19122000  1
  O  O12  1  0.71908600  0.24359600  0.90939700  1
  O  O13  1  0.49966700  0.11981400  0.05671600  1
  O  O14  1  0.49837400  0.90982800  0.41765000  1
  O  O15  1  0.99837400  0.09017200  0.08235000  1
  O  O16  1  0.01906300  0.24145200  0.75514700  1
  O  O17  1  0.99966700  0.88018600  0.44328400  1
  O  O18  1  0.48295200  0.27965600  0.67730400  1
  O  O19  1  0.21951400  0.86539900  0.30878000  1
  O  O20  1  0.28045200  0.04217800  0.90961300  1
  O  O21  1  0.27320700  0.22358700  0.55732800  1
  O  O22  1  0.72679300  0.77641300  0.44267200  1
  O  O23  1  0.71954800  0.95782200  0.09038700  1
  O  O24  1  0.78048600  0.13460100  0.69122000  1
  O  O25  1  0.51704800  0.72034400  0.32269600  1
  O  O26  1  0.00033300  0.11981400  0.55671600  1
  O  O27  1  0.98093700  0.75854800  0.24485300  1
  O  O28  1  0.00162600  0.90982800  0.91765000  1
  O  O29  1  0.50162600  0.09017200  0.58235000  1
  O  O30  1  0.50033300  0.88018600  0.94328400  1
  O  O31  1  0.28091400  0.75640400  0.09060300  1
  O  O32  1  0.28048600  0.86539900  0.80878000  1
  O  O33  1  0.77320700  0.77641300  0.94267200  1
  O  O34  1  0.78045200  0.95782200  0.59038700  1
  O  O35  1  0.79011100  0.57140200  0.29394900  1
  O  O36  1  0.97365500  0.61874300  0.09747900  1
  O  O37  1  0.04443500  0.47379700  0.36334900  1
  O  O38  1  0.98295200  0.72034400  0.82269600  1
  O  O39  1  0.51906300  0.75854800  0.74485300  1
  O  O40  1  0.54443500  0.52620300  0.13665100  1
  O  O41  1  0.47365500  0.38125700  0.40252100  1
  O  O42  1  0.29011100  0.42859800  0.20605100  1
  O  O43  1  0.78091400  0.24359600  0.40939700  1
loop_
_geom_bond_atom_site_label_1
_geom_bond_atom_site_label_2
_geom_bond_distance
_geom_bond_site_symmetry_2
Li0 O11 2.053602 1_555
Li0 O5 2.482522 1_655
Li0 O43 2.603731 1_555
Li1 O24 2.053602 1_555
Li1 O18 2.482522 1_555
Li1 O12 2.603731 1_555
Li2 O19 2.053602 1_555
Li2 O25 2.482522 1_555
Li2 O31 2.603731 1_555
Li3 O32 2.053602 1_555
Li3 O38 2.482522 1_455
Li3 O0 2.603731 1_555
O0 P4 1.527648 1_555
O0 V10 2.121694 1_555
O1 P0 1.515659 1_555
O1 V0 2.192626 1_555
O2 P6 1.597909 1_555
O2 P0 1.675853 1_555
O3 P0 1.509114 1_555
O3 V3 2.176767 1_555
O4 P11 1.553373 1_555
O4 V1 2.083293 1_555
O4 V2 2.143263 1_555
O5 P2 1.512128 1_555
O5 V11 2.219317 1_555
O6 P1 1.509114 1_655
O6 V0 2.176767 1_555
O7 P2 1.597909 1_556
O7 P1 1.675853 1_555
O8 P1 1.515659 1_555
O8 V3 2.192626 1_555
O9 P4 1.602688 1_545
O9 V2 2.180460 1_555
O9 V10 2.263211 1_545
O9 V11 2.279260 1_555
O10 P2 1.538552 1_555
O10 V2 2.141234 1_555
O10 V3 2.267323 1_554
O11 P3 1.589246 1_555
O11 V1 2.174028 1_555
O11 V4 2.282652 1_545
O12 P3 1.527648 1_556
O12 V5 2.121694 1_555
O13 P3 1.531150 1_555
O13 V2 2.137460 1_555
O13 V3 2.226054 1_554
O14 P6 1.587920 1_555
O14 V1 2.190254 1_565
O14 V2 2.207552 1_565
O14 V10 2.261110 1_555
O15 P2 1.587920 1_655
O15 V6 2.190254 1_645
O15 V4 2.207552 1_545
O15 V5 2.261110 1_554
O16 P1 1.553373 1_555
O16 V5 2.083293 1_455
O16 V7 2.143263 1_555
O17 P4 1.531150 1_655
O17 V4 2.137460 1_555
O17 V0 2.226054 1_555
O18 P5 1.512128 1_555
O18 V3 2.219317 1_555
O19 P4 1.589246 1_555
O19 V6 2.174028 1_555
O19 V2 2.282652 1_565
O20 P8 1.602688 1_545
O20 V7 2.180460 1_555
O20 V6 2.263211 1_546
O20 V3 2.279260 1_555
O21 P5 1.538552 1_555
O21 V7 2.141234 1_555
O21 V11 2.267323 1_555
O22 P6 1.538552 1_555
O22 V4 2.141234 1_555
O22 V0 2.267323 1_555
O23 P3 1.602688 1_565
O23 V4 2.180460 1_555
O23 V5 2.263211 1_564
O23 V8 2.279260 1_555
O24 P7 1.589246 1_555
O24 V5 2.174028 1_555
O24 V9 2.282652 1_545
O25 P6 1.512128 1_555
O25 V8 2.219317 1_555
O26 P7 1.531150 1_455
O26 V7 2.137460 1_555
O26 V11 2.226054 1_555
O27 P10 1.553373 1_555
O27 V6 2.083293 1_655
O27 V4 2.143263 1_555
O28 P9 1.587920 1_455
O28 V5 2.190254 1_465
O28 V7 2.207552 1_565
O28 V6 2.261110 1_556
O29 P5 1.587920 1_555
O29 V10 2.190254 1_545
O29 V9 2.207552 1_545
O29 V1 2.261110 1_555
O30 P8 1.531150 1_555
O30 V9 2.137460 1_555
O30 V8 2.226054 1_556
O31 P8 1.527648 1_554
O31 V6 2.121694 1_555
O32 P8 1.589246 1_555
O32 V10 2.174028 1_555
O32 V7 2.282652 1_565
O33 P9 1.538552 1_555
O33 V9 2.141234 1_555
O33 V8 2.267323 1_556
O34 P7 1.602688 1_565
O34 V9 2.180460 1_555
O34 V1 2.263211 1_565
O34 V0 2.279260 1_555
O35 P10 1.515659 1_555
O35 V8 2.192626 1_555
O36 P9 1.597909 1_554
O36 P10 1.675853 1_555
O37 P10 1.509114 1_455
O37 V11 2.176767 1_555
O38 P9 1.512128 1_555
O38 V0 2.219317 1_555
O39 P0 1.553373 1_555
O39 V10 2.083293 1_555
O39 V9 2.143263 1_555
O40 P11 1.509114 1_555
O40 V8 2.176767 1_555
O41 P5 1.597909 1_555
O41 P11 1.675853 1_555
O42 P11 1.515659 1_555
O42 V11 2.192626 1_555
O43 P7 1.527648 1_555
O43 V1 2.121694 1_555
