# generated using pymatgen
data_Li9V12Te7O48
_symmetry_space_group_name_H-M   'P 1'
_cell_length_a   5.40980000
_cell_length_b   10.58900770
_cell_length_c   18.18989757
_cell_angle_alpha   91.06158252
_cell_angle_beta   90.65496950
_cell_angle_gamma   91.01689176
_symmetry_Int_Tables_number   1
_chemical_formula_structural   Li9V12Te7O48
_chemical_formula_sum   'Li9 V12 Te7 O48'
_cell_volume   1041.58261366
_cell_formula_units_Z   1
loop_
 _symmetry_equiv_pos_site_id
 _symmetry_equiv_pos_as_xyz
  1  'x, y, z'
loop_
 _atom_site_type_symbol
 _atom_site_label
 _atom_site_symmetry_multiplicity
 _atom_site_fract_x
 _atom_site_fract_y
 _atom_site_fract_z
 _atom_site_occupancy
  Li  Li0  1  0.25361300  0.42354400  0.95410200  1
  Li  Li1  1  0.21501400  0.74410600  0.29720300  1
  Li  Li2  1  0.27209700  0.27504000  0.78923300  1
  Li  Li3  1  0.25432100  0.57915900  0.46583000  1
  Li  Li4  1  0.42269400  0.75208100  0.75655100  1
  Li  Li5  1  0.57707400  0.24793700  0.24176000  1
  Li  Li6  1  0.75346800  0.07138700  0.54074400  1
  Li  Li7  1  0.72586500  0.73321100  0.21667300  1
  Li  Li8  1  0.78441800  0.24450600  0.70306600  1
  V  V0  1  0.22103800  0.03114900  0.65555800  1
  V  V1  1  0.23980600  0.47646200  0.65611300  1
  V  V2  1  0.24034300  0.51736000  0.15825700  1
  V  V3  1  0.26874100  0.97192700  0.16181200  1
  V  V4  1  0.72519900  0.46825200  0.84220400  1
  V  V5  1  0.70061600  0.03967800  0.83792400  1
  V  V6  1  0.78728000  0.53203700  0.34871400  1
  V  V7  1  0.74919000  0.97073500  0.34201700  1
  V  V8  1  0.26800500  0.74050700  0.93884100  1
  V  V9  1  0.26070700  0.24847400  0.44432900  1
  V  V10  1  0.73149700  0.74739800  0.55983400  1
  V  V11  1  0.83737700  0.27257400  0.06218800  1
  Te  Te0  1  0.07358000  0.25312500  0.26254200  1
  Te  Te1  1  0.23556200  0.09260400  0.95919200  1
  Te  Te2  1  0.27059200  0.93156800  0.47458600  1
  Te  Te3  1  0.72719300  0.43392000  0.52756100  1
  Te  Te4  1  0.75019500  0.55548800  0.02493800  1
  Te  Te5  1  0.74201700  0.93787000  0.03909300  1
  Te  Te6  1  0.92532900  0.74550900  0.74505900  1
  O  O0  1  0.08492200  0.25129700  0.98394700  1
  O  O1  1  0.05403300  0.60957000  0.37115100  1
  O  O2  1  0.02212700  0.89695300  0.36024000  1
  O  O3  1  0.06767500  0.61797900  0.20656800  1
  O  O4  1  0.08990500  0.87377100  0.20770900  1
  O  O5  1  0.09732600  0.10696000  0.46577400  1
  O  O6  1  0.08203400  0.37575600  0.46393600  1
  O  O7  1  0.07740700  0.02006200  0.08482100  1
  O  O8  1  0.05066700  0.45539500  0.07723100  1
  O  O9  1  0.19782500  0.74319500  0.84656800  1
  O  O10  1  0.16849100  0.62522100  0.70468100  1
  O  O11  1  0.16936300  0.88194100  0.69899800  1
  O  O12  1  0.34049300  0.10900200  0.20992800  1
  O  O13  1  0.31599700  0.38333500  0.21282300  1
  O  O14  1  0.31877200  0.25207700  0.34727700  1
  O  O15  1  0.40310700  0.99835000  0.56909400  1
  O  O16  1  0.41623200  0.50432800  0.57065300  1
  O  O17  1  0.44848000  0.88004800  0.96346100  1
  O  O18  1  0.43784700  0.60384600  0.96369800  1
  O  O19  1  0.40170600  0.12413300  0.71011700  1
  O  O20  1  0.41763900  0.38607100  0.70678800  1
  O  O21  1  0.41071800  0.12647800  0.86807700  1
  O  O22  1  0.45230200  0.39656000  0.86143200  1
  O  O23  1  0.46221500  0.75055400  0.50649700  1
  O  O24  1  0.53202500  0.25309400  0.49606500  1
  O  O25  1  0.50751100  0.59563600  0.13413800  1
  O  O26  1  0.55088000  0.89453100  0.12602300  1
  O  O27  1  0.60487000  0.62254600  0.29870100  1
  O  O28  1  0.57530500  0.87907500  0.28514400  1
  O  O29  1  0.63155800  0.11303600  0.03517100  1
  O  O30  1  0.59758300  0.38512600  0.02857100  1
  O  O31  1  0.57528900  0.99655100  0.42937900  1
  O  O32  1  0.60318000  0.49424200  0.43188200  1
  O  O33  1  0.68192400  0.74026400  0.65750900  1
  O  O34  1  0.68481200  0.61368200  0.79135100  1
  O  O35  1  0.63812200  0.89695100  0.79806700  1
  O  O36  1  0.80334600  0.12235000  0.30283600  1
  O  O37  1  0.83995500  0.38276200  0.29868900  1
  O  O38  1  0.82230200  0.25223400  0.15421100  1
  O  O39  1  0.90040000  0.50270300  0.92999900  1
  O  O40  1  0.91138400  0.01462500  0.91801200  1
  O  O41  1  0.90425500  0.61044600  0.53516300  1
  O  O42  1  0.90762900  0.87676300  0.54162800  1
  O  O43  1  0.88144000  0.12251800  0.78437900  1
  O  O44  1  0.90724900  0.37148700  0.79442300  1
  O  O45  1  0.95908600  0.10746300  0.63204400  1
  O  O46  1  0.97039100  0.39565900  0.63823400  1
  O  O47  1  0.00939300  0.74575800  0.99098900  1
loop_
_geom_bond_atom_site_label_1
_geom_bond_atom_site_label_2
_geom_bond_distance
_geom_bond_site_symmetry_2
Li0 O22 2.028030 1_555
Li0 O0 2.107882 1_555
Li0 O18 2.141277 1_555
Li0 O39 2.144141 1_455
Li0 O30 2.335093 1_556
Li0 O8 2.525227 1_556
Li1 O1 2.156613 1_555
Li1 O3 2.233305 1_555
Li1 O2 2.245372 1_555
Li1 O4 2.254751 1_555
Li1 O28 2.410852 1_555
Li1 O27 2.490388 1_555
Li2 O22 2.048046 1_555
Li2 O20 2.076219 1_555
Li2 O44 2.240505 1_455
Li2 O19 2.256935 1_555
Li2 O21 2.279210 1_555
Li3 O1 2.057659 1_555
Li3 O32 2.194971 1_555
Li3 O23 2.228167 1_555
Li3 O16 2.252355 1_555
Li3 O41 2.312597 1_455
Li3 O6 2.331127 1_555
Li4 O35 2.038440 1_555
Li4 O9 2.053529 1_555
Li4 O10 2.108001 1_555
Li4 O34 2.155636 1_555
Li4 O11 2.225410 1_555
Li4 O33 2.298609 1_555
Li5 O12 2.005577 1_555
Li5 O38 2.084934 1_555
Li5 O13 2.100067 1_555
Li5 O36 2.140688 1_555
Li5 O37 2.229910 1_555
Li5 O14 2.387215 1_555
Li6 O45 2.015064 1_555
Li6 O15 2.107518 1_545
Li6 O42 2.237166 1_545
Li6 O5 2.348206 1_655
Li6 O31 2.351465 1_545
Li6 O24 2.432129 1_555
Li7 O27 2.021840 1_555
Li7 O28 2.144026 1_555
Li7 O3 2.240861 1_655
Li7 O25 2.364068 1_555
Li7 O4 2.456147 1_655
Li7 O26 2.580528 1_555
Li8 O43 2.051544 1_555
Li8 O45 2.162124 1_555
Li8 O44 2.207090 1_555
Li8 O46 2.237099 1_555
Li8 O19 2.417877 1_555
Li8 O20 2.508709 1_555
O0 Te1 1.928622 1_555
O0 V11 1.977883 1_456
O1 V6 1.689720 1_455
O2 V7 1.714578 1_455
O2 Te2 2.481448 1_555
O3 V2 1.673134 1_555
O4 V3 1.651730 1_555
O5 V9 1.778028 1_555
O5 Te2 2.103085 1_545
O6 V9 1.707142 1_555
O6 Te3 2.338810 1_455
O7 V3 1.817829 1_545
O7 Te5 2.150347 1_445
O7 Te1 2.574983 1_554
O8 V2 1.887159 1_555
O8 Te4 2.175669 1_455
O8 V11 2.246733 1_455
O9 V8 1.717465 1_555
O9 Te6 2.350272 1_455
O10 V1 1.840762 1_555
O10 Te6 1.984733 1_455
O11 V0 1.798454 1_565
O11 Te6 2.129410 1_455
O12 V3 1.717169 1_545
O12 Te0 2.320699 1_555
O13 V2 1.797301 1_555
O13 Te0 2.109020 1_555
O14 V9 1.797607 1_555
O14 Te0 2.022289 1_555
O15 V0 1.895176 1_565
O15 Te2 1.969275 1_555
O16 V1 1.858876 1_555
O16 Te3 2.013251 1_555
O17 V8 1.803155 1_555
O17 Te5 2.161837 1_556
O17 Te1 2.548555 1_565
O18 V8 1.790168 1_555
O18 Te4 2.089768 1_556
O19 V0 1.678417 1_555
O20 V1 1.654215 1_555
O21 V5 1.912408 1_555
O21 Te1 1.954298 1_555
O22 V4 1.691157 1_555
O23 V10 1.742173 1_555
O23 Te2 2.276734 1_555
O24 V9 1.733939 1_555
O24 Te3 2.232282 1_555
O25 V2 1.718694 1_555
O25 Te4 2.428588 1_555
O26 V3 1.863449 1_555
O26 Te5 1.956415 1_555
O27 V6 1.662911 1_555
O28 V7 1.674899 1_555
O29 Te5 1.961083 1_545
O29 V11 2.055510 1_555
O29 Te1 2.539868 1_554
O30 V11 1.881731 1_555
O30 Te4 1.973087 1_555
O31 V7 1.874098 1_555
O31 Te2 1.969375 1_555
O32 V6 1.866393 1_555
O32 Te3 1.979080 1_555
O33 V10 1.802618 1_555
O33 Te6 2.054093 1_555
O34 V4 1.826187 1_555
O34 Te6 2.086804 1_555
O35 V5 1.691069 1_565
O35 Te6 2.445563 1_555
O36 V7 1.789337 1_545
O36 Te0 2.140619 1_655
O37 V6 1.837488 1_555
O37 Te0 1.990273 1_655
O38 V11 1.694344 1_555
O38 Te0 2.380874 1_655
O39 V4 1.874379 1_555
O39 Te4 1.991840 1_556
O40 V5 1.865419 1_555
O40 Te1 2.052840 1_655
O40 Te5 2.537105 1_546
O41 V10 1.792054 1_555
O41 Te3 2.086748 1_555
O42 V10 1.694623 1_555
O42 Te2 2.391654 1_655
O43 V5 1.642560 1_555
O44 V4 1.672607 1_555
O45 V0 1.698158 1_655
O46 V1 1.701969 1_655
O46 Te3 2.436466 1_555
O47 V8 1.700391 1_555
O47 Te4 2.524372 1_456
O47 Te5 2.657735 1_456
