# generated using pymatgen
data_Li3Mo4P5O24
_symmetry_space_group_name_H-M   'P 1'
_cell_length_a   9.39180528
_cell_length_b   9.39180528
_cell_length_c   15.41986539
_cell_angle_alpha   65.20595736
_cell_angle_beta   65.20595736
_cell_angle_gamma   54.46083873
_symmetry_Int_Tables_number   1
_chemical_formula_structural   Li3Mo4P5O24
_chemical_formula_sum   'Li6 Mo8 P10 O48'
_cell_volume   975.93802794
_cell_formula_units_Z   2
loop_
 _symmetry_equiv_pos_site_id
 _symmetry_equiv_pos_as_xyz
  1  'x, y, z'
loop_
 _atom_site_type_symbol
 _atom_site_label
 _atom_site_symmetry_multiplicity
 _atom_site_fract_x
 _atom_site_fract_y
 _atom_site_fract_z
 _atom_site_occupancy
  Li  Li0  1  0.94850900  0.97747600  0.02944500  1
  Li  Li1  1  0.67440900  0.64364800  0.26335200  1
  Li  Li2  1  0.36315600  0.31585100  0.24847000  1
  Li  Li3  1  0.31585100  0.36315600  0.74847000  1
  Li  Li4  1  0.64364800  0.67440900  0.76335200  1
  Li  Li5  1  0.97747600  0.94850900  0.52944500  1
  Mo  Mo0  1  0.01531900  0.64754000  0.32083500  1
  Mo  Mo1  1  0.98961200  0.35041000  0.68070400  1
  Mo  Mo2  1  0.40691800  0.79353800  0.52176600  1
  Mo  Mo3  1  0.20991500  0.60047900  0.97760800  1
  Mo  Mo4  1  0.35041000  0.98961200  0.18070400  1
  Mo  Mo5  1  0.60047900  0.20991500  0.47760800  1
  Mo  Mo6  1  0.64754000  0.01531900  0.82083500  1
  Mo  Mo7  1  0.79353800  0.40691800  0.02176600  1
  P  P0  1  0.33161200  0.68572400  0.10799100  1
  P  P1  1  0.24580200  0.23855500  0.46077000  1
  P  P2  1  0.68572400  0.33161200  0.60799100  1
  P  P3  1  0.31764700  0.66793700  0.39519900  1
  P  P4  1  0.23855500  0.24580200  0.96077000  1
  P  P5  1  0.89867700  0.10318900  0.24851300  1
  P  P6  1  0.76151800  0.75958500  0.04230700  1
  P  P7  1  0.10318900  0.89867700  0.74851300  1
  P  P8  1  0.75958500  0.76151800  0.54230700  1
  P  P9  1  0.66793700  0.31764700  0.89519900  1
  O  O0  1  0.92750000  0.78200900  0.01660300  1
  O  O1  1  0.51904800  0.52681000  0.07958600  1
  O  O2  1  0.48654000  0.48343800  0.41686200  1
  O  O3  1  0.80798300  0.22098900  0.16130200  1
  O  O4  1  0.45680600  0.20730900  0.59154600  1
  O  O5  1  0.79326500  0.54569200  0.90585100  1
  O  O6  1  0.52681000  0.51904800  0.57958600  1
  O  O7  1  0.23529900  0.76978700  0.47782700  1
  O  O8  1  0.22098900  0.80798300  0.66130200  1
  O  O9  1  0.24334000  0.59125800  0.20728100  1
  O  O10  1  0.36635400  0.11790600  0.22782600  1
  O  O11  1  0.32884600  0.15679100  0.04594100  1
  O  O12  1  0.55550800  0.81793900  0.57724200  1
  O  O13  1  0.15643200  0.36902800  0.37228400  1
  O  O14  1  0.81793900  0.55550800  0.07724200  1
  O  O15  1  0.07993700  0.09367700  0.22610400  1
  O  O16  1  0.84166300  0.63088800  0.63124600  1
  O  O17  1  0.83053900  0.34156100  0.61923200  1
  O  O18  1  0.54569200  0.79326500  0.40585100  1
  O  O19  1  0.76978700  0.23529900  0.97782700  1
  O  O20  1  0.78200900  0.92750000  0.51660300  1
  O  O21  1  0.44588400  0.19504600  0.41994500  1
  O  O22  1  0.09367700  0.07993700  0.72610400  1
  O  O23  1  0.76641600  0.22326000  0.52976000  1
  O  O24  1  0.20730900  0.45680600  0.09154600  1
  O  O25  1  0.62963500  0.88860700  0.77540900  1
  O  O26  1  0.76461000  0.40254600  0.79681600  1
  O  O27  1  0.34156100  0.83053900  0.11923200  1
  O  O28  1  0.78001700  0.18359700  0.33932500  1
  O  O29  1  0.36902800  0.15643200  0.87228400  1
  O  O30  1  0.84659500  0.67691000  0.45502700  1
  O  O31  1  0.19504600  0.44588400  0.91994500  1
  O  O32  1  0.17134500  0.65365100  0.38711800  1
  O  O33  1  0.23154000  0.06825700  0.49072500  1
  O  O34  1  0.92703500  0.91426100  0.26670400  1
  O  O35  1  0.40254600  0.76461000  0.29681600  1
  O  O36  1  0.91426100  0.92703500  0.76670400  1
  O  O37  1  0.63088800  0.84166300  0.13124600  1
  O  O38  1  0.59125800  0.24334000  0.70728100  1
  O  O39  1  0.18359700  0.78001700  0.83932500  1
  O  O40  1  0.11790600  0.36635400  0.72782600  1
  O  O41  1  0.88860700  0.62963500  0.27540900  1
  O  O42  1  0.15679100  0.32884600  0.54594100  1
  O  O43  1  0.48343800  0.48654000  0.91686200  1
  O  O44  1  0.65365100  0.17134500  0.88711800  1
  O  O45  1  0.22326000  0.76641600  0.02976000  1
  O  O46  1  0.06825700  0.23154000  0.99072500  1
  O  O47  1  0.67691000  0.84659500  0.95502700  1
loop_
_geom_bond_atom_site_label_1
_geom_bond_atom_site_label_2
_geom_bond_distance
_geom_bond_site_symmetry_2
Li0 O19 2.023205 1_564
Li0 O0 2.051102 1_555
Li0 O45 2.154987 1_655
Li1 O41 2.020948 1_555
Li1 O35 2.022550 1_555
Li1 O37 2.100602 1_555
Li2 O10 1.995434 1_555
Li2 O9 2.048883 1_555
Li2 O13 2.056094 1_555
Li3 O40 1.995434 1_555
Li3 O38 2.048883 1_555
Li3 O29 2.056094 1_555
Li4 O25 2.020948 1_555
Li4 O26 2.022550 1_555
Li4 O16 2.100602 1_555
Li5 O7 2.023205 1_655
Li5 O20 2.051102 1_555
Li5 O23 2.154987 1_565
Mo0 O41 1.722131 1_455
Mo0 O34 2.017775 1_455
Mo0 O30 2.022197 1_455
Mo0 O9 2.060781 1_555
Mo0 O13 2.083075 1_555
Mo0 O32 2.144377 1_555
Mo1 O40 1.742846 1_655
Mo1 O42 2.017739 1_655
Mo1 O22 2.023422 1_655
Mo1 O26 2.066409 1_555
Mo1 O16 2.097640 1_555
Mo1 O17 2.129678 1_555
Mo2 O18 1.714520 1_555
Mo2 O6 2.061157 1_555
Mo2 O12 2.066212 1_555
Mo2 O33 2.069808 1_565
Mo2 O8 2.124937 1_555
Mo2 O7 2.137148 1_555
Mo3 O24 1.709406 1_556
Mo3 O43 2.061178 1_555
Mo3 O31 2.083461 1_555
Mo3 O39 2.095949 1_555
Mo3 O45 2.110429 1_556
Mo3 O0 2.137425 1_456
Mo4 O10 1.742846 1_565
Mo4 O11 2.017739 1_565
Mo4 O15 2.023422 1_565
Mo4 O35 2.066409 1_555
Mo4 O37 2.097640 1_555
Mo4 O27 2.129678 1_555
Mo5 O4 1.709406 1_555
Mo5 O2 2.061178 1_555
Mo5 O21 2.083461 1_555
Mo5 O28 2.095949 1_555
Mo5 O23 2.110429 1_555
Mo5 O20 2.137425 1_545
Mo6 O25 1.722131 1_545
Mo6 O36 2.017775 1_545
Mo6 O47 2.022197 1_545
Mo6 O38 2.060781 1_555
Mo6 O29 2.083075 1_555
Mo6 O44 2.144377 1_555
Mo7 O5 1.714520 1_554
Mo7 O1 2.061157 1_555
Mo7 O14 2.066212 1_555
Mo7 O46 2.069808 1_654
Mo7 O3 2.124937 1_555
Mo7 O19 2.137148 1_554
O0 P6 1.557229 1_555
O1 P0 1.538028 1_555
O2 P3 1.547211 1_555
O3 P5 1.541212 1_555
O6 P2 1.538028 1_555
O7 P3 1.572324 1_555
O8 P7 1.541212 1_555
O9 P0 1.571540 1_555
O11 P4 1.527057 1_554
O12 P8 1.561185 1_555
O13 P1 1.558948 1_555
O14 P6 1.561185 1_555
O15 P5 1.543093 1_455
O16 P8 1.535017 1_555
O17 P2 1.499208 1_555
O19 P9 1.572324 1_555
O20 P8 1.557229 1_555
O21 P1 1.557350 1_555
O22 P7 1.543093 1_545
O23 P2 1.559284 1_555
O26 P9 1.559936 1_555
O27 P0 1.499208 1_555
O28 P5 1.540395 1_555
O29 P4 1.558948 1_555
O30 P8 1.526488 1_555
O31 P4 1.557350 1_555
O32 P3 1.514416 1_555
O33 P1 1.538485 1_555
O34 P5 1.547210 1_565
O35 P3 1.559936 1_555
O36 P7 1.547210 1_655
O37 P6 1.535017 1_555
O38 P2 1.571540 1_555
O39 P7 1.540395 1_555
O42 P1 1.527057 1_555
O43 P9 1.547211 1_555
O44 P9 1.514416 1_555
O45 P0 1.559284 1_555
O46 P4 1.538485 1_555
O47 P6 1.526488 1_556
