# generated using pymatgen
data_Li3V4(OF3)3
_symmetry_space_group_name_H-M   'P 1'
_cell_length_a   10.38874800
_cell_length_b   10.40781420
_cell_length_c   11.09478544
_cell_angle_alpha   62.37298572
_cell_angle_beta   62.30875309
_cell_angle_gamma   60.40593340
_symmetry_Int_Tables_number   1
_chemical_formula_structural   Li3V4(OF3)3
_chemical_formula_sum   'Li12 V16 O12 F36'
_cell_volume   879.87331825
_cell_formula_units_Z   4
loop_
 _symmetry_equiv_pos_site_id
 _symmetry_equiv_pos_as_xyz
  1  'x, y, z'
loop_
 _atom_site_type_symbol
 _atom_site_label
 _atom_site_symmetry_multiplicity
 _atom_site_fract_x
 _atom_site_fract_y
 _atom_site_fract_z
 _atom_site_occupancy
  Li  Li0  1  0.37580800  0.37948700  0.36806300  1
  Li  Li1  1  0.60149500  0.61133700  0.18765200  1
  Li  Li2  1  0.37006900  0.87679300  0.88076300  1
  Li  Li3  1  0.60823800  0.10499700  0.69367700  1
  Li  Li4  1  0.14514100  0.64125300  0.05738000  1
  Li  Li5  1  0.88200700  0.37329700  0.36679800  1
  Li  Li6  1  0.87637800  0.87851100  0.36950800  1
  Li  Li7  1  0.14423500  0.13977200  0.55886600  1
  Li  Li8  1  0.87321400  0.37436400  0.88138700  1
  Li  Li9  1  0.10605700  0.60725800  0.69229000  1
  Li  Li10  1  0.64235100  0.14353400  0.05881200  1
  Li  Li11  1  0.63881900  0.64591600  0.56204200  1
  V  V0  1  0.25763700  0.74273600  0.25701900  1
  V  V1  1  0.26072800  0.23779500  0.75783800  1
  V  V2  1  0.01595000  0.48806900  0.49403700  1
  V  V3  1  0.76434400  0.23430200  0.25472400  1
  V  V4  1  0.99666000  0.01532400  0.48318600  1
  V  V5  1  0.23509100  0.25125400  0.26134100  1
  V  V6  1  0.01331900  0.98774200  0.99346200  1
  V  V7  1  0.75991800  0.73949300  0.75524400  1
  V  V8  1  0.99354100  0.51618500  0.98693600  1
  V  V9  1  0.23381700  0.75583500  0.76095500  1
  V  V10  1  0.51192700  0.99014900  0.49327600  1
  V  V11  1  0.49228700  0.51669100  0.48834200  1
  V  V12  1  0.73291700  0.75781600  0.26117100  1
  V  V13  1  0.51219800  0.49000200  0.99376800  1
  V  V14  1  0.49175500  0.01783700  0.99007100  1
  V  V15  1  0.73416700  0.25515900  0.76350100  1
  O  O0  1  0.38187100  0.56386700  0.36425800  1
  O  O1  1  0.37834900  0.06301000  0.86890400  1
  O  O2  1  0.87182800  0.06137900  0.37505700  1
  O  O3  1  0.18908200  0.37186800  0.37914000  1
  O  O4  1  0.05993400  0.19027600  0.38484700  1
  O  O5  1  0.87844200  0.56410900  0.86568400  1
  O  O6  1  0.18760300  0.87304700  0.87829300  1
  O  O7  1  0.07608800  0.67360600  0.87543300  1
  O  O8  1  0.68836900  0.87008400  0.38276400  1
  O  O9  1  0.57760700  0.67248900  0.37631300  1
  O  O10  1  0.68820100  0.37229100  0.88191200  1
  O  O11  1  0.57644000  0.17423100  0.87507700  1
  F  F0  1  0.44647500  0.80997200  0.11778700  1
  F  F1  1  0.31227000  0.62430500  0.12197400  1
  F  F2  1  0.44835000  0.30803200  0.61794700  1
  F  F3  1  0.94156000  0.80023800  0.13108500  1
  F  F4  1  0.80070300  0.63165000  0.12644300  1
  F  F5  1  0.31178000  0.12510100  0.62076700  1
  F  F6  1  0.62314100  0.43798700  0.13204600  1
  F  F7  1  0.86927800  0.55366400  0.38580300  1
  F  F8  1  0.69592400  0.38106100  0.36470000  1
  F  F9  1  0.55874200  0.19239200  0.37342400  1
  F  F10  1  0.94282900  0.30540600  0.62955800  1
  F  F11  1  0.93140700  0.32292100  0.11764200  1
  F  F12  1  0.80319300  0.14018400  0.61880900  1
  F  F13  1  0.10655400  0.44728800  0.13374800  1
  F  F14  1  0.62448900  0.93916100  0.62859000  1
  F  F15  1  0.81159100  0.12105600  0.12161100  1
  F  F16  1  0.86525000  0.06584100  0.88944300  1
  F  F17  1  0.68239700  0.88644600  0.86026900  1
  F  F18  1  0.55729100  0.69293100  0.87461300  1
  F  F19  1  0.94647300  0.80844700  0.61756700  1
  F  F20  1  0.44294700  0.30530900  0.13374000  1
  F  F21  1  0.11534800  0.94634000  0.62440700  1
  F  F22  1  0.31348000  0.13684900  0.12540600  1
  F  F23  1  0.81228100  0.62509100  0.61794000  1
  F  F24  1  0.12524300  0.92490300  0.12926200  1
  F  F25  1  0.36240800  0.06353200  0.39171900  1
  F  F26  1  0.18795800  0.87620300  0.36994900  1
  F  F27  1  0.05678000  0.69038800  0.37668000  1
  F  F28  1  0.44220500  0.80367000  0.63088700  1
  F  F29  1  0.30215700  0.63412500  0.62289700  1
  F  F30  1  0.61676800  0.94791100  0.12726900  1
  F  F31  1  0.12884600  0.43890000  0.62738500  1
  F  F32  1  0.36403700  0.56592500  0.89014900  1
  F  F33  1  0.18436300  0.38715200  0.85949800  1
  F  F34  1  0.05812300  0.19211800  0.87421100  1
  F  F35  1  0.62022200  0.44730400  0.62358800  1
loop_
_geom_bond_atom_site_label_1
_geom_bond_atom_site_label_2
_geom_bond_distance
_geom_bond_site_symmetry_2
Li0 O3 1.925027 1_555
Li0 O0 1.931337 1_555
Li1 O0 2.312938 1_555
Li1 O9 2.333386 1_555
Li2 O1 1.923184 1_565
Li2 O6 1.928163 1_555
Li3 O11 2.273949 1_555
Li3 O1 2.366836 1_555
Li4 O7 2.275948 1_554
Li4 O6 2.398636 1_554
Li5 O4 1.896795 1_655
Li6 O2 1.909323 1_565
Li6 O8 1.932481 1_555
Li7 O4 2.224083 1_555
Li7 O3 2.410251 1_555
Li8 O5 1.926477 1_555
Li8 O10 1.930084 1_555
Li9 O7 2.281119 1_555
Li9 O5 2.348144 1_455
Li10 O11 2.281147 1_554
Li10 O10 2.380119 1_554
Li11 O9 2.289691 1_555
Li11 O8 2.365458 1_555
O0 V0 1.883313 1_555
O0 V11 1.933045 1_555
O1 V1 1.856282 1_555
O1 V14 1.937788 1_555
O2 V3 1.854873 1_555
O2 V4 1.910357 1_555
O3 V2 1.863607 1_555
O3 V5 1.964890 1_555
O4 V5 1.899547 1_555
O4 V4 1.900317 1_455
O5 V7 1.859419 1_555
O5 V8 1.942153 1_555
O6 V6 1.861599 1_555
O6 V9 1.930541 1_555
O7 V8 1.863379 1_455
O7 V9 1.863693 1_555
O8 V10 1.869373 1_555
O8 V12 1.935707 1_555
O9 V12 1.863151 1_555
O9 V11 1.867172 1_555
O10 V13 1.863552 1_555
O10 V15 1.940983 1_555
O11 V15 1.854121 1_555
O11 V14 1.869875 1_555
F0 Li1 1.963150 1_555
F0 V0 2.064317 1_555
F0 V14 2.110003 1_564
F1 Li4 2.072692 1_555
F1 V0 2.077927 1_555
F1 V13 2.126419 1_554
F2 Li3 2.028301 1_555
F2 V1 2.070246 1_555
F2 V11 2.113093 1_555
F3 Li4 2.017588 1_655
F3 V6 2.076304 1_654
F3 V12 2.103076 1_555
F4 Li1 1.944628 1_555
F4 V8 2.078104 1_554
F4 V12 2.093616 1_555
F5 V1 2.063963 1_555
F5 Li7 2.067816 1_555
F5 V10 2.126364 1_545
F6 Li1 2.046686 1_555
F6 V13 2.057179 1_554
F6 V3 2.146307 1_555
F7 Li5 1.918833 1_555
F7 V2 2.035357 1_655
F7 V12 2.134544 1_555
F7 Li11 2.365796 1_555
F8 Li5 1.905256 1_555
F8 V3 2.043807 1_555
F8 V11 2.121087 1_555
F8 Li1 2.380651 1_555
F9 Li0 1.936372 1_555
F9 V10 2.061453 1_545
F9 V3 2.063973 1_555
F10 Li7 2.032480 1_655
F10 V2 2.041047 1_655
F10 V15 2.141472 1_555
F11 V3 2.000714 1_555
F11 V8 2.067065 1_554
F12 Li3 1.952684 1_555
F12 V15 2.094603 1_555
F12 V4 2.101293 1_555
F13 Li4 1.962460 1_555
F13 V5 2.082579 1_555
F13 V8 2.099614 1_454
F14 V10 2.045176 1_555
F14 Li3 2.069739 1_565
F14 V7 2.124622 1_555
F15 V3 2.044618 1_555
F15 Li10 2.052442 1_555
F15 V6 2.127634 1_644
F16 V6 1.975795 1_645
F16 V15 2.062567 1_555
F16 Li10 2.250040 1_556
F17 V7 1.977284 1_555
F17 V14 2.089736 1_565
F17 Li3 2.208442 1_565
F18 Li2 1.941936 1_555
F18 V13 2.059136 1_555
F18 V7 2.059438 1_555
F19 Li9 2.014717 1_655
F19 V7 2.051848 1_555
F19 V4 2.130688 1_565
F20 Li10 2.017394 1_555
F20 V13 2.045315 1_554
F20 V5 2.145597 1_555
F21 Li7 1.925629 1_565
F21 V9 2.068337 1_555
F21 V4 2.090121 1_465
F22 V5 1.980343 1_555
F22 V14 2.023204 1_554
F23 Li11 2.051159 1_555
F23 V7 2.075211 1_555
F23 V2 2.129527 1_655
F24 V6 2.003254 1_554
F24 V0 2.058994 1_555
F25 V10 1.980522 1_545
F25 V5 2.064901 1_555
F25 Li7 2.210812 1_555
F26 V0 1.949733 1_555
F26 V4 2.036872 1_465
F27 Li6 1.929269 1_455
F27 V2 2.033558 1_555
F27 V0 2.071437 1_555
F28 Li11 1.962631 1_555
F28 V10 2.057924 1_555
F28 V9 2.124087 1_555
F29 Li9 1.930415 1_555
F29 V11 2.047215 1_555
F29 V9 2.086943 1_555
F30 Li10 1.924975 1_565
F30 V12 2.039502 1_555
F30 V14 2.099947 1_564
F31 V2 2.035684 1_555
F31 Li9 2.060821 1_555
F31 V1 2.133995 1_555
F32 V13 1.978892 1_555
F32 V9 2.079689 1_555
F32 Li4 2.212498 1_556
F33 V1 1.973395 1_555
F33 V8 2.063720 1_455
F33 Li9 2.229747 1_555
F34 Li8 1.921798 1_455
F34 V1 2.053426 1_555
F34 V6 2.070560 1_545
F35 Li11 1.933737 1_555
F35 V15 2.073834 1_555
F35 V11 2.107158 1_555
