# generated using pymatgen
data_Li2NiP3O10
_symmetry_space_group_name_H-M   'P 1'
_cell_length_a   8.55275800
_cell_length_b   4.69118500
_cell_length_c   9.24148594
_cell_angle_alpha   81.85652308
_cell_angle_beta   90.00000000
_cell_angle_gamma   90.00000000
_symmetry_Int_Tables_number   1
_chemical_formula_structural   Li2NiP3O10
_chemical_formula_sum   'Li4 Ni2 P6 O20'
_cell_volume   367.05326736
_cell_formula_units_Z   2
loop_
 _symmetry_equiv_pos_site_id
 _symmetry_equiv_pos_as_xyz
  1  'x, y, z'
loop_
 _atom_site_type_symbol
 _atom_site_label
 _atom_site_symmetry_multiplicity
 _atom_site_fract_x
 _atom_site_fract_y
 _atom_site_fract_z
 _atom_site_occupancy
  Li  Li0  1  0.92385000  0.97930900  0.34537900  1
  Li  Li1  1  0.57615000  0.97930900  0.34537900  1
  Li  Li2  1  0.42385000  0.02069100  0.65462100  1
  Li  Li3  1  0.07615000  0.02069100  0.65462100  1
  Ni  Ni0  1  0.00000000  0.00000000  0.00000000  1
  Ni  Ni1  1  0.50000000  0.00000000  0.00000000  1
  P  P0  1  0.75000000  0.67844100  0.83013000  1
  P  P1  1  0.25000000  0.58521700  0.45955300  1
  P  P2  1  0.25000000  0.46456900  0.85890000  1
  P  P3  1  0.75000000  0.53543100  0.14110000  1
  P  P4  1  0.75000000  0.41478300  0.54044700  1
  P  P5  1  0.25000000  0.32155900  0.16987000  1
  O  O0  1  0.90089500  0.84983500  0.82776300  1
  O  O1  1  0.59910500  0.84983500  0.82776300  1
  O  O2  1  0.25000000  0.74724700  0.76101400  1
  O  O3  1  0.39571400  0.77013200  0.47101700  1
  O  O4  1  0.10428600  0.77013200  0.47101700  1
  O  O5  1  0.75000000  0.70160300  0.44257700  1
  O  O6  1  0.60115400  0.71842200  0.14640400  1
  O  O7  1  0.89884600  0.71842200  0.14640400  1
  O  O8  1  0.75000000  0.43513900  0.97353800  1
  O  O9  1  0.25000000  0.51954100  0.29094600  1
  O  O10  1  0.75000000  0.48045900  0.70905400  1
  O  O11  1  0.25000000  0.56486100  0.02646200  1
  O  O12  1  0.10115400  0.28157800  0.85359600  1
  O  O13  1  0.39884600  0.28157800  0.85359600  1
  O  O14  1  0.25000000  0.29839700  0.55742300  1
  O  O15  1  0.89571400  0.22986800  0.52898300  1
  O  O16  1  0.60428600  0.22986800  0.52898300  1
  O  O17  1  0.75000000  0.25275300  0.23898600  1
  O  O18  1  0.40089500  0.15016500  0.17223700  1
  O  O19  1  0.09910500  0.15016500  0.17223700  1
loop_
_geom_bond_atom_site_label_1
_geom_bond_atom_site_label_2
_geom_bond_distance
_geom_bond_site_symmetry_2
Li0 O4 2.090406 1_655
Li0 O5 2.093658 1_555
Li0 O17 2.113243 1_565
Li0 O15 2.209884 1_565
Li0 O19 2.255243 1_665
Li0 O7 2.358482 1_555
Li1 O3 2.090406 1_555
Li1 O5 2.093658 1_555
Li1 O17 2.113243 1_565
Li1 O16 2.209884 1_565
Li1 O18 2.255243 1_565
Li1 O6 2.358482 1_555
Li2 O16 2.090406 1_555
Li2 O14 2.093658 1_555
Li2 O2 2.113243 1_545
Li2 O3 2.209884 1_545
Li2 O1 2.255243 1_545
Li2 O13 2.358482 1_555
Li3 O15 2.090406 1_455
Li3 O14 2.093658 1_555
Li3 O2 2.113243 1_545
Li3 O4 2.209884 1_545
Li3 O0 2.255243 1_445
Li3 O12 2.358482 1_555
Ni0 O7 1.953869 1_445
Ni0 O12 1.953869 1_554
Ni0 O19 2.016426 1_555
Ni0 O0 2.016426 1_444
Ni1 O6 1.953869 1_545
Ni1 O13 1.953869 1_554
Ni1 O18 2.016426 1_555
Ni1 O1 2.016426 1_544
O0 P0 1.519060 1_555
O1 P0 1.519060 1_555
O2 P2 1.495660 1_555
O3 P1 1.530660 1_555
O4 P1 1.530660 1_555
O5 P4 1.511198 1_555
O6 P3 1.540095 1_555
O7 P3 1.540095 1_555
O8 P0 1.621918 1_555
O8 P3 1.680977 1_556
O9 P5 1.552101 1_555
O9 P1 1.630599 1_555
O10 P0 1.552101 1_555
O10 P4 1.630599 1_555
O11 P5 1.621918 1_555
O11 P2 1.680977 1_554
O12 P2 1.540095 1_555
O13 P2 1.540095 1_555
O14 P1 1.511198 1_555
O15 P4 1.530660 1_555
O16 P4 1.530660 1_555
O17 P3 1.495660 1_555
O18 P5 1.519060 1_555
O19 P5 1.519060 1_555
