# generated using pymatgen
data_V2Ni(PO4)3
_symmetry_space_group_name_H-M   'P 1'
_cell_length_a   8.47442957
_cell_length_b   8.47442995
_cell_length_c   8.47442897
_cell_angle_alpha   61.10142487
_cell_angle_beta   61.10141896
_cell_angle_gamma   61.10141713
_symmetry_Int_Tables_number   1
_chemical_formula_structural   V2Ni(PO4)3
_chemical_formula_sum   'V4 Ni2 P6 O24'
_cell_volume   441.01387729
_cell_formula_units_Z   2
loop_
 _symmetry_equiv_pos_site_id
 _symmetry_equiv_pos_as_xyz
  1  'x, y, z'
loop_
 _atom_site_type_symbol
 _atom_site_label
 _atom_site_symmetry_multiplicity
 _atom_site_fract_x
 _atom_site_fract_y
 _atom_site_fract_z
 _atom_site_occupancy
  V  V0  1  0.14203000  0.14203000  0.14203000  1
  V  V1  1  0.35797000  0.35797000  0.35797000  1
  V  V2  1  0.64203000  0.64203000  0.64203000  1
  V  V3  1  0.85797000  0.85797000  0.85797000  1
  Ni  Ni0  1  0.00000000  0.00000000  0.00000000  1
  Ni  Ni1  1  0.50000000  0.50000000  0.50000000  1
  P  P0  1  0.04367000  0.75000000  0.45633000  1
  P  P1  1  0.45633000  0.04367000  0.75000000  1
  P  P2  1  0.75000000  0.45633000  0.04367000  1
  P  P3  1  0.25000000  0.54367000  0.95633000  1
  P  P4  1  0.54367000  0.95633000  0.25000000  1
  P  P5  1  0.95633000  0.25000000  0.54367000  1
  O  O0  1  0.11464300  0.31596700  0.50416300  1
  O  O1  1  0.31596700  0.50416300  0.11464300  1
  O  O2  1  0.05900600  0.90994400  0.25774000  1
  O  O3  1  0.50416300  0.11464300  0.31596700  1
  O  O4  1  0.00416300  0.81596700  0.61464300  1
  O  O5  1  0.24226000  0.59005600  0.44099400  1
  O  O6  1  0.25774000  0.05900600  0.90994400  1
  O  O7  1  0.44099400  0.24226000  0.59005600  1
  O  O8  1  0.18403300  0.38535700  0.99583700  1
  O  O9  1  0.59005600  0.44099400  0.24226000  1
  O  O10  1  0.09005600  0.74226000  0.94099400  1
  O  O11  1  0.38535700  0.99583700  0.18403300  1
  O  O12  1  0.61464300  0.00416300  0.81596700  1
  O  O13  1  0.90994400  0.25774000  0.05900600  1
  O  O14  1  0.40994400  0.55900600  0.75774000  1
  O  O15  1  0.81596700  0.61464300  0.00416300  1
  O  O16  1  0.55900600  0.75774000  0.40994400  1
  O  O17  1  0.74226000  0.94099400  0.09005600  1
  O  O18  1  0.75774000  0.40994400  0.55900600  1
  O  O19  1  0.99583700  0.18403300  0.38535700  1
  O  O20  1  0.49583700  0.88535700  0.68403300  1
  O  O21  1  0.94099400  0.09005600  0.74226000  1
  O  O22  1  0.68403300  0.49583700  0.88535700  1
  O  O23  1  0.88535700  0.68403300  0.49583700  1
loop_
_geom_bond_atom_site_label_1
_geom_bond_atom_site_label_2
_geom_bond_distance
_geom_bond_site_symmetry_2
Ni0 O21 2.163070 1_454
Ni0 O2 2.163070 1_545
Ni0 O10 2.163070 1_544
Ni0 O13 2.163070 1_455
Ni0 O17 2.163070 1_445
Ni0 O6 2.163070 1_554
Ni1 O9 2.163070 1_555
Ni1 O14 2.163070 1_555
Ni1 O5 2.163070 1_555
Ni1 O18 2.163070 1_555
Ni1 O16 2.163070 1_555
Ni1 O7 2.163070 1_555
O0 P5 1.527873 1_455
O0 V1 1.930724 1_555
O1 P3 1.527873 1_554
O1 V1 1.930724 1_555
O2 P0 1.562206 1_555
O2 V0 2.032603 1_565
O3 P4 1.527873 1_545
O3 V1 1.930724 1_555
O4 P0 1.527873 1_555
O4 V3 1.930724 1_455
O5 P0 1.562206 1_555
O5 V1 2.032602 1_555
O6 P1 1.562206 1_555
O6 V0 2.032602 1_556
O7 P1 1.562207 1_555
O7 V1 2.032602 1_555
O8 P3 1.527873 1_555
O8 V0 1.930724 1_556
O9 P2 1.562206 1_555
O9 V1 2.032603 1_555
O10 P3 1.562206 1_555
O10 V3 2.032602 1_455
O11 P4 1.527873 1_555
O11 V0 1.930724 1_565
O12 P1 1.527873 1_555
O12 V3 1.930724 1_545
O13 P2 1.562206 1_555
O13 V0 2.032602 1_655
O14 P3 1.562206 1_555
O14 V2 2.032603 1_555
O15 P2 1.527873 1_555
O15 V3 1.930724 1_554
O16 P4 1.562207 1_555
O16 V2 2.032602 1_555
O17 P4 1.562206 1_555
O17 V3 2.032602 1_554
O18 P5 1.562206 1_555
O18 V2 2.032602 1_555
O19 P5 1.527873 1_555
O19 V0 1.930724 1_655
O20 P1 1.527873 1_565
O20 V2 1.930724 1_555
O21 P5 1.562206 1_555
O21 V3 2.032603 1_545
O22 P2 1.527873 1_556
O22 V2 1.930724 1_555
O23 P0 1.527873 1_655
O23 V2 1.930724 1_555
