# generated using pymatgen
data_Na3FeO4
_symmetry_space_group_name_H-M   'P 1'
_cell_length_a   8.18824004
_cell_length_b   8.18824004
_cell_length_c   5.59008845
_cell_angle_alpha   77.39106690
_cell_angle_beta   77.39106690
_cell_angle_gamma   99.14478298
_symmetry_Int_Tables_number   1
_chemical_formula_structural   Na3FeO4
_chemical_formula_sum   'Na12 Fe4 O16'
_cell_volume   348.44096914
_cell_formula_units_Z   4
loop_
 _symmetry_equiv_pos_site_id
 _symmetry_equiv_pos_as_xyz
  1  'x, y, z'
loop_
 _atom_site_type_symbol
 _atom_site_label
 _atom_site_symmetry_multiplicity
 _atom_site_fract_x
 _atom_site_fract_y
 _atom_site_fract_z
 _atom_site_occupancy
  Na  Na0  1  0.63749380  0.88170305  0.51823581  1
  Na  Na1  1  0.88170305  0.63749380  0.51823581  1
  Na  Na2  1  -0.00000000  0.50000000  -0.00000000  1
  Na  Na3  1  -0.00000000  0.00000000  0.50000000  1
  Na  Na4  1  0.74310357  0.25689643  0.50000000  1
  Na  Na5  1  0.50000000  0.50000000  0.50000000  1
  Na  Na6  1  0.25689643  0.74310357  0.50000000  1
  Na  Na7  1  0.62530973  0.37469027  -0.00000000  1
  Na  Na8  1  0.37469027  0.62530973  -0.00000000  1
  Na  Na9  1  0.36250620  0.11829695  0.48176419  1
  Na  Na10  1  0.11829695  0.36250620  0.48176419  1
  Na  Na11  1  0.50000000  0.00000000  -0.00000000  1
  Fe  Fe0  1  0.74857357  0.74857357  0.03037160  1
  Fe  Fe1  1  0.87519282  0.12480718  -0.00000000  1
  Fe  Fe2  1  0.12480718  0.87519282  -0.00000000  1
  Fe  Fe3  1  0.25142643  0.25142643  0.96962840  1
  O  O0  1  0.98815397  0.77124536  0.82217887  1
  O  O1  1  0.77124536  0.98815397  0.82217887  1
  O  O2  1  0.89033521  0.89033521  0.19332504  1
  O  O3  1  0.66232530  0.66232530  0.81077621  1
  O  O4  1  0.31764500  0.87634516  0.78371370  1
  O  O5  1  0.87634516  0.31764500  0.78371370  1
  O  O6  1  0.54767240  0.75567783  0.22848722  1
  O  O7  1  0.75567783  0.54767240  0.22848722  1
  O  O8  1  0.45232760  0.24432217  0.77151278  1
  O  O9  1  0.24432217  0.45232760  0.77151278  1
  O  O10  1  0.68235500  0.12365484  0.21628630  1
  O  O11  1  0.12365484  0.68235500  0.21628630  1
  O  O12  1  0.33767470  0.33767470  0.18922379  1
  O  O13  1  0.10966479  0.10966479  0.80667496  1
  O  O14  1  0.22875464  0.01184603  0.17782113  1
  O  O15  1  0.01184603  0.22875464  0.17782113  1
loop_
_geom_bond_atom_site_label_1
_geom_bond_atom_site_label_2
_geom_bond_distance
_geom_bond_site_symmetry_2
Na0 O3 2.218364 1_555
Na0 O10 2.224188 1_565
Na0 O6 2.288641 1_555
Na0 O2 2.417819 1_555
Na0 O1 2.449817 1_555
Na0 O4 2.702151 1_555
Na1 O3 2.218364 1_555
Na1 O11 2.224188 1_655
Na1 O7 2.288641 1_555
Na1 O2 2.417819 1_555
Na1 O0 2.449817 1_555
Na1 O5 2.702151 1_555
Na2 O15 2.253250 1_555
Na2 O0 2.253250 1_454
Na2 O7 2.266353 1_455
Na2 O9 2.266353 1_554
Na2 O11 2.357681 1_555
Na2 O5 2.357681 1_454
Na3 O15 2.270394 1_555
Na3 O0 2.270394 1_445
Na3 O1 2.270394 1_445
Na3 O14 2.270394 1_555
Na3 O2 2.374767 1_445
Na3 O13 2.374767 1_555
Na4 O5 2.209177 1_555
Na4 O10 2.209177 1_555
Na4 O7 2.501854 1_555
Na4 O8 2.501854 1_555
Na4 O1 2.598295 1_545
Na4 O15 2.598295 1_655
Na5 O8 2.221097 1_555
Na5 O7 2.221097 1_555
Na5 O9 2.221097 1_555
Na5 O6 2.221097 1_555
Na5 O12 2.829511 1_555
Na5 O3 2.829511 1_555
Na6 O4 2.209177 1_555
Na6 O11 2.209177 1_555
Na6 O6 2.501854 1_555
Na6 O9 2.501854 1_555
Na6 O0 2.598295 1_455
Na6 O14 2.598295 1_565
Na7 O3 2.302886 1_554
Na7 O12 2.302886 1_555
Na7 O5 2.317748 1_554
Na7 O10 2.317748 1_555
Na7 O7 2.383630 1_555
Na7 O8 2.383630 1_554
Na8 O3 2.302886 1_554
Na8 O12 2.302886 1_555
Na8 O4 2.317748 1_554
Na8 O11 2.317748 1_555
Na8 O6 2.383630 1_555
Na8 O9 2.383630 1_554
Na9 O12 2.218364 1_555
Na9 O4 2.224188 1_545
Na9 O8 2.288641 1_555
Na9 O13 2.417819 1_555
Na9 O14 2.449817 1_555
Na9 O10 2.702151 1_555
Na10 O12 2.218364 1_555
Na10 O5 2.224188 1_455
Na10 O9 2.288641 1_555
Na10 O13 2.417819 1_555
Na10 O15 2.449817 1_555
Na10 O11 2.702151 1_555
Na11 O1 2.253250 1_544
Na11 O14 2.253250 1_555
Na11 O6 2.266353 1_545
Na11 O8 2.266353 1_554
Na11 O10 2.357681 1_555
Na11 O4 2.357681 1_544
Fe0 O3 1.761490 1_554
Fe0 O6 1.788620 1_555
Fe0 O7 1.788620 1_555
Fe0 O2 2.004893 1_555
Fe0 O1 2.007609 1_554
Fe0 O0 2.007609 1_554
Fe1 O10 1.764071 1_555
Fe1 O5 1.764071 1_554
Fe1 O1 1.875333 1_544
Fe1 O15 1.875333 1_655
Fe1 O2 2.024269 1_545
Fe1 O13 2.024269 1_654
Fe2 O11 1.764071 1_555
Fe2 O4 1.764071 1_554
Fe2 O0 1.875333 1_454
Fe2 O14 1.875333 1_565
Fe2 O2 2.024269 1_455
Fe2 O13 2.024269 1_564
Fe3 O12 1.761490 1_556
Fe3 O9 1.788620 1_555
Fe3 O8 1.788620 1_555
Fe3 O13 2.004893 1_555
Fe3 O14 2.007609 1_556
Fe3 O15 2.007609 1_556
