# generated using pymatgen
data_Li2NiCSO7
_symmetry_space_group_name_H-M   'P 1'
_cell_length_a   8.12492946
_cell_length_b   8.12550429
_cell_length_c   8.71029995
_cell_angle_alpha   86.85244925
_cell_angle_beta   86.85420347
_cell_angle_gamma   104.21696074
_symmetry_Int_Tables_number   1
_chemical_formula_structural   Li2NiCSO7
_chemical_formula_sum   'Li8 Ni4 C4 S4 O28'
_cell_volume   555.20356136
_cell_formula_units_Z   4
loop_
 _symmetry_equiv_pos_site_id
 _symmetry_equiv_pos_as_xyz
  1  'x, y, z'
loop_
 _atom_site_type_symbol
 _atom_site_label
 _atom_site_symmetry_multiplicity
 _atom_site_fract_x
 _atom_site_fract_y
 _atom_site_fract_z
 _atom_site_occupancy
  Li  Li0  1  0.36708400  0.84964600  0.19184300  1
  Li  Li1  1  0.86709400  0.34966900  0.19179700  1
  Li  Li2  1  0.59968000  0.61714200  0.19179500  1
  Li  Li3  1  0.09969900  0.11714600  0.19185900  1
  Li  Li4  1  0.63294500  0.15030000  0.80811700  1
  Li  Li5  1  0.13285900  0.65027300  0.80796800  1
  Li  Li6  1  0.40026900  0.38285200  0.80807900  1
  Li  Li7  1  0.90031600  0.88281700  0.80802800  1
  Ni  Ni0  1  0.26385000  0.51373400  0.35025600  1
  Ni  Ni1  1  0.73619500  0.48627100  0.64966200  1
  Ni  Ni2  1  0.76376500  0.01375400  0.35040800  1
  Ni  Ni3  1  0.23623800  0.98631000  0.64967700  1
  C  C0  1  0.74062500  0.99061000  0.06751400  1
  C  C1  1  0.24052600  0.49054700  0.06748100  1
  C  C2  1  0.25946400  0.00942800  0.93250000  1
  C  C3  1  0.75948000  0.50942700  0.93245200  1
  S  S0  1  0.49408900  0.24409400  0.41671500  1
  S  S1  1  0.99416000  0.74409100  0.41668700  1
  S  S2  1  0.50578900  0.75579600  0.58330700  1
  S  S3  1  0.00585100  0.25591500  0.58339100  1
  O  O0  1  0.27219500  0.02217200  0.07656000  1
  O  O1  1  0.77222500  0.52221300  0.07651800  1
  O  O2  1  0.72783100  0.97778100  0.92348200  1
  O  O3  1  0.22772500  0.47777100  0.92345700  1
  O  O4  1  0.85857500  0.10865700  0.12329700  1
  O  O5  1  0.35854700  0.60853800  0.12326100  1
  O  O6  1  0.14149400  0.89146400  0.87667000  1
  O  O7  1  0.64147600  0.39147300  0.87669400  1
  O  O8  1  0.63662500  0.88661500  0.17201500  1
  O  O9  1  0.13653900  0.38654100  0.17202500  1
  O  O10  1  0.36353000  0.11351000  0.82801800  1
  O  O11  1  0.86347200  0.61346800  0.82795200  1
  O  O12  1  0.45465400  0.70465000  0.42789500  1
  O  O13  1  0.95469600  0.20463600  0.42799600  1
  O  O14  1  0.54529500  0.29529800  0.57211700  1
  O  O15  1  0.04534700  0.79532500  0.57209700  1
  O  O16  1  0.34396600  0.09397300  0.43786000  1
  O  O17  1  0.84409800  0.59395400  0.43801100  1
  O  O18  1  0.65587600  0.90585300  0.56217100  1
  O  O19  1  0.15592700  0.40610600  0.56197600  1
  O  O20  1  0.45077100  0.38565400  0.32587800  1
  O  O21  1  0.95076200  0.88565800  0.32589500  1
  O  O22  1  0.63567900  0.20077300  0.32587100  1
  O  O23  1  0.13566800  0.70077100  0.32573200  1
  O  O24  1  0.36426300  0.79920000  0.67413600  1
  O  O25  1  0.86426700  0.29921700  0.67422400  1
  O  O26  1  0.54915300  0.61427200  0.67418100  1
  O  O27  1  0.04936700  0.11463300  0.67447500  1
loop_
_geom_bond_atom_site_label_1
_geom_bond_atom_site_label_2
_geom_bond_distance
_geom_bond_site_symmetry_2
Li0 O0 2.007280 1_565
Li0 O5 2.065466 1_555
Li0 O8 2.132095 1_555
Li0 O23 2.201340 1_555
Li0 O12 2.535365 1_555
Li1 O1 2.007280 1_555
Li1 O4 2.064502 1_555
Li1 O9 2.131407 1_655
Li1 O22 2.202117 1_555
Li1 O13 2.536652 1_555
Li2 O1 2.007552 1_555
Li2 O5 2.065266 1_555
Li2 O8 2.131715 1_555
Li2 O20 2.202649 1_555
Li2 O12 2.535626 1_555
Li3 O0 2.007553 1_555
Li3 O4 2.065452 1_455
Li3 O9 2.131196 1_555
Li3 O21 2.202534 1_445
Li3 O13 2.535729 1_455
Li4 O2 2.007567 1_545
Li4 O7 2.065965 1_555
Li4 O10 2.131263 1_555
Li4 O25 2.200934 1_555
Li4 O14 2.535296 1_555
Li5 O3 2.007889 1_555
Li5 O6 2.066323 1_555
Li5 O11 2.131037 1_455
Li5 O24 2.201179 1_555
Li5 O15 2.534118 1_555
Li6 O3 2.007923 1_555
Li6 O7 2.066058 1_555
Li6 O10 2.130882 1_555
Li6 O26 2.201475 1_555
Li6 O14 2.534828 1_555
Li7 O2 2.008090 1_555
Li7 O6 2.065875 1_655
Li7 O11 2.130836 1_555
Li7 O27 2.202760 1_665
Li7 O15 2.534410 1_655
Ni0 O20 2.049368 1_555
Ni0 O19 2.050200 1_555
Ni0 O23 2.050904 1_555
Ni0 O12 2.077537 1_555
Ni0 O9 2.091776 1_555
Ni0 O5 2.114082 1_555
Ni1 O17 2.049765 1_555
Ni1 O26 2.049879 1_555
Ni1 O25 2.050431 1_555
Ni1 O14 2.077925 1_555
Ni1 O11 2.092085 1_555
Ni1 O7 2.114400 1_555
Ni2 O21 2.050097 1_545
Ni2 O22 2.050246 1_555
Ni2 O18 2.051048 1_545
Ni2 O13 2.077794 1_555
Ni2 O8 2.092144 1_545
Ni2 O4 2.115372 1_555
Ni3 O24 2.050476 1_555
Ni3 O16 2.050565 1_565
Ni3 O27 2.050728 1_565
Ni3 O15 2.078064 1_555
Ni3 O10 2.092499 1_565
Ni3 O6 2.114228 1_555
C0 O2 1.272380 1_554
C0 O4 1.313512 1_565
C0 O8 1.317946 1_555
C1 O3 1.272267 1_554
C1 O5 1.313569 1_555
C1 O9 1.318171 1_555
C2 O0 1.272483 1_556
C2 O6 1.313404 1_545
C2 O10 1.318397 1_555
C3 O1 1.272588 1_556
C3 O7 1.313233 1_555
C3 O11 1.318078 1_555
O12 S2 1.488787 1_555
O13 S3 1.488972 1_655
O14 S0 1.488978 1_555
O15 S1 1.489067 1_455
O16 S0 1.493143 1_555
O17 S1 1.492974 1_555
O18 S2 1.492645 1_555
O19 S3 1.493338 1_555
O20 S0 1.484061 1_555
O21 S1 1.484206 1_555
O22 S0 1.484269 1_555
O23 S1 1.484217 1_455
O24 S2 1.484094 1_555
O25 S3 1.484111 1_655
O26 S2 1.484159 1_555
O27 S3 1.484067 1_555
