# generated using pymatgen
data_LiMn(PO3)3
_symmetry_space_group_name_H-M   'P 1'
_cell_length_a   11.42314300
_cell_length_b   6.57125200
_cell_length_c   10.36188950
_cell_angle_alpha   88.84439468
_cell_angle_beta   90.00000000
_cell_angle_gamma   90.00000000
_symmetry_Int_Tables_number   1
_chemical_formula_structural   LiMn(PO3)3
_chemical_formula_sum   'Li4 Mn4 P12 O36'
_cell_volume   777.65031528
_cell_formula_units_Z   4
loop_
 _symmetry_equiv_pos_site_id
 _symmetry_equiv_pos_as_xyz
  1  'x, y, z'
loop_
 _atom_site_type_symbol
 _atom_site_label
 _atom_site_symmetry_multiplicity
 _atom_site_fract_x
 _atom_site_fract_y
 _atom_site_fract_z
 _atom_site_occupancy
  Li  Li0  1  0.40646100  0.74476800  0.31087800  1
  Li  Li1  1  0.90646100  0.25523200  0.18912200  1
  Li  Li2  1  0.09353900  0.74476800  0.81087800  1
  Li  Li3  1  0.59353900  0.25523200  0.68912200  1
  Mn  Mn0  1  0.50000000  0.00000000  0.50000000  1
  Mn  Mn1  1  0.00000000  0.50000000  0.50000000  1
  Mn  Mn2  1  0.50000000  0.50000000  0.00000000  1
  Mn  Mn3  1  0.00000000  0.00000000  0.00000000  1
  P  P0  1  0.74674500  0.26937700  0.43011500  1
  P  P1  1  0.63816700  0.64374900  0.30074800  1
  P  P2  1  0.85212800  0.88048500  0.30091700  1
  P  P3  1  0.13816700  0.35625100  0.19925200  1
  P  P4  1  0.35212800  0.11951500  0.19908300  1
  P  P5  1  0.24674500  0.73062300  0.06988500  1
  P  P6  1  0.75325500  0.26937700  0.93011500  1
  P  P7  1  0.86183300  0.64374900  0.80074800  1
  P  P8  1  0.64787200  0.88048500  0.80091700  1
  P  P9  1  0.14787200  0.11951500  0.69908300  1
  P  P10  1  0.36183300  0.35625100  0.69925200  1
  P  P11  1  0.25325500  0.73062300  0.56988500  1
  O  O0  1  0.15423100  0.65821200  0.49033400  1
  O  O1  1  0.35865700  0.79683800  0.49283000  1
  O  O2  1  0.60319100  0.73510900  0.42637400  1
  O  O3  1  0.88983200  0.76528300  0.41835100  1
  O  O4  1  0.43924800  0.06006700  0.30181600  1
  O  O5  1  0.03866600  0.38551500  0.29298500  1
  O  O6  1  0.79127800  0.10156600  0.33121800  1
  O  O7  1  0.70702600  0.42981000  0.31929700  1
  O  O8  1  0.24137800  0.22681800  0.26958500  1
  O  O9  1  0.74137800  0.77318200  0.23041500  1
  O  O10  1  0.29127800  0.89843400  0.16878200  1
  O  O11  1  0.20702600  0.57019000  0.18070300  1
  O  O12  1  0.53866600  0.61448500  0.20701500  1
  O  O13  1  0.93924800  0.93993300  0.19818400  1
  O  O14  1  0.10319100  0.26489100  0.07362600  1
  O  O15  1  0.38983200  0.23471700  0.08164900  1
  O  O16  1  0.65423100  0.34178800  0.00966600  1
  O  O17  1  0.85865700  0.20316200  0.00717000  1
  O  O18  1  0.14134300  0.79683800  0.99283000  1
  O  O19  1  0.34576900  0.65821200  0.99033400  1
  O  O20  1  0.89680900  0.73510900  0.92637400  1
  O  O21  1  0.61016800  0.76528300  0.91835100  1
  O  O22  1  0.06075200  0.06006700  0.80181600  1
  O  O23  1  0.46133400  0.38551500  0.79298500  1
  O  O24  1  0.70872200  0.10156600  0.83121800  1
  O  O25  1  0.79297400  0.42981000  0.81929700  1
  O  O26  1  0.25862200  0.22681800  0.76958500  1
  O  O27  1  0.75862200  0.77318200  0.73041500  1
  O  O28  1  0.20872200  0.89843400  0.66878200  1
  O  O29  1  0.29297400  0.57019000  0.68070300  1
  O  O30  1  0.96133400  0.61448500  0.70701500  1
  O  O31  1  0.56075200  0.93993300  0.69818400  1
  O  O32  1  0.11016800  0.23471700  0.58164900  1
  O  O33  1  0.39680900  0.26489100  0.57362600  1
  O  O34  1  0.84576900  0.34178800  0.50966600  1
  O  O35  1  0.64134300  0.20316200  0.50717000  1
loop_
_geom_bond_atom_site_label_1
_geom_bond_atom_site_label_2
_geom_bond_distance
_geom_bond_site_symmetry_2
Li0 O1 1.998975 1_555
Li0 O12 2.051596 1_555
Li0 O4 2.105719 1_565
Li0 O10 2.204268 1_555
Li0 O2 2.546259 1_555
Li1 O17 1.998975 1_555
Li1 O5 2.051596 1_655
Li1 O13 2.105719 1_545
Li1 O6 2.204268 1_555
Li1 O14 2.546259 1_655
Li2 O18 1.998975 1_555
Li2 O30 2.051596 1_455
Li2 O22 2.105719 1_565
Li2 O28 2.204268 1_555
Li2 O20 2.546259 1_455
Li3 O35 1.998975 1_555
Li3 O23 2.051596 1_555
Li3 O31 2.105719 1_545
Li3 O24 2.204268 1_555
Li3 O33 2.546259 1_555
Mn0 O35 2.097307 1_555
Mn0 O1 2.097307 1_545
Mn0 O31 2.195865 1_545
Mn0 O4 2.195865 1_555
Mn0 O2 2.248331 1_545
Mn0 O33 2.248331 1_555
Mn1 O0 2.047109 1_555
Mn1 O34 2.047109 1_455
Mn1 O3 2.297589 1_455
Mn1 O32 2.297589 1_555
Mn1 O5 2.329691 1_555
Mn1 O30 2.329691 1_455
Mn2 O16 2.047109 1_555
Mn2 O19 2.047109 1_554
Mn2 O21 2.297589 1_554
Mn2 O15 2.297589 1_555
Mn2 O12 2.329691 1_555
Mn2 O23 2.329691 1_554
Mn3 O17 2.097307 1_455
Mn3 O18 2.097307 1_544
Mn3 O22 2.195865 1_554
Mn3 O13 2.195865 1_445
Mn3 O14 2.248331 1_555
Mn3 O20 2.248331 1_444
O0 P11 1.483657 1_555
O1 P11 1.504155 1_555
O2 P1 1.498684 1_555
O3 P2 1.483955 1_555
O4 P4 1.503130 1_555
O5 P3 1.509879 1_555
O6 P0 1.603280 1_555
O6 P2 1.646423 1_545
O7 P0 1.608421 1_555
O7 P1 1.619002 1_555
O8 P3 1.618506 1_555
O8 P4 1.628544 1_555
O9 P1 1.618506 1_555
O9 P2 1.628544 1_555
O10 P5 1.603280 1_555
O10 P4 1.646423 1_565
O11 P5 1.608421 1_555
O11 P3 1.619002 1_555
O12 P1 1.509879 1_555
O13 P2 1.503130 1_555
O14 P3 1.498684 1_555
O15 P4 1.483955 1_555
O16 P6 1.483657 1_554
O17 P6 1.504155 1_554
O18 P5 1.504155 1_556
O19 P5 1.483657 1_556
O20 P7 1.498684 1_555
O21 P8 1.483955 1_555
O22 P9 1.503130 1_555
O23 P10 1.509879 1_555
O24 P6 1.603280 1_555
O24 P8 1.646423 1_545
O25 P6 1.608421 1_555
O25 P7 1.619002 1_555
O26 P10 1.618506 1_555
O26 P9 1.628544 1_555
O27 P7 1.618506 1_555
O27 P8 1.628544 1_555
O28 P11 1.603280 1_555
O28 P9 1.646423 1_565
O29 P11 1.608421 1_555
O29 P10 1.619002 1_555
O30 P7 1.509879 1_555
O31 P8 1.503130 1_555
O32 P9 1.483955 1_555
O33 P10 1.498684 1_555
O34 P0 1.483657 1_555
O35 P0 1.504155 1_555
