# generated using pymatgen
data_Li3Mn2P2(CO7)2
_symmetry_space_group_name_H-M   'P 1'
_cell_length_a   8.19872200
_cell_length_b   8.25768987
_cell_length_c   8.34556938
_cell_angle_alpha   92.57031611
_cell_angle_beta   92.47763457
_cell_angle_gamma   103.95225857
_symmetry_Int_Tables_number   1
_chemical_formula_structural   Li3Mn2P2(CO7)2
_chemical_formula_sum   'Li6 Mn4 P4 C4 O28'
_cell_volume   546.94290497
_cell_formula_units_Z   2
loop_
 _symmetry_equiv_pos_site_id
 _symmetry_equiv_pos_as_xyz
  1  'x, y, z'
loop_
 _atom_site_type_symbol
 _atom_site_label
 _atom_site_symmetry_multiplicity
 _atom_site_fract_x
 _atom_site_fract_y
 _atom_site_fract_z
 _atom_site_occupancy
  Li  Li0  1  0.90226900  0.85845000  0.26590200  1
  Li  Li1  1  0.38704100  0.37515200  0.24850900  1
  Li  Li2  1  0.61776000  0.12414700  0.25062200  1
  Li  Li3  1  0.38015900  0.87256400  0.75291300  1
  Li  Li4  1  0.88898700  0.34109300  0.73395900  1
  Li  Li5  1  0.61218700  0.62845100  0.74504100  1
  Mn  Mn0  1  0.98081300  0.23074200  0.33942700  1
  Mn  Mn1  1  0.47141500  0.72850700  0.32911800  1
  Mn  Mn2  1  0.51454400  0.26961100  0.66983100  1
  Mn  Mn3  1  0.02302000  0.77508200  0.66235900  1
  P  P0  1  0.76060700  0.50994600  0.42312700  1
  P  P1  1  0.26353200  0.01505500  0.42103600  1
  P  P2  1  0.73890500  0.98294100  0.57864600  1
  P  P3  1  0.23820800  0.49540700  0.57851600  1
  C  C0  1  0.51846600  0.76426600  0.04624900  1
  C  C1  1  0.01743000  0.27018900  0.05490500  1
  C  C2  1  0.97643700  0.73470300  0.94518100  1
  C  C3  1  0.48740500  0.22776900  0.95324000  1
  O  O0  1  0.40387000  0.64371100  0.09839700  1
  O  O1  1  0.89544700  0.15592000  0.11288800  1
  O  O2  1  0.94140100  0.71895100  0.08665900  1
  O  O3  1  0.60983200  0.86174800  0.16542700  1
  O  O4  1  0.46910900  0.21258900  0.10081800  1
  O  O5  1  0.12409300  0.34917100  0.17386800  1
  O  O6  1  0.61966500  0.55177500  0.31944900  1
  O  O7  1  0.32205800  0.89169900  0.31131100  1
  O  O8  1  0.81127300  0.36598300  0.32661400  1
  O  O9  1  0.11293600  0.05865000  0.32773600  1
  O  O10  1  0.90898100  0.66983700  0.45601700  1
  O  O11  1  0.30335600  0.54690600  0.41246600  1
  O  O12  1  0.79737100  0.04094800  0.40930800  1
  O  O13  1  0.41044400  0.17595800  0.45610700  1
  O  O14  1  0.57926700  0.83420400  0.54655500  1
  O  O15  1  0.70141200  0.45181000  0.59063000  1
  O  O16  1  0.21075000  0.94515300  0.58566300  1
  O  O17  1  0.07830200  0.34702600  0.54535200  1
  O  O18  1  0.87671700  0.92579700  0.67629900  1
  O  O19  1  0.18926900  0.64037900  0.67578200  1
  O  O20  1  0.37540100  0.45079700  0.68468800  1
  O  O21  1  0.70045300  0.12802600  0.67700800  1
  O  O22  1  0.88652600  0.63886000  0.82264500  1
  O  O23  1  0.54214600  0.78937800  0.90092400  1
  O  O24  1  0.40082900  0.12251500  0.84028500  1
  O  O25  1  0.03039600  0.30267100  0.91319300  1
  O  O26  1  0.59500400  0.35265400  0.89422200  1
  O  O27  1  0.10068700  0.84662700  0.89110700  1
loop_
_geom_bond_atom_site_label_1
_geom_bond_atom_site_label_2
_geom_bond_distance
_geom_bond_site_symmetry_2
Li0 O2 1.932028 1_555
Li0 O9 2.109984 1_665
Li0 O12 2.235018 1_565
Li0 O10 2.280710 1_555
Li0 O3 2.512391 1_555
Li1 O4 2.032938 1_555
Li1 O6 2.144467 1_555
Li1 O5 2.174986 1_555
Li1 O11 2.175074 1_555
Li1 O13 2.474499 1_555
Li1 O0 2.573545 1_555
Li2 O4 1.990252 1_555
Li2 O12 2.189797 1_555
Li2 O3 2.234887 1_545
Li2 O8 2.275731 1_555
Li2 O1 2.557077 1_555
Li2 O13 2.559267 1_555
Li3 O23 2.033639 1_555
Li3 O24 2.122789 1_565
Li3 O16 2.132042 1_555
Li3 O19 2.212469 1_555
Li3 O14 2.484865 1_555
Li3 O27 2.576836 1_555
Li4 O25 1.937078 1_655
Li4 O21 2.064179 1_555
Li4 O17 2.251799 1_655
Li4 O15 2.291029 1_555
Li4 O22 2.540910 1_555
Li5 O23 2.016344 1_555
Li5 O20 2.156489 1_555
Li5 O15 2.179649 1_555
Li5 O22 2.293840 1_555
Li5 O14 2.477586 1_555
Li5 O26 2.621334 1_555
Mn0 O17 1.969133 1_655
Mn0 O8 1.984237 1_555
Mn0 O9 1.985304 1_655
Mn0 O5 1.988196 1_655
Mn0 O1 2.004557 1_555
Mn0 O12 2.019788 1_555
Mn1 O11 1.952228 1_555
Mn1 O3 2.007832 1_555
Mn1 O0 2.025935 1_555
Mn1 O7 2.033607 1_555
Mn1 O14 2.045395 1_555
Mn1 O6 2.113530 1_555
Mn2 O13 1.983505 1_555
Mn2 O26 1.993032 1_555
Mn2 O24 2.022819 1_555
Mn2 O15 2.028049 1_555
Mn2 O20 2.091412 1_555
Mn2 O21 2.133428 1_555
Mn3 O18 1.928787 1_455
Mn3 O19 1.958772 1_555
Mn3 O16 1.968354 1_555
Mn3 O10 1.982329 1_455
Mn3 O22 1.991084 1_455
Mn3 O27 2.002810 1_555
C0 O23 1.255040 1_554
C0 O0 1.298594 1_555
C0 O3 1.330922 1_555
C1 O25 1.227811 1_554
C1 O1 1.323808 1_455
C1 O5 1.329520 1_555
C2 O2 1.232315 1_556
C2 O27 1.311002 1_655
C2 O22 1.340317 1_555
C3 O4 1.255333 1_556
C3 O24 1.311128 1_555
C3 O26 1.314817 1_555
O6 P0 1.528427 1_555
O7 P1 1.515399 1_565
O8 P0 1.554267 1_555
O9 P1 1.554578 1_555
O10 P0 1.569244 1_555
O11 P3 1.547208 1_555
O12 P2 1.570024 1_545
O13 P1 1.569956 1_555
O14 P2 1.567892 1_555
O15 P0 1.557770 1_555
O16 P1 1.552468 1_565
O17 P3 1.568529 1_555
O18 P2 1.541254 1_555
O19 P3 1.557458 1_555
O20 P3 1.526081 1_555
O21 P2 1.524765 1_545
