# generated using pymatgen
data_Li11Cr3Fe3O16
_symmetry_space_group_name_H-M   'P 1'
_cell_length_a   5.98543611
_cell_length_b   5.98016112
_cell_length_c   10.04714513
_cell_angle_alpha   96.70612834
_cell_angle_beta   96.66650708
_cell_angle_gamma   59.15946355
_symmetry_Int_Tables_number   1
_chemical_formula_structural   Li11Cr3Fe3O16
_chemical_formula_sum   'Li11 Cr3 Fe3 O16'
_cell_volume   305.99424682
_cell_formula_units_Z   1
loop_
 _symmetry_equiv_pos_site_id
 _symmetry_equiv_pos_as_xyz
  1  'x, y, z'
loop_
 _atom_site_type_symbol
 _atom_site_label
 _atom_site_symmetry_multiplicity
 _atom_site_fract_x
 _atom_site_fract_y
 _atom_site_fract_z
 _atom_site_occupancy
  Li  Li0  1  0.04562600  0.04547900  0.00343400  1
  Li  Li1  1  0.63624200  0.14298800  0.55742100  1
  Li  Li2  1  0.30702000  0.29785700  0.05555300  1
  Li  Li3  1  0.35282300  0.35062200  0.79642500  1
  Li  Li4  1  0.22116500  0.22947100  0.55618500  1
  Li  Li5  1  0.14710300  0.63828900  0.56020500  1
  Li  Li6  1  0.63925600  0.64214700  0.53712300  1
  Li  Li7  1  0.67255100  0.67310000  0.28910900  1
  Li  Li8  1  0.55107700  0.53809000  0.00949300  1
  Li  Li9  1  0.79867900  0.80308100  0.07022300  1
  Li  Li10  1  0.02862600  0.02845000  0.48787000  1
  Cr  Cr0  1  0.85029500  0.35143100  0.78061900  1
  Cr  Cr1  1  0.35032700  0.85035100  0.78173200  1
  Cr  Cr2  1  0.17026900  0.17039700  0.28370000  1
  Fe  Fe0  1  0.66904600  0.17294100  0.28653000  1
  Fe  Fe1  1  0.17316300  0.66819000  0.28630000  1
  Fe  Fe2  1  0.84747500  0.85042300  0.78841900  1
  O  O0  1  0.19155700  0.17707600  0.88527600  1
  O  O1  1  0.48865000  0.00991500  0.17948600  1
  O  O2  1  0.71527300  0.19750000  0.89258700  1
  O  O3  1  0.98952500  0.98766700  0.17496900  1
  O  O4  1  0.34089900  0.34312300  0.40958500  1
  O  O5  1  0.01070900  0.48642200  0.17771200  1
  O  O6  1  0.47872900  0.47532200  0.18176000  1
  O  O7  1  0.85582500  0.33236500  0.39588100  1
  O  O8  1  0.20520100  0.71657500  0.89016300  1
  O  O9  1  0.50420800  0.52123600  0.67253600  1
  O  O10  1  0.33186800  0.85721500  0.39603200  1
  O  O11  1  0.98797900  0.51153600  0.67169100  1
  O  O12  1  0.69069100  0.69373100  0.89309600  1
  O  O13  1  0.50375300  0.98848600  0.67290900  1
  O  O14  1  0.85927100  0.86401300  0.39831400  1
  O  O15  1  0.00276700  0.00234500  0.66867700  1
loop_
_geom_bond_atom_site_label_1
_geom_bond_atom_site_label_2
_geom_bond_distance
_geom_bond_site_symmetry_2
Li0 O3 1.896066 1_445
Li0 O2 1.964345 1_454
Li0 O8 1.969652 1_544
Li0 O0 1.988798 1_554
Li1 O13 2.011006 1_545
Li1 O4 2.097593 1_555
Li1 O15 2.127928 1_655
Li1 O14 2.170232 1_545
Li1 O9 2.201626 1_555
Li2 O0 1.968460 1_554
Li2 O1 1.991110 1_555
Li2 O5 2.013722 1_555
Li2 O6 2.071687 1_555
Li3 O2 2.039982 1_555
Li3 O8 2.046040 1_555
Li3 O0 2.061375 1_555
Li3 O13 2.161671 1_545
Li3 O11 2.181056 1_455
Li3 O9 2.217602 1_555
Li4 O11 1.909216 1_455
Li4 O13 1.935978 1_545
Li4 O4 2.030591 1_555
Li4 O7 2.405940 1_455
Li4 O10 2.425386 1_545
Li5 O11 1.980543 1_455
Li5 O15 2.099984 1_565
Li5 O9 2.103027 1_555
Li5 O4 2.106111 1_555
Li5 O14 2.216666 1_455
Li6 O9 2.027698 1_555
Li6 O10 2.107790 1_555
Li6 O7 2.115884 1_555
Li6 O13 2.164113 1_555
Li6 O11 2.171305 1_555
Li7 O1 2.108357 1_565
Li7 O7 2.109897 1_555
Li7 O10 2.110642 1_555
Li7 O14 2.118325 1_555
Li7 O5 2.124389 1_655
Li7 O6 2.174027 1_555
Li8 O6 1.953577 1_555
Li8 O2 2.037371 1_554
Li8 O12 2.052033 1_554
Li8 O8 2.078343 1_554
Li9 O12 1.976600 1_554
Li9 O1 1.995250 1_565
Li9 O5 2.014514 1_655
Li9 O3 2.091238 1_555
Li10 O14 1.846000 1_445
Li10 O10 1.859267 1_545
Li10 O7 1.862831 1_455
Li10 O15 1.872066 1_555
Cr0 O0 1.984637 1_655
Cr0 O2 1.995433 1_555
Cr0 O11 2.014134 1_555
Cr0 O9 2.019892 1_555
Cr0 O12 2.021214 1_555
Cr0 O15 2.047542 1_655
Cr1 O0 1.911545 1_565
Cr1 O8 1.927991 1_555
Cr1 O9 1.948667 1_555
Cr1 O13 1.985699 1_555
Cr1 O12 2.009627 1_555
Cr1 O15 2.048860 1_565
Cr2 O5 2.000258 1_555
Cr2 O1 2.000576 1_555
Cr2 O10 2.024812 1_545
Cr2 O7 2.029586 1_455
Cr2 O4 2.046032 1_555
Cr2 O3 2.053478 1_445
Fe0 O6 1.931253 1_555
Fe0 O1 1.959030 1_555
Fe0 O7 1.982123 1_555
Fe0 O14 2.000448 1_545
Fe0 O3 2.047811 1_545
Fe0 O4 2.154641 1_555
Fe1 O6 1.943903 1_555
Fe1 O5 1.969200 1_555
Fe1 O10 1.990570 1_555
Fe1 O14 2.023624 1_455
Fe1 O3 2.042052 1_455
Fe1 O4 2.143311 1_555
Fe2 O2 2.007613 1_565
Fe2 O11 2.028846 1_555
Fe2 O13 2.046700 1_555
Fe2 O8 2.048384 1_655
Fe2 O12 2.055644 1_555
Fe2 O15 2.125431 1_665
