# generated using pymatgen
data_Li15Mn8P8(O4F)8
_symmetry_space_group_name_H-M   'P 1'
_cell_length_a   5.15563800
_cell_length_b   12.99517549
_cell_length_c   13.30190202
_cell_angle_alpha   118.86929051
_cell_angle_beta   90.27891412
_cell_angle_gamma   90.45150872
_symmetry_Int_Tables_number   1
_chemical_formula_structural   Li15Mn8P8(O4F)8
_chemical_formula_sum   'Li15 Mn8 P8 O32 F8'
_cell_volume   780.38784331
_cell_formula_units_Z   1
loop_
 _symmetry_equiv_pos_site_id
 _symmetry_equiv_pos_as_xyz
  1  'x, y, z'
loop_
 _atom_site_type_symbol
 _atom_site_label
 _atom_site_symmetry_multiplicity
 _atom_site_fract_x
 _atom_site_fract_y
 _atom_site_fract_z
 _atom_site_occupancy
  Li  Li0  1  0.27936200  0.17814600  0.35957300  1
  Li  Li1  1  0.78079800  0.08959800  0.41326900  1
  Li  Li2  1  0.27815000  0.41508400  0.59403700  1
  Li  Li3  1  0.78831900  0.31809100  0.63109500  1
  Li  Li4  1  0.29880200  0.67526200  0.83978500  1
  Li  Li5  1  0.20339800  0.17833000  0.85444400  1
  Li  Li6  1  0.78130200  0.82708700  0.15469500  1
  Li  Li7  1  0.22943400  0.67287600  0.09235000  1
  Li  Li8  1  0.76817500  0.32949700  0.91615800  1
  Li  Li9  1  0.27209300  0.16985900  0.07828800  1
  Li  Li10  1  0.70500100  0.32395800  0.14839600  1
  Li  Li11  1  0.22394000  0.68309700  0.37089800  1
  Li  Li12  1  0.73049800  0.59007000  0.41437600  1
  Li  Li13  1  0.23899400  0.91141400  0.58707700  1
  Li  Li14  1  0.72707300  0.83614900  0.66921300  1
  Mn  Mn0  1  0.24510200  0.17026700  0.57767800  1
  Mn  Mn1  1  0.22824700  0.40580200  0.07437600  1
  Mn  Mn2  1  0.76834900  0.83159300  0.42507700  1
  Mn  Mn3  1  0.27226100  0.66974200  0.58110400  1
  Mn  Mn4  1  0.73778200  0.33093100  0.42059200  1
  Mn  Mn5  1  0.77470100  0.60706700  0.93039600  1
  Mn  Mn6  1  0.26959600  0.88998900  0.06319900  1
  Mn  Mn7  1  0.72749300  0.09240400  0.92351500  1
  P  P0  1  0.77067900  0.07701300  0.16434600  1
  P  P1  1  0.77620300  0.58212400  0.67030800  1
  P  P2  1  0.73325600  0.08246700  0.66518200  1
  P  P3  1  0.28654200  0.42362200  0.83773700  1
  P  P4  1  0.71983400  0.58142100  0.16597600  1
  P  P5  1  0.27936900  0.91941000  0.33111700  1
  P  P6  1  0.22830300  0.41607600  0.33178800  1
  P  P7  1  0.21048800  0.91987300  0.83062800  1
  O  O0  1  0.06369300  0.05498900  0.13299300  1
  O  O1  1  0.33743800  0.34253400  0.38521800  1
  O  O2  1  0.74305800  0.14934100  0.29659000  1
  O  O3  1  0.08163900  0.58382100  0.66586800  1
  O  O4  1  0.67352800  0.45308900  0.60125400  1
  O  O5  1  0.17771100  0.04707500  0.39179400  1
  O  O6  1  0.29612300  0.85375300  0.89626000  1
  O  O7  1  0.67536300  0.63362700  0.79390400  1
  O  O8  1  0.24482300  0.35301000  0.70605800  1
  O  O9  1  0.84659100  0.14947900  0.60501100  1
  O  O10  1  0.43008600  0.07528400  0.64990100  1
  O  O11  1  0.15901800  0.54564800  0.88374600  1
  O  O12  1  0.58480800  0.44031900  0.86674300  1
  O  O13  1  0.62194600  0.95840300  0.12549500  1
  O  O14  1  0.80979200  0.14834800  0.79395800  1
  O  O15  1  0.16171600  0.35488400  0.89443400  1
  O  O16  1  0.84689200  0.64734700  0.10681100  1
  O  O17  1  0.18772300  0.85847900  0.20322600  1
  O  O18  1  0.41944600  0.57348200  0.14577400  1
  O  O19  1  0.33129100  0.04578500  0.88853200  1
  O  O20  1  0.83261000  0.45599400  0.11472300  1
  O  O21  1  0.58320000  0.91872500  0.34020700  1
  O  O22  1  0.16267700  0.85086300  0.38919300  1
  O  O23  1  0.78138600  0.64889700  0.29634800  1
  O  O24  1  0.65005900  0.14465400  0.10617200  1
  O  O25  1  0.31175300  0.35767600  0.20420100  1
  O  O26  1  0.84351200  0.95537800  0.60756700  1
  O  O27  1  0.34152200  0.54334700  0.39698100  1
  O  O28  1  0.92475700  0.42069100  0.34222300  1
  O  O29  1  0.31380600  0.85204500  0.70575900  1
  O  O30  1  0.66976400  0.65416800  0.61440600  1
  O  O31  1  0.91120800  0.92958900  0.82658800  1
  F  F0  1  0.03091500  0.27919400  0.50405900  1
  F  F1  1  0.53132500  0.22427400  0.49765800  1
  F  F2  1  0.97614400  0.77451900  0.00208000  1
  F  F3  1  0.47010500  0.72644100  0.01638300  1
  F  F4  1  0.52213300  0.27019100  0.99112800  1
  F  F5  1  0.02005900  0.22841500  0.00878900  1
  F  F6  1  0.47701800  0.77361200  0.49663600  1
  F  F7  1  0.98512800  0.72231800  0.49966200  1
loop_
_geom_bond_atom_site_label_1
_geom_bond_atom_site_label_2
_geom_bond_distance
_geom_bond_site_symmetry_2
Li0 O5 2.013109 1_555
Li0 O1 2.013660 1_555
Li0 O2 2.507587 1_555
Li1 O2 2.052430 1_555
Li1 O5 2.108448 1_655
Li1 O21 2.187219 1_545
Li1 O9 2.301462 1_555
Li2 O8 2.015340 1_555
Li2 O4 2.084409 1_555
Li2 O3 2.183788 1_555
Li2 O1 2.486340 1_555
Li3 O4 2.066874 1_555
Li3 O9 2.070994 1_555
Li3 O8 2.502579 1_655
Li4 O7 2.035565 1_555
Li4 O6 2.064638 1_555
Li4 O11 2.152777 1_555
Li4 O3 2.305819 1_555
Li5 O19 2.091973 1_555
Li5 O15 2.103226 1_555
Li5 O14 2.141520 1_455
Li6 O13 2.096889 1_555
Li6 O16 2.133946 1_555
Li6 O17 2.166276 1_655
Li6 O21 2.399317 1_555
Li7 O18 2.008118 1_555
Li7 O16 2.022827 1_455
Li7 O17 2.148299 1_555
Li7 O11 2.472996 1_554
Li8 O12 2.080704 1_555
Li8 O15 2.096716 1_655
Li8 O14 2.132194 1_555
Li8 O20 2.362041 1_556
Li9 O24 2.040209 1_555
Li9 O25 2.201258 1_555
Li9 O0 2.223397 1_555
Li9 O19 2.269225 1_554
Li10 O20 2.074789 1_555
Li10 O24 2.132914 1_555
Li10 O25 2.137318 1_555
Li10 O28 2.516107 1_555
Li11 O27 2.099937 1_555
Li11 O22 2.100313 1_555
Li11 O23 2.433770 1_455
Li12 O23 2.068318 1_555
Li12 O27 2.069912 1_555
Li12 O28 2.184780 1_555
Li12 O30 2.396600 1_555
Li13 O29 2.100275 1_555
Li13 O26 2.105105 1_455
Li13 O10 2.108158 1_565
Li13 O22 2.384877 1_555
Li14 O31 2.065400 1_555
Li14 O30 2.129202 1_555
Li14 O26 2.156485 1_555
Li14 O29 2.176864 1_555
Mn0 O10 2.123853 1_555
Mn0 O9 2.125989 1_455
Mn0 O8 2.154037 1_555
Mn0 O5 2.226642 1_555
Mn1 O20 2.137218 1_455
Mn1 O18 2.140222 1_555
Mn1 O25 2.144445 1_555
Mn1 O15 2.178013 1_554
Mn2 O22 2.130853 1_655
Mn2 O23 2.156685 1_555
Mn2 O21 2.169944 1_555
Mn2 O26 2.200175 1_555
Mn3 O30 2.126365 1_555
Mn3 O29 2.145483 1_555
Mn3 O3 2.166339 1_555
Mn3 O27 2.226455 1_555
Mn4 O2 2.129072 1_555
Mn4 O28 2.131384 1_555
Mn4 O1 2.137363 1_555
Mn4 O4 2.176503 1_555
Mn5 O7 2.068017 1_555
Mn5 O11 2.122897 1_655
Mn5 O12 2.134888 1_555
Mn5 O16 2.172927 1_556
Mn6 O13 2.006384 1_555
Mn6 O6 2.041025 1_554
Mn6 O17 2.134628 1_555
Mn6 O0 2.170177 1_565
Mn7 O31 2.108414 1_545
Mn7 O19 2.110710 1_555
Mn7 O14 2.211468 1_555
Mn7 O24 2.223614 1_556
O0 P0 1.560664 1_455
O1 P6 1.547747 1_555
O2 P0 1.551168 1_555
O3 P1 1.576491 1_455
O4 P1 1.558744 1_555
O5 P5 1.550267 1_545
O6 P7 1.556273 1_555
O7 P1 1.540277 1_555
O8 P3 1.548389 1_555
O9 P2 1.552409 1_555
O10 P2 1.571431 1_555
O11 P3 1.550689 1_555
O12 P3 1.571227 1_555
O13 P0 1.561792 1_565
O14 P2 1.547545 1_555
O15 P3 1.557901 1_555
O16 P4 1.558750 1_555
O17 P5 1.558792 1_555
O18 P4 1.564596 1_555
O19 P7 1.555881 1_545
O20 P4 1.550917 1_555
O21 P5 1.570941 1_555
O22 P5 1.553319 1_555
O23 P4 1.548839 1_555
O24 P0 1.555291 1_555
O25 P6 1.552388 1_555
O26 P2 1.560415 1_565
O27 P6 1.556619 1_555
O28 P6 1.570847 1_655
O29 P7 1.556230 1_555
O30 P1 1.551442 1_555
O31 P7 1.551912 1_655
F0 Li3 1.970046 1_455
F0 Li2 2.021003 1_555
F0 Li0 2.161562 1_555
F0 Mn4 2.165458 1_455
F0 Mn0 2.352604 1_555
F0 Li1 2.500666 1_455
F1 Li1 2.032199 1_555
F1 Li3 2.062635 1_555
F1 Li0 2.078921 1_555
F1 Mn0 2.126843 1_555
F1 Mn4 2.337587 1_555
F1 Li2 2.548226 1_555
F2 Mn6 1.993946 1_655
F2 Li6 2.070864 1_555
F2 Mn5 2.161997 1_554
F2 Li7 2.536784 1_655
F3 Li7 1.929531 1_555
F3 Mn5 2.126825 1_554
F3 Mn6 2.176316 1_555
F3 Li4 2.280892 1_554
F3 Li6 2.298760 1_555
F4 Li8 1.984091 1_555
F4 Li10 2.076623 1_556
F4 Mn1 2.191268 1_556
F4 Li5 2.296799 1_555
F4 Mn7 2.304133 1_555
F4 Li9 2.480674 1_556
F5 Li9 1.950715 1_555
F5 Li5 2.066513 1_554
F5 Mn7 2.165916 1_454
F5 Mn1 2.288437 1_555
F5 Li10 2.337371 1_455
F6 Li11 1.984516 1_555
F6 Li13 2.031937 1_555
F6 Mn2 2.102003 1_555
F6 Mn3 2.377481 1_555
F6 Li14 2.396971 1_555
F6 Li12 2.477305 1_555
F7 Li11 1.974043 1_655
F7 Li12 2.007791 1_555
F7 Mn3 2.132352 1_655
F7 Mn2 2.371624 1_555
F7 Li14 2.425601 1_555
F7 Li13 2.505792 1_655
