# generated using pymatgen
data_Li4CoO4
_symmetry_space_group_name_H-M   'P 1'
_cell_length_a   5.41280000
_cell_length_b   8.94758000
_cell_length_c   16.07593300
_cell_angle_alpha   90.00000000
_cell_angle_beta   90.00000000
_cell_angle_gamma   90.00000000
_symmetry_Int_Tables_number   1
_chemical_formula_structural   Li4CoO4
_chemical_formula_sum   'Li32 Co8 O32'
_cell_volume   778.58092251
_cell_formula_units_Z   8
loop_
 _symmetry_equiv_pos_site_id
 _symmetry_equiv_pos_as_xyz
  1  'x, y, z'
loop_
 _atom_site_type_symbol
 _atom_site_label
 _atom_site_symmetry_multiplicity
 _atom_site_fract_x
 _atom_site_fract_y
 _atom_site_fract_z
 _atom_site_occupancy
  Li  Li0  1  0.92010700  0.94745800  0.43015400  1
  Li  Li1  1  0.57989300  0.94745800  0.93015400  1
  Li  Li2  1  0.13943000  0.89899500  0.24029800  1
  Li  Li3  1  0.36057000  0.89899500  0.74029800  1
  Li  Li4  1  0.40688800  0.83325000  0.51442700  1
  Li  Li5  1  0.09311200  0.83325000  0.01442700  1
  Li  Li6  1  0.58073400  0.82821000  0.33367800  1
  Li  Li7  1  0.91926600  0.82821000  0.83367800  1
  Li  Li8  1  0.41926600  0.67179000  0.83367800  1
  Li  Li9  1  0.08073400  0.67179000  0.33367800  1
  Li  Li10  1  0.90688800  0.66675000  0.51442700  1
  Li  Li11  1  0.59311200  0.66675000  0.01442700  1
  Li  Li12  1  0.63943000  0.60100500  0.24029800  1
  Li  Li13  1  0.86057000  0.60100500  0.74029800  1
  Li  Li14  1  0.07989300  0.55254200  0.93015400  1
  Li  Li15  1  0.42010700  0.55254200  0.43015400  1
  Li  Li16  1  0.92010700  0.44745800  0.06984600  1
  Li  Li17  1  0.57989300  0.44745800  0.56984600  1
  Li  Li18  1  0.36057000  0.39899500  0.75970200  1
  Li  Li19  1  0.13943000  0.39899500  0.25970200  1
  Li  Li20  1  0.40688800  0.33325000  0.98557300  1
  Li  Li21  1  0.09311200  0.33325000  0.48557300  1
  Li  Li22  1  0.58073400  0.32821000  0.16632200  1
  Li  Li23  1  0.91926600  0.32821000  0.66632200  1
  Li  Li24  1  0.41926600  0.17179000  0.66632200  1
  Li  Li25  1  0.08073400  0.17179000  0.16632200  1
  Li  Li26  1  0.90688800  0.16675000  0.98557300  1
  Li  Li27  1  0.59311200  0.16675000  0.48557300  1
  Li  Li28  1  0.86057000  0.10100500  0.75970200  1
  Li  Li29  1  0.63943000  0.10100500  0.25970200  1
  Li  Li30  1  0.07989300  0.05254200  0.56984600  1
  Li  Li31  1  0.42010700  0.05254200  0.06984600  1
  Co  Co0  1  0.81031600  0.94348200  0.12813200  1
  Co  Co1  1  0.68968400  0.94348200  0.62813200  1
  Co  Co2  1  0.31031600  0.55651800  0.12813200  1
  Co  Co3  1  0.18968400  0.55651800  0.62813200  1
  Co  Co4  1  0.81031600  0.44348200  0.37186800  1
  Co  Co5  1  0.68968400  0.44348200  0.87186800  1
  Co  Co6  1  0.31031600  0.05651800  0.37186800  1
  Co  Co7  1  0.18968400  0.05651800  0.87186800  1
  O  O0  1  0.14061900  0.95747500  0.11809000  1
  O  O1  1  0.35938100  0.95747500  0.61809000  1
  O  O2  1  0.75142000  0.87212200  0.22972000  1
  O  O3  1  0.74858000  0.87212200  0.72972000  1
  O  O4  1  0.69232100  0.86886600  0.03333900  1
  O  O5  1  0.80767900  0.86886600  0.53333900  1
  O  O6  1  0.28700200  0.85995400  0.87004000  1
  O  O7  1  0.21299800  0.85995400  0.37004000  1
  O  O8  1  0.71299800  0.64004600  0.37004000  1
  O  O9  1  0.78700200  0.64004600  0.87004000  1
  O  O10  1  0.19232100  0.63113400  0.03333900  1
  O  O11  1  0.30767900  0.63113400  0.53333900  1
  O  O12  1  0.25142000  0.62787800  0.22972000  1
  O  O13  1  0.24858000  0.62787800  0.72972000  1
  O  O14  1  0.64061900  0.54252500  0.11809000  1
  O  O15  1  0.85938100  0.54252500  0.61809000  1
  O  O16  1  0.14061900  0.45747500  0.38191000  1
  O  O17  1  0.35938100  0.45747500  0.88191000  1
  O  O18  1  0.74858000  0.37212200  0.77028000  1
  O  O19  1  0.75142000  0.37212200  0.27028000  1
  O  O20  1  0.80767900  0.36886600  0.96666100  1
  O  O21  1  0.69232100  0.36886600  0.46666100  1
  O  O22  1  0.28700200  0.35995400  0.62996000  1
  O  O23  1  0.21299800  0.35995400  0.12996000  1
  O  O24  1  0.78700200  0.14004600  0.62996000  1
  O  O25  1  0.71299800  0.14004600  0.12996000  1
  O  O26  1  0.19232100  0.13113400  0.46666100  1
  O  O27  1  0.30767900  0.13113400  0.96666100  1
  O  O28  1  0.24858000  0.12787800  0.77028000  1
  O  O29  1  0.25142000  0.12787800  0.27028000  1
  O  O30  1  0.85938100  0.04252500  0.88191000  1
  O  O31  1  0.64061900  0.04252500  0.38191000  1
loop_
_geom_bond_atom_site_label_1
_geom_bond_atom_site_label_2
_geom_bond_distance
_geom_bond_site_symmetry_2
Li0 O31 1.900963 1_565
Li0 O5 1.901693 1_555
Li0 O7 2.015015 1_655
Li0 O26 2.283945 1_665
Li1 O30 1.900963 1_565
Li1 O4 1.901693 1_556
Li1 O6 2.015015 1_555
Li1 O27 2.283945 1_565
Li2 O0 2.033106 1_555
Li2 O2 2.120769 1_455
Li2 O7 2.151939 1_555
Li2 O29 2.189489 1_565
Li2 O12 2.506207 1_555
Li3 O1 2.033106 1_555
Li3 O3 2.120769 1_555
Li3 O6 2.151939 1_555
Li3 O28 2.189489 1_565
Li3 O13 2.506207 1_555
Li4 O11 1.910835 1_555
Li4 O1 2.019589 1_555
Li4 O5 2.213660 1_555
Li4 O7 2.558570 1_555
Li5 O10 1.910835 1_555
Li5 O0 2.019589 1_555
Li5 O4 2.213660 1_455
Li5 O6 2.558570 1_554
Li6 O8 1.920623 1_555
Li6 O2 1.949597 1_555
Li6 O31 2.093673 1_565
Li6 O7 2.093894 1_555
Li7 O9 1.920623 1_555
Li7 O3 1.949597 1_555
Li7 O30 2.093673 1_565
Li7 O6 2.093894 1_655
Li8 O6 1.920623 1_555
Li8 O13 1.949597 1_555
Li8 O17 2.093673 1_555
Li8 O9 2.093894 1_555
Li9 O7 1.920623 1_555
Li9 O12 1.949597 1_555
Li9 O16 2.093673 1_555
Li9 O8 2.093894 1_455
Li10 O5 1.910835 1_555
Li10 O15 2.019589 1_555
Li10 O11 2.213660 1_655
Li10 O8 2.558570 1_555
Li11 O4 1.910835 1_555
Li11 O14 2.019589 1_555
Li11 O10 2.213660 1_555
Li11 O9 2.558570 1_554
Li12 O14 2.033106 1_555
Li12 O12 2.120769 1_555
Li12 O8 2.151939 1_555
Li12 O19 2.189489 1_555
Li12 O2 2.506207 1_555
Li13 O15 2.033106 1_555
Li13 O13 2.120769 1_655
Li13 O9 2.151939 1_555
Li13 O18 2.189489 1_555
Li13 O3 2.506207 1_555
Li14 O17 1.900963 1_555
Li14 O10 1.901693 1_556
Li14 O9 2.015015 1_455
Li14 O20 2.283945 1_455
Li15 O16 1.900963 1_555
Li15 O11 1.901693 1_555
Li15 O8 2.015015 1_555
Li15 O21 2.283945 1_555
Li16 O14 1.900963 1_555
Li16 O20 1.901693 1_554
Li16 O23 2.015015 1_655
Li16 O10 2.283945 1_655
Li17 O15 1.900963 1_555
Li17 O21 1.901693 1_555
Li17 O22 2.015015 1_555
Li17 O11 2.283945 1_555
Li18 O17 2.033106 1_555
Li18 O18 2.120769 1_555
Li18 O22 2.151939 1_555
Li18 O13 2.189489 1_555
Li18 O28 2.506207 1_555
Li19 O16 2.033106 1_555
Li19 O19 2.120769 1_455
Li19 O23 2.151939 1_555
Li19 O12 2.189489 1_555
Li19 O29 2.506207 1_555
Li20 O27 1.910835 1_555
Li20 O17 2.019589 1_555
Li20 O20 2.213660 1_555
Li20 O23 2.558570 1_556
Li21 O26 1.910835 1_555
Li21 O16 2.019589 1_555
Li21 O21 2.213660 1_455
Li21 O22 2.558570 1_555
Li22 O25 1.920623 1_555
Li22 O19 1.949597 1_555
Li22 O14 2.093673 1_555
Li22 O23 2.093894 1_555
Li23 O24 1.920623 1_555
Li23 O18 1.949597 1_555
Li23 O15 2.093673 1_555
Li23 O22 2.093894 1_655
Li24 O22 1.920623 1_555
Li24 O28 1.949597 1_555
Li24 O1 2.093673 1_545
Li24 O24 2.093894 1_555
Li25 O23 1.920623 1_555
Li25 O29 1.949597 1_555
Li25 O0 2.093673 1_545
Li25 O25 2.093894 1_455
Li26 O20 1.910835 1_555
Li26 O30 2.019589 1_555
Li26 O27 2.213660 1_655
Li26 O25 2.558570 1_556
Li27 O21 1.910835 1_555
Li27 O31 2.019589 1_555
Li27 O26 2.213660 1_555
Li27 O24 2.558570 1_555
Li28 O30 2.033106 1_555
Li28 O28 2.120769 1_655
Li28 O24 2.151939 1_555
Li28 O3 2.189489 1_545
Li28 O18 2.506207 1_555
Li29 O31 2.033106 1_555
Li29 O29 2.120769 1_555
Li29 O25 2.151939 1_555
Li29 O2 2.189489 1_545
Li29 O19 2.506207 1_555
Li30 O1 1.900963 1_545
Li30 O26 1.901693 1_555
Li30 O24 2.015015 1_455
Li30 O5 2.283945 1_445
Li31 O0 1.900963 1_545
Li31 O27 1.901693 1_554
Li31 O25 2.015015 1_555
Li31 O4 2.283945 1_545
Co0 O4 1.782099 1_555
Co0 O2 1.782245 1_555
Co0 O0 1.799499 1_655
Co0 O25 1.836198 1_565
Co1 O5 1.782099 1_555
Co1 O3 1.782245 1_555
Co1 O1 1.799499 1_555
Co1 O24 1.836198 1_565
Co2 O10 1.782099 1_555
Co2 O12 1.782245 1_555
Co2 O14 1.799499 1_555
Co2 O23 1.836198 1_555
Co3 O11 1.782099 1_555
Co3 O13 1.782245 1_555
Co3 O15 1.799499 1_455
Co3 O22 1.836198 1_555
Co4 O21 1.782099 1_555
Co4 O19 1.782245 1_555
Co4 O16 1.799499 1_655
Co4 O8 1.836198 1_555
Co5 O20 1.782099 1_555
Co5 O18 1.782245 1_555
Co5 O17 1.799499 1_555
Co5 O9 1.836198 1_555
Co6 O26 1.782099 1_555
Co6 O29 1.782245 1_555
Co6 O31 1.799499 1_555
Co6 O7 1.836198 1_545
Co7 O27 1.782099 1_555
Co7 O28 1.782245 1_555
Co7 O30 1.799499 1_455
Co7 O6 1.836198 1_545
