# generated using pymatgen
data_K5NaFe2(CO2)12
_symmetry_space_group_name_H-M   'P 1'
_cell_length_a   13.81398900
_cell_length_b   13.81398900
_cell_length_c   13.81398900
_cell_angle_alpha   90.00000000
_cell_angle_beta   90.00000000
_cell_angle_gamma   90.00000000
_symmetry_Int_Tables_number   1
_chemical_formula_structural   K5NaFe2(CO2)12
_chemical_formula_sum   'K20 Na4 Fe8 C48 O96'
_cell_volume   2636.07229987
_cell_formula_units_Z   4
loop_
 _symmetry_equiv_pos_site_id
 _symmetry_equiv_pos_as_xyz
  1  'x, y, z'
loop_
 _atom_site_type_symbol
 _atom_site_label
 _atom_site_symmetry_multiplicity
 _atom_site_fract_x
 _atom_site_fract_y
 _atom_site_fract_z
 _atom_site_occupancy
  K  K0  1  0.87500000  0.74104400  0.00895600  1
  K  K1  1  0.49104400  0.12500000  0.24104400  1
  K  K2  1  0.33018200  0.83018200  0.66981800  1
  K  K3  1  0.58018200  0.58018200  0.58018200  1
  K  K4  1  0.16981800  0.16981800  0.16981800  1
  K  K5  1  0.25895600  0.50895600  0.62500000  1
  K  K6  1  0.37500000  0.75895600  0.99104400  1
  K  K7  1  0.83018200  0.66981800  0.33018200  1
  K  K8  1  0.12500000  0.24104400  0.49104400  1
  K  K9  1  0.91981800  0.41981800  0.08018200  1
  K  K10  1  0.00895600  0.87500000  0.74104400  1
  K  K11  1  0.74104400  0.00895600  0.87500000  1
  K  K12  1  0.08018200  0.91981800  0.41981800  1
  K  K13  1  0.24104400  0.49104400  0.12500000  1
  K  K14  1  0.62500000  0.25895600  0.50895600  1
  K  K15  1  0.66981800  0.33018200  0.83018200  1
  K  K16  1  0.41981800  0.08018200  0.91981800  1
  K  K17  1  0.75895600  0.99104400  0.37500000  1
  K  K18  1  0.50895600  0.62500000  0.25895600  1
  K  K19  1  0.99104400  0.37500000  0.75895600  1
  Na  Na0  1  0.12500000  0.62500000  0.87500000  1
  Na  Na1  1  0.37500000  0.37500000  0.37500000  1
  Na  Na2  1  0.62500000  0.87500000  0.12500000  1
  Na  Na3  1  0.87500000  0.12500000  0.62500000  1
  Fe  Fe0  1  0.48939900  0.98939900  0.51060100  1
  Fe  Fe1  1  0.73939900  0.73939900  0.73939900  1
  Fe  Fe2  1  0.51060100  0.48939900  0.98939900  1
  Fe  Fe3  1  0.76060100  0.26060100  0.23939900  1
  Fe  Fe4  1  0.98939900  0.51060100  0.48939900  1
  Fe  Fe5  1  0.23939900  0.76060100  0.26060100  1
  Fe  Fe6  1  0.01060100  0.01060100  0.01060100  1
  Fe  Fe7  1  0.26060100  0.23939900  0.76060100  1
  C  C0  1  0.05592800  0.64033900  0.63619000  1
  C  C1  1  0.19963700  0.04571800  0.72963000  1
  C  C2  1  0.97963000  0.20428200  0.94963700  1
  C  C3  1  0.95428200  0.22963000  0.30036300  1
  C  C4  1  0.86381000  0.94407200  0.14033900  1
  C  C5  1  0.69407200  0.11381000  0.10966100  1
  C  C6  1  0.85966100  0.36381000  0.55592800  1
  C  C7  1  0.80036300  0.54571800  0.77037000  1
  C  C8  1  0.61381000  0.39033900  0.30592800  1
  C  C9  1  0.10966100  0.69407200  0.11381000  1
  C  C10  1  0.77037000  0.80036300  0.54571800  1
  C  C11  1  0.44407200  0.35966100  0.13619000  1
  C  C12  1  0.72963000  0.19963700  0.04571800  1
  C  C13  1  0.02037000  0.70428200  0.55036300  1
  C  C14  1  0.45428200  0.27037000  0.69963700  1
  C  C15  1  0.89033900  0.19407200  0.38619000  1
  C  C16  1  0.94963700  0.97963000  0.20428200  1
  C  C17  1  0.69963700  0.45428200  0.27037000  1
  C  C18  1  0.63619000  0.05592800  0.64033900  1
  C  C19  1  0.44963700  0.52037000  0.79571800  1
  C  C20  1  0.27037000  0.69963700  0.45428200  1
  C  C21  1  0.52037000  0.79571800  0.44963700  1
  C  C22  1  0.11381000  0.10966100  0.69407200  1
  C  C23  1  0.39033900  0.30592800  0.61381000  1
  C  C24  1  0.94407200  0.14033900  0.86381000  1
  C  C25  1  0.29571800  0.05036300  0.47963000  1
  C  C26  1  0.38619000  0.89033900  0.19407200  1
  C  C27  1  0.79571800  0.44963700  0.52037000  1
  C  C28  1  0.04571800  0.72963000  0.19963700  1
  C  C29  1  0.47963000  0.29571800  0.05036300  1
  C  C30  1  0.05036300  0.47963000  0.29571800  1
  C  C31  1  0.30036300  0.95428200  0.22963000  1
  C  C32  1  0.88619000  0.60966100  0.80592800  1
  C  C33  1  0.60966100  0.80592800  0.88619000  1
  C  C34  1  0.54571800  0.77037000  0.80036300  1
  C  C35  1  0.30592800  0.61381000  0.39033900  1
  C  C36  1  0.19407200  0.38619000  0.89033900  1
  C  C37  1  0.55036300  0.02037000  0.70428200  1
  C  C38  1  0.22963000  0.30036300  0.95428200  1
  C  C39  1  0.35966100  0.13619000  0.44407200  1
  C  C40  1  0.36381000  0.55592800  0.85966100  1
  C  C41  1  0.55592800  0.85966100  0.36381000  1
  C  C42  1  0.20428200  0.94963700  0.97963000  1
  C  C43  1  0.70428200  0.55036300  0.02037000  1
  C  C44  1  0.64033900  0.63619000  0.05592800  1
  C  C45  1  0.13619000  0.44407200  0.35966100  1
  C  C46  1  0.80592800  0.88619000  0.60966100  1
  C  C47  1  0.14033900  0.86381000  0.94407200  1
  O  O0  1  0.20250600  0.70731300  0.12705400  1
  O  O1  1  0.75106700  0.27708500  0.09382600  1
  O  O2  1  0.73500200  0.19024600  0.95631100  1
  O  O3  1  0.84416800  0.95804700  0.57228900  1
  O  O4  1  0.26499800  0.69024600  0.54368900  1
  O  O5  1  0.45804700  0.92771100  0.15583200  1
  O  O6  1  0.79368900  0.55975400  0.01499800  1
  O  O7  1  0.29195300  0.59416800  0.82228900  1
  O  O8  1  0.04268700  0.54749400  0.62294600  1
  O  O9  1  0.65583200  0.04195300  0.07228900  1
  O  O10  1  0.95731300  0.04749400  0.87705400  1
  O  O11  1  0.12294600  0.45731300  0.45250600  1
  O  O12  1  0.01499800  0.79368900  0.55975400  1
  O  O13  1  0.99893300  0.65617400  0.47291500  1
  O  O14  1  0.67771100  0.70804700  0.09416800  1
  O  O15  1  0.72291500  0.59382600  0.74893300  1
  O  O16  1  0.00106700  0.15617400  0.02708500  1
  O  O17  1  0.30975400  0.04368900  0.23500200  1
  O  O18  1  0.07228900  0.65583200  0.04195300  1
  O  O19  1  0.94024600  0.98500200  0.29368900  1
  O  O20  1  0.09382600  0.75106700  0.27708500  1
  O  O21  1  0.23500200  0.30975400  0.04368900  1
  O  O22  1  0.54195300  0.42771100  0.34416800  1
  O  O23  1  0.59416800  0.82228900  0.29195300  1
  O  O24  1  0.98500200  0.29368900  0.94024600  1
  O  O25  1  0.82228900  0.29195300  0.59416800  1
  O  O26  1  0.24893300  0.77708500  0.40617400  1
  O  O27  1  0.80975400  0.45631100  0.76499800  1
  O  O28  1  0.90583200  0.17771100  0.79195300  1
  O  O29  1  0.70731300  0.12705400  0.20250600  1
  O  O30  1  0.29368900  0.94024600  0.98500200  1
  O  O31  1  0.92771100  0.15583200  0.45804700  1
  O  O32  1  0.95804700  0.57228900  0.84416800  1
  O  O33  1  0.20804700  0.40583200  0.32228900  1
  O  O34  1  0.95250600  0.37705400  0.54268700  1
  O  O35  1  0.54268700  0.95250600  0.37705400  1
  O  O36  1  0.49893300  0.84382600  0.52708500  1
  O  O37  1  0.48500200  0.20631100  0.05975400  1
  O  O38  1  0.32228900  0.20804700  0.40583200  1
  O  O39  1  0.17771100  0.79195300  0.90583200  1
  O  O40  1  0.15583200  0.45804700  0.92771100  1
  O  O41  1  0.12705400  0.20250600  0.70731300  1
  O  O42  1  0.42771100  0.34416800  0.54195300  1
  O  O43  1  0.40617400  0.24893300  0.77708500  1
  O  O44  1  0.90617400  0.25106700  0.22291500  1
  O  O45  1  0.20731300  0.37294600  0.79749400  1
  O  O46  1  0.04368900  0.23500200  0.30975400  1
  O  O47  1  0.45250600  0.12294600  0.45731300  1
  O  O48  1  0.05975400  0.48500200  0.20631100  1
  O  O49  1  0.40583200  0.32228900  0.20804700  1
  O  O50  1  0.79749400  0.20731300  0.37294600  1
  O  O51  1  0.55975400  0.01499800  0.79368900  1
  O  O52  1  0.54749400  0.62294600  0.04268700  1
  O  O53  1  0.47291500  0.99893300  0.65617400  1
  O  O54  1  0.02708500  0.00106700  0.15617400  1
  O  O55  1  0.74893300  0.72291500  0.59382600  1
  O  O56  1  0.70250600  0.79268700  0.87294600  1
  O  O57  1  0.20631100  0.05975400  0.48500200  1
  O  O58  1  0.45631100  0.76499800  0.80975400  1
  O  O59  1  0.34416800  0.54195300  0.42771100  1
  O  O60  1  0.77708500  0.40617400  0.24893300  1
  O  O61  1  0.84382600  0.52708500  0.49893300  1
  O  O62  1  0.04195300  0.07228900  0.65583200  1
  O  O63  1  0.79268700  0.87294600  0.70250600  1
  O  O64  1  0.19024600  0.95631100  0.73500200  1
  O  O65  1  0.69024600  0.54368900  0.26499800  1
  O  O66  1  0.52708500  0.49893300  0.84382600  1
  O  O67  1  0.70804700  0.09416800  0.67771100  1
  O  O68  1  0.04749400  0.87705400  0.95731300  1
  O  O69  1  0.37294600  0.79749400  0.20731300  1
  O  O70  1  0.59382600  0.74893300  0.72291500  1
  O  O71  1  0.45731300  0.45250600  0.12294600  1
  O  O72  1  0.97291500  0.50106700  0.34382600  1
  O  O73  1  0.57228900  0.84416800  0.95804700  1
  O  O74  1  0.15617400  0.02708500  0.00106700  1
  O  O75  1  0.70631100  0.44024600  0.51499800  1
  O  O76  1  0.79195300  0.90583200  0.17771100  1
  O  O77  1  0.29749400  0.29268700  0.62705400  1
  O  O78  1  0.09416800  0.67771100  0.70804700  1
  O  O79  1  0.62705400  0.29749400  0.29268700  1
  O  O80  1  0.37705400  0.54268700  0.95250600  1
  O  O81  1  0.27708500  0.09382600  0.75106700  1
  O  O82  1  0.34382600  0.97291500  0.50106700  1
  O  O83  1  0.50106700  0.34382600  0.97291500  1
  O  O84  1  0.54368900  0.26499800  0.69024600  1
  O  O85  1  0.25106700  0.22291500  0.90617400  1
  O  O86  1  0.22291500  0.90617400  0.25106700  1
  O  O87  1  0.44024600  0.51499800  0.70631100  1
  O  O88  1  0.95631100  0.73500200  0.19024600  1
  O  O89  1  0.62294600  0.04268700  0.54749400  1
  O  O90  1  0.87294600  0.70250600  0.79268700  1
  O  O91  1  0.76499800  0.80975400  0.45631100  1
  O  O92  1  0.87705400  0.95731300  0.04749400  1
  O  O93  1  0.51499800  0.70631100  0.44024600  1
  O  O94  1  0.65617400  0.47291500  0.99893300  1
  O  O95  1  0.29268700  0.62705400  0.29749400  1
loop_
_geom_bond_atom_site_label_1
_geom_bond_atom_site_label_2
_geom_bond_distance
_geom_bond_site_symmetry_2
K0 O88 2.745964 1_555
K0 O6 2.745964 1_555
K0 O14 3.003481 1_555
K0 O18 3.003481 1_655
K0 O92 3.034732 1_555
K0 O90 3.034732 1_554
K0 O68 3.117187 1_654
K0 O56 3.117187 1_554
K1 O17 2.745964 1_555
K1 O37 2.745964 1_555
K1 O49 3.003481 1_555
K1 O5 3.003481 1_545
K1 O47 3.034732 1_555
K1 O29 3.034732 1_555
K1 O79 3.117187 1_555
K1 O35 3.117187 1_545
K2 O4 2.753789 1_555
K2 O58 2.753789 1_555
K2 O64 2.753789 1_555
K2 O53 3.058973 1_555
K2 O82 3.058973 1_555
K2 O36 3.058973 1_555
K3 O93 2.753789 1_555
K3 O87 2.753789 1_555
K3 O75 2.753789 1_555
K3 O55 3.058973 1_555
K3 O70 3.058973 1_555
K3 O15 3.058973 1_555
K4 O17 2.753789 1_555
K4 O46 2.753789 1_555
K4 O21 2.753789 1_555
K4 O54 3.058973 1_555
K4 O74 3.058973 1_555
K4 O16 3.058973 1_555
K5 O87 2.745964 1_555
K5 O4 2.745964 1_555
K5 O59 3.003481 1_555
K5 O7 3.003481 1_555
K5 O77 3.034732 1_555
K5 O8 3.034732 1_555
K5 O45 3.117187 1_555
K5 O11 3.117187 1_555
K6 O30 2.745964 1_555
K6 O58 2.745964 1_555
K6 O39 3.003481 1_555
K6 O73 3.003481 1_555
K6 O80 3.034732 1_555
K6 O69 3.034732 1_556
K6 O0 3.117187 1_556
K6 O52 3.117187 1_556
K7 O65 2.753789 1_555
K7 O91 2.753789 1_555
K7 O88 2.753789 1_555
K7 O72 3.058973 1_555
K7 O13 3.058973 1_555
K7 O61 3.058973 1_555
K8 O57 2.745964 1_555
K8 O46 2.745964 1_555
K8 O38 3.003481 1_555
K8 O31 3.003481 1_455
K8 O11 3.034732 1_555
K8 O41 3.034732 1_555
K8 O77 3.117187 1_555
K8 O34 3.117187 1_455
K9 O6 2.753789 1_555
K9 O24 2.753789 1_554
K9 O48 2.753789 1_655
K9 O1 3.058973 1_555
K9 O60 3.058973 1_555
K9 O44 3.058973 1_555
K10 O64 2.745964 1_555
K10 O12 2.745964 1_555
K10 O78 3.003481 1_555
K10 O62 3.003481 1_565
K10 O68 3.034732 1_555
K10 O63 3.034732 1_455
K10 O10 3.117187 1_465
K10 O90 3.117187 1_455
K11 O2 2.745964 1_555
K11 O51 2.745964 1_555
K11 O67 3.003481 1_555
K11 O9 3.003481 1_556
K11 O10 3.034732 1_555
K11 O56 3.034732 1_545
K11 O92 3.117187 1_546
K11 O63 3.117187 1_545
K12 O12 2.753789 1_555
K12 O57 2.753789 1_565
K12 O19 2.753789 1_455
K12 O20 3.058973 1_555
K12 O26 3.058973 1_555
K12 O86 3.058973 1_555
K13 O21 2.745964 1_555
K13 O48 2.745964 1_555
K13 O33 3.003481 1_555
K13 O40 3.003481 1_554
K13 O0 3.034732 1_555
K13 O71 3.034732 1_555
K13 O95 3.117187 1_555
K13 O80 3.117187 1_554
K14 O75 2.745964 1_555
K14 O84 2.745964 1_555
K14 O42 3.003481 1_555
K14 O25 3.003481 1_555
K14 O79 3.034732 1_555
K14 O89 3.034732 1_555
K14 O47 3.117187 1_555
K14 O50 3.117187 1_555
K15 O27 2.753789 1_555
K15 O84 2.753789 1_555
K15 O2 2.753789 1_555
K15 O83 3.058973 1_555
K15 O94 3.058973 1_555
K15 O66 3.058973 1_555
K16 O51 2.753789 1_555
K16 O37 2.753789 1_556
K16 O30 2.753789 1_545
K16 O43 3.058973 1_555
K16 O81 3.058973 1_555
K16 O85 3.058973 1_555
K17 O91 2.745964 1_555
K17 O19 2.745964 1_555
K17 O76 3.003481 1_555
K17 O3 3.003481 1_555
K17 O35 3.034732 1_555
K17 O50 3.034732 1_565
K17 O29 3.117187 1_565
K17 O89 3.117187 1_565
K18 O93 2.745964 1_555
K18 O65 2.745964 1_555
K18 O22 3.003481 1_555
K18 O23 3.003481 1_555
K18 O95 3.034732 1_555
K18 O52 3.034732 1_555
K18 O69 3.117187 1_555
K18 O71 3.117187 1_555
K19 O27 2.745964 1_555
K19 O24 2.745964 1_555
K19 O28 3.003481 1_555
K19 O32 3.003481 1_555
K19 O34 3.034732 1_555
K19 O45 3.034732 1_655
K19 O8 3.117187 1_655
K19 O41 3.117187 1_655
Na0 O18 2.455720 1_556
Na0 O32 2.455720 1_455
Na0 O40 2.455720 1_555
Na0 O7 2.455720 1_555
Na0 O78 2.455720 1_555
Na0 O39 2.455720 1_555
Na1 O38 2.455720 1_555
Na1 O22 2.455720 1_555
Na1 O33 2.455720 1_555
Na1 O49 2.455720 1_555
Na1 O42 2.455720 1_555
Na1 O59 2.455720 1_555
Na2 O9 2.455720 1_565
Na2 O73 2.455720 1_554
Na2 O76 2.455720 1_555
Na2 O23 2.455720 1_555
Na2 O5 2.455720 1_555
Na2 O14 2.455720 1_555
Na3 O62 2.455720 1_655
Na3 O28 2.455720 1_555
Na3 O31 2.455720 1_555
Na3 O25 2.455720 1_555
Na3 O67 2.455720 1_555
Na3 O3 2.455720 1_545
Fe0 O82 2.028076 1_555
Fe0 O36 2.028076 1_555
Fe0 O53 2.028076 1_555
Fe0 O47 2.050598 1_565
Fe0 O89 2.050598 1_565
Fe0 O35 2.050598 1_555
Fe1 O55 2.028076 1_555
Fe1 O15 2.028076 1_555
Fe1 O70 2.028076 1_555
Fe1 O90 2.050598 1_555
Fe1 O56 2.050598 1_555
Fe1 O63 2.050598 1_555
Fe2 O83 2.028076 1_555
Fe2 O94 2.028076 1_555
Fe2 O66 2.028076 1_555
Fe2 O71 2.050598 1_556
Fe2 O52 2.050598 1_556
Fe2 O80 2.050598 1_555
Fe3 O60 2.028076 1_555
Fe3 O1 2.028076 1_555
Fe3 O44 2.028076 1_555
Fe3 O79 2.050598 1_555
Fe3 O50 2.050598 1_555
Fe3 O29 2.050598 1_555
Fe4 O72 2.028076 1_555
Fe4 O61 2.028076 1_555
Fe4 O13 2.028076 1_555
Fe4 O11 2.050598 1_655
Fe4 O8 2.050598 1_655
Fe4 O34 2.050598 1_555
Fe5 O26 2.028076 1_555
Fe5 O20 2.028076 1_555
Fe5 O86 2.028076 1_555
Fe5 O95 2.050598 1_555
Fe5 O0 2.050598 1_555
Fe5 O69 2.050598 1_555
Fe6 O54 2.028076 1_555
Fe6 O74 2.028076 1_555
Fe6 O16 2.028076 1_555
Fe6 O10 2.050598 1_454
Fe6 O92 2.050598 1_445
Fe6 O68 2.050598 1_544
Fe7 O43 2.028076 1_555
Fe7 O81 2.028076 1_555
Fe7 O85 2.028076 1_555
Fe7 O77 2.050598 1_555
Fe7 O41 2.050598 1_555
Fe7 O45 2.050598 1_555
C0 O78 1.237289 1_555
C0 O8 1.308391 1_555
C1 O64 1.244077 1_545
C1 O81 1.293812 1_555
C2 O24 1.244077 1_555
C2 O16 1.293812 1_656
C3 O46 1.244077 1_655
C3 O44 1.293812 1_555
C4 O76 1.237289 1_555
C4 O92 1.308391 1_555
C5 O9 1.237289 1_555
C5 O29 1.308391 1_555
C6 O25 1.237289 1_555
C6 O34 1.308391 1_555
C7 O27 1.244077 1_555
C7 O15 1.293812 1_555
C8 O22 1.237289 1_555
C8 O79 1.308391 1_555
C9 O18 1.237289 1_555
C9 O0 1.308391 1_555
C10 O91 1.244077 1_555
C10 O55 1.293812 1_555
C11 O49 1.237289 1_555
C11 O71 1.308391 1_555
C12 O2 1.244077 1_554
C12 O1 1.293812 1_555
C13 O12 1.244077 1_555
C13 O13 1.293812 1_455
C14 O84 1.244077 1_555
C14 O43 1.293812 1_555
C15 O31 1.237289 1_555
C15 O50 1.308391 1_555
C16 O19 1.244077 1_555
C16 O54 1.293812 1_665
C17 O65 1.244077 1_555
C17 O60 1.293812 1_555
C18 O67 1.237289 1_555
C18 O89 1.308391 1_555
C19 O87 1.244077 1_555
C19 O66 1.293812 1_555
C20 O4 1.244077 1_555
C20 O26 1.293812 1_555
C21 O93 1.244077 1_555
C21 O36 1.293812 1_555
C22 O62 1.237289 1_555
C22 O41 1.308391 1_555
C23 O42 1.237289 1_555
C23 O77 1.308391 1_555
C24 O28 1.237289 1_555
C24 O10 1.308391 1_555
C25 O57 1.244077 1_555
C25 O82 1.293812 1_545
C26 O5 1.237289 1_555
C26 O69 1.308391 1_555
C27 O75 1.244077 1_555
C27 O61 1.293812 1_555
C28 O88 1.244077 1_455
C28 O20 1.293812 1_555
C29 O37 1.244077 1_555
C29 O83 1.293812 1_554
C30 O48 1.244077 1_555
C30 O72 1.293812 1_455
C31 O17 1.244077 1_565
C31 O86 1.293812 1_555
C32 O32 1.237289 1_555
C32 O90 1.308391 1_555
C33 O73 1.237289 1_555
C33 O56 1.308391 1_555
C34 O58 1.244077 1_555
C34 O70 1.293812 1_555
C35 O59 1.237289 1_555
C35 O95 1.308391 1_555
C36 O40 1.237289 1_555
C36 O45 1.308391 1_555
C37 O51 1.244077 1_555
C37 O53 1.293812 1_545
C38 O21 1.244077 1_556
C38 O85 1.293812 1_555
C39 O38 1.237289 1_555
C39 O47 1.308391 1_555
C40 O7 1.237289 1_555
C40 O80 1.308391 1_555
C41 O23 1.237289 1_555
C41 O35 1.308391 1_555
C42 O30 1.244077 1_555
C42 O74 1.293812 1_566
C43 O6 1.244077 1_555
C43 O94 1.293812 1_554
C44 O14 1.237289 1_555
C44 O52 1.308391 1_555
C45 O33 1.237289 1_555
C45 O11 1.308391 1_555
C46 O3 1.237289 1_555
C46 O63 1.308391 1_555
C47 O39 1.237289 1_555
C47 O68 1.308391 1_555
