# generated using pymatgen
data_Li6MnFe5(BO3)6
_symmetry_space_group_name_H-M   'P 1'
_cell_length_a   8.82946382
_cell_length_b   8.82946382
_cell_length_c   8.24687782
_cell_angle_alpha   62.22618156
_cell_angle_beta   62.22618156
_cell_angle_gamma   41.61653421
_symmetry_Int_Tables_number   1
_chemical_formula_structural   Li6MnFe5(BO3)6
_chemical_formula_sum   'Li6 Mn1 Fe5 B6 O18'
_cell_volume   370.15517330
_cell_formula_units_Z   1
loop_
 _symmetry_equiv_pos_site_id
 _symmetry_equiv_pos_as_xyz
  1  'x, y, z'
loop_
 _atom_site_type_symbol
 _atom_site_label
 _atom_site_symmetry_multiplicity
 _atom_site_fract_x
 _atom_site_fract_y
 _atom_site_fract_z
 _atom_site_occupancy
  Li  Li0  1  0.24270900  0.74110900  0.30195000  1
  Li  Li1  1  0.74110900  0.24270900  0.30195000  1
  Li  Li2  1  0.40177000  0.90020900  0.71515000  1
  Li  Li3  1  0.90020900  0.40177000  0.71515000  1
  Li  Li4  1  0.10709600  0.60707100  0.98411900  1
  Li  Li5  1  0.60707100  0.10709600  0.98411900  1
  Mn  Mn0  1  0.00637300  0.00637300  0.62742000  1
  Fe  Fe0  1  0.17961300  0.17961300  0.00791800  1
  Fe  Fe1  1  0.68012100  0.68012100  0.00736800  1
  Fe  Fe2  1  0.50381000  0.50381000  0.63252500  1
  Fe  Fe3  1  0.81639900  0.81639900  0.35948700  1
  Fe  Fe4  1  0.31612600  0.31612600  0.35986100  1
  B  B0  1  0.58082100  0.08467500  0.66662200  1
  B  B1  1  0.08467500  0.58082100  0.66662200  1
  B  B2  1  0.41908200  0.91598200  0.33219200  1
  B  B3  1  0.91598200  0.41908200  0.33219200  1
  B  B4  1  0.99901700  0.99901700  0.00246400  1
  B  B5  1  0.49992000  0.49992000  0.00013400  1
  O  O0  1  0.45739900  0.45739900  0.19426800  1
  O  O1  1  0.95800800  0.95800800  0.19681100  1
  O  O2  1  0.03994300  0.53941500  0.55826300  1
  O  O3  1  0.53941500  0.03994300  0.55826300  1
  O  O4  1  0.09627600  0.09627600  0.89109300  1
  O  O5  1  0.59700100  0.59700100  0.89101000  1
  O  O6  1  0.67587100  0.18365300  0.58063800  1
  O  O7  1  0.18365300  0.67587100  0.58063800  1
  O  O8  1  0.02904800  0.52846400  0.86110900  1
  O  O9  1  0.52846400  0.02904800  0.86110900  1
  O  O10  1  0.37791500  0.87675400  0.21815400  1
  O  O11  1  0.87675400  0.37791500  0.21815400  1
  O  O12  1  0.44534600  0.44534600  0.91439300  1
  O  O13  1  0.94306300  0.94306300  0.92051700  1
  O  O14  1  0.51394900  0.01469400  0.25299800  1
  O  O15  1  0.01469400  0.51394900  0.25299800  1
  O  O16  1  0.36413400  0.85718300  0.52617200  1
  O  O17  1  0.85718300  0.36413400  0.52617200  1
loop_
_geom_bond_atom_site_label_1
_geom_bond_atom_site_label_2
_geom_bond_distance
_geom_bond_site_symmetry_2
Li0 O10 1.983620 1_555
Li0 O7 1.996076 1_555
Li0 O1 2.006004 1_455
Li0 O0 2.015274 1_555
Li1 O11 1.983620 1_555
Li1 O6 1.996076 1_555
Li1 O1 2.006004 1_545
Li1 O0 2.015274 1_555
Li2 O16 1.976562 1_555
Li2 O3 1.990497 1_565
Li2 O5 2.013256 1_555
Li2 O4 2.022240 1_565
Li3 O17 1.976562 1_555
Li3 O2 1.990497 1_655
Li3 O5 2.013256 1_555
Li3 O4 2.022240 1_655
Li4 O15 1.968864 1_556
Li4 O13 2.001765 1_455
Li4 O8 2.002138 1_555
Li4 O12 2.019264 1_555
Li5 O14 1.968864 1_556
Li5 O13 2.001765 1_545
Li5 O9 2.002138 1_555
Li5 O12 2.019264 1_555
Mn0 O13 2.101483 1_445
Mn0 O17 2.180814 1_455
Mn0 O16 2.180814 1_545
Mn0 O7 2.184324 1_545
Mn0 O6 2.184324 1_455
Fe0 O4 2.035195 1_554
Fe0 O9 2.150008 1_554
Fe0 O8 2.150008 1_554
Fe0 O10 2.174863 1_545
Fe0 O11 2.174863 1_455
Fe1 O5 2.028808 1_554
Fe1 O8 2.147829 1_654
Fe1 O9 2.147829 1_564
Fe1 O10 2.172335 1_555
Fe1 O11 2.172335 1_555
Fe2 O12 2.024404 1_555
Fe2 O6 2.140613 1_555
Fe2 O7 2.140613 1_555
Fe2 O16 2.174732 1_555
Fe2 O17 2.174732 1_555
Fe3 O1 2.034062 1_555
Fe3 O2 2.150738 1_655
Fe3 O3 2.150738 1_565
Fe3 O15 2.174811 1_655
Fe3 O14 2.174811 1_565
Fe4 O0 2.031778 1_555
Fe4 O2 2.147076 1_555
Fe4 O3 2.147076 1_555
Fe4 O14 2.170605 1_555
Fe4 O15 2.170605 1_555
B0 O6 1.391176 1_555
B0 O3 1.391949 1_555
B0 O9 1.393475 1_555
B1 O7 1.391176 1_555
B1 O2 1.391949 1_555
B1 O8 1.393475 1_555
B2 O14 1.392497 1_565
B2 O16 1.394030 1_555
B2 O10 1.395331 1_555
B3 O15 1.392497 1_655
B3 O17 1.394030 1_555
B3 O11 1.395331 1_555
B4 O13 1.390018 1_554
B4 O1 1.394764 1_555
B4 O4 1.396769 1_664
B5 O0 1.391222 1_555
B5 O5 1.392889 1_554
B5 O12 1.395210 1_554
