# generated using pymatgen
data_Ti17(NO4)6
_symmetry_space_group_name_H-M   'P 1'
_cell_length_a   9.66252200
_cell_length_b   10.02794000
_cell_length_c   11.48828200
_cell_angle_alpha   90.00000000
_cell_angle_beta   90.00000000
_cell_angle_gamma   90.00000000
_symmetry_Int_Tables_number   1
_chemical_formula_structural   Ti17(NO4)6
_chemical_formula_sum   'Ti34 N12 O48'
_cell_volume   1113.15927710
_cell_formula_units_Z   2
loop_
 _symmetry_equiv_pos_site_id
 _symmetry_equiv_pos_as_xyz
  1  'x, y, z'
loop_
 _atom_site_type_symbol
 _atom_site_label
 _atom_site_symmetry_multiplicity
 _atom_site_fract_x
 _atom_site_fract_y
 _atom_site_fract_z
 _atom_site_occupancy
  Ti  Ti0  1  0.11405000  0.17951200  0.00000000  1
  Ti  Ti1  1  0.38690400  0.69261800  0.00000000  1
  Ti  Ti2  1  0.11405000  0.82048800  0.00000000  1
  Ti  Ti3  1  0.05182000  0.50000000  0.00000000  1
  Ti  Ti4  1  0.38690400  0.30738200  0.00000000  1
  Ti  Ti5  1  0.88795700  0.67784900  0.16677800  1
  Ti  Ti6  1  0.60643500  0.17320300  0.16206800  1
  Ti  Ti7  1  0.88795700  0.32215100  0.16677800  1
  Ti  Ti8  1  0.94567300  0.00000000  0.16515700  1
  Ti  Ti9  1  0.60643500  0.82679700  0.16206800  1
  Ti  Ti10  1  0.55147000  0.50000000  0.16207600  1
  Ti  Ti11  1  0.05432700  0.50000000  0.33484300  1
  Ti  Ti12  1  0.11204300  0.82215100  0.33322200  1
  Ti  Ti13  1  0.39356500  0.32679700  0.33793200  1
  Ti  Ti14  1  0.39356500  0.67320300  0.33793200  1
  Ti  Ti15  1  0.11204300  0.17784900  0.33322200  1
  Ti  Ti16  1  0.44853000  0.00000000  0.33792400  1
  Ti  Ti17  1  0.88595000  0.32048800  0.50000000  1
  Ti  Ti18  1  0.94818000  0.00000000  0.50000000  1
  Ti  Ti19  1  0.61309600  0.80738200  0.50000000  1
  Ti  Ti20  1  0.61309600  0.19261800  0.50000000  1
  Ti  Ti21  1  0.88595000  0.67951200  0.50000000  1
  Ti  Ti22  1  0.39356500  0.32679700  0.66206800  1
  Ti  Ti23  1  0.11204300  0.82215100  0.66677800  1
  Ti  Ti24  1  0.11204300  0.17784900  0.66677800  1
  Ti  Ti25  1  0.44853000  0.00000000  0.66207600  1
  Ti  Ti26  1  0.05432700  0.50000000  0.66515700  1
  Ti  Ti27  1  0.39356500  0.67320300  0.66206800  1
  Ti  Ti28  1  0.88795700  0.32215100  0.83322200  1
  Ti  Ti29  1  0.55147000  0.50000000  0.83792400  1
  Ti  Ti30  1  0.60643500  0.17320300  0.83793200  1
  Ti  Ti31  1  0.88795700  0.67784900  0.83322200  1
  Ti  Ti32  1  0.94567300  0.00000000  0.83484300  1
  Ti  Ti33  1  0.60643500  0.82679700  0.83793200  1
  N  N0  1  0.01656000  0.00000000  0.00000000  1
  N  N1  1  0.47708800  0.50000000  0.00000000  1
  N  N2  1  0.98115200  0.50000000  0.16796000  1
  N  N3  1  0.52988600  0.00000000  0.18198500  1
  N  N4  1  0.01884800  0.00000000  0.33204000  1
  N  N5  1  0.47011400  0.50000000  0.31801500  1
  N  N6  1  0.98344000  0.50000000  0.50000000  1
  N  N7  1  0.52291200  0.00000000  0.50000000  1
  N  N8  1  0.01884800  0.00000000  0.66796000  1
  N  N9  1  0.47011400  0.50000000  0.68198500  1
  N  N10  1  0.52988600  0.00000000  0.81801500  1
  N  N11  1  0.98115200  0.50000000  0.83204000  1
  O  O0  1  0.93317300  0.31613000  0.00000000  1
  O  O1  1  0.29355400  0.13996300  0.00000000  1
  O  O2  1  0.19965300  0.62843900  0.00000000  1
  O  O3  1  0.57412400  0.80249800  0.00000000  1
  O  O4  1  0.29355400  0.86003700  0.00000000  1
  O  O5  1  0.93317300  0.68387000  0.00000000  1
  O  O6  1  0.19965300  0.37156100  0.00000000  1
  O  O7  1  0.57412400  0.19750200  0.00000000  1
  O  O8  1  0.79831200  0.86876000  0.16626400  1
  O  O9  1  0.79831200  0.13124000  0.16626400  1
  O  O10  1  0.44060900  0.31155400  0.16486900  1
  O  O11  1  0.06161400  0.18655900  0.16634400  1
  O  O12  1  0.06161400  0.81344100  0.16634400  1
  O  O13  1  0.44060900  0.68844600  0.16486900  1
  O  O14  1  0.70325800  0.63028400  0.16884600  1
  O  O15  1  0.70325800  0.36971600  0.16884600  1
  O  O16  1  0.93838600  0.31344100  0.33365600  1
  O  O17  1  0.93838600  0.68655900  0.33365600  1
  O  O18  1  0.20168800  0.63124000  0.33373600  1
  O  O19  1  0.29674200  0.86971600  0.33115400  1
  O  O20  1  0.20168800  0.36876000  0.33373600  1
  O  O21  1  0.55939100  0.81155400  0.33513100  1
  O  O22  1  0.29674200  0.13028400  0.33115400  1
  O  O23  1  0.55939100  0.18844600  0.33513100  1
  O  O24  1  0.06682700  0.18387000  0.50000000  1
  O  O25  1  0.06682700  0.81613000  0.50000000  1
  O  O26  1  0.42587600  0.30249800  0.50000000  1
  O  O27  1  0.70644600  0.36003700  0.50000000  1
  O  O28  1  0.80034700  0.87156100  0.50000000  1
  O  O29  1  0.80034700  0.12843900  0.50000000  1
  O  O30  1  0.42587600  0.69750200  0.50000000  1
  O  O31  1  0.70644600  0.63996300  0.50000000  1
  O  O32  1  0.93838600  0.31344100  0.66634400  1
  O  O33  1  0.20168800  0.36876000  0.66626400  1
  O  O34  1  0.29674200  0.13028400  0.66884600  1
  O  O35  1  0.29674200  0.86971600  0.66884600  1
  O  O36  1  0.55939100  0.18844600  0.66486900  1
  O  O37  1  0.55939100  0.81155400  0.66486900  1
  O  O38  1  0.93838600  0.68655900  0.66634400  1
  O  O39  1  0.20168800  0.63124000  0.66626400  1
  O  O40  1  0.44060900  0.31155400  0.83513100  1
  O  O41  1  0.44060900  0.68844600  0.83513100  1
  O  O42  1  0.70325800  0.36971600  0.83115400  1
  O  O43  1  0.70325800  0.63028400  0.83115400  1
  O  O44  1  0.79831200  0.86876000  0.83373600  1
  O  O45  1  0.79831200  0.13124000  0.83373600  1
  O  O46  1  0.06161400  0.18655900  0.83365600  1
  O  O47  1  0.06161400  0.81344100  0.83365600  1
loop_
_geom_bond_atom_site_label_1
_geom_bond_atom_site_label_2
_geom_bond_distance
_geom_bond_site_symmetry_2
N0 Ti8 2.017217 1_455
N0 Ti32 2.017217 1_454
N0 Ti0 2.031711 1_555
N0 Ti2 2.031711 1_545
N1 Ti29 1.995872 1_554
N1 Ti10 1.995872 1_555
N1 Ti1 2.119027 1_555
N1 Ti4 2.119027 1_555
N2 Ti5 1.997951 1_555
N2 Ti7 1.997951 1_555
N2 Ti11 2.043423 1_655
N2 Ti3 2.046828 1_655
N3 Ti9 1.901621 1_545
N3 Ti6 1.901621 1_555
N3 Ti16 1.956356 1_555
N4 Ti15 1.997951 1_555
N4 Ti12 1.997951 1_545
N4 Ti8 2.043423 1_455
N4 Ti18 2.046828 1_455
N5 Ti13 1.901621 1_555
N5 Ti14 1.901621 1_555
N5 Ti10 1.956356 1_555
N6 Ti11 2.017217 1_655
N6 Ti26 2.017217 1_655
N6 Ti17 2.031711 1_555
N6 Ti21 2.031711 1_555
N7 Ti16 1.995872 1_555
N7 Ti25 1.995872 1_555
N7 Ti20 2.119027 1_555
N7 Ti19 2.119027 1_545
N8 Ti24 1.997951 1_555
N8 Ti23 1.997951 1_545
N8 Ti32 2.043423 1_455
N8 Ti18 2.046828 1_455
N9 Ti27 1.901621 1_555
N9 Ti22 1.901621 1_555
N9 Ti29 1.956356 1_555
N10 Ti30 1.901621 1_555
N10 Ti33 1.901621 1_545
N10 Ti25 1.956356 1_555
N11 Ti31 1.997951 1_555
N11 Ti28 1.997951 1_555
N11 Ti26 2.043423 1_655
N11 Ti3 2.046828 1_656
O0 Ti7 1.966102 1_555
O0 Ti28 1.966102 1_554
O0 Ti3 2.171183 1_655
O0 Ti0 2.220686 1_655
O1 Ti0 1.779226 1_555
O1 Ti4 1.905832 1_555
O2 Ti1 1.920372 1_555
O2 Ti3 1.923364 1_555
O2 Ti2 2.095968 1_555
O3 Ti9 1.903537 1_555
O3 Ti33 1.903537 1_554
O3 Ti1 2.118174 1_555
O4 Ti2 1.779226 1_555
O4 Ti1 1.905832 1_555
O5 Ti5 1.966102 1_555
O5 Ti31 1.966102 1_554
O5 Ti3 2.171183 1_655
O5 Ti2 2.220686 1_655
O6 Ti4 1.920372 1_555
O6 Ti3 1.923364 1_555
O6 Ti0 2.095968 1_555
O7 Ti6 1.903537 1_555
O7 Ti30 1.903537 1_554
O7 Ti4 2.118174 1_555
O8 Ti9 1.901781 1_555
O8 Ti8 1.938975 1_565
O8 Ti5 2.101292 1_555
O9 Ti6 1.901781 1_555
O9 Ti8 1.938975 1_555
O9 Ti7 2.101292 1_555
O10 Ti4 1.964307 1_555
O10 Ti13 2.045218 1_555
O10 Ti6 2.119718 1_555
O10 Ti10 2.172453 1_555
O11 Ti0 1.978295 1_555
O11 Ti15 1.980024 1_555
O11 Ti7 2.159722 1_455
O11 Ti8 2.180624 1_455
O12 Ti2 1.978295 1_555
O12 Ti12 1.980024 1_555
O12 Ti5 2.159722 1_455
O12 Ti8 2.180624 1_465
O13 Ti1 1.964307 1_555
O13 Ti14 2.045218 1_555
O13 Ti9 2.119718 1_555
O13 Ti10 2.172453 1_555
O14 Ti5 1.847452 1_555
O14 Ti10 1.965710 1_555
O14 Ti9 2.182813 1_555
O15 Ti7 1.847452 1_555
O15 Ti10 1.965710 1_555
O15 Ti6 2.182813 1_555
O16 Ti17 1.978295 1_555
O16 Ti7 1.980024 1_555
O16 Ti15 2.159722 1_655
O16 Ti11 2.180624 1_655
O17 Ti21 1.978295 1_555
O17 Ti5 1.980024 1_555
O17 Ti12 2.159722 1_655
O17 Ti11 2.180624 1_655
O18 Ti14 1.901781 1_555
O18 Ti11 1.938975 1_555
O18 Ti12 2.101292 1_555
O19 Ti12 1.847452 1_555
O19 Ti16 1.965710 1_565
O19 Ti14 2.182813 1_555
O20 Ti13 1.901781 1_555
O20 Ti11 1.938975 1_555
O20 Ti15 2.101292 1_555
O21 Ti19 1.964307 1_555
O21 Ti9 2.045218 1_555
O21 Ti14 2.119718 1_555
O21 Ti16 2.172453 1_565
O22 Ti15 1.847452 1_555
O22 Ti16 1.965710 1_555
O22 Ti13 2.182813 1_555
O23 Ti20 1.964307 1_555
O23 Ti6 2.045218 1_555
O23 Ti13 2.119718 1_555
O23 Ti16 2.172453 1_555
O24 Ti24 1.966102 1_555
O24 Ti15 1.966102 1_555
O24 Ti18 2.171183 1_455
O24 Ti17 2.220686 1_455
O25 Ti23 1.966102 1_555
O25 Ti12 1.966102 1_555
O25 Ti18 2.171183 1_465
O25 Ti21 2.220686 1_455
O26 Ti22 1.903537 1_555
O26 Ti13 1.903537 1_555
O26 Ti20 2.118174 1_555
O27 Ti17 1.779226 1_555
O27 Ti20 1.905832 1_555
O28 Ti19 1.920372 1_555
O28 Ti18 1.923364 1_565
O28 Ti21 2.095968 1_555
O29 Ti20 1.920372 1_555
O29 Ti18 1.923364 1_555
O29 Ti17 2.095968 1_555
O30 Ti27 1.903537 1_555
O30 Ti14 1.903537 1_555
O30 Ti19 2.118174 1_555
O31 Ti21 1.779226 1_555
O31 Ti19 1.905832 1_555
O32 Ti17 1.978295 1_555
O32 Ti28 1.980024 1_555
O32 Ti24 2.159722 1_655
O32 Ti26 2.180624 1_655
O33 Ti22 1.901781 1_555
O33 Ti26 1.938975 1_555
O33 Ti24 2.101292 1_555
O34 Ti24 1.847452 1_555
O34 Ti25 1.965710 1_555
O34 Ti22 2.182813 1_555
O35 Ti23 1.847452 1_555
O35 Ti25 1.965710 1_565
O35 Ti27 2.182813 1_555
O36 Ti20 1.964307 1_555
O36 Ti30 2.045218 1_555
O36 Ti22 2.119718 1_555
O36 Ti25 2.172453 1_555
O37 Ti19 1.964307 1_555
O37 Ti33 2.045218 1_555
O37 Ti27 2.119718 1_555
O37 Ti25 2.172453 1_565
O38 Ti21 1.978295 1_555
O38 Ti31 1.980024 1_555
O38 Ti23 2.159722 1_655
O38 Ti26 2.180624 1_655
O39 Ti27 1.901781 1_555
O39 Ti26 1.938975 1_555
O39 Ti23 2.101292 1_555
O40 Ti4 1.964307 1_556
O40 Ti22 2.045218 1_555
O40 Ti30 2.119718 1_555
O40 Ti29 2.172453 1_555
O41 Ti1 1.964307 1_556
O41 Ti27 2.045218 1_555
O41 Ti33 2.119718 1_555
O41 Ti29 2.172453 1_555
O42 Ti28 1.847452 1_555
O42 Ti29 1.965710 1_555
O42 Ti30 2.182813 1_555
O43 Ti31 1.847452 1_555
O43 Ti29 1.965710 1_555
O43 Ti33 2.182813 1_555
O44 Ti33 1.901781 1_555
O44 Ti32 1.938975 1_565
O44 Ti31 2.101292 1_555
O45 Ti30 1.901781 1_555
O45 Ti32 1.938975 1_555
O45 Ti28 2.101292 1_555
O46 Ti0 1.978295 1_556
O46 Ti24 1.980024 1_555
O46 Ti28 2.159722 1_455
O46 Ti32 2.180624 1_455
O47 Ti2 1.978295 1_556
O47 Ti23 1.980024 1_555
O47 Ti31 2.159722 1_455
O47 Ti32 2.180624 1_465
