# generated using pymatgen
data_NaMn3O6
_symmetry_space_group_name_H-M   'P 1'
_cell_length_a   13.80370068
_cell_length_b   13.77825496
_cell_length_c   6.00747292
_cell_angle_alpha   77.65685931
_cell_angle_beta   77.18313731
_cell_angle_gamma   25.16000338
_symmetry_Int_Tables_number   1
_chemical_formula_structural   NaMn3O6
_chemical_formula_sum   'Na4 Mn12 O24'
_cell_volume   473.42417821
_cell_formula_units_Z   4
loop_
 _symmetry_equiv_pos_site_id
 _symmetry_equiv_pos_as_xyz
  1  'x, y, z'
loop_
 _atom_site_type_symbol
 _atom_site_label
 _atom_site_symmetry_multiplicity
 _atom_site_fract_x
 _atom_site_fract_y
 _atom_site_fract_z
 _atom_site_occupancy
  Na  Na0  1  0.83300800  0.83300800  0.16699200  1
  Na  Na1  1  0.41699200  0.41699200  0.08300800  1
  Na  Na2  1  0.08300800  0.08300800  0.41699200  1
  Na  Na3  1  0.16699200  0.16699200  0.83300800  1
  Mn  Mn0  1  0.46710500  0.95476200  0.28195700  1
  Mn  Mn1  1  0.95476200  0.46710500  0.29617600  1
  Mn  Mn2  1  0.28195700  0.29617600  0.46710500  1
  Mn  Mn3  1  0.29617600  0.28195700  0.95476200  1
  Mn  Mn4  1  0.62500000  0.12500000  0.62500000  1
  Mn  Mn5  1  0.12500000  0.62500000  0.62500000  1
  Mn  Mn6  1  0.96804300  0.95382400  0.78289500  1
  Mn  Mn7  1  0.95382400  0.96804300  0.29523800  1
  Mn  Mn8  1  0.29523800  0.78289500  0.95382400  1
  Mn  Mn9  1  0.78289500  0.29523800  0.96804300  1
  Mn  Mn10  1  0.62500000  0.62500000  0.62500000  1
  Mn  Mn11  1  0.62500000  0.62500000  0.12500000  1
  O  O0  1  0.21102500  0.21916900  0.49072900  1
  O  O1  1  0.21916900  0.21102500  0.07907700  1
  O  O2  1  0.49072900  0.07907700  0.21102500  1
  O  O3  1  0.07907700  0.49072900  0.21916900  1
  O  O4  1  0.49817900  0.08439500  0.69647300  1
  O  O5  1  0.08439500  0.49817900  0.72095300  1
  O  O6  1  0.35022900  0.37633900  0.41219700  1
  O  O7  1  0.37633900  0.35022900  0.86123500  1
  O  O8  1  0.87366100  0.89977100  0.38876500  1
  O  O9  1  0.89977100  0.87366100  0.83780300  1
  O  O10  1  0.75182100  0.16560500  0.55352700  1
  O  O11  1  0.16560500  0.75182100  0.52904700  1
  O  O12  1  0.17092300  0.75927100  0.03083100  1
  O  O13  1  0.75927100  0.17092300  0.03897500  1
  O  O14  1  0.03897500  0.03083100  0.75927100  1
  O  O15  1  0.03083100  0.03897500  0.17092300  1
  O  O16  1  0.52904700  0.55352700  0.16560500  1
  O  O17  1  0.55352700  0.52904700  0.75182100  1
  O  O18  1  0.38876500  0.83780300  0.87366100  1
  O  O19  1  0.83780300  0.38876500  0.89977100  1
  O  O20  1  0.41219700  0.86123500  0.35022900  1
  O  O21  1  0.86123500  0.41219700  0.37633900  1
  O  O22  1  0.72095300  0.69647300  0.08439500  1
  O  O23  1  0.69647300  0.72095300  0.49817900  1
loop_
_geom_bond_atom_site_label_1
_geom_bond_atom_site_label_2
_geom_bond_distance
_geom_bond_site_symmetry_2
Na0 O2 2.172297 1_565
Na0 O3 2.172297 1_655
Na0 O9 2.173983 1_554
Na0 O8 2.173983 1_555
Na1 O13 2.172297 1_555
Na1 O12 2.172297 1_555
Na1 O6 2.173983 1_555
Na1 O7 2.173983 1_554
Na2 O15 2.172297 1_555
Na2 O14 2.172297 1_555
Na2 O20 2.173983 1_545
Na2 O21 2.173983 1_455
Na3 O0 2.172297 1_555
Na3 O1 2.172297 1_556
Na3 O18 2.173983 1_545
Na3 O19 2.173983 1_455
Mn0 O23 1.913468 1_555
Mn0 O22 1.933515 1_555
Mn0 O1 1.949623 1_565
Mn0 O20 1.951272 1_555
Mn0 O2 1.964480 1_565
Mn0 O0 2.003685 1_565
Mn1 O22 1.913468 1_555
Mn1 O23 1.933515 1_555
Mn1 O0 1.949623 1_655
Mn1 O21 1.951272 1_555
Mn1 O3 1.964480 1_655
Mn1 O1 2.003685 1_655
Mn2 O4 1.913468 1_555
Mn2 O5 1.933515 1_555
Mn2 O3 1.949623 1_555
Mn2 O6 1.951272 1_555
Mn2 O0 1.964480 1_555
Mn2 O2 2.003685 1_555
Mn3 O5 1.913468 1_555
Mn3 O4 1.933515 1_555
Mn3 O2 1.949623 1_556
Mn3 O7 1.951272 1_555
Mn3 O1 1.964480 1_556
Mn3 O3 2.003685 1_556
Mn4 O7 1.966028 1_555
Mn4 O8 1.966028 1_545
Mn4 O9 2.119905 1_545
Mn4 O6 2.119905 1_555
Mn4 O10 2.213307 1_555
Mn4 O4 2.213307 1_555
Mn5 O9 1.966028 1_455
Mn5 O6 1.966028 1_555
Mn5 O8 2.119905 1_455
Mn5 O7 2.119905 1_555
Mn5 O11 2.213307 1_555
Mn5 O5 2.213307 1_555
Mn6 O10 1.913468 1_565
Mn6 O11 1.933515 1_655
Mn6 O12 1.949623 1_656
Mn6 O9 1.951272 1_555
Mn6 O14 1.964480 1_665
Mn6 O13 2.003685 1_566
Mn7 O11 1.913468 1_655
Mn7 O10 1.933515 1_565
Mn7 O13 1.949623 1_565
Mn7 O8 1.951272 1_555
Mn7 O15 1.964480 1_665
Mn7 O12 2.003685 1_655
Mn8 O16 1.913468 1_556
Mn8 O17 1.933515 1_555
Mn8 O14 1.949623 1_565
Mn8 O18 1.951272 1_555
Mn8 O12 1.964480 1_556
Mn8 O15 2.003685 1_566
Mn9 O17 1.913468 1_555
Mn9 O16 1.933515 1_556
Mn9 O15 1.949623 1_656
Mn9 O19 1.951272 1_555
Mn9 O13 1.964480 1_556
Mn9 O14 2.003685 1_655
Mn10 O18 1.966028 1_555
Mn10 O21 1.966028 1_555
Mn10 O20 2.119905 1_555
Mn10 O19 2.119905 1_555
Mn10 O17 2.213307 1_555
Mn10 O23 2.213307 1_555
Mn11 O20 1.966028 1_555
Mn11 O19 1.966028 1_554
Mn11 O21 2.119905 1_555
Mn11 O18 2.119905 1_554
Mn11 O22 2.213307 1_555
Mn11 O16 2.213307 1_555
