# generated using pymatgen
data_Li3FeNi3O8
_symmetry_space_group_name_H-M   'P 1'
_cell_length_a   5.77855215
_cell_length_b   5.77855215
_cell_length_c   9.42853400
_cell_angle_alpha   90.00000000
_cell_angle_beta   90.00000000
_cell_angle_gamma   120.00000169
_symmetry_Int_Tables_number   1
_chemical_formula_structural   Li3FeNi3O8
_chemical_formula_sum   'Li6 Fe2 Ni6 O16'
_cell_volume   272.65462537
_cell_formula_units_Z   2
loop_
 _symmetry_equiv_pos_site_id
 _symmetry_equiv_pos_as_xyz
  1  'x, y, z'
loop_
 _atom_site_type_symbol
 _atom_site_label
 _atom_site_symmetry_multiplicity
 _atom_site_fract_x
 _atom_site_fract_y
 _atom_site_fract_z
 _atom_site_occupancy
  Li  Li0  1  0.83255000  0.16745000  0.55167700  1
  Li  Li1  1  0.83255000  0.66509900  0.55167700  1
  Li  Li2  1  0.33490100  0.16745000  0.55167700  1
  Li  Li3  1  0.66509900  0.83255000  0.05167700  1
  Li  Li4  1  0.16745000  0.33490100  0.05167700  1
  Li  Li5  1  0.16745000  0.83255000  0.05167700  1
  Fe  Fe0  1  0.66666700  0.33333300  0.01388100  1
  Fe  Fe1  1  0.33333300  0.66666700  0.51388100  1
  Ni  Ni0  1  0.83193800  0.16806200  0.28668600  1
  Ni  Ni1  1  0.83193800  0.66387600  0.28668600  1
  Ni  Ni2  1  0.33612400  0.16806200  0.28668600  1
  Ni  Ni3  1  0.66387600  0.83193800  0.78668600  1
  Ni  Ni4  1  0.16806200  0.33612400  0.78668600  1
  Ni  Ni5  1  0.16806200  0.83193800  0.78668600  1
  O  O0  1  0.00000000  0.00000000  0.68760100  1
  O  O1  1  0.00000000  0.00000000  0.18760100  1
  O  O2  1  0.83597700  0.16402300  0.91124500  1
  O  O3  1  0.97011600  0.48505800  0.14693100  1
  O  O4  1  0.83597700  0.67195400  0.91124500  1
  O  O5  1  0.66666700  0.33333300  0.39366600  1
  O  O6  1  0.51494200  0.02988400  0.14693100  1
  O  O7  1  0.51494200  0.48505800  0.14693100  1
  O  O8  1  0.67195400  0.83597700  0.41124500  1
  O  O9  1  0.32804600  0.16402300  0.91124500  1
  O  O10  1  0.48505800  0.51494200  0.64693100  1
  O  O11  1  0.33333300  0.66666700  0.89366600  1
  O  O12  1  0.48505800  0.97011600  0.64693100  1
  O  O13  1  0.16402300  0.32804600  0.41124500  1
  O  O14  1  0.02988400  0.51494200  0.64693100  1
  O  O15  1  0.16402300  0.83597700  0.41124500  1
loop_
_geom_bond_atom_site_label_1
_geom_bond_atom_site_label_2
_geom_bond_distance
_geom_bond_site_symmetry_2
Li0 O14 1.961944 1_655
Li0 O12 1.961944 1_545
Li0 O0 2.109802 1_655
Li0 O13 2.122664 1_655
Li0 O8 2.122664 1_545
Li0 O5 2.230711 1_555
Li1 O14 1.961939 1_655
Li1 O10 1.961944 1_555
Li1 O0 2.109806 1_665
Li1 O15 2.122664 1_655
Li1 O8 2.122668 1_555
Li1 O5 2.230711 1_555
Li2 O12 1.961939 1_545
Li2 O10 1.961944 1_555
Li2 O0 2.109806 1_555
Li2 O15 2.122664 1_545
Li2 O13 2.122668 1_555
Li2 O5 2.230711 1_555
Li3 O6 1.961939 1_565
Li3 O7 1.961944 1_555
Li3 O1 2.109806 1_665
Li3 O2 2.122664 1_564
Li3 O4 2.122668 1_554
Li3 O11 2.230711 1_554
Li4 O3 1.961939 1_455
Li4 O7 1.961944 1_555
Li4 O1 2.109806 1_555
Li4 O2 2.122664 1_454
Li4 O9 2.122668 1_554
Li4 O11 2.230711 1_554
Li5 O6 1.961944 1_565
Li5 O3 1.961944 1_455
Li5 O1 2.109802 1_565
Li5 O9 2.122664 1_564
Li5 O4 2.122664 1_454
Li5 O11 2.230711 1_554
Fe0 O2 1.951425 1_554
Fe0 O4 1.951430 1_554
Fe0 O9 1.951430 1_554
Fe0 O3 1.969707 1_555
Fe0 O6 1.969707 1_555
Fe0 O7 1.969711 1_555
Fe1 O15 1.951425 1_555
Fe1 O8 1.951430 1_555
Fe1 O13 1.951430 1_555
Fe1 O12 1.969707 1_555
Fe1 O14 1.969707 1_555
Fe1 O10 1.969711 1_555
Ni0 O1 1.924112 1_655
Ni0 O5 1.937430 1_555
Ni0 O13 2.035263 1_655
Ni0 O8 2.035263 1_545
Ni0 O6 2.065584 1_555
Ni0 O3 2.065584 1_555
Ni1 O1 1.924111 1_665
Ni1 O5 1.937434 1_555
Ni1 O15 2.035263 1_655
Ni1 O8 2.035263 1_555
Ni1 O7 2.065584 1_555
Ni1 O3 2.065584 1_555
Ni2 O1 1.924111 1_555
Ni2 O5 1.937434 1_555
Ni2 O15 2.035263 1_545
Ni2 O13 2.035263 1_555
Ni2 O7 2.065584 1_555
Ni2 O6 2.065584 1_555
Ni3 O0 1.924111 1_665
Ni3 O11 1.937434 1_555
Ni3 O2 2.035263 1_565
Ni3 O4 2.035263 1_555
Ni3 O10 2.065584 1_555
Ni3 O12 2.065584 1_555
Ni4 O0 1.924111 1_555
Ni4 O11 1.937434 1_555
Ni4 O2 2.035263 1_455
Ni4 O9 2.035263 1_555
Ni4 O10 2.065584 1_555
Ni4 O14 2.065584 1_555
Ni5 O0 1.924112 1_565
Ni5 O11 1.937430 1_555
Ni5 O4 2.035263 1_455
Ni5 O9 2.035263 1_565
Ni5 O14 2.065584 1_555
Ni5 O12 2.065584 1_555
