# generated using pymatgen
data_Yb2P4O13
_symmetry_space_group_name_H-M   'P 1'
_cell_length_a   6.89062725
_cell_length_b   6.89062725
_cell_length_c   13.13885613
_cell_angle_alpha   75.52266117
_cell_angle_beta   75.52266117
_cell_angle_gamma   59.33767310
_symmetry_Int_Tables_number   1
_chemical_formula_structural   Yb2P4O13
_chemical_formula_sum   'Yb4 P8 O26'
_cell_volume   513.93112269
_cell_formula_units_Z   2
loop_
 _symmetry_equiv_pos_site_id
 _symmetry_equiv_pos_as_xyz
  1  'x, y, z'
loop_
 _atom_site_type_symbol
 _atom_site_label
 _atom_site_symmetry_multiplicity
 _atom_site_fract_x
 _atom_site_fract_y
 _atom_site_fract_z
 _atom_site_occupancy
  Yb  Yb0  1  0.67913100  0.67506800  0.45605000  1
  Yb  Yb1  1  0.32493200  0.32086900  0.04395000  1
  Yb  Yb2  1  0.67506800  0.67913100  0.95605000  1
  Yb  Yb3  1  0.32086900  0.32493200  0.54395000  1
  P  P0  1  0.83407200  0.14061200  0.36619900  1
  P  P1  1  0.14061200  0.83407200  0.86619900  1
  P  P2  1  0.22205600  0.24055800  0.34038000  1
  P  P3  1  0.75944200  0.77794400  0.15962000  1
  P  P4  1  0.24055800  0.22205600  0.84038000  1
  P  P5  1  0.77794400  0.75944200  0.65962000  1
  P  P6  1  0.85938800  0.16592800  0.13380100  1
  P  P7  1  0.16592800  0.85938800  0.63380100  1
  O  O0  1  0.67435600  0.32212500  0.43665100  1
  O  O1  1  0.85998500  0.90404900  0.40119800  1
  O  O2  1  0.32212500  0.67435600  0.93665100  1
  O  O3  1  0.89805800  0.91023800  0.15569700  1
  O  O4  1  0.07137900  0.43868800  0.40353300  1
  O  O5  1  0.42206300  0.07154000  0.40232600  1
  O  O6  1  0.30111300  0.30673600  0.22530000  1
  O  O7  1  0.90404900  0.85998500  0.90119800  1
  O  O8  1  0.91023800  0.89805800  0.65569700  1
  O  O9  1  0.69326400  0.69888700  0.27470000  1
  O  O10  1  0.92846000  0.57793700  0.09767400  1
  O  O11  1  0.56131200  0.92862100  0.09646700  1
  O  O12  1  0.43868800  0.07137900  0.90353300  1
  O  O13  1  0.07154000  0.42206300  0.90232600  1
  O  O14  1  0.30673600  0.30111300  0.72530000  1
  O  O15  1  0.08976200  0.10194200  0.34430300  1
  O  O16  1  0.09595100  0.14001500  0.09880200  1
  O  O17  1  0.69888700  0.69326400  0.77470000  1
  O  O18  1  0.57793700  0.92846000  0.59767400  1
  O  O19  1  0.92862100  0.56131200  0.59646700  1
  O  O20  1  0.75700200  0.24299800  0.25000000  1
  O  O21  1  0.10194200  0.08976200  0.84430300  1
  O  O22  1  0.67787500  0.32564400  0.06334900  1
  O  O23  1  0.14001500  0.09595100  0.59880200  1
  O  O24  1  0.24299800  0.75700200  0.75000000  1
  O  O25  1  0.32564400  0.67787500  0.56334900  1
loop_
_geom_bond_atom_site_label_1
_geom_bond_atom_site_label_2
_geom_bond_distance
_geom_bond_site_symmetry_2
O0 P0 1.515896 1_555
O0 Yb3 2.483827 1_555
O0 Yb0 2.525154 1_555
O1 P0 1.506606 1_565
O1 Yb0 2.355808 1_555
O2 P1 1.515896 1_555
O2 Yb1 2.483827 1_556
O2 Yb2 2.525154 1_555
O3 P6 1.601248 1_565
O3 P3 1.608084 1_555
O4 P2 1.523239 1_555
O4 Yb0 2.360860 1_455
O4 Yb3 2.542030 1_555
O5 P2 1.538822 1_555
O5 Yb0 2.413428 1_545
O5 Yb3 2.594468 1_555
O6 P2 1.512513 1_555
O6 Yb1 2.327784 1_555
O7 P1 1.506606 1_655
O7 Yb2 2.355808 1_555
O8 P7 1.601248 1_655
O8 P5 1.608084 1_555
O9 P3 1.512513 1_555
O9 Yb0 2.327784 1_555
O10 P3 1.538822 1_555
O10 Yb1 2.413428 1_655
O10 Yb2 2.594468 1_554
O11 P3 1.523239 1_555
O11 Yb1 2.360860 1_565
O11 Yb2 2.542030 1_554
O12 P4 1.523239 1_555
O12 Yb2 2.360860 1_545
O12 Yb1 2.542030 1_556
O13 P4 1.538822 1_555
O13 Yb2 2.413428 1_455
O13 Yb1 2.594468 1_556
O14 P4 1.512513 1_555
O14 Yb3 2.327784 1_555
O15 P0 1.601248 1_455
O15 P2 1.608084 1_555
O16 P6 1.506606 1_455
O16 Yb1 2.355808 1_555
O17 P5 1.512513 1_555
O17 Yb2 2.327784 1_555
O18 P5 1.538822 1_555
O18 Yb3 2.413428 1_565
O18 Yb0 2.594468 1_555
O19 P5 1.523239 1_555
O19 Yb3 2.360860 1_655
O19 Yb0 2.542030 1_555
O20 P6 1.611005 1_555
O20 P0 1.611005 1_555
O21 P1 1.601248 1_545
O21 P4 1.608084 1_555
O22 P6 1.515896 1_555
O22 Yb2 2.483827 1_554
O22 Yb1 2.525154 1_555
O23 P7 1.506606 1_545
O23 Yb3 2.355808 1_555
O24 P7 1.611005 1_555
O24 P1 1.611005 1_555
O25 P7 1.515896 1_555
O25 Yb0 2.483827 1_555
O25 Yb3 2.525154 1_555
