# generated using pymatgen
data_Na3SiH5O6
_symmetry_space_group_name_H-M   'P 1'
_cell_length_a   6.16233900
_cell_length_b   10.55657700
_cell_length_c   18.90402200
_cell_angle_alpha   90.00000000
_cell_angle_beta   90.00000000
_cell_angle_gamma   90.00000000
_symmetry_Int_Tables_number   1
_chemical_formula_structural   Na3SiH5O6
_chemical_formula_sum   'Na24 Si8 H40 O48'
_cell_volume   1229.76724030
_cell_formula_units_Z   8
loop_
 _symmetry_equiv_pos_site_id
 _symmetry_equiv_pos_as_xyz
  1  'x, y, z'
loop_
 _atom_site_type_symbol
 _atom_site_label
 _atom_site_symmetry_multiplicity
 _atom_site_fract_x
 _atom_site_fract_y
 _atom_site_fract_z
 _atom_site_occupancy
  Na  Na0  1  0.78221900  0.50739000  0.18287700  1
  Na  Na1  1  0.21778100  0.00739000  0.31712300  1
  Na  Na2  1  0.71778100  0.49261000  0.68287700  1
  Na  Na3  1  0.28221900  0.99261000  0.81712300  1
  Na  Na4  1  0.21778100  0.49261000  0.81712300  1
  Na  Na5  1  0.78221900  0.99261000  0.68287700  1
  Na  Na6  1  0.28221900  0.50739000  0.31712300  1
  Na  Na7  1  0.71778100  0.00739000  0.18287700  1
  Na  Na8  1  0.96912800  0.78463500  0.10913600  1
  Na  Na9  1  0.03087200  0.28463500  0.39086400  1
  Na  Na10  1  0.53087200  0.21536500  0.60913600  1
  Na  Na11  1  0.46912800  0.71536500  0.89086400  1
  Na  Na12  1  0.03087200  0.21536500  0.89086400  1
  Na  Na13  1  0.96912800  0.71536500  0.60913600  1
  Na  Na14  1  0.46912800  0.78463500  0.39086400  1
  Na  Na15  1  0.53087200  0.28463500  0.10913600  1
  Na  Na16  1  0.26186700  0.45022000  0.98526300  1
  Na  Na17  1  0.73813300  0.95022000  0.51473700  1
  Na  Na18  1  0.23813300  0.54978000  0.48526300  1
  Na  Na19  1  0.76186700  0.04978000  0.01473700  1
  Na  Na20  1  0.73813300  0.54978000  0.01473700  1
  Na  Na21  1  0.26186700  0.04978000  0.48526300  1
  Na  Na22  1  0.76186700  0.45022000  0.51473700  1
  Na  Na23  1  0.23813300  0.95022000  0.98526300  1
  Si  Si0  1  0.27191400  0.57076000  0.12888500  1
  Si  Si1  1  0.72808600  0.07076000  0.37111500  1
  Si  Si2  1  0.22808600  0.42924000  0.62888500  1
  Si  Si3  1  0.77191400  0.92924000  0.87111500  1
  Si  Si4  1  0.72808600  0.42924000  0.87111500  1
  Si  Si5  1  0.27191400  0.92924000  0.62888500  1
  Si  Si6  1  0.77191400  0.57076000  0.37111500  1
  Si  Si7  1  0.22808600  0.07076000  0.12888500  1
  H  H0  1  0.18195400  0.39070900  0.18678600  1
  H  H1  1  0.81804600  0.89070900  0.31321400  1
  H  H2  1  0.31804600  0.60929100  0.68678600  1
  H  H3  1  0.68195400  0.10929100  0.81321400  1
  H  H4  1  0.81804600  0.60929100  0.81321400  1
  H  H5  1  0.18195400  0.10929100  0.68678600  1
  H  H6  1  0.68195400  0.39070900  0.31321400  1
  H  H7  1  0.31804600  0.89070900  0.18678600  1
  H  H8  1  0.11397700  0.66703800  0.00709000  1
  H  H9  1  0.88602300  0.16703800  0.49291000  1
  H  H10  1  0.38602300  0.33296200  0.50709000  1
  H  H11  1  0.61397700  0.83296200  0.99291000  1
  H  H12  1  0.88602300  0.33296200  0.99291000  1
  H  H13  1  0.11397700  0.83296200  0.50709000  1
  H  H14  1  0.61397700  0.66703800  0.49291000  1
  H  H15  1  0.38602300  0.16703800  0.00709000  1
  H  H16  1  0.52858100  0.76584800  0.06639100  1
  H  H17  1  0.47141900  0.26584800  0.43360900  1
  H  H18  1  0.97141900  0.23415200  0.56639100  1
  H  H19  1  0.02858100  0.73415200  0.93360900  1
  H  H20  1  0.47141900  0.23415200  0.93360900  1
  H  H21  1  0.52858100  0.73415200  0.56639100  1
  H  H22  1  0.02858100  0.76584800  0.43360900  1
  H  H23  1  0.97141900  0.26584800  0.06639100  1
  H  H24  1  0.56772200  0.73123100  0.18874600  1
  H  H25  1  0.43227800  0.23123100  0.31125400  1
  H  H26  1  0.93227800  0.26876900  0.68874600  1
  H  H27  1  0.06772200  0.76876900  0.81125400  1
  H  H28  1  0.43227800  0.26876900  0.81125400  1
  H  H29  1  0.56772200  0.76876900  0.68874600  1
  H  H30  1  0.06772200  0.73123100  0.31125400  1
  H  H31  1  0.93227800  0.23123100  0.18874600  1
  H  H32  1  0.24780800  0.73178700  0.24730600  1
  H  H33  1  0.75219200  0.23178700  0.25269400  1
  H  H34  1  0.25219200  0.26821300  0.74730600  1
  H  H35  1  0.74780800  0.76821300  0.75269400  1
  H  H36  1  0.75219200  0.26821300  0.75269400  1
  H  H37  1  0.24780800  0.76821300  0.74730600  1
  H  H38  1  0.74780800  0.73178700  0.25269400  1
  H  H39  1  0.25219200  0.23178700  0.24730600  1
  O  O0  1  0.48333600  0.49738500  0.09800200  1
  O  O1  1  0.51666400  0.99738500  0.40199800  1
  O  O2  1  0.01666400  0.50261500  0.59800200  1
  O  O3  1  0.98333600  0.00261500  0.90199800  1
  O  O4  1  0.51666400  0.50261500  0.90199800  1
  O  O5  1  0.48333600  0.00261500  0.59800200  1
  O  O6  1  0.98333600  0.49738500  0.40199800  1
  O  O7  1  0.01666400  0.99738500  0.09800200  1
  O  O8  1  0.31938000  0.71306000  0.16122200  1
  O  O9  1  0.68062000  0.21306000  0.33877800  1
  O  O10  1  0.18062000  0.28694000  0.66122200  1
  O  O11  1  0.81938000  0.78694000  0.83877800  1
  O  O12  1  0.68062000  0.28694000  0.83877800  1
  O  O13  1  0.31938000  0.78694000  0.66122200  1
  O  O14  1  0.81938000  0.71306000  0.33877800  1
  O  O15  1  0.18062000  0.21306000  0.16122200  1
  O  O16  1  0.07202800  0.57871400  0.07133800  1
  O  O17  1  0.92797200  0.07871400  0.42866200  1
  O  O18  1  0.42797200  0.42128600  0.57133800  1
  O  O19  1  0.57202800  0.92128600  0.92866200  1
  O  O20  1  0.92797200  0.42128600  0.92866200  1
  O  O21  1  0.07202800  0.92128600  0.57133800  1
  O  O22  1  0.57202800  0.57871400  0.42866200  1
  O  O23  1  0.42797200  0.07871400  0.07133800  1
  O  O24  1  0.17189500  0.48202600  0.19810000  1
  O  O25  1  0.82810500  0.98202600  0.30190000  1
  O  O26  1  0.32810500  0.51797400  0.69810000  1
  O  O27  1  0.67189500  0.01797400  0.80190000  1
  O  O28  1  0.82810500  0.51797400  0.80190000  1
  O  O29  1  0.17189500  0.01797400  0.69810000  1
  O  O30  1  0.67189500  0.48202600  0.30190000  1
  O  O31  1  0.32810500  0.98202600  0.19810000  1
  O  O32  1  0.65098600  0.77008600  0.03330400  1
  O  O33  1  0.34901400  0.27008600  0.46669600  1
  O  O34  1  0.84901400  0.22991400  0.53330400  1
  O  O35  1  0.15098600  0.72991400  0.96669600  1
  O  O36  1  0.34901400  0.22991400  0.96669600  1
  O  O37  1  0.65098600  0.72991400  0.53330400  1
  O  O38  1  0.15098600  0.77008600  0.46669600  1
  O  O39  1  0.84901400  0.27008600  0.03330400  1
  O  O40  1  0.72736400  0.74443500  0.20029300  1
  O  O41  1  0.27263600  0.24443500  0.29970700  1
  O  O42  1  0.77263600  0.25556500  0.70029300  1
  O  O43  1  0.22736400  0.75556500  0.79970700  1
  O  O44  1  0.27263600  0.25556500  0.79970700  1
  O  O45  1  0.72736400  0.75556500  0.70029300  1
  O  O46  1  0.22736400  0.74443500  0.29970700  1
  O  O47  1  0.77263600  0.24443500  0.20029300  1
loop_
_geom_bond_atom_site_label_1
_geom_bond_atom_site_label_2
_geom_bond_distance
_geom_bond_site_symmetry_2
Na0 O30 2.365683 1_555
Na0 O24 2.433275 1_655
Na0 O0 2.444955 1_555
Na0 O40 2.546485 1_555
Na0 O47 2.795984 1_555
Na0 O16 2.863962 1_655
Na1 O31 2.365683 1_545
Na1 O25 2.433275 1_445
Na1 O1 2.444955 1_545
Na1 O41 2.546485 1_555
Na1 O46 2.795984 1_545
Na1 O17 2.863962 1_455
Na2 O28 2.365683 1_555
Na2 O26 2.433275 1_555
Na2 O2 2.444955 1_655
Na2 O42 2.546485 1_555
Na2 O45 2.795984 1_555
Na2 O18 2.863962 1_555
Na3 O29 2.365683 1_565
Na3 O27 2.433275 1_565
Na3 O3 2.444955 1_465
Na3 O43 2.546485 1_555
Na3 O44 2.795984 1_565
Na3 O19 2.863962 1_555
Na4 O26 2.365683 1_555
Na4 O28 2.433275 1_455
Na4 O4 2.444955 1_555
Na4 O44 2.546485 1_555
Na4 O43 2.795984 1_555
Na4 O20 2.863962 1_455
Na5 O27 2.365683 1_565
Na5 O29 2.433275 1_665
Na5 O5 2.444955 1_565
Na5 O45 2.546485 1_555
Na5 O42 2.795984 1_565
Na5 O21 2.863962 1_655
Na6 O24 2.365683 1_555
Na6 O30 2.433275 1_555
Na6 O6 2.444955 1_455
Na6 O46 2.546485 1_555
Na6 O41 2.795984 1_555
Na6 O22 2.863962 1_555
Na7 O25 2.365683 1_545
Na7 O31 2.433275 1_545
Na7 O7 2.444955 1_645
Na7 O47 2.546485 1_555
Na7 O40 2.795984 1_545
Na7 O23 2.863962 1_555
Na8 O7 2.274693 1_655
Na8 O40 2.317159 1_555
Na8 O16 2.374478 1_655
Na8 O32 2.433547 1_555
Na8 O8 2.489776 1_655
Na9 O6 2.274693 1_455
Na9 O41 2.317159 1_555
Na9 O17 2.374478 1_455
Na9 O33 2.433547 1_555
Na9 O9 2.489776 1_455
Na10 O5 2.274693 1_555
Na10 O42 2.317159 1_555
Na10 O18 2.374478 1_555
Na10 O34 2.433547 1_555
Na10 O10 2.489776 1_555
Na11 O4 2.274693 1_555
Na11 O43 2.317159 1_555
Na11 O19 2.374478 1_555
Na11 O35 2.433547 1_555
Na11 O11 2.489776 1_555
Na12 O3 2.274693 1_455
Na12 O44 2.317159 1_555
Na12 O20 2.374478 1_455
Na12 O36 2.433547 1_555
Na12 O12 2.489776 1_455
Na13 O2 2.274693 1_655
Na13 O45 2.317159 1_555
Na13 O21 2.374478 1_655
Na13 O37 2.433547 1_555
Na13 O13 2.489776 1_655
Na14 O1 2.274693 1_555
Na14 O46 2.317159 1_555
Na14 O22 2.374478 1_555
Na14 O38 2.433547 1_555
Na14 O14 2.489776 1_555
Na15 O0 2.274693 1_555
Na15 O47 2.317159 1_555
Na15 O23 2.374478 1_555
Na15 O39 2.433547 1_555
Na15 O15 2.489776 1_555
Na16 O4 2.291048 1_555
Na16 O20 2.339183 1_455
Na16 O36 2.412544 1_555
Na16 O16 2.419957 1_556
Na16 O0 2.579263 1_556
Na17 O5 2.291048 1_565
Na17 O21 2.339183 1_655
Na17 O37 2.412544 1_555
Na17 O17 2.419957 1_565
Na17 O1 2.579263 1_555
Na18 O6 2.291048 1_455
Na18 O22 2.339183 1_555
Na18 O38 2.412544 1_555
Na18 O18 2.419957 1_555
Na18 O2 2.579263 1_555
Na19 O7 2.291048 1_645
Na19 O23 2.339183 1_555
Na19 O39 2.412544 1_555
Na19 O19 2.419957 1_544
Na19 O3 2.579263 1_554
Na20 O0 2.291048 1_555
Na20 O16 2.339183 1_655
Na20 O32 2.412544 1_555
Na20 O20 2.419957 1_554
Na20 O4 2.579263 1_554
Na21 O1 2.291048 1_545
Na21 O17 2.339183 1_455
Na21 O33 2.412544 1_555
Na21 O21 2.419957 1_545
Na21 O5 2.579263 1_555
Na22 O2 2.291048 1_655
Na22 O18 2.339183 1_555
Na22 O34 2.412544 1_555
Na22 O22 2.419957 1_555
Na22 O6 2.579263 1_555
Na23 O3 2.291048 1_465
Na23 O19 2.339183 1_555
Na23 O35 2.412544 1_555
Na23 O23 2.419957 1_566
Na23 O7 2.579263 1_556
H0 O24 0.989380 1_555
H1 O25 0.989380 1_555
H2 O26 0.989380 1_555
H3 O27 0.989380 1_555
H4 O28 0.989380 1_555
H5 O29 0.989380 1_555
H6 O30 0.989380 1_555
H7 O31 0.989380 1_555
H8 O35 1.037151 1_554
H8 O16 1.552840 1_555
H8 Na8 2.461550 1_455
H8 Na16 2.497933 1_554
H9 O34 1.037151 1_555
H9 O17 1.552840 1_555
H9 Na9 2.461550 1_655
H9 Na17 2.497933 1_545
H10 O33 1.037151 1_555
H10 O18 1.552840 1_555
H10 Na10 2.461550 1_555
H10 Na18 2.497933 1_555
H11 O32 1.037151 1_556
H11 O19 1.552840 1_555
H11 Na11 2.461550 1_555
H11 Na19 2.497933 1_566
H12 O39 1.037151 1_556
H12 O20 1.552840 1_555
H12 Na12 2.461550 1_655
H12 Na20 2.497933 1_556
H13 O38 1.037151 1_555
H13 O21 1.552840 1_555
H13 Na13 2.461550 1_455
H13 Na21 2.497933 1_565
H14 O37 1.037151 1_555
H14 O22 1.552840 1_555
H14 Na14 2.461550 1_555
H14 Na22 2.497933 1_555
H15 O36 1.037151 1_554
H15 O23 1.552840 1_555
H15 Na15 2.461550 1_555
H15 Na23 2.497933 1_544
H16 O32 0.980915 1_555
H17 O33 0.980915 1_555
H18 O34 0.980915 1_555
H19 O35 0.980915 1_555
H20 O36 0.980915 1_555
H21 O37 0.980915 1_555
H22 O38 0.980915 1_555
H23 O39 0.980915 1_555
H24 O40 1.017289 1_555
H24 O8 1.627743 1_555
H25 O41 1.017289 1_555
H25 O9 1.627743 1_555
H26 O42 1.017289 1_555
H26 O10 1.627743 1_655
H27 O43 1.017289 1_555
H27 O11 1.627743 1_455
H28 O44 1.017289 1_555
H28 O12 1.627743 1_555
H29 O45 1.017289 1_555
H29 O13 1.627743 1_555
H30 O46 1.017289 1_555
H30 O14 1.627743 1_455
H31 O47 1.017289 1_555
H31 O15 1.627743 1_655
H32 O46 1.007456 1_555
H32 O8 1.697594 1_555
H33 O47 1.007456 1_555
H33 O9 1.697594 1_555
H34 O44 1.007456 1_555
H34 O10 1.697594 1_555
H35 O45 1.007456 1_555
H35 O11 1.697594 1_555
H36 O42 1.007456 1_555
H36 O12 1.697594 1_555
H37 O43 1.007456 1_555
H37 O13 1.697594 1_555
H38 O40 1.007456 1_555
H38 O14 1.697594 1_555
H39 O41 1.007456 1_555
H39 O15 1.697594 1_555
O0 Si0 1.624270 1_555
O1 Si1 1.624270 1_565
O2 Si2 1.624270 1_555
O3 Si3 1.624270 1_545
O4 Si4 1.624270 1_555
O5 Si5 1.624270 1_545
O6 Si6 1.624270 1_555
O7 Si7 1.624270 1_565
O8 Si0 1.647984 1_555
O9 Si1 1.647984 1_555
O10 Si2 1.647984 1_555
O11 Si3 1.647984 1_555
O12 Si4 1.647984 1_555
O13 Si5 1.647984 1_555
O14 Si6 1.647984 1_555
O15 Si7 1.647984 1_555
O16 Si0 1.645526 1_555
O17 Si1 1.645526 1_555
O18 Si2 1.645526 1_555
O19 Si3 1.645526 1_555
O20 Si4 1.645526 1_555
O21 Si5 1.645526 1_555
O22 Si6 1.645526 1_555
O23 Si7 1.645526 1_555
O24 Si0 1.723185 1_555
O25 Si1 1.723185 1_565
O26 Si2 1.723185 1_555
O27 Si3 1.723185 1_545
O28 Si4 1.723185 1_555
O29 Si5 1.723185 1_545
O30 Si6 1.723185 1_555
O31 Si7 1.723185 1_565
