# generated using pymatgen
data_Li3CrO4
_symmetry_space_group_name_H-M   'P 1'
_cell_length_a   5.78773700
_cell_length_b   5.80535100
_cell_length_c   12.61937145
_cell_angle_alpha   77.46853199
_cell_angle_beta   90.00000000
_cell_angle_gamma   90.00000000
_symmetry_Int_Tables_number   1
_chemical_formula_structural   Li3CrO4
_chemical_formula_sum   'Li18 Cr6 O24'
_cell_volume   413.90775189
_cell_formula_units_Z   6
loop_
 _symmetry_equiv_pos_site_id
 _symmetry_equiv_pos_as_xyz
  1  'x, y, z'
loop_
 _atom_site_type_symbol
 _atom_site_label
 _atom_site_symmetry_multiplicity
 _atom_site_fract_x
 _atom_site_fract_y
 _atom_site_fract_z
 _atom_site_occupancy
  Li  Li0  1  0.49806800  0.00000000  0.00000000  1
  Li  Li1  1  0.97708600  0.00000000  0.00000000  1
  Li  Li2  1  0.21626800  0.00000000  0.50000000  1
  Li  Li3  1  0.71266600  0.00000000  0.50000000  1
  Li  Li4  1  0.73460300  0.16513600  0.16791300  1
  Li  Li5  1  0.22288900  0.17586300  0.15832600  1
  Li  Li6  1  0.95912200  0.33786200  0.33224200  1
  Li  Li7  1  0.96265200  0.15424200  0.66633700  1
  Li  Li8  1  0.47007800  0.50000000  0.00000000  1
  Li  Li9  1  0.46661100  0.17217200  0.66222400  1
  Li  Li10  1  0.72304400  0.33487200  0.83049400  1
  Li  Li11  1  0.21258400  0.50000000  0.50000000  1
  Li  Li12  1  0.72304400  0.66512800  0.16950600  1
  Li  Li13  1  0.46661100  0.82782800  0.33777600  1
  Li  Li14  1  0.96265200  0.84575800  0.33366300  1
  Li  Li15  1  0.95912200  0.66213800  0.66775800  1
  Li  Li16  1  0.22288900  0.82413700  0.84167400  1
  Li  Li17  1  0.73460300  0.83486400  0.83208700  1
  Cr  Cr0  1  0.45870500  0.30573600  0.33146600  1
  Cr  Cr1  1  0.94578400  0.50000000  0.00000000  1
  Cr  Cr2  1  0.22297200  0.30406300  0.83232000  1
  Cr  Cr3  1  0.73563000  0.50000000  0.50000000  1
  Cr  Cr4  1  0.22297200  0.69593700  0.16768000  1
  Cr  Cr5  1  0.45870500  0.69426400  0.66853400  1
  O  O0  1  0.69413900  0.10512100  0.32865400  1
  O  O1  1  0.74223300  0.26873100  0.00475900  1
  O  O2  1  0.23416000  0.10267000  0.33790700  1
  O  O3  1  0.46133300  0.42691300  0.18056700  1
  O  O4  1  0.98986300  0.10279100  0.82887900  1
  O  O5  1  0.94018900  0.27021300  0.50465300  1
  O  O6  1  0.99200000  0.43480500  0.15341100  1
  O  O7  1  0.44881800  0.10205600  0.83882800  1
  O  O8  1  0.47054600  0.27511100  0.48691500  1
  O  O9  1  0.21079700  0.72255300  0.01318000  1
  O  O10  1  0.68866200  0.56457300  0.34668400  1
  O  O11  1  0.22147700  0.57449000  0.31876500  1
  O  O12  1  0.22147700  0.42551000  0.68123500  1
  O  O13  1  0.68866200  0.43542700  0.65331600  1
  O  O14  1  0.21079700  0.27744700  0.98682000  1
  O  O15  1  0.47054600  0.72488900  0.51308500  1
  O  O16  1  0.44881800  0.89794400  0.16117200  1
  O  O17  1  0.99200000  0.56519500  0.84658900  1
  O  O18  1  0.94018900  0.72978700  0.49534700  1
  O  O19  1  0.98986300  0.89720900  0.17112100  1
  O  O20  1  0.46133300  0.57308700  0.81943300  1
  O  O21  1  0.23416000  0.89733000  0.66209300  1
  O  O22  1  0.74223300  0.73126900  0.99524100  1
  O  O23  1  0.69413900  0.89487900  0.67134600  1
loop_
_geom_bond_atom_site_label_1
_geom_bond_atom_site_label_2
_geom_bond_distance
_geom_bond_site_symmetry_2
Li0 O16 2.011482 1_545
Li0 O7 2.011482 1_554
Li0 O1 2.115452 1_555
Li0 O22 2.115452 1_544
Li0 O9 2.295668 1_545
Li0 O14 2.295668 1_554
Li1 O22 2.079835 1_544
Li1 O1 2.079835 1_555
Li1 O9 2.082156 1_645
Li1 O14 2.082156 1_654
Li1 O4 2.113184 1_554
Li1 O19 2.113184 1_545
Li2 O2 2.005250 1_555
Li2 O21 2.005250 1_545
Li2 O15 2.151624 1_545
Li2 O8 2.151624 1_555
Li2 O5 2.248861 1_455
Li2 O18 2.248861 1_445
Li3 O18 2.058703 1_545
Li3 O5 2.058703 1_555
Li3 O15 2.104120 1_545
Li3 O8 2.104120 1_555
Li3 O0 2.118194 1_555
Li3 O23 2.118194 1_545
Li4 O0 1.996036 1_555
Li4 O1 2.016278 1_555
Li4 O19 2.139220 1_545
Li4 O6 2.139946 1_555
Li4 O3 2.223022 1_555
Li4 O16 2.281758 1_545
Li5 O6 2.002226 1_455
Li5 O3 2.070009 1_555
Li5 O16 2.071020 1_545
Li5 O19 2.085329 1_445
Li5 O14 2.117307 1_554
Li5 O2 2.214181 1_555
Li6 O11 2.029848 1_655
Li6 O0 2.050920 1_555
Li6 O10 2.078424 1_555
Li6 O2 2.088294 1_655
Li6 O5 2.128191 1_555
Li6 O6 2.212385 1_555
Li7 O5 2.009252 1_555
Li7 O4 2.013823 1_555
Li7 O23 2.155221 1_545
Li7 O21 2.175166 1_645
Li7 O12 2.210854 1_655
Li7 O13 2.256095 1_555
Li8 O14 2.010504 1_554
Li8 O9 2.010504 1_555
Li8 O22 2.062115 1_554
Li8 O1 2.062115 1_555
Li8 O3 2.226038 1_555
Li8 O20 2.226038 1_554
Li9 O13 1.981266 1_555
Li9 O23 2.063587 1_545
Li9 O21 2.087330 1_545
Li9 O12 2.094418 1_555
Li9 O8 2.162905 1_555
Li9 O7 2.179318 1_555
Li10 O20 2.035325 1_555
Li10 O4 2.052407 1_555
Li10 O7 2.072482 1_555
Li10 O17 2.090480 1_555
Li10 O1 2.151615 1_556
Li10 O13 2.193880 1_555
Li11 O15 2.013554 1_555
Li11 O8 2.013554 1_555
Li11 O18 2.057792 1_455
Li11 O5 2.057792 1_455
Li11 O11 2.234091 1_555
Li11 O12 2.234091 1_555
Li12 O3 2.035325 1_555
Li12 O19 2.052407 1_555
Li12 O16 2.072482 1_555
Li12 O6 2.090480 1_555
Li12 O22 2.151615 1_554
Li12 O10 2.193880 1_555
Li13 O10 1.981266 1_555
Li13 O0 2.063587 1_565
Li13 O2 2.087330 1_565
Li13 O11 2.094418 1_555
Li13 O15 2.162905 1_555
Li13 O16 2.179318 1_555
Li14 O18 2.009252 1_555
Li14 O19 2.013823 1_555
Li14 O0 2.155221 1_565
Li14 O2 2.175166 1_665
Li14 O11 2.210854 1_655
Li14 O10 2.256095 1_555
Li15 O12 2.029848 1_655
Li15 O23 2.050920 1_555
Li15 O13 2.078424 1_555
Li15 O21 2.088294 1_655
Li15 O18 2.128191 1_555
Li15 O17 2.212385 1_555
Li16 O17 2.002226 1_455
Li16 O20 2.070009 1_555
Li16 O7 2.071020 1_565
Li16 O4 2.085329 1_465
Li16 O9 2.117307 1_556
Li16 O21 2.214181 1_555
Li17 O23 1.996036 1_555
Li17 O22 2.016278 1_555
Li17 O4 2.139220 1_565
Li17 O17 2.139946 1_555
Li17 O20 2.223022 1_555
Li17 O7 2.281758 1_565
Cr0 O2 1.744631 1_555
Cr0 O0 1.797871 1_555
Cr0 O3 1.881478 1_555
Cr0 O8 1.932124 1_555
Cr0 O10 2.047293 1_555
Cr0 O11 2.058299 1_555
Cr1 O22 1.777387 1_554
Cr1 O1 1.777387 1_555
Cr1 O17 1.909119 1_554
Cr1 O6 1.909119 1_555
Cr1 O14 2.035386 1_654
Cr1 O9 2.035386 1_655
Cr2 O7 1.746091 1_555
Cr2 O4 1.791496 1_455
Cr2 O12 1.883864 1_555
Cr2 O14 1.923385 1_555
Cr2 O17 2.058172 1_455
Cr2 O20 2.063637 1_555
Cr3 O18 1.775020 1_555
Cr3 O5 1.775020 1_555
Cr3 O10 1.908652 1_555
Cr3 O13 1.908652 1_555
Cr3 O8 2.044305 1_555
Cr3 O15 2.044305 1_555
Cr4 O16 1.746091 1_555
Cr4 O19 1.791496 1_455
Cr4 O11 1.883864 1_555
Cr4 O9 1.923385 1_555
Cr4 O6 2.058172 1_455
Cr4 O3 2.063637 1_555
Cr5 O21 1.744631 1_555
Cr5 O23 1.797871 1_555
Cr5 O20 1.881478 1_555
Cr5 O15 1.932124 1_555
Cr5 O13 2.047293 1_555
Cr5 O12 2.058299 1_555
