# generated using pymatgen
data_Mn15CrO32
_symmetry_space_group_name_H-M   'P 1'
_cell_length_a   8.22356492
_cell_length_b   8.22356492
_cell_length_c   10.06577600
_cell_angle_alpha   65.91554716
_cell_angle_beta   65.91554716
_cell_angle_gamma   89.99068872
_symmetry_Int_Tables_number   1
_chemical_formula_structural   Mn15CrO32
_chemical_formula_sum   'Mn15 Cr1 O32'
_cell_volume   555.93947449
_cell_formula_units_Z   1
loop_
 _symmetry_equiv_pos_site_id
 _symmetry_equiv_pos_as_xyz
  1  'x, y, z'
loop_
 _atom_site_type_symbol
 _atom_site_label
 _atom_site_symmetry_multiplicity
 _atom_site_fract_x
 _atom_site_fract_y
 _atom_site_fract_z
 _atom_site_occupancy
  Mn  Mn0  1  0.75071700  0.75071700  0.99945900  1
  Mn  Mn1  1  0.24928300  0.24928300  0.00054100  1
  Mn  Mn2  1  0.00000000  0.00000000  0.00000000  1
  Mn  Mn3  1  0.12341300  0.37624800  0.75086000  1
  Mn  Mn4  1  0.62395500  0.87678900  0.74867600  1
  Mn  Mn5  1  0.37624800  0.12341300  0.75086000  1
  Mn  Mn6  1  0.87678900  0.62395500  0.74867600  1
  Mn  Mn7  1  0.24854700  0.75145300  0.50000000  1
  Mn  Mn8  1  0.50000000  0.00000000  0.50000000  1
  Mn  Mn9  1  0.75145300  0.24854700  0.50000000  1
  Mn  Mn10  1  0.00000000  0.50000000  0.50000000  1
  Mn  Mn11  1  0.12321100  0.37604500  0.25132400  1
  Mn  Mn12  1  0.62375200  0.87658700  0.24914000  1
  Mn  Mn13  1  0.37604500  0.12321100  0.25132400  1
  Mn  Mn14  1  0.87658700  0.62375200  0.24914000  1
  Cr  Cr0  1  0.50000000  0.50000000  0.00000000  1
  O  O0  1  0.74249800  0.52611000  0.98381700  1
  O  O1  1  0.52611000  0.74249800  0.98381700  1
  O  O2  1  0.24180300  0.02259000  0.98458900  1
  O  O3  1  0.02259000  0.24180300  0.98458900  1
  O  O4  1  0.63312500  0.63312500  0.76388800  1
  O  O5  1  0.85398700  0.85398700  0.76303900  1
  O  O6  1  0.13317700  0.13317700  0.76333300  1
  O  O7  1  0.35310000  0.35310000  0.76576600  1
  O  O8  1  0.11635600  0.61894400  0.73650700  1
  O  O9  1  0.89534200  0.39831500  0.73578000  1
  O  O10  1  0.61894400  0.11635600  0.73650700  1
  O  O11  1  0.39831500  0.89534200  0.73578000  1
  O  O12  1  0.22781400  0.50883800  0.51548000  1
  O  O13  1  0.72843700  0.00857600  0.51292100  1
  O  O14  1  0.00857600  0.72843700  0.51292100  1
  O  O15  1  0.50883800  0.22781400  0.51548000  1
  O  O16  1  0.49116200  0.77218600  0.48452000  1
  O  O17  1  0.99142400  0.27156300  0.48707900  1
  O  O18  1  0.27156300  0.99142400  0.48707900  1
  O  O19  1  0.77218600  0.49116200  0.48452000  1
  O  O20  1  0.88364400  0.38105600  0.26349300  1
  O  O21  1  0.38105600  0.88364400  0.26349300  1
  O  O22  1  0.10465800  0.60168500  0.26422000  1
  O  O23  1  0.60168500  0.10465800  0.26422000  1
  O  O24  1  0.14601300  0.14601300  0.23696100  1
  O  O25  1  0.36687500  0.36687500  0.23611200  1
  O  O26  1  0.64690000  0.64690000  0.23423400  1
  O  O27  1  0.86682300  0.86682300  0.23666700  1
  O  O28  1  0.97741000  0.75819700  0.01541100  1
  O  O29  1  0.25750200  0.47389000  0.01618300  1
  O  O30  1  0.47389000  0.25750200  0.01618300  1
  O  O31  1  0.75819700  0.97741000  0.01541100  1
loop_
_geom_bond_atom_site_label_1
_geom_bond_atom_site_label_2
_geom_bond_distance
_geom_bond_site_symmetry_2
Mn0 O0 1.920185 1_555
Mn0 O1 1.920185 1_555
Mn0 O26 1.936322 1_556
Mn0 O28 1.938377 1_556
Mn0 O31 1.938377 1_556
Mn0 O5 1.951142 1_555
Mn1 O29 1.920185 1_555
Mn1 O30 1.920185 1_555
Mn1 O7 1.936322 1_554
Mn1 O2 1.938377 1_554
Mn1 O3 1.938377 1_554
Mn1 O24 1.951142 1_555
Mn2 O28 1.933257 1_445
Mn2 O31 1.933257 1_445
Mn2 O3 1.933257 1_554
Mn2 O2 1.933257 1_554
Mn2 O6 1.953348 1_554
Mn2 O27 1.953348 1_445
Mn3 O3 1.931358 1_555
Mn3 O12 1.941942 1_555
Mn3 O8 1.943973 1_555
Mn3 O9 1.945109 1_455
Mn3 O6 1.954789 1_555
Mn3 O7 1.958153 1_555
Mn4 O11 1.914049 1_555
Mn4 O10 1.924867 1_565
Mn4 O13 1.944562 1_565
Mn4 O1 1.944663 1_555
Mn4 O4 1.950193 1_555
Mn4 O5 1.958443 1_555
Mn5 O2 1.931358 1_555
Mn5 O15 1.941942 1_555
Mn5 O10 1.943973 1_555
Mn5 O11 1.945109 1_545
Mn5 O6 1.954789 1_555
Mn5 O7 1.958153 1_555
Mn6 O9 1.914049 1_555
Mn6 O8 1.924867 1_655
Mn6 O14 1.944562 1_655
Mn6 O0 1.944663 1_555
Mn6 O4 1.950193 1_555
Mn6 O5 1.958443 1_555
Mn7 O18 1.928125 1_555
Mn7 O14 1.928125 1_555
Mn7 O12 1.938739 1_555
Mn7 O16 1.938739 1_555
Mn7 O21 1.951283 1_555
Mn7 O8 1.951283 1_555
Mn8 O13 1.938515 1_555
Mn8 O18 1.938515 1_545
Mn8 O11 1.945752 1_545
Mn8 O23 1.945752 1_555
Mn8 O16 1.945993 1_545
Mn8 O15 1.945993 1_555
Mn9 O17 1.928125 1_555
Mn9 O13 1.928125 1_555
Mn9 O15 1.938739 1_555
Mn9 O19 1.938739 1_555
Mn9 O20 1.951283 1_555
Mn9 O10 1.951283 1_555
Mn10 O17 1.938515 1_455
Mn10 O14 1.938515 1_555
Mn10 O9 1.945752 1_455
Mn10 O22 1.945752 1_555
Mn10 O19 1.945993 1_455
Mn10 O12 1.945993 1_555
Mn11 O22 1.914049 1_555
Mn11 O20 1.924867 1_455
Mn11 O17 1.944562 1_455
Mn11 O29 1.944663 1_555
Mn11 O25 1.950193 1_555
Mn11 O24 1.958443 1_555
Mn12 O31 1.931358 1_555
Mn12 O16 1.941942 1_555
Mn12 O21 1.943973 1_555
Mn12 O23 1.945109 1_565
Mn12 O27 1.954789 1_555
Mn12 O26 1.958153 1_555
Mn13 O23 1.914049 1_555
Mn13 O21 1.924867 1_545
Mn13 O18 1.944562 1_545
Mn13 O30 1.944663 1_555
Mn13 O25 1.950193 1_555
Mn13 O24 1.958443 1_555
Mn14 O28 1.931358 1_555
Mn14 O19 1.941942 1_555
Mn14 O20 1.943973 1_555
Mn14 O22 1.945109 1_655
Mn14 O27 1.954789 1_555
Mn14 O26 1.958153 1_555
Cr0 O30 1.938022 1_555
Cr0 O29 1.938022 1_555
Cr0 O0 1.938022 1_554
Cr0 O1 1.938022 1_554
Cr0 O25 1.949040 1_555
Cr0 O4 1.949040 1_554
