# generated using pymatgen
data_Li4CrFe3O8
_symmetry_space_group_name_H-M   'P 1'
_cell_length_a   5.18767200
_cell_length_b   7.87917476
_cell_length_c   7.87858344
_cell_angle_alpha   81.78704449
_cell_angle_beta   83.75887225
_cell_angle_gamma   70.98693577
_symmetry_Int_Tables_number   1
_chemical_formula_structural   Li4CrFe3O8
_chemical_formula_sum   'Li8 Cr2 Fe6 O16'
_cell_volume   300.67646820
_cell_formula_units_Z   2
loop_
 _symmetry_equiv_pos_site_id
 _symmetry_equiv_pos_as_xyz
  1  'x, y, z'
loop_
 _atom_site_type_symbol
 _atom_site_label
 _atom_site_symmetry_multiplicity
 _atom_site_fract_x
 _atom_site_fract_y
 _atom_site_fract_z
 _atom_site_occupancy
  Li  Li0  1  0.00000000  0.00000000  0.00000000  1
  Li  Li1  1  0.00120700  0.74958900  0.75004100  1
  Li  Li2  1  0.00132500  0.87477100  0.37461600  1
  Li  Li3  1  0.00021700  0.37508000  0.87386800  1
  Li  Li4  1  0.00000000  0.50000000  0.50000000  1
  Li  Li5  1  0.99978300  0.62492000  0.12613200  1
  Li  Li6  1  0.99867500  0.12522900  0.62538400  1
  Li  Li7  1  0.99879300  0.25041100  0.24995900  1
  Cr  Cr0  1  0.50014400  0.43795600  0.68667800  1
  Cr  Cr1  1  0.49985600  0.56204400  0.31332200  1
  Fe  Fe0  1  0.49984700  0.68687700  0.93777500  1
  Fe  Fe1  1  0.49958900  0.81221800  0.56262500  1
  Fe  Fe2  1  0.49964700  0.93703600  0.18772700  1
  Fe  Fe3  1  0.50035300  0.06296400  0.81227300  1
  Fe  Fe4  1  0.50041100  0.18778200  0.43737500  1
  Fe  Fe5  1  0.50015300  0.31312300  0.06222500  1
  O  O0  1  0.72882900  0.84815000  0.96927400  1
  O  O1  1  0.27132900  0.90208200  0.78066700  1
  O  O2  1  0.72950800  0.97222200  0.59409200  1
  O  O3  1  0.27317200  0.52605100  0.90316600  1
  O  O4  1  0.72607900  0.59729100  0.71970700  1
  O  O5  1  0.72544500  0.72227000  0.34471700  1
  O  O6  1  0.27457200  0.64960400  0.52981700  1
  O  O7  1  0.72696700  0.22546700  0.84318400  1
  O  O8  1  0.72542800  0.35039600  0.47018300  1
  O  O9  1  0.27303300  0.77453300  0.15681600  1
  O  O10  1  0.27455500  0.27773000  0.65528300  1
  O  O11  1  0.72682800  0.47394900  0.09683400  1
  O  O12  1  0.27392100  0.40270900  0.28029300  1
  O  O13  1  0.72867100  0.09791800  0.21933300  1
  O  O14  1  0.27049200  0.02777800  0.40590800  1
  O  O15  1  0.27117100  0.15185000  0.03072600  1
loop_
_geom_bond_atom_site_label_1
_geom_bond_atom_site_label_2
_geom_bond_distance
_geom_bond_site_symmetry_2
Li0 O13 2.169574 1_455
Li0 O1 2.169574 1_544
Li0 O0 2.173128 1_444
Li0 O15 2.173128 1_555
Li0 O9 2.191455 1_545
Li0 O7 2.191455 1_454
Li1 O3 2.166104 1_555
Li1 O1 2.172305 1_555
Li1 O0 2.172705 1_455
Li1 O2 2.173274 1_455
Li1 O6 2.183972 1_555
Li1 O4 2.192311 1_455
Li2 O9 2.165877 1_555
Li2 O2 2.170636 1_455
Li2 O14 2.172690 1_565
Li2 O13 2.174856 1_465
Li2 O6 2.184150 1_555
Li2 O5 2.195952 1_455
Li3 O7 2.168452 1_455
Li3 O4 2.169962 1_455
Li3 O10 2.170894 1_555
Li3 O3 2.172627 1_555
Li3 O15 2.177712 1_556
Li3 O11 2.198532 1_456
Li4 O6 2.172416 1_555
Li4 O8 2.172416 1_455
Li4 O10 2.175752 1_555
Li4 O5 2.175752 1_455
Li4 O12 2.176635 1_555
Li4 O4 2.176635 1_455
Li5 O9 2.168452 1_655
Li5 O12 2.169962 1_655
Li5 O5 2.170894 1_555
Li5 O11 2.172627 1_555
Li5 O0 2.177712 1_554
Li5 O3 2.198532 1_654
Li6 O7 2.165877 1_555
Li6 O14 2.170636 1_655
Li6 O2 2.172690 1_545
Li6 O1 2.174856 1_645
Li6 O8 2.184150 1_555
Li6 O10 2.195952 1_655
Li7 O11 2.166104 1_555
Li7 O13 2.172305 1_555
Li7 O15 2.172705 1_655
Li7 O14 2.173274 1_655
Li7 O8 2.183972 1_555
Li7 O12 2.192311 1_655
Cr0 O8 2.031890 1_555
Cr0 O6 2.032664 1_555
Cr0 O4 2.033712 1_555
Cr0 O10 2.034529 1_555
Cr0 O3 2.036273 1_555
Cr0 O7 2.037177 1_555
Cr1 O6 2.031890 1_555
Cr1 O8 2.032664 1_555
Cr1 O12 2.033712 1_555
Cr1 O5 2.034529 1_555
Cr1 O11 2.036273 1_555
Cr1 O9 2.037177 1_555
Fe0 O4 2.048336 1_555
Fe0 O3 2.049924 1_555
Fe0 O11 2.050508 1_556
Fe0 O9 2.051626 1_556
Fe0 O1 2.054827 1_555
Fe0 O0 2.055486 1_555
Fe1 O5 2.047370 1_555
Fe1 O4 2.049595 1_555
Fe1 O6 2.050806 1_555
Fe1 O2 2.051051 1_555
Fe1 O1 2.052683 1_555
Fe1 O14 2.055810 1_565
Fe2 O5 2.047171 1_555
Fe2 O9 2.052519 1_555
Fe2 O15 2.052587 1_565
Fe2 O13 2.053351 1_565
Fe2 O0 2.055029 1_554
Fe2 O14 2.057240 1_565
Fe3 O10 2.047171 1_555
Fe3 O7 2.052519 1_555
Fe3 O0 2.052587 1_545
Fe3 O1 2.053351 1_545
Fe3 O15 2.055029 1_556
Fe3 O2 2.057240 1_545
Fe4 O10 2.047370 1_555
Fe4 O12 2.049595 1_555
Fe4 O8 2.050806 1_555
Fe4 O14 2.051051 1_555
Fe4 O13 2.052683 1_555
Fe4 O2 2.055810 1_545
Fe5 O12 2.048336 1_555
Fe5 O11 2.049924 1_555
Fe5 O3 2.050508 1_554
Fe5 O7 2.051626 1_554
Fe5 O13 2.054827 1_555
Fe5 O15 2.055486 1_555
