# generated using pymatgen
data_Li3Fe2(NiO4)2
_symmetry_space_group_name_H-M   'P 1'
_cell_length_a   5.79227363
_cell_length_b   5.79227363
_cell_length_c   5.67868729
_cell_angle_alpha   61.06026693
_cell_angle_beta   61.06026693
_cell_angle_gamma   59.60095363
_symmetry_Int_Tables_number   1
_chemical_formula_structural   Li3Fe2(NiO4)2
_chemical_formula_sum   'Li3 Fe2 Ni2 O8'
_cell_volume   136.40850672
_cell_formula_units_Z   1
loop_
 _symmetry_equiv_pos_site_id
 _symmetry_equiv_pos_as_xyz
  1  'x, y, z'
loop_
 _atom_site_type_symbol
 _atom_site_label
 _atom_site_symmetry_multiplicity
 _atom_site_fract_x
 _atom_site_fract_y
 _atom_site_fract_z
 _atom_site_occupancy
  Li  Li0  1  0.50000000  0.00000000  0.00000000  1
  Li  Li1  1  0.50000000  0.50000000  0.50000000  1
  Li  Li2  1  0.00000000  0.50000000  0.00000000  1
  Fe  Fe0  1  0.00000000  0.00000000  0.50000000  1
  Fe  Fe1  1  0.00000000  0.00000000  0.00000000  1
  Ni  Ni0  1  0.50000000  0.00000000  0.50000000  1
  Ni  Ni1  1  0.00000000  0.50000000  0.50000000  1
  O  O0  1  0.77322700  0.77322700  0.70569000  1
  O  O1  1  0.21711800  0.77506700  0.25857500  1
  O  O2  1  0.76778300  0.76778300  0.24608700  1
  O  O3  1  0.22493300  0.78288200  0.74142500  1
  O  O4  1  0.77506700  0.21711800  0.25857500  1
  O  O5  1  0.23221700  0.23221700  0.75391300  1
  O  O6  1  0.78288200  0.22493300  0.74142500  1
  O  O7  1  0.22677300  0.22677300  0.29431000  1
loop_
_geom_bond_atom_site_label_1
_geom_bond_atom_site_label_2
_geom_bond_distance
_geom_bond_site_symmetry_2
Li0 O2 2.082089 1_545
Li0 O5 2.082089 1_554
Li0 O0 2.117590 1_544
Li0 O7 2.117590 1_555
Li0 O6 2.125786 1_554
Li0 O1 2.125786 1_545
Li1 O3 2.126233 1_555
Li1 O6 2.126233 1_555
Li1 O1 2.126233 1_555
Li1 O4 2.126233 1_555
Li1 O2 2.235321 1_555
Li1 O5 2.235321 1_555
Li2 O2 2.082089 1_455
Li2 O5 2.082089 1_554
Li2 O0 2.117590 1_454
Li2 O7 2.117590 1_555
Li2 O3 2.125786 1_554
Li2 O4 2.125786 1_455
Fe0 O3 1.886919 1_545
Fe0 O6 1.886919 1_455
Fe0 O1 1.886919 1_545
Fe0 O4 1.886919 1_455
Fe0 O7 1.895135 1_555
Fe0 O0 1.895135 1_445
Fe1 O1 1.926811 1_545
Fe1 O4 1.926811 1_455
Fe1 O3 1.926811 1_544
Fe1 O6 1.926811 1_454
Fe1 O5 1.940116 1_554
Fe1 O2 1.940116 1_445
Ni0 O7 1.947994 1_555
Ni0 O0 1.947994 1_545
Ni0 O5 1.973626 1_555
Ni0 O2 1.973626 1_545
Ni0 O4 2.060321 1_555
Ni0 O3 2.060321 1_545
Ni1 O7 1.947994 1_555
Ni1 O0 1.947994 1_455
Ni1 O5 1.973626 1_555
Ni1 O2 1.973626 1_455
Ni1 O1 2.060321 1_555
Ni1 O6 2.060321 1_455
