# generated using pymatgen
data_Na2Ni3O5
_symmetry_space_group_name_H-M   'P 1'
_cell_length_a   5.17042358
_cell_length_b   6.11480149
_cell_length_c   6.92372807
_cell_angle_alpha   104.76177032
_cell_angle_beta   98.73178707
_cell_angle_gamma   106.17567982
_symmetry_Int_Tables_number   1
_chemical_formula_structural   Na2Ni3O5
_chemical_formula_sum   'Na4 Ni6 O10'
_cell_volume   197.35996129
_cell_formula_units_Z   2
loop_
 _symmetry_equiv_pos_site_id
 _symmetry_equiv_pos_as_xyz
  1  'x, y, z'
loop_
 _atom_site_type_symbol
 _atom_site_label
 _atom_site_symmetry_multiplicity
 _atom_site_fract_x
 _atom_site_fract_y
 _atom_site_fract_z
 _atom_site_occupancy
  Na  Na0  1  0.80053800  0.09918000  0.60540500  1
  Na  Na1  1  0.59946200  0.70082000  0.19459500  1
  Na  Na2  1  0.40670700  0.30320100  0.80613700  1
  Na  Na3  1  0.99329300  0.49679900  0.99386300  1
  Ni  Ni0  1  0.80052500  0.60238800  0.59349700  1
  Ni  Ni1  1  0.59947500  0.19761200  0.20650300  1
  Ni  Ni2  1  0.40278400  0.80037400  0.79373100  1
  Ni  Ni3  1  0.20000000  0.40000000  0.40000000  1
  Ni  Ni4  1  0.20000000  0.90000000  0.40000000  1
  Ni  Ni5  1  0.99721600  0.99962600  0.00626900  1
  O  O0  1  0.93428200  0.08478600  0.30898400  1
  O  O1  1  0.92278300  0.53301700  0.31901200  1
  O  O2  1  0.69407000  0.10873600  0.91961800  1
  O  O3  1  0.70593000  0.69126400  0.88038200  1
  O  O4  1  0.47721700  0.26698300  0.48098800  1
  O  O5  1  0.46571800  0.71521400  0.49101600  1
  O  O6  1  0.27092300  0.31825600  0.12798200  1
  O  O7  1  0.27658900  0.87530600  0.10058600  1
  O  O8  1  0.12907700  0.48174400  0.67201800  1
  O  O9  1  0.12341100  0.92469400  0.69941400  1
loop_
_geom_bond_atom_site_label_1
_geom_bond_atom_site_label_2
_geom_bond_distance
_geom_bond_site_symmetry_2
Na0 O0 2.251841 1_555
Na0 O2 2.314327 1_555
Na0 O9 2.316310 1_645
Na0 O5 2.346950 1_545
Na0 O4 2.357632 1_555
Na0 O8 2.359844 1_655
Na1 O5 2.251841 1_555
Na1 O3 2.314327 1_554
Na1 O7 2.316310 1_555
Na1 O0 2.346950 1_565
Na1 O1 2.357632 1_555
Na1 O6 2.359844 1_555
Na2 O9 2.226963 1_545
Na2 O8 2.258294 1_555
Na2 O4 2.300033 1_555
Na2 O2 2.311919 1_555
Na2 O3 2.319492 1_555
Na2 O6 2.423520 1_556
Na3 O7 2.226963 1_656
Na3 O6 2.258294 1_656
Na3 O1 2.300033 1_556
Na3 O3 2.311919 1_555
Na3 O2 2.319492 1_555
Na3 O8 2.423520 1_655
Ni0 O9 2.065824 1_655
Ni0 O1 2.072340 1_555
Ni0 O8 2.085130 1_655
Ni0 O3 2.091163 1_555
Ni0 O4 2.118442 1_555
Ni0 O5 2.125576 1_555
Ni1 O7 2.065824 1_545
Ni1 O4 2.072340 1_555
Ni1 O6 2.085130 1_555
Ni1 O2 2.091163 1_554
Ni1 O1 2.118442 1_555
Ni1 O0 2.125576 1_555
Ni2 O9 1.915527 1_555
Ni2 O3 1.939825 1_555
Ni2 O2 1.940363 1_565
Ni2 O8 1.942660 1_555
Ni2 O5 2.124901 1_555
Ni2 O7 2.289301 1_556
Ni3 O5 1.908536 1_555
Ni3 O0 1.908536 1_455
Ni3 O4 1.915306 1_555
Ni3 O1 1.915306 1_455
Ni3 O8 1.939977 1_555
Ni3 O6 1.939977 1_555
Ni4 O5 2.127515 1_555
Ni4 O0 2.127515 1_465
Ni4 O7 2.144817 1_555
Ni4 O9 2.144817 1_555
Ni4 O4 2.174206 1_565
Ni4 O1 2.174206 1_455
Ni5 O7 1.915527 1_655
Ni5 O2 1.939825 1_564
Ni5 O3 1.940363 1_554
Ni5 O6 1.942660 1_665
Ni5 O0 2.124901 1_565
Ni5 O9 2.289301 1_654
