# generated using pymatgen
data_Na9Fe3P8O29
_symmetry_space_group_name_H-M   'P 1'
_cell_length_a   10.18179018
_cell_length_b   10.18179018
_cell_length_c   14.71585100
_cell_angle_alpha   90.00000000
_cell_angle_beta   90.00000000
_cell_angle_gamma   120.00000115
_symmetry_Int_Tables_number   1
_chemical_formula_structural   Na9Fe3P8O29
_chemical_formula_sum   'Na18 Fe6 P16 O58'
_cell_volume   1321.18700847
_cell_formula_units_Z   2
loop_
 _symmetry_equiv_pos_site_id
 _symmetry_equiv_pos_as_xyz
  1  'x, y, z'
loop_
 _atom_site_type_symbol
 _atom_site_label
 _atom_site_symmetry_multiplicity
 _atom_site_fract_x
 _atom_site_fract_y
 _atom_site_fract_z
 _atom_site_occupancy
  Na  Na0  1  0.35154900  0.24765700  0.05804000  1
  Na  Na1  1  0.35154900  0.10389200  0.55804000  1
  Na  Na2  1  0.75234300  0.64845100  0.55804000  1
  Na  Na3  1  0.00000000  0.00000000  0.00000000  1
  Na  Na4  1  0.00000000  0.00000000  0.50000000  1
  Na  Na5  1  0.66666700  0.33333300  0.87511500  1
  Na  Na6  1  0.66666700  0.33333300  0.37511500  1
  Na  Na7  1  0.89610800  0.64845100  0.05804000  1
  Na  Na8  1  0.75234300  0.10389200  0.05804000  1
  Na  Na9  1  0.10389200  0.75234300  0.44196000  1
  Na  Na10  1  0.89610800  0.24765700  0.55804000  1
  Na  Na11  1  0.24765700  0.89610800  0.94196000  1
  Na  Na12  1  0.10389200  0.35154900  0.94196000  1
  Na  Na13  1  0.33333300  0.66666700  0.62488500  1
  Na  Na14  1  0.33333300  0.66666700  0.12488500  1
  Na  Na15  1  0.24765700  0.35154900  0.44196000  1
  Na  Na16  1  0.64845100  0.89610800  0.44196000  1
  Na  Na17  1  0.64845100  0.75234300  0.94196000  1
  Fe  Fe0  1  0.43718200  0.43718200  0.25000000  1
  Fe  Fe1  1  0.56281800  0.56281800  0.75000000  1
  Fe  Fe2  1  0.00000000  0.56281800  0.25000000  1
  Fe  Fe3  1  0.00000000  0.43718200  0.75000000  1
  Fe  Fe4  1  0.43718200  0.00000000  0.75000000  1
  Fe  Fe5  1  0.56281800  0.00000000  0.25000000  1
  P  P0  1  0.31719200  0.22676500  0.83727500  1
  P  P1  1  0.31719200  0.09042700  0.33727500  1
  P  P2  1  0.77323500  0.68280800  0.33727500  1
  P  P3  1  0.66666700  0.33333300  0.13616100  1
  P  P4  1  0.66666700  0.33333300  0.63616100  1
  P  P5  1  0.90957300  0.68280800  0.83727500  1
  P  P6  1  0.09042700  0.77323500  0.66272500  1
  P  P7  1  0.77323500  0.09042700  0.83727500  1
  P  P8  1  0.22676500  0.90957300  0.16272500  1
  P  P9  1  0.90957300  0.22676500  0.33727500  1
  P  P10  1  0.09042700  0.31719200  0.16272500  1
  P  P11  1  0.33333300  0.66666700  0.86383900  1
  P  P12  1  0.33333300  0.66666700  0.36383900  1
  P  P13  1  0.22676500  0.31719200  0.66272500  1
  P  P14  1  0.68280800  0.90957300  0.66272500  1
  P  P15  1  0.68280800  0.77323500  0.16272500  1
  O  O0  1  0.21498500  0.21498500  0.75000000  1
  O  O1  1  0.21823400  0.22778800  0.57807900  1
  O  O2  1  0.34249500  0.25285800  0.33442300  1
  O  O3  1  0.21823400  0.99044600  0.07807900  1
  O  O4  1  0.34249500  0.08963800  0.83442300  1
  O  O5  1  0.47018500  0.37568900  0.83015100  1
  O  O6  1  0.52362900  0.33537900  0.17248500  1
  O  O7  1  0.62431100  0.52981500  0.33015100  1
  O  O8  1  0.77221200  0.78176600  0.07807900  1
  O  O9  1  0.78501500  0.78501500  0.25000000  1
  O  O10  1  0.74714200  0.65750500  0.83442300  1
  O  O11  1  0.52362900  0.18825000  0.67248500  1
  O  O12  1  0.47018500  0.09449600  0.33015100  1
  O  O13  1  0.66462100  0.47637100  0.67248500  1
  O  O14  1  0.66666700  0.33333300  0.53186000  1
  O  O15  1  0.66666700  0.33333300  0.03186000  1
  O  O16  1  0.81175000  0.47637100  0.17248500  1
  O  O17  1  0.62431100  0.09449600  0.83015100  1
  O  O18  1  0.66462100  0.18825000  0.17248500  1
  O  O19  1  0.91036200  0.65750500  0.33442300  1
  O  O20  1  0.00000000  0.78501500  0.75000000  1
  O  O21  1  0.00955400  0.78176600  0.57807900  1
  O  O22  1  0.99044600  0.77221200  0.92192100  1
  O  O23  1  0.90550400  0.52981500  0.83015100  1
  O  O24  1  0.81175000  0.33537900  0.67248500  1
  O  O25  1  0.08963800  0.74714200  0.16557700  1
  O  O26  1  0.90550400  0.37568900  0.33015100  1
  O  O27  1  0.74714200  0.08963800  0.33442300  1
  O  O28  1  0.21498500  0.00000000  0.25000000  1
  O  O29  1  0.22778800  0.00955400  0.42192100  1
  O  O30  1  0.77221200  0.99044600  0.57807900  1
  O  O31  1  0.25285800  0.91036200  0.66557700  1
  O  O32  1  0.09449600  0.62431100  0.66984900  1
  O  O33  1  0.91036200  0.25285800  0.83442300  1
  O  O34  1  0.18825000  0.66462100  0.32751500  1
  O  O35  1  0.09449600  0.47018500  0.16984900  1
  O  O36  1  0.00955400  0.22778800  0.07807900  1
  O  O37  1  0.99044600  0.21823400  0.42192100  1
  O  O38  1  0.00000000  0.21498500  0.25000000  1
  O  O39  1  0.08963800  0.34249500  0.66557700  1
  O  O40  1  0.33537900  0.81175000  0.82751500  1
  O  O41  1  0.37568900  0.90550400  0.16984900  1
  O  O42  1  0.18825000  0.52362900  0.82751500  1
  O  O43  1  0.33333300  0.66666700  0.96814000  1
  O  O44  1  0.33333300  0.66666700  0.46814000  1
  O  O45  1  0.33537900  0.52362900  0.32751500  1
  O  O46  1  0.52981500  0.90550400  0.66984900  1
  O  O47  1  0.47637100  0.81175000  0.32751500  1
  O  O48  1  0.25285800  0.34249500  0.16557700  1
  O  O49  1  0.22778800  0.21823400  0.92192100  1
  O  O50  1  0.37568900  0.47018500  0.66984900  1
  O  O51  1  0.47637100  0.66462100  0.82751500  1
  O  O52  1  0.52981500  0.62431100  0.16984900  1
  O  O53  1  0.65750500  0.91036200  0.16557700  1
  O  O54  1  0.78176600  0.00955400  0.92192100  1
  O  O55  1  0.78501500  0.00000000  0.75000000  1
  O  O56  1  0.65750500  0.74714200  0.66557700  1
  O  O57  1  0.78176600  0.77221200  0.42192100  1
loop_
_geom_bond_atom_site_label_1
_geom_bond_atom_site_label_2
_geom_bond_distance
_geom_bond_site_symmetry_2
Na0 O6 2.266940 1_555
Na0 O3 2.287600 1_545
Na0 O49 2.304898 1_554
Na0 O48 2.327392 1_555
Na0 O15 2.899101 1_555
Na1 O11 2.266940 1_555
Na1 O1 2.287600 1_555
Na1 O29 2.304898 1_555
Na1 O31 2.327399 1_545
Na1 O14 2.899099 1_555
Na2 O13 2.266940 1_555
Na2 O21 2.287600 1_655
Na2 O57 2.304898 1_555
Na2 O56 2.327392 1_555
Na2 O14 2.899101 1_555
Na3 O49 2.546204 1_554
Na3 O8 2.546204 1_445
Na3 O36 2.546204 1_555
Na3 O22 2.546204 1_444
Na3 O3 2.546204 1_545
Na3 O54 2.546204 1_454
Na4 O1 2.546204 1_555
Na4 O57 2.546204 1_445
Na4 O29 2.546204 1_555
Na4 O30 2.546204 1_445
Na4 O37 2.546204 1_455
Na4 O21 2.546204 1_545
Na5 O15 2.306636 1_556
Na5 O17 2.342791 1_555
Na5 O23 2.342795 1_555
Na5 O5 2.342801 1_555
Na6 O14 2.306636 1_555
Na6 O26 2.342791 1_555
Na6 O12 2.342795 1_555
Na6 O7 2.342801 1_555
Na7 O16 2.266940 1_555
Na7 O8 2.287600 1_555
Na7 O22 2.304898 1_554
Na7 O25 2.327399 1_655
Na7 O15 2.899099 1_555
Na8 O18 2.266940 1_555
Na8 O36 2.287600 1_655
Na8 O54 2.304898 1_554
Na8 O53 2.327399 1_545
Na8 O15 2.899091 1_555
Na9 O34 2.266940 1_555
Na9 O29 2.287600 1_565
Na9 O21 2.304898 1_555
Na9 O19 2.327399 1_455
Na9 O44 2.899091 1_555
Na10 O24 2.266940 1_555
Na10 O30 2.287600 1_545
Na10 O37 2.304898 1_555
Na10 O39 2.327399 1_655
Na10 O14 2.899091 1_555
Na11 O40 2.266940 1_555
Na11 O22 2.287600 1_455
Na11 O3 2.304898 1_556
Na11 O4 2.327399 1_565
Na11 O43 2.899091 1_555
Na12 O42 2.266940 1_555
Na12 O49 2.287600 1_555
Na12 O36 2.304898 1_556
Na12 O33 2.327399 1_455
Na12 O43 2.899099 1_555
Na13 O44 2.306636 1_555
Na13 O32 2.342791 1_555
Na13 O46 2.342795 1_555
Na13 O50 2.342801 1_555
Na14 O43 2.306636 1_554
Na14 O41 2.342791 1_555
Na14 O35 2.342795 1_555
Na14 O52 2.342801 1_555
Na15 O45 2.266940 1_555
Na15 O37 2.287600 1_455
Na15 O1 2.304898 1_555
Na15 O2 2.327392 1_555
Na15 O44 2.899101 1_555
Na16 O47 2.266940 1_555
Na16 O57 2.287600 1_555
Na16 O30 2.304898 1_555
Na16 O27 2.327399 1_565
Na16 O44 2.899099 1_555
Na17 O51 2.266940 1_555
Na17 O54 2.287600 1_565
Na17 O8 2.304898 1_556
Na17 O10 2.327392 1_555
Na17 O43 2.899101 1_555
Fe0 O45 2.015607 1_555
Fe0 O6 2.015607 1_555
Fe0 O7 2.028284 1_555
Fe0 O52 2.028284 1_555
Fe0 O48 2.045910 1_555
Fe0 O2 2.045910 1_555
Fe1 O13 2.015607 1_555
Fe1 O51 2.015607 1_555
Fe1 O50 2.028284 1_555
Fe1 O5 2.028284 1_555
Fe1 O10 2.045910 1_555
Fe1 O56 2.045910 1_555
Fe2 O34 2.015607 1_555
Fe2 O16 2.015607 1_455
Fe2 O26 2.028284 1_455
Fe2 O35 2.028284 1_555
Fe2 O25 2.045910 1_555
Fe2 O19 2.045917 1_455
Fe3 O24 2.015607 1_455
Fe3 O42 2.015607 1_555
Fe3 O32 2.028284 1_555
Fe3 O23 2.028284 1_455
Fe3 O33 2.045910 1_455
Fe3 O39 2.045917 1_555
Fe4 O40 2.015607 1_545
Fe4 O11 2.015607 1_555
Fe4 O17 2.028284 1_555
Fe4 O46 2.028284 1_545
Fe4 O31 2.045910 1_545
Fe4 O4 2.045917 1_555
Fe5 O18 2.015607 1_555
Fe5 O47 2.015607 1_545
Fe5 O41 2.028284 1_545
Fe5 O12 2.028284 1_555
Fe5 O27 2.045910 1_555
Fe5 O53 2.045917 1_545
O0 P13 1.619264 1_555
O0 P0 1.619264 1_555
O1 P13 1.519448 1_555
O2 P1 1.541829 1_555
O3 P8 1.519448 1_555
O4 P0 1.541819 1_555
O5 P0 1.541017 1_555
O6 P3 1.561267 1_555
O7 P2 1.541017 1_555
O8 P15 1.519448 1_555
O9 P2 1.619264 1_555
O9 P15 1.619264 1_555
O10 P5 1.541829 1_555
O11 P4 1.561262 1_555
O12 P1 1.541017 1_555
O13 P4 1.561267 1_555
O14 P4 1.534878 1_555
O15 P3 1.534878 1_555
O16 P3 1.561262 1_555
O17 P7 1.541017 1_555
O18 P3 1.561258 1_555
O19 P2 1.541819 1_555
O20 P5 1.619264 1_455
O20 P6 1.619264 1_555
O21 P6 1.519448 1_555
O22 P5 1.519448 1_555
O23 P5 1.541017 1_555
O24 P4 1.561258 1_555
O25 P8 1.541826 1_555
O26 P9 1.541017 1_555
O27 P9 1.541826 1_555
O28 P1 1.619264 1_555
O28 P8 1.619264 1_545
O29 P1 1.519448 1_555
O30 P14 1.519448 1_555
O31 P6 1.541826 1_555
O32 P6 1.541017 1_555
O33 P7 1.541826 1_555
O34 P12 1.561258 1_555
O35 P10 1.541017 1_555
O36 P10 1.519448 1_555
O37 P9 1.519448 1_555
O38 P10 1.619264 1_555
O38 P9 1.619264 1_455
O39 P13 1.541819 1_555
O40 P11 1.561258 1_555
O41 P8 1.541017 1_555
O42 P11 1.561262 1_555
O43 P11 1.534878 1_555
O44 P12 1.534878 1_555
O45 P12 1.561267 1_555
O46 P14 1.541017 1_555
O47 P12 1.561262 1_555
O48 P10 1.541829 1_555
O49 P0 1.519448 1_555
O50 P13 1.541017 1_555
O51 P11 1.561267 1_555
O52 P15 1.541017 1_555
O53 P15 1.541819 1_555
O54 P7 1.519448 1_555
O55 P14 1.619264 1_545
O55 P7 1.619264 1_555
O56 P14 1.541829 1_555
O57 P2 1.519448 1_555
