# generated using pymatgen
data_Ba2Ti6N2O11
_symmetry_space_group_name_H-M   'P 1'
_cell_length_a   7.93027033
_cell_length_b   7.93027033
_cell_length_c   9.20173873
_cell_angle_alpha   81.63222286
_cell_angle_beta   81.63222286
_cell_angle_gamma   28.88316346
_symmetry_Int_Tables_number   1
_chemical_formula_structural   Ba2Ti6N2O11
_chemical_formula_sum   'Ba2 Ti6 N2 O11'
_cell_volume   276.34755465
_cell_formula_units_Z   1
loop_
 _symmetry_equiv_pos_site_id
 _symmetry_equiv_pos_as_xyz
  1  'x, y, z'
loop_
 _atom_site_type_symbol
 _atom_site_label
 _atom_site_symmetry_multiplicity
 _atom_site_fract_x
 _atom_site_fract_y
 _atom_site_fract_z
 _atom_site_occupancy
  Ba  Ba0  1  0.45214800  0.45214800  0.76562800  1
  Ba  Ba1  1  0.54785200  0.54785200  0.23437200  1
  Ti  Ti0  1  0.88014300  0.88014300  0.09325000  1
  Ti  Ti1  1  0.82457500  0.82457500  0.44467900  1
  Ti  Ti2  1  0.75811600  0.75811600  0.76349400  1
  Ti  Ti3  1  0.24188400  0.24188400  0.23650600  1
  Ti  Ti4  1  0.17542500  0.17542500  0.55532100  1
  Ti  Ti5  1  0.11985700  0.11985700  0.90675000  1
  N  N0  1  0.29597700  0.29597700  0.42087900  1
  N  N1  1  0.70402300  0.70402300  0.57912100  1
  O  O0  1  0.92416800  0.92416800  0.28736600  1
  O  O1  1  0.87230500  0.87230500  0.61846900  1
  O  O2  1  0.83787700  0.83787700  0.90941300  1
  O  O3  1  0.36212600  0.36212600  0.10882600  1
  O  O4  1  0.24275900  0.24275900  0.77173800  1
  O  O5  1  0.75724100  0.75724100  0.22826200  1
  O  O6  1  0.63787400  0.63787400  0.89117400  1
  O  O7  1  0.16212300  0.16212300  0.09058700  1
  O  O8  1  0.12769500  0.12769500  0.38153100  1
  O  O9  1  0.07583200  0.07583200  0.71263400  1
  O  O10  1  0.00000000  0.00000000  0.00000000  1
loop_
_geom_bond_atom_site_label_1
_geom_bond_atom_site_label_2
_geom_bond_distance
_geom_bond_site_symmetry_2
Ba0 O9 2.734917 1_565
Ba0 O9 2.734917 1_655
Ba0 O1 2.783549 1_545
Ba0 O1 2.783549 1_455
Ba0 O2 2.836298 1_455
Ba0 O2 2.836298 1_545
Ba0 O10 3.095019 1_566
Ba0 O10 3.095019 1_656
Ba0 O4 3.208119 1_555
Ba0 O6 3.234591 1_555
Ba0 O3 3.251542 1_556
Ba1 O0 2.734917 1_545
Ba1 O0 2.734917 1_455
Ba1 O8 2.783549 1_565
Ba1 O8 2.783549 1_655
Ba1 O7 2.836298 1_655
Ba1 O7 2.836298 1_565
Ba1 O10 3.095019 1_565
Ba1 O10 3.095019 1_655
Ba1 O5 3.208119 1_555
Ba1 O3 3.234591 1_555
Ba1 O6 3.251542 1_554
N0 Ti3 1.998054 1_555
N0 Ti1 2.044826 1_455
N0 Ti1 2.044826 1_545
N0 Ti4 2.066497 1_555
N1 Ti2 1.998054 1_555
N1 Ti4 2.044826 1_565
N1 Ti4 2.044826 1_655
N1 Ti1 2.066497 1_555
O0 Ti1 1.941609 1_555
O0 Ti0 2.002694 1_555
O1 Ti1 1.856647 1_555
O1 Ti2 2.038007 1_555
O2 Ti0 1.900807 1_556
O2 Ti2 1.948864 1_555
O3 Ti0 1.999176 1_545
O3 Ti0 1.999176 1_455
O3 Ti3 2.034461 1_555
O4 Ti2 1.991863 1_545
O4 Ti2 1.991863 1_455
O4 Ti5 2.098092 1_555
O4 Ti4 2.377879 1_555
O5 Ti3 1.991863 1_565
O5 Ti3 1.991863 1_655
O5 Ti0 2.098092 1_555
O5 Ti1 2.377879 1_555
O6 Ti5 1.999176 1_655
O6 Ti5 1.999176 1_565
O6 Ti2 2.034461 1_555
O7 Ti5 1.900807 1_554
O7 Ti3 1.948864 1_555
O8 Ti4 1.856647 1_555
O8 Ti3 2.038007 1_555
O9 Ti4 1.941609 1_555
O9 Ti5 2.002694 1_555
O10 Ti5 1.910637 1_554
O10 Ti0 1.910637 1_445
