# generated using pymatgen
data_Li2Bi(BO2)5
_symmetry_space_group_name_H-M   'P 1'
_cell_length_a   16.42005000
_cell_length_b   7.25873700
_cell_length_c   7.26090282
_cell_angle_alpha   87.37227571
_cell_angle_beta   90.00000000
_cell_angle_gamma   90.00000000
_symmetry_Int_Tables_number   1
_chemical_formula_structural   Li2Bi(BO2)5
_chemical_formula_sum   'Li8 Bi4 B20 O40'
_cell_volume   864.50848654
_cell_formula_units_Z   4
loop_
 _symmetry_equiv_pos_site_id
 _symmetry_equiv_pos_as_xyz
  1  'x, y, z'
loop_
 _atom_site_type_symbol
 _atom_site_label
 _atom_site_symmetry_multiplicity
 _atom_site_fract_x
 _atom_site_fract_y
 _atom_site_fract_z
 _atom_site_occupancy
  Li  Li0  1  0.84144800  0.98474500  0.08914200  1
  Li  Li1  1  0.65855200  0.48474500  0.08914200  1
  Li  Li2  1  0.08574600  0.39095000  0.30726500  1
  Li  Li3  1  0.41425400  0.89095000  0.30726500  1
  Li  Li4  1  0.58574600  0.10905000  0.69273500  1
  Li  Li5  1  0.91425400  0.60905000  0.69273500  1
  Li  Li6  1  0.34144800  0.51525500  0.91085800  1
  Li  Li7  1  0.15855200  0.01525500  0.91085800  1
  Bi  Bi0  1  0.87511400  0.47698000  0.16869400  1
  Bi  Bi1  1  0.62488600  0.97698000  0.16869400  1
  Bi  Bi2  1  0.37511400  0.02302000  0.83130600  1
  Bi  Bi3  1  0.12488600  0.52302000  0.83130600  1
  B  B0  1  0.97892500  0.07837700  0.19740200  1
  B  B1  1  0.52107500  0.57837700  0.19740200  1
  B  B2  1  0.23153600  0.48559100  0.22950900  1
  B  B3  1  0.26846400  0.98559100  0.22950900  1
  B  B4  1  0.47892500  0.25633400  0.25929900  1
  B  B5  1  0.02107500  0.75633400  0.25929900  1
  B  B6  1  0.37896300  0.50711400  0.31061300  1
  B  B7  1  0.12103700  0.00711400  0.31061300  1
  B  B8  1  0.72576700  0.47804400  0.45125500  1
  B  B9  1  0.77423300  0.97804400  0.45125500  1
  B  B10  1  0.22576700  0.02195600  0.54874500  1
  B  B11  1  0.27423300  0.52195600  0.54874500  1
  B  B12  1  0.87896300  0.99288600  0.68938700  1
  B  B13  1  0.62103700  0.49288600  0.68938700  1
  B  B14  1  0.97892500  0.24366600  0.74070100  1
  B  B15  1  0.52107500  0.74366600  0.74070100  1
  B  B16  1  0.73153600  0.01440900  0.77049100  1
  B  B17  1  0.76846400  0.51440900  0.77049100  1
  B  B18  1  0.47892500  0.42162300  0.80259800  1
  B  B19  1  0.02107500  0.92162300  0.80259800  1
  O  O0  1  0.16645700  0.45968600  0.11585700  1
  O  O1  1  0.33354300  0.95968600  0.11585700  1
  O  O2  1  0.91497700  0.19048600  0.14184500  1
  O  O3  1  0.58502300  0.69048600  0.14184500  1
  O  O4  1  0.19015400  0.02102100  0.17048900  1
  O  O5  1  0.53709300  0.38785500  0.18777700  1
  O  O6  1  0.30984600  0.52102100  0.17048900  1
  O  O7  1  0.96290700  0.88785500  0.18777700  1
  O  O8  1  0.49771300  0.07331500  0.26574100  1
  O  O9  1  0.00228700  0.57331500  0.26574100  1
  O  O10  1  0.74460500  0.46686300  0.26861900  1
  O  O11  1  0.05389400  0.13823800  0.25184700  1
  O  O12  1  0.75539500  0.96686300  0.26861900  1
  O  O13  1  0.44610600  0.63823800  0.25184700  1
  O  O14  1  0.40643700  0.31656800  0.32208900  1
  O  O15  1  0.09356300  0.81656800  0.32208900  1
  O  O16  1  0.21410400  0.46978000  0.42074000  1
  O  O17  1  0.28589600  0.96978000  0.42074000  1
  O  O18  1  0.64921900  0.43680300  0.51096300  1
  O  O19  1  0.14921900  0.06319700  0.48903700  1
  O  O20  1  0.85078100  0.93680300  0.51096300  1
  O  O21  1  0.35078100  0.56319700  0.48903700  1
  O  O22  1  0.71410400  0.03022000  0.57926000  1
  O  O23  1  0.78589600  0.53022000  0.57926000  1
  O  O24  1  0.90643700  0.18343200  0.67791100  1
  O  O25  1  0.59356300  0.68343200  0.67791100  1
  O  O26  1  0.55389400  0.36176200  0.74815300  1
  O  O27  1  0.24460500  0.03313700  0.73138100  1
  O  O28  1  0.94610600  0.86176200  0.74815300  1
  O  O29  1  0.25539500  0.53313700  0.73138100  1
  O  O30  1  0.99771300  0.42668500  0.73425900  1
  O  O31  1  0.50228700  0.92668500  0.73425900  1
  O  O32  1  0.03709300  0.11214500  0.81222300  1
  O  O33  1  0.69015400  0.47897900  0.82951100  1
  O  O34  1  0.46290700  0.61214500  0.81222300  1
  O  O35  1  0.80984600  0.97897900  0.82951100  1
  O  O36  1  0.41497700  0.30951400  0.85815500  1
  O  O37  1  0.08502300  0.80951400  0.85815500  1
  O  O38  1  0.66645700  0.04031400  0.88414300  1
  O  O39  1  0.83354300  0.54031400  0.88414300  1
loop_
_geom_bond_atom_site_label_1
_geom_bond_atom_site_label_2
_geom_bond_distance
_geom_bond_site_symmetry_2
Li0 O12 1.922532 1_555
Li0 O35 1.957565 1_554
Li0 O2 1.971506 1_565
Li0 O7 2.222350 1_555
Li1 O10 1.922532 1_555
Li1 O33 1.957565 1_554
Li1 O3 1.971506 1_555
Li1 O5 2.222350 1_555
Li2 O9 1.919529 1_555
Li2 O11 1.966735 1_555
Li2 O0 1.968057 1_555
Li2 O16 2.343433 1_555
Li3 O8 1.919529 1_565
Li3 O13 1.966735 1_555
Li3 O1 1.968057 1_555
Li3 O17 2.343433 1_555
Li4 O31 1.919529 1_545
Li4 O26 1.966735 1_555
Li4 O38 1.968057 1_555
Li4 O22 2.343433 1_555
Li5 O30 1.919529 1_555
Li5 O28 1.966735 1_555
Li5 O39 1.968057 1_555
Li5 O23 2.343433 1_555
Li6 O29 1.922532 1_555
Li6 O6 1.957565 1_556
Li6 O36 1.971506 1_555
Li6 O34 2.222350 1_555
Li7 O27 1.922532 1_555
Li7 O4 1.957565 1_556
Li7 O37 1.971506 1_545
Li7 O32 2.222350 1_555
Bi0 O2 2.197337 1_555
Bi0 O39 2.204303 1_554
Bi0 O10 2.262569 1_555
Bi0 O9 2.321899 1_655
Bi1 O3 2.197337 1_555
Bi1 O38 2.204303 1_564
Bi1 O12 2.262569 1_555
Bi1 O8 2.321899 1_565
Bi2 O36 2.197337 1_555
Bi2 O1 2.204303 1_546
Bi2 O27 2.262569 1_555
Bi2 O31 2.321899 1_545
Bi3 O37 2.197337 1_555
Bi3 O0 2.204303 1_556
Bi3 O29 2.262569 1_555
Bi3 O30 2.321899 1_455
B0 O11 1.369737 1_655
B0 O2 1.377465 1_555
B0 O7 1.412612 1_545
B1 O13 1.369737 1_555
B1 O3 1.377465 1_555
B1 O5 1.412612 1_555
B2 O0 1.368384 1_555
B2 O6 1.375900 1_555
B2 O16 1.417198 1_555
B3 O1 1.368384 1_555
B3 O4 1.375900 1_565
B3 O17 1.417198 1_555
B4 O14 1.354255 1_555
B4 O8 1.362549 1_555
B4 O5 1.431046 1_555
B5 O15 1.354255 1_555
B5 O9 1.362549 1_555
B5 O7 1.431046 1_455
B6 O21 1.451410 1_555
B6 O14 1.453588 1_555
B6 O13 1.505400 1_555
B6 O6 1.524447 1_555
B7 O19 1.451410 1_555
B7 O15 1.453588 1_545
B7 O11 1.505400 1_555
B7 O4 1.524447 1_555
B8 O18 1.358499 1_555
B8 O10 1.367729 1_555
B8 O23 1.419282 1_555
B9 O20 1.358499 1_555
B9 O12 1.367729 1_555
B9 O22 1.419282 1_565
B10 O19 1.358499 1_555
B10 O27 1.367729 1_555
B10 O17 1.419282 1_545
B11 O21 1.358499 1_555
B11 O29 1.367729 1_555
B11 O16 1.419282 1_555
B12 O20 1.451410 1_555
B12 O24 1.453588 1_565
B12 O28 1.505400 1_555
B12 O35 1.524447 1_555
B13 O18 1.451410 1_555
B13 O25 1.453588 1_555
B13 O26 1.505400 1_555
B13 O33 1.524447 1_555
B14 O24 1.354255 1_555
B14 O30 1.362549 1_555
B14 O32 1.431046 1_655
B15 O25 1.354255 1_555
B15 O31 1.362549 1_555
B15 O34 1.431046 1_555
B16 O38 1.368384 1_555
B16 O35 1.375900 1_545
B16 O22 1.417198 1_555
B17 O39 1.368384 1_555
B17 O33 1.375900 1_555
B17 O23 1.417198 1_555
B18 O26 1.369737 1_555
B18 O36 1.377465 1_555
B18 O34 1.412612 1_555
B19 O28 1.369737 1_455
B19 O37 1.377465 1_555
B19 O32 1.412612 1_565
