# generated using pymatgen
data_Lu2TeO6
_symmetry_space_group_name_H-M   'P 1'
_cell_length_a   5.13487021
_cell_length_b   8.88327048
_cell_length_c   9.74051323
_cell_angle_alpha   90.00000000
_cell_angle_beta   90.00000000
_cell_angle_gamma   90.00000000
_symmetry_Int_Tables_number   1
_chemical_formula_structural   Lu2TeO6
_chemical_formula_sum   'Lu8 Te4 O24'
_cell_volume   444.30806560
_cell_formula_units_Z   4
loop_
 _symmetry_equiv_pos_site_id
 _symmetry_equiv_pos_as_xyz
  1  'x, y, z'
loop_
 _atom_site_type_symbol
 _atom_site_label
 _atom_site_symmetry_multiplicity
 _atom_site_fract_x
 _atom_site_fract_y
 _atom_site_fract_z
 _atom_site_occupancy
  Lu  Lu0  1  0.01522306  0.39572803  0.03694216  1
  Lu  Lu1  1  0.04043501  0.28312751  0.63393898  1
  Lu  Lu2  1  0.45956499  0.71687249  0.13393898  1
  Lu  Lu3  1  0.48477694  0.60427197  0.53694216  1
  Lu  Lu4  1  0.51522306  0.10427197  0.96305784  1
  Lu  Lu5  1  0.54043501  0.21687249  0.36606102  1
  Lu  Lu6  1  0.95956499  0.78312751  0.86606102  1
  Lu  Lu7  1  0.98477694  0.89572803  0.46305784  1
  Te  Te0  1  0.03610956  0.00512245  0.15000274  1
  Te  Te1  1  0.46389044  0.99487755  0.65000274  1
  Te  Te2  1  0.53610956  0.49487755  0.84999726  1
  Te  Te3  1  0.96389044  0.50512245  0.34999726  1
  O  O0  1  0.09497411  0.65754051  0.46984362  1
  O  O1  1  0.17114383  0.54936909  0.19500362  1
  O  O2  1  0.19167652  0.85647288  0.26348825  1
  O  O3  1  0.17603902  0.85833922  0.67986389  1
  O  O4  1  0.23875194  0.38335395  0.42870210  1
  O  O5  1  0.24126036  0.91553692  0.00279862  1
  O  O6  1  0.25873964  0.08446308  0.50279862  1
  O  O7  1  0.26124806  0.61664605  0.92870210  1
  O  O8  1  0.32396098  0.14166078  0.17986389  1
  O  O9  1  0.30832348  0.14352712  0.76348825  1
  O  O10  1  0.32885617  0.45063091  0.69500362  1
  O  O11  1  0.40502589  0.34245949  0.96984362  1
  O  O12  1  0.59497411  0.84245949  0.53015638  1
  O  O13  1  0.67114383  0.95063091  0.80499638  1
  O  O14  1  0.69167652  0.64352712  0.73651175  1
  O  O15  1  0.67603902  0.64166078  0.32013611  1
  O  O16  1  0.73875194  0.11664605  0.57129790  1
  O  O17  1  0.74126036  0.58446308  0.99720138  1
  O  O18  1  0.75873964  0.41553692  0.49720138  1
  O  O19  1  0.76124806  0.88335395  0.07129790  1
  O  O20  1  0.82396098  0.35833922  0.82013611  1
  O  O21  1  0.80832348  0.35647288  0.23651175  1
  O  O22  1  0.82885617  0.04936909  0.30499638  1
  O  O23  1  0.90502589  0.15754051  0.03015638  1
loop_
_geom_bond_atom_site_label_1
_geom_bond_atom_site_label_2
_geom_bond_distance
_geom_bond_site_symmetry_2
Lu0 O11 2.158107 1_554
Lu0 O23 2.191237 1_455
Lu0 O1 2.207749 1_555
Lu0 O17 2.222557 1_454
Lu0 O21 2.242563 1_455
Lu0 O20 2.352563 1_454
Lu0 O7 2.561021 1_554
Lu1 O10 2.182027 1_555
Lu1 O16 2.226916 1_455
Lu1 O20 2.229645 1_455
Lu1 O9 2.241071 1_555
Lu1 O18 2.291229 1_455
Lu1 O4 2.413743 1_555
Lu1 O6 2.450048 1_555
Lu2 O1 2.182027 1_555
Lu2 O19 2.226916 1_555
Lu2 O15 2.229645 1_555
Lu2 O2 2.241071 1_555
Lu2 O17 2.291229 1_554
Lu2 O7 2.413743 1_554
Lu2 O5 2.450048 1_555
Lu3 O0 2.158107 1_555
Lu3 O12 2.191237 1_555
Lu3 O10 2.207749 1_555
Lu3 O18 2.222557 1_555
Lu3 O14 2.242563 1_555
Lu3 O15 2.352563 1_555
Lu3 O4 2.561021 1_555
Lu4 O23 2.158107 1_556
Lu4 O11 2.191237 1_555
Lu4 O13 2.207749 1_545
Lu4 O5 2.222557 1_546
Lu4 O9 2.242563 1_555
Lu4 O8 2.352563 1_556
Lu4 O19 2.561021 1_546
Lu5 O22 2.182027 1_555
Lu5 O4 2.226916 1_555
Lu5 O8 2.229645 1_555
Lu5 O21 2.241071 1_555
Lu5 O6 2.291229 1_555
Lu5 O16 2.413743 1_555
Lu5 O18 2.450048 1_555
Lu6 O13 2.182027 1_555
Lu6 O7 2.226916 1_655
Lu6 O3 2.229645 1_655
Lu6 O14 2.241071 1_555
Lu6 O5 2.291229 1_656
Lu6 O19 2.413743 1_556
Lu6 O17 2.450048 1_555
Lu7 O12 2.158107 1_555
Lu7 O0 2.191237 1_655
Lu7 O22 2.207749 1_565
Lu7 O6 2.222557 1_665
Lu7 O2 2.242563 1_655
Lu7 O3 2.352563 1_655
Lu7 O16 2.561021 1_565
O0 Te3 1.910246 1_455
O1 Te3 1.888466 1_455
O2 Te0 1.898351 1_565
O3 Te1 1.934028 1_555
O4 Te3 1.936436 1_455
O5 Te0 1.949083 1_565
O6 Te1 1.949083 1_545
O7 Te2 1.936436 1_555
O8 Te0 1.934028 1_555
O9 Te1 1.898351 1_545
O10 Te2 1.888466 1_555
O11 Te2 1.910246 1_555
O12 Te1 1.910246 1_555
O13 Te1 1.888466 1_555
O14 Te2 1.898351 1_555
O15 Te3 1.934028 1_555
O16 Te1 1.936436 1_545
O17 Te2 1.949083 1_555
O18 Te3 1.949083 1_555
O19 Te0 1.936436 1_665
O20 Te2 1.934028 1_555
O21 Te3 1.898351 1_555
O22 Te0 1.888466 1_655
O23 Te0 1.910246 1_655
