# generated using pymatgen
data_Li7Mn8(BO3)8
_symmetry_space_group_name_H-M   'P 1'
_cell_length_a   5.27275700
_cell_length_b   9.07944331
_cell_length_c   10.45344493
_cell_angle_alpha   88.65106482
_cell_angle_beta   88.63554630
_cell_angle_gamma   89.55787604
_symmetry_Int_Tables_number   1
_chemical_formula_structural   Li7Mn8(BO3)8
_chemical_formula_sum   'Li7 Mn8 B8 O24'
_cell_volume   500.15169971
_cell_formula_units_Z   1
loop_
 _symmetry_equiv_pos_site_id
 _symmetry_equiv_pos_as_xyz
  1  'x, y, z'
loop_
 _atom_site_type_symbol
 _atom_site_label
 _atom_site_symmetry_multiplicity
 _atom_site_fract_x
 _atom_site_fract_y
 _atom_site_fract_z
 _atom_site_occupancy
  Li  Li0  1  0.92380500  0.91612800  0.09477700  1
  Li  Li1  1  0.60887200  0.57701200  0.82604700  1
  Li  Li2  1  0.55370500  0.58920800  0.33884600  1
  Li  Li3  1  0.43110000  0.41957900  0.08335400  1
  Li  Li4  1  0.40785900  0.42862100  0.58651300  1
  Li  Li5  1  0.10770700  0.07226000  0.83571300  1
  Li  Li6  1  0.04979300  0.08505400  0.33226200  1
  Mn  Mn0  1  0.91913900  0.23050200  0.61614000  1
  Mn  Mn1  1  0.92052100  0.58516300  0.12004100  1
  Mn  Mn2  1  0.60599800  0.91756500  0.86609100  1
  Mn  Mn3  1  0.56562600  0.25248600  0.36822900  1
  Mn  Mn4  1  0.40103500  0.77425400  0.62006800  1
  Mn  Mn5  1  0.41444200  0.08563800  0.11774500  1
  Mn  Mn6  1  0.09355500  0.40404300  0.86731700  1
  Mn  Mn7  1  0.05624900  0.75064800  0.37758800  1
  B  B0  1  0.92426100  0.57210300  0.62514000  1
  B  B1  1  0.91224000  0.25185600  0.12493800  1
  B  B2  1  0.59384900  0.24867300  0.87683900  1
  B  B3  1  0.56354500  0.92410800  0.37366900  1
  B  B4  1  0.42790700  0.08177000  0.62724700  1
  B  B5  1  0.41214200  0.75100600  0.12677400  1
  B  B6  1  0.09591700  0.75058200  0.87078000  1
  B  B7  1  0.06838400  0.41827300  0.37705800  1
  O  O0  1  0.99120200  0.88541200  0.89704700  1
  O  O1  1  0.96446000  0.62215700  0.90339500  1
  O  O2  1  0.95616900  0.28142400  0.40484900  1
  O  O3  1  0.91809600  0.53700500  0.33647800  1
  O  O4  1  0.84450000  0.22673000  0.83776800  1
  O  O5  1  0.81945100  0.92687800  0.36017400  1
  O  O6  1  0.66343900  0.58226100  0.63553400  1
  O  O7  1  0.65318700  0.26880100  0.15641500  1
  O  O8  1  0.58650600  0.95850300  0.65477000  1
  O  O9  1  0.53639900  0.21277700  0.58105600  1
  O  O10  1  0.54737300  0.87174700  0.07753300  1
  O  O11  1  0.53017700  0.61553900  0.14292500  1
  O  O12  1  0.48970700  0.38863000  0.88854300  1
  O  O13  1  0.44330600  0.12550600  0.90738100  1
  O  O14  1  0.44175200  0.79537100  0.42569200  1
  O  O15  1  0.41261400  0.04219300  0.33376000  1
  O  O16  1  0.34499100  0.74182100  0.81471500  1
  O  O17  1  0.32690600  0.43481900  0.39222400  1
  O  O18  1  0.17490500  0.06757600  0.64934400  1
  O  O19  1  0.15637100  0.76560200  0.16354900  1
  O  O20  1  0.06809200  0.69144100  0.57886000  1
  O  O21  1  0.05764400  0.44405000  0.66005900  1
  O  O22  1  0.05572800  0.37326900  0.08265600  1
  O  O23  1  0.02446700  0.11520700  0.13806800  1
loop_
_geom_bond_atom_site_label_1
_geom_bond_atom_site_label_2
_geom_bond_distance
_geom_bond_site_symmetry_2
Li0 O23 1.954076 1_665
Li0 O19 1.964244 1_655
Li0 O10 2.041381 1_555
Li0 O0 2.113531 1_554
Li1 O12 1.921328 1_555
Li1 O6 2.004906 1_555
Li1 O16 2.038744 1_555
Li1 O1 2.106369 1_555
Li2 O17 1.914062 1_555
Li2 O3 1.975111 1_555
Li2 O11 2.062920 1_555
Li2 O14 2.171144 1_555
Li3 O7 1.948665 1_555
Li3 O11 1.976936 1_555
Li3 O22 2.026804 1_555
Li3 O12 2.077787 1_554
Li4 O21 1.988488 1_555
Li4 O6 2.029811 1_555
Li4 O9 2.070297 1_555
Li4 O17 2.084662 1_555
Li5 O0 1.900681 1_445
Li5 O4 1.965577 1_455
Li5 O18 1.973226 1_555
Li5 O13 2.004899 1_555
Li6 O5 1.900809 1_445
Li6 O15 1.949657 1_555
Li6 O2 2.007627 1_455
Li6 O23 2.049353 1_555
Mn0 O18 2.023553 1_655
Mn0 O9 2.067886 1_555
Mn0 O21 2.140835 1_655
Mn0 O2 2.250133 1_555
Mn0 O4 2.340205 1_555
Mn1 O11 2.083346 1_555
Mn1 O22 2.088839 1_655
Mn1 O19 2.128563 1_655
Mn1 O1 2.288175 1_554
Mn1 O3 2.294001 1_555
Mn2 O0 2.081575 1_555
Mn2 O13 2.117173 1_565
Mn2 O16 2.199543 1_555
Mn2 O8 2.236092 1_555
Mn2 O10 2.253925 1_556
Mn3 O17 2.088121 1_555
Mn3 O15 2.120460 1_555
Mn3 O2 2.122890 1_555
Mn3 O9 2.247248 1_555
Mn3 O7 2.252698 1_555
Mn4 O20 1.975960 1_555
Mn4 O8 1.989272 1_555
Mn4 O14 2.042788 1_555
Mn4 O16 2.063654 1_555
Mn4 O6 2.222462 1_555
Mn5 O23 2.078150 1_555
Mn5 O10 2.107790 1_545
Mn5 O7 2.145208 1_555
Mn5 O13 2.222015 1_554
Mn5 O15 2.282935 1_555
Mn6 O12 2.109042 1_555
Mn6 O4 2.118271 1_455
Mn6 O1 2.128263 1_455
Mn6 O21 2.200728 1_555
Mn6 O22 2.266026 1_556
Mn7 O5 2.029431 1_455
Mn7 O3 2.133997 1_455
Mn7 O14 2.149534 1_555
Mn7 O20 2.161509 1_555
Mn7 O19 2.287759 1_555
B0 O6 1.379502 1_555
B0 O20 1.397765 1_655
B0 O21 1.399731 1_655
B1 O23 1.375809 1_655
B1 O22 1.398919 1_655
B1 O7 1.405497 1_555
B2 O12 1.387302 1_555
B2 O4 1.388254 1_555
B2 O13 1.402641 1_555
B3 O5 1.353705 1_555
B3 O15 1.392286 1_565
B3 O14 1.428076 1_555
B4 O18 1.355044 1_555
B4 O9 1.394825 1_555
B4 O8 1.420053 1_545
B5 O11 1.382778 1_555
B5 O10 1.393982 1_555
B5 O19 1.399667 1_555
B6 O0 1.370053 1_455
B6 O1 1.392410 1_455
B6 O16 1.427764 1_555
B7 O17 1.385779 1_555
B7 O3 1.396896 1_455
B7 O2 1.401602 1_455
