# generated using pymatgen
data_TaTl3S4
_symmetry_space_group_name_H-M   'P 1'
_cell_length_a   6.71671913
_cell_length_b   6.71671836
_cell_length_c   6.71671925
_cell_angle_alpha   109.47122014
_cell_angle_beta   109.47121779
_cell_angle_gamma   109.47122123
_symmetry_Int_Tables_number   1
_chemical_formula_structural   TaTl3S4
_chemical_formula_sum   'Ta1 Tl3 S4'
_cell_volume   233.26503522
_cell_formula_units_Z   1
loop_
 _symmetry_equiv_pos_site_id
 _symmetry_equiv_pos_as_xyz
  1  'x, y, z'
loop_
 _atom_site_type_symbol
 _atom_site_label
 _atom_site_symmetry_multiplicity
 _atom_site_fract_x
 _atom_site_fract_y
 _atom_site_fract_z
 _atom_site_occupancy
  Ta  Ta0  1  0.00000000  -0.00000000  -0.00000000  1
  Tl  Tl0  1  0.50000000  -0.00000000  0.50000000  1
  Tl  Tl1  1  0.50000000  0.50000000  -0.00000000  1
  Tl  Tl2  1  0.00000000  0.50000000  0.50000000  1
  S  S0  1  -0.00000000  -0.00000000  0.66063951  1
  S  S1  1  0.00000000  0.66063951  0.00000000  1
  S  S2  1  0.66063951  -0.00000000  -0.00000000  1
  S  S3  1  0.33936049  0.33936049  0.33936049  1
loop_
_geom_bond_atom_site_label_1
_geom_bond_atom_site_label_2
_geom_bond_distance
_geom_bond_site_symmetry_2
S0 Ta0 2.279389 1_556
S0 Tl2 3.166550 1_545
S0 Tl1 3.166550 1_556
S0 Tl0 3.166551 1_455
S1 Ta0 2.279389 1_565
S1 Tl1 3.166551 1_455
S1 Tl2 3.166551 1_554
S1 Tl0 3.166551 1_565
S2 Ta0 2.279389 1_655
S2 Tl1 3.166550 1_545
S2 Tl2 3.166551 1_655
S2 Tl0 3.166551 1_554
S3 Ta0 2.279389 1_555
S3 Tl0 3.166550 1_555
S3 Tl2 3.166550 1_555
S3 Tl1 3.166550 1_555
