# generated using pymatgen
data_NaMnO4
_symmetry_space_group_name_H-M   'P 1'
_cell_length_a   8.49504600
_cell_length_b   5.73518000
_cell_length_c   9.05508819
_cell_angle_alpha   52.84565746
_cell_angle_beta   90.00000000
_cell_angle_gamma   90.00000000
_symmetry_Int_Tables_number   1
_chemical_formula_structural   NaMnO4
_chemical_formula_sum   'Na4 Mn4 O16'
_cell_volume   351.61713800
_cell_formula_units_Z   4
loop_
 _symmetry_equiv_pos_site_id
 _symmetry_equiv_pos_as_xyz
  1  'x, y, z'
loop_
 _atom_site_type_symbol
 _atom_site_label
 _atom_site_symmetry_multiplicity
 _atom_site_fract_x
 _atom_site_fract_y
 _atom_site_fract_z
 _atom_site_occupancy
  Na  Na0  1  0.53272900  0.91295600  0.33629900  1
  Na  Na1  1  0.03272900  0.08704400  0.16370100  1
  Na  Na2  1  0.96727100  0.91295600  0.83629900  1
  Na  Na3  1  0.46727100  0.08704400  0.66370100  1
  Mn  Mn0  1  0.68754300  0.40573900  0.83792800  1
  Mn  Mn1  1  0.18754300  0.59426100  0.66207200  1
  Mn  Mn2  1  0.81245700  0.40573900  0.33792800  1
  Mn  Mn3  1  0.31245700  0.59426100  0.16207200  1
  O  O0  1  0.77558300  0.72605600  0.28361800  1
  O  O1  1  0.61887000  0.43993600  0.65838400  1
  O  O2  1  0.84734400  0.21083300  0.90751900  1
  O  O3  1  0.05894500  0.75543700  0.49792300  1
  O  O4  1  0.55894500  0.24456300  0.00207700  1
  O  O5  1  0.34734400  0.78916700  0.59248100  1
  O  O6  1  0.11887000  0.56006400  0.84161600  1
  O  O7  1  0.72441700  0.72605600  0.78361800  1
  O  O8  1  0.27558300  0.27394400  0.21638200  1
  O  O9  1  0.88113000  0.43993600  0.15838400  1
  O  O10  1  0.65265600  0.21083300  0.40751900  1
  O  O11  1  0.44105500  0.75543700  0.99792300  1
  O  O12  1  0.94105500  0.24456300  0.50207700  1
  O  O13  1  0.15265600  0.78916700  0.09248100  1
  O  O14  1  0.38113000  0.56006400  0.34161600  1
  O  O15  1  0.22441700  0.27394400  0.71638200  1
loop_
_geom_bond_atom_site_label_1
_geom_bond_atom_site_label_2
_geom_bond_distance
_geom_bond_site_symmetry_2
Na0 O14 2.374724 1_555
Na0 O10 2.388138 1_565
Na0 O4 2.423472 1_565
Na0 O0 2.500078 1_555
Na0 O5 2.525092 1_555
Na0 O1 2.616082 1_555
Na0 O8 2.742577 1_565
Na1 O9 2.374724 1_455
Na1 O13 2.388138 1_545
Na1 O3 2.423472 1_545
Na1 O8 2.500078 1_555
Na1 O2 2.525092 1_454
Na1 O6 2.616082 1_554
Na1 O0 2.742577 1_445
Na2 O6 2.374724 1_655
Na2 O2 2.388138 1_565
Na2 O12 2.423472 1_565
Na2 O7 2.500078 1_555
Na2 O13 2.525092 1_656
Na2 O9 2.616082 1_556
Na2 O15 2.742577 1_665
Na3 O1 2.374724 1_555
Na3 O5 2.388138 1_545
Na3 O11 2.423472 1_545
Na3 O15 2.500078 1_555
Na3 O10 2.525092 1_555
Na3 O14 2.616082 1_555
Na3 O7 2.742577 1_545
Mn0 O4 1.611701 1_556
Mn0 O7 1.619731 1_555
Mn0 O1 1.623829 1_555
Mn0 O2 1.624379 1_555
Mn1 O3 1.611701 1_555
Mn1 O15 1.619731 1_555
Mn1 O6 1.623829 1_555
Mn1 O5 1.624379 1_555
Mn2 O12 1.611701 1_555
Mn2 O0 1.619731 1_555
Mn2 O9 1.623829 1_555
Mn2 O10 1.624379 1_555
Mn3 O11 1.611701 1_554
Mn3 O8 1.619731 1_555
Mn3 O14 1.623829 1_555
Mn3 O13 1.624379 1_555
