# generated using pymatgen
data_KVH2SO7
_symmetry_space_group_name_H-M   'P 1'
_cell_length_a   4.72160400
_cell_length_b   10.86869600
_cell_length_c   11.66718200
_cell_angle_alpha   90.00000000
_cell_angle_beta   90.00000000
_cell_angle_gamma   90.00000000
_symmetry_Int_Tables_number   1
_chemical_formula_structural   KVH2SO7
_chemical_formula_sum   'K4 V4 H8 S4 O28'
_cell_volume   598.73269497
_cell_formula_units_Z   4
loop_
 _symmetry_equiv_pos_site_id
 _symmetry_equiv_pos_as_xyz
  1  'x, y, z'
loop_
 _atom_site_type_symbol
 _atom_site_label
 _atom_site_symmetry_multiplicity
 _atom_site_fract_x
 _atom_site_fract_y
 _atom_site_fract_z
 _atom_site_occupancy
  K  K0  1  0.79394700  0.59008600  0.91200700  1
  K  K1  1  0.70605300  0.40991400  0.41200700  1
  K  K2  1  0.29394700  0.90991400  0.08799300  1
  K  K3  1  0.20605300  0.09008600  0.58799300  1
  V  V0  1  0.83383300  0.79314800  0.59999100  1
  V  V1  1  0.66616700  0.20685200  0.09999100  1
  V  V2  1  0.33383300  0.70685200  0.40000900  1
  V  V3  1  0.16616700  0.29314800  0.90000900  1
  H  H0  1  0.90402700  0.54176300  0.65122200  1
  H  H1  1  0.59597300  0.45823700  0.15122200  1
  H  H2  1  0.40402700  0.95823700  0.34877800  1
  H  H3  1  0.09597300  0.04176300  0.84877800  1
  H  H4  1  0.77745600  0.08280200  0.83471800  1
  H  H5  1  0.72254400  0.91719800  0.33471800  1
  H  H6  1  0.27745600  0.41719800  0.16528200  1
  H  H7  1  0.22254400  0.58280200  0.66528200  1
  S  S0  1  0.86477500  0.66975200  0.19944200  1
  S  S1  1  0.63522500  0.33024800  0.69944200  1
  S  S2  1  0.36477500  0.83024800  0.80055800  1
  S  S3  1  0.13522500  0.16975200  0.30055800  1
  O  O0  1  0.87374100  0.30248900  0.01263000  1
  O  O1  1  0.62625900  0.69751100  0.51263000  1
  O  O2  1  0.37374100  0.19751100  0.98737000  1
  O  O3  1  0.12625900  0.80248900  0.48737000  1
  O  O4  1  0.29934900  0.42964000  0.92005400  1
  O  O5  1  0.20065100  0.57036000  0.42005400  1
  O  O6  1  0.79934900  0.07036000  0.07994600  1
  O  O7  1  0.70065100  0.92964000  0.57994600  1
  O  O8  1  0.96391200  0.55078500  0.15361900  1
  O  O9  1  0.53608800  0.44921500  0.65361900  1
  O  O10  1  0.46391200  0.94921500  0.84638100  1
  O  O11  1  0.03608800  0.05078500  0.34638100  1
  O  O12  1  0.25066500  0.75076900  0.89072500  1
  O  O13  1  0.24933500  0.24923100  0.39072500  1
  O  O14  1  0.75066500  0.74923100  0.10927500  1
  O  O15  1  0.74933500  0.25076900  0.60927500  1
  O  O16  1  0.85075300  0.35880700  0.79055500  1
  O  O17  1  0.64924700  0.64119300  0.29055500  1
  O  O18  1  0.35075300  0.14119300  0.20944500  1
  O  O19  1  0.14924700  0.85880700  0.70944500  1
  O  O20  1  0.10824500  0.74111600  0.25483600  1
  O  O21  1  0.39175500  0.25888400  0.75483600  1
  O  O22  1  0.60824500  0.75888400  0.74516400  1
  O  O23  1  0.89175500  0.24111600  0.24516400  1
  O  O24  1  0.97369000  0.11175800  0.82959500  1
  O  O25  1  0.52631000  0.88824200  0.32959500  1
  O  O26  1  0.47369000  0.38824200  0.17040500  1
  O  O27  1  0.02631000  0.61175800  0.67040500  1
loop_
_geom_bond_atom_site_label_1
_geom_bond_atom_site_label_2
_geom_bond_distance
_geom_bond_site_symmetry_2
K0 O12 2.786011 1_655
K0 O22 2.814926 1_555
K0 O14 2.886314 1_556
K0 O16 2.898022 1_555
K0 O4 2.916058 1_555
K0 O4 2.957069 1_655
K0 O8 2.961900 1_556
K0 O27 3.033955 1_655
K0 O12 3.113146 1_555
K1 O13 2.786011 1_555
K1 O23 2.814926 1_555
K1 O15 2.886314 1_555
K1 O17 2.898022 1_555
K1 O5 2.916058 1_655
K1 O5 2.957069 1_555
K1 O9 2.961900 1_555
K1 O26 3.033955 1_555
K1 O13 3.113146 1_655
K2 O14 2.786011 1_555
K2 O20 2.814926 1_555
K2 O12 2.886314 1_554
K2 O18 2.898022 1_565
K2 O6 2.916058 1_465
K2 O6 2.957069 1_565
K2 O10 2.961900 1_554
K2 O25 3.033955 1_555
K2 O14 3.113146 1_455
K3 O15 2.786011 1_455
K3 O21 2.814926 1_555
K3 O13 2.886314 1_555
K3 O19 2.898022 1_545
K3 O7 2.916058 1_545
K3 O7 2.957069 1_445
K3 O11 2.961900 1_555
K3 O24 3.033955 1_455
K3 O15 3.113146 1_555
H0 O27 0.980916 1_655
H1 O26 0.980916 1_555
H2 O25 0.980916 1_555
H3 O24 0.980916 1_455
H4 O24 0.980353 1_555
H5 O25 0.980353 1_555
H6 O26 0.980353 1_555
H7 O27 0.980353 1_555
O0 V1 1.754965 1_555
O0 V3 1.908720 1_654
O1 V0 1.754965 1_555
O1 V2 1.908720 1_555
O2 V3 1.754965 1_555
O2 V1 1.908720 1_556
O3 V2 1.754965 1_555
O3 V0 1.908720 1_455
O4 V3 1.628149 1_555
O5 V2 1.628149 1_555
O6 V1 1.628149 1_555
O7 V0 1.628149 1_555
O8 S0 1.475405 1_555
O9 S1 1.475405 1_555
O10 S2 1.475405 1_555
O11 S3 1.475405 1_555
O12 S2 1.463963 1_555
O13 S3 1.463963 1_555
O14 S0 1.463963 1_555
O15 S1 1.463963 1_555
O16 S1 1.503985 1_555
O16 V3 2.087568 1_655
O17 S0 1.503985 1_555
O17 V2 2.087568 1_555
O18 S3 1.503985 1_555
O18 V1 2.087568 1_555
O19 S2 1.503985 1_555
O19 V0 2.087568 1_455
O20 S0 1.529970 1_455
O20 V2 2.035197 1_555
O21 S1 1.529970 1_555
O21 V3 2.035197 1_555
O22 S2 1.529970 1_555
O22 V0 2.035197 1_555
O23 S3 1.529970 1_655
O23 V1 2.035197 1_555
O24 V3 2.321107 1_655
O25 V2 2.321107 1_555
O26 V1 2.321107 1_555
O27 V0 2.321107 1_455
