# generated using pymatgen
data_Li7Ti11O24
_symmetry_space_group_name_H-M   'P 1'
_cell_length_a   10.34894476
_cell_length_b   10.34894476
_cell_length_c   5.96483802
_cell_angle_alpha   73.21388886
_cell_angle_beta   73.21388886
_cell_angle_gamma   120.00185879
_symmetry_Int_Tables_number   1
_chemical_formula_structural   Li7Ti11O24
_chemical_formula_sum   'Li7 Ti11 O24'
_cell_volume   451.61440739
_cell_formula_units_Z   1
loop_
 _symmetry_equiv_pos_site_id
 _symmetry_equiv_pos_as_xyz
  1  'x, y, z'
loop_
 _atom_site_type_symbol
 _atom_site_label
 _atom_site_symmetry_multiplicity
 _atom_site_fract_x
 _atom_site_fract_y
 _atom_site_fract_z
 _atom_site_occupancy
  Li  Li0  1  0.78831300  0.45816700  0.13020900  1
  Li  Li1  1  0.45816700  0.78831300  0.13020900  1
  Li  Li2  1  0.50000000  0.50000000  0.00000000  1
  Li  Li3  1  0.54183300  0.21168700  0.86979100  1
  Li  Li4  1  0.21168700  0.54183300  0.86979100  1
  Li  Li5  1  0.12404200  0.12404200  0.12802000  1
  Li  Li6  1  0.87595800  0.87595800  0.87198000  1
  Ti  Ti0  1  0.50000000  0.00000000  0.50000000  1
  Ti  Ti1  1  0.65707600  0.82062600  0.52113700  1
  Ti  Ti2  1  0.50000000  0.50000000  0.50000000  1
  Ti  Ti3  1  0.17937400  0.34292400  0.47886300  1
  Ti  Ti4  1  0.34292400  0.17937400  0.47886300  1
  Ti  Ti5  1  0.00000000  0.50000000  0.50000000  1
  Ti  Ti6  1  0.16612200  0.83387800  0.50000000  1
  Ti  Ti7  1  0.83387800  0.16612200  0.50000000  1
  Ti  Ti8  1  0.16587000  0.83413000  0.00000000  1
  Ti  Ti9  1  0.83413000  0.16587000  0.00000000  1
  Ti  Ti10  1  0.82062600  0.65707600  0.52113700  1
  O  O0  1  0.77112400  0.25467300  0.73624600  1
  O  O1  1  0.74532700  0.22887600  0.26375400  1
  O  O2  1  0.59533000  0.92760200  0.71480200  1
  O  O3  1  0.59737900  0.93080300  0.26276100  1
  O  O4  1  0.75085200  0.75085200  0.71476100  1
  O  O5  1  0.73699600  0.73699600  0.28709800  1
  O  O6  1  0.44099900  0.59506100  0.71755700  1
  O  O7  1  0.25467300  0.77112400  0.73624600  1
  O  O8  1  0.59506100  0.44099900  0.71755700  1
  O  O9  1  0.40493900  0.55900100  0.28244300  1
  O  O10  1  0.55900100  0.40493900  0.28244300  1
  O  O11  1  0.22887600  0.74532700  0.26375400  1
  O  O12  1  0.26300400  0.26300400  0.71290200  1
  O  O13  1  0.24914800  0.24914800  0.28523900  1
  O  O14  1  0.06919700  0.40262100  0.73723900  1
  O  O15  1  0.07239800  0.40467000  0.28519800  1
  O  O16  1  0.40262100  0.06919700  0.73723900  1
  O  O17  1  0.40467000  0.07239800  0.28519800  1
  O  O18  1  0.91969400  0.10553800  0.73807100  1
  O  O19  1  0.10553800  0.91969400  0.73807100  1
  O  O20  1  0.89446200  0.08030600  0.26192900  1
  O  O21  1  0.08030600  0.89446200  0.26192900  1
  O  O22  1  0.92760200  0.59533000  0.71480200  1
  O  O23  1  0.93080300  0.59737900  0.26276100  1
loop_
_geom_bond_atom_site_label_1
_geom_bond_atom_site_label_2
_geom_bond_distance
_geom_bond_site_symmetry_2
Li0 O10 1.979608 1_555
Li0 O23 2.020399 1_555
Li0 O22 2.022769 1_554
Li0 O1 2.027570 1_555
Li1 O9 1.979608 1_555
Li1 O3 2.020399 1_555
Li1 O2 2.022769 1_554
Li1 O11 2.027570 1_555
Li2 O10 2.101558 1_555
Li2 O8 2.101558 1_554
Li2 O6 2.101558 1_554
Li2 O9 2.101558 1_555
Li2 O13 2.128721 1_555
Li2 O4 2.128721 1_554
Li3 O8 1.979608 1_555
Li3 O16 2.020399 1_555
Li3 O17 2.022769 1_556
Li3 O0 2.027570 1_555
Li4 O6 1.979608 1_555
Li4 O14 2.020399 1_555
Li4 O15 2.022769 1_556
Li4 O7 2.027570 1_555
Li5 O13 1.989532 1_555
Li5 O12 2.021287 1_554
Li5 O20 2.026674 1_455
Li5 O21 2.026674 1_545
Li6 O4 1.989532 1_555
Li6 O5 2.021287 1_556
Li6 O18 2.026674 1_565
Li6 O19 2.026674 1_655
O0 Ti5 2.008398 1_655
O0 Ti7 2.014898 1_555
O0 Ti9 2.025228 1_556
O1 Ti0 2.008398 1_555
O1 Ti7 2.014898 1_555
O1 Ti9 2.025228 1_555
O2 Ti1 1.997051 1_555
O2 Ti7 2.020244 1_565
O2 Ti0 2.022659 1_565
O3 Ti9 1.999133 1_565
O3 Ti0 2.003558 1_565
O3 Ti1 2.072776 1_555
O4 Ti10 1.914063 1_555
O4 Ti1 1.914063 1_555
O5 Ti2 2.007440 1_555
O5 Ti10 2.031943 1_555
O5 Ti1 2.031943 1_555
O6 Ti1 1.873250 1_555
O6 Ti2 1.976134 1_555
O7 Ti0 2.008398 1_565
O7 Ti6 2.014898 1_555
O7 Ti8 2.025228 1_556
O8 Ti10 1.873250 1_555
O8 Ti2 1.976134 1_555
O9 Ti3 1.873250 1_555
O9 Ti2 1.976134 1_555
O10 Ti4 1.873250 1_555
O10 Ti2 1.976134 1_555
O11 Ti5 2.008398 1_555
O11 Ti6 2.014898 1_555
O11 Ti8 2.025228 1_555
O12 Ti2 2.007440 1_555
O12 Ti4 2.031943 1_555
O12 Ti3 2.031943 1_555
O13 Ti4 1.914063 1_555
O13 Ti3 1.914063 1_555
O14 Ti9 1.999133 1_456
O14 Ti5 2.003558 1_555
O14 Ti3 2.072776 1_555
O15 Ti3 1.997051 1_555
O15 Ti7 2.020244 1_455
O15 Ti5 2.022659 1_555
O16 Ti8 1.999133 1_546
O16 Ti0 2.003558 1_555
O16 Ti4 2.072776 1_555
O17 Ti4 1.997051 1_555
O17 Ti6 2.020244 1_545
O17 Ti0 2.022659 1_555
O18 Ti9 1.982976 1_556
O18 Ti7 1.992342 1_555
O18 Ti3 2.109886 1_655
O19 Ti8 1.982976 1_556
O19 Ti6 1.992342 1_555
O19 Ti4 2.109886 1_565
O20 Ti9 1.982976 1_555
O20 Ti7 1.992342 1_555
O20 Ti1 2.109886 1_545
O21 Ti8 1.982976 1_555
O21 Ti6 1.992342 1_555
O21 Ti10 2.109886 1_455
O22 Ti10 1.997051 1_555
O22 Ti6 2.020244 1_655
O22 Ti5 2.022659 1_655
O23 Ti8 1.999133 1_655
O23 Ti5 2.003558 1_655
O23 Ti10 2.072776 1_555
