# generated using pymatgen
data_Li4Nb3Ni3(SbO8)2
_symmetry_space_group_name_H-M   'P 1'
_cell_length_a   6.14910557
_cell_length_b   6.14910557
_cell_length_c   10.15668598
_cell_angle_alpha   89.96191239
_cell_angle_beta   89.96191239
_cell_angle_gamma   59.45680367
_symmetry_Int_Tables_number   1
_chemical_formula_structural   Li4Nb3Ni3(SbO8)2
_chemical_formula_sum   'Li4 Nb3 Ni3 Sb2 O16'
_cell_volume   330.75251287
_cell_formula_units_Z   1
loop_
 _symmetry_equiv_pos_site_id
 _symmetry_equiv_pos_as_xyz
  1  'x, y, z'
loop_
 _atom_site_type_symbol
 _atom_site_label
 _atom_site_symmetry_multiplicity
 _atom_site_fract_x
 _atom_site_fract_y
 _atom_site_fract_z
 _atom_site_occupancy
  Li  Li0  1  0.66105700  0.66105700  0.11211400  1
  Li  Li1  1  0.99420800  0.99420800  0.01923800  1
  Li  Li2  1  0.99623500  0.99623500  0.49751500  1
  Li  Li3  1  0.33038000  0.33038000  0.59160000  1
  Nb  Nb0  1  0.33382200  0.83314900  0.78150000  1
  Nb  Nb1  1  0.83314900  0.33382200  0.78150000  1
  Nb  Nb2  1  0.17674100  0.17674100  0.28111700  1
  Ni  Ni0  1  0.83046600  0.83046600  0.77810200  1
  Ni  Ni1  1  0.17104500  0.66094200  0.29530600  1
  Ni  Ni2  1  0.66094200  0.17104500  0.29530600  1
  Sb  Sb0  1  0.67361000  0.67361000  0.50057100  1
  Sb  Sb1  1  0.35109900  0.35109900  0.02429000  1
  O  O0  1  0.33347800  0.83926800  0.40804500  1
  O  O1  1  0.51718600  0.51718600  0.65721300  1
  O  O2  1  0.66202400  0.66202400  0.89042500  1
  O  O3  1  0.99888400  0.99888400  0.67750000  1
  O  O4  1  0.00461800  0.00461800  0.20470900  1
  O  O5  1  0.83926800  0.33347800  0.40804500  1
  O  O6  1  0.50802100  0.95847200  0.65337400  1
  O  O7  1  0.95847200  0.50802100  0.65337400  1
  O  O8  1  0.15954000  0.15954000  0.88353300  1
  O  O9  1  0.83651300  0.83651300  0.40805400  1
  O  O10  1  0.02305500  0.47457800  0.16615700  1
  O  O11  1  0.47457800  0.02305500  0.16615700  1
  O  O12  1  0.32247300  0.32247300  0.40041800  1
  O  O13  1  0.16272400  0.70300400  0.89534000  1
  O  O14  1  0.48346500  0.48346500  0.16627400  1
  O  O15  1  0.70300400  0.16272400  0.89534000  1
loop_
_geom_bond_atom_site_label_1
_geom_bond_atom_site_label_2
_geom_bond_distance
_geom_bond_site_symmetry_2
Li0 O14 1.974368 1_555
Li0 O10 1.994392 1_655
Li0 O11 1.994392 1_565
Li0 O2 2.251641 1_554
Li1 O4 1.887133 1_665
Li1 O15 1.994765 1_564
Li1 O13 1.994765 1_654
Li1 O8 2.239116 1_664
Li2 O3 1.828292 1_555
Li2 O9 1.933291 1_555
Li2 O5 2.005516 1_565
Li2 O0 2.005516 1_655
Li3 O12 1.943675 1_555
Li3 O6 2.068043 1_545
Li3 O7 2.068043 1_455
Li3 O1 2.103856 1_555
Nb0 O13 1.984225 1_555
Nb0 O8 2.016369 1_565
Nb0 O2 2.060859 1_555
Nb0 O3 2.065026 1_455
Nb0 O6 2.066528 1_555
Nb0 O1 2.101067 1_555
Nb1 O15 1.984225 1_555
Nb1 O8 2.016369 1_655
Nb1 O2 2.060859 1_555
Nb1 O3 2.065026 1_545
Nb1 O7 2.066528 1_555
Nb1 O1 2.101067 1_555
Nb2 O11 1.962158 1_555
Nb2 O10 1.962158 1_555
Nb2 O12 1.973160 1_555
Nb2 O4 1.995854 1_555
Nb2 O5 2.205096 1_455
Nb2 O0 2.205096 1_545
Ni0 O3 2.067926 1_555
Ni0 O2 2.129404 1_555
Ni0 O7 2.138103 1_555
Ni0 O6 2.138103 1_555
Ni0 O13 2.140292 1_655
Ni0 O15 2.140292 1_565
Ni1 O4 2.039752 1_565
Ni1 O12 2.089777 1_555
Ni1 O9 2.109448 1_455
Ni1 O14 2.113483 1_555
Ni1 O0 2.151179 1_555
Ni1 O10 2.219345 1_555
Ni2 O4 2.039752 1_655
Ni2 O12 2.089777 1_555
Ni2 O9 2.109448 1_545
Ni2 O14 2.113483 1_555
Ni2 O5 2.151179 1_555
Ni2 O11 2.219345 1_555
O0 Sb0 2.032519 1_555
O1 Sb0 2.306039 1_555
O5 Sb0 2.032519 1_555
O6 Sb0 2.168502 1_555
O7 Sb0 2.168502 1_555
O8 Sb1 2.496695 1_556
O9 Sb0 1.976653 1_555
O10 Sb1 2.272136 1_555
O11 Sb1 2.272136 1_555
O13 Sb1 2.278204 1_556
O14 Sb1 2.020159 1_555
O15 Sb1 2.278204 1_556
