# generated using pymatgen
data_LiSiBiO4
_symmetry_space_group_name_H-M   'P 1'
_cell_length_a   6.40788200
_cell_length_b   5.85329600
_cell_length_c   11.39951517
_cell_angle_alpha   64.36495596
_cell_angle_beta   90.00000000
_cell_angle_gamma   90.00000000
_symmetry_Int_Tables_number   1
_chemical_formula_structural   LiSiBiO4
_chemical_formula_sum   'Li4 Si4 Bi4 O16'
_cell_volume   385.47826920
_cell_formula_units_Z   4
loop_
 _symmetry_equiv_pos_site_id
 _symmetry_equiv_pos_as_xyz
  1  'x, y, z'
loop_
 _atom_site_type_symbol
 _atom_site_label
 _atom_site_symmetry_multiplicity
 _atom_site_fract_x
 _atom_site_fract_y
 _atom_site_fract_z
 _atom_site_occupancy
  Li  Li0  1  0.36767300  0.58209000  0.56327100  1
  Li  Li1  1  0.86767300  0.41791000  0.93672900  1
  Li  Li2  1  0.13232700  0.58209000  0.06327100  1
  Li  Li3  1  0.63232700  0.41791000  0.43672900  1
  Si  Si0  1  0.69936100  0.80836600  0.63265000  1
  Si  Si1  1  0.80063900  0.80836600  0.13265000  1
  Si  Si2  1  0.19936100  0.19163400  0.86735000  1
  Si  Si3  1  0.30063900  0.19163400  0.36735000  1
  Bi  Bi0  1  0.66525600  0.96752900  0.85831100  1
  Bi  Bi1  1  0.83474400  0.96752900  0.35831100  1
  Bi  Bi2  1  0.16525600  0.03247100  0.64168900  1
  Bi  Bi3  1  0.33474400  0.03247100  0.14168900  1
  O  O0  1  0.29708000  0.90881200  0.97090300  1
  O  O1  1  0.20292000  0.90881200  0.47090300  1
  O  O2  1  0.85289400  0.71097900  0.76024500  1
  O  O3  1  0.46975100  0.82693400  0.69171300  1
  O  O4  1  0.68660100  0.65209000  0.54076100  1
  O  O5  1  0.64710600  0.71097900  0.26024500  1
  O  O6  1  0.03024900  0.82693400  0.19171300  1
  O  O7  1  0.18660100  0.34791000  0.95923900  1
  O  O8  1  0.81339900  0.65209000  0.04076100  1
  O  O9  1  0.96975100  0.17306600  0.80828700  1
  O  O10  1  0.35289400  0.28902100  0.73975500  1
  O  O11  1  0.31339900  0.34791000  0.45923900  1
  O  O12  1  0.53024900  0.17306600  0.30828700  1
  O  O13  1  0.14710600  0.28902100  0.23975500  1
  O  O14  1  0.79708000  0.09118800  0.52909700  1
  O  O15  1  0.70292000  0.09118800  0.02909700  1
loop_
_geom_bond_atom_site_label_1
_geom_bond_atom_site_label_2
_geom_bond_distance
_geom_bond_site_symmetry_2
Li0 O10 2.003228 1_555
Li0 O1 2.034244 1_555
Li0 O4 2.078285 1_555
Li0 O11 2.193807 1_555
Li0 O3 2.537960 1_555
Li1 O2 2.003228 1_555
Li1 O15 2.034244 1_556
Li1 O7 2.078285 1_655
Li1 O8 2.193807 1_556
Li1 O9 2.537960 1_555
Li2 O13 2.003228 1_555
Li2 O0 2.034244 1_554
Li2 O8 2.078285 1_455
Li2 O7 2.193807 1_554
Li2 O6 2.537960 1_555
Li3 O5 2.003228 1_555
Li3 O14 2.034244 1_555
Li3 O11 2.078285 1_555
Li3 O4 2.193807 1_555
Li3 O12 2.537960 1_555
Bi0 O9 2.232934 1_565
Bi0 O8 2.305027 1_556
Bi0 O15 2.364700 1_566
Bi0 O2 2.530401 1_555
Bi0 O0 2.636237 1_555
Bi0 O10 2.678316 1_565
Bi0 O3 2.684347 1_555
Bi1 O12 2.232934 1_565
Bi1 O4 2.305027 1_555
Bi1 O14 2.364700 1_565
Bi1 O5 2.530401 1_555
Bi1 O1 2.636237 1_655
Bi1 O13 2.678316 1_665
Bi1 O6 2.684347 1_655
Bi2 O3 2.232934 1_545
Bi2 O11 2.305027 1_555
Bi2 O1 2.364700 1_545
Bi2 O10 2.530401 1_555
Bi2 O14 2.636237 1_455
Bi2 O2 2.678316 1_445
Bi2 O9 2.684347 1_455
Bi3 O6 2.232934 1_545
Bi3 O7 2.305027 1_554
Bi3 O0 2.364700 1_544
Bi3 O13 2.530401 1_555
Bi3 O15 2.636237 1_555
Bi3 O5 2.678316 1_545
Bi3 O12 2.684347 1_555
O0 Si2 1.683791 1_565
O1 Si3 1.683791 1_565
O2 Si0 1.640443 1_555
O3 Si0 1.641101 1_555
O4 Si0 1.664251 1_555
O5 Si1 1.640443 1_555
O6 Si1 1.641101 1_455
O7 Si2 1.664251 1_555
O8 Si1 1.664251 1_555
O9 Si2 1.641101 1_655
O10 Si2 1.640443 1_555
O11 Si3 1.664251 1_555
O12 Si3 1.641101 1_555
O13 Si3 1.640443 1_555
O14 Si0 1.683791 1_545
O15 Si1 1.683791 1_545
