# generated using pymatgen
data_Fe35SiO48
_symmetry_space_group_name_H-M   'P 1'
_cell_length_a   10.53574804
_cell_length_b   10.46859462
_cell_length_c   10.46859462
_cell_angle_alpha   60.39617175
_cell_angle_beta   99.92623881
_cell_angle_gamma   80.07376119
_symmetry_Int_Tables_number   1
_chemical_formula_structural   Fe35SiO48
_chemical_formula_sum   'Fe35 Si1 O48'
_cell_volume   943.10985929
_cell_formula_units_Z   1
loop_
 _symmetry_equiv_pos_site_id
 _symmetry_equiv_pos_as_xyz
  1  'x, y, z'
loop_
 _atom_site_type_symbol
 _atom_site_label
 _atom_site_symmetry_multiplicity
 _atom_site_fract_x
 _atom_site_fract_y
 _atom_site_fract_z
 _atom_site_occupancy
  Fe  Fe0  1  0.81412000  0.73443700  0.10477600  1
  Fe  Fe1  1  0.81412000  0.89522400  0.26556300  1
  Fe  Fe2  1  0.56377500  0.81183800  0.18816200  1
  Fe  Fe3  1  0.81204800  0.89894100  0.76929800  1
  Fe  Fe4  1  0.80951800  0.56174500  0.43825500  1
  Fe  Fe5  1  0.81204800  0.23070200  0.10105900  1
  Fe  Fe6  1  0.62228900  0.79508300  0.54265100  1
  Fe  Fe7  1  0.62228900  0.45734900  0.20491700  1
  Fe  Fe8  1  0.81495000  0.05889800  0.43521100  1
  Fe  Fe9  1  0.31299500  0.89330000  0.27808500  1
  Fe  Fe10  1  0.81495000  0.56478900  0.94110200  1
  Fe  Fe11  1  0.80996700  0.39659200  0.77351000  1
  Fe  Fe12  1  0.31299500  0.72191500  0.10670000  1
  Fe  Fe13  1  0.80996700  0.22649000  0.60340800  1
  Fe  Fe14  1  0.50022400  0.50352400  0.49647600  1
  Fe  Fe15  1  0.50132100  0.83172000  0.83765900  1
  Fe  Fe16  1  0.50132100  0.16234100  0.16828000  1
  Fe  Fe17  1  0.31312300  0.72629200  0.60520100  1
  Fe  Fe18  1  0.31312300  0.39479900  0.27370800  1
  Fe  Fe19  1  0.06700000  0.97340900  0.35950300  1
  Fe  Fe20  1  0.55776000  0.48559400  0.85003700  1
  Fe  Fe21  1  0.06700000  0.64049700  0.02659100  1
  Fe  Fe22  1  0.55776000  0.14996300  0.51440600  1
  Fe  Fe23  1  0.12537300  0.62382800  0.37617200  1
  Fe  Fe24  1  0.12631100  0.29232300  0.04224400  1
  Fe  Fe25  1  0.62132300  0.12766500  0.87233500  1
  Fe  Fe26  1  0.12631100  0.95775600  0.70767700  1
  Fe  Fe27  1  0.31204100  0.56171300  0.93791400  1
  Fe  Fe28  1  0.31204100  0.06208600  0.43828700  1
  Fe  Fe29  1  0.31402400  0.40212600  0.76879100  1
  Fe  Fe30  1  0.31402400  0.23120900  0.59787400  1
  Fe  Fe31  1  0.99835500  0.66692600  0.66733800  1
  Fe  Fe32  1  0.99835500  0.33266200  0.33307400  1
  Fe  Fe33  1  0.30990800  0.06370500  0.93629500  1
  Fe  Fe34  1  0.06581000  0.31172100  0.68827900  1
  Si  Si0  1  0.00202500  0.00333500  0.99666500  1
  O  O0  1  0.93936300  0.87253000  0.46455800  1
  O  O1  1  0.93936300  0.53544200  0.12747000  1
  O  O2  1  0.93169400  0.68356400  0.31643600  1
  O  O3  1  0.67554900  0.93752100  0.06247900  1
  O  O4  1  0.69645300  0.95070000  0.56680400  1
  O  O5  1  0.68720000  0.76241200  0.38552500  1
  O  O6  1  0.68720000  0.61447500  0.23758800  1
  O  O7  1  0.69645300  0.43319600  0.04930000  1
  O  O8  1  0.93260000  0.17158000  0.30496900  1
  O  O9  1  0.94590300  0.02639900  0.12632400  1
  O  O10  1  0.93260000  0.69503100  0.82842000  1
  O  O11  1  0.93166800  0.49857900  0.65088400  1
  O  O12  1  0.94590300  0.87367600  0.97360100  1
  O  O13  1  0.93166800  0.34911600  0.50142100  1
  O  O14  1  0.42502300  0.70817500  0.29182500  1
  O  O15  1  0.70701300  0.76996200  0.89520400  1
  O  O16  1  0.17238300  0.94743500  0.05256500  1
  O  O17  1  0.70921300  0.42223300  0.57776700  1
  O  O18  1  0.70701300  0.10479600  0.23003800  1
  O  O19  1  0.94407600  0.17584900  0.82415100  1
  O  O20  1  0.42092800  0.85966700  0.46993900  1
  O  O21  1  0.69503000  0.25105400  0.41488600  1
  O  O22  1  0.91866000  0.36024100  0.97144300  1
  O  O23  1  0.42092800  0.53006100  0.14033300  1
  O  O24  1  0.69503000  0.58511400  0.74894600  1
  O  O25  1  0.91866000  0.02855700  0.63975900  1
  O  O26  1  0.19362300  0.93659100  0.54772800  1
  O  O27  1  0.69068300  0.10320800  0.72339800  1
  O  O28  1  0.19362300  0.45227200  0.06340900  1
  O  O29  1  0.18720600  0.60941500  0.22060700  1
  O  O30  1  0.18720600  0.77939300  0.39058500  1
  O  O31  1  0.69068300  0.27660200  0.89679200  1
  O  O32  1  0.42056600  0.85923900  0.99170500  1
  O  O33  1  0.43533100  0.51571800  0.66092700  1
  O  O34  1  0.43533100  0.33907300  0.48428200  1
  O  O35  1  0.42056600  0.00829500  0.14076100  1
  O  O36  1  0.43470100  0.18253000  0.32902100  1
  O  O37  1  0.43470100  0.67097900  0.81747000  1
  O  O38  1  0.43362100  0.03792300  0.63037300  1
  O  O39  1  0.20403600  0.26257800  0.40377000  1
  O  O40  1  0.20403600  0.59623000  0.73742200  1
  O  O41  1  0.43362100  0.36962700  0.96207700  1
  O  O42  1  0.42589400  0.19300800  0.80699200  1
  O  O43  1  0.19101900  0.42858200  0.57141800  1
  O  O44  1  0.19216800  0.08457000  0.24781400  1
  O  O45  1  0.19216800  0.75218600  0.91543000  1
  O  O46  1  0.19554100  0.27074800  0.87863000  1
  O  O47  1  0.19554100  0.12137000  0.72925200  1
loop_
_geom_bond_atom_site_label_1
_geom_bond_atom_site_label_2
_geom_bond_distance
_geom_bond_site_symmetry_2
Fe0 O2 2.094792 1_555
Fe0 O15 2.102539 1_554
Fe0 O1 2.143028 1_555
Fe0 O3 2.150435 1_555
Fe0 O6 2.189321 1_555
Fe0 O12 2.305560 1_554
Fe1 O2 2.094792 1_555
Fe1 O18 2.102539 1_565
Fe1 O0 2.143028 1_555
Fe1 O3 2.150435 1_555
Fe1 O5 2.189321 1_555
Fe1 O9 2.305560 1_565
Fe2 O6 2.003262 1_555
Fe2 O5 2.003262 1_555
Fe2 O3 2.051112 1_555
Fe2 O32 2.101485 1_554
Fe2 O35 2.101485 1_565
Fe2 O14 2.103020 1_555
Fe3 O4 2.004517 1_555
Fe3 O10 2.010447 1_555
Fe3 O15 2.011141 1_555
Fe3 O25 2.043139 1_565
Fe3 O27 2.066134 1_565
Fe3 O12 2.214893 1_555
Fe4 O6 2.013494 1_555
Fe4 O5 2.013494 1_555
Fe4 O13 2.076770 1_555
Fe4 O11 2.076770 1_555
Fe4 O17 2.083188 1_555
Fe4 O2 2.105860 1_555
Fe5 O7 2.004517 1_555
Fe5 O8 2.010447 1_555
Fe5 O18 2.011141 1_555
Fe5 O22 2.043139 1_554
Fe5 O31 2.066134 1_554
Fe5 O9 2.214893 1_555
Fe6 O20 1.994374 1_555
Fe6 O4 2.026358 1_555
Fe6 O5 2.037978 1_555
Fe6 O24 2.059470 1_555
Fe7 O23 1.994374 1_555
Fe7 O7 2.026358 1_555
Fe7 O6 2.037978 1_555
Fe7 O21 2.059470 1_555
Fe8 O0 2.001568 1_545
Fe8 O18 2.021713 1_555
Fe8 O4 2.068378 1_545
Fe8 O25 2.069252 1_555
Fe8 O8 2.069939 1_555
Fe8 O21 2.072759 1_555
Fe9 O20 1.956227 1_555
Fe9 O14 2.011735 1_555
Fe9 O44 2.021262 1_565
Fe9 O35 2.030413 1_565
Fe9 O30 2.064156 1_555
Fe9 O16 2.296184 1_555
Fe10 O1 2.001568 1_556
Fe10 O15 2.021713 1_555
Fe10 O7 2.068378 1_556
Fe10 O22 2.069252 1_555
Fe10 O10 2.069939 1_555
Fe10 O24 2.072759 1_555
Fe11 O24 1.998689 1_555
Fe11 O22 2.000590 1_555
Fe11 O17 2.001574 1_555
Fe11 O11 2.029092 1_555
Fe11 O31 2.079574 1_555
Fe11 O19 2.241261 1_555
Fe12 O23 1.956227 1_555
Fe12 O14 2.011735 1_555
Fe12 O45 2.021262 1_554
Fe12 O32 2.030413 1_554
Fe12 O29 2.064156 1_555
Fe12 O16 2.296184 1_555
Fe13 O21 1.998689 1_555
Fe13 O25 2.000590 1_555
Fe13 O17 2.001574 1_555
Fe13 O13 2.029092 1_555
Fe13 O27 2.079574 1_555
Fe13 O19 2.241261 1_555
Fe14 O33 2.010068 1_555
Fe14 O34 2.010068 1_555
Fe14 O14 2.025418 1_555
Fe14 O17 2.071002 1_555
Fe15 O37 2.018995 1_555
Fe15 O15 2.039454 1_555
Fe15 O38 2.045707 1_565
Fe15 O32 2.062774 1_555
Fe16 O36 2.018995 1_555
Fe16 O18 2.039454 1_555
Fe16 O41 2.045707 1_554
Fe16 O35 2.062774 1_555
Fe17 O26 2.066022 1_555
Fe17 O40 2.077654 1_555
Fe17 O33 2.085546 1_555
Fe17 O20 2.095826 1_555
Fe17 O37 2.098974 1_555
Fe17 O30 2.144986 1_555
Fe18 O28 2.066022 1_555
Fe18 O39 2.077654 1_555
Fe18 O34 2.085546 1_555
Fe18 O23 2.095826 1_555
Fe18 O36 2.098974 1_555
Fe18 O29 2.144986 1_555
Fe19 O26 1.994257 1_555
Fe19 O0 1.996277 1_455
Fe19 O30 2.037945 1_555
Fe19 O8 2.042846 1_465
Fe19 O44 2.043703 1_565
Fe19 O9 2.288811 1_465
Fe20 O37 1.972310 1_555
Fe20 O33 2.011237 1_555
Fe20 O41 2.056593 1_555
Fe20 O24 2.062717 1_555
Fe20 O7 2.080812 1_556
Fe20 O31 2.153333 1_555
Fe21 O28 1.994257 1_555
Fe21 O1 1.996277 1_455
Fe21 O29 2.037945 1_555
Fe21 O10 2.042846 1_454
Fe21 O45 2.043703 1_554
Fe21 O12 2.288811 1_454
Fe22 O36 1.972310 1_555
Fe22 O34 2.011237 1_555
Fe22 O38 2.056593 1_555
Fe22 O21 2.062717 1_555
Fe22 O4 2.080812 1_545
Fe22 O27 2.153333 1_555
Fe23 O29 1.916762 1_555
Fe23 O30 1.916762 1_555
Fe23 O2 1.918265 1_455
Fe23 O43 1.931703 1_555
Fe24 O28 2.019297 1_555
Fe24 O44 2.045354 1_555
Fe24 O22 2.055527 1_454
Fe24 O46 2.067091 1_554
Fe25 O3 1.884691 1_546
Fe25 O42 1.934380 1_555
Fe25 O31 1.937332 1_555
Fe25 O27 1.937332 1_555
Fe26 O26 2.019297 1_555
Fe26 O45 2.045354 1_555
Fe26 O25 2.055527 1_465
Fe26 O47 2.067091 1_565
Fe27 O40 2.028841 1_555
Fe27 O28 2.041057 1_556
Fe27 O45 2.047443 1_555
Fe27 O37 2.052987 1_555
Fe27 O41 2.060604 1_555
Fe27 O23 2.062362 1_556
Fe28 O39 2.028841 1_555
Fe28 O26 2.041057 1_545
Fe28 O44 2.047443 1_555
Fe28 O36 2.052987 1_555
Fe28 O38 2.060604 1_555
Fe28 O20 2.062362 1_545
Fe29 O40 1.994342 1_555
Fe29 O33 2.004352 1_555
Fe29 O41 2.022570 1_555
Fe29 O46 2.072753 1_555
Fe29 O43 2.100749 1_555
Fe29 O42 2.103461 1_555
Fe30 O39 1.994342 1_555
Fe30 O34 2.004352 1_555
Fe30 O38 2.022570 1_555
Fe30 O47 2.072753 1_555
Fe30 O43 2.100749 1_555
Fe30 O42 2.103461 1_555
Fe31 O0 2.023622 1_555
Fe31 O40 2.035780 1_655
Fe31 O10 2.057377 1_555
Fe31 O11 2.077091 1_555
Fe32 O1 2.023622 1_555
Fe32 O39 2.035780 1_655
Fe32 O8 2.057377 1_555
Fe32 O13 2.077091 1_555
Fe33 O35 1.989251 1_556
Fe33 O32 1.989251 1_545
Fe33 O47 2.017485 1_555
Fe33 O46 2.017485 1_555
Fe33 O42 2.118516 1_555
Fe33 O16 2.194255 1_546
Fe34 O47 2.009337 1_555
Fe34 O46 2.009337 1_555
Fe34 O13 2.019075 1_455
Fe34 O11 2.019075 1_455
Fe34 O43 2.089875 1_555
Fe34 O19 2.224931 1_455
O9 Si0 1.673793 1_654
O12 Si0 1.673793 1_665
O16 Si0 1.686362 1_564
O19 Si0 1.706803 1_655
