# generated using pymatgen
data_Li6Co11(OF12)2
_symmetry_space_group_name_H-M   'P 1'
_cell_length_a   8.10264200
_cell_length_b   8.21026827
_cell_length_c   8.75538327
_cell_angle_alpha   107.99160946
_cell_angle_beta   106.16857973
_cell_angle_gamma   90.09063746
_symmetry_Int_Tables_number   1
_chemical_formula_structural   Li6Co11(OF12)2
_chemical_formula_sum   'Li6 Co11 O2 F24'
_cell_volume   529.60671103
_cell_formula_units_Z   1
loop_
 _symmetry_equiv_pos_site_id
 _symmetry_equiv_pos_as_xyz
  1  'x, y, z'
loop_
 _atom_site_type_symbol
 _atom_site_label
 _atom_site_symmetry_multiplicity
 _atom_site_fract_x
 _atom_site_fract_y
 _atom_site_fract_z
 _atom_site_occupancy
  Li  Li0  1  0.42376300  0.09200200  0.23966900  1
  Li  Li1  1  0.07873900  0.21064600  0.45517400  1
  Li  Li2  1  0.29696500  0.57611200  0.93279800  1
  Li  Li3  1  0.69619600  0.37659800  0.09239700  1
  Li  Li4  1  0.92765800  0.80916000  0.55326900  1
  Li  Li5  1  0.57377000  0.89930400  0.74306300  1
  Co  Co0  1  0.27574200  0.11537200  0.85091200  1
  Co  Co1  1  0.86603500  0.23033100  0.75323600  1
  Co  Co2  1  0.00741500  0.00568500  0.99517100  1
  Co  Co3  1  0.48486400  0.29561400  0.68798200  1
  Co  Co4  1  0.70277400  0.41866200  0.50800200  1
  Co  Co5  1  0.14218200  0.35158800  0.14684900  1
  Co  Co6  1  0.88153600  0.61965300  0.85607100  1
  Co  Co7  1  0.27333800  0.62793300  0.55760000  1
  Co  Co8  1  0.52449900  0.70887800  0.32091900  1
  Co  Co9  1  0.12865900  0.78992400  0.23897000  1
  Co  Co10  1  0.73541100  0.86842200  0.15560200  1
  O  O0  1  0.23042700  0.13379400  0.06470000  1
  O  O1  1  0.71540900  0.42592400  0.74526800  1
  F  F0  1  0.98990900  0.00723100  0.75398200  1
  F  F1  1  0.63500200  0.08499600  0.68328300  1
  F  F2  1  0.62036400  0.07391900  0.16838500  1
  F  F3  1  0.25038000  0.15445500  0.62418900  1
  F  F4  1  0.88452800  0.24652600  0.52902700  1
  F  F5  1  0.48510300  0.29255500  0.92618600  1
  F  F6  1  0.10900600  0.37940000  0.89223100  1
  F  F7  1  0.47069500  0.28545000  0.44085000  1
  F  F8  1  0.88665600  0.25326400  0.01962100  1
  F  F9  1  0.13436600  0.40257800  0.38535100  1
  F  F10  1  0.66423200  0.49247000  0.30440300  1
  F  F11  1  0.34355100  0.51267600  0.72568300  1
  F  F12  1  0.91272300  0.62270800  0.63575900  1
  F  F13  1  0.11539800  0.75797900  0.98832200  1
  F  F14  1  0.27422200  0.57869500  0.22047300  1
  F  F15  1  0.51400400  0.68846000  0.54513400  1
  F  F16  1  0.88189100  0.65461700  0.10982500  1
  F  F17  1  0.77378400  0.85966500  0.91347500  1
  F  F18  1  0.51878500  0.69243400  0.08378200  1
  F  F19  1  0.10705900  0.76562400  0.45170400  1
  F  F20  1  0.75092600  0.85237300  0.38689800  1
  F  F21  1  0.35033900  0.87480300  0.76320000  1
  F  F22  1  0.36595100  0.90614500  0.31759900  1
  F  F23  1  0.99574500  0.00537500  0.23298700  1
loop_
_geom_bond_atom_site_label_1
_geom_bond_atom_site_label_2
_geom_bond_distance
_geom_bond_site_symmetry_2
Li0 O0 1.976976 1_555
Co0 O0 1.967068 1_556
Co0 F21 2.044878 1_545
Co0 F5 2.050740 1_555
Co0 F3 2.062066 1_555
Co0 F0 2.303426 1_455
Co0 F6 2.540116 1_555
Co1 O1 2.025147 1_555
Co1 F1 2.050895 1_555
Co1 F4 2.053933 1_555
Co1 F0 2.090978 1_555
Co1 F6 2.143054 1_655
Co1 F8 2.239329 1_556
Co2 O0 1.930777 1_556
Co2 F17 2.059473 1_445
Co2 F0 2.080700 1_455
Co2 F23 2.111233 1_456
Co2 F13 2.205609 1_545
Co2 F8 2.233650 1_456
Co3 O1 2.006514 1_555
Co3 F3 2.065685 1_555
Co3 F5 2.092925 1_555
Co3 F11 2.109399 1_555
Co3 F7 2.109970 1_555
Co3 F1 2.112444 1_555
Co4 F10 2.000058 1_555
Co4 F7 2.014569 1_555
Co4 O1 2.033338 1_555
Co4 F4 2.053383 1_555
Co4 F12 2.173760 1_555
Co5 O0 1.929245 1_555
Co5 F14 1.975858 1_555
Co5 F9 2.018278 1_555
Co5 F8 2.081819 1_455
Co5 F6 2.252775 1_554
Co6 O1 1.896227 1_555
Co6 F12 2.021518 1_555
Co6 F13 2.044518 1_655
Co6 F17 2.129785 1_555
Co6 F16 2.149622 1_556
Co7 F11 1.944359 1_555
Co7 F19 1.977231 1_555
Co7 F15 2.051940 1_555
Co7 F9 2.071129 1_555
Co7 F21 2.203276 1_555
Co8 F20 2.017461 1_555
Co8 F18 2.025923 1_555
Co8 F15 2.045793 1_555
Co8 F22 2.071041 1_555
Co8 F10 2.097268 1_555
Co8 F14 2.108899 1_555
Co9 F22 1.983030 1_555
Co9 F19 1.987609 1_555
Co9 F23 2.079296 1_465
Co9 F14 2.089085 1_555
Co9 F13 2.099827 1_554
Co9 F16 2.113858 1_455
Co10 F2 1.916903 1_565
Co10 F20 2.038933 1_555
Co10 F18 2.092857 1_555
Co10 F16 2.118400 1_555
Co10 F17 2.206555 1_554
Co10 F23 2.213330 1_565
F0 Li4 1.930157 1_545
F1 Li5 1.865374 1_545
F2 Li0 1.856445 1_555
F3 Li1 1.901155 1_555
F4 Li1 1.852473 1_655
F5 Li3 1.873253 1_556
F6 Li2 2.095371 1_555
F7 Li0 1.914834 1_555
F8 Li3 1.991714 1_555
F9 Li1 1.950994 1_555
F10 Li3 1.896107 1_555
F11 Li2 1.870950 1_555
F12 Li4 1.900200 1_555
F13 Li2 2.141750 1_555
F15 Li5 1.977637 1_555
F17 Li5 1.978254 1_555
F18 Li2 1.944582 1_554
F19 Li4 1.885926 1_455
F20 Li4 1.859424 1_555
F21 Li5 1.883494 1_555
F22 Li0 1.957644 1_565
F23 Li1 2.078316 1_655
