# generated using pymatgen
data_K3LiMn4(MoO4)6
_symmetry_space_group_name_H-M   'P 1'
_cell_length_a   10.88054965
_cell_length_b   10.88054965
_cell_length_c   10.88054972
_cell_angle_alpha   85.72036341
_cell_angle_beta   85.72036341
_cell_angle_gamma   85.72035966
_symmetry_Int_Tables_number   1
_chemical_formula_structural   K3LiMn4(MoO4)6
_chemical_formula_sum   'K6 Li2 Mn8 Mo12 O48'
_cell_volume   1277.84326110
_cell_formula_units_Z   2
loop_
 _symmetry_equiv_pos_site_id
 _symmetry_equiv_pos_as_xyz
  1  'x, y, z'
loop_
 _atom_site_type_symbol
 _atom_site_label
 _atom_site_symmetry_multiplicity
 _atom_site_fract_x
 _atom_site_fract_y
 _atom_site_fract_z
 _atom_site_occupancy
  K  K0  1  0.20067800  0.69882000  0.43491000  1
  K  K1  1  0.19882000  0.70067800  0.93491000  1
  K  K2  1  0.43491000  0.20067800  0.69882000  1
  K  K3  1  0.69882000  0.43491000  0.20067800  1
  K  K4  1  0.70067800  0.93491000  0.19882000  1
  K  K5  1  0.93491000  0.19882000  0.70067800  1
  Li  Li0  1  0.24913900  0.24913900  0.24913900  1
  Li  Li1  1  0.74913900  0.74913900  0.74913900  1
  Mn  Mn0  1  0.00311800  0.00311800  0.00311800  1
  Mn  Mn1  1  0.03517600  0.46291800  0.25007200  1
  Mn  Mn2  1  0.25007200  0.03517600  0.46291800  1
  Mn  Mn3  1  0.46291800  0.25007200  0.03517600  1
  Mn  Mn4  1  0.50311800  0.50311800  0.50311800  1
  Mn  Mn5  1  0.53517600  0.75007200  0.96291800  1
  Mn  Mn6  1  0.75007200  0.96291800  0.53517600  1
  Mn  Mn7  1  0.96291800  0.53517600  0.75007200  1
  Mo  Mo0  1  0.03798200  0.85113700  0.68750900  1
  Mo  Mo1  1  0.14935500  0.31243300  0.95999600  1
  Mo  Mo2  1  0.18750900  0.35113700  0.53798200  1
  Mo  Mo3  1  0.31243300  0.95999600  0.14935500  1
  Mo  Mo4  1  0.35113700  0.53798200  0.18750900  1
  Mo  Mo5  1  0.45999600  0.81243300  0.64935500  1
  Mo  Mo6  1  0.53798200  0.18750900  0.35113700  1
  Mo  Mo7  1  0.64935500  0.45999600  0.81243300  1
  Mo  Mo8  1  0.68750900  0.03798200  0.85113700  1
  Mo  Mo9  1  0.81243300  0.64935500  0.45999600  1
  Mo  Mo10  1  0.85113700  0.68750900  0.03798200  1
  Mo  Mo11  1  0.95999600  0.14935500  0.31243300  1
  O  O0  1  0.05051200  0.41589500  0.61844300  1
  O  O1  1  0.12411300  0.33055900  0.12358400  1
  O  O2  1  0.12358400  0.12411300  0.33055900  1
  O  O3  1  0.07703700  0.17725800  0.92252200  1
  O  O4  1  0.08449500  0.45061900  0.88156700  1
  O  O5  1  0.08633900  0.68838100  0.69616500  1
  O  O6  1  0.07395400  0.91990500  0.82466600  1
  O  O7  1  0.17056800  0.37970000  0.37472000  1
  O  O8  1  0.11844300  0.91589500  0.55051200  1
  O  O9  1  0.18838100  0.58633900  0.19616500  1
  O  O10  1  0.19616500  0.18838100  0.58633900  1
  O  O11  1  0.17725800  0.92252200  0.07703700  1
  O  O12  1  0.33055900  0.12358400  0.12411300  1
  O  O13  1  0.32466600  0.41990500  0.57395400  1
  O  O14  1  0.30155300  0.91393900  0.31256200  1
  O  O15  1  0.31256200  0.30155300  0.91393900  1
  O  O16  1  0.37472000  0.17056800  0.37970000  1
  O  O17  1  0.37970000  0.37472000  0.17056800  1
  O  O18  1  0.41589500  0.61844300  0.05051200  1
  O  O19  1  0.41990500  0.57395400  0.32466600  1
  O  O20  1  0.38156700  0.95061900  0.58449500  1
  O  O21  1  0.42252200  0.67725800  0.57703700  1
  O  O22  1  0.45061900  0.88156700  0.08449500  1
  O  O23  1  0.41393900  0.80155300  0.81256200  1
  O  O24  1  0.58633900  0.19616500  0.18838100  1
  O  O25  1  0.55051200  0.11844300  0.91589500  1
  O  O26  1  0.57395400  0.32466600  0.41990500  1
  O  O27  1  0.61844300  0.05051200  0.41589500  1
  O  O28  1  0.57703700  0.42252200  0.67725800  1
  O  O29  1  0.58449500  0.38156700  0.95061900  1
  O  O30  1  0.62411300  0.62358400  0.83055900  1
  O  O31  1  0.62358400  0.83055900  0.62411300  1
  O  O32  1  0.68838100  0.69616500  0.08633900  1
  O  O33  1  0.69616500  0.08633900  0.68838100  1
  O  O34  1  0.67725800  0.57703700  0.42252200  1
  O  O35  1  0.67056800  0.87472000  0.87970000  1
  O  O36  1  0.82466600  0.07395400  0.91990500  1
  O  O37  1  0.80155300  0.81256200  0.41393900  1
  O  O38  1  0.81256200  0.41393900  0.80155300  1
  O  O39  1  0.88156700  0.08449500  0.45061900  1
  O  O40  1  0.83055900  0.62411300  0.62358400  1
  O  O41  1  0.92252200  0.07703700  0.17725800  1
  O  O42  1  0.91393900  0.31256200  0.30155300  1
  O  O43  1  0.91589500  0.55051200  0.11844300  1
  O  O44  1  0.91990500  0.82466600  0.07395400  1
  O  O45  1  0.87472000  0.87970000  0.67056800  1
  O  O46  1  0.87970000  0.67056800  0.87472000  1
  O  O47  1  0.95061900  0.58449500  0.38156700  1
loop_
_geom_bond_atom_site_label_1
_geom_bond_atom_site_label_2
_geom_bond_distance
_geom_bond_site_symmetry_2
K0 O8 2.814472 1_555
K0 O14 2.855798 1_555
K0 O19 2.882167 1_555
K0 O21 2.948093 1_555
K0 O9 2.968914 1_555
K0 O5 3.014312 1_555
K0 O47 3.183614 1_455
K1 O18 2.814472 1_556
K1 O23 2.855798 1_555
K1 O6 2.882167 1_555
K1 O11 2.948093 1_556
K1 O5 2.968914 1_555
K1 O9 3.014312 1_556
K1 O4 3.183614 1_555
K2 O25 2.814472 1_555
K2 O15 2.855798 1_555
K2 O13 2.882167 1_555
K2 O28 2.948093 1_555
K2 O10 2.968914 1_555
K2 O33 3.014312 1_555
K2 O20 3.183614 1_545
K3 O43 2.814472 1_555
K3 O42 2.855798 1_555
K3 O26 2.882167 1_555
K3 O34 2.948093 1_555
K3 O24 2.968914 1_555
K3 O32 3.014312 1_555
K3 O29 3.183614 1_554
K4 O27 2.814472 1_565
K4 O37 2.855798 1_555
K4 O44 2.882167 1_555
K4 O41 2.948093 1_565
K4 O32 2.968914 1_555
K4 O24 3.014312 1_565
K4 O22 3.183614 1_555
K5 O0 2.814472 1_655
K5 O38 2.855798 1_555
K5 O36 2.882167 1_555
K5 O3 2.948093 1_655
K5 O33 2.968914 1_555
K5 O10 3.014312 1_655
K5 O39 3.183614 1_555
Li0 O12 2.102020 1_555
Li0 O1 2.102020 1_555
Li0 O2 2.102020 1_555
Li0 O7 2.133075 1_555
Li0 O16 2.133075 1_555
Li0 O17 2.133075 1_555
Li1 O31 2.102020 1_555
Li1 O40 2.102020 1_555
Li1 O30 2.102020 1_555
Li1 O46 2.133075 1_555
Li1 O35 2.133075 1_555
Li1 O45 2.133075 1_555
Mn0 O11 2.209094 1_545
Mn0 O41 2.209094 1_455
Mn0 O3 2.209094 1_554
Mn0 O36 2.262452 1_454
Mn0 O6 2.262452 1_544
Mn0 O44 2.262452 1_445
Mn1 O43 2.129087 1_455
Mn1 O47 2.132533 1_455
Mn1 O7 2.178350 1_555
Mn1 O1 2.189418 1_555
Mn1 O42 2.192086 1_455
Mn1 O9 2.235337 1_555
Mn2 O8 2.129087 1_545
Mn2 O20 2.132533 1_545
Mn2 O16 2.178350 1_555
Mn2 O2 2.189418 1_555
Mn2 O14 2.192086 1_545
Mn2 O10 2.235337 1_555
Mn3 O25 2.129087 1_554
Mn3 O29 2.132533 1_554
Mn3 O17 2.178350 1_555
Mn3 O12 2.189418 1_555
Mn3 O15 2.192085 1_554
Mn3 O24 2.235337 1_555
Mn4 O21 2.209094 1_555
Mn4 O28 2.209094 1_555
Mn4 O34 2.209094 1_555
Mn4 O26 2.262452 1_555
Mn4 O19 2.262452 1_555
Mn4 O13 2.262452 1_555
Mn5 O18 2.129087 1_556
Mn5 O22 2.132533 1_556
Mn5 O35 2.178350 1_555
Mn5 O30 2.189418 1_555
Mn5 O23 2.192086 1_555
Mn5 O32 2.235337 1_556
Mn6 O27 2.129087 1_565
Mn6 O39 2.132533 1_565
Mn6 O45 2.178350 1_555
Mn6 O31 2.189418 1_555
Mn6 O37 2.192085 1_555
Mn6 O33 2.235337 1_565
Mn7 O0 2.129087 1_655
Mn7 O4 2.132533 1_655
Mn7 O46 2.178350 1_555
Mn7 O40 2.189418 1_555
Mn7 O38 2.192086 1_555
Mn7 O5 2.235337 1_655
Mo0 O8 1.795923 1_555
Mo0 O6 1.799353 1_555
Mo0 O45 1.801114 1_455
Mo0 O5 1.806971 1_555
Mo1 O4 1.796356 1_555
Mo1 O1 1.803834 1_556
Mo1 O3 1.805187 1_555
Mo1 O15 1.806435 1_555
Mo2 O0 1.795923 1_555
Mo2 O13 1.799353 1_555
Mo2 O7 1.801114 1_555
Mo2 O10 1.806971 1_555
Mo3 O22 1.796356 1_555
Mo3 O12 1.803834 1_565
Mo3 O11 1.805187 1_555
Mo3 O14 1.806435 1_555
Mo4 O18 1.795923 1_555
Mo4 O19 1.799353 1_555
Mo4 O17 1.801114 1_555
Mo4 O9 1.806971 1_555
Mo5 O20 1.796356 1_555
Mo5 O31 1.803834 1_555
Mo5 O21 1.805187 1_555
Mo5 O23 1.806435 1_555
Mo6 O27 1.795923 1_555
Mo6 O26 1.799353 1_555
Mo6 O16 1.801114 1_555
Mo6 O24 1.806971 1_555
Mo7 O29 1.796356 1_555
Mo7 O30 1.803834 1_555
Mo7 O28 1.805187 1_555
Mo7 O38 1.806435 1_555
Mo8 O25 1.795923 1_555
Mo8 O36 1.799353 1_555
Mo8 O35 1.801114 1_545
Mo8 O33 1.806971 1_555
Mo9 O47 1.796356 1_555
Mo9 O40 1.803834 1_555
Mo9 O34 1.805187 1_555
Mo9 O37 1.806435 1_555
Mo10 O43 1.795923 1_555
Mo10 O44 1.799353 1_555
Mo10 O46 1.801114 1_554
Mo10 O32 1.806971 1_555
Mo11 O39 1.796356 1_555
Mo11 O2 1.803834 1_655
Mo11 O41 1.805187 1_555
Mo11 O42 1.806435 1_555
