# generated using pymatgen
data_LiV2OF5
_symmetry_space_group_name_H-M   'P 1'
_cell_length_a   4.58979600
_cell_length_b   8.72186645
_cell_length_c   8.73687421
_cell_angle_alpha   60.08726280
_cell_angle_beta   89.03711334
_cell_angle_gamma   88.23447513
_symmetry_Int_Tables_number   1
_chemical_formula_structural   LiV2OF5
_chemical_formula_sum   'Li3 V6 O3 F15'
_cell_volume   303.01485792
_cell_formula_units_Z   3
loop_
 _symmetry_equiv_pos_site_id
 _symmetry_equiv_pos_as_xyz
  1  'x, y, z'
loop_
 _atom_site_type_symbol
 _atom_site_label
 _atom_site_symmetry_multiplicity
 _atom_site_fract_x
 _atom_site_fract_y
 _atom_site_fract_z
 _atom_site_occupancy
  Li  Li0  1  0.51054500  0.33457400  0.33125700  1
  Li  Li1  1  0.99552600  0.00261200  0.99685800  1
  Li  Li2  1  0.49708800  0.66470200  0.66459700  1
  V  V0  1  0.98729300  0.35233500  0.00857000  1
  V  V1  1  0.51316200  0.66820200  0.00493900  1
  V  V2  1  0.98645500  0.66191400  0.35307700  1
  V  V3  1  0.51113700  0.98738200  0.32686300  1
  V  V4  1  0.51311100  0.30476400  0.68829800  1
  V  V5  1  0.98796100  0.00584900  0.65998800  1
  O  O0  1  0.74472000  0.46238700  0.09798100  1
  O  O1  1  0.73296000  0.77865800  0.43134000  1
  O  O2  1  0.76481300  0.11094400  0.76441500  1
  F  F0  1  0.75920500  0.11961900  0.10806100  1
  F  F1  1  0.26698600  0.22319400  0.21339400  1
  F  F2  1  0.74679500  0.10730900  0.43398500  1
  F  F3  1  0.77390800  0.77201500  0.11861200  1
  F  F4  1  0.26405300  0.56447300  0.22653400  1
  F  F5  1  0.26566500  0.21257900  0.55685000  1
  F  F6  1  0.23399600  0.88632700  0.22262200  1
  F  F7  1  0.73375200  0.43744900  0.45931800  1
  F  F8  1  0.25646200  0.53928200  0.56256200  1
  F  F9  1  0.25257800  0.89518900  0.54528600  1
  F  F10  1  0.23410900  0.23084900  0.89042700  1
  F  F11  1  0.74219000  0.43641000  0.78795700  1
  F  F12  1  0.73057700  0.78674900  0.77180100  1
  F  F13  1  0.25579100  0.56693200  0.88932000  1
  F  F14  1  0.23916100  0.88730100  0.88498600  1
loop_
_geom_bond_atom_site_label_1
_geom_bond_atom_site_label_2
_geom_bond_distance
_geom_bond_site_symmetry_2
Li0 O0 2.070263 1_555
Li1 O2 2.057955 1_555
Li2 O1 2.070035 1_555
O0 V0 1.850375 1_555
O0 V1 1.862475 1_555
O1 V3 1.855682 1_555
O1 V2 1.858144 1_555
O2 V4 1.849007 1_555
O2 V5 1.861838 1_555
F0 Li1 2.011756 1_554
F0 V3 2.022316 1_545
F0 V0 2.076530 1_555
F1 V0 2.024063 1_455
F1 V3 2.080961 1_545
F1 Li0 2.087360 1_555
F2 Li0 2.009048 1_555
F2 V5 2.043915 1_555
F2 V3 2.054271 1_545
F3 V2 2.029200 1_555
F3 Li1 2.041367 1_564
F3 V1 2.059614 1_555
F4 V1 2.028904 1_555
F4 Li0 2.050107 1_555
F4 V2 2.095481 1_455
F5 V5 2.042111 1_455
F5 Li0 2.046403 1_555
F5 V4 2.067922 1_555
F6 Li1 2.031304 1_464
F6 V3 2.032965 1_555
F6 V2 2.071107 1_455
F7 V4 2.015475 1_555
F7 Li0 2.050093 1_555
F7 V2 2.081096 1_555
F8 V2 2.017853 1_455
F8 Li2 2.071523 1_555
F8 V4 2.105270 1_555
F9 V3 2.036884 1_555
F9 Li2 2.048800 1_555
F9 V5 2.064571 1_465
F10 V4 2.003373 1_555
F10 Li1 2.068917 1_455
F10 V0 2.109272 1_456
F11 V0 2.032435 1_556
F11 Li2 2.038175 1_555
F11 V4 2.069844 1_555
F12 V1 2.026958 1_556
F12 V5 2.059149 1_565
F12 Li2 2.063315 1_555
F13 Li2 2.030729 1_555
F13 V1 2.047009 1_556
F13 V0 2.064330 1_456
F14 Li1 2.022783 1_465
F14 V1 2.056805 1_556
F14 V5 2.058693 1_465
