# generated using pymatgen
data_Li2MnVO4
_symmetry_space_group_name_H-M   'P 1'
_cell_length_a   5.14119600
_cell_length_b   6.10945665
_cell_length_c   7.77976732
_cell_angle_alpha   98.40216673
_cell_angle_beta   107.99768221
_cell_angle_gamma   88.30835620
_symmetry_Int_Tables_number   1
_chemical_formula_structural   Li2MnVO4
_chemical_formula_sum   'Li6 Mn3 V3 O12'
_cell_volume   229.87879454
_cell_formula_units_Z   3
loop_
 _symmetry_equiv_pos_site_id
 _symmetry_equiv_pos_as_xyz
  1  'x, y, z'
loop_
 _atom_site_type_symbol
 _atom_site_label
 _atom_site_symmetry_multiplicity
 _atom_site_fract_x
 _atom_site_fract_y
 _atom_site_fract_z
 _atom_site_occupancy
  Li  Li0  1  0.00749300  0.59608600  0.83927600  1
  Li  Li1  1  0.00305000  0.76415000  0.50854800  1
  Li  Li2  1  0.00110500  0.08529400  0.83203700  1
  Li  Li3  1  0.99250700  0.40391400  0.16072400  1
  Li  Li4  1  0.99889500  0.91470600  0.16796300  1
  Li  Li5  1  0.99695000  0.23585000  0.49145200  1
  Mn  Mn0  1  0.49395900  0.33371900  0.83268100  1
  Mn  Mn1  1  0.50604100  0.66628100  0.16731900  1
  Mn  Mn2  1  0.50000000  0.50000000  0.50000000  1
  V  V0  1  0.50515400  0.83650600  0.83183100  1
  V  V1  1  0.49484600  0.16349400  0.16816900  1
  V  V2  1  0.50000000  0.00000000  0.50000000  1
  O  O0  1  0.71847100  0.12457600  0.98768000  1
  O  O1  1  0.73834300  0.63431900  0.00642100  1
  O  O2  1  0.74029400  0.96839100  0.33450400  1
  O  O3  1  0.71628700  0.44858000  0.32354500  1
  O  O4  1  0.74484200  0.80022200  0.67115600  1
  O  O5  1  0.70895200  0.28566800  0.65490700  1
  O  O6  1  0.26165700  0.36568100  0.99357900  1
  O  O7  1  0.28152900  0.87542400  0.01232000  1
  O  O8  1  0.29104800  0.71433200  0.34509300  1
  O  O9  1  0.25515800  0.19977800  0.32884400  1
  O  O10  1  0.28371300  0.55142000  0.67645500  1
  O  O11  1  0.25970600  0.03160900  0.66549600  1
loop_
_geom_bond_atom_site_label_1
_geom_bond_atom_site_label_2
_geom_bond_distance
_geom_bond_site_symmetry_2
Li0 O4 2.091742 1_455
Li0 O6 2.132113 1_555
Li0 O1 2.159704 1_456
Li0 O10 2.164122 1_555
Li0 O7 2.237912 1_556
Li0 O5 2.454843 1_455
Li1 O4 2.085713 1_455
Li1 O11 2.109661 1_565
Li1 O2 2.116407 1_455
Li1 O10 2.167538 1_555
Li1 O8 2.219427 1_555
Li1 O3 2.451072 1_455
Li2 O11 2.113872 1_555
Li2 O0 2.148720 1_455
Li2 O5 2.181513 1_455
Li2 O6 2.185006 1_555
Li2 O4 2.194324 1_445
Li2 O7 2.203764 1_546
Li3 O9 2.091742 1_655
Li3 O1 2.132113 1_555
Li3 O6 2.159704 1_654
Li3 O3 2.164122 1_555
Li3 O0 2.237912 1_554
Li3 O8 2.454843 1_655
Li4 O2 2.113872 1_555
Li4 O7 2.148720 1_655
Li4 O8 2.181513 1_655
Li4 O1 2.185006 1_555
Li4 O9 2.194324 1_665
Li4 O0 2.203764 1_564
Li5 O9 2.085713 1_655
Li5 O2 2.109661 1_545
Li5 O11 2.116407 1_655
Li5 O3 2.167538 1_555
Li5 O5 2.219427 1_555
Li5 O10 2.451072 1_655
Mn0 O6 1.967235 1_555
Mn0 O0 1.980439 1_555
Mn0 O10 1.997566 1_555
Mn0 O5 2.006883 1_555
Mn0 O11 2.238424 1_555
Mn0 O1 2.267084 1_556
Mn1 O1 1.967235 1_555
Mn1 O7 1.980439 1_555
Mn1 O3 1.997566 1_555
Mn1 O8 2.006883 1_555
Mn1 O2 2.238424 1_555
Mn1 O6 2.267084 1_554
Mn2 O8 1.974630 1_555
Mn2 O5 1.974630 1_555
Mn2 O3 2.004083 1_555
Mn2 O10 2.004083 1_555
Mn2 O9 2.260225 1_555
Mn2 O4 2.260225 1_555
O0 V1 2.057648 1_556
O0 V0 2.106872 1_545
O1 V0 2.050524 1_554
O2 V1 2.010128 1_565
O2 V2 2.029134 1_565
O3 V1 2.107667 1_555
O4 V0 1.996240 1_555
O4 V2 2.048349 1_565
O5 V2 2.085279 1_555
O6 V1 2.050524 1_556
O7 V0 2.057648 1_554
O7 V1 2.106872 1_565
O8 V2 2.085279 1_565
O9 V1 1.996240 1_555
O9 V2 2.048349 1_555
O10 V0 2.107667 1_555
O11 V0 2.010128 1_545
O11 V2 2.029134 1_555
