# generated using pymatgen
data_RbVH4(OF2)2
_symmetry_space_group_name_H-M   'P 1'
_cell_length_a   6.25352365
_cell_length_b   6.73592744
_cell_length_c   14.94566556
_cell_angle_alpha   84.56198884
_cell_angle_beta   89.99792386
_cell_angle_gamma   117.67458845
_symmetry_Int_Tables_number   1
_chemical_formula_structural   RbVH4(OF2)2
_chemical_formula_sum   'Rb4 V4 H16 O8 F16'
_cell_volume   554.33596402
_cell_formula_units_Z   4
loop_
 _symmetry_equiv_pos_site_id
 _symmetry_equiv_pos_as_xyz
  1  'x, y, z'
loop_
 _atom_site_type_symbol
 _atom_site_label
 _atom_site_symmetry_multiplicity
 _atom_site_fract_x
 _atom_site_fract_y
 _atom_site_fract_z
 _atom_site_occupancy
  Rb  Rb0  1  0.40250690  0.24988564  0.37499746  1
  Rb  Rb1  1  0.90231083  0.24980538  0.87500209  1
  Rb  Rb2  1  0.09768952  0.75019791  0.12497655  1
  Rb  Rb3  1  0.59749171  0.75010807  0.62501534  1
  V  V0  1  0.24984633  -0.00004829  0.74996969  1
  V  V1  1  0.00003077  0.50001294  0.50000321  1
  V  V2  1  0.75016634  0.00005413  0.25002348  1
  V  V3  1  0.49994762  0.49998222  0.00000534  1
  H  H0  1  0.80730631  0.05587901  0.42529627  1
  H  H1  1  0.30708603  0.05576729  0.92525851  1
  H  H2  1  0.00152461  0.44400970  0.32473148  1
  H  H3  1  0.50139124  0.44388635  0.82478509  1
  H  H4  1  0.69288831  0.94419607  0.07474410  1
  H  H5  1  0.19272095  0.94416930  0.57469836  1
  H  H6  1  0.49863403  0.55610406  0.17524262  1
  H  H7  1  0.99848606  0.55603066  0.67525194  1
  H  H8  1  0.81946294  0.82889562  0.40877752  1
  H  H9  1  0.31920905  0.82876003  0.90874557  1
  H  H10  1  0.24071220  0.67098004  0.34132727  1
  H  H11  1  0.74057007  0.67091073  0.84130070  1
  H  H12  1  0.68073818  0.17118108  0.09126018  1
  H  H13  1  0.18061667  0.17120403  0.59119790  1
  H  H14  1  0.25944047  0.32908909  0.15870750  1
  H  H15  1  0.75928842  0.32903705  0.65866366  1
  O  O0  1  0.85524331  0.98161860  0.38094279  1
  O  O1  1  0.35490926  0.98141899  0.88087491  1
  O  O2  1  0.12360624  0.51829408  0.36915286  1
  O  O3  1  0.62353370  0.51817449  0.86914968  1
  O  O4  1  0.64508021  0.01851095  0.11910679  1
  O  O5  1  0.14480118  0.01842313  0.61906164  1
  O  O6  1  0.37643195  0.48179194  0.13086215  1
  O  O7  1  0.87638248  0.48170980  0.63084223  1
  F  F0  1  0.81346808  0.30553546  0.25623927  1
  F  F1  1  0.31308740  0.30541324  0.75630537  1
  F  F2  1  0.75745649  0.19451577  0.49378889  1
  F  F3  1  0.25736678  0.19448769  0.99375477  1
  F  F4  1  0.68688303  0.69455299  0.24371656  1
  F  F5  1  0.18658764  0.69450297  0.74374457  1
  F  F6  1  0.74254792  0.80549957  0.00622970  1
  F  F7  1  0.24258515  0.80548469  0.50623912  1
  F  F8  1  0.77073681  0.60086883  0.46117199  1
  F  F9  1  0.27065759  0.60083152  0.96122153  1
  F  F10  1  0.42011969  0.89917496  0.28895954  1
  F  F11  1  0.91966260  0.89903353  0.78885668  1
  F  F12  1  0.72921813  0.39913539  0.03882394  1
  F  F13  1  0.22931369  0.39914145  0.53880532  1
  F  F14  1  0.08028783  0.10088366  0.21109513  1
  F  F15  1  0.57996927  0.10089916  0.71107376  1
loop_
_geom_bond_atom_site_label_1
_geom_bond_atom_site_label_2
_geom_bond_distance
_geom_bond_site_symmetry_2
H0 O0 0.990771 1_545
H1 O1 0.991132 1_545
H2 O2 0.991032 1_555
H3 O3 0.990633 1_555
H4 O4 0.990697 1_565
H5 O5 0.990787 1_565
H6 O6 0.991037 1_555
H7 O7 0.991032 1_555
H8 O0 0.993216 1_555
H9 O1 0.993133 1_555
H10 O2 0.993128 1_555
H11 O3 0.993350 1_555
H12 O4 0.993152 1_555
H13 O5 0.993647 1_555
H14 O6 0.993114 1_555
H15 O7 0.993031 1_555
O0 V2 2.074999 1_565
O0 Rb0 3.034893 1_665
O1 V0 2.074849 1_565
O1 Rb1 3.035712 1_565
O2 V1 2.074309 1_555
O2 Rb0 3.036040 1_555
O3 V3 2.074528 1_556
O3 Rb1 3.035152 1_555
O4 V2 2.074999 1_555
O4 Rb2 3.035621 1_545
O5 V0 2.074801 1_555
O5 Rb3 3.035156 1_445
O6 V3 2.074395 1_555
O6 Rb2 3.035167 1_555
O7 V1 2.074277 1_655
O7 Rb3 3.035936 1_555
F0 H2 1.569410 1_655
F0 V2 1.918086 1_555
F0 Rb0 2.978965 1_555
F0 Rb2 3.149601 1_655
F1 H3 1.570008 1_555
F1 V0 1.918336 1_555
F1 Rb1 2.977594 1_455
F1 Rb3 3.150096 1_555
F2 H0 1.571218 1_555
F2 V1 1.918572 1_655
F2 Rb0 2.976911 1_555
F2 Rb3 3.148610 1_545
F3 H1 1.571291 1_555
F3 V3 1.918653 1_556
F3 Rb1 2.976962 1_455
F3 Rb2 3.148205 1_546
F4 H6 1.569734 1_555
F4 V2 1.918456 1_565
F4 Rb2 2.978039 1_655
F4 Rb0 3.149885 1_555
F5 H7 1.569544 1_455
F5 V0 1.917971 1_565
F5 Rb3 2.978525 1_555
F5 Rb1 3.149751 1_455
F6 H4 1.571186 1_555
F6 V3 1.918739 1_555
F6 Rb2 2.977297 1_655
F6 Rb1 3.148265 1_564
F7 H5 1.571149 1_555
F7 V1 1.918463 1_555
F7 Rb3 2.976581 1_555
F7 Rb0 3.148731 1_565
F8 H8 1.550006 1_555
F8 V1 1.919530 1_655
F8 Rb0 2.840969 1_555
F8 Rb3 3.107845 1_555
F9 H9 1.550232 1_555
F9 V3 1.919288 1_556
F9 Rb1 2.841780 1_455
F9 Rb2 3.106381 1_556
F10 H10 1.550482 1_555
F10 V2 1.918979 1_565
F10 Rb0 2.839693 1_565
F10 Rb2 3.109045 1_555
F11 H11 1.550139 1_555
F11 V0 1.919517 1_665
F11 Rb1 2.840222 1_565
F11 Rb3 3.106469 1_555
F12 H12 1.550254 1_555
F12 V3 1.919305 1_555
F12 Rb2 2.841701 1_655
F12 Rb1 3.107450 1_554
F13 H13 1.549530 1_555
F13 V1 1.919421 1_555
F13 Rb3 2.841058 1_555
F13 Rb0 3.107312 1_555
F14 H14 1.550229 1_555
F14 V2 1.919433 1_455
F14 Rb2 2.839624 1_545
F14 Rb0 3.107416 1_555
F15 H15 1.550364 1_555
F15 V0 1.919172 1_555
F15 Rb3 2.840100 1_545
F15 Rb1 3.108054 1_555
