# generated using pymatgen
data_LiCr2(PO4)2
_symmetry_space_group_name_H-M   'P 1'
_cell_length_a   10.85783100
_cell_length_b   5.64231600
_cell_length_c   10.25799962
_cell_angle_alpha   87.67346924
_cell_angle_beta   90.00000000
_cell_angle_gamma   90.00000000
_symmetry_Int_Tables_number   1
_chemical_formula_structural   LiCr2(PO4)2
_chemical_formula_sum   'Li4 Cr8 P8 O32'
_cell_volume   627.92102809
_cell_formula_units_Z   4
loop_
 _symmetry_equiv_pos_site_id
 _symmetry_equiv_pos_as_xyz
  1  'x, y, z'
loop_
 _atom_site_type_symbol
 _atom_site_label
 _atom_site_symmetry_multiplicity
 _atom_site_fract_x
 _atom_site_fract_y
 _atom_site_fract_z
 _atom_site_occupancy
  Li  Li0  1  0.87468700  0.88001500  0.90354600  1
  Li  Li1  1  0.62531300  0.88001500  0.40354600  1
  Li  Li2  1  0.37468700  0.11998500  0.59645400  1
  Li  Li3  1  0.12531300  0.11998500  0.09645400  1
  Cr  Cr0  1  0.09863000  0.86936500  0.73264400  1
  Cr  Cr1  1  0.40137000  0.86936500  0.23264400  1
  Cr  Cr2  1  0.62831200  0.66072900  0.98330400  1
  Cr  Cr3  1  0.87168800  0.66072900  0.48330400  1
  Cr  Cr4  1  0.12831200  0.33927100  0.51669600  1
  Cr  Cr5  1  0.37168800  0.33927100  0.01669600  1
  Cr  Cr6  1  0.59863000  0.13063500  0.76735600  1
  Cr  Cr7  1  0.90137000  0.13063500  0.26735600  1
  P  P0  1  0.35968400  0.88179200  0.91156400  1
  P  P1  1  0.14031600  0.88179200  0.41156400  1
  P  P2  1  0.60728100  0.63799100  0.66135800  1
  P  P3  1  0.89271900  0.63799100  0.16135800  1
  P  P4  1  0.10728100  0.36200900  0.83864200  1
  P  P5  1  0.39271900  0.36200900  0.33864200  1
  P  P6  1  0.85968400  0.11820800  0.58843600  1
  P  P7  1  0.64031600  0.11820800  0.08843600  1
  O  O0  1  0.19201600  0.94022300  0.54929000  1
  O  O1  1  0.93569900  0.89157600  0.63259900  1
  O  O2  1  0.30798400  0.94022300  0.04929000  1
  O  O3  1  0.56430100  0.89157600  0.13259900  1
  O  O4  1  0.52844600  0.87494100  0.64754400  1
  O  O5  1  0.26296500  0.83564500  0.80917600  1
  O  O6  1  0.97155400  0.87494100  0.14754400  1
  O  O7  1  0.23703500  0.83564500  0.30917600  1
  O  O8  1  0.44578300  0.66470200  0.92724100  1
  O  O9  1  0.05421700  0.66470200  0.42724100  1
  O  O10  1  0.68001600  0.64549700  0.79171700  1
  O  O11  1  0.81998400  0.64549700  0.29171700  1
  O  O12  1  0.69475400  0.64100000  0.54207800  1
  O  O13  1  0.02672400  0.59162600  0.83721500  1
  O  O14  1  0.80524600  0.64100000  0.04207800  1
  O  O15  1  0.47327600  0.59162600  0.33721500  1
  O  O16  1  0.52672400  0.40837400  0.66278500  1
  O  O17  1  0.19475400  0.35900000  0.95792200  1
  O  O18  1  0.97327600  0.40837400  0.16278500  1
  O  O19  1  0.30524600  0.35900000  0.45792200  1
  O  O20  1  0.18001600  0.35450300  0.70828300  1
  O  O21  1  0.31998400  0.35450300  0.20828300  1
  O  O22  1  0.94578300  0.33529800  0.57275900  1
  O  O23  1  0.55421700  0.33529800  0.07275900  1
  O  O24  1  0.76296500  0.16435500  0.69082400  1
  O  O25  1  0.02844600  0.12505900  0.85245600  1
  O  O26  1  0.73703500  0.16435500  0.19082400  1
  O  O27  1  0.47155400  0.12505900  0.35245600  1
  O  O28  1  0.43569900  0.10842400  0.86740100  1
  O  O29  1  0.69201600  0.05977700  0.95071000  1
  O  O30  1  0.06430100  0.10842400  0.36740100  1
  O  O31  1  0.80798400  0.05977700  0.45071000  1
loop_
_geom_bond_atom_site_label_1
_geom_bond_atom_site_label_2
_geom_bond_distance
_geom_bond_site_symmetry_2
Li0 O14 2.061801 1_556
Li0 O25 2.216901 1_665
Li0 O29 2.288358 1_565
Li0 O13 2.434276 1_655
Li1 O12 2.061801 1_555
Li1 O27 2.216901 1_565
Li1 O31 2.288358 1_565
Li1 O15 2.434276 1_555
Li2 O19 2.061801 1_555
Li2 O4 2.216901 1_545
Li2 O0 2.288358 1_545
Li2 O16 2.434276 1_555
Li3 O17 2.061801 1_554
Li3 O6 2.216901 1_445
Li3 O2 2.288358 1_545
Li3 O18 2.434276 1_455
Cr0 O5 1.955557 1_555
Cr0 O13 2.019782 1_555
Cr0 O1 2.046487 1_455
Cr0 O25 2.077641 1_565
Cr0 O0 2.159746 1_555
Cr1 O7 1.955557 1_555
Cr1 O15 2.019782 1_555
Cr1 O3 2.046487 1_555
Cr1 O27 2.077641 1_565
Cr1 O2 2.159746 1_555
Cr2 O14 2.015226 1_556
Cr2 O10 2.049064 1_555
Cr2 O8 2.063491 1_555
Cr2 O3 2.164933 1_556
Cr2 O23 2.173490 1_556
Cr2 O29 2.366136 1_565
Cr3 O12 2.015226 1_555
Cr3 O11 2.049064 1_555
Cr3 O9 2.063491 1_655
Cr3 O1 2.164933 1_555
Cr3 O22 2.173490 1_555
Cr3 O31 2.366136 1_565
Cr4 O19 2.015226 1_555
Cr4 O20 2.049064 1_555
Cr4 O22 2.063491 1_455
Cr4 O30 2.164933 1_555
Cr4 O9 2.173490 1_555
Cr4 O0 2.366136 1_545
Cr5 O17 2.015226 1_554
Cr5 O21 2.049064 1_555
Cr5 O23 2.063491 1_555
Cr5 O28 2.164933 1_554
Cr5 O8 2.173490 1_554
Cr5 O2 2.366136 1_545
Cr6 O24 1.955557 1_555
Cr6 O16 2.019782 1_555
Cr6 O28 2.046487 1_555
Cr6 O4 2.077641 1_545
Cr6 O29 2.159746 1_555
Cr7 O26 1.955557 1_555
Cr7 O18 2.019782 1_555
Cr7 O30 2.046487 1_655
Cr7 O6 2.077641 1_545
Cr7 O31 2.159746 1_555
O0 P1 1.567676 1_555
O1 P6 1.573074 1_565
O2 P0 1.567676 1_554
O3 P7 1.573074 1_565
O4 P2 1.588969 1_555
O5 P0 1.515240 1_555
O6 P3 1.588969 1_555
O7 P1 1.515240 1_555
O8 P0 1.544075 1_555
O9 P1 1.544075 1_555
O10 P2 1.555073 1_555
O11 P3 1.555073 1_555
O12 P2 1.548481 1_555
O13 P4 1.562765 1_555
O14 P3 1.548481 1_555
O15 P5 1.562765 1_555
O16 P2 1.562765 1_555
O17 P4 1.548481 1_555
O18 P3 1.562765 1_555
O19 P5 1.548481 1_555
O20 P4 1.555073 1_555
O21 P5 1.555073 1_555
O22 P6 1.544075 1_555
O23 P7 1.544075 1_555
O24 P6 1.515240 1_555
O25 P4 1.588969 1_555
O26 P7 1.515240 1_555
O27 P5 1.588969 1_555
O28 P0 1.573074 1_545
O29 P7 1.567676 1_556
O30 P1 1.573074 1_545
O31 P6 1.567676 1_555
