# generated using pymatgen
data_H8AuC2S2N4ClO4
_symmetry_space_group_name_H-M   'P 1'
_cell_length_a   7.28949600
_cell_length_b   8.45780900
_cell_length_c   18.12793200
_cell_angle_alpha   90.00000000
_cell_angle_beta   90.00000000
_cell_angle_gamma   90.00000000
_symmetry_Int_Tables_number   1
_chemical_formula_structural   H8AuC2S2N4ClO4
_chemical_formula_sum   'H32 Au4 C8 S8 N16 Cl4 O16'
_cell_volume   1117.64438043
_cell_formula_units_Z   4
loop_
 _symmetry_equiv_pos_site_id
 _symmetry_equiv_pos_as_xyz
  1  'x, y, z'
loop_
 _atom_site_type_symbol
 _atom_site_label
 _atom_site_symmetry_multiplicity
 _atom_site_fract_x
 _atom_site_fract_y
 _atom_site_fract_z
 _atom_site_occupancy
  H  H0  1  0.87258200  0.51948800  0.09250900  1
  H  H1  1  0.87258200  0.48051200  0.40749100  1
  H  H2  1  0.62741800  0.48051200  0.59250900  1
  H  H3  1  0.62741800  0.51948800  0.90749100  1
  H  H4  1  0.12741800  0.48051200  0.90749100  1
  H  H5  1  0.12741800  0.51948800  0.59250900  1
  H  H6  1  0.37258200  0.51948800  0.40749100  1
  H  H7  1  0.37258200  0.48051200  0.09250900  1
  H  H8  1  0.74239900  0.45740800  0.16792800  1
  H  H9  1  0.74239900  0.54259200  0.33207200  1
  H  H10  1  0.75760100  0.54259200  0.66792800  1
  H  H11  1  0.75760100  0.45740800  0.83207200  1
  H  H12  1  0.25760100  0.54259200  0.83207200  1
  H  H13  1  0.25760100  0.45740800  0.66792800  1
  H  H14  1  0.24239900  0.45740800  0.33207200  1
  H  H15  1  0.24239900  0.54259200  0.16792800  1
  H  H16  1  0.89076500  0.78931900  0.06445500  1
  H  H17  1  0.89076500  0.21068100  0.43554500  1
  H  H18  1  0.60923500  0.21068100  0.56445500  1
  H  H19  1  0.60923500  0.78931900  0.93554500  1
  H  H20  1  0.10923500  0.21068100  0.93554500  1
  H  H21  1  0.10923500  0.78931900  0.56445500  1
  H  H22  1  0.39076500  0.78931900  0.43554500  1
  H  H23  1  0.39076500  0.21068100  0.06445500  1
  H  H24  1  0.76651300  0.92712900  0.11615200  1
  H  H25  1  0.76651300  0.07287100  0.38384800  1
  H  H26  1  0.73348700  0.07287100  0.61615200  1
  H  H27  1  0.73348700  0.92712900  0.88384800  1
  H  H28  1  0.23348700  0.07287100  0.88384800  1
  H  H29  1  0.23348700  0.92712900  0.61615200  1
  H  H30  1  0.26651300  0.92712900  0.38384800  1
  H  H31  1  0.26651300  0.07287100  0.11615200  1
  Au  Au0  1  0.60170600  0.00000000  0.25000000  1
  Au  Au1  1  0.89829400  0.00000000  0.75000000  1
  Au  Au2  1  0.39829400  0.00000000  0.75000000  1
  Au  Au3  1  0.10170600  0.00000000  0.25000000  1
  C  C0  1  0.74021100  0.69724700  0.14987700  1
  C  C1  1  0.74021100  0.30275300  0.35012300  1
  C  C2  1  0.75978900  0.30275300  0.64987700  1
  C  C3  1  0.75978900  0.69724700  0.85012300  1
  C  C4  1  0.25978900  0.30275300  0.85012300  1
  C  C5  1  0.25978900  0.69724700  0.64987700  1
  C  C6  1  0.24021100  0.69724700  0.35012300  1
  C  C7  1  0.24021100  0.30275300  0.14987700  1
  S  S0  1  0.59361800  0.73192000  0.22342400  1
  S  S1  1  0.59361800  0.26808000  0.27657600  1
  S  S2  1  0.90638200  0.26808000  0.72342400  1
  S  S3  1  0.90638200  0.73192000  0.77657600  1
  S  S4  1  0.40638200  0.26808000  0.77657600  1
  S  S5  1  0.40638200  0.73192000  0.72342400  1
  S  S6  1  0.09361800  0.73192000  0.27657600  1
  S  S7  1  0.09361800  0.26808000  0.22342400  1
  N  N0  1  0.78817700  0.54750400  0.13552300  1
  N  N1  1  0.78817700  0.45249600  0.36447700  1
  N  N2  1  0.71182300  0.45249600  0.63552300  1
  N  N3  1  0.71182300  0.54750400  0.86447700  1
  N  N4  1  0.21182300  0.45249600  0.86447700  1
  N  N5  1  0.21182300  0.54750400  0.63552300  1
  N  N6  1  0.28817700  0.54750400  0.36447700  1
  N  N7  1  0.28817700  0.45249600  0.13552300  1
  N  N8  1  0.80333800  0.81261200  0.10709400  1
  N  N9  1  0.80333800  0.18738800  0.39290600  1
  N  N10  1  0.69666200  0.18738800  0.60709400  1
  N  N11  1  0.69666200  0.81261200  0.89290600  1
  N  N12  1  0.19666200  0.18738800  0.89290600  1
  N  N13  1  0.19666200  0.81261200  0.60709400  1
  N  N14  1  0.30333800  0.81261200  0.39290600  1
  N  N15  1  0.30333800  0.18738800  0.10709400  1
  Cl  Cl0  1  0.75000000  0.76276500  0.50000000  1
  Cl  Cl1  1  0.75000000  0.23723500  0.00000000  1
  Cl  Cl2  1  0.25000000  0.23723500  0.50000000  1
  Cl  Cl3  1  0.25000000  0.76276500  0.00000000  1
  O  O0  1  0.58580000  0.66258300  0.50674500  1
  O  O1  1  0.58580000  0.33741700  0.99325500  1
  O  O2  1  0.91420000  0.33741700  0.00674500  1
  O  O3  1  0.91420000  0.66258300  0.49325500  1
  O  O4  1  0.41420000  0.33741700  0.49325500  1
  O  O5  1  0.41420000  0.66258300  0.00674500  1
  O  O6  1  0.08580000  0.66258300  0.99325500  1
  O  O7  1  0.08580000  0.33741700  0.50674500  1
  O  O8  1  0.72928200  0.86013600  0.43440300  1
  O  O9  1  0.72928200  0.13986400  0.06559700  1
  O  O10  1  0.77071800  0.13986400  0.93440300  1
  O  O11  1  0.77071800  0.86013600  0.56559700  1
  O  O12  1  0.27071800  0.13986400  0.56559700  1
  O  O13  1  0.27071800  0.86013600  0.93440300  1
  O  O14  1  0.22928200  0.86013600  0.06559700  1
  O  O15  1  0.22928200  0.13986400  0.43440300  1
loop_
_geom_bond_atom_site_label_1
_geom_bond_atom_site_label_2
_geom_bond_distance
_geom_bond_site_symmetry_2
H0 N0 1.021138 1_555
H1 N1 1.021138 1_555
H2 N2 1.021138 1_555
H3 N3 1.021138 1_555
H4 N4 1.021138 1_555
H5 N5 1.021138 1_555
H6 N6 1.021138 1_555
H7 N7 1.021138 1_555
H8 N0 1.018382 1_555
H9 N1 1.018382 1_555
H10 N2 1.018382 1_555
H11 N3 1.018382 1_555
H12 N4 1.018382 1_555
H13 N5 1.018382 1_555
H14 N6 1.018382 1_555
H15 N7 1.018382 1_555
H16 N8 1.020992 1_555
H17 N9 1.020992 1_555
H18 N10 1.020992 1_555
H19 N11 1.020992 1_555
H20 N12 1.020992 1_555
H21 N13 1.020992 1_555
H22 N14 1.020992 1_555
H23 N15 1.020992 1_555
H24 N8 1.018398 1_555
H25 N9 1.018398 1_555
H26 N10 1.018398 1_555
H27 N11 1.018398 1_555
H28 N12 1.018398 1_555
H29 N13 1.018398 1_555
H30 N14 1.018398 1_555
H31 N15 1.018398 1_555
Au0 S1 2.318737 1_555
Au0 S0 2.318737 1_545
Au1 S3 2.318737 1_545
Au1 S2 2.318737 1_555
Au2 S4 2.318737 1_555
Au2 S5 2.318737 1_545
Au3 S6 2.318737 1_545
Au3 S7 2.318737 1_555
C0 N8 1.328651 1_555
C0 N0 1.339395 1_555
C0 S0 1.733624 1_555
C1 N9 1.328651 1_555
C1 N1 1.339395 1_555
C1 S1 1.733624 1_555
C2 N10 1.328651 1_555
C2 N2 1.339395 1_555
C2 S2 1.733624 1_555
C3 N11 1.328651 1_555
C3 N3 1.339395 1_555
C3 S3 1.733624 1_555
C4 N12 1.328651 1_555
C4 N4 1.339395 1_555
C4 S4 1.733624 1_555
C5 N13 1.328651 1_555
C5 N5 1.339395 1_555
C5 S5 1.733624 1_555
C6 N14 1.328651 1_555
C6 N6 1.339395 1_555
C6 S6 1.733624 1_555
C7 N15 1.328651 1_555
C7 N7 1.339395 1_555
C7 S7 1.733624 1_555
Cl0 O8 1.454333 1_555
Cl0 O11 1.454333 1_555
Cl0 O0 1.471583 1_555
Cl0 O3 1.471583 1_555
Cl1 O9 1.454333 1_555
Cl1 O10 1.454333 1_554
Cl1 O2 1.471583 1_555
Cl1 O1 1.471583 1_554
Cl2 O12 1.454333 1_555
Cl2 O15 1.454333 1_555
Cl2 O4 1.471583 1_555
Cl2 O7 1.471583 1_555
Cl3 O13 1.454333 1_554
Cl3 O14 1.454333 1_555
Cl3 O5 1.471583 1_555
Cl3 O6 1.471583 1_554
