# generated using pymatgen
data_C8I3N4
_symmetry_space_group_name_H-M   'P 1'
_cell_length_a   8.86380800
_cell_length_b   13.47529100
_cell_length_c   14.03593700
_cell_angle_alpha   90.00000000
_cell_angle_beta   90.00000000
_cell_angle_gamma   90.00000000
_symmetry_Int_Tables_number   1
_chemical_formula_structural   C8I3N4
_chemical_formula_sum   'C32 I12 N16'
_cell_volume   1676.48589160
_cell_formula_units_Z   4
loop_
 _symmetry_equiv_pos_site_id
 _symmetry_equiv_pos_as_xyz
  1  'x, y, z'
loop_
 _atom_site_type_symbol
 _atom_site_label
 _atom_site_symmetry_multiplicity
 _atom_site_fract_x
 _atom_site_fract_y
 _atom_site_fract_z
 _atom_site_occupancy
  C  C0  1  0.60280800  0.32662800  0.01181000  1
  C  C1  1  0.89719200  0.17337200  0.51181000  1
  C  C2  1  0.39719200  0.82662800  0.98819000  1
  C  C3  1  0.10280800  0.67337200  0.48819000  1
  C  C4  1  0.39719200  0.67337200  0.98819000  1
  C  C5  1  0.10280800  0.82662800  0.48819000  1
  C  C6  1  0.60280800  0.17337200  0.01181000  1
  C  C7  1  0.89719200  0.32662800  0.51181000  1
  C  C8  1  0.37868300  0.34973700  0.93296500  1
  C  C9  1  0.12131700  0.15026300  0.43296500  1
  C  C10  1  0.62131700  0.84973700  0.06703500  1
  C  C11  1  0.87868300  0.65026300  0.56703500  1
  C  C12  1  0.62131700  0.65026300  0.06703500  1
  C  C13  1  0.87868300  0.84973700  0.56703500  1
  C  C14  1  0.37868300  0.15026300  0.93296500  1
  C  C15  1  0.12131700  0.34973700  0.43296500  1
  C  C16  1  0.68551600  0.25000000  0.03366300  1
  C  C17  1  0.81448400  0.25000000  0.53366300  1
  C  C18  1  0.31448400  0.75000000  0.96633700  1
  C  C19  1  0.18551600  0.75000000  0.46633700  1
  C  C20  1  0.32860500  0.25000000  0.07492300  1
  C  C21  1  0.17139500  0.25000000  0.57492300  1
  C  C22  1  0.67139500  0.75000000  0.92507700  1
  C  C23  1  0.82860500  0.75000000  0.42507700  1
  C  C24  1  0.37362600  0.25000000  0.24800700  1
  C  C25  1  0.12637400  0.25000000  0.74800700  1
  C  C26  1  0.62637400  0.75000000  0.75199300  1
  C  C27  1  0.87362600  0.75000000  0.25199300  1
  C  C28  1  0.44249700  0.25000000  0.32722800  1
  C  C29  1  0.05750300  0.25000000  0.82722800  1
  C  C30  1  0.55750300  0.75000000  0.67277200  1
  C  C31  1  0.94249700  0.75000000  0.17277200  1
  I  I0  1  0.06711100  0.91583100  0.81520600  1
  I  I1  1  0.43288900  0.58416900  0.31520600  1
  I  I2  1  0.93288900  0.41583100  0.18479400  1
  I  I3  1  0.56711100  0.08416900  0.68479400  1
  I  I4  1  0.93288900  0.08416900  0.18479400  1
  I  I5  1  0.56711100  0.41583100  0.68479400  1
  I  I6  1  0.06711100  0.58416900  0.81520600  1
  I  I7  1  0.43288900  0.91583100  0.31520600  1
  I  I8  1  0.00000000  0.00000000  0.00000000  1
  I  I9  1  0.50000000  0.50000000  0.50000000  1
  I  I10  1  0.00000000  0.50000000  0.00000000  1
  I  I11  1  0.50000000  0.00000000  0.50000000  1
  N  N0  1  0.33877900  0.25000000  0.15919500  1
  N  N1  1  0.16122100  0.25000000  0.65919500  1
  N  N2  1  0.66122100  0.75000000  0.84080500  1
  N  N3  1  0.83877900  0.75000000  0.34080500  1
  N  N4  1  0.50447200  0.38308600  0.97813300  1
  N  N5  1  0.99552800  0.11691400  0.47813300  1
  N  N6  1  0.49552800  0.88308600  0.02186700  1
  N  N7  1  0.00447200  0.61691400  0.52186700  1
  N  N8  1  0.49552800  0.61691400  0.02186700  1
  N  N9  1  0.00447200  0.88308600  0.52186700  1
  N  N10  1  0.50447200  0.11691400  0.97813300  1
  N  N11  1  0.99552800  0.38308600  0.47813300  1
  N  N12  1  0.32299400  0.25000000  0.98216500  1
  N  N13  1  0.17700600  0.25000000  0.48216500  1
  N  N14  1  0.67700600  0.75000000  0.01783500  1
  N  N15  1  0.82299400  0.75000000  0.51783500  1
loop_
_geom_bond_atom_site_label_1
_geom_bond_atom_site_label_2
_geom_bond_distance
_geom_bond_site_symmetry_2
C0 N4 1.249790 1_554
C0 C16 1.302981 1_555
C1 N5 1.249790 1_555
C1 C17 1.302981 1_555
C2 N6 1.249790 1_556
C3 N7 1.249790 1_555
C4 N8 1.249790 1_556
C5 N9 1.249790 1_555
C6 N10 1.249790 1_554
C7 N11 1.249790 1_555
C8 N4 1.359055 1_555
C8 N12 1.589603 1_555
C9 N5 1.359055 1_455
C9 N13 1.589603 1_555
C10 N6 1.359055 1_555
C10 N14 1.589603 1_555
C11 N7 1.359055 1_655
C11 N15 1.589603 1_555
C12 N8 1.359055 1_555
C12 N14 1.589603 1_555
C13 N9 1.359055 1_655
C13 N15 1.589603 1_555
C14 N10 1.359055 1_555
C14 N12 1.589603 1_555
C15 N11 1.359055 1_455
C15 N13 1.589603 1_555
C16 C6 1.302981 1_555
C17 C7 1.302981 1_555
C18 C4 1.302981 1_555
C18 C2 1.302981 1_555
C19 C5 1.302981 1_555
C19 C3 1.302981 1_555
C20 N0 1.186269 1_555
C20 N12 1.302895 1_554
C21 N1 1.186269 1_555
C21 N13 1.302895 1_555
C22 N2 1.186269 1_555
C22 N14 1.302895 1_556
C23 N3 1.186269 1_555
C23 N15 1.302895 1_555
C24 C28 1.268493 1_555
C24 N0 1.284257 1_555
C25 C29 1.268493 1_555
C25 N1 1.284257 1_555
C26 C30 1.268493 1_555
C26 N2 1.284257 1_555
C27 C31 1.268493 1_555
C27 N3 1.284257 1_555
I0 I8 2.892723 1_566
I1 I9 2.892723 1_555
I4 I8 2.892723 1_655
I5 I9 2.892723 1_555
I10 I2 2.892723 1_455
I10 I6 2.892723 1_554
I11 I7 2.892723 1_545
I11 I3 2.892723 1_555
