# generated using pymatgen
data_Cs2ZnH12(SeO7)2
_symmetry_space_group_name_H-M   'P 1'
_cell_length_a   13.27662200
_cell_length_b   6.59355900
_cell_length_c   9.48745707
_cell_angle_alpha   74.59850456
_cell_angle_beta   90.00000000
_cell_angle_gamma   90.00000000
_symmetry_Int_Tables_number   1
_chemical_formula_structural   Cs2ZnH12(SeO7)2
_chemical_formula_sum   'Cs4 Zn2 H24 Se4 O28'
_cell_volume   800.70806217
_cell_formula_units_Z   2
loop_
 _symmetry_equiv_pos_site_id
 _symmetry_equiv_pos_as_xyz
  1  'x, y, z'
loop_
 _atom_site_type_symbol
 _atom_site_label
 _atom_site_symmetry_multiplicity
 _atom_site_fract_x
 _atom_site_fract_y
 _atom_site_fract_z
 _atom_site_occupancy
  Cs  Cs0  1  0.35300700  0.65044300  0.13400400  1
  Cs  Cs1  1  0.85300700  0.34955700  0.36599600  1
  Cs  Cs2  1  0.14699300  0.65044300  0.63400400  1
  Cs  Cs3  1  0.64699300  0.34955700  0.86599600  1
  Zn  Zn0  1  0.00000000  0.00000000  0.00000000  1
  Zn  Zn1  1  0.50000000  0.00000000  0.50000000  1
  H  H0  1  0.06225400  0.33053800  0.09373400  1
  H  H1  1  0.86175500  0.69114200  0.02947700  1
  H  H2  1  0.40305100  0.07345000  0.22936900  1
  H  H3  1  0.62932100  0.09542700  0.26854100  1
  H  H4  1  0.09348000  0.68584900  0.19918100  1
  H  H5  1  0.82236700  0.00053500  0.14426500  1
  H  H6  1  0.32236700  0.99946500  0.35573500  1
  H  H7  1  0.59348000  0.31415100  0.30081900  1
  H  H8  1  0.12932100  0.90457300  0.23145900  1
  H  H9  1  0.90305100  0.92655000  0.27063100  1
  H  H10  1  0.36175500  0.30885800  0.47052300  1
  H  H11  1  0.56225400  0.66946200  0.40626600  1
  H  H12  1  0.43774600  0.33053800  0.59373400  1
  H  H13  1  0.63824500  0.69114200  0.52947700  1
  H  H14  1  0.09694900  0.07345000  0.72936900  1
  H  H15  1  0.87067900  0.09542700  0.76854100  1
  H  H16  1  0.40652000  0.68584900  0.69918100  1
  H  H17  1  0.67763300  0.00053500  0.64426500  1
  H  H18  1  0.17763300  0.99946500  0.85573500  1
  H  H19  1  0.90652000  0.31415100  0.80081900  1
  H  H20  1  0.37067900  0.90457300  0.73145900  1
  H  H21  1  0.59694900  0.92655000  0.77063100  1
  H  H22  1  0.13824500  0.30885800  0.97052300  1
  H  H23  1  0.93774600  0.66946200  0.90626600  1
  Se  Se0  1  0.64502600  0.74366700  0.10296400  1
  Se  Se1  1  0.14502600  0.25633300  0.39703600  1
  Se  Se2  1  0.85497400  0.74366700  0.60296400  1
  Se  Se3  1  0.35497400  0.25633300  0.89703600  1
  O  O0  1  0.06581400  0.28881600  0.00044500  1
  O  O1  1  0.42650300  0.20327700  0.04758400  1
  O  O2  1  0.89394600  0.01828100  0.16960400  1
  O  O3  1  0.74483200  0.60005900  0.08012200  1
  O  O4  1  0.11015800  0.83594800  0.15382900  1
  O  O5  1  0.68532500  0.96658500  0.14015100  1
  O  O6  1  0.07547900  0.40082600  0.25752700  1
  O  O7  1  0.57547900  0.59917400  0.24247300  1
  O  O8  1  0.18532500  0.03341500  0.35984900  1
  O  O9  1  0.61015800  0.16405200  0.34617100  1
  O  O10  1  0.24483200  0.39994100  0.41987800  1
  O  O11  1  0.39394600  0.98171900  0.33039600  1
  O  O12  1  0.43418600  0.28881600  0.50044500  1
  O  O13  1  0.07349700  0.20327700  0.54758400  1
  O  O14  1  0.92650300  0.79672300  0.45241600  1
  O  O15  1  0.56581400  0.71118400  0.49955500  1
  O  O16  1  0.60605400  0.01828100  0.66960400  1
  O  O17  1  0.75516800  0.60005900  0.58012200  1
  O  O18  1  0.38984200  0.83594800  0.65382900  1
  O  O19  1  0.81467500  0.96658500  0.64015100  1
  O  O20  1  0.42452100  0.40082600  0.75752700  1
  O  O21  1  0.92452100  0.59917400  0.74247300  1
  O  O22  1  0.31467500  0.03341500  0.85984900  1
  O  O23  1  0.88984200  0.16405200  0.84617100  1
  O  O24  1  0.25516800  0.39994100  0.91987800  1
  O  O25  1  0.10605400  0.98171900  0.83039600  1
  O  O26  1  0.57349700  0.79672300  0.95241600  1
  O  O27  1  0.93418600  0.71118400  0.99955500  1
loop_
_geom_bond_atom_site_label_1
_geom_bond_atom_site_label_2
_geom_bond_distance
_geom_bond_site_symmetry_2
Cs0 O7 3.116526 1_555
Cs0 O10 3.125286 1_555
Cs0 O22 3.148345 1_564
Cs0 O24 3.213217 1_554
Cs1 O6 3.116526 1_655
Cs1 O3 3.125286 1_555
Cs1 O19 3.148345 1_545
Cs1 O17 3.213217 1_555
Cs2 O21 3.116526 1_455
Cs2 O24 3.125286 1_555
Cs2 O8 3.148345 1_565
Cs2 O10 3.213217 1_555
Cs3 O20 3.116526 1_555
Cs3 O17 3.125286 1_555
Cs3 O5 3.148345 1_546
Cs3 O3 3.213217 1_556
H0 O0 0.995288 1_555
H1 O27 1.001437 1_554
H1 O3 1.687613 1_555
H2 O11 0.995595 1_545
H3 O9 0.994452 1_555
H4 O4 0.993709 1_555
H5 O2 0.994760 1_555
H6 O11 0.994760 1_555
H7 O9 0.993709 1_555
H8 O4 0.994452 1_555
H9 O2 0.995595 1_565
H10 O12 1.001437 1_555
H10 O10 1.687613 1_555
H11 O15 0.995288 1_555
H12 O12 0.995288 1_555
H13 O15 1.001437 1_555
H13 O17 1.687613 1_555
H14 O25 0.995595 1_545
H15 O23 0.994452 1_555
H16 O18 0.993709 1_555
H17 O16 0.994760 1_555
H18 O25 0.994760 1_555
H19 O23 0.993709 1_555
H20 O18 0.994452 1_555
H21 O16 0.995595 1_565
H22 O0 1.001437 1_556
H22 O24 1.687613 1_555
H23 O27 0.995288 1_555
O0 Zn0 2.096246 1_555
O1 Se3 1.673000 1_554
O2 Zn0 2.165494 1_655
O3 Se0 1.675831 1_555
O4 Zn0 2.144874 1_565
O5 Se0 1.687175 1_555
O6 Se1 1.685922 1_555
O7 Se0 1.685922 1_555
O8 Se1 1.687175 1_555
O9 Zn1 2.144874 1_555
O10 Se1 1.675831 1_555
O11 Zn1 2.165494 1_565
O12 Zn1 2.096246 1_555
O13 Se1 1.673000 1_555
O14 Se2 1.673000 1_555
O15 Zn1 2.096246 1_565
O16 Zn1 2.165494 1_555
O17 Se2 1.675831 1_555
O18 Zn1 2.144874 1_565
O19 Se2 1.687175 1_555
O20 Se3 1.685922 1_555
O21 Se2 1.685922 1_555
O22 Se3 1.687175 1_555
O23 Zn0 2.144874 1_656
O24 Se3 1.675831 1_555
O25 Zn0 2.165494 1_566
O26 Se0 1.673000 1_556
O27 Zn0 2.096246 1_666
