# generated using pymatgen
data_LiFeBO3
_symmetry_space_group_name_H-M   'P 1'
_cell_length_a   5.70745813
_cell_length_b   7.40094016
_cell_length_c   6.67031342
_cell_angle_alpha   89.99107592
_cell_angle_beta   76.99065407
_cell_angle_gamma   90.01866340
_symmetry_Int_Tables_number   1
_chemical_formula_structural   LiFeBO3
_chemical_formula_sum   'Li4 Fe4 B4 O12'
_cell_volume   274.52595054
_cell_formula_units_Z   4
loop_
 _symmetry_equiv_pos_site_id
 _symmetry_equiv_pos_as_xyz
  1  'x, y, z'
loop_
 _atom_site_type_symbol
 _atom_site_label
 _atom_site_symmetry_multiplicity
 _atom_site_fract_x
 _atom_site_fract_y
 _atom_site_fract_z
 _atom_site_occupancy
  Li  Li0  1  0.10383800  0.27573600  0.75422400  1
  Li  Li1  1  0.39624900  0.77445300  0.74554100  1
  Li  Li2  1  0.60373800  0.22552200  0.25444500  1
  Li  Li3  1  0.89615800  0.72427500  0.24580100  1
  Fe  Fe0  1  0.26857300  0.51189600  0.41006000  1
  Fe  Fe1  1  0.73144800  0.48808500  0.58995100  1
  Fe  Fe2  1  0.23167200  0.01101700  0.08947300  1
  Fe  Fe3  1  0.76830600  0.98899900  0.91051500  1
  B  B0  1  0.06651100  0.32801200  0.17558000  1
  B  B1  1  0.43388700  0.82806500  0.32425800  1
  B  B2  1  0.56610000  0.17193300  0.67573000  1
  B  B3  1  0.93349900  0.67199100  0.82443000  1
  O  O0  1  0.96839700  0.19989800  0.06532800  1
  O  O1  1  0.53327100  0.70066300  0.43419800  1
  O  O2  1  0.46673000  0.29932800  0.56577600  1
  O  O3  1  0.03157100  0.80012400  0.93468900  1
  O  O4  1  0.07027400  0.53714700  0.71122900  1
  O  O5  1  0.56837800  0.96436000  0.21148000  1
  O  O6  1  0.43161700  0.03563100  0.78849700  1
  O  O7  1  0.92978600  0.46286700  0.28880500  1
  O  O8  1  0.30690600  0.31608200  0.18167500  1
  O  O9  1  0.19375600  0.81403600  0.31740000  1
  O  O10  1  0.80622700  0.18598600  0.68261100  1
  O  O11  1  0.69310900  0.68389500  0.81830700  1
loop_
_geom_bond_atom_site_label_1
_geom_bond_atom_site_label_2
_geom_bond_distance
_geom_bond_site_symmetry_2
Li0 O4 1.971488 1_555
Li0 O10 1.979723 1_455
Li0 O0 2.120382 1_456
Li0 O2 2.174381 1_555
Li1 O6 1.971079 1_565
Li1 O11 1.981506 1_555
Li1 O1 2.119475 1_555
Li1 O3 2.185892 1_555
Li1 O4 2.605389 1_555
Li2 O5 1.970967 1_545
Li2 O8 1.981378 1_555
Li2 O2 2.119422 1_555
Li2 O0 2.185697 1_555
Li2 O7 2.605969 1_555
Li3 O7 1.971523 1_555
Li3 O9 1.979642 1_655
Li3 O3 2.120429 1_654
Li3 O1 2.174246 1_555
Fe0 O8 2.078378 1_555
Fe0 O4 2.080415 1_555
Fe0 O1 2.090039 1_555
Fe0 O7 2.286578 1_455
Fe0 O2 2.315695 1_555
Fe0 O9 2.384031 1_555
Fe1 O11 2.078218 1_555
Fe1 O7 2.080336 1_555
Fe1 O2 2.090133 1_555
Fe1 O4 2.286907 1_655
Fe1 O1 2.315950 1_555
Fe1 O10 2.383695 1_555
Fe2 O6 2.081881 1_554
Fe2 O9 2.081962 1_545
Fe2 O0 2.085236 1_455
Fe2 O5 2.275760 1_545
Fe2 O3 2.310112 1_544
Fe2 O8 2.403921 1_555
Fe3 O5 2.081803 1_556
Fe3 O10 2.081883 1_565
Fe3 O3 2.085210 1_655
Fe3 O6 2.275682 1_565
Fe3 O0 2.310216 1_566
Fe3 O11 2.404154 1_555
B0 O7 1.382338 1_455
B0 O8 1.384610 1_555
B0 O0 1.392376 1_455
B1 O5 1.382714 1_555
B1 O9 1.385417 1_555
B1 O1 1.391399 1_555
B2 O6 1.382701 1_555
B2 O10 1.385447 1_555
B2 O2 1.391379 1_555
B3 O4 1.382338 1_655
B3 O11 1.384617 1_555
B3 O3 1.392376 1_655
