# generated using pymatgen
data_Li2CrWO6
_symmetry_space_group_name_H-M   'P 1'
_cell_length_a   5.10253410
_cell_length_b   7.39761302
_cell_length_c   5.36627114
_cell_angle_alpha   86.00861010
_cell_angle_beta   89.98776530
_cell_angle_gamma   89.98200150
_symmetry_Int_Tables_number   1
_chemical_formula_structural   Li2CrWO6
_chemical_formula_sum   'Li4 Cr2 W2 O12'
_cell_volume   202.06702895
_cell_formula_units_Z   2
loop_
 _symmetry_equiv_pos_site_id
 _symmetry_equiv_pos_as_xyz
  1  'x, y, z'
loop_
 _atom_site_type_symbol
 _atom_site_label
 _atom_site_symmetry_multiplicity
 _atom_site_fract_x
 _atom_site_fract_y
 _atom_site_fract_z
 _atom_site_occupancy
  Li  Li0  1  0.50025200  0.78455100  0.07150200  1
  Li  Li1  1  0.99839800  0.28441600  0.56688900  1
  Li  Li2  1  0.49973000  0.28135800  0.06524700  1
  Li  Li3  1  0.00089800  0.78139800  0.56129600  1
  Cr  Cr0  1  0.49665400  0.50035200  0.50610900  1
  Cr  Cr1  1  0.00389300  0.00357600  0.00368100  1
  W  W0  1  0.50282200  0.99986800  0.50470400  1
  W  W1  1  0.99641300  0.50267600  0.00230500  1
  O  O0  1  0.38274900  0.74664900  0.48688900  1
  O  O1  1  0.88480400  0.24653400  0.98606100  1
  O  O2  1  0.80215800  0.93504900  0.29935600  1
  O  O3  1  0.30922800  0.43567600  0.79799800  1
  O  O4  1  0.30948600  0.05194600  0.18032300  1
  O  O5  1  0.81377700  0.55165000  0.68211500  1
  O  O6  1  0.69698200  0.93463900  0.80087500  1
  O  O7  1  0.19480800  0.43339100  0.29628500  1
  O  O8  1  0.18821600  0.05205900  0.67995500  1
  O  O9  1  0.68515700  0.55059100  0.18194900  1
  O  O10  1  0.61622600  0.24747400  0.48396300  1
  O  O11  1  0.11735100  0.74734300  0.98489000  1
loop_
_geom_bond_atom_site_label_1
_geom_bond_atom_site_label_2
_geom_bond_distance
_geom_bond_site_symmetry_2
Li0 O9 2.023198 1_555
Li0 O6 2.031026 1_554
Li0 O11 2.031630 1_554
Li0 O2 2.301965 1_555
Li0 O0 2.306385 1_555
Li0 O4 2.315314 1_565
Li1 O10 2.023123 1_555
Li1 O7 2.026054 1_655
Li1 O8 2.028502 1_655
Li1 O5 2.312278 1_555
Li1 O1 2.320784 1_555
Li1 O3 2.345371 1_655
Li2 O4 2.014618 1_555
Li2 O3 2.019107 1_554
Li2 O1 2.030307 1_554
Li2 O10 2.320990 1_555
Li2 O7 2.327012 1_555
Li2 O9 2.330078 1_555
Li3 O0 2.008842 1_555
Li3 O5 2.016911 1_455
Li3 O2 2.018320 1_455
Li3 O11 2.346142 1_555
Li3 O8 2.346688 1_565
Li3 O6 2.354509 1_455
Cr0 O3 1.868770 1_555
Cr0 O0 1.908234 1_555
Cr0 O5 1.924932 1_555
Cr0 O10 1.978905 1_555
Cr0 O7 1.991032 1_555
Cr0 O9 1.999685 1_555
Cr1 O4 1.872480 1_555
Cr1 O1 1.893195 1_454
Cr1 O2 1.929184 1_445
Cr1 O8 1.985912 1_554
Cr1 O11 1.991026 1_544
Cr1 O6 1.993845 1_444
O0 W0 1.979679 1_555
O1 W1 1.986461 1_556
O2 W0 1.962007 1_555
O3 W1 2.017369 1_456
O4 W0 2.014656 1_545
O5 W1 1.966168 1_556
O6 W0 1.906288 1_555
O7 W1 1.914165 1_455
O8 W0 1.913103 1_545
O9 W1 1.903653 1_555
O10 W0 1.916919 1_545
O11 W1 1.908557 1_456
