# generated using pymatgen
data_K3P4H5O14
_symmetry_space_group_name_H-M   'P 1'
_cell_length_a   9.83100899
_cell_length_b   9.83100899
_cell_length_c   11.11375931
_cell_angle_alpha   55.78784190
_cell_angle_beta   55.78784190
_cell_angle_gamma   54.76759705
_symmetry_Int_Tables_number   1
_chemical_formula_structural   K3P4H5O14
_chemical_formula_sum   'K6 P8 H10 O28'
_cell_volume   679.06467221
_cell_formula_units_Z   2
loop_
 _symmetry_equiv_pos_site_id
 _symmetry_equiv_pos_as_xyz
  1  'x, y, z'
loop_
 _atom_site_type_symbol
 _atom_site_label
 _atom_site_symmetry_multiplicity
 _atom_site_fract_x
 _atom_site_fract_y
 _atom_site_fract_z
 _atom_site_occupancy
  K  K0  1  0.43881000  0.56119000  0.75000000  1
  K  K1  1  0.56119000  0.43881000  0.25000000  1
  K  K2  1  0.20821800  0.09537500  0.61574300  1
  K  K3  1  0.90462500  0.79178200  0.88425700  1
  K  K4  1  0.79178200  0.90462500  0.38425700  1
  K  K5  1  0.09537500  0.20821800  0.11574300  1
  P  P0  1  0.87350100  0.48502500  0.80709100  1
  P  P1  1  0.51497500  0.12649900  0.69290900  1
  P  P2  1  0.12649900  0.51497500  0.19290900  1
  P  P3  1  0.48502500  0.87350100  0.30709100  1
  P  P4  1  0.72922700  0.20750100  0.98394900  1
  P  P5  1  0.79249900  0.27077300  0.51605100  1
  P  P6  1  0.27077300  0.79249900  0.01605100  1
  P  P7  1  0.20750100  0.72922700  0.48394900  1
  H  H0  1  0.00000000  0.00000000  0.00000000  1
  H  H1  1  0.00000000  0.00000000  0.50000000  1
  H  H2  1  0.50700700  0.14974600  0.05172300  1
  H  H3  1  0.85025400  0.49299300  0.44827700  1
  H  H4  1  0.49299300  0.85025400  0.94827700  1
  H  H5  1  0.14974600  0.50700700  0.55172300  1
  H  H6  1  0.72675500  0.77687400  0.73081300  1
  H  H7  1  0.22312600  0.27324500  0.76918700  1
  H  H8  1  0.27324500  0.22312600  0.26918700  1
  H  H9  1  0.77687400  0.72675500  0.23081300  1
  O  O0  1  0.85911100  0.49298300  0.94501000  1
  O  O1  1  0.50701700  0.14088900  0.55499000  1
  O  O2  1  0.14088900  0.50701700  0.05499000  1
  O  O3  1  0.49298300  0.85911100  0.44501000  1
  O  O4  1  0.80072300  0.67684100  0.68773400  1
  O  O5  1  0.32315900  0.19927700  0.81226600  1
  O  O6  1  0.19927700  0.32315900  0.31226600  1
  O  O7  1  0.67684100  0.80072300  0.18773400  1
  O  O8  1  0.05621700  0.38100500  0.71197000  1
  O  O9  1  0.61899500  0.94378300  0.78803000  1
  O  O10  1  0.94378300  0.61899500  0.28803000  1
  O  O11  1  0.38100500  0.05621700  0.21197000  1
  O  O12  1  0.73385000  0.40331700  0.86108600  1
  O  O13  1  0.59668300  0.26615000  0.63891400  1
  O  O14  1  0.26615000  0.59668300  0.13891400  1
  O  O15  1  0.40331700  0.73385000  0.36108600  1
  O  O16  1  0.91102900  0.06787600  0.92272600  1
  O  O17  1  0.93212400  0.08897100  0.57727400  1
  O  O18  1  0.08897100  0.93212400  0.07727400  1
  O  O19  1  0.06787600  0.91102900  0.42272600  1
  O  O20  1  0.67702300  0.18694200  0.14676800  1
  O  O21  1  0.81305800  0.32297700  0.35323200  1
  O  O22  1  0.32297700  0.81305800  0.85323200  1
  O  O23  1  0.18694200  0.67702300  0.64676800  1
  O  O24  1  0.58558100  0.21577100  0.95316200  1
  O  O25  1  0.78422900  0.41441900  0.54683800  1
  O  O26  1  0.41441900  0.78422900  0.04683800  1
  O  O27  1  0.21577100  0.58558100  0.45316200  1
loop_
_geom_bond_atom_site_label_1
_geom_bond_atom_site_label_2
_geom_bond_distance
_geom_bond_site_symmetry_2
K0 O23 2.686313 1_555
K0 O22 2.686313 1_555
K0 O24 2.846002 1_555
K0 O25 2.846002 1_555
K0 O3 2.992842 1_555
K0 O2 2.992842 1_556
K0 O13 3.004032 1_555
K0 O12 3.004032 1_555
K1 O20 2.686313 1_555
K1 O21 2.686313 1_555
K1 O27 2.846002 1_555
K1 O26 2.846002 1_555
K1 O0 2.992842 1_554
K1 O1 2.992842 1_555
K1 O14 3.004032 1_555
K1 O15 3.004032 1_555
K2 O22 2.727718 1_545
K2 O8 2.828464 1_555
K2 O6 2.830369 1_555
K2 O1 2.869044 1_555
K2 O3 2.883208 1_545
K2 O16 2.985659 1_455
K2 O17 3.014376 1_455
K3 O23 2.727718 1_655
K3 O9 2.828464 1_555
K3 O7 2.830369 1_556
K3 O0 2.869044 1_555
K3 O2 2.883208 1_656
K3 O17 2.985659 1_565
K3 O16 3.014376 1_565
K4 O20 2.727718 1_565
K4 O10 2.828464 1_555
K4 O4 2.830369 1_555
K4 O3 2.869044 1_555
K4 O1 2.883208 1_565
K4 O18 2.985659 1_655
K4 O19 3.014376 1_655
K5 O21 2.727718 1_455
K5 O11 2.828464 1_555
K5 O5 2.830369 1_554
K5 O2 2.869044 1_555
K5 O0 2.883208 1_454
K5 O19 2.985659 1_545
K5 O18 3.014376 1_545
H0 O18 1.214387 1_545
H0 O16 1.214387 1_454
H1 O17 1.214387 1_455
H1 O19 1.214387 1_545
H2 O24 1.022425 1_554
H2 O11 1.594853 1_555
H3 O25 1.022425 1_555
H3 O10 1.594853 1_555
H4 O26 1.022425 1_556
H4 O9 1.594853 1_555
H5 O27 1.022425 1_555
H5 O8 1.594853 1_555
H6 O4 1.018818 1_555
H6 O9 1.621515 1_555
H7 O5 1.018818 1_555
H7 O8 1.621515 1_555
H8 O6 1.018818 1_555
H8 O11 1.621515 1_555
H9 O7 1.018818 1_555
H9 O10 1.621515 1_555
O0 P0 1.501281 1_555
O1 P1 1.501281 1_555
O2 P2 1.501281 1_555
O3 P3 1.501281 1_555
O4 P0 1.589087 1_555
O5 P1 1.589087 1_555
O6 P2 1.589087 1_555
O7 P3 1.589087 1_555
O8 P0 1.533240 1_455
O9 P1 1.533240 1_565
O10 P2 1.533240 1_655
O11 P3 1.533240 1_545
O12 P4 1.627173 1_555
O12 P0 1.641386 1_555
O13 P5 1.627173 1_555
O13 P1 1.641386 1_555
O14 P6 1.627173 1_555
O14 P2 1.641386 1_555
O15 P7 1.627173 1_555
O15 P3 1.641386 1_555
O16 P4 1.547153 1_555
O17 P5 1.547153 1_555
O18 P6 1.547153 1_555
O19 P7 1.547153 1_555
O20 P4 1.497575 1_554
O21 P5 1.497575 1_555
O22 P6 1.497575 1_556
O23 P7 1.497575 1_555
O24 P4 1.580365 1_555
O25 P5 1.580365 1_555
O26 P6 1.580365 1_555
O27 P7 1.580365 1_555
