# generated using pymatgen
data_Fe17O18
_symmetry_space_group_name_H-M   'P 1'
_cell_length_a   6.83429500
_cell_length_b   8.18172266
_cell_length_c   8.23081712
_cell_angle_alpha   110.93372631
_cell_angle_beta   94.52320744
_cell_angle_gamma   114.24202207
_symmetry_Int_Tables_number   1
_chemical_formula_structural   Fe17O18
_chemical_formula_sum   'Fe17 O18'
_cell_volume   377.95567218
_cell_formula_units_Z   1
loop_
 _symmetry_equiv_pos_site_id
 _symmetry_equiv_pos_as_xyz
  1  'x, y, z'
loop_
 _atom_site_type_symbol
 _atom_site_label
 _atom_site_symmetry_multiplicity
 _atom_site_fract_x
 _atom_site_fract_y
 _atom_site_fract_z
 _atom_site_occupancy
  Fe  Fe0  1  0.67089300  0.22589200  0.55530600  1
  Fe  Fe1  1  0.84284800  0.27144400  0.94695400  1
  Fe  Fe2  1  0.32563100  0.10526100  0.78203400  1
  Fe  Fe3  1  0.67526300  0.56256600  0.89373900  1
  Fe  Fe4  1  0.48274600  0.16103100  0.16386800  1
  Fe  Fe5  1  0.83246500  0.60726000  0.28273700  1
  Fe  Fe6  1  0.32473700  0.43743400  0.10626100  1
  Fe  Fe7  1  0.16721800  0.05352300  0.38354100  1
  Fe  Fe8  1  0.67436900  0.89473900  0.21796600  1
  Fe  Fe9  1  0.50000000  0.50000000  0.50000000  1
  Fe  Fe10  1  0.99786000  0.32395800  0.32666000  1
  Fe  Fe11  1  0.83278200  0.94647700  0.61645900  1
  Fe  Fe12  1  0.32910700  0.77410800  0.44469400  1
  Fe  Fe13  1  0.16753500  0.39274000  0.71726300  1
  Fe  Fe14  1  0.51725400  0.83896900  0.83613200  1
  Fe  Fe15  1  0.00214000  0.67604200  0.67334000  1
  Fe  Fe16  1  0.15715200  0.72855600  0.05304600  1
  O  O0  1  0.90296800  0.12194600  0.45606700  1
  O  O1  1  0.57758600  0.03832500  0.69410400  1
  O  O2  1  0.92524900  0.47346900  0.80550700  1
  O  O3  1  0.72704800  0.07920900  0.09777000  1
  O  O4  1  0.57722400  0.35041800  0.00673600  1
  O  O5  1  0.75476700  0.41109100  0.41900500  1
  O  O6  1  0.27382600  0.27583500  0.26473700  1
  O  O7  1  0.91231900  0.80609600  0.15280000  1
  O  O8  1  0.60033700  0.70946700  0.35879600  1
  O  O9  1  0.39966300  0.29053300  0.64120400  1
  O  O10  1  0.24523300  0.58890900  0.58099500  1
  O  O11  1  0.08768100  0.19390400  0.84720000  1
  O  O12  1  0.72617400  0.72416500  0.73526300  1
  O  O13  1  0.42277600  0.64958200  0.99326400  1
  O  O14  1  0.27295200  0.92079100  0.90223000  1
  O  O15  1  0.07475100  0.52653100  0.19449300  1
  O  O16  1  0.42241400  0.96167500  0.30589600  1
  O  O17  1  0.09703200  0.87805400  0.54393300  1
loop_
_geom_bond_atom_site_label_1
_geom_bond_atom_site_label_2
_geom_bond_distance
_geom_bond_site_symmetry_2
Fe0 O5 2.118025 1_555
Fe0 O1 2.151953 1_555
Fe0 O0 2.172950 1_555
Fe0 O2 2.220106 1_555
Fe0 O9 2.227155 1_555
Fe0 O16 2.244017 1_545
Fe1 O11 2.143037 1_655
Fe1 O15 2.180530 1_656
Fe1 O4 2.198193 1_556
Fe1 O1 2.232631 1_555
Fe1 O2 2.262476 1_555
Fe1 O3 2.273526 1_556
Fe2 O14 2.015743 1_545
Fe2 O17 2.065446 1_545
Fe2 O11 2.070363 1_555
Fe2 O4 2.101369 1_556
Fe2 O1 2.115775 1_555
Fe2 O9 2.148409 1_555
Fe3 O12 2.120558 1_555
Fe3 O4 2.150244 1_556
Fe3 O2 2.194952 1_555
Fe3 O7 2.215808 1_556
Fe3 O13 2.229469 1_555
Fe3 O9 2.335810 1_555
Fe4 O3 2.081510 1_555
Fe4 O6 2.083575 1_555
Fe4 O14 2.175042 1_544
Fe4 O16 2.254608 1_545
Fe4 O4 2.287517 1_555
Fe4 O5 2.289678 1_555
Fe5 O15 2.109661 1_655
Fe5 O8 2.116581 1_555
Fe5 O7 2.166666 1_555
Fe5 O5 2.190068 1_555
Fe5 O17 2.343823 1_655
Fe5 O4 2.360729 1_555
Fe6 O6 2.120558 1_555
Fe6 O13 2.150244 1_554
Fe6 O15 2.194952 1_555
Fe6 O11 2.215808 1_554
Fe6 O4 2.229469 1_555
Fe6 O8 2.335810 1_555
Fe7 O7 2.138846 1_445
Fe7 O0 2.166266 1_455
Fe7 O9 2.186750 1_555
Fe7 O17 2.218705 1_545
Fe7 O16 2.218979 1_545
Fe7 O6 2.256212 1_555
Fe8 O3 2.015743 1_565
Fe8 O0 2.065446 1_565
Fe8 O7 2.070363 1_555
Fe8 O13 2.101369 1_554
Fe8 O16 2.115775 1_555
Fe8 O8 2.148409 1_555
Fe9 O12 2.040786 1_555
Fe9 O6 2.040786 1_555
Fe9 O5 2.209486 1_555
Fe9 O10 2.209486 1_555
Fe9 O8 2.311289 1_555
Fe9 O9 2.311289 1_555
Fe10 O6 2.142413 1_655
Fe10 O5 2.151896 1_555
Fe10 O3 2.166898 1_555
Fe10 O0 2.184846 1_555
Fe10 O15 2.206769 1_655
Fe10 O10 2.264771 1_655
Fe11 O11 2.138846 1_665
Fe11 O17 2.166266 1_655
Fe11 O8 2.186750 1_555
Fe11 O0 2.218705 1_565
Fe11 O1 2.218979 1_565
Fe11 O12 2.256212 1_555
Fe12 O10 2.118025 1_555
Fe12 O16 2.151953 1_555
Fe12 O17 2.172950 1_555
Fe12 O15 2.220106 1_555
Fe12 O8 2.227155 1_555
Fe12 O1 2.244017 1_565
Fe13 O2 2.109661 1_455
Fe13 O9 2.116581 1_555
Fe13 O11 2.166666 1_555
Fe13 O10 2.190068 1_555
Fe13 O0 2.343823 1_455
Fe13 O13 2.360729 1_555
Fe14 O14 2.081510 1_555
Fe14 O12 2.083575 1_555
Fe14 O3 2.175042 1_566
Fe14 O1 2.254608 1_565
Fe14 O13 2.287517 1_555
Fe14 O10 2.289678 1_555
Fe15 O12 2.142413 1_455
Fe15 O10 2.151896 1_555
Fe15 O14 2.166898 1_555
Fe15 O17 2.184846 1_555
Fe15 O2 2.206769 1_455
Fe15 O5 2.264771 1_455
Fe16 O7 2.143037 1_455
Fe16 O2 2.180530 1_454
Fe16 O13 2.198193 1_554
Fe16 O16 2.232631 1_555
Fe16 O15 2.262476 1_555
Fe16 O14 2.273526 1_554
