# generated using pymatgen
data_La15Mn16O48
_symmetry_space_group_name_H-M   'P 1'
_cell_length_a   5.53128800
_cell_length_b   12.41476764
_cell_length_c   14.77965064
_cell_angle_alpha   85.46255682
_cell_angle_beta   79.45507139
_cell_angle_gamma   77.99131987
_symmetry_Int_Tables_number   1
_chemical_formula_structural   La15Mn16O48
_chemical_formula_sum   'La15 Mn16 O48'
_cell_volume   975.04918461
_cell_formula_units_Z   1
loop_
 _symmetry_equiv_pos_site_id
 _symmetry_equiv_pos_as_xyz
  1  'x, y, z'
loop_
 _atom_site_type_symbol
 _atom_site_label
 _atom_site_symmetry_multiplicity
 _atom_site_fract_x
 _atom_site_fract_y
 _atom_site_fract_z
 _atom_site_occupancy
  La  La0  1  0.97203100  0.21466800  0.84644600  1
  La  La1  1  0.77993100  0.54204400  0.90844400  1
  La  La2  1  0.90511300  0.65684900  0.53215800  1
  La  La3  1  0.71784000  0.96822600  0.59624000  1
  La  La4  1  0.84215000  0.09308200  0.21669700  1
  La  La5  1  0.53099500  0.28132300  0.65847400  1
  La  La6  1  0.65725100  0.40691100  0.27957100  1
  La  La7  1  0.47085900  0.72072400  0.33741100  1
  La  La8  1  0.33687800  0.59758500  0.72349400  1
  La  La9  1  0.15173900  0.90254100  0.79360500  1
  La  La10  1  0.28118100  0.03071800  0.40476900  1
  La  La11  1  0.40824600  0.14478400  0.02817900  1
  La  La12  1  0.22285100  0.46846600  0.09159100  1
  La  La13  1  0.09350400  0.34397600  0.46893100  1
  La  La14  1  0.03554500  0.78458300  0.14437100  1
  Mn  Mn0  1  0.93606300  0.43752200  0.68797200  1
  Mn  Mn1  1  0.87519900  0.87537700  0.37453800  1
  Mn  Mn2  1  0.74984100  0.75065600  0.75229800  1
  Mn  Mn3  1  0.81309700  0.31235100  0.06211500  1
  Mn  Mn4  1  0.56120100  0.06070200  0.81425400  1
  Mn  Mn5  1  0.68692000  0.18758000  0.43769600  1
  Mn  Mn6  1  0.37646000  0.37501600  0.87546400  1
  Mn  Mn7  1  0.62185300  0.62785000  0.12377500  1
  Mn  Mn8  1  0.49924300  0.50076000  0.50007800  1
  Mn  Mn9  1  0.18749600  0.69082800  0.93804900  1
  Mn  Mn10  1  0.44202400  0.93544300  0.18535700  1
  Mn  Mn11  1  0.31181700  0.81312700  0.56275300  1
  Mn  Mn12  1  0.12599800  0.12356300  0.62557800  1
  Mn  Mn13  1  0.24969300  0.24996000  0.24922600  1
  Mn  Mn14  1  0.06271700  0.56245300  0.31186600  1
  Mn  Mn15  1  0.00034000  0.99662300  0.99902800  1
  O  O0  1  0.95165000  0.72265100  0.84959300  1
  O  O1  1  0.96021800  0.71106700  0.36885000  1
  O  O2  1  0.83453300  0.58541000  0.74104700  1
  O  O3  1  0.66468400  0.91466100  0.75612400  1
  O  O4  1  0.83036300  0.02996800  0.88835600  1
  O  O5  1  0.95711900  0.13941500  0.51470900  1
  O  O6  1  0.69672800  0.38044000  0.78802800  1
  O  O7  1  0.94602600  0.63036800  0.03919400  1
  O  O8  1  0.82249800  0.50591000  0.41442200  1
  O  O9  1  0.58011800  0.76636000  0.63827300  1
  O  O10  1  0.70605200  0.89130600  0.26512900  1
  O  O11  1  0.92858700  0.24486800  0.33598600  1
  O  O12  1  0.80347400  0.11806900  0.70887100  1
  O  O13  1  0.66891000  0.48562700  0.60989000  1
  O  O14  1  0.54621100  0.35850700  0.98466800  1
  O  O15  1  0.79452100  0.60523200  0.23459300  1
  O  O16  1  0.43010400  0.73187100  0.82825300  1
  O  O17  1  0.68768700  0.99961800  0.09613200  1
  O  O18  1  0.55329700  0.86868200  0.46031700  1
  O  O19  1  0.78822300  0.03967300  0.38220700  1
  O  O20  1  0.90971600  0.16613700  0.01059700  1
  O  O21  1  0.46157900  0.21279300  0.86618300  1
  O  O22  1  0.71559300  0.45839200  0.11751900  1
  O  O23  1  0.58447600  0.33572400  0.49435100  1
  O  O24  1  0.41516800  0.66454200  0.50494600  1
  O  O25  1  0.29213900  0.53693700  0.88495500  1
  O  O26  1  0.53371100  0.78421500  0.14810200  1
  O  O27  1  0.08752600  0.83695600  0.98742500  1
  O  O28  1  0.20906500  0.96026100  0.62157200  1
  O  O29  1  0.44475700  0.13093400  0.54008700  1
  O  O30  1  0.57256500  0.25921500  0.16624400  1
  O  O31  1  0.29530400  0.02423300  0.91028400  1
  O  O32  1  0.20664300  0.39124000  0.76470000  1
  O  O33  1  0.33062800  0.51403900  0.38935900  1
  O  O34  1  0.43950800  0.62789200  0.02204100  1
  O  O35  1  0.06685700  0.75676100  0.66167600  1
  O  O36  1  0.19713200  0.88616400  0.29085600  1
  O  O37  1  0.41831500  0.23502800  0.36033300  1
  O  O38  1  0.30041000  0.11213000  0.73283700  1
  O  O39  1  0.05054800  0.36999100  0.96024800  1
  O  O40  1  0.17592800  0.49255700  0.58393900  1
  O  O41  1  0.30208600  0.61652000  0.21062600  1
  O  O42  1  0.04624000  0.86104700  0.48574900  1
  O  O43  1  0.17139100  0.98601400  0.11031000  1
  O  O44  1  0.33265800  0.08673200  0.24394600  1
  O  O45  1  0.16552900  0.41244700  0.25680300  1
  O  O46  1  0.03986100  0.28885000  0.63113800  1
  O  O47  1  0.08303400  0.26234200  0.13919000  1
loop_
_geom_bond_atom_site_label_1
_geom_bond_atom_site_label_2
_geom_bond_distance
_geom_bond_site_symmetry_2
La0 O20 2.432451 1_556
La0 O38 2.449243 1_655
La0 O6 2.489129 1_555
La0 O4 2.569223 1_555
La0 O21 2.771243 1_655
La0 O21 2.789689 1_555
La0 O39 2.804448 1_655
La0 O12 2.826086 1_555
La0 O32 2.853047 1_655
La0 O31 2.860499 1_655
La0 O14 3.158421 1_555
La0 O46 3.218427 1_655
La1 O34 2.406493 1_556
La1 O2 2.466882 1_555
La1 O39 2.493903 1_655
La1 O0 2.638448 1_555
La1 O7 2.680485 1_556
La1 O25 2.778512 1_655
La1 O25 2.796763 1_555
La1 O14 2.901523 1_555
La1 O6 2.941639 1_555
La1 O16 3.033585 1_555
La1 O22 3.161829 1_556
La1 O32 3.247250 1_655
La2 O9 2.414139 1_555
La2 O40 2.427132 1_655
La2 O1 2.435295 1_555
La2 O35 2.732675 1_655
La2 O13 2.786616 1_555
La2 O24 2.792896 1_555
La2 O24 2.796629 1_655
La2 O42 2.803352 1_655
La2 O8 2.812727 1_555
La3 O3 2.385584 1_555
La3 O29 2.444307 1_565
La3 O42 2.447274 1_655
La3 O12 2.757031 1_565
La3 O9 2.760751 1_555
La3 O28 2.790573 1_655
La3 O28 2.791750 1_555
La3 O5 2.811061 1_565
La3 O18 2.814478 1_555
La4 O43 2.414744 1_645
La4 O30 2.432560 1_555
La4 O19 2.463945 1_555
La4 O17 2.558990 1_545
La4 O10 2.767289 1_545
La4 O47 2.780041 1_655
La4 O44 2.789691 1_555
La4 O44 2.799186 1_655
La4 O11 2.845510 1_555
La5 O32 2.415572 1_555
La5 O12 2.415579 1_555
La5 O23 2.447215 1_555
La5 O38 2.735542 1_555
La5 O6 2.739617 1_555
La5 O46 2.789563 1_655
La5 O46 2.800358 1_555
La5 O13 2.801301 1_555
La5 O29 2.822740 1_555
La6 O22 2.410337 1_555
La6 O11 2.435368 1_555
La6 O33 2.436050 1_555
La6 O15 2.722976 1_555
La6 O30 2.741797 1_555
La6 O45 2.784346 1_655
La6 O45 2.787314 1_555
La6 O8 2.800012 1_555
La6 O37 2.813906 1_555
La7 O36 2.418265 1_555
La7 O15 2.418872 1_555
La7 O24 2.499893 1_555
La7 O41 2.753666 1_555
La7 O10 2.756492 1_555
La7 O1 2.803538 1_455
La7 O1 2.805969 1_555
La7 O26 2.824817 1_555
La7 O18 2.839249 1_555
La7 O33 2.841430 1_555
La8 O25 2.428962 1_555
La8 O35 2.440535 1_555
La8 O13 2.510454 1_555
La8 O16 2.549670 1_555
La8 O2 2.777692 1_455
La8 O2 2.783774 1_555
La8 O32 2.795128 1_555
La8 O9 2.814635 1_555
La8 O0 2.837626 1_455
La8 O40 2.885752 1_555
La9 O16 2.425234 1_555
La9 O4 2.427522 1_465
La9 O28 2.567094 1_555
La9 O0 2.701508 1_455
La9 O31 2.701761 1_565
La9 O3 2.819881 1_455
La9 O3 2.822883 1_555
La9 O27 2.893770 1_555
La9 O38 2.916091 1_565
La9 O35 2.923164 1_555
La10 O44 2.405723 1_555
La10 O18 2.432534 1_545
La10 O5 2.438970 1_455
La10 O36 2.717154 1_545
La10 O42 2.780138 1_545
La10 O19 2.785533 1_455
La10 O19 2.787631 1_555
La10 O37 2.791957 1_555
La10 O29 2.809059 1_555
La11 O17 2.401737 1_545
La11 O21 2.461216 1_554
La11 O47 2.502783 1_555
La11 O31 2.620365 1_554
La11 O43 2.681232 1_545
La11 O20 2.772880 1_455
La11 O20 2.804084 1_555
La11 O14 2.903273 1_554
La11 O30 2.946682 1_555
La11 O4 3.011484 1_554
La11 O44 3.183934 1_555
La11 O39 3.274242 1_554
La12 O14 2.418821 1_554
La12 O7 2.427207 1_455
La12 O45 2.467017 1_555
La12 O34 2.573785 1_555
La12 O39 2.776453 1_554
La12 O22 2.789238 1_455
La12 O41 2.791902 1_555
La12 O22 2.797084 1_555
La12 O47 2.825056 1_555
La13 O46 2.422459 1_555
La13 O8 2.422688 1_455
La13 O37 2.431107 1_555
La13 O40 2.762122 1_555
La13 O11 2.777112 1_455
La13 O33 2.784926 1_555
La13 O23 2.788959 1_555
La13 O23 2.793905 1_455
La13 O5 2.795505 1_455
La14 O27 2.341166 1_554
La14 O41 2.531982 1_555
La14 O10 2.537951 1_455
La14 O7 2.733889 1_455
La14 O43 2.741514 1_555
Mn0 O2 1.984735 1_555
Mn0 O6 1.987358 1_555
Mn0 O32 2.004090 1_655
Mn0 O13 2.004975 1_555
Mn0 O40 2.013848 1_655
Mn0 O46 2.017362 1_655
Mn1 O10 1.988815 1_555
Mn1 O36 1.996353 1_655
Mn1 O1 2.000694 1_555
Mn1 O18 2.000794 1_555
Mn1 O19 2.003235 1_565
Mn1 O42 2.020195 1_655
Mn2 O0 1.944645 1_555
Mn2 O16 1.961103 1_555
Mn2 O3 1.995016 1_555
Mn2 O35 2.013467 1_655
Mn2 O2 2.020216 1_555
Mn2 O9 2.051906 1_555
Mn3 O20 1.956127 1_555
Mn3 O22 1.978625 1_555
Mn3 O14 1.995114 1_554
Mn3 O39 2.000173 1_654
Mn3 O30 2.007214 1_555
Mn3 O47 2.009313 1_655
Mn4 O31 1.947788 1_555
Mn4 O4 1.963649 1_555
Mn4 O3 1.996894 1_545
Mn4 O38 2.016671 1_555
Mn4 O21 2.024705 1_555
Mn4 O12 2.046122 1_555
Mn5 O19 2.000055 1_555
Mn5 O37 2.003191 1_555
Mn5 O5 2.007451 1_555
Mn5 O23 2.010254 1_555
Mn5 O11 2.010815 1_555
Mn5 O29 2.015070 1_555
Mn6 O25 1.977040 1_555
Mn6 O21 1.980411 1_555
Mn6 O14 1.987677 1_555
Mn6 O6 2.002666 1_555
Mn6 O39 2.007859 1_555
Mn6 O32 2.008663 1_555
Mn7 O26 1.946229 1_555
Mn7 O34 1.957753 1_555
Mn7 O7 1.993885 1_555
Mn7 O41 2.009934 1_555
Mn7 O15 2.015380 1_555
Mn7 O22 2.064609 1_555
Mn8 O24 1.993299 1_555
Mn8 O13 1.996493 1_555
Mn8 O40 1.997321 1_555
Mn8 O8 2.002506 1_555
Mn8 O33 2.006673 1_555
Mn8 O23 2.009537 1_555
Mn9 O27 1.942621 1_555
Mn9 O0 1.973599 1_455
Mn9 O16 2.012559 1_555
Mn9 O7 2.022589 1_456
Mn9 O34 2.030090 1_556
Mn9 O25 2.052240 1_555
Mn10 O26 1.936590 1_555
Mn10 O17 1.961782 1_555
Mn10 O43 1.992921 1_555
Mn10 O10 2.004523 1_555
Mn10 O36 2.015247 1_555
Mn10 O44 2.058223 1_565
Mn11 O9 1.982552 1_555
Mn11 O42 1.987013 1_555
Mn11 O35 1.992670 1_555
Mn11 O18 2.007449 1_555
Mn11 O28 2.013391 1_555
Mn11 O24 2.022686 1_555
Mn12 O38 1.982682 1_555
Mn12 O12 1.983987 1_455
Mn12 O28 1.986506 1_545
Mn12 O29 1.986709 1_555
Mn12 O5 2.007250 1_455
Mn12 O46 2.012456 1_555
Mn13 O45 1.981010 1_555
Mn13 O44 1.986977 1_555
Mn13 O30 1.992037 1_555
Mn13 O47 1.992096 1_555
Mn13 O11 2.000796 1_455
Mn13 O37 2.010306 1_555
Mn14 O41 1.981982 1_555
Mn14 O15 1.995834 1_455
Mn14 O33 2.002669 1_555
Mn14 O8 2.009566 1_455
Mn14 O1 2.017576 1_455
Mn14 O45 2.020773 1_555
Mn15 O27 1.953698 1_555
Mn15 O31 1.969272 1_565
Mn15 O4 2.006143 1_465
Mn15 O43 2.025095 1_556
Mn15 O17 2.031028 1_456
Mn15 O20 2.072661 1_466
