# generated using pymatgen
data_Bi2(SO4)3
_symmetry_space_group_name_H-M   'P 1'
_cell_length_a   9.35889993
_cell_length_b   9.35889993
_cell_length_c   9.35890029
_cell_angle_alpha   60.14010474
_cell_angle_beta   60.14010474
_cell_angle_gamma   60.14010002
_symmetry_Int_Tables_number   1
_chemical_formula_structural   Bi2(SO4)3
_chemical_formula_sum   'Bi4 S6 O24'
_cell_volume   581.48103556
_cell_formula_units_Z   2
loop_
 _symmetry_equiv_pos_site_id
 _symmetry_equiv_pos_as_xyz
  1  'x, y, z'
loop_
 _atom_site_type_symbol
 _atom_site_label
 _atom_site_symmetry_multiplicity
 _atom_site_fract_x
 _atom_site_fract_y
 _atom_site_fract_z
 _atom_site_occupancy
  Bi  Bi0  1  0.36037931  0.36037931  0.36037931  1
  Bi  Bi1  1  0.13962069  0.13962069  0.13962069  1
  Bi  Bi2  1  0.63962069  0.63962069  0.63962069  1
  Bi  Bi3  1  0.86037931  0.86037931  0.86037931  1
  S  S0  1  0.75000000  0.04551632  0.45448368  1
  S  S1  1  0.95448368  0.54551632  0.25000000  1
  S  S2  1  0.54551632  0.25000000  0.95448368  1
  S  S3  1  0.45448368  0.75000000  0.04551632  1
  S  S4  1  0.04551632  0.45448368  0.75000000  1
  S  S5  1  0.25000000  0.95448368  0.54551632  1
  O  O0  1  0.89362013  0.05845676  0.28529846  1
  O  O1  1  0.71470154  0.10637987  0.94154324  1
  O  O2  1  0.90820730  0.49420458  0.68921529  1
  O  O3  1  0.00579542  0.59179270  0.81078471  1
  O  O4  1  0.60637987  0.21470154  0.44154324  1
  O  O5  1  0.78529846  0.55845676  0.39362013  1
  O  O6  1  0.94154324  0.71470154  0.10637987  1
  O  O7  1  0.18921529  0.99420458  0.40820730  1
  O  O8  1  0.50579542  0.31078471  0.09179270  1
  O  O9  1  0.31078471  0.09179270  0.50579542  1
  O  O10  1  0.40820730  0.18921529  0.99420458  1
  O  O11  1  0.55845676  0.39362013  0.78529846  1
  O  O12  1  0.44154324  0.60637987  0.21470154  1
  O  O13  1  0.68921529  0.90820730  0.49420458  1
  O  O14  1  0.59179270  0.81078471  0.00579542  1
  O  O15  1  0.81078471  0.00579542  0.59179270  1
  O  O16  1  0.49420458  0.68921529  0.90820730  1
  O  O17  1  0.05845676  0.28529846  0.89362013  1
  O  O18  1  0.21470154  0.44154324  0.60637987  1
  O  O19  1  0.39362013  0.78529846  0.55845676  1
  O  O20  1  0.09179270  0.50579542  0.31078471  1
  O  O21  1  0.99420458  0.40820730  0.18921529  1
  O  O22  1  0.28529846  0.89362013  0.05845676  1
  O  O23  1  0.10637987  0.94154324  0.71470154  1
loop_
_geom_bond_atom_site_label_1
_geom_bond_atom_site_label_2
_geom_bond_distance
_geom_bond_site_symmetry_2
Bi0 O4 2.306718 1_555
Bi0 O18 2.306718 1_555
Bi0 O12 2.306718 1_555
Bi0 O20 2.347865 1_555
Bi0 O9 2.347865 1_555
Bi0 O8 2.347865 1_555
Bi1 O22 2.306718 1_545
Bi1 O17 2.306718 1_554
Bi1 O0 2.306718 1_455
Bi1 O21 2.347865 1_455
Bi1 O10 2.347865 1_554
Bi1 O7 2.347865 1_545
Bi2 O19 2.306718 1_555
Bi2 O5 2.306718 1_555
Bi2 O11 2.306718 1_555
Bi2 O2 2.347865 1_555
Bi2 O13 2.347865 1_555
Bi2 O16 2.347865 1_555
Bi3 O1 2.306718 1_565
Bi3 O6 2.306718 1_556
Bi3 O23 2.306718 1_655
Bi3 O3 2.347865 1_655
Bi3 O14 2.347865 1_556
Bi3 O15 2.347865 1_565
O0 S0 1.476602 1_555
O1 S2 1.476602 1_555
O2 S4 1.467949 1_655
O3 S4 1.467949 1_555
O4 S0 1.476602 1_555
O5 S1 1.476602 1_555
O6 S1 1.476602 1_555
O7 S5 1.467949 1_555
O8 S2 1.467949 1_554
O9 S5 1.467949 1_545
O10 S2 1.467949 1_555
O11 S2 1.476602 1_555
O12 S3 1.476602 1_555
O13 S0 1.467949 1_565
O14 S3 1.467949 1_555
O15 S0 1.467949 1_555
O16 S3 1.467949 1_556
O17 S4 1.476602 1_555
O18 S4 1.476602 1_555
O19 S5 1.476602 1_555
O20 S1 1.467949 1_455
O21 S1 1.467949 1_555
O22 S3 1.476602 1_555
O23 S5 1.476602 1_555
