# generated using pymatgen
data_Li3H6Ir
_symmetry_space_group_name_H-M   'P 1'
_cell_length_a   4.73026666
_cell_length_b   8.44830820
_cell_length_c   8.48957194
_cell_angle_alpha   90.00000000
_cell_angle_beta   90.00000000
_cell_angle_gamma   90.00000000
_symmetry_Int_Tables_number   1
_chemical_formula_structural   Li3H6Ir
_chemical_formula_sum   'Li12 H24 Ir4'
_cell_volume   339.26664624
_cell_formula_units_Z   4
loop_
 _symmetry_equiv_pos_site_id
 _symmetry_equiv_pos_as_xyz
  1  'x, y, z'
loop_
 _atom_site_type_symbol
 _atom_site_label
 _atom_site_symmetry_multiplicity
 _atom_site_fract_x
 _atom_site_fract_y
 _atom_site_fract_z
 _atom_site_occupancy
  Li  Li0  1  0.25000000  0.54166998  0.86817087  1
  Li  Li1  1  0.25000000  0.04166998  0.63182913  1
  Li  Li2  1  0.75000000  0.45833002  0.13182913  1
  Li  Li3  1  0.75000000  0.95833002  0.36817087  1
  Li  Li4  1  0.25000000  0.89503426  0.97644615  1
  Li  Li5  1  0.25000000  0.39503426  0.52355385  1
  Li  Li6  1  0.75000000  0.10496574  0.02355385  1
  Li  Li7  1  0.75000000  0.60496574  0.47644615  1
  Li  Li8  1  0.25000000  0.72805614  0.25669678  1
  Li  Li9  1  0.25000000  0.22805614  0.24330322  1
  Li  Li10  1  0.75000000  0.27194386  0.74330322  1
  Li  Li11  1  0.75000000  0.77194386  0.75669678  1
  H  H0  1  0.49802876  0.84423006  0.52904692  1
  H  H1  1  0.00197124  0.34423006  0.97095308  1
  H  H2  1  -0.00197124  0.15576994  0.47095308  1
  H  H3  1  0.50197124  0.65576994  0.02904692  1
  H  H4  1  0.50197124  0.15576994  0.47095308  1
  H  H5  1  -0.00197124  0.65576994  0.02904692  1
  H  H6  1  0.00197124  0.84423006  0.52904692  1
  H  H7  1  0.49802876  0.34423006  0.97095308  1
  H  H8  1  0.49386221  0.60427578  0.67658586  1
  H  H9  1  0.00613779  0.10427578  0.82341414  1
  H  H10  1  0.99386221  0.39572422  0.32341414  1
  H  H11  1  0.50613779  0.89572422  0.17658586  1
  H  H12  1  0.50613779  0.39572422  0.32341414  1
  H  H13  1  0.99386221  0.89572422  0.17658586  1
  H  H14  1  0.00613779  0.60427578  0.67658586  1
  H  H15  1  0.49386221  0.10427578  0.82341414  1
  H  H16  1  0.25000000  0.61287742  0.44150270  1
  H  H17  1  0.25000000  0.11287742  0.05849730  1
  H  H18  1  0.75000000  0.38712258  0.55849730  1
  H  H19  1  0.75000000  0.88712258  0.94150270  1
  H  H20  1  0.25000000  0.83239486  0.76397428  1
  H  H21  1  0.25000000  0.33239486  0.73602572  1
  H  H22  1  0.75000000  0.16760514  0.23602572  1
  H  H23  1  0.75000000  0.66760514  0.26397428  1
  Ir  Ir0  1  0.25000000  0.72489091  0.60211197  1
  Ir  Ir1  1  0.25000000  0.22489091  0.89788803  1
  Ir  Ir2  1  0.75000000  0.27510909  0.39788803  1
  Ir  Ir3  1  0.75000000  0.77510909  0.10211197  1
loop_
_geom_bond_atom_site_label_1
_geom_bond_atom_site_label_2
_geom_bond_distance
_geom_bond_site_symmetry_2
H0 Ir0 1.666659 1_555
H0 Li3 2.053079 1_555
H0 Li1 2.218158 1_565
H1 Ir1 1.666659 1_555
H1 Li2 2.053079 1_456
H1 Li0 2.218158 1_555
H2 Ir2 1.666659 1_455
H2 Li1 2.053079 1_555
H2 Li3 2.218158 1_445
H3 Ir3 1.666659 1_555
H3 Li0 2.053079 1_554
H3 Li2 2.218158 1_555
H4 Ir2 1.666659 1_555
H4 Li1 2.053079 1_555
H4 Li3 2.218158 1_545
H5 Ir3 1.666659 1_455
H5 Li0 2.053079 1_554
H5 Li2 2.218158 1_455
H6 Ir0 1.666659 1_555
H6 Li3 2.053079 1_455
H6 Li1 2.218158 1_565
H7 Ir1 1.666659 1_555
H7 Li2 2.053079 1_556
H7 Li0 2.218158 1_555
H8 Ir0 1.663950 1_555
H8 Li11 1.984194 1_555
H8 Li0 2.062961 1_555
H8 Li7 2.086852 1_555
H9 Ir1 1.663950 1_555
H9 Li10 1.984194 1_455
H9 Li1 2.062961 1_555
H9 Li6 2.086852 1_456
H10 Ir2 1.663950 1_555
H10 Li9 1.984194 1_655
H10 Li2 2.062961 1_555
H10 Li5 2.086852 1_655
H11 Ir3 1.663950 1_555
H11 Li8 1.984194 1_555
H11 Li3 2.062961 1_555
H11 Li4 2.086852 1_554
H12 Ir2 1.663950 1_555
H12 Li9 1.984194 1_555
H12 Li2 2.062961 1_555
H12 Li5 2.086852 1_555
H13 Ir3 1.663950 1_555
H13 Li8 1.984194 1_655
H13 Li3 2.062961 1_555
H13 Li4 2.086852 1_654
H14 Ir0 1.663950 1_555
H14 Li11 1.984194 1_455
H14 Li0 2.062961 1_555
H14 Li7 2.086852 1_455
H15 Ir1 1.663950 1_555
H15 Li10 1.984194 1_555
H15 Li1 2.062961 1_555
H15 Li6 2.086852 1_556
H16 Ir0 1.659721 1_555
H16 Li8 1.846179 1_555
H16 Li5 1.967820 1_555
H17 Ir1 1.659721 1_554
H17 Li9 1.846179 1_555
H17 Li4 1.967820 1_544
H18 Ir2 1.659721 1_555
H18 Li10 1.846179 1_555
H18 Li7 1.967820 1_555
H19 Ir3 1.659721 1_556
H19 Li11 1.846179 1_555
H19 Li6 1.967820 1_566
H20 Ir0 1.647161 1_555
H20 Li4 1.879821 1_555
H20 Li1 2.093910 1_565
H21 Ir1 1.647161 1_555
H21 Li5 1.879821 1_555
H21 Li0 2.093910 1_555
H22 Ir2 1.647161 1_555
H22 Li6 1.879821 1_555
H22 Li3 2.093910 1_545
H23 Ir3 1.647161 1_555
H23 Li7 1.879821 1_555
H23 Li2 2.093910 1_555
