# generated using pymatgen
data_Li4Mn(Ni2O5)2
_symmetry_space_group_name_H-M   'P 1'
_cell_length_a   5.77417300
_cell_length_b   6.52894875
_cell_length_c   10.01665914
_cell_angle_alpha   96.97779885
_cell_angle_beta   106.71664821
_cell_angle_gamma   102.78339878
_symmetry_Int_Tables_number   1
_chemical_formula_structural   Li4Mn(Ni2O5)2
_chemical_formula_sum   'Li8 Mn2 Ni8 O20'
_cell_volume   345.70007333
_cell_formula_units_Z   2
loop_
 _symmetry_equiv_pos_site_id
 _symmetry_equiv_pos_as_xyz
  1  'x, y, z'
loop_
 _atom_site_type_symbol
 _atom_site_label
 _atom_site_symmetry_multiplicity
 _atom_site_fract_x
 _atom_site_fract_y
 _atom_site_fract_z
 _atom_site_occupancy
  Li  Li0  1  0.79661200  0.29094100  0.20535900  1
  Li  Li1  1  0.69690500  0.70985500  0.79573000  1
  Li  Li2  1  0.50000000  0.50000000  0.00000000  1
  Li  Li3  1  0.89275500  0.90934200  0.59541700  1
  Li  Li4  1  0.30309500  0.29014500  0.20427000  1
  Li  Li5  1  0.20338800  0.70905900  0.79464100  1
  Li  Li6  1  0.00000000  0.50000000  0.00000000  1
  Li  Li7  1  0.10724500  0.09065800  0.40458300  1
  Mn  Mn0  1  0.50000000  0.50000000  0.50000000  1
  Mn  Mn1  1  0.00000000  0.50000000  0.50000000  1
  Ni  Ni0  1  0.79385500  0.28769200  0.69647100  1
  Ni  Ni1  1  0.59565300  0.09420400  0.89670700  1
  Ni  Ni2  1  0.69938300  0.70367400  0.29677100  1
  Ni  Ni3  1  0.40434700  0.90579600  0.10329300  1
  Ni  Ni4  1  0.30061700  0.29632600  0.70322900  1
  Ni  Ni5  1  0.09987900  0.09700300  0.90313300  1
  Ni  Ni6  1  0.20614500  0.71230800  0.30352900  1
  Ni  Ni7  1  0.90012100  0.90299700  0.09686700  1
  O  O0  1  0.78252700  0.01230300  0.77037800  1
  O  O1  1  0.83964500  0.58620400  0.63575500  1
  O  O2  1  0.76473900  0.99283500  0.23102200  1
  O  O3  1  0.62803700  0.36731700  0.84548200  1
  O  O4  1  0.84929900  0.63188300  0.14999900  1
  O  O5  1  0.43104900  0.17442400  0.04269800  1
  O  O6  1  0.23526100  0.00716500  0.76897800  1
  O  O7  1  0.33966800  0.59309700  0.63492800  1
  O  O8  1  0.66033200  0.40690300  0.36507200  1
  O  O9  1  0.56895100  0.82557600  0.95730200  1
  O  O10  1  0.44278400  0.23349600  0.55999700  1
  O  O11  1  0.21747300  0.98769700  0.22962200  1
  O  O12  1  0.37196300  0.63268300  0.15451800  1
  O  O13  1  0.15070100  0.36811700  0.85000100  1
  O  O14  1  0.55721600  0.76650400  0.44000300  1
  O  O15  1  0.95321600  0.17742300  0.04397400  1
  O  O16  1  0.16035500  0.41379600  0.36424500  1
  O  O17  1  0.04678400  0.82257700  0.95602600  1
  O  O18  1  0.98304500  0.22935800  0.56022100  1
  O  O19  1  0.01695500  0.77064200  0.43977900  1
loop_
_geom_bond_atom_site_label_1
_geom_bond_atom_site_label_2
_geom_bond_distance
_geom_bond_site_symmetry_2
Li0 O2 1.969357 1_545
Li0 O8 2.108395 1_555
Li0 O16 2.146846 1_655
Li0 O5 2.167652 1_555
Li0 O15 2.196950 1_555
Li0 O4 2.335031 1_555
Li1 O0 1.992551 1_565
Li1 O9 2.091355 1_555
Li1 O17 2.095228 1_655
Li1 O7 2.127173 1_555
Li1 O1 2.153769 1_555
Li1 O3 2.323632 1_555
Li2 O4 2.059282 1_555
Li2 O13 2.059282 1_554
Li2 O12 2.075688 1_555
Li2 O3 2.075688 1_554
Li2 O9 2.191856 1_554
Li2 O5 2.191856 1_555
Li3 O14 2.039473 1_555
Li3 O19 2.086218 1_655
Li3 O0 2.114975 1_565
Li3 O6 2.129525 1_665
Li3 O18 2.136402 1_565
Li3 O1 2.168050 1_555
Li4 O11 1.992551 1_545
Li4 O5 2.091355 1_555
Li4 O15 2.095228 1_455
Li4 O8 2.127173 1_555
Li4 O16 2.153769 1_555
Li4 O12 2.323632 1_555
Li5 O6 1.969357 1_565
Li5 O7 2.108395 1_555
Li5 O1 2.146846 1_455
Li5 O9 2.167652 1_555
Li5 O17 2.196950 1_555
Li5 O13 2.335031 1_555
Li6 O4 2.127314 1_455
Li6 O13 2.127314 1_554
Li6 O12 2.167359 1_555
Li6 O3 2.167359 1_454
Li6 O17 2.178228 1_554
Li6 O15 2.178228 1_455
Li7 O10 2.039473 1_555
Li7 O18 2.086218 1_455
Li7 O11 2.114975 1_545
Li7 O2 2.129525 1_445
Li7 O19 2.136402 1_545
Li7 O16 2.168050 1_555
Mn0 O10 1.900468 1_555
Mn0 O14 1.900468 1_555
Mn0 O1 1.950247 1_555
Mn0 O16 1.950247 1_555
Mn0 O8 1.955091 1_555
Mn0 O7 1.955091 1_555
Mn1 O18 1.926697 1_455
Mn1 O19 1.926697 1_555
Mn1 O8 1.946975 1_455
Mn1 O7 1.946975 1_555
Mn1 O1 1.947346 1_455
Mn1 O16 1.947346 1_555
Ni0 O10 2.018446 1_555
Ni0 O0 2.020978 1_555
Ni0 O18 2.028923 1_555
Ni0 O3 2.066082 1_555
Ni0 O13 2.094862 1_655
Ni0 O1 2.095405 1_555
Ni1 O3 1.899414 1_555
Ni1 O9 1.913376 1_545
Ni1 O0 1.981898 1_555
Ni1 O6 2.014611 1_555
Ni1 O5 2.037128 1_556
Ni1 O15 2.071396 1_556
Ni2 O14 1.893167 1_555
Ni2 O19 1.894084 1_655
Ni2 O12 1.929114 1_555
Ni2 O4 1.968416 1_555
Ni2 O2 2.066439 1_555
Ni2 O8 2.119125 1_555
Ni3 O12 1.899414 1_555
Ni3 O5 1.913376 1_565
Ni3 O11 1.981898 1_555
Ni3 O2 2.014611 1_555
Ni3 O9 2.037128 1_554
Ni3 O17 2.071396 1_554
Ni4 O10 1.893167 1_555
Ni4 O18 1.894084 1_455
Ni4 O3 1.929114 1_555
Ni4 O13 1.968416 1_555
Ni4 O6 2.066439 1_555
Ni4 O7 2.119125 1_555
Ni5 O6 1.837550 1_555
Ni5 O0 1.844732 1_455
Ni5 O13 1.895110 1_555
Ni5 O17 1.914662 1_545
Ni5 O15 1.920201 1_456
Ni5 O5 1.931107 1_556
Ni6 O14 2.018446 1_555
Ni6 O11 2.020978 1_555
Ni6 O19 2.028923 1_555
Ni6 O12 2.066082 1_555
Ni6 O4 2.094862 1_455
Ni6 O16 2.095405 1_555
Ni7 O2 1.837550 1_555
Ni7 O11 1.844732 1_655
Ni7 O4 1.895110 1_555
Ni7 O15 1.914662 1_565
Ni7 O17 1.920201 1_654
Ni7 O9 1.931107 1_554
