# generated using pymatgen
data_LiMnFeO4
_symmetry_space_group_name_H-M   'P 1'
_cell_length_a   5.88817400
_cell_length_b   5.88817400
_cell_length_c   8.26356900
_cell_angle_alpha   90.00000000
_cell_angle_beta   90.00000000
_cell_angle_gamma   90.00000000
_symmetry_Int_Tables_number   1
_chemical_formula_structural   LiMnFeO4
_chemical_formula_sum   'Li4 Mn4 Fe4 O16'
_cell_volume   286.50283797
_cell_formula_units_Z   4
loop_
 _symmetry_equiv_pos_site_id
 _symmetry_equiv_pos_as_xyz
  1  'x, y, z'
loop_
 _atom_site_type_symbol
 _atom_site_label
 _atom_site_symmetry_multiplicity
 _atom_site_fract_x
 _atom_site_fract_y
 _atom_site_fract_z
 _atom_site_occupancy
  Li  Li0  1  0.00000000  0.22856100  0.00000000  1
  Li  Li1  1  0.00000000  0.77143900  0.50000000  1
  Li  Li2  1  0.22856100  0.00000000  0.25000000  1
  Li  Li3  1  0.77143900  0.00000000  0.75000000  1
  Mn  Mn0  1  0.23858500  0.50000000  0.25000000  1
  Mn  Mn1  1  0.50000000  0.23858500  0.00000000  1
  Mn  Mn2  1  0.50000000  0.76141500  0.50000000  1
  Mn  Mn3  1  0.76141500  0.50000000  0.75000000  1
  Fe  Fe0  1  0.25530200  0.25530200  0.62500000  1
  Fe  Fe1  1  0.25530200  0.74469800  0.87500000  1
  Fe  Fe2  1  0.74469800  0.25530200  0.37500000  1
  Fe  Fe3  1  0.74469800  0.74469800  0.12500000  1
  O  O0  1  0.01546900  0.26845500  0.25680900  1
  O  O1  1  0.01546900  0.73154500  0.24319100  1
  O  O2  1  0.26845500  0.01546900  0.99319100  1
  O  O3  1  0.26845500  0.98453100  0.50680900  1
  O  O4  1  0.26393700  0.48060300  0.01545800  1
  O  O5  1  0.26393700  0.51939700  0.48454200  1
  O  O6  1  0.48060300  0.26393700  0.23454200  1
  O  O7  1  0.48060300  0.73606300  0.26545800  1
  O  O8  1  0.51939700  0.26393700  0.76545800  1
  O  O9  1  0.51939700  0.73606300  0.73454200  1
  O  O10  1  0.73606300  0.51939700  0.51545800  1
  O  O11  1  0.73606300  0.48060300  0.98454200  1
  O  O12  1  0.73154500  0.01546900  0.00680900  1
  O  O13  1  0.73154500  0.98453100  0.49319100  1
  O  O14  1  0.98453100  0.26845500  0.74319100  1
  O  O15  1  0.98453100  0.73154500  0.75680900  1
loop_
_geom_bond_atom_site_label_1
_geom_bond_atom_site_label_2
_geom_bond_distance
_geom_bond_site_symmetry_2
Li0 O2 2.018945 1_554
Li0 O12 2.018945 1_455
Li0 O14 2.137062 1_454
Li0 O0 2.137062 1_555
Li0 O4 2.152678 1_555
Li0 O11 2.152678 1_454
Li1 O13 2.018945 1_455
Li1 O3 2.018945 1_555
Li1 O15 2.137062 1_455
Li1 O1 2.137062 1_555
Li1 O5 2.152678 1_555
Li1 O10 2.152678 1_455
Li2 O0 2.018945 1_555
Li2 O1 2.018945 1_545
Li2 O3 2.137062 1_545
Li2 O2 2.137062 1_554
Li2 O6 2.152678 1_555
Li2 O7 2.152678 1_545
Li3 O14 2.018945 1_555
Li3 O15 2.018945 1_545
Li3 O12 2.137062 1_556
Li3 O13 2.137062 1_545
Li3 O9 2.152678 1_545
Li3 O8 2.152678 1_555
Mn0 O1 1.894173 1_555
Mn0 O0 1.894173 1_555
Mn0 O5 1.947247 1_555
Mn0 O4 1.947247 1_555
Mn0 O6 1.994771 1_555
Mn0 O7 1.994771 1_555
Mn1 O2 1.894173 1_554
Mn1 O12 1.894173 1_555
Mn1 O6 1.947247 1_555
Mn1 O8 1.947247 1_554
Mn1 O4 1.994771 1_555
Mn1 O11 1.994771 1_554
Mn2 O13 1.894173 1_555
Mn2 O3 1.894173 1_555
Mn2 O7 1.947247 1_555
Mn2 O9 1.947247 1_555
Mn2 O5 1.994771 1_555
Mn2 O10 1.994771 1_555
Mn3 O14 1.894173 1_555
Mn3 O15 1.894173 1_555
Mn3 O10 1.947247 1_555
Mn3 O11 1.947247 1_555
Mn3 O8 1.994771 1_555
Mn3 O9 1.994771 1_555
Fe0 O14 1.871321 1_455
Fe0 O3 1.871321 1_545
Fe0 O8 1.941112 1_555
Fe0 O5 1.941112 1_555
Fe1 O15 1.871321 1_455
Fe1 O2 1.871321 1_565
Fe1 O4 1.941112 1_556
Fe1 O9 1.941112 1_555
Fe2 O13 1.871321 1_545
Fe2 O0 1.871321 1_655
Fe2 O6 1.941112 1_555
Fe2 O10 1.941112 1_555
Fe3 O1 1.871321 1_655
Fe3 O12 1.871321 1_565
Fe3 O11 1.941112 1_554
Fe3 O7 1.941112 1_555
