# generated using pymatgen
data_NaCa2Mg2V3O12
_symmetry_space_group_name_H-M   'P 1'
_cell_length_a   10.89301121
_cell_length_b   10.89301121
_cell_length_c   10.89301121
_cell_angle_alpha   109.50280852
_cell_angle_beta   109.50280852
_cell_angle_gamma   109.40806332
_symmetry_Int_Tables_number   1
_chemical_formula_structural   NaCa2Mg2V3O12
_chemical_formula_sum   'Na4 Ca8 Mg8 V12 O48'
_cell_volume   994.99652823
_cell_formula_units_Z   4
loop_
 _symmetry_equiv_pos_site_id
 _symmetry_equiv_pos_as_xyz
  1  'x, y, z'
loop_
 _atom_site_type_symbol
 _atom_site_label
 _atom_site_symmetry_multiplicity
 _atom_site_fract_x
 _atom_site_fract_y
 _atom_site_fract_z
 _atom_site_occupancy
  Na  Na0  1  0.00000000  0.50000000  0.50000000  1
  Na  Na1  1  0.25000000  0.25000000  0.00000000  1
  Na  Na2  1  0.50000000  0.00000000  0.50000000  1
  Na  Na3  1  0.75000000  0.75000000  0.00000000  1
  Ca  Ca0  1  0.62500000  0.75192700  0.62692700  1
  Ca  Ca1  1  0.24807300  0.87500000  0.87307300  1
  Ca  Ca2  1  0.74807300  0.87500000  0.37307300  1
  Ca  Ca3  1  0.62500000  0.25192700  0.12692700  1
  Ca  Ca4  1  0.00192700  0.37500000  0.12692700  1
  Ca  Ca5  1  0.12500000  0.99807300  0.37307300  1
  Ca  Ca6  1  0.50192700  0.37500000  0.62692700  1
  Ca  Ca7  1  0.12500000  0.49807300  0.87307300  1
  Mg  Mg0  1  0.37500000  0.62500000  0.75000000  1
  Mg  Mg1  1  0.87500000  0.12500000  0.25000000  1
  Mg  Mg2  1  0.37500000  0.62500000  0.25000000  1
  Mg  Mg3  1  0.87500000  0.62500000  0.25000000  1
  Mg  Mg4  1  0.37500000  0.12500000  0.75000000  1
  Mg  Mg5  1  0.87500000  0.12500000  0.75000000  1
  Mg  Mg6  1  0.87500000  0.62500000  0.75000000  1
  Mg  Mg7  1  0.37500000  0.12500000  0.25000000  1
  V  V0  1  0.00000000  0.00000000  0.00000000  1
  V  V1  1  0.25049000  0.37500000  0.37549000  1
  V  V2  1  0.99951000  0.87500000  0.62451000  1
  V  V3  1  0.62500000  0.00049000  0.87549000  1
  V  V4  1  0.62500000  0.50049000  0.37549000  1
  V  V5  1  0.25000000  0.75000000  0.50000000  1
  V  V6  1  0.50000000  0.50000000  0.00000000  1
  V  V7  1  0.12500000  0.24951000  0.62451000  1
  V  V8  1  0.75049000  0.37500000  0.87549000  1
  V  V9  1  0.12500000  0.74951000  0.12451000  1
  V  V10  1  0.49951000  0.87500000  0.12451000  1
  V  V11  1  0.75000000  0.25000000  0.50000000  1
  O  O0  1  0.57898400  0.81845800  0.83686300  1
  O  O1  1  0.18108200  0.03056100  0.04215200  1
  O  O2  1  0.46177600  0.02140700  0.12984000  1
  O  O3  1  0.86107000  0.81891800  0.84947900  1
  O  O4  1  0.39156600  0.52140700  0.55963100  1
  O  O5  1  0.66806400  0.53822400  0.55963100  1
  O  O6  1  0.99212000  0.73159400  0.66313700  1
  O  O7  1  0.85843400  0.91806400  0.62984000  1
  O  O8  1  0.18154200  0.01840600  0.76052600  1
  O  O9  1  0.47859300  0.03822400  0.87016000  1
  O  O10  1  0.25788000  0.42101600  0.23947400  1
  O  O11  1  0.78056100  0.23840900  0.34947900  1
  O  O12  1  0.26159100  0.71943900  0.65052100  1
  O  O13  1  0.48159400  0.31845800  0.23947400  1
  O  O14  1  0.58193600  0.64156600  0.37016000  1
  O  O15  1  0.98840900  0.13893000  0.95784800  1
  O  O16  1  0.76840600  0.50788000  0.33686300  1
  O  O17  1  0.06845800  0.32898400  0.33686300  1
  O  O18  1  0.67101600  0.00788000  0.73947400  1
  O  O19  1  0.96177600  0.83193600  0.44036900  1
  O  O20  1  0.28056100  0.93108200  0.54215200  1
  O  O21  1  0.06891800  0.61107000  0.34947900  1
  O  O22  1  0.36107000  0.51159100  0.04215200  1
  O  O23  1  0.77140700  0.14156600  0.05963100  1
  O  O24  1  0.97859300  0.10843400  0.44036900  1
  O  O25  1  0.38893000  0.73840900  0.45784800  1
  O  O26  1  0.68108200  0.63893000  0.15052100  1
  O  O27  1  0.46943900  0.31891800  0.95784800  1
  O  O28  1  0.78822400  0.41806400  0.05963100  1
  O  O29  1  0.07898400  0.24212000  0.76052600  1
  O  O30  1  0.68154200  0.92101600  0.16313700  1
  O  O31  1  0.98159400  0.74212000  0.16313700  1
  O  O32  1  0.76159100  0.11107000  0.54215200  1
  O  O33  1  0.16806400  0.60843400  0.12984000  1
  O  O34  1  0.26840600  0.93154200  0.26052600  1
  O  O35  1  0.48840900  0.53056100  0.84947900  1
  O  O36  1  0.96943900  0.01159100  0.15052100  1
  O  O37  1  0.49212000  0.82898400  0.26052600  1
  O  O38  1  0.56845800  0.23159400  0.73947400  1
  O  O39  1  0.27140700  0.21177600  0.62984000  1
  O  O40  1  0.89156600  0.33193600  0.87016000  1
  O  O41  1  0.75788000  0.51840600  0.83686300  1
  O  O42  1  0.08193600  0.71177600  0.94036900  1
  O  O43  1  0.35843400  0.72859300  0.94036900  1
  O  O44  1  0.88893000  0.43108200  0.65052100  1
  O  O45  1  0.28822400  0.22859300  0.37016000  1
  O  O46  1  0.56891800  0.21943900  0.45784800  1
  O  O47  1  0.17101600  0.43154200  0.66313700  1
loop_
_geom_bond_atom_site_label_1
_geom_bond_atom_site_label_2
_geom_bond_distance
_geom_bond_site_symmetry_2
Na0 O12 2.501721 1_555
Na0 O21 2.501721 1_555
Na0 O44 2.501721 1_455
Na0 O11 2.501721 1_455
Na0 O6 2.604222 1_455
Na0 O16 2.604222 1_455
Na0 O17 2.604224 1_555
Na0 O47 2.604224 1_555
Na1 O15 2.501721 1_454
Na1 O1 2.501721 1_555
Na1 O22 2.501721 1_555
Na1 O27 2.501721 1_554
Na1 O13 2.604218 1_555
Na1 O10 2.604218 1_555
Na1 O8 2.604218 1_554
Na1 O29 2.604218 1_554
Na2 O46 2.501721 1_555
Na2 O20 2.501721 1_545
Na2 O25 2.501721 1_545
Na2 O32 2.501721 1_555
Na2 O18 2.604218 1_555
Na2 O38 2.604218 1_555
Na2 O34 2.604218 1_545
Na2 O37 2.604218 1_545
Na3 O36 2.501721 1_565
Na3 O3 2.501721 1_554
Na3 O26 2.501721 1_555
Na3 O35 2.501721 1_554
Na3 O31 2.604222 1_555
Na3 O41 2.604222 1_554
Na3 O30 2.604224 1_555
Na3 O0 2.604224 1_554
Ca0 O0 2.430287 1_555
Ca0 O18 2.430297 1_565
Ca0 O5 2.447921 1_555
Ca0 O14 2.447922 1_555
Ca0 O25 2.536023 1_555
Ca0 O3 2.536023 1_555
Ca0 O4 2.567381 1_555
Ca0 O7 2.567383 1_555
Ca1 O6 2.430293 1_455
Ca1 O8 2.430297 1_565
Ca1 O2 2.447921 1_566
Ca1 O43 2.447928 1_555
Ca1 O1 2.536023 1_566
Ca1 O12 2.536023 1_555
Ca1 O9 2.567375 1_565
Ca1 O42 2.567375 1_555
Ca2 O30 2.430287 1_555
Ca2 O37 2.430297 1_555
Ca2 O19 2.447921 1_555
Ca2 O7 2.447922 1_555
Ca2 O32 2.536023 1_565
Ca2 O26 2.536023 1_555
Ca2 O24 2.567381 1_565
Ca2 O14 2.567383 1_555
Ca3 O16 2.430293 1_555
Ca3 O13 2.430297 1_555
Ca3 O9 2.447921 1_554
Ca3 O23 2.447928 1_555
Ca3 O27 2.536023 1_554
Ca3 O11 2.536023 1_555
Ca3 O28 2.567375 1_555
Ca3 O2 2.567375 1_555
Ca4 O17 2.430287 1_555
Ca4 O10 2.430297 1_555
Ca4 O28 2.447921 1_455
Ca4 O40 2.447922 1_454
Ca4 O15 2.536023 1_454
Ca4 O21 2.536023 1_555
Ca4 O23 2.567381 1_455
Ca4 O33 2.567383 1_555
Ca5 O31 2.430293 1_455
Ca5 O34 2.430297 1_555
Ca5 O39 2.447921 1_565
Ca5 O24 2.447928 1_465
Ca5 O36 2.536023 1_465
Ca5 O20 2.536023 1_555
Ca5 O19 2.567375 1_455
Ca5 O45 2.567375 1_565
Ca6 O41 2.430293 1_555
Ca6 O38 2.430297 1_555
Ca6 O45 2.447921 1_555
Ca6 O4 2.447928 1_555
Ca6 O46 2.536023 1_555
Ca6 O35 2.536023 1_555
Ca6 O5 2.567375 1_555
Ca6 O39 2.567375 1_555
Ca7 O47 2.430287 1_555
Ca7 O29 2.430297 1_555
Ca7 O42 2.447921 1_555
Ca7 O33 2.447922 1_556
Ca7 O44 2.536023 1_455
Ca7 O22 2.536023 1_556
Ca7 O43 2.567381 1_555
Ca7 O40 2.567383 1_455
Mg0 O0 2.103881 1_555
Mg0 O47 2.103881 1_555
Mg0 O4 2.104488 1_555
Mg0 O43 2.104488 1_555
Mg0 O12 2.110386 1_555
Mg0 O35 2.110386 1_555
Mg1 O17 2.103881 1_655
Mg1 O30 2.103881 1_545
Mg1 O24 2.104488 1_555
Mg1 O23 2.104488 1_555
Mg1 O11 2.110386 1_555
Mg1 O36 2.110386 1_555
Mg2 O37 2.103879 1_555
Mg2 O10 2.103879 1_555
Mg2 O33 2.104500 1_555
Mg2 O14 2.104500 1_555
Mg2 O25 2.110386 1_555
Mg2 O22 2.110386 1_555
Mg3 O16 2.103870 1_555
Mg3 O31 2.103870 1_555
Mg3 O19 2.104495 1_555
Mg3 O28 2.104495 1_555
Mg3 O21 2.110386 1_655
Mg3 O26 2.110386 1_555
Mg4 O38 2.103879 1_555
Mg4 O8 2.103879 1_555
Mg4 O39 2.104495 1_555
Mg4 O9 2.104495 1_555
Mg4 O27 2.110386 1_555
Mg4 O20 2.110386 1_545
Mg5 O18 2.103879 1_555
Mg5 O29 2.103879 1_655
Mg5 O7 2.104500 1_545
Mg5 O40 2.104500 1_555
Mg5 O15 2.110386 1_555
Mg5 O32 2.110386 1_555
Mg6 O41 2.103870 1_555
Mg6 O6 2.103870 1_555
Mg6 O5 2.104495 1_555
Mg6 O42 2.104495 1_655
Mg6 O3 2.110386 1_555
Mg6 O44 2.110386 1_555
Mg7 O13 2.103879 1_555
Mg7 O34 2.103879 1_545
Mg7 O2 2.104495 1_555
Mg7 O45 2.104495 1_555
Mg7 O46 2.110386 1_555
Mg7 O1 2.110386 1_555
O0 V3 1.732524 1_565
O1 V0 1.751943 1_555
O2 V10 1.762247 1_545
O3 V0 1.751943 1_666
O4 V1 1.762245 1_555
O5 V4 1.762247 1_555
O6 V2 1.732533 1_555
O7 V2 1.762237 1_555
O8 V2 1.732527 1_445
O9 V3 1.762247 1_555
O10 V1 1.732527 1_555
O11 V11 1.751943 1_555
O12 V5 1.751943 1_555
O13 V4 1.732527 1_555
O14 V4 1.762237 1_555
O15 V0 1.751943 1_656
O16 V4 1.732533 1_555
O17 V1 1.732524 1_555
O18 V3 1.732527 1_555
O19 V2 1.762247 1_555
O20 V5 1.751943 1_555
O21 V5 1.751943 1_555
O22 V6 1.751943 1_555
O23 V3 1.762245 1_554
O24 V7 1.762245 1_655
O25 V5 1.751943 1_555
O26 V6 1.751943 1_555
O27 V6 1.751943 1_556
O28 V8 1.762247 1_554
O29 V7 1.732527 1_555
O30 V10 1.732524 1_555
O31 V9 1.732533 1_655
O32 V11 1.751943 1_555
O33 V9 1.762237 1_555
O34 V9 1.732527 1_555
O35 V6 1.751943 1_556
O36 V0 1.751943 1_655
O37 V10 1.732527 1_555
O38 V8 1.732527 1_555
O39 V7 1.762247 1_555
O40 V8 1.762237 1_555
O41 V8 1.732533 1_555
O42 V9 1.762247 1_556
O43 V10 1.762245 1_556
O44 V11 1.751943 1_555
O45 V1 1.762247 1_555
O46 V11 1.751943 1_555
O47 V7 1.732524 1_555
