# generated using pymatgen
data_KZn13
_symmetry_space_group_name_H-M   'P 1'
_cell_length_a   8.60330179
_cell_length_b   8.60330073
_cell_length_c   8.60330080
_cell_angle_alpha   60.00032052
_cell_angle_beta   60.00032799
_cell_angle_gamma   60.00031949
_symmetry_Int_Tables_number   1
_chemical_formula_structural   KZn13
_chemical_formula_sum   'K2 Zn26'
_cell_volume   450.28092375
_cell_formula_units_Z   2
loop_
 _symmetry_equiv_pos_site_id
 _symmetry_equiv_pos_as_xyz
  1  'x, y, z'
loop_
 _atom_site_type_symbol
 _atom_site_label
 _atom_site_symmetry_multiplicity
 _atom_site_fract_x
 _atom_site_fract_y
 _atom_site_fract_z
 _atom_site_occupancy
  K  K0  1  0.25000000  0.25000000  0.25000000  1
  K  K1  1  0.75000000  0.75000000  0.75000000  1
  Zn  Zn0  1  0.20112358  0.79887578  0.43849300  1
  Zn  Zn1  1  0.70113380  0.06150721  0.93849185  1
  Zn  Zn2  1  0.93849300  0.29887578  0.70112358  1
  Zn  Zn3  1  0.70112358  0.93849300  0.29887578  1
  Zn  Zn4  1  0.06150815  0.29886620  0.93849279  1
  Zn  Zn5  1  0.06150721  0.93849185  0.70113380  1
  Zn  Zn6  1  0.93849279  0.06150815  0.29886620  1
  Zn  Zn7  1  0.43849300  0.20112358  0.79887578  1
  Zn  Zn8  1  0.79887578  0.43849300  0.20112358  1
  Zn  Zn9  1  0.56150721  0.20113380  0.43849185  1
  Zn  Zn10  1  0.79886620  0.56150815  0.43849279  1
  Zn  Zn11  1  0.56150700  0.79887642  0.20112422  1
  Zn  Zn12  1  0.43849279  0.79886620  0.56150815  1
  Zn  Zn13  1  0.20113380  0.43849185  0.56150721  1
  Zn  Zn14  1  0.20112322  0.56150700  0.79887642  1
  Zn  Zn15  1  0.93849185  0.70113380  0.06150721  1
  Zn  Zn16  1  0.29886620  0.93849279  0.06150815  1
  Zn  Zn17  1  0.29887578  0.70112358  0.93849300  1
  Zn  Zn18  1  0.70112422  0.29887642  0.06150700  1
  Zn  Zn19  1  0.06150700  0.70112422  0.29887642  1
  Zn  Zn20  1  0.29887642  0.06150700  0.70112422  1
  Zn  Zn21  1  0.43849185  0.56150721  0.20113380  1
  Zn  Zn22  1  0.56150815  0.43849279  0.79886620  1
  Zn  Zn23  1  0.79887642  0.20112422  0.56150700  1
  Zn  Zn24  1  -0.00000000  -0.00000000  0.00000000  1
  Zn  Zn25  1  0.50000000  0.50000000  0.50000000  1
loop_
_geom_bond_atom_site_label_1
_geom_bond_atom_site_label_2
_geom_bond_distance
_geom_bond_site_symmetry_2
K0 Zn11 3.539241 1_545
K0 Zn17 3.539241 1_554
K0 Zn3 3.539241 1_545
K0 Zn2 3.539241 1_455
K0 Zn19 3.539241 1_555
K0 Zn20 3.539241 1_555
K0 Zn0 3.539241 1_545
K0 Zn7 3.539242 1_554
K0 Zn23 3.539242 1_455
K0 Zn8 3.539242 1_455
K0 Zn18 3.539242 1_555
K0 Zn14 3.539243 1_554
K0 Zn16 3.539263 1_545
K0 Zn13 3.539263 1_555
K0 Zn4 3.539263 1_554
K0 Zn9 3.539263 1_555
K0 Zn21 3.539263 1_555
K0 Zn6 3.539263 1_455
K0 Zn12 3.539293 1_545
K0 Zn15 3.539293 1_455
K0 Zn5 3.539293 1_545
K0 Zn10 3.539293 1_455
K0 Zn22 3.539293 1_554
K0 Zn1 3.539293 1_554
K1 Zn14 3.539234 1_655
K1 Zn8 3.539241 1_556
K1 Zn7 3.539241 1_565
K1 Zn18 3.539241 1_556
K1 Zn20 3.539241 1_565
K1 Zn19 3.539241 1_655
K1 Zn2 3.539241 1_555
K1 Zn3 3.539241 1_555
K1 Zn23 3.539241 1_565
K1 Zn11 3.539242 1_556
K1 Zn0 3.539242 1_655
K1 Zn17 3.539242 1_555
K1 Zn1 3.539263 1_565
K1 Zn10 3.539263 1_555
K1 Zn15 3.539263 1_556
K1 Zn12 3.539263 1_555
K1 Zn22 3.539263 1_555
K1 Zn5 3.539263 1_655
K1 Zn9 3.539293 1_565
K1 Zn4 3.539293 1_655
K1 Zn6 3.539293 1_565
K1 Zn13 3.539293 1_655
K1 Zn21 3.539293 1_556
K1 Zn16 3.539293 1_556
Zn0 Zn6 2.558979 1_465
Zn0 Zn5 2.559001 1_555
Zn0 Zn25 2.625219 1_555
Zn0 Zn19 2.656300 1_555
Zn0 Zn16 2.656323 1_555
Zn0 Zn12 2.729744 1_555
Zn0 Zn13 2.729766 1_555
Zn0 Zn14 2.729798 1_555
Zn0 Zn11 2.729801 1_555
Zn0 Zn21 2.887991 1_555
Zn1 Zn11 2.558979 1_546
Zn1 Zn7 2.559001 1_555
Zn1 Zn24 2.625128 1_656
Zn1 Zn23 2.656323 1_555
Zn1 Zn22 2.656334 1_555
Zn1 Zn15 2.729719 1_546
Zn1 Zn5 2.729719 1_645
Zn1 Zn18 2.729744 1_556
Zn1 Zn3 2.729766 1_546
Zn1 Zn2 2.887991 1_555
Zn2 Zn24 2.625218 1_656
Zn2 Zn23 2.656300 1_555
Zn2 Zn22 2.656323 1_555
Zn2 Zn4 2.729744 1_655
Zn2 Zn5 2.729765 1_645
Zn2 Zn20 2.729800 1_655
Zn3 Zn9 2.559001 1_565
Zn3 Zn6 2.729744 1_565
Zn4 Zn8 2.558979 1_456
Zn4 Zn7 2.656323 1_555
Zn4 Zn6 2.729719 1_456
Zn6 Zn8 2.656322 1_555
Zn6 Zn9 2.656334 1_555
Zn7 Zn9 2.729766 1_555
Zn8 Zn9 2.887991 1_555
Zn10 Zn2 2.558979 1_555
Zn10 Zn19 2.559001 1_655
Zn10 Zn25 2.625128 1_555
Zn10 Zn3 2.656322 1_555
Zn10 Zn15 2.656334 1_555
Zn10 Zn12 2.729719 1_555
Zn10 Zn22 2.729719 1_555
Zn10 Zn8 2.729744 1_555
Zn10 Zn23 2.729766 1_555
Zn10 Zn11 2.887991 1_555
Zn11 Zn16 2.559001 1_555
Zn11 Zn25 2.625219 1_555
Zn11 Zn3 2.656300 1_555
Zn11 Zn15 2.656323 1_555
Zn11 Zn21 2.729744 1_555
Zn11 Zn12 2.729766 1_555
Zn11 Zn8 2.729800 1_555
Zn12 Zn3 2.558979 1_555
Zn12 Zn20 2.559001 1_565
Zn12 Zn25 2.625128 1_555
Zn12 Zn17 2.656323 1_555
Zn12 Zn5 2.656334 1_555
Zn12 Zn22 2.729719 1_555
Zn12 Zn14 2.887997 1_555
Zn13 Zn19 2.558979 1_555
Zn13 Zn2 2.559001 1_455
Zn13 Zn25 2.625128 1_555
Zn13 Zn20 2.656322 1_555
Zn13 Zn4 2.656334 1_555
Zn13 Zn9 2.729719 1_555
Zn13 Zn21 2.729719 1_555
Zn13 Zn14 2.729739 1_555
Zn13 Zn7 2.887991 1_555
Zn14 Zn15 2.558977 1_456
Zn14 Zn4 2.558995 1_555
Zn14 Zn25 2.625222 1_555
Zn14 Zn17 2.656306 1_555
Zn14 Zn5 2.656322 1_555
Zn14 Zn22 2.729774 1_555
Zn14 Zn7 2.729802 1_555
Zn15 Zn8 2.559001 1_555
Zn15 Zn24 2.625128 1_665
Zn15 Zn5 2.729719 1_654
Zn15 Zn19 2.729744 1_655
Zn15 Zn17 2.729766 1_654
Zn15 Zn3 2.887991 1_555
Zn16 Zn7 2.558979 1_564
Zn16 Zn24 2.625128 1_565
Zn16 Zn21 2.656334 1_555
Zn16 Zn4 2.729719 1_564
Zn16 Zn6 2.729719 1_465
Zn16 Zn17 2.729744 1_554
Zn16 Zn20 2.729766 1_564
Zn16 Zn19 2.887991 1_555
Zn17 Zn22 2.558979 1_555
Zn17 Zn21 2.559001 1_556
Zn17 Zn24 2.625219 1_566
Zn17 Zn20 2.729800 1_565
Zn17 Zn19 2.729800 1_556
Zn17 Zn5 2.887991 1_555
Zn18 Zn21 2.558979 1_555
Zn18 Zn22 2.559001 1_554
Zn18 Zn24 2.625219 1_655
Zn18 Zn8 2.656300 1_555
Zn18 Zn9 2.656323 1_555
Zn18 Zn4 2.729766 1_654
Zn18 Zn3 2.729800 1_545
Zn18 Zn2 2.729800 1_554
Zn18 Zn6 2.887991 1_555
Zn19 Zn24 2.625218 1_565
Zn19 Zn21 2.656323 1_555
Zn19 Zn6 2.729765 1_465
Zn19 Zn3 2.729800 1_455
Zn20 Zn9 2.558979 1_555
Zn20 Zn24 2.625219 1_556
Zn20 Zn7 2.656300 1_555
Zn20 Zn5 2.729744 1_545
Zn20 Zn4 2.887991 1_555
Zn21 Zn25 2.625128 1_555
Zn21 Zn9 2.729719 1_555
Zn21 Zn8 2.729766 1_555
Zn22 Zn25 2.625128 1_555
Zn22 Zn7 2.729744 1_555
Zn22 Zn23 2.887991 1_555
Zn23 Zn5 2.558979 1_645
Zn23 Zn6 2.559001 1_555
Zn23 Zn25 2.625219 1_555
Zn23 Zn9 2.729744 1_555
Zn23 Zn8 2.729800 1_555
Zn23 Zn7 2.729801 1_555
Zn24 Zn6 2.625128 1_455
Zn24 Zn5 2.625128 1_544
Zn24 Zn4 2.625128 1_554
Zn24 Zn3 2.625219 1_445
Zn25 Zn9 2.625128 1_555
Zn25 Zn7 2.625219 1_555
Zn25 Zn8 2.625219 1_555
