# generated using pymatgen
data_UClO5
_symmetry_space_group_name_H-M   'P 1'
_cell_length_a   5.00546100
_cell_length_b   11.39416600
_cell_length_c   17.89222881
_cell_angle_alpha   83.69737880
_cell_angle_beta   90.00000000
_cell_angle_gamma   90.00000000
_symmetry_Int_Tables_number   1
_chemical_formula_structural   UClO5
_chemical_formula_sum   'U8 Cl8 O40'
_cell_volume   1014.28078604
_cell_formula_units_Z   8
loop_
 _symmetry_equiv_pos_site_id
 _symmetry_equiv_pos_as_xyz
  1  'x, y, z'
loop_
 _atom_site_type_symbol
 _atom_site_label
 _atom_site_symmetry_multiplicity
 _atom_site_fract_x
 _atom_site_fract_y
 _atom_site_fract_z
 _atom_site_occupancy
  U  U0  1  0.23755900  0.05412500  0.84882400  1
  U  U1  1  0.26244100  0.55412500  0.34882400  1
  U  U2  1  0.76244100  0.94587500  0.15117600  1
  U  U3  1  0.73755900  0.44587500  0.65117600  1
  U  U4  1  0.84930600  0.93821200  0.64865000  1
  U  U5  1  0.65069400  0.43821200  0.14865000  1
  U  U6  1  0.15069400  0.06178800  0.35135000  1
  U  U7  1  0.34930600  0.56178800  0.85135000  1
  Cl  Cl0  1  0.79936400  0.18472000  0.91999000  1
  Cl  Cl1  1  0.70063600  0.68472000  0.41999000  1
  Cl  Cl2  1  0.20063600  0.81528000  0.08001000  1
  Cl  Cl3  1  0.29936400  0.31528000  0.58001000  1
  Cl  Cl4  1  0.28187200  0.80411600  0.57935700  1
  Cl  Cl5  1  0.21812800  0.30411600  0.07935700  1
  Cl  Cl6  1  0.71812800  0.19588400  0.42064300  1
  Cl  Cl7  1  0.78187200  0.69588400  0.92064300  1
  O  O0  1  0.81248300  0.02012800  0.78076100  1
  O  O1  1  0.68751700  0.52012800  0.28076100  1
  O  O2  1  0.18751700  0.97987200  0.21923900  1
  O  O3  1  0.31248300  0.47987200  0.71923900  1
  O  O4  1  0.27299800  0.97713400  0.71627000  1
  O  O5  1  0.22700200  0.47713400  0.21627000  1
  O  O6  1  0.72700200  0.02286600  0.28373000  1
  O  O7  1  0.77299800  0.52286600  0.78373000  1
  O  O8  1  0.29889900  0.19321400  0.79466600  1
  O  O9  1  0.20110100  0.69321400  0.29466600  1
  O  O10  1  0.70110100  0.80678600  0.20533400  1
  O  O11  1  0.79889900  0.30678600  0.70533400  1
  O  O12  1  0.15968100  0.91703600  0.90430100  1
  O  O13  1  0.34031900  0.41703600  0.40430100  1
  O  O14  1  0.84031900  0.08296400  0.09569900  1
  O  O15  1  0.65968100  0.58296400  0.59569900  1
  O  O16  1  0.92394200  0.07299400  0.59026900  1
  O  O17  1  0.57605800  0.57299400  0.09026900  1
  O  O18  1  0.07605800  0.92700600  0.40973100  1
  O  O19  1  0.42394200  0.42700600  0.90973100  1
  O  O20  1  0.79583400  0.80259300  0.70753300  1
  O  O21  1  0.70416600  0.30259300  0.20753300  1
  O  O22  1  0.20416600  0.19740700  0.29246700  1
  O  O23  1  0.29583400  0.69740700  0.79246700  1
  O  O24  1  0.63617600  0.95277700  0.82212400  1
  O  O25  1  0.86382400  0.45277700  0.32212400  1
  O  O26  1  0.36382400  0.04722300  0.17787600  1
  O  O27  1  0.13617600  0.54722300  0.67787600  1
  O  O28  1  0.53584500  0.09913400  0.93404700  1
  O  O29  1  0.96415500  0.59913400  0.43404700  1
  O  O30  1  0.46415500  0.90086600  0.06595300  1
  O  O31  1  0.03584500  0.40086600  0.56595300  1
  O  O32  1  0.44951800  0.04363200  0.67447300  1
  O  O33  1  0.05048200  0.54363200  0.17447300  1
  O  O34  1  0.55048200  0.95636800  0.32552700  1
  O  O35  1  0.94951800  0.45636800  0.82552700  1
  O  O36  1  0.55140600  0.88581600  0.56714200  1
  O  O37  1  0.94859400  0.38581600  0.06714200  1
  O  O38  1  0.44859400  0.11418400  0.43285800  1
  O  O39  1  0.05140600  0.61418400  0.93285800  1
loop_
_geom_bond_atom_site_label_1
_geom_bond_atom_site_label_2
_geom_bond_distance
_geom_bond_site_symmetry_2
Cl0 O28 1.643239 1_555
Cl0 U0 3.010384 1_655
Cl1 O29 1.643239 1_555
Cl1 U1 3.010384 1_555
Cl2 O30 1.643239 1_555
Cl2 U2 3.010384 1_455
Cl3 O31 1.643239 1_555
Cl3 U3 3.010384 1_555
Cl4 O36 1.640080 1_555
Cl4 U4 2.995932 1_455
Cl5 O37 1.640080 1_455
Cl5 U5 2.995932 1_555
Cl6 O38 1.640080 1_555
Cl6 U6 2.995932 1_655
Cl7 O39 1.640080 1_655
Cl7 U7 2.995932 1_555
O0 O24 1.338183 1_545
O0 U0 2.502753 1_655
O0 U4 2.641384 1_545
O1 O25 1.338183 1_555
O1 U1 2.502753 1_555
O1 U5 2.641384 1_555
O2 O26 1.338183 1_565
O2 U2 2.502753 1_455
O2 U6 2.641384 1_565
O3 U3 2.502753 1_555
O3 U7 2.641384 1_555
O4 U4 2.505186 1_455
O4 U0 2.623497 1_565
O5 U5 2.505186 1_555
O5 U1 2.623497 1_555
O6 U6 2.505186 1_655
O6 U2 2.623497 1_545
O7 U7 2.505186 1_555
O7 U3 2.623497 1_555
O8 U0 1.790998 1_555
O9 U1 1.790998 1_555
O10 U2 1.790998 1_555
O11 U3 1.790998 1_555
O12 U0 1.799082 1_565
O13 U1 1.799082 1_555
O14 U2 1.799082 1_545
O15 U3 1.799082 1_555
O16 U4 1.799149 1_545
O17 U5 1.799149 1_555
O18 U6 1.799149 1_565
O19 U7 1.799149 1_555
O20 U4 1.792206 1_555
O21 U5 1.792206 1_555
O22 U6 1.792206 1_555
O23 U7 1.792206 1_555
O24 U0 2.379899 1_565
O25 U1 2.379899 1_655
O26 U2 2.379899 1_545
O27 O3 1.338183 1_555
O27 U3 2.379899 1_455
O28 U0 2.233613 1_555
O29 U1 2.233613 1_655
O30 U2 2.233613 1_555
O31 U3 2.233613 1_455
O32 O4 1.337773 1_545
O32 U4 2.404711 1_545
O33 O5 1.337773 1_555
O33 U5 2.404711 1_455
O34 O6 1.337773 1_565
O34 U6 2.404711 1_565
O35 O7 1.337773 1_555
O35 U7 2.404711 1_655
O36 U4 2.213109 1_555
O37 U5 2.213109 1_555
O38 U6 2.213109 1_555
O39 U7 2.213109 1_555
