# generated using pymatgen
data_K2CrO4
_symmetry_space_group_name_H-M   'P 1'
_cell_length_a   8.32553600
_cell_length_b   6.04099800
_cell_length_c   11.72592719
_cell_angle_alpha   61.04473043
_cell_angle_beta   90.00000000
_cell_angle_gamma   90.00000000
_symmetry_Int_Tables_number   1
_chemical_formula_structural   K2CrO4
_chemical_formula_sum   'K8 Cr4 O16'
_cell_volume   516.03019301
_cell_formula_units_Z   4
loop_
 _symmetry_equiv_pos_site_id
 _symmetry_equiv_pos_as_xyz
  1  'x, y, z'
loop_
 _atom_site_type_symbol
 _atom_site_label
 _atom_site_symmetry_multiplicity
 _atom_site_fract_x
 _atom_site_fract_y
 _atom_site_fract_z
 _atom_site_occupancy
  K  K0  1  0.27152100  0.78455500  0.90704200  1
  K  K1  1  0.50882500  0.54990600  0.71346700  1
  K  K2  1  0.22847900  0.78455500  0.40704200  1
  K  K3  1  0.00882500  0.45009400  0.78653300  1
  K  K4  1  0.99117500  0.54990600  0.21346700  1
  K  K5  1  0.77152100  0.21544500  0.59295800  1
  K  K6  1  0.49117500  0.45009400  0.28653300  1
  K  K7  1  0.72847900  0.21544500  0.09295800  1
  Cr  Cr0  1  0.73309200  0.87068200  0.93392800  1
  Cr  Cr1  1  0.76690800  0.87068200  0.43392800  1
  Cr  Cr2  1  0.23309200  0.12931800  0.56607200  1
  Cr  Cr3  1  0.26690800  0.12931800  0.06607200  1
  O  O0  1  0.91267600  0.77313800  0.91500000  1
  O  O1  1  0.59306500  0.76299000  0.87200800  1
  O  O2  1  0.79844300  0.75802700  0.59317700  1
  O  O3  1  0.22910500  0.81240600  0.64089000  1
  O  O4  1  0.58732400  0.77313800  0.41500000  1
  O  O5  1  0.90693500  0.76299000  0.37200800  1
  O  O6  1  0.72910500  0.18759400  0.85911000  1
  O  O7  1  0.29844300  0.24197300  0.90682300  1
  O  O8  1  0.70155700  0.75802700  0.09317700  1
  O  O9  1  0.27089500  0.81240600  0.14089000  1
  O  O10  1  0.09306500  0.23701000  0.62799200  1
  O  O11  1  0.41267600  0.22686200  0.58500000  1
  O  O12  1  0.77089500  0.18759400  0.35911000  1
  O  O13  1  0.20155700  0.24197300  0.40682300  1
  O  O14  1  0.40693500  0.23701000  0.12799200  1
  O  O15  1  0.08732400  0.22686200  0.08500000  1
loop_
_geom_bond_atom_site_label_1
_geom_bond_atom_site_label_2
_geom_bond_distance
_geom_bond_site_symmetry_2
K0 O1 2.721033 1_555
K0 O7 2.771099 1_565
K0 O9 2.827378 1_556
K0 O0 2.988787 1_455
K0 O3 3.063411 1_555
K1 O3 2.712122 1_555
K1 O6 2.729694 1_555
K1 O7 2.754112 1_555
K1 O2 2.768965 1_555
K1 O1 2.814598 1_555
K1 O11 3.092703 1_555
K1 O4 3.150318 1_555
K2 O5 2.721033 1_455
K2 O13 2.771099 1_565
K2 O3 2.827378 1_555
K2 O4 2.988787 1_555
K2 O9 3.063411 1_555
K3 O6 2.712122 1_455
K3 O3 2.729694 1_555
K3 O2 2.754112 1_455
K3 O7 2.768965 1_555
K3 O10 2.814598 1_555
K3 O0 3.092703 1_455
K3 O15 3.150318 1_556
K4 O9 2.712122 1_655
K4 O12 2.729694 1_555
K4 O13 2.754112 1_655
K4 O8 2.768965 1_555
K4 O5 2.814598 1_555
K4 O15 3.092703 1_655
K4 O0 3.150318 1_554
K5 O10 2.721033 1_655
K5 O2 2.771099 1_545
K5 O12 2.827378 1_555
K5 O11 2.988787 1_555
K5 O6 3.063411 1_555
K6 O12 2.712122 1_555
K6 O9 2.729694 1_555
K6 O8 2.754112 1_555
K6 O13 2.768965 1_555
K6 O14 2.814598 1_555
K6 O4 3.092703 1_555
K6 O11 3.150318 1_555
K7 O14 2.721033 1_555
K7 O8 2.771099 1_545
K7 O6 2.827378 1_554
K7 O15 2.988787 1_655
K7 O12 3.063411 1_555
Cr0 O0 1.660888 1_555
Cr0 O1 1.663390 1_555
Cr0 O8 1.669901 1_556
Cr0 O6 1.676214 1_565
Cr1 O4 1.660888 1_555
Cr1 O5 1.663390 1_555
Cr1 O2 1.669901 1_555
Cr1 O12 1.676214 1_565
Cr2 O11 1.660888 1_555
Cr2 O10 1.663390 1_555
Cr2 O13 1.669901 1_555
Cr2 O3 1.676214 1_545
Cr3 O15 1.660888 1_555
Cr3 O14 1.663390 1_555
Cr3 O7 1.669901 1_554
Cr3 O9 1.676214 1_545
