# generated using pymatgen
data_Li2MgCr3Se3(SO8)3
_symmetry_space_group_name_H-M   'P 1'
_cell_length_a   8.54089900
_cell_length_b   8.56344363
_cell_length_c   9.08139748
_cell_angle_alpha   63.61232315
_cell_angle_beta   62.64458461
_cell_angle_gamma   60.82664455
_symmetry_Int_Tables_number   1
_chemical_formula_structural   Li2MgCr3Se3(SO8)3
_chemical_formula_sum   'Li2 Mg1 Cr3 Se3 S3 O24'
_cell_volume   493.84822280
_cell_formula_units_Z   1
loop_
 _symmetry_equiv_pos_site_id
 _symmetry_equiv_pos_as_xyz
  1  'x, y, z'
loop_
 _atom_site_type_symbol
 _atom_site_label
 _atom_site_symmetry_multiplicity
 _atom_site_fract_x
 _atom_site_fract_y
 _atom_site_fract_z
 _atom_site_occupancy
  Li  Li0  1  0.76921800  0.16963700  0.63405600  1
  Li  Li1  1  0.42205400  0.76073000  0.62405800  1
  Mg  Mg0  1  0.16732000  0.15251000  0.54111000  1
  Cr  Cr0  1  0.84525500  0.84934400  0.45231900  1
  Cr  Cr1  1  0.64469200  0.65413700  0.06868000  1
  Cr  Cr2  1  0.35185500  0.35181300  0.93186300  1
  Se  Se0  1  0.94568100  0.25489300  0.25233800  1
  Se  Se1  1  0.75776800  0.45853900  0.75165300  1
  Se  Se2  1  0.25635400  0.54464400  0.24627900  1
  S  S0  1  0.47023500  0.03096400  0.75032000  1
  S  S1  1  0.54664100  0.95403400  0.25396800  1
  S  S2  1  0.03017200  0.75667400  0.74346400  1
  O  O0  1  0.97719900  0.03204900  0.29353300  1
  O  O1  1  0.96009800  0.27514000  0.42145200  1
  O  O2  1  0.98003300  0.32141000  0.70481100  1
  O  O3  1  0.65927400  0.02446600  0.60800400  1
  O  O4  1  0.50805400  0.10177900  0.09972200  1
  O  O5  1  0.72864200  0.40221000  0.24222300  1
  O  O6  1  0.35219500  0.99671300  0.69724600  1
  O  O7  1  0.62010900  0.36508600  0.75818200  1
  O  O8  1  0.68868000  0.48466300  0.94456800  1
  O  O9  1  0.89480200  0.70172600  0.91426100  1
  O  O10  1  0.38316800  0.21979200  0.76970800  1
  O  O11  1  0.70011000  0.67019300  0.60237800  1
  O  O12  1  0.30231500  0.33830300  0.39143200  1
  O  O13  1  0.63608500  0.76536400  0.22639200  1
  O  O14  1  0.10572000  0.30273800  0.06675500  1
  O  O15  1  0.30124300  0.53115500  0.05263100  1
  O  O16  1  0.38523400  0.65524400  0.22694100  1
  O  O17  1  0.67960400  0.97790700  0.29917400  1
  O  O18  1  0.22636100  0.64381400  0.74799100  1
  O  O19  1  0.50346700  0.88873800  0.91165200  1
  O  O20  1  0.36898800  0.95594900  0.40537300  1
  O  O21  1  0.02692400  0.68018300  0.30035000  1
  O  O22  1  0.00749900  0.71994600  0.60842000  1
  O  O23  1  0.99925100  0.95821300  0.69749300  1
loop_
_geom_bond_atom_site_label_1
_geom_bond_atom_site_label_2
_geom_bond_distance
_geom_bond_site_symmetry_2
Li0 O7 1.993377 1_555
Li0 O3 2.021599 1_555
Li0 O23 2.028564 1_545
Li0 O1 2.048051 1_555
Li1 O18 1.990899 1_555
Li1 O20 2.020303 1_555
Li1 O11 2.047123 1_555
Li1 O6 2.129662 1_555
Mg0 O12 2.033251 1_555
Mg0 O2 2.081123 1_455
Mg0 O1 2.087396 1_455
Mg0 O20 2.094309 1_545
Mg0 O6 2.146167 1_545
Mg0 O23 2.280437 1_445
Cr0 O0 2.004319 1_565
Cr0 O21 2.007097 1_655
Cr0 O22 2.017361 1_655
Cr0 O17 2.019100 1_555
Cr0 O11 2.047117 1_555
Cr0 O3 2.066261 1_565
Cr1 O13 2.002885 1_555
Cr1 O16 2.010234 1_555
Cr1 O8 2.012715 1_554
Cr1 O5 2.039697 1_555
Cr1 O19 2.048489 1_554
Cr1 O9 2.069663 1_554
Cr2 O14 2.033116 1_556
Cr2 O15 2.040251 1_556
Cr2 O10 2.083593 1_555
Cr2 O7 2.126833 1_555
Cr2 O4 2.207029 1_556
Cr2 O18 2.347386 1_555
O0 Se0 1.676671 1_555
O1 Se0 1.683800 1_555
O2 Se1 1.640806 1_555
O3 S0 1.529346 1_555
O4 S1 1.453937 1_545
O5 Se0 1.676243 1_555
O6 S0 1.481640 1_565
O7 Se1 1.684449 1_555
O8 Se1 1.654434 1_555
O9 S2 1.482409 1_655
O10 S0 1.469418 1_555
O11 Se1 1.710162 1_555
O12 Se2 1.656165 1_555
O13 S1 1.495736 1_555
O14 Se0 1.640644 1_455
O15 Se2 1.664557 1_555
O16 Se2 1.682380 1_555
O17 S1 1.493106 1_555
O18 S2 1.480768 1_555
O19 S0 1.472930 1_565
O20 S1 1.507160 1_555
O21 Se2 1.683177 1_555
O22 S2 1.503643 1_555
O23 S2 1.496386 1_655
