# generated using pymatgen
data_LiMn2(BO3)2
_symmetry_space_group_name_H-M   'P 1'
_cell_length_a   9.10563200
_cell_length_b   9.13810740
_cell_length_c   10.32021023
_cell_angle_alpha   91.91283229
_cell_angle_beta   89.56139769
_cell_angle_gamma   119.73450528
_symmetry_Int_Tables_number   1
_chemical_formula_structural   LiMn2(BO3)2
_chemical_formula_sum   'Li6 Mn12 B12 O36'
_cell_volume   745.20589064
_cell_formula_units_Z   6
loop_
 _symmetry_equiv_pos_site_id
 _symmetry_equiv_pos_as_xyz
  1  'x, y, z'
loop_
 _atom_site_type_symbol
 _atom_site_label
 _atom_site_symmetry_multiplicity
 _atom_site_fract_x
 _atom_site_fract_y
 _atom_site_fract_z
 _atom_site_occupancy
  Li  Li0  1  0.27982500  0.58146700  0.32717100  1
  Li  Li1  1  0.96602000  0.89673900  0.89025800  1
  Li  Li2  1  0.27124400  0.57703700  0.83769800  1
  Li  Li3  1  0.05444400  0.09431700  0.59877900  1
  Li  Li4  1  0.63963800  0.24261500  0.32244100  1
  Li  Li5  1  0.59627100  0.21999900  0.84759700  1
  Mn  Mn0  1  0.73413600  0.78084100  0.12185500  1
  Mn  Mn1  1  0.63844200  0.90347700  0.86501300  1
  Mn  Mn2  1  0.25729100  0.91007100  0.37836600  1
  Mn  Mn3  1  0.39236000  0.46315800  0.61769400  1
  Mn  Mn4  1  0.06208100  0.74447600  0.62413000  1
  Mn  Mn5  1  0.03126200  0.42267700  0.12124600  1
  Mn  Mn6  1  0.92424300  0.54624900  0.87672000  1
  Mn  Mn7  1  0.61753100  0.58308000  0.36767600  1
  Mn  Mn8  1  0.94956000  0.19253800  0.36095500  1
  Mn  Mn9  1  0.70465900  0.11009100  0.60888400  1
  Mn  Mn10  1  0.39049000  0.10475100  0.11691800  1
  Mn  Mn11  1  0.28675400  0.24268800  0.87351200  1
  B  B0  1  0.73927700  0.78944700  0.62168500  1
  B  B1  1  0.59398300  0.89673400  0.36732500  1
  B  B2  1  0.28370100  0.88928400  0.85935500  1
  B  B3  1  0.06497500  0.78118500  0.11963700  1
  B  B4  1  0.39205900  0.44564100  0.13102200  1
  B  B5  1  0.94208900  0.54392100  0.36881300  1
  B  B6  1  0.04007100  0.42863000  0.62866000  1
  B  B7  1  0.60191300  0.55341800  0.87088500  1
  B  B8  1  0.94608600  0.22128200  0.87966400  1
  B  B9  1  0.73060100  0.10609400  0.11164400  1
  B  B10  1  0.29399900  0.22699700  0.38394800  1
  B  B11  1  0.36613900  0.11053400  0.63866300  1
  O  O0  1  0.65764800  0.94445300  0.05203600  1
  O  O1  1  0.69113500  0.82166400  0.32499900  1
  O  O2  1  0.65584200  0.87177200  0.67838700  1
  O  O3  1  0.69706800  0.72590800  0.90133700  1
  O  O4  1  0.42398500  0.81106400  0.37554600  1
  O  O5  1  0.26705300  0.95762900  0.56815100  1
  O  O6  1  0.38088600  0.81676200  0.85885900  1
  O  O7  1  0.21364400  0.86837700  0.19413200  1
  O  O8  1  0.43163300  0.48842000  0.83271100  1
  O  O9  1  0.11244900  0.80032100  0.81304900  1
  O  O10  1  0.97947100  0.85745800  0.07952400  1
  O  O11  1  0.28389800  0.50254000  0.15363500  1
  O  O12  1  0.37602900  0.39986600  0.41306700  1
  O  O13  1  0.90757600  0.85462300  0.63289600  1
  O  O14  1  0.05281700  0.69842800  0.43418500  1
  O  O15  1  0.20863900  0.52178500  0.65206300  1
  O  O16  1  0.01344200  0.61766300  0.07501000  1
  O  O17  1  0.02245800  0.45877900  0.31331600  1
  O  O18  1  0.94018200  0.50461000  0.66193800  1
  O  O19  1  0.03248300  0.39181600  0.92575000  1
  O  O20  1  0.63278000  0.63755500  0.55386500  1
  O  O21  1  0.12597600  0.12555600  0.40301900  1
  O  O22  1  0.77451500  0.48240900  0.36198400  1
  O  O23  1  0.96149600  0.26499400  0.57750300  1
  O  O24  1  0.67047600  0.45285300  0.87851300  1
  O  O25  1  0.02757900  0.13142800  0.86729900  1
  O  O26  1  0.55944200  0.52797400  0.18203900  1
  O  O27  1  0.90203200  0.17900900  0.15004600  1
  O  O28  1  0.77511900  0.15475200  0.84520200  1
  O  O29  1  0.64187600  0.18559400  0.13652200  1
  O  O30  1  0.68937400  0.06910900  0.40293800  1
  O  O31  1  0.52977200  0.17050900  0.66446400  1
  O  O32  1  0.34711800  0.29732900  0.05615700  1
  O  O33  1  0.39153200  0.15384900  0.34042000  1
  O  O34  1  0.28142600  0.19716100  0.68258800  1
  O  O35  1  0.34349500  0.05429600  0.90877400  1
loop_
_geom_bond_atom_site_label_1
_geom_bond_atom_site_label_2
_geom_bond_distance
_geom_bond_site_symmetry_2
Li0 O4 1.892734 1_555
Li0 O11 1.915275 1_555
Li0 O17 2.038996 1_555
Li0 O12 2.420583 1_555
Li1 O25 1.951699 1_665
Li1 O10 2.013249 1_556
Li1 O9 2.071513 1_655
Li1 O3 2.159360 1_555
Li2 O6 1.909247 1_555
Li2 O15 1.979087 1_555
Li2 O8 1.990106 1_555
Li2 O19 2.199858 1_555
Li3 O13 1.961797 1_445
Li3 O34 1.987301 1_555
Li3 O21 2.102665 1_555
Li3 O23 2.128896 1_455
Li4 O22 1.937764 1_555
Li4 O29 1.973984 1_555
Li4 O33 1.995505 1_555
Li4 O30 2.053062 1_555
Li5 O24 1.902066 1_555
Li5 O31 1.957546 1_555
Li5 O28 1.992429 1_555
Li5 O35 2.138586 1_555
Mn0 O10 2.031128 1_555
Mn0 O0 2.086175 1_555
Mn0 O26 2.165667 1_555
Mn0 O1 2.183542 1_555
Mn0 O3 2.304900 1_554
Mn1 O0 1.946306 1_556
Mn1 O2 1.955046 1_555
Mn1 O3 1.990326 1_555
Mn1 O28 2.013911 1_565
Mn1 O6 2.070615 1_555
Mn2 O7 1.931628 1_555
Mn2 O5 1.985066 1_555
Mn2 O33 1.989927 1_565
Mn2 O14 2.006197 1_555
Mn2 O4 2.117325 1_555
Mn3 O15 2.019572 1_555
Mn3 O20 2.086482 1_555
Mn3 O12 2.157371 1_555
Mn3 O8 2.236356 1_555
Mn3 O34 2.244984 1_555
Mn4 O18 1.955978 1_455
Mn4 O14 1.984718 1_555
Mn4 O9 1.996781 1_555
Mn4 O5 2.015841 1_555
Mn4 O13 2.096955 1_455
Mn5 O16 1.942570 1_555
Mn5 O27 1.967427 1_455
Mn5 O17 2.006125 1_555
Mn5 O19 2.028543 1_554
Mn5 O11 2.065519 1_555
Mn6 O24 2.027871 1_555
Mn6 O19 2.157315 1_655
Mn6 O16 2.164210 1_656
Mn6 O9 2.212887 1_655
Mn6 O18 2.252263 1_555
Mn7 O20 1.957280 1_555
Mn7 O26 1.972457 1_555
Mn7 O1 2.001648 1_555
Mn7 O22 2.047579 1_555
Mn7 O12 2.059783 1_555
Mn8 O21 2.036496 1_655
Mn8 O30 2.106894 1_555
Mn8 O27 2.209900 1_555
Mn8 O17 2.252644 1_655
Mn8 O23 2.297429 1_555
Mn9 O31 2.001691 1_555
Mn9 O23 2.076804 1_555
Mn9 O30 2.139313 1_555
Mn9 O2 2.143354 1_545
Mn9 O28 2.494786 1_555
Mn10 O29 2.036177 1_555
Mn10 O32 2.100700 1_555
Mn10 O7 2.130411 1_545
Mn10 O35 2.182253 1_554
Mn10 O33 2.334258 1_555
Mn11 O32 1.945559 1_556
Mn11 O34 1.996130 1_555
Mn11 O8 2.018938 1_555
Mn11 O25 2.055492 1_555
Mn11 O35 2.071257 1_555
B0 O13 1.345103 1_555
B0 O20 1.402561 1_555
B0 O2 1.419971 1_555
B1 O4 1.347786 1_555
B1 O30 1.407045 1_565
B1 O1 1.421276 1_555
B2 O6 1.343043 1_555
B2 O35 1.403148 1_565
B2 O9 1.431378 1_555
B3 O10 1.351233 1_455
B3 O16 1.388165 1_555
B3 O7 1.401276 1_555
B4 O11 1.338333 1_555
B4 O32 1.409256 1_555
B4 O26 1.419360 1_555
B5 O22 1.340671 1_555
B5 O17 1.413349 1_655
B5 O14 1.414180 1_655
B6 O15 1.354543 1_555
B6 O23 1.385078 1_455
B6 O18 1.425848 1_455
B7 O24 1.347282 1_555
B7 O3 1.396552 1_555
B7 O8 1.411475 1_555
B8 O25 1.355383 1_655
B8 O28 1.405281 1_555
B8 O19 1.419059 1_655
B9 O29 1.346464 1_555
B9 O0 1.404913 1_545
B9 O27 1.413442 1_555
B10 O21 1.356290 1_555
B10 O12 1.394617 1_555
B10 O33 1.414226 1_555
B11 O31 1.333271 1_555
B11 O5 1.409810 1_545
B11 O34 1.415465 1_555
