# generated using pymatgen
data_BaZn2As3HO11
_symmetry_space_group_name_H-M   'P 1'
_cell_length_a   8.35559900
_cell_length_b   10.08254900
_cell_length_c   12.04543308
_cell_angle_alpha   84.77262970
_cell_angle_beta   90.00000000
_cell_angle_gamma   90.00000000
_symmetry_Int_Tables_number   1
_chemical_formula_structural   BaZn2As3HO11
_chemical_formula_sum   'Ba4 Zn8 As12 H4 O44'
_cell_volume   1010.55591399
_cell_formula_units_Z   4
loop_
 _symmetry_equiv_pos_site_id
 _symmetry_equiv_pos_as_xyz
  1  'x, y, z'
loop_
 _atom_site_type_symbol
 _atom_site_label
 _atom_site_symmetry_multiplicity
 _atom_site_fract_x
 _atom_site_fract_y
 _atom_site_fract_z
 _atom_site_occupancy
  Ba  Ba0  1  0.03235600  0.00133100  0.21495800  1
  Ba  Ba1  1  0.46764400  0.50133100  0.21495800  1
  Ba  Ba2  1  0.53235600  0.49866900  0.78504200  1
  Ba  Ba3  1  0.96764400  0.99866900  0.78504200  1
  Zn  Zn0  1  0.81963900  0.29990400  0.28720100  1
  Zn  Zn1  1  0.68036100  0.79990400  0.28720100  1
  Zn  Zn2  1  0.31437900  0.00467900  0.45369800  1
  Zn  Zn3  1  0.18562100  0.50467900  0.45369800  1
  Zn  Zn4  1  0.81437900  0.49532100  0.54630200  1
  Zn  Zn5  1  0.68562100  0.99532100  0.54630200  1
  Zn  Zn6  1  0.31963900  0.20009600  0.71279900  1
  Zn  Zn7  1  0.18036100  0.70009600  0.71279900  1
  As  As0  1  0.85542300  0.28663700  0.99479000  1
  As  As1  1  0.64457700  0.78663700  0.99479000  1
  As  As2  1  0.52779100  0.10202200  0.22679800  1
  As  As3  1  0.97220900  0.60202200  0.22679800  1
  As  As4  1  0.51223300  0.29739200  0.49469500  1
  As  As5  1  0.01223300  0.20260800  0.50530500  1
  As  As6  1  0.98776700  0.79739200  0.49469500  1
  As  As7  1  0.48776700  0.70260800  0.50530500  1
  As  As8  1  0.02779100  0.39797800  0.77320200  1
  As  As9  1  0.47220900  0.89797800  0.77320200  1
  As  As10  1  0.35542300  0.21336300  0.00521000  1
  As  As11  1  0.14457700  0.71336300  0.00521000  1
  H  H0  1  0.23534900  0.00106800  0.01820300  1
  H  H1  1  0.26465100  0.50106800  0.01820300  1
  H  H2  1  0.73534900  0.49893200  0.98179700  1
  H  H3  1  0.76465100  0.99893200  0.98179700  1
  O  O0  1  0.69521400  0.40446900  0.99223400  1
  O  O1  1  0.80478600  0.90446900  0.99223400  1
  O  O2  1  0.50733400  0.11221600  0.07579800  1
  O  O3  1  0.30731600  0.33967500  0.07963300  1
  O  O4  1  0.99266600  0.61221600  0.07579800  1
  O  O5  1  0.19268400  0.83967500  0.07963300  1
  O  O6  1  0.91080300  0.24390000  0.12848200  1
  O  O7  1  0.58919700  0.74390000  0.12848200  1
  O  O8  1  0.59307400  0.25688600  0.25155900  1
  O  O9  1  0.81697900  0.49320400  0.24722500  1
  O  O10  1  0.34668400  0.05315200  0.28060000  1
  O  O11  1  0.90692600  0.75688600  0.25155900  1
  O  O12  1  0.68302100  0.99320400  0.24722500  1
  O  O13  1  0.15331600  0.55315200  0.28060000  1
  O  O14  1  0.97826600  0.18637800  0.36492800  1
  O  O15  1  0.52173400  0.68637800  0.36492800  1
  O  O16  1  0.36567900  0.37777400  0.41386700  1
  O  O17  1  0.13432100  0.87777400  0.41386700  1
  O  O18  1  0.69444800  0.36846100  0.45641600  1
  O  O19  1  0.52308700  0.12872800  0.47614800  1
  O  O20  1  0.80555200  0.86846100  0.45641600  1
  O  O21  1  0.97691300  0.62872800  0.47614800  1
  O  O22  1  0.02308700  0.37127200  0.52385200  1
  O  O23  1  0.19444800  0.13153900  0.54358400  1
  O  O24  1  0.47691300  0.87127200  0.52385200  1
  O  O25  1  0.30555200  0.63153900  0.54358400  1
  O  O26  1  0.86567900  0.12222600  0.58613300  1
  O  O27  1  0.63432100  0.62222600  0.58613300  1
  O  O28  1  0.47826600  0.31362200  0.63507200  1
  O  O29  1  0.02173400  0.81362200  0.63507200  1
  O  O30  1  0.84668400  0.44684800  0.71940000  1
  O  O31  1  0.09307400  0.24311400  0.74844100  1
  O  O32  1  0.65331600  0.94684800  0.71940000  1
  O  O33  1  0.18302100  0.50679600  0.75277500  1
  O  O34  1  0.40692600  0.74311400  0.74844100  1
  O  O35  1  0.31697900  0.00679600  0.75277500  1
  O  O36  1  0.41080300  0.25610000  0.87151800  1
  O  O37  1  0.08919700  0.75610000  0.87151800  1
  O  O38  1  0.80731600  0.16032500  0.92036700  1
  O  O39  1  0.00733400  0.38778400  0.92420200  1
  O  O40  1  0.69268400  0.66032500  0.92036700  1
  O  O41  1  0.49266600  0.88778400  0.92420200  1
  O  O42  1  0.19521400  0.09553100  0.00776600  1
  O  O43  1  0.30478600  0.59553100  0.00776600  1
loop_
_geom_bond_atom_site_label_1
_geom_bond_atom_site_label_2
_geom_bond_distance
_geom_bond_site_symmetry_2
Ba0 O11 2.677529 1_445
Ba0 O17 2.733950 1_545
Ba0 O14 2.750033 1_455
Ba0 O5 2.755429 1_545
Ba0 O6 2.762945 1_455
Ba0 O10 2.805606 1_555
Ba0 O42 2.924119 1_555
Ba0 O12 2.944821 1_445
Ba1 O8 2.677529 1_555
Ba1 O16 2.733950 1_555
Ba1 O15 2.750033 1_555
Ba1 O3 2.755429 1_555
Ba1 O7 2.762945 1_555
Ba1 O13 2.805606 1_555
Ba1 O43 2.924119 1_555
Ba1 O9 2.944821 1_555
Ba2 O34 2.677529 1_555
Ba2 O27 2.733950 1_555
Ba2 O28 2.750033 1_555
Ba2 O40 2.755429 1_555
Ba2 O36 2.762945 1_555
Ba2 O30 2.805606 1_555
Ba2 O0 2.924119 1_555
Ba2 O33 2.944821 1_555
Ba3 O31 2.677529 1_665
Ba3 O26 2.733950 1_565
Ba3 O29 2.750033 1_655
Ba3 O38 2.755429 1_565
Ba3 O37 2.762945 1_655
Ba3 O32 2.805606 1_555
Ba3 O1 2.924119 1_555
Ba3 O35 2.944821 1_665
As0 O38 1.671875 1_555
As0 O6 1.693125 1_556
As0 O0 1.788212 1_555
As0 O39 1.793354 1_655
As1 O40 1.671875 1_555
As1 O7 1.693125 1_556
As1 O1 1.788212 1_555
As1 O41 1.793354 1_555
As2 O10 1.701335 1_555
As2 O12 1.702183 1_545
As2 O8 1.705699 1_555
As2 O2 1.820431 1_555
As3 O13 1.701335 1_655
As3 O9 1.702183 1_555
As3 O11 1.705699 1_555
As3 O4 1.820431 1_555
As4 O16 1.720606 1_555
As4 O18 1.727398 1_555
As4 O28 1.736922 1_555
As4 O19 1.737607 1_555
As5 O26 1.720606 1_455
As5 O23 1.727398 1_555
As5 O14 1.736922 1_455
As5 O22 1.737607 1_555
As6 O17 1.720606 1_655
As6 O20 1.727398 1_555
As6 O29 1.736922 1_655
As6 O21 1.737607 1_555
As7 O27 1.720606 1_555
As7 O25 1.727398 1_555
As7 O15 1.736922 1_555
As7 O24 1.737607 1_555
As8 O30 1.701335 1_455
As8 O33 1.702183 1_555
As8 O31 1.705699 1_555
As8 O39 1.820431 1_555
As9 O32 1.701335 1_555
As9 O35 1.702183 1_565
As9 O34 1.705699 1_555
As9 O41 1.820431 1_555
As10 O3 1.671875 1_555
As10 O36 1.693125 1_554
As10 O42 1.788212 1_555
As10 O2 1.793354 1_555
As11 O5 1.671875 1_555
As11 O37 1.693125 1_554
As11 O43 1.788212 1_555
As11 O4 1.793354 1_455
H0 O42 1.006760 1_555
H1 O43 1.006760 1_555
H2 O0 1.006760 1_555
H3 O1 1.006760 1_555
O6 Zn0 2.179660 1_555
O7 Zn1 2.179660 1_555
O8 Zn0 1.997535 1_555
O9 Zn0 1.964635 1_555
O10 Zn2 2.115048 1_555
O11 Zn1 1.997535 1_555
O12 Zn1 1.964635 1_555
O13 Zn3 2.115048 1_555
O14 Zn0 1.936034 1_555
O15 Zn1 1.936034 1_555
O16 Zn3 2.059790 1_555
O17 Zn2 2.059790 1_565
O18 Zn4 2.016145 1_555
O18 Zn0 2.446073 1_555
O19 Zn5 2.039747 1_545
O19 Zn2 2.177200 1_555
O20 Zn5 2.016145 1_555
O20 Zn1 2.446073 1_555
O21 Zn4 2.039747 1_555
O21 Zn3 2.177200 1_655
O22 Zn3 2.039747 1_555
O22 Zn4 2.177200 1_455
O23 Zn2 2.016145 1_555
O23 Zn6 2.446073 1_555
O24 Zn2 2.039747 1_565
O24 Zn5 2.177200 1_555
O25 Zn3 2.016145 1_555
O25 Zn7 2.446073 1_555
O26 Zn5 2.059790 1_545
O27 Zn4 2.059790 1_555
O28 Zn6 1.936034 1_555
O29 Zn7 1.936034 1_555
O30 Zn4 2.115048 1_555
O31 Zn6 1.997535 1_555
O32 Zn5 2.115048 1_555
O33 Zn7 1.964635 1_555
O34 Zn7 1.997535 1_555
O35 Zn6 1.964635 1_555
O36 Zn6 2.179660 1_555
O37 Zn7 2.179660 1_555
