# generated using pymatgen
data_Li2CrCo3O8
_symmetry_space_group_name_H-M   'P 1'
_cell_length_a   8.12669661
_cell_length_b   8.12669661
_cell_length_c   8.14302690
_cell_angle_alpha   89.92239976
_cell_angle_beta   89.92239976
_cell_angle_gamma   89.86013165
_symmetry_Int_Tables_number   1
_chemical_formula_structural   Li2CrCo3O8
_chemical_formula_sum   'Li8 Cr4 Co12 O32'
_cell_volume   537.78894952
_cell_formula_units_Z   4
loop_
 _symmetry_equiv_pos_site_id
 _symmetry_equiv_pos_as_xyz
  1  'x, y, z'
loop_
 _atom_site_type_symbol
 _atom_site_label
 _atom_site_symmetry_multiplicity
 _atom_site_fract_x
 _atom_site_fract_y
 _atom_site_fract_z
 _atom_site_occupancy
  Li  Li0  1  0.99992500  0.25162000  0.87496500  1
  Li  Li1  1  0.74838000  0.00007500  0.12503500  1
  Li  Li2  1  0.25176300  0.99918800  0.62459700  1
  Li  Li3  1  0.00081200  0.74823700  0.37540300  1
  Li  Li4  1  0.50067700  0.74870300  0.87761200  1
  Li  Li5  1  0.75051600  0.49556300  0.62435000  1
  Li  Li6  1  0.25129700  0.49932300  0.12238800  1
  Li  Li7  1  0.50443700  0.24948400  0.37565000  1
  Cr  Cr0  1  0.12589300  0.12448800  0.25296400  1
  Cr  Cr1  1  0.87551200  0.87410700  0.74703600  1
  Cr  Cr2  1  0.37907200  0.62092800  0.50000000  1
  Cr  Cr3  1  0.62459100  0.37540900  0.00000000  1
  Co  Co0  1  0.87428500  0.12571500  0.50000000  1
  Co  Co1  1  0.62221100  0.12396200  0.74739500  1
  Co  Co2  1  0.37462100  0.12298100  0.99722800  1
  Co  Co3  1  0.62353600  0.87365800  0.49895000  1
  Co  Co4  1  0.37692500  0.87305200  0.24942500  1
  Co  Co5  1  0.12751400  0.87248600  0.00000000  1
  Co  Co6  1  0.62758600  0.62607100  0.24945100  1
  Co  Co7  1  0.87701900  0.62537900  0.00277200  1
  Co  Co8  1  0.12694800  0.62307500  0.75057500  1
  Co  Co9  1  0.87603800  0.37778900  0.25260500  1
  Co  Co10  1  0.12634200  0.37646400  0.50105000  1
  Co  Co11  1  0.37392900  0.37241400  0.75054900  1
  O  O0  1  0.88821200  0.13945000  0.26563500  1
  O  O1  1  0.11062700  0.13751000  0.49106400  1
  O  O2  1  0.38782100  0.13602300  0.76406400  1
  O  O3  1  0.86055000  0.11178800  0.73436500  1
  O  O4  1  0.60558700  0.12523700  0.97980800  1
  O  O5  1  0.63884600  0.11009800  0.51688500  1
  O  O6  1  0.36152400  0.11290600  0.23212300  1
  O  O7  1  0.14154200  0.10618500  0.00764000  1
  O  O8  1  0.86249000  0.88937300  0.50893600  1
  O  O9  1  0.63616100  0.89052300  0.73911100  1
  O  O10  1  0.36036200  0.88922100  0.01176600  1
  O  O11  1  0.38567800  0.85951300  0.48357400  1
  O  O12  1  0.13464200  0.88560000  0.23111800  1
  O  O13  1  0.61029400  0.86031800  0.26582200  1
  O  O14  1  0.89381500  0.85845800  0.99236000  1
  O  O15  1  0.11440000  0.86535800  0.76888200  1
  O  O16  1  0.61123100  0.63560000  0.48689800  1
  O  O17  1  0.39075600  0.63844600  0.25871900  1
  O  O18  1  0.11077900  0.63963800  0.98823400  1
  O  O19  1  0.64239700  0.61711900  0.01479900  1
  O  O20  1  0.88709400  0.63847600  0.76787700  1
  O  O21  1  0.86397700  0.61217900  0.23593600  1
  O  O22  1  0.14048700  0.61432200  0.51642600  1
  O  O23  1  0.36155400  0.60924400  0.74128100  1
  O  O24  1  0.64451300  0.38759600  0.24437400  1
  O  O25  1  0.87476300  0.39441300  0.02019200  1
  O  O26  1  0.13968200  0.38970600  0.73417800  1
  O  O27  1  0.10947700  0.36383900  0.26088900  1
  O  O28  1  0.36440000  0.38876900  0.51310200  1
  O  O29  1  0.88990200  0.36115400  0.48311500  1
  O  O30  1  0.61240400  0.35548700  0.75562600  1
  O  O31  1  0.38288100  0.35760300  0.98520100  1
loop_
_geom_bond_atom_site_label_1
_geom_bond_atom_site_label_2
_geom_bond_distance
_geom_bond_site_symmetry_2
Li0 O25 1.942787 1_556
Li0 O26 1.965393 1_655
Li0 O7 1.970255 1_656
Li0 O3 1.974436 1_555
Li1 O4 1.942787 1_554
Li1 O13 1.965393 1_545
Li1 O14 1.970255 1_544
Li1 O0 1.974436 1_555
Li2 O1 1.937852 1_565
Li2 O2 1.939526 1_565
Li2 O11 1.945673 1_555
Li2 O15 1.951499 1_555
Li3 O8 1.937852 1_455
Li3 O21 1.939526 1_455
Li3 O22 1.945673 1_555
Li3 O12 1.951499 1_555
Li4 O19 1.926689 1_556
Li4 O10 1.947139 1_556
Li4 O23 1.951469 1_555
Li4 O9 1.952406 1_555
Li5 O30 1.923029 1_555
Li5 O29 1.947500 1_555
Li5 O16 1.955213 1_555
Li5 O20 1.990041 1_555
Li6 O31 1.926689 1_554
Li6 O18 1.947139 1_554
Li6 O17 1.951469 1_555
Li6 O27 1.952406 1_555
Li7 O24 1.923029 1_555
Li7 O5 1.947500 1_555
Li7 O28 1.955213 1_555
Li7 O6 1.990041 1_555
Cr0 O6 1.924264 1_555
Cr0 O0 1.937707 1_455
Cr0 O1 1.945659 1_555
Cr0 O27 1.950527 1_555
Cr0 O12 1.950858 1_545
Cr0 O7 2.007249 1_555
Cr1 O20 1.924264 1_555
Cr1 O3 1.937707 1_565
Cr1 O8 1.945659 1_555
Cr1 O9 1.950527 1_555
Cr1 O15 1.950858 1_655
Cr1 O14 2.007249 1_555
Cr2 O16 1.893595 1_555
Cr2 O28 1.893595 1_555
Cr2 O11 1.944202 1_555
Cr2 O22 1.944202 1_555
Cr2 O23 1.971892 1_555
Cr2 O17 1.971892 1_555
Cr3 O31 1.973836 1_554
Cr3 O19 1.973836 1_555
Cr3 O30 1.999346 1_554
Cr3 O24 1.999346 1_555
Cr3 O25 2.046161 1_555
Cr3 O4 2.046161 1_554
Co0 O0 1.914762 1_555
Co0 O3 1.914762 1_555
Co0 O5 1.922580 1_555
Co0 O29 1.922580 1_555
Co0 O1 1.924577 1_655
Co0 O8 1.924577 1_545
Co1 O30 1.884306 1_555
Co1 O5 1.885231 1_555
Co1 O4 1.897219 1_555
Co1 O9 1.901479 1_545
Co1 O2 1.911748 1_555
Co1 O3 1.941957 1_555
Co2 O4 1.882284 1_555
Co2 O7 1.901175 1_556
Co2 O2 1.904367 1_555
Co2 O10 1.907018 1_546
Co2 O31 1.910422 1_555
Co2 O6 1.917221 1_556
Co3 O13 1.904810 1_555
Co3 O5 1.931543 1_565
Co3 O16 1.940075 1_555
Co3 O11 1.940917 1_555
Co3 O8 1.948228 1_555
Co3 O9 1.963458 1_555
Co4 O13 1.903946 1_555
Co4 O17 1.911011 1_555
Co4 O11 1.911115 1_555
Co4 O10 1.944366 1_555
Co4 O6 1.957828 1_565
Co4 O12 1.977170 1_555
Co5 O12 1.886135 1_555
Co5 O15 1.886135 1_554
Co5 O18 1.900053 1_554
Co5 O10 1.900053 1_555
Co5 O14 1.904003 1_454
Co5 O7 1.904003 1_565
Co6 O13 1.913309 1_555
Co6 O19 1.915871 1_555
Co6 O21 1.927122 1_555
Co6 O17 1.928407 1_555
Co6 O16 1.939559 1_555
Co6 O24 1.943047 1_555
Co7 O25 1.882284 1_555
Co7 O14 1.901175 1_554
Co7 O21 1.904367 1_555
Co7 O18 1.907018 1_654
Co7 O19 1.910422 1_555
Co7 O20 1.917221 1_554
Co8 O26 1.903946 1_555
Co8 O23 1.911011 1_555
Co8 O22 1.911115 1_555
Co8 O18 1.944366 1_555
Co8 O20 1.957828 1_455
Co8 O15 1.977170 1_555
Co9 O24 1.884306 1_555
Co9 O29 1.885231 1_555
Co9 O25 1.897219 1_555
Co9 O27 1.901479 1_655
Co9 O21 1.911748 1_555
Co9 O0 1.941957 1_555
Co10 O26 1.904810 1_555
Co10 O29 1.931543 1_455
Co10 O28 1.940075 1_555
Co10 O22 1.940917 1_555
Co10 O1 1.948228 1_555
Co10 O27 1.963458 1_555
Co11 O26 1.913309 1_555
Co11 O31 1.915871 1_555
Co11 O2 1.927122 1_555
Co11 O23 1.928407 1_555
Co11 O28 1.939559 1_555
Co11 O30 1.943047 1_555
