# generated using pymatgen
data_Li3Fe4(PO4)6
_symmetry_space_group_name_H-M   'P 1'
_cell_length_a   8.64030487
_cell_length_b   8.83092832
_cell_length_c   8.72625787
_cell_angle_alpha   60.35242479
_cell_angle_beta   59.98166425
_cell_angle_gamma   89.75254776
_symmetry_Int_Tables_number   1
_chemical_formula_structural   Li3Fe4(PO4)6
_chemical_formula_sum   'Li3 Fe4 P6 O24'
_cell_volume   474.16718433
_cell_formula_units_Z   1
loop_
 _symmetry_equiv_pos_site_id
 _symmetry_equiv_pos_as_xyz
  1  'x, y, z'
loop_
 _atom_site_type_symbol
 _atom_site_label
 _atom_site_symmetry_multiplicity
 _atom_site_fract_x
 _atom_site_fract_y
 _atom_site_fract_z
 _atom_site_occupancy
  Li  Li0  1  0.34728000  0.55482300  0.61666000  1
  Li  Li1  1  0.03093400  0.05019000  0.60523900  1
  Li  Li2  1  0.74129300  0.34294500  0.36124900  1
  Fe  Fe0  1  0.35209200  0.07094000  0.79985300  1
  Fe  Fe1  1  0.85414200  0.56893900  0.78841000  1
  Fe  Fe2  1  0.64795400  0.93386700  0.20199600  1
  Fe  Fe3  1  0.15601600  0.43542600  0.20106700  1
  P  P0  1  0.53132100  0.74149900  0.71777400  1
  P  P1  1  0.24682300  0.75602400  0.28471500  1
  P  P2  1  0.75558100  0.24140700  0.71709900  1
  P  P3  1  0.04105200  0.25851200  0.99629700  1
  P  P4  1  0.47463100  0.25540900  0.28090100  1
  P  P5  1  0.95542400  0.75254100  0.00258800  1
  O  O0  1  0.12100300  0.92802300  0.87312900  1
  O  O1  1  0.02747000  0.44573100  0.84563300  1
  O  O2  1  0.49053500  0.89873200  0.74498500  1
  O  O3  1  0.05875100  0.72815700  0.48012300  1
  O  O4  1  0.37048400  0.55530400  0.90346100  1
  O  O5  1  0.23437300  0.26256100  0.83007300  1
  O  O6  1  0.28890900  0.94397200  0.09193700  1
  O  O7  1  0.54798900  0.77217000  0.51860900  1
  O  O8  1  0.72346000  0.74026100  0.69107800  1
  O  O9  1  0.94708800  0.76524800  0.82152500  1
  O  O10  1  0.39904900  0.74902300  0.33029000  1
  O  O11  1  0.23670300  0.60333000  0.24937700  1
  O  O12  1  0.75940200  0.39943900  0.74619800  1
  O  O13  1  0.03761000  0.25775300  0.17619900  1
  O  O14  1  0.59921100  0.24116200  0.67805300  1
  O  O15  1  0.27733600  0.25710800  0.32519900  1
  O  O16  1  0.72606600  0.05395600  0.90277200  1
  O  O17  1  0.47422900  0.21845100  0.47432400  1
  O  O18  1  0.76764200  0.74754000  0.17512300  1
  O  O19  1  0.63518600  0.44207200  0.09134700  1
  O  O20  1  0.93879000  0.27231300  0.51652300  1
  O  O21  1  0.50681300  0.09968900  0.24708500  1
  O  O22  1  0.97861100  0.56863500  0.13701500  1
  O  O23  1  0.87782800  0.08949300  0.11347000  1
loop_
_geom_bond_atom_site_label_1
_geom_bond_atom_site_label_2
_geom_bond_distance
_geom_bond_site_symmetry_2
Li0 O10 2.008545 1_555
Li0 O7 2.083960 1_555
Li0 O5 2.128359 1_555
Li0 O1 2.269442 1_555
Li1 O20 2.044926 1_455
Li1 O15 2.062439 1_555
Li1 O9 2.089962 1_445
Li1 O0 2.559725 1_545
Li2 O14 2.028063 1_555
Li2 O22 2.041607 1_555
Li2 O17 2.043887 1_555
Fe0 O6 1.958915 1_546
Fe0 O0 1.983531 1_545
Fe0 O2 2.025935 1_545
Fe0 O14 2.030949 1_555
Fe0 O5 2.031217 1_555
Fe0 O17 2.057046 1_555
Fe1 O3 1.964748 1_655
Fe1 O1 1.967906 1_655
Fe1 O12 1.975869 1_555
Fe1 O19 1.976557 1_556
Fe1 O8 1.989674 1_555
Fe1 O9 2.115091 1_555
Fe2 O21 1.964905 1_565
Fe2 O23 1.966851 1_565
Fe2 O16 1.975210 1_564
Fe2 O18 1.989048 1_555
Fe2 O7 2.034273 1_555
Fe2 O10 2.087199 1_555
Fe3 O4 1.944447 1_554
Fe3 O11 1.945170 1_555
Fe3 O20 2.026389 1_455
Fe3 O13 2.031850 1_555
Fe3 O15 2.046013 1_555
Fe3 O22 2.058390 1_455
O0 P5 1.547429 1_456
O1 P3 1.574159 1_555
O2 P0 1.531918 1_555
O3 P1 1.557137 1_555
O4 P0 1.546364 1_555
O5 P3 1.555743 1_555
O6 P1 1.532247 1_555
O7 P0 1.548812 1_555
O8 P0 1.557517 1_555
O9 P5 1.566070 1_556
O10 P1 1.546057 1_555
O11 P1 1.536350 1_555
O12 P2 1.540310 1_555
O13 P3 1.551871 1_554
O14 P2 1.550125 1_555
O15 P4 1.549777 1_555
O16 P2 1.538570 1_555
O17 P4 1.550661 1_555
O18 P5 1.546578 1_555
O19 P4 1.550500 1_555
O20 P2 1.550074 1_555
O21 P4 1.539966 1_555
O22 P5 1.549617 1_555
O23 P3 1.525706 1_654
