# generated using pymatgen
data_Li3FeO3
_symmetry_space_group_name_H-M   'P 1'
_cell_length_a   5.88602600
_cell_length_b   5.90474000
_cell_length_c   8.42948800
_cell_angle_alpha   90.00000000
_cell_angle_beta   90.00000000
_cell_angle_gamma   90.00000000
_symmetry_Int_Tables_number   1
_chemical_formula_structural   Li3FeO3
_chemical_formula_sum   'Li12 Fe4 O12'
_cell_volume   292.97067537
_cell_formula_units_Z   4
loop_
 _symmetry_equiv_pos_site_id
 _symmetry_equiv_pos_as_xyz
  1  'x, y, z'
loop_
 _atom_site_type_symbol
 _atom_site_label
 _atom_site_symmetry_multiplicity
 _atom_site_fract_x
 _atom_site_fract_y
 _atom_site_fract_z
 _atom_site_occupancy
  Li  Li0  1  0.48252900  0.99442700  0.75133800  1
  Li  Li1  1  0.01747100  0.99442700  0.75133800  1
  Li  Li2  1  0.75000000  0.25550500  0.47576000  1
  Li  Li3  1  0.25000000  0.24449500  0.97576000  1
  Li  Li4  1  0.51747100  0.50557300  0.25133800  1
  Li  Li5  1  0.98252900  0.50557300  0.25133800  1
  Li  Li6  1  0.48252900  0.49442700  0.74866200  1
  Li  Li7  1  0.01747100  0.49442700  0.74866200  1
  Li  Li8  1  0.75000000  0.75550500  0.02424000  1
  Li  Li9  1  0.25000000  0.74449500  0.52424000  1
  Li  Li10  1  0.98252900  0.00557300  0.24866200  1
  Li  Li11  1  0.51747100  0.00557300  0.24866200  1
  Fe  Fe0  1  0.75000000  0.21898000  0.01718800  1
  Fe  Fe1  1  0.25000000  0.28102000  0.51718800  1
  Fe  Fe2  1  0.75000000  0.71898000  0.48281200  1
  Fe  Fe3  1  0.25000000  0.78102000  0.98281200  1
  O  O0  1  0.00000000  0.00000000  0.00000000  1
  O  O1  1  0.50000000  0.00000000  0.00000000  1
  O  O2  1  0.25000000  0.02305700  0.39024400  1
  O  O3  1  0.25000000  0.24001100  0.73778300  1
  O  O4  1  0.75000000  0.25998900  0.23778300  1
  O  O5  1  0.75000000  0.47694300  0.89024400  1
  O  O6  1  0.50000000  0.50000000  0.50000000  1
  O  O7  1  0.00000000  0.50000000  0.50000000  1
  O  O8  1  0.25000000  0.52305700  0.10975600  1
  O  O9  1  0.25000000  0.74001100  0.76221700  1
  O  O10  1  0.75000000  0.75998900  0.26221700  1
  O  O11  1  0.75000000  0.97694300  0.60975600  1
loop_
_geom_bond_atom_site_label_1
_geom_bond_atom_site_label_2
_geom_bond_distance
_geom_bond_site_symmetry_2
Li0 O11 1.978273 1_555
Li0 O3 1.997282 1_565
Li0 O9 2.034320 1_555
Li0 O1 2.098872 1_566
Li1 O11 1.978273 1_455
Li1 O3 1.997282 1_565
Li1 O9 2.034320 1_555
Li1 O0 2.098872 1_566
Li2 O11 1.995319 1_545
Li2 O4 2.006199 1_555
Li2 O7 2.071544 1_655
Li2 O6 2.071544 1_555
Li3 O8 1.995319 1_556
Li3 O3 2.006199 1_555
Li3 O1 2.071544 1_556
Li3 O0 2.071544 1_556
Li4 O8 1.978273 1_555
Li4 O4 1.997282 1_555
Li4 O10 2.034320 1_555
Li4 O6 2.098872 1_555
Li5 O8 1.978273 1_655
Li5 O4 1.997282 1_555
Li5 O10 2.034320 1_555
Li5 O7 2.098872 1_655
Li6 O5 1.978273 1_555
Li6 O9 1.997282 1_555
Li6 O3 2.034320 1_555
Li6 O6 2.098872 1_555
Li7 O5 1.978273 1_455
Li7 O9 1.997282 1_555
Li7 O3 2.034320 1_555
Li7 O7 2.098872 1_555
Li8 O5 1.995319 1_554
Li8 O10 2.006199 1_555
Li8 O1 2.071544 1_565
Li8 O0 2.071544 1_665
Li9 O2 1.995319 1_565
Li9 O9 2.006199 1_555
Li9 O7 2.071544 1_555
Li9 O6 2.071544 1_555
Li10 O2 1.978273 1_655
Li10 O10 1.997282 1_545
Li10 O4 2.034320 1_555
Li10 O0 2.098872 1_655
Li11 O2 1.978273 1_555
Li11 O10 1.997282 1_545
Li11 O4 2.034320 1_555
Li11 O1 2.098872 1_555
Fe0 O5 1.861507 1_554
Fe0 O4 1.875203 1_555
Fe0 O0 1.964236 1_655
Fe0 O1 1.964236 1_555
Fe1 O2 1.861507 1_555
Fe1 O3 1.875203 1_555
Fe1 O7 1.964236 1_555
Fe1 O6 1.964236 1_555
Fe2 O11 1.861507 1_555
Fe2 O10 1.875203 1_555
Fe2 O7 1.964236 1_655
Fe2 O6 1.964236 1_555
Fe3 O8 1.861507 1_556
Fe3 O9 1.875203 1_555
Fe3 O0 1.964236 1_566
Fe3 O1 1.964236 1_566
