# generated using pymatgen
data_LiNiPO4
_symmetry_space_group_name_H-M   'P 1'
_cell_length_a   5.65493800
_cell_length_b   5.65496000
_cell_length_c   7.99006700
_cell_angle_alpha   89.99996836
_cell_angle_beta   89.99999283
_cell_angle_gamma   90.00000000
_symmetry_Int_Tables_number   1
_chemical_formula_structural   LiNiPO4
_chemical_formula_sum   'Li4 Ni4 P4 O16'
_cell_volume   255.50994361
_cell_formula_units_Z   4
loop_
 _symmetry_equiv_pos_site_id
 _symmetry_equiv_pos_as_xyz
  1  'x, y, z'
loop_
 _atom_site_type_symbol
 _atom_site_label
 _atom_site_symmetry_multiplicity
 _atom_site_fract_x
 _atom_site_fract_y
 _atom_site_fract_z
 _atom_site_occupancy
  Li  Li0  1  0.00000000  0.22846100  0.00000000  1
  Li  Li1  1  0.99999900  0.77153800  0.50000000  1
  Li  Li2  1  0.22846000  0.00000000  0.25000000  1
  Li  Li3  1  0.77153800  0.00000000  0.75000000  1
  Ni  Ni0  1  0.23795200  0.50000500  0.25000000  1
  Ni  Ni1  1  0.50000300  0.23794600  0.99999400  1
  Ni  Ni2  1  0.49999800  0.76205600  0.49999800  1
  Ni  Ni3  1  0.76205300  0.50000300  0.75000300  1
  P  P0  1  0.25366100  0.25366100  0.62500100  1
  P  P1  1  0.25366100  0.74633700  0.87500000  1
  P  P2  1  0.74634000  0.25366200  0.37500100  1
  P  P3  1  0.74634000  0.74633700  0.12500000  1
  O  O0  1  0.97123200  0.25405600  0.26319100  1
  O  O1  1  0.97123100  0.74594300  0.23680900  1
  O  O2  1  0.25405600  0.97123000  0.98681000  1
  O  O3  1  0.25405500  0.02876900  0.51319100  1
  O  O4  1  0.25436200  0.51828000  0.98961900  1
  O  O5  1  0.25436100  0.48171900  0.51038100  1
  O  O6  1  0.51828100  0.25436000  0.26038100  1
  O  O7  1  0.51828100  0.74563800  0.23961900  1
  O  O8  1  0.48171900  0.25436200  0.73961900  1
  O  O9  1  0.48171800  0.74563800  0.76038000  1
  O  O10  1  0.74563600  0.48171900  0.48961900  1
  O  O11  1  0.74563700  0.51828000  0.01038200  1
  O  O12  1  0.74594500  0.02876900  0.48680900  1
  O  O13  1  0.74594400  0.97122900  0.01319100  1
  O  O14  1  0.02876800  0.25405500  0.73680900  1
  O  O15  1  0.02876800  0.74594400  0.76319200  1
loop_
_geom_bond_atom_site_label_1
_geom_bond_atom_site_label_2
_geom_bond_distance
_geom_bond_site_symmetry_2
Li0 O2 2.047213 1_544
Li0 O13 2.047218 1_445
Li0 O14 2.114157 1_554
Li0 O0 2.114157 1_455
Li0 O4 2.182182 1_554
Li0 O11 2.182186 1_455
Li1 O12 2.047206 1_565
Li1 O3 2.047214 1_665
Li1 O1 2.114157 1_555
Li1 O15 2.114165 1_655
Li1 O5 2.182182 1_655
Li1 O10 2.182186 1_555
Li2 O0 2.047201 1_455
Li2 O1 2.047209 1_445
Li2 O2 2.114151 1_544
Li2 O3 2.114158 1_555
Li2 O6 2.182182 1_555
Li2 O7 2.182190 1_545
Li3 O14 2.047205 1_655
Li3 O15 2.047210 1_645
Li3 O12 2.114157 1_555
Li3 O13 2.114158 1_546
Li3 O8 2.182181 1_555
Li3 O9 2.182185 1_545
Ni0 O1 2.054334 1_455
Ni0 O0 2.054372 1_455
Ni0 O4 2.085093 1_554
Ni0 O5 2.085096 1_555
Ni0 O7 2.109341 1_555
Ni0 O6 2.109386 1_555
Ni1 O13 2.054332 1_546
Ni1 O2 2.054346 1_545
Ni1 O8 2.085049 1_555
Ni1 O6 2.085143 1_556
Ni1 O11 2.109370 1_556
Ni1 O4 2.109392 1_555
Ni2 O3 2.054322 1_565
Ni2 O12 2.054335 1_565
Ni2 O7 2.085081 1_555
Ni2 O9 2.085104 1_555
Ni2 O5 2.109392 1_555
Ni2 O10 2.109394 1_555
Ni3 O15 2.054320 1_655
Ni3 O14 2.054349 1_655
Ni3 O11 2.085079 1_556
Ni3 O10 2.085121 1_555
Ni3 O9 2.109373 1_555
Ni3 O8 2.109393 1_555
O0 P2 1.554176 1_555
O1 P3 1.554167 1_555
O2 P1 1.554185 1_555
O3 P0 1.554180 1_555
O4 P1 1.581750 1_555
O5 P0 1.581760 1_555
O6 P2 1.581761 1_555
O7 P3 1.581756 1_555
O8 P0 1.581747 1_555
O9 P1 1.581751 1_555
O10 P2 1.581747 1_555
O11 P3 1.581747 1_555
O12 P2 1.554175 1_555
O13 P3 1.554175 1_555
O14 P0 1.554171 1_555
O15 P1 1.554171 1_555
