# generated using pymatgen
data_LiFe2(BO3)2
_symmetry_space_group_name_H-M   'P 1'
_cell_length_a   5.30137100
_cell_length_b   9.03847116
_cell_length_c   10.10322204
_cell_angle_alpha   89.79208585
_cell_angle_beta   88.18513943
_cell_angle_gamma   89.87600709
_symmetry_Int_Tables_number   1
_chemical_formula_structural   LiFe2(BO3)2
_chemical_formula_sum   'Li4 Fe8 B8 O24'
_cell_volume   483.86186492
_cell_formula_units_Z   4
loop_
 _symmetry_equiv_pos_site_id
 _symmetry_equiv_pos_as_xyz
  1  'x, y, z'
loop_
 _atom_site_type_symbol
 _atom_site_label
 _atom_site_symmetry_multiplicity
 _atom_site_fract_x
 _atom_site_fract_y
 _atom_site_fract_z
 _atom_site_occupancy
  Li  Li0  1  0.33938600  0.98751400  0.15817200  1
  Li  Li1  1  0.66096600  0.00038000  0.90459000  1
  Li  Li2  1  0.15742400  0.49869400  0.90472900  1
  Li  Li3  1  0.64508600  0.00521300  0.41738700  1
  Fe  Fe0  1  0.16491000  0.84217900  0.87899400  1
  Fe  Fe1  1  0.84310000  0.82839700  0.63232200  1
  Fe  Fe2  1  0.33159800  0.64934000  0.13416200  1
  Fe  Fe3  1  0.66666300  0.66085200  0.37300200  1
  Fe  Fe4  1  0.33464000  0.33312900  0.63030700  1
  Fe  Fe5  1  0.14907700  0.16680400  0.38479200  1
  Fe  Fe6  1  0.66633000  0.34585300  0.87499500  1
  Fe  Fe7  1  0.84111600  0.17379700  0.12849300  1
  B  B0  1  0.17439500  0.82804200  0.37763600  1
  B  B1  1  0.33778800  0.66966100  0.62611900  1
  B  B2  1  0.83812900  0.83984400  0.13366100  1
  B  B3  1  0.66300300  0.67038900  0.87769400  1
  B  B4  1  0.32646800  0.32166300  0.11986600  1
  B  B5  1  0.65546300  0.33144700  0.37620800  1
  B  B6  1  0.17002000  0.16936400  0.87994000  1
  B  B7  1  0.82819100  0.16605500  0.62849500  1
  O  O0  1  0.29468200  0.96250100  0.36322100  1
  O  O1  1  0.09281600  0.83428200  0.09897100  1
  O  O2  1  0.70456900  0.97341200  0.11829400  1
  O  O3  1  0.19325600  0.79346100  0.66188000  1
  O  O4  1  0.30080300  0.69718900  0.34962500  1
  O  O5  1  0.77430300  0.80789300  0.83380600  1
  O  O6  1  0.91488700  0.82380900  0.41739800  1
  O  O7  1  0.40926100  0.67118200  0.91738000  1
  O  O8  1  0.24473100  0.53274100  0.64535800  1
  O  O9  1  0.58626800  0.69190900  0.57526000  1
  O  O10  1  0.70237700  0.71860600  0.17965200  1
  O  O11  1  0.19922200  0.44907600  0.10426600  1
  O  O12  1  0.80754000  0.54714300  0.87909900  1
  O  O13  1  0.27288300  0.30366800  0.83624500  1
  O  O14  1  0.41869100  0.31457700  0.43479200  1
  O  O15  1  0.77367400  0.46368200  0.36513300  1
  O  O16  1  0.58120900  0.30964500  0.08321700  1
  O  O17  1  0.07835300  0.18727900  0.59145400  1
  O  O18  1  0.20306100  0.19123000  0.16535300  1
  O  O19  1  0.68212600  0.28250800  0.67360600  1
  O  O20  1  0.77688300  0.19922100  0.33000600  1
  O  O21  1  0.31250200  0.04354300  0.88681800  1
  O  O22  1  0.91328200  0.16771400  0.92211600  1
  O  O23  1  0.72526500  0.02632800  0.61358200  1
loop_
_geom_bond_atom_site_label_1
_geom_bond_atom_site_label_2
_geom_bond_distance
_geom_bond_site_symmetry_2
Li0 O2 1.968871 1_555
Li0 O18 1.977316 1_565
Li0 O1 2.011954 1_555
Li0 O0 2.089203 1_555
Li1 O21 1.901177 1_555
Li1 O5 1.968908 1_545
Li1 O22 2.033168 1_555
Li1 O2 2.191370 1_546
Li2 O12 1.930135 1_455
Li2 O13 1.984437 1_555
Li2 O7 2.061701 1_555
Li2 O11 2.082223 1_556
Li3 O0 1.992060 1_545
Li3 O23 2.050045 1_555
Li3 O20 2.073032 1_555
Li3 O6 2.173476 1_545
Fe0 O21 1.985464 1_565
Fe0 O7 2.058152 1_555
Fe0 O5 2.157816 1_455
Fe0 O3 2.239194 1_555
Fe0 O1 2.244044 1_556
Fe1 O23 1.904410 1_565
Fe1 O3 1.914852 1_655
Fe1 O9 1.941710 1_555
Fe1 O5 2.064392 1_555
Fe1 O6 2.193144 1_555
Fe2 O11 1.970533 1_555
Fe2 O10 2.128742 1_555
Fe2 O1 2.130282 1_555
Fe2 O4 2.221818 1_555
Fe2 O7 2.223858 1_554
Fe3 O15 1.870264 1_555
Fe3 O4 1.987772 1_555
Fe3 O10 2.023348 1_555
Fe3 O6 2.037844 1_555
Fe3 O9 2.093955 1_555
Fe4 O8 1.870583 1_555
Fe4 O17 1.945040 1_555
Fe4 O19 1.959637 1_555
Fe4 O14 2.018645 1_555
Fe4 O13 2.111956 1_555
Fe5 O0 2.009804 1_545
Fe5 O14 2.034942 1_555
Fe5 O20 2.085906 1_455
Fe5 O17 2.118322 1_555
Fe5 O18 2.236615 1_555
Fe6 O12 1.969921 1_555
Fe6 O19 2.114754 1_555
Fe6 O22 2.134909 1_555
Fe6 O16 2.161448 1_556
Fe6 O13 2.169216 1_555
Fe7 O16 1.908903 1_555
Fe7 O2 1.956204 1_545
Fe7 O18 1.972896 1_655
Fe7 O20 2.067104 1_555
Fe7 O22 2.108822 1_554
B0 O0 1.378769 1_555
B0 O4 1.383822 1_555
B0 O6 1.421492 1_455
B1 O8 1.344434 1_555
B1 O3 1.396923 1_555
B1 O9 1.413234 1_555
B2 O10 1.383171 1_555
B2 O1 1.385005 1_655
B2 O2 1.408828 1_555
B3 O12 1.350966 1_555
B3 O7 1.391454 1_555
B3 O5 1.439438 1_555
B4 O11 1.344685 1_555
B4 O16 1.393080 1_555
B4 O18 1.417538 1_555
B5 O15 1.353361 1_555
B5 O14 1.379226 1_555
B5 O20 1.429067 1_555
B6 O21 1.366641 1_555
B6 O13 1.396260 1_555
B6 O22 1.413363 1_455
B7 O19 1.375794 1_555
B7 O17 1.380147 1_655
B7 O23 1.387432 1_555
