# generated using pymatgen
data_Li2ErPCO7
_symmetry_space_group_name_H-M   'P 1'
_cell_length_a   6.73949800
_cell_length_b   4.90761600
_cell_length_c   9.08848462
_cell_angle_alpha   86.65094486
_cell_angle_beta   90.00000000
_cell_angle_gamma   90.00000000
_symmetry_Int_Tables_number   1
_chemical_formula_structural   Li2ErPCO7
_chemical_formula_sum   'Li4 Er2 P2 C2 O14'
_cell_volume   300.08705556
_cell_formula_units_Z   2
loop_
 _symmetry_equiv_pos_site_id
 _symmetry_equiv_pos_as_xyz
  1  'x, y, z'
loop_
 _atom_site_type_symbol
 _atom_site_label
 _atom_site_symmetry_multiplicity
 _atom_site_fract_x
 _atom_site_fract_y
 _atom_site_fract_z
 _atom_site_occupancy
  Li  Li0  1  0.51358400  0.79698200  0.79933100  1
  Li  Li1  1  0.98641600  0.79698200  0.79933100  1
  Li  Li2  1  0.48641600  0.20301800  0.20066900  1
  Li  Li3  1  0.01358400  0.20301800  0.20066900  1
  Er  Er0  1  0.25000000  0.25711200  0.63652900  1
  Er  Er1  1  0.75000000  0.74288800  0.36347100  1
  P  P0  1  0.75000000  0.27533600  0.59277700  1
  P  P1  1  0.25000000  0.72466400  0.40722300  1
  C  C0  1  0.25000000  0.25786300  0.93650300  1
  C  C1  1  0.75000000  0.74213700  0.06349700  1
  O  O0  1  0.75000000  0.72774800  0.92442300  1
  O  O1  1  0.25000000  0.02489400  0.87182100  1
  O  O2  1  0.25000000  0.47905200  0.84530000  1
  O  O3  1  0.93583600  0.14601500  0.66645100  1
  O  O4  1  0.56416400  0.14601500  0.66645100  1
  O  O5  1  0.25000000  0.76762700  0.57744600  1
  O  O6  1  0.75000000  0.59051900  0.60305300  1
  O  O7  1  0.25000000  0.40948100  0.39694700  1
  O  O8  1  0.75000000  0.23237300  0.42255400  1
  O  O9  1  0.43583600  0.85398500  0.33354900  1
  O  O10  1  0.06416400  0.85398500  0.33354900  1
  O  O11  1  0.75000000  0.52094800  0.15470000  1
  O  O12  1  0.75000000  0.97510600  0.12817900  1
  O  O13  1  0.25000000  0.27225200  0.07557700  1
loop_
_geom_bond_atom_site_label_1
_geom_bond_atom_site_label_2
_geom_bond_distance
_geom_bond_site_symmetry_2
Li0 O0 1.975230 1_555
Li0 O4 2.065693 1_565
Li0 O1 2.219658 1_565
Li0 O2 2.385065 1_555
Li1 O0 1.975230 1_555
Li1 O3 2.065693 1_565
Li1 O1 2.219658 1_665
Li1 O2 2.385065 1_655
Li2 O13 1.975230 1_555
Li2 O9 2.065693 1_545
Li2 O12 2.219658 1_545
Li2 O11 2.385065 1_555
Li3 O13 1.975230 1_555
Li3 O10 2.065693 1_545
Li3 O12 2.219658 1_445
Li3 O11 2.385065 1_455
Er0 O3 2.199293 1_455
Er0 O4 2.199293 1_555
Er0 O2 2.242317 1_555
Er0 O7 2.260565 1_555
Er0 O1 2.363682 1_555
Er0 O5 2.491915 1_545
Er0 O5 2.531451 1_555
Er1 O10 2.199293 1_655
Er1 O9 2.199293 1_555
Er1 O11 2.242317 1_555
Er1 O6 2.260565 1_555
Er1 O12 2.363682 1_555
Er1 O8 2.491915 1_565
Er1 O8 2.531451 1_555
C0 O13 1.270055 1_556
C0 O1 1.315787 1_555
C0 O2 1.326754 1_555
C1 O0 1.270055 1_554
C1 O12 1.315787 1_555
C1 O11 1.326754 1_555
O3 P0 1.539511 1_555
O4 P0 1.539511 1_555
O5 P1 1.573528 1_555
O6 P0 1.555051 1_555
O7 P1 1.555051 1_555
O8 P0 1.573528 1_555
O9 P1 1.539511 1_555
O10 P1 1.539511 1_555
