# generated using pymatgen
data_Li2Mn2F7
_symmetry_space_group_name_H-M   'P 1'
_cell_length_a   5.48469700
_cell_length_b   6.85647376
_cell_length_c   8.45638641
_cell_angle_alpha   109.28429041
_cell_angle_beta   103.58098714
_cell_angle_gamma   85.56657524
_symmetry_Int_Tables_number   1
_chemical_formula_structural   Li2Mn2F7
_chemical_formula_sum   'Li4 Mn4 F14'
_cell_volume   291.77228307
_cell_formula_units_Z   2
loop_
 _symmetry_equiv_pos_site_id
 _symmetry_equiv_pos_as_xyz
  1  'x, y, z'
loop_
 _atom_site_type_symbol
 _atom_site_label
 _atom_site_symmetry_multiplicity
 _atom_site_fract_x
 _atom_site_fract_y
 _atom_site_fract_z
 _atom_site_occupancy
  Li  Li0  1  0.67511400  0.25129800  0.90645700  1
  Li  Li1  1  0.13094000  0.00524500  0.73090900  1
  Li  Li2  1  0.86906000  0.99475500  0.26909100  1
  Li  Li3  1  0.32488600  0.74870200  0.09354300  1
  Mn  Mn0  1  0.71825100  0.72813700  0.82563700  1
  Mn  Mn1  1  0.19807700  0.47426500  0.66653300  1
  Mn  Mn2  1  0.80192300  0.52573500  0.33346700  1
  Mn  Mn3  1  0.28174900  0.27186300  0.17436300  1
  F  F0  1  0.36116900  0.17441900  0.95127000  1
  F  F1  1  0.08734800  0.60927000  0.89468900  1
  F  F2  1  0.57601500  0.45007200  0.78780400  1
  F  F3  1  0.08108500  0.19671600  0.61942300  1
  F  F4  1  0.33114400  0.75843900  0.70043200  1
  F  F5  1  0.83441300  0.98854300  0.82556000  1
  F  F6  1  0.80565200  0.60369600  0.59495500  1
  F  F7  1  0.19434800  0.39630400  0.40504500  1
  F  F8  1  0.16558700  0.01145700  0.17444000  1
  F  F9  1  0.66885600  0.24156100  0.29956800  1
  F  F10  1  0.91891500  0.80328400  0.38057700  1
  F  F11  1  0.42398500  0.54992800  0.21219600  1
  F  F12  1  0.91265200  0.39073000  0.10531100  1
  F  F13  1  0.63883100  0.82558100  0.04873000  1
loop_
_geom_bond_atom_site_label_1
_geom_bond_atom_site_label_2
_geom_bond_distance
_geom_bond_site_symmetry_2
F0 Mn3 1.924485 1_556
F0 Li0 1.991254 1_555
F0 Li1 2.026351 1_555
F1 Li3 1.881717 1_556
F1 Mn1 2.057161 1_555
F1 Mn0 2.146499 1_455
F2 Li0 1.921522 1_555
F2 Mn0 2.013878 1_555
F2 Mn1 2.106387 1_555
F3 Li1 1.824282 1_555
F3 Mn1 1.939036 1_555
F4 Li1 1.921803 1_565
F4 Mn1 2.040560 1_555
F4 Mn0 2.166421 1_555
F5 Li0 1.923622 1_565
F5 Mn0 1.941812 1_555
F5 Li1 1.999875 1_665
F6 Mn0 2.009908 1_555
F6 Mn2 2.091764 1_555
F6 Mn1 2.287821 1_655
F7 Mn3 2.009908 1_555
F7 Mn1 2.091764 1_555
F7 Mn2 2.287821 1_455
F8 Li3 1.923622 1_545
F8 Mn3 1.941812 1_555
F8 Li2 1.999875 1_445
F9 Li2 1.921803 1_545
F9 Mn2 2.040560 1_555
F9 Mn3 2.166421 1_555
F10 Li2 1.824282 1_555
F10 Mn2 1.939036 1_555
F11 Li3 1.921522 1_555
F11 Mn3 2.013878 1_555
F11 Mn2 2.106387 1_555
F12 Li0 1.881717 1_554
F12 Mn2 2.057161 1_555
F12 Mn3 2.146499 1_655
F13 Mn0 1.924485 1_554
F13 Li3 1.991254 1_555
F13 Li2 2.026351 1_555
