# generated using pymatgen
data_NaMnPCO7
_symmetry_space_group_name_H-M   'P 1'
_cell_length_a   6.25515600
_cell_length_b   9.08028500
_cell_length_c   10.44533744
_cell_angle_alpha   88.12737015
_cell_angle_beta   90.00000000
_cell_angle_gamma   90.00000000
_symmetry_Int_Tables_number   1
_chemical_formula_structural   NaMnPCO7
_chemical_formula_sum   'Na4 Mn4 P4 C4 O28'
_cell_volume   592.96368718
_cell_formula_units_Z   4
loop_
 _symmetry_equiv_pos_site_id
 _symmetry_equiv_pos_as_xyz
  1  'x, y, z'
loop_
 _atom_site_type_symbol
 _atom_site_label
 _atom_site_symmetry_multiplicity
 _atom_site_fract_x
 _atom_site_fract_y
 _atom_site_fract_z
 _atom_site_occupancy
  Na  Na0  1  0.03045300  0.24044900  0.37429100  1
  Na  Na1  1  0.46954700  0.24044900  0.87429100  1
  Na  Na2  1  0.96954700  0.75955100  0.62570900  1
  Na  Na3  1  0.53045300  0.75955100  0.12570900  1
  Mn  Mn0  1  0.74987800  0.34218500  0.64138900  1
  Mn  Mn1  1  0.75012200  0.34218500  0.14138900  1
  Mn  Mn2  1  0.25012200  0.65781500  0.35861100  1
  Mn  Mn3  1  0.24987800  0.65781500  0.85861100  1
  P  P0  1  0.24880000  0.43299000  0.60862700  1
  P  P1  1  0.25120000  0.43299000  0.10862700  1
  P  P2  1  0.75120000  0.56701000  0.39137300  1
  P  P3  1  0.74880000  0.56701000  0.89137300  1
  C  C0  1  0.74024800  0.07734200  0.61479500  1
  C  C1  1  0.75975200  0.07734200  0.11479500  1
  C  C2  1  0.25975200  0.92265800  0.38520500  1
  C  C3  1  0.24024800  0.92265800  0.88520500  1
  O  O0  1  0.26244300  0.05613300  0.40012600  1
  O  O1  1  0.23755700  0.05613300  0.90012600  1
  O  O2  1  0.73883600  0.14200000  0.72619300  1
  O  O3  1  0.76116400  0.14200000  0.22619300  1
  O  O4  1  0.74700200  0.17844000  0.51995400  1
  O  O5  1  0.75299800  0.17844000  0.01995400  1
  O  O6  1  0.05634100  0.32834900  0.63432300  1
  O  O7  1  0.44091800  0.33350100  0.64691700  1
  O  O8  1  0.05908200  0.33350100  0.14691700  1
  O  O9  1  0.44365900  0.32834900  0.13432300  1
  O  O10  1  0.25079400  0.47569900  0.46311700  1
  O  O11  1  0.75973200  0.42591700  0.31436400  1
  O  O12  1  0.24920600  0.47569900  0.96311700  1
  O  O13  1  0.74026800  0.42591700  0.81436400  1
  O  O14  1  0.24026800  0.57408300  0.68563600  1
  O  O15  1  0.74920600  0.52430100  0.53688300  1
  O  O16  1  0.25973200  0.57408300  0.18563600  1
  O  O17  1  0.75079400  0.52430100  0.03688300  1
  O  O18  1  0.55908200  0.66649900  0.35308300  1
  O  O19  1  0.94365900  0.67165100  0.36567700  1
  O  O20  1  0.55634100  0.67165100  0.86567700  1
  O  O21  1  0.94091800  0.66649900  0.85308300  1
  O  O22  1  0.25299800  0.82156000  0.48004600  1
  O  O23  1  0.24700200  0.82156000  0.98004600  1
  O  O24  1  0.26116400  0.85800000  0.27380700  1
  O  O25  1  0.23883600  0.85800000  0.77380700  1
  O  O26  1  0.73755700  0.94386700  0.59987400  1
  O  O27  1  0.76244300  0.94386700  0.09987400  1
loop_
_geom_bond_atom_site_label_1
_geom_bond_atom_site_label_2
_geom_bond_distance
_geom_bond_site_symmetry_2
Na0 O0 2.224898 1_555
Na0 O4 2.391577 1_455
Na0 O11 2.454942 1_455
Na0 O3 2.473838 1_455
Na0 O8 2.501091 1_555
Na0 O10 2.730033 1_555
Na0 O6 2.860468 1_555
Na1 O1 2.224898 1_555
Na1 O5 2.391577 1_556
Na1 O13 2.454942 1_555
Na1 O2 2.473838 1_555
Na1 O7 2.501091 1_555
Na1 O12 2.730033 1_555
Na1 O9 2.860468 1_556
Na2 O26 2.224898 1_555
Na2 O22 2.391577 1_655
Na2 O14 2.454942 1_655
Na2 O25 2.473838 1_655
Na2 O21 2.501091 1_555
Na2 O15 2.730033 1_555
Na2 O19 2.860468 1_555
Na3 O27 2.224898 1_555
Na3 O23 2.391577 1_554
Na3 O16 2.454942 1_555
Na3 O24 2.473838 1_555
Na3 O18 2.501091 1_555
Na3 O17 2.730033 1_555
Na3 O20 2.860468 1_554
Mn0 O6 1.922661 1_655
Mn0 O7 1.934986 1_555
Mn0 O15 1.951472 1_555
Mn0 O13 1.983917 1_555
Mn0 O4 1.985755 1_555
Mn0 O2 1.997087 1_555
Mn1 O9 1.922661 1_555
Mn1 O8 1.934986 1_655
Mn1 O17 1.951472 1_555
Mn1 O11 1.983917 1_555
Mn1 O5 1.985755 1_555
Mn1 O3 1.997087 1_555
Mn2 O19 1.922661 1_455
Mn2 O18 1.934986 1_555
Mn2 O10 1.951472 1_555
Mn2 O16 1.983917 1_555
Mn2 O22 1.985755 1_555
Mn2 O24 1.997087 1_555
Mn3 O20 1.922661 1_555
Mn3 O21 1.934986 1_455
Mn3 O12 1.951472 1_555
Mn3 O14 1.983917 1_555
Mn3 O23 1.985755 1_555
Mn3 O25 1.997087 1_555
C0 O26 1.227127 1_545
C0 O2 1.320367 1_555
C0 O4 1.329079 1_555
C1 O27 1.227127 1_545
C1 O3 1.320367 1_555
C1 O5 1.329079 1_555
C2 O0 1.227127 1_565
C2 O24 1.320367 1_555
C2 O22 1.329079 1_555
C3 O1 1.227127 1_565
C3 O25 1.320367 1_555
C3 O23 1.329079 1_555
O6 P0 1.551605 1_555
O7 P0 1.548098 1_555
O8 P1 1.548098 1_555
O9 P1 1.551605 1_555
O10 P0 1.556319 1_555
O11 P2 1.535779 1_555
O12 P1 1.556319 1_556
O13 P3 1.535779 1_555
O14 P0 1.535779 1_555
O15 P2 1.556319 1_555
O16 P1 1.535779 1_555
O17 P3 1.556319 1_554
O18 P2 1.548098 1_555
O19 P2 1.551605 1_555
O20 P3 1.551605 1_555
O21 P3 1.548098 1_555
