# generated using pymatgen
data_Ba(GaSe2)2
_symmetry_space_group_name_H-M   'P 1'
_cell_length_a   6.52941491
_cell_length_b   6.52941486
_cell_length_c   11.50654136
_cell_angle_alpha   90.00000000
_cell_angle_beta   90.00000000
_cell_angle_gamma   122.28531449
_symmetry_Int_Tables_number   1
_chemical_formula_structural   Ba(GaSe2)2
_chemical_formula_sum   'Ba2 Ga4 Se8'
_cell_volume   414.71996410
_cell_formula_units_Z   2
loop_
 _symmetry_equiv_pos_site_id
 _symmetry_equiv_pos_as_xyz
  1  'x, y, z'
loop_
 _atom_site_type_symbol
 _atom_site_label
 _atom_site_symmetry_multiplicity
 _atom_site_fract_x
 _atom_site_fract_y
 _atom_site_fract_z
 _atom_site_occupancy
  Ba  Ba0  1  0.50000000  0.50000000  0.25000000  1
  Ba  Ba1  1  0.50000000  0.50000000  0.75000000  1
  Ga  Ga0  1  0.24292574  0.75890264  0.50000000  1
  Ga  Ga1  1  0.75707426  0.24109736  0.50000000  1
  Ga  Ga2  1  0.24109736  0.75707426  -0.00000000  1
  Ga  Ga3  1  0.75890264  0.24292574  0.00000000  1
  Se  Se0  1  0.50000000  0.00000000  0.33949579  1
  Se  Se1  1  0.00000000  0.50000000  0.16050421  1
  Se  Se2  1  0.64920945  0.82795378  -0.00000000  1
  Se  Se3  1  0.35079055  0.17204622  -0.00000000  1
  Se  Se4  1  0.82795378  0.64920945  0.50000000  1
  Se  Se5  1  0.17204622  0.35079055  0.50000000  1
  Se  Se6  1  0.50000000  0.00000000  0.66050421  1
  Se  Se7  1  0.00000000  0.50000000  0.83949579  1
loop_
_geom_bond_atom_site_label_1
_geom_bond_atom_site_label_2
_geom_bond_distance
_geom_bond_site_symmetry_2
Ba0 Se3 3.403076 1_555
Ba0 Se2 3.403076 1_555
Ba0 Se5 3.403076 1_555
Ba0 Se4 3.403076 1_555
Ba0 Se0 3.423270 1_565
Ba0 Se0 3.423270 1_555
Ba0 Se1 3.423270 1_555
Ba0 Se1 3.423270 1_655
Ba1 Se3 3.403076 1_556
Ba1 Se2 3.403076 1_556
Ba1 Se5 3.403076 1_555
Ba1 Se4 3.403076 1_555
Ba1 Se6 3.423270 1_555
Ba1 Se6 3.423270 1_565
Ba1 Se7 3.423270 1_655
Ba1 Se7 3.423270 1_555
Ga0 Se4 2.404448 1_455
Ga0 Se0 2.425642 1_565
Ga0 Se6 2.425642 1_565
Ga0 Se5 2.448990 1_555
Ga1 Se5 2.404448 1_655
Ga1 Se0 2.425642 1_555
Ga1 Se6 2.425642 1_555
Ga1 Se4 2.448990 1_555
Ga2 Se3 2.404448 1_565
Ga2 Se1 2.425642 1_555
Ga2 Se7 2.425642 1_554
Ga2 Se2 2.448990 1_555
Ga3 Se2 2.404448 1_545
Ga3 Se1 2.425642 1_655
Ga3 Se7 2.425642 1_654
Ga3 Se3 2.448990 1_555
