# generated using pymatgen
data_V6O7F5
_symmetry_space_group_name_H-M   'P 1'
_cell_length_a   4.65724400
_cell_length_b   5.62058713
_cell_length_c   7.81130627
_cell_angle_alpha   86.32027299
_cell_angle_beta   88.84276946
_cell_angle_gamma   89.00992803
_symmetry_Int_Tables_number   1
_chemical_formula_structural   V6O7F5
_chemical_formula_sum   'V6 O7 F5'
_cell_volume   203.98289583
_cell_formula_units_Z   1
loop_
 _symmetry_equiv_pos_site_id
 _symmetry_equiv_pos_as_xyz
  1  'x, y, z'
loop_
 _atom_site_type_symbol
 _atom_site_label
 _atom_site_symmetry_multiplicity
 _atom_site_fract_x
 _atom_site_fract_y
 _atom_site_fract_z
 _atom_site_occupancy
  V  V0  1  0.52245200  0.82841700  0.64470700  1
  V  V1  1  0.49439000  0.49791400  0.99599700  1
  V  V2  1  0.50220100  0.18258300  0.35812400  1
  V  V3  1  0.00288500  0.33801700  0.67285000  1
  V  V4  1  0.97480700  0.64389600  0.31647900  1
  V  V5  1  0.00518000  0.00357000  0.00309900  1
  O  O0  1  0.80683200  0.37402700  0.43699700  1
  O  O1  1  0.80677300  0.70452700  0.09842600  1
  O  O2  1  0.68787300  0.53997900  0.76886700  1
  O  O3  1  0.71772100  0.86346500  0.42566800  1
  O  O4  1  0.30587900  0.12832400  0.57656500  1
  O  O5  1  0.29224700  0.47107900  0.23539700  1
  O  O6  1  0.18618700  0.29186100  0.90740900  1
  F  F0  1  0.79832600  0.03482200  0.77252300  1
  F  F1  1  0.69269600  0.19537300  0.11016700  1
  F  F2  1  0.29653500  0.80289400  0.88727600  1
  F  F3  1  0.21070900  0.96373100  0.23338700  1
  F  F4  1  0.19630700  0.63551500  0.55605900  1
loop_
_geom_bond_atom_site_label_1
_geom_bond_atom_site_label_2
_geom_bond_distance
_geom_bond_site_symmetry_2
O0 V4 1.904457 1_555
O0 V2 1.929611 1_555
O0 V3 2.069419 1_655
O1 V4 1.897323 1_555
O1 V5 2.024503 1_665
O1 V1 2.080863 1_554
O2 V1 1.975991 1_555
O2 V0 1.986856 1_555
O2 V3 2.002676 1_655
O3 V0 1.921815 1_555
O3 V4 1.930499 1_555
O3 V2 2.083424 1_565
O4 V2 1.928809 1_555
O4 V3 1.989837 1_555
O4 V0 1.997461 1_545
O5 V4 1.876646 1_455
O5 V2 2.070746 1_555
O5 V1 2.074519 1_554
O6 V5 1.939385 1_556
O6 V1 2.020118 1_555
O6 V3 2.036563 1_555
F0 V5 2.055851 1_656
F0 V0 2.060446 1_545
F0 V3 2.067292 1_655
F1 V5 1.997983 1_655
F1 V1 2.079471 1_554
F1 V2 2.111549 1_555
F2 V5 1.990087 1_566
F2 V1 2.073366 1_555
F2 V0 2.146531 1_555
F3 V5 2.052479 1_565
F3 V2 2.137846 1_565
F3 V4 2.179353 1_455
F4 V0 2.039110 1_555
F4 V3 2.064644 1_555
F4 V4 2.152584 1_455
