# generated using pymatgen
data_Ba2YBr7
_symmetry_space_group_name_H-M   'P 1'
_cell_length_a   8.20914100
_cell_length_b   13.66924800
_cell_length_c   15.29706800
_cell_angle_alpha   90.00000000
_cell_angle_beta   90.00000000
_cell_angle_gamma   90.00000000
_symmetry_Int_Tables_number   1
_chemical_formula_structural   Ba2YBr7
_chemical_formula_sum   'Ba8 Y4 Br28'
_cell_volume   1716.52659032
_cell_formula_units_Z   4
loop_
 _symmetry_equiv_pos_site_id
 _symmetry_equiv_pos_as_xyz
  1  'x, y, z'
loop_
 _atom_site_type_symbol
 _atom_site_label
 _atom_site_symmetry_multiplicity
 _atom_site_fract_x
 _atom_site_fract_y
 _atom_site_fract_z
 _atom_site_occupancy
  Ba  Ba0  1  0.25000000  0.24052400  0.47096100  1
  Ba  Ba1  1  0.25000000  0.25329100  0.77007700  1
  Ba  Ba2  1  0.75000000  0.24670900  0.27007700  1
  Ba  Ba3  1  0.75000000  0.25947600  0.97096100  1
  Ba  Ba4  1  0.25000000  0.74052400  0.02903900  1
  Ba  Ba5  1  0.25000000  0.75329100  0.72992300  1
  Ba  Ba6  1  0.75000000  0.74670900  0.22992300  1
  Ba  Ba7  1  0.75000000  0.75947600  0.52903900  1
  Y  Y0  1  0.25000000  0.93862500  0.28696300  1
  Y  Y1  1  0.75000000  0.56137500  0.78696300  1
  Y  Y2  1  0.25000000  0.43862500  0.21303700  1
  Y  Y3  1  0.75000000  0.06137500  0.71303700  1
  Br  Br0  1  0.75000000  0.10185200  0.11657300  1
  Br  Br1  1  0.02944100  0.08766300  0.34775600  1
  Br  Br2  1  0.47055900  0.08766300  0.34775600  1
  Br  Br3  1  0.96634700  0.10541900  0.85330200  1
  Br  Br4  1  0.53365300  0.10541900  0.85330200  1
  Br  Br5  1  0.96851400  0.18268800  0.62298800  1
  Br  Br6  1  0.53148600  0.18268800  0.62298800  1
  Br  Br7  1  0.03148600  0.31731200  0.12298800  1
  Br  Br8  1  0.46851400  0.31731200  0.12298800  1
  Br  Br9  1  0.03365300  0.39458100  0.35330200  1
  Br  Br10  1  0.46634700  0.39458100  0.35330200  1
  Br  Br11  1  0.52944100  0.41233700  0.84775600  1
  Br  Br12  1  0.97055900  0.41233700  0.84775600  1
  Br  Br13  1  0.25000000  0.39814800  0.61657300  1
  Br  Br14  1  0.75000000  0.60185200  0.38342700  1
  Br  Br15  1  0.02944100  0.58766300  0.15224400  1
  Br  Br16  1  0.47055900  0.58766300  0.15224400  1
  Br  Br17  1  0.96634700  0.60541900  0.64669800  1
  Br  Br18  1  0.53365300  0.60541900  0.64669800  1
  Br  Br19  1  0.96851400  0.68268800  0.87701200  1
  Br  Br20  1  0.53148600  0.68268800  0.87701200  1
  Br  Br21  1  0.46851400  0.81731200  0.37701200  1
  Br  Br22  1  0.03148600  0.81731200  0.37701200  1
  Br  Br23  1  0.46634700  0.89458100  0.14669800  1
  Br  Br24  1  0.03365300  0.89458100  0.14669800  1
  Br  Br25  1  0.52944100  0.91233700  0.65224400  1
  Br  Br26  1  0.97055900  0.91233700  0.65224400  1
  Br  Br27  1  0.25000000  0.89814800  0.88342700  1
loop_
_geom_bond_atom_site_label_1
_geom_bond_atom_site_label_2
_geom_bond_distance
_geom_bond_site_symmetry_2
Ba0 Br13 3.098997 1_555
Ba0 Br9 3.290631 1_555
Ba0 Br10 3.290631 1_555
Ba0 Br2 3.346082 1_555
Ba0 Br1 3.346082 1_555
Ba0 Br6 3.372369 1_555
Ba0 Br5 3.372369 1_455
Ba1 Br13 3.071580 1_555
Ba1 Br4 3.335950 1_555
Ba1 Br3 3.335950 1_455
Ba1 Br5 3.366547 1_455
Ba1 Br6 3.366547 1_555
Ba1 Br12 3.376494 1_455
Ba1 Br11 3.376494 1_555
Ba2 Br0 3.071580 1_555
Ba2 Br10 3.335950 1_555
Ba2 Br9 3.335950 1_655
Ba2 Br7 3.366547 1_655
Ba2 Br8 3.366547 1_555
Ba2 Br2 3.376494 1_555
Ba2 Br1 3.376494 1_655
Ba3 Br0 3.098997 1_556
Ba3 Br3 3.290631 1_555
Ba3 Br4 3.290631 1_555
Ba3 Br12 3.346082 1_555
Ba3 Br11 3.346082 1_555
Ba3 Br7 3.372369 1_656
Ba3 Br8 3.372369 1_556
Ba4 Br27 3.098997 1_554
Ba4 Br24 3.290631 1_555
Ba4 Br23 3.290631 1_555
Ba4 Br16 3.346082 1_555
Ba4 Br15 3.346082 1_555
Ba4 Br20 3.372369 1_554
Ba4 Br19 3.372369 1_454
Ba5 Br27 3.071580 1_555
Ba5 Br17 3.335950 1_455
Ba5 Br18 3.335950 1_555
Ba5 Br20 3.366547 1_555
Ba5 Br19 3.366547 1_455
Ba5 Br26 3.376494 1_455
Ba5 Br25 3.376494 1_555
Ba6 Br14 3.071580 1_555
Ba6 Br23 3.335950 1_555
Ba6 Br24 3.335950 1_655
Ba6 Br22 3.366547 1_655
Ba6 Br21 3.366547 1_555
Ba6 Br16 3.376494 1_555
Ba6 Br15 3.376494 1_655
Ba7 Br14 3.098997 1_555
Ba7 Br17 3.290631 1_555
Ba7 Br18 3.290631 1_555
Ba7 Br26 3.346082 1_555
Ba7 Br25 3.346082 1_555
Ba7 Br22 3.372369 1_655
Ba7 Br21 3.372369 1_555
Br1 Y0 2.879831 1_545
Br2 Y0 2.879831 1_545
Br3 Y3 2.849650 1_555
Br4 Y3 2.849650 1_555
Br5 Y3 2.804469 1_555
Br6 Y3 2.804469 1_555
Br7 Y2 2.804469 1_555
Br8 Y2 2.804469 1_555
Br9 Y2 2.849650 1_555
Br10 Y2 2.849650 1_555
Br11 Y1 2.879831 1_555
Br12 Y1 2.879831 1_555
Br15 Y2 2.879831 1_555
Br16 Y2 2.879831 1_555
Br17 Y1 2.849650 1_555
Br18 Y1 2.849650 1_555
Br19 Y1 2.804469 1_555
Br20 Y1 2.804469 1_555
Br21 Y0 2.804469 1_555
Br22 Y0 2.804469 1_555
Br23 Y0 2.849650 1_555
Br24 Y0 2.849650 1_555
Br25 Y3 2.879831 1_565
Br26 Y3 2.879831 1_565
