# generated using pymatgen
data_Li2Ni2(SO4)3
_symmetry_space_group_name_H-M   'P 1'
_cell_length_a   8.56775600
_cell_length_b   8.67255000
_cell_length_c   23.74973800
_cell_angle_alpha   90.00000000
_cell_angle_beta   90.00000000
_cell_angle_gamma   90.00000000
_symmetry_Int_Tables_number   1
_chemical_formula_structural   Li2Ni2(SO4)3
_chemical_formula_sum   'Li16 Ni16 S24 O96'
_cell_volume   1764.70747435
_cell_formula_units_Z   8
loop_
 _symmetry_equiv_pos_site_id
 _symmetry_equiv_pos_as_xyz
  1  'x, y, z'
loop_
 _atom_site_type_symbol
 _atom_site_label
 _atom_site_symmetry_multiplicity
 _atom_site_fract_x
 _atom_site_fract_y
 _atom_site_fract_z
 _atom_site_occupancy
  Li  Li0  1  0.03706300  0.62251000  0.29061800  1
  Li  Li1  1  0.03706300  0.87749000  0.79061800  1
  Li  Li2  1  0.14623600  0.93134800  0.00906000  1
  Li  Li3  1  0.14623600  0.56865200  0.50906000  1
  Li  Li4  1  0.35376400  0.06865200  0.50906000  1
  Li  Li5  1  0.35376400  0.43134800  0.00906000  1
  Li  Li6  1  0.46293700  0.12251000  0.29061800  1
  Li  Li7  1  0.46293700  0.37749000  0.79061800  1
  Li  Li8  1  0.53706300  0.62251000  0.20938200  1
  Li  Li9  1  0.53706300  0.87749000  0.70938200  1
  Li  Li10  1  0.64623600  0.56865200  0.99094000  1
  Li  Li11  1  0.64623600  0.93134800  0.49094000  1
  Li  Li12  1  0.85376400  0.43134800  0.49094000  1
  Li  Li13  1  0.85376400  0.06865200  0.99094000  1
  Li  Li14  1  0.96293700  0.12251000  0.20938200  1
  Li  Li15  1  0.96293700  0.37749000  0.70938200  1
  Ni  Ni0  1  0.00494600  0.39966000  0.06290500  1
  Ni  Ni1  1  0.00494600  0.10034000  0.56290500  1
  Ni  Ni2  1  0.99806800  0.79695400  0.17911600  1
  Ni  Ni3  1  0.99806800  0.70304600  0.67911600  1
  Ni  Ni4  1  0.50193200  0.29695400  0.17911600  1
  Ni  Ni5  1  0.50193200  0.20304600  0.67911600  1
  Ni  Ni6  1  0.49505400  0.60034000  0.56290500  1
  Ni  Ni7  1  0.49505400  0.89966000  0.06290500  1
  Ni  Ni8  1  0.50494600  0.39966000  0.43709500  1
  Ni  Ni9  1  0.50494600  0.10034000  0.93709500  1
  Ni  Ni10  1  0.49806800  0.70304600  0.82088400  1
  Ni  Ni11  1  0.49806800  0.79695400  0.32088400  1
  Ni  Ni12  1  0.00193200  0.29695400  0.32088400  1
  Ni  Ni13  1  0.00193200  0.20304600  0.82088400  1
  Ni  Ni14  1  0.99505400  0.89966000  0.43709500  1
  Ni  Ni15  1  0.99505400  0.60034000  0.93709500  1
  S  S0  1  0.14336100  0.94725300  0.30004200  1
  S  S1  1  0.14336100  0.55274700  0.80004200  1
  S  S2  1  0.14856100  0.25388800  0.44663200  1
  S  S3  1  0.14856100  0.24611200  0.94663200  1
  S  S4  1  0.19717700  0.09387700  0.11650600  1
  S  S5  1  0.19717700  0.40612300  0.61650600  1
  S  S6  1  0.30282300  0.59387700  0.11650600  1
  S  S7  1  0.30282300  0.90612300  0.61650600  1
  S  S8  1  0.35143900  0.75388800  0.44663200  1
  S  S9  1  0.35143900  0.74611200  0.94663200  1
  S  S10  1  0.35663900  0.44725300  0.30004200  1
  S  S11  1  0.35663900  0.05274700  0.80004200  1
  S  S12  1  0.64336100  0.55274700  0.69995800  1
  S  S13  1  0.64336100  0.94725300  0.19995800  1
  S  S14  1  0.64856100  0.25388800  0.05336800  1
  S  S15  1  0.64856100  0.24611200  0.55336800  1
  S  S16  1  0.69717700  0.09387700  0.38349400  1
  S  S17  1  0.69717700  0.40612300  0.88349400  1
  S  S18  1  0.80282300  0.59387700  0.38349400  1
  S  S19  1  0.80282300  0.90612300  0.88349400  1
  S  S20  1  0.85143900  0.75388800  0.05336800  1
  S  S21  1  0.85143900  0.74611200  0.55336800  1
  S  S22  1  0.85663900  0.44725300  0.19995800  1
  S  S23  1  0.85663900  0.05274700  0.69995800  1
  O  O0  1  0.06331600  0.39173700  0.46494500  1
  O  O1  1  0.06331600  0.10826300  0.96494500  1
  O  O2  1  0.08293100  0.09818000  0.27948700  1
  O  O3  1  0.08293100  0.40182000  0.77948700  1
  O  O4  1  0.08367400  0.10954500  0.47531000  1
  O  O5  1  0.08367400  0.39045500  0.97531000  1
  O  O6  1  0.08629200  0.91099600  0.35649900  1
  O  O7  1  0.08629200  0.58900400  0.85649900  1
  O  O8  1  0.09355800  0.19023100  0.08200100  1
  O  O9  1  0.09355800  0.30976900  0.58200100  1
  O  O10  1  0.09067500  0.82292400  0.26083600  1
  O  O11  1  0.09067500  0.67707600  0.76083600  1
  O  O12  1  0.09802600  0.00684200  0.15728300  1
  O  O13  1  0.09802600  0.49315800  0.65728300  1
  O  O14  1  0.13886400  0.23139500  0.38582600  1
  O  O15  1  0.13886400  0.26860500  0.88582600  1
  O  O16  1  0.18282100  0.45337300  0.29815800  1
  O  O17  1  0.18282100  0.04662700  0.79815800  1
  O  O18  1  0.18737000  0.68261100  0.14796400  1
  O  O19  1  0.18737000  0.81738900  0.64796400  1
  O  O20  1  0.18574300  0.76456700  0.46548400  1
  O  O21  1  0.18574300  0.73543300  0.96548400  1
  O  O22  1  0.22572300  0.01731400  0.57682100  1
  O  O23  1  0.22572300  0.48268600  0.07682100  1
  O  O24  1  0.27427700  0.98268600  0.07682100  1
  O  O25  1  0.27427700  0.51731400  0.57682100  1
  O  O26  1  0.31425700  0.23543300  0.96548400  1
  O  O27  1  0.31425700  0.26456700  0.46548400  1
  O  O28  1  0.31263000  0.18261100  0.14796400  1
  O  O29  1  0.31263000  0.31738900  0.64796400  1
  O  O30  1  0.31717900  0.95337300  0.29815800  1
  O  O31  1  0.31717900  0.54662700  0.79815800  1
  O  O32  1  0.36113600  0.73139500  0.38582600  1
  O  O33  1  0.36113600  0.76860500  0.88582600  1
  O  O34  1  0.40197400  0.99315800  0.65728300  1
  O  O35  1  0.40197400  0.50684200  0.15728300  1
  O  O36  1  0.40932500  0.32292400  0.26083600  1
  O  O37  1  0.40932500  0.17707600  0.76083600  1
  O  O38  1  0.40644200  0.69023100  0.08200100  1
  O  O39  1  0.40644200  0.80976900  0.58200100  1
  O  O40  1  0.41370800  0.08900400  0.85649900  1
  O  O41  1  0.41370800  0.41099600  0.35649900  1
  O  O42  1  0.41632600  0.89045500  0.97531000  1
  O  O43  1  0.41632600  0.60954500  0.47531000  1
  O  O44  1  0.41706900  0.59818000  0.27948700  1
  O  O45  1  0.41706900  0.90182000  0.77948700  1
  O  O46  1  0.43668400  0.60826300  0.96494500  1
  O  O47  1  0.43668400  0.89173700  0.46494500  1
  O  O48  1  0.56331600  0.39173700  0.03505500  1
  O  O49  1  0.56331600  0.10826300  0.53505500  1
  O  O50  1  0.58293100  0.09818000  0.22051300  1
  O  O51  1  0.58293100  0.40182000  0.72051300  1
  O  O52  1  0.58367400  0.10954500  0.02469000  1
  O  O53  1  0.58367400  0.39045500  0.52469000  1
  O  O54  1  0.58629200  0.58900400  0.64350100  1
  O  O55  1  0.58629200  0.91099600  0.14350100  1
  O  O56  1  0.59355800  0.19023100  0.41799900  1
  O  O57  1  0.59355800  0.30976900  0.91799900  1
  O  O58  1  0.59067500  0.82292400  0.23916400  1
  O  O59  1  0.59067500  0.67707600  0.73916400  1
  O  O60  1  0.59802600  0.00684200  0.34271700  1
  O  O61  1  0.59802600  0.49315800  0.84271700  1
  O  O62  1  0.63886400  0.23139500  0.11417400  1
  O  O63  1  0.63886400  0.26860500  0.61417400  1
  O  O64  1  0.68282100  0.45337300  0.20184200  1
  O  O65  1  0.68282100  0.04662700  0.70184200  1
  O  O66  1  0.68737000  0.68261100  0.35203600  1
  O  O67  1  0.68737000  0.81738900  0.85203600  1
  O  O68  1  0.68574300  0.76456700  0.03451600  1
  O  O69  1  0.68574300  0.73543300  0.53451600  1
  O  O70  1  0.72572300  0.48268600  0.42317900  1
  O  O71  1  0.72572300  0.01731400  0.92317900  1
  O  O72  1  0.77427700  0.98268600  0.42317900  1
  O  O73  1  0.77427700  0.51731400  0.92317900  1
  O  O74  1  0.81425700  0.26456700  0.03451600  1
  O  O75  1  0.81425700  0.23543300  0.53451600  1
  O  O76  1  0.81263000  0.18261100  0.35203600  1
  O  O77  1  0.81263000  0.31738900  0.85203600  1
  O  O78  1  0.81717900  0.54662700  0.70184200  1
  O  O79  1  0.81717900  0.95337300  0.20184200  1
  O  O80  1  0.86113600  0.73139500  0.11417400  1
  O  O81  1  0.86113600  0.76860500  0.61417400  1
  O  O82  1  0.90197400  0.50684200  0.34271700  1
  O  O83  1  0.90197400  0.99315800  0.84271700  1
  O  O84  1  0.90932500  0.32292400  0.23916400  1
  O  O85  1  0.90932500  0.17707600  0.73916400  1
  O  O86  1  0.90644200  0.69023100  0.41799900  1
  O  O87  1  0.90644200  0.80976900  0.91799900  1
  O  O88  1  0.91370800  0.41099600  0.14350100  1
  O  O89  1  0.91370800  0.08900400  0.64350100  1
  O  O90  1  0.91632600  0.60954500  0.02469000  1
  O  O91  1  0.91632600  0.89045500  0.52469000  1
  O  O92  1  0.91706900  0.59818000  0.22051300  1
  O  O93  1  0.91706900  0.90182000  0.72051300  1
  O  O94  1  0.93668400  0.60826300  0.53505500  1
  O  O95  1  0.93668400  0.89173700  0.03505500  1
loop_
_geom_bond_atom_site_label_1
_geom_bond_atom_site_label_2
_geom_bond_distance
_geom_bond_site_symmetry_2
Li0 O10 1.931910 1_555
Li0 O16 1.934751 1_555
Li0 O92 1.968149 1_455
Li0 O82 1.968980 1_455
Li1 O11 1.931910 1_555
Li1 O17 1.934751 1_565
Li1 O93 1.968149 1_455
Li1 O83 1.968980 1_455
Li2 O95 1.929401 1_455
Li2 O1 1.989102 1_564
Li2 O24 1.997889 1_555
Li2 O21 2.018046 1_554
Li2 O42 2.474502 1_554
Li3 O94 1.929401 1_455
Li3 O0 1.989102 1_555
Li3 O25 1.997889 1_555
Li3 O20 2.018046 1_555
Li3 O43 2.474502 1_555
Li4 O49 1.929401 1_555
Li4 O47 1.989102 1_545
Li4 O22 1.997889 1_555
Li4 O27 2.018046 1_555
Li4 O4 2.474502 1_555
Li5 O48 1.929401 1_555
Li5 O46 1.989102 1_554
Li5 O23 1.997889 1_555
Li5 O26 2.018046 1_554
Li5 O5 2.474502 1_554
Li6 O36 1.931910 1_555
Li6 O30 1.934751 1_545
Li6 O50 1.968149 1_555
Li6 O60 1.968980 1_555
Li7 O37 1.931910 1_555
Li7 O31 1.934751 1_555
Li7 O51 1.968149 1_555
Li7 O61 1.968980 1_555
Li8 O58 1.931910 1_555
Li8 O64 1.934751 1_555
Li8 O44 1.968149 1_555
Li8 O35 1.968980 1_555
Li9 O59 1.931910 1_555
Li9 O65 1.934751 1_565
Li9 O45 1.968149 1_555
Li9 O34 1.968980 1_555
Li10 O46 1.929401 1_555
Li10 O48 1.989102 1_556
Li10 O73 1.997889 1_555
Li10 O68 2.018046 1_556
Li10 O90 2.474502 1_556
Li11 O47 1.929401 1_555
Li11 O49 1.989102 1_565
Li11 O72 1.997889 1_555
Li11 O69 2.018046 1_555
Li11 O91 2.474502 1_555
Li12 O0 1.929401 1_655
Li12 O94 1.989102 1_555
Li12 O70 1.997889 1_555
Li12 O75 2.018046 1_555
Li12 O53 2.474502 1_555
Li13 O1 1.929401 1_655
Li13 O95 1.989102 1_546
Li13 O71 1.997889 1_555
Li13 O74 2.018046 1_556
Li13 O52 2.474502 1_556
Li14 O84 1.931910 1_555
Li14 O79 1.934751 1_545
Li14 O2 1.968149 1_655
Li14 O12 1.968980 1_655
Li15 O85 1.931910 1_555
Li15 O78 1.934751 1_555
Li15 O3 1.968149 1_655
Li15 O13 1.968980 1_655
Ni0 O8 2.020140 1_555
Ni0 O23 2.050783 1_555
Ni0 O88 2.069936 1_455
Ni0 O74 2.120487 1_455
Ni0 O90 2.171059 1_455
Ni0 O5 2.188434 1_554
Ni1 O9 2.020140 1_555
Ni1 O22 2.050783 1_555
Ni1 O89 2.069936 1_455
Ni1 O75 2.120487 1_455
Ni1 O91 2.171059 1_445
Ni1 O4 2.188434 1_555
Ni2 O80 2.019535 1_555
Ni2 O18 2.039921 1_655
Ni2 O12 2.077422 1_665
Ni2 O92 2.102375 1_555
Ni2 O10 2.108810 1_655
Ni2 O79 2.129194 1_555
Ni3 O81 2.019535 1_555
Ni3 O19 2.039921 1_655
Ni3 O13 2.077422 1_655
Ni3 O93 2.102375 1_555
Ni3 O11 2.108810 1_655
Ni3 O78 2.129194 1_555
Ni4 O62 2.019535 1_555
Ni4 O28 2.039921 1_555
Ni4 O35 2.077422 1_555
Ni4 O50 2.102375 1_555
Ni4 O36 2.108810 1_555
Ni4 O64 2.129194 1_555
Ni5 O63 2.019535 1_555
Ni5 O29 2.039921 1_555
Ni5 O34 2.077422 1_545
Ni5 O51 2.102375 1_555
Ni5 O37 2.108810 1_555
Ni5 O65 2.129194 1_555
Ni6 O39 2.020140 1_555
Ni6 O25 2.050783 1_555
Ni6 O54 2.069936 1_555
Ni6 O69 2.120487 1_555
Ni6 O53 2.171059 1_555
Ni6 O43 2.188434 1_555
Ni7 O38 2.020140 1_555
Ni7 O24 2.050783 1_555
Ni7 O55 2.069936 1_555
Ni7 O68 2.120487 1_555
Ni7 O52 2.171059 1_565
Ni7 O42 2.188434 1_554
Ni8 O56 2.020140 1_555
Ni8 O70 2.050783 1_555
Ni8 O41 2.069936 1_555
Ni8 O27 2.120487 1_555
Ni8 O43 2.171059 1_555
Ni8 O53 2.188434 1_555
Ni9 O57 2.020140 1_555
Ni9 O71 2.050783 1_555
Ni9 O40 2.069936 1_555
Ni9 O26 2.120487 1_555
Ni9 O42 2.171059 1_545
Ni9 O52 2.188434 1_556
Ni10 O33 2.019535 1_555
Ni10 O67 2.039921 1_555
Ni10 O61 2.077422 1_555
Ni10 O45 2.102375 1_555
Ni10 O59 2.108810 1_555
Ni10 O31 2.129194 1_555
Ni11 O32 2.019535 1_555
Ni11 O66 2.039921 1_555
Ni11 O60 2.077422 1_565
Ni11 O44 2.102375 1_555
Ni11 O58 2.108810 1_555
Ni11 O30 2.129194 1_555
Ni12 O14 2.019535 1_555
Ni12 O76 2.039921 1_455
Ni12 O82 2.077422 1_455
Ni12 O2 2.102375 1_555
Ni12 O84 2.108810 1_455
Ni12 O16 2.129194 1_555
Ni13 O15 2.019535 1_555
Ni13 O77 2.039921 1_455
Ni13 O83 2.077422 1_445
Ni13 O3 2.102375 1_555
Ni13 O85 2.108810 1_455
Ni13 O17 2.129194 1_555
Ni14 O86 2.020140 1_555
Ni14 O72 2.050783 1_555
Ni14 O6 2.069936 1_655
Ni14 O20 2.120487 1_655
Ni14 O4 2.171059 1_665
Ni14 O91 2.188434 1_555
Ni15 O87 2.020140 1_555
Ni15 O73 2.050783 1_555
Ni15 O7 2.069936 1_655
Ni15 O21 2.120487 1_655
Ni15 O5 2.171059 1_655
Ni15 O90 2.188434 1_556
O0 S2 1.466906 1_555
O1 S3 1.466906 1_555
O2 S0 1.489851 1_545
O3 S1 1.489851 1_555
O4 S2 1.529710 1_555
O5 S3 1.529710 1_555
O6 S0 1.461437 1_555
O7 S1 1.461437 1_555
O8 S4 1.469013 1_555
O9 S5 1.469013 1_555
O10 S0 1.494454 1_555
O11 S1 1.494454 1_555
O12 S4 1.493078 1_555
O13 S5 1.493078 1_555
O14 S2 1.459609 1_555
O15 S3 1.459609 1_555
O16 S10 1.490847 1_555
O17 S11 1.490847 1_555
O18 S6 1.459061 1_555
O19 S7 1.459061 1_555
O20 S8 1.491451 1_555
O21 S9 1.491451 1_555
O22 S7 1.501523 1_545
O23 S6 1.501523 1_555
O24 S4 1.501523 1_565
O25 S5 1.501523 1_555
O26 S3 1.491451 1_555
O27 S2 1.491451 1_555
O28 S4 1.459061 1_555
O29 S5 1.459061 1_555
O30 S0 1.490847 1_555
O31 S1 1.490847 1_555
O32 S8 1.459609 1_555
O33 S9 1.459609 1_555
O34 S7 1.493078 1_555
O35 S6 1.493078 1_555
O36 S10 1.494454 1_555
O37 S11 1.494454 1_555
O38 S6 1.469013 1_555
O39 S7 1.469013 1_555
O40 S11 1.461437 1_555
O41 S10 1.461437 1_555
O42 S9 1.529710 1_555
O43 S8 1.529710 1_555
O44 S10 1.489851 1_555
O45 S11 1.489851 1_565
O46 S9 1.466906 1_555
O47 S8 1.466906 1_555
O48 S14 1.466906 1_555
O49 S15 1.466906 1_555
O50 S13 1.489851 1_545
O51 S12 1.489851 1_555
O52 S14 1.529710 1_555
O53 S15 1.529710 1_555
O54 S12 1.461437 1_555
O55 S13 1.461437 1_555
O56 S16 1.469013 1_555
O57 S17 1.469013 1_555
O58 S13 1.494454 1_555
O59 S12 1.494454 1_555
O60 S16 1.493078 1_555
O61 S17 1.493078 1_555
O62 S14 1.459609 1_555
O63 S15 1.459609 1_555
O64 S22 1.490847 1_555
O65 S23 1.490847 1_555
O66 S18 1.459061 1_555
O67 S19 1.459061 1_555
O68 S20 1.491451 1_555
O69 S21 1.491451 1_555
O70 S18 1.501523 1_555
O71 S19 1.501523 1_545
O72 S16 1.501523 1_565
O73 S17 1.501523 1_555
O74 S14 1.491451 1_555
O75 S15 1.491451 1_555
O76 S16 1.459061 1_555
O77 S17 1.459061 1_555
O78 S12 1.490847 1_555
O79 S13 1.490847 1_555
O80 S20 1.459609 1_555
O81 S21 1.459609 1_555
O82 S18 1.493078 1_555
O83 S19 1.493078 1_555
O84 S22 1.494454 1_555
O85 S23 1.494454 1_555
O86 S18 1.469013 1_555
O87 S19 1.469013 1_555
O88 S22 1.461437 1_555
O89 S23 1.461437 1_555
O90 S20 1.529710 1_555
O91 S21 1.529710 1_555
O92 S22 1.489851 1_555
O93 S23 1.489851 1_565
O94 S21 1.466906 1_555
O95 S20 1.466906 1_555
