# generated using pymatgen
data_Th2SeN2
_symmetry_space_group_name_H-M   'P 1'
_cell_length_a   4.04042189
_cell_length_b   4.04042269
_cell_length_c   7.18960449
_cell_angle_alpha   90.00000000
_cell_angle_beta   90.00000000
_cell_angle_gamma   120.00001038
_symmetry_Int_Tables_number   1
_chemical_formula_structural   Th2SeN2
_chemical_formula_sum   'Th2 Se1 N2'
_cell_volume   101.64572147
_cell_formula_units_Z   1
loop_
 _symmetry_equiv_pos_site_id
 _symmetry_equiv_pos_as_xyz
  1  'x, y, z'
loop_
 _atom_site_type_symbol
 _atom_site_label
 _atom_site_symmetry_multiplicity
 _atom_site_fract_x
 _atom_site_fract_y
 _atom_site_fract_z
 _atom_site_occupancy
  Th  Th0  1  0.66666700  0.33333300  0.70358980  1
  Th  Th1  1  0.33333300  0.66666700  0.29641020  1
  Se  Se0  1  0.00000000  0.00000000  -0.00000000  1
  N  N0  1  0.33333300  0.66666700  0.62642018  1
  N  N1  1  0.66666700  0.33333300  0.37357982  1
loop_
_geom_bond_atom_site_label_1
_geom_bond_atom_site_label_2
_geom_bond_distance
_geom_bond_site_symmetry_2
Se0 Th0 3.159609 1_454
Se0 Th1 3.159609 1_545
Se0 Th0 3.159611 1_554
Se0 Th1 3.159611 1_445
Se0 Th0 3.159611 1_444
Se0 Th1 3.159611 1_555
N0 Th1 2.372641 1_555
N0 Th0 2.397808 1_455
N0 Th0 2.397808 1_565
N0 Th0 2.397815 1_555
N1 Th0 2.372641 1_555
N1 Th1 2.397808 1_655
N1 Th1 2.397808 1_545
N1 Th1 2.397815 1_555
