# generated using pymatgen
data_Li7V4(PO4)6
_symmetry_space_group_name_H-M   'P 1'
_cell_length_a   8.52133053
_cell_length_b   8.52133092
_cell_length_c   9.05896306
_cell_angle_alpha   61.94454566
_cell_angle_beta   118.05545172
_cell_angle_gamma   120.00000546
_symmetry_Int_Tables_number   1
_chemical_formula_structural   Li7V4(PO4)6
_chemical_formula_sum   'Li7 V4 P6 O24'
_cell_volume   478.33965765
_cell_formula_units_Z   1
loop_
 _symmetry_equiv_pos_site_id
 _symmetry_equiv_pos_as_xyz
  1  'x, y, z'
loop_
 _atom_site_type_symbol
 _atom_site_label
 _atom_site_symmetry_multiplicity
 _atom_site_fract_x
 _atom_site_fract_y
 _atom_site_fract_z
 _atom_site_occupancy
  Li  Li0  1  0.65888000  0.72679800  0.85503800  1
  Li  Li1  1  0.27320200  0.07704500  0.85503800  1
  Li  Li2  1  0.92295500  0.34112000  0.85503800  1
  Li  Li3  1  0.17354300  0.58183600  0.34641300  1
  Li  Li4  1  0.03370300  0.96629700  0.10111100  1
  Li  Li5  1  0.75470600  0.82645700  0.34641300  1
  Li  Li6  1  0.41816400  0.24529400  0.34641300  1
  V  V0  1  0.14933200  0.85066800  0.44799800  1
  V  V1  1  0.85735000  0.14265000  0.57204900  1
  V  V2  1  0.65229200  0.34770800  0.95687600  1
  V  V3  1  0.34737100  0.65262900  0.04211400  1
  P  P0  1  0.24909500  0.45379300  0.75268800  1
  P  P1  1  0.95738600  0.75090500  0.75268800  1
  P  P2  1  0.54620700  0.04261400  0.75268800  1
  P  P3  1  0.45937200  0.95910700  0.24650400  1
  P  P4  1  0.04089300  0.25376100  0.24650400  1
  P  P5  1  0.74623900  0.54062800  0.24650400  1
  O  O0  1  0.16319600  0.79839300  0.88528400  1
  O  O1  1  0.52048100  0.83680400  0.88528400  1
  O  O2  1  0.20160700  0.47951900  0.88528400  1
  O  O3  1  0.46323600  0.48618000  0.81129900  1
  O  O4  1  0.12477700  0.24369400  0.74915000  1
  O  O5  1  0.19852300  0.59116300  0.56893300  1
  O  O6  1  0.86806700  0.87522300  0.74915000  1
  O  O7  1  0.83424400  0.53676400  0.81129900  1
  O  O8  1  0.51382000  0.16575600  0.81129900  1
  O  O9  1  0.61442900  0.99367300  0.41784600  1
  O  O10  1  0.25400600  0.86677200  0.25907000  1
  O  O11  1  0.00632700  0.20291100  0.41784600  1
  O  O12  1  0.96157300  0.80147700  0.56893300  1
  O  O13  1  0.75630600  0.13193300  0.74915000  1
  O  O14  1  0.40883700  0.03842700  0.56893300  1
  O  O15  1  0.49280000  0.82097100  0.20587700  1
  O  O16  1  0.17902900  0.46595300  0.20587700  1
  O  O17  1  0.13322800  0.12816400  0.25907000  1
  O  O18  1  0.79708900  0.38557100  0.41784600  1
  O  O19  1  0.87183600  0.74599400  0.25907000  1
  O  O20  1  0.53404700  0.50720000  0.20587700  1
  O  O21  1  0.77800400  0.53520900  0.09356800  1
  O  O22  1  0.46479100  0.14922500  0.09356800  1
  O  O23  1  0.85077500  0.22199600  0.09356800  1
loop_
_geom_bond_atom_site_label_1
_geom_bond_atom_site_label_2
_geom_bond_distance
_geom_bond_site_symmetry_2
Li0 O3 1.965961 1_555
Li0 O6 1.977358 1_555
Li0 O1 1.998928 1_555
Li0 O21 2.154193 1_556
Li1 O8 1.965965 1_555
Li1 O4 1.977351 1_555
Li1 O0 1.998936 1_545
Li1 O22 2.154184 1_556
Li2 O7 1.965949 1_555
Li2 O13 1.977358 1_555
Li2 O2 1.998935 1_655
Li2 O23 2.154180 1_556
Li3 O5 1.960929 1_555
Li3 O16 1.970485 1_555
Li3 O10 2.007466 1_555
Li4 O17 2.052962 1_565
Li4 O19 2.052966 1_455
Li4 O10 2.052976 1_555
Li5 O12 1.960929 1_555
Li5 O15 1.970492 1_555
Li5 O19 2.007466 1_555
Li6 O14 1.960929 1_555
Li6 O20 1.970490 1_555
Li6 O17 2.007466 1_555
O0 P1 1.564697 1_455
O0 V3 2.053384 1_556
O1 P2 1.564697 1_565
O1 V3 2.053390 1_556
O2 P0 1.564697 1_555
O2 V3 2.053390 1_556
O3 P0 1.552649 1_555
O3 V2 2.040967 1_555
O4 P0 1.566514 1_555
O4 V1 2.099189 1_455
O5 P0 1.524364 1_555
O5 V0 2.117079 1_555
O6 P1 1.566514 1_555
O6 V1 2.099188 1_565
O7 P1 1.552647 1_555
O7 V2 2.040972 1_555
O8 P2 1.552641 1_555
O8 V2 2.040973 1_555
O9 P3 1.534126 1_555
O9 V1 2.041608 1_565
O10 P3 1.555867 1_555
O10 V0 2.199157 1_555
O11 P4 1.534129 1_555
O11 V1 2.041602 1_455
O12 P1 1.524363 1_555
O12 V0 2.117064 1_655
O13 P2 1.566514 1_555
O13 V1 2.099194 1_555
O14 P2 1.524364 1_555
O14 V0 2.117071 1_545
O15 P3 1.563197 1_555
O15 V3 2.071021 1_555
O16 P4 1.563202 1_555
O16 V3 2.071021 1_555
O17 P4 1.555867 1_555
O17 V0 2.199144 1_545
O18 P5 1.534124 1_555
O18 V1 2.041616 1_555
O19 P5 1.555867 1_555
O19 V0 2.199148 1_655
O20 P5 1.563205 1_555
O20 V3 2.071021 1_555
O21 P5 1.555725 1_555
O21 V2 2.033581 1_554
O22 P3 1.555715 1_545
O22 V2 2.033583 1_554
O23 P4 1.555716 1_655
O23 V2 2.033595 1_554
