# generated using pymatgen
data_SrCo2H2(SeO3)4
_symmetry_space_group_name_H-M   'P 1'
_cell_length_a   5.38026100
_cell_length_b   14.05317000
_cell_length_c   19.84257650
_cell_angle_alpha   49.43375535
_cell_angle_beta   90.00000000
_cell_angle_gamma   90.00000000
_symmetry_Int_Tables_number   1
_chemical_formula_structural   SrCo2H2(SeO3)4
_chemical_formula_sum   'Sr4 Co8 H8 Se16 O48'
_cell_volume   1139.70345420
_cell_formula_units_Z   4
loop_
 _symmetry_equiv_pos_site_id
 _symmetry_equiv_pos_as_xyz
  1  'x, y, z'
loop_
 _atom_site_type_symbol
 _atom_site_label
 _atom_site_symmetry_multiplicity
 _atom_site_fract_x
 _atom_site_fract_y
 _atom_site_fract_z
 _atom_site_occupancy
  Sr  Sr0  1  0.45915400  0.50000000  0.75000000  1
  Sr  Sr1  1  0.54084600  0.50000000  0.25000000  1
  Sr  Sr2  1  0.67148100  0.00000000  0.75000000  1
  Sr  Sr3  1  0.32851900  0.00000000  0.25000000  1
  Co  Co0  1  0.04705700  0.24768000  0.25485500  1
  Co  Co1  1  0.95294300  0.75232000  0.74514500  1
  Co  Co2  1  0.04705700  0.75232000  0.24514500  1
  Co  Co3  1  0.95294300  0.24768000  0.75485500  1
  Co  Co4  1  0.40556000  0.74975400  0.49658300  1
  Co  Co5  1  0.59444000  0.25024600  0.50341700  1
  Co  Co6  1  0.40556000  0.25024600  0.00341700  1
  Co  Co7  1  0.59444000  0.74975400  0.99658300  1
  H  H0  1  0.77603700  0.74833100  0.61803400  1
  H  H1  1  0.22396300  0.25166900  0.38196600  1
  H  H2  1  0.77603700  0.25166900  0.88196600  1
  H  H3  1  0.22396300  0.74833100  0.11803400  1
  H  H4  1  0.11520900  0.24319700  0.62932800  1
  H  H5  1  0.88479100  0.75680300  0.37067200  1
  H  H6  1  0.11520900  0.75680300  0.87067200  1
  H  H7  1  0.88479100  0.24319700  0.12932800  1
  Se  Se0  1  0.91879400  0.56629800  0.59189400  1
  Se  Se1  1  0.08120600  0.43370200  0.40810600  1
  Se  Se2  1  0.91879400  0.43370200  0.90810600  1
  Se  Se3  1  0.08120600  0.56629800  0.09189400  1
  Se  Se4  1  0.10484200  0.07517900  0.58972800  1
  Se  Se5  1  0.89515800  0.92482100  0.41027200  1
  Se  Se6  1  0.10484200  0.92482100  0.91027200  1
  Se  Se7  1  0.89515800  0.07517900  0.08972800  1
  Se  Se8  1  0.42554300  0.85329100  0.61535600  1
  Se  Se9  1  0.57445700  0.14670900  0.38464400  1
  Se  Se10  1  0.42554300  0.14670900  0.88464400  1
  Se  Se11  1  0.57445700  0.85329100  0.11535600  1
  Se  Se12  1  0.47937200  0.35277200  0.62151200  1
  Se  Se13  1  0.52062800  0.64722800  0.37848800  1
  Se  Se14  1  0.47937200  0.64722800  0.87848800  1
  Se  Se15  1  0.52062800  0.35277200  0.12151200  1
  O  O0  1  0.20522300  0.60246000  0.60920700  1
  O  O1  1  0.79477700  0.39754000  0.39079300  1
  O  O2  1  0.20522300  0.39754000  0.89079300  1
  O  O3  1  0.79477700  0.60246000  0.10920700  1
  O  O4  1  0.84245600  0.43033700  0.69789600  1
  O  O5  1  0.15754400  0.56966300  0.30210400  1
  O  O6  1  0.84245600  0.56966300  0.80210400  1
  O  O7  1  0.15754400  0.43033700  0.19789600  1
  O  O8  1  0.71769300  0.66788900  0.58865500  1
  O  O9  1  0.28230700  0.33211100  0.41134500  1
  O  O10  1  0.71769300  0.33211100  0.91134500  1
  O  O11  1  0.28230700  0.66788900  0.08865500  1
  O  O12  1  0.38258400  0.10995500  0.61440400  1
  O  O13  1  0.61741600  0.89004500  0.38559600  1
  O  O14  1  0.38258400  0.89004500  0.88559600  1
  O  O15  1  0.61741600  0.10995500  0.11440400  1
  O  O16  1  0.02063100  0.93543900  0.69246900  1
  O  O17  1  0.97936900  0.06456100  0.30753100  1
  O  O18  1  0.02063100  0.06456100  0.80753100  1
  O  O19  1  0.97936900  0.93543900  0.19246900  1
  O  O20  1  0.90988400  0.17476800  0.58896400  1
  O  O21  1  0.09011600  0.82523200  0.41103600  1
  O  O22  1  0.90988400  0.82523200  0.91103600  1
  O  O23  1  0.09011600  0.17476800  0.08896400  1
  O  O24  1  0.36281100  0.86985100  0.52463500  1
  O  O25  1  0.63718900  0.13014900  0.47536500  1
  O  O26  1  0.36281100  0.13014900  0.97536500  1
  O  O27  1  0.63718900  0.86985100  0.02463500  1
  O  O28  1  0.28681300  0.71523300  0.70267300  1
  O  O29  1  0.71318700  0.28476700  0.29732700  1
  O  O30  1  0.28681300  0.28476700  0.79732700  1
  O  O31  1  0.71318700  0.71523300  0.20267300  1
  O  O32  1  0.75922600  0.80558100  0.63301700  1
  O  O33  1  0.24077400  0.19441900  0.36698300  1
  O  O34  1  0.75922600  0.19441900  0.86698300  1
  O  O35  1  0.24077400  0.80558100  0.13301700  1
  O  O36  1  0.53899600  0.36938900  0.53086700  1
  O  O37  1  0.46100400  0.63061100  0.46913300  1
  O  O38  1  0.53899600  0.63061100  0.96913300  1
  O  O39  1  0.46100400  0.36938900  0.03086700  1
  O  O40  1  0.62413100  0.21700700  0.70812300  1
  O  O41  1  0.37586900  0.78299300  0.29187700  1
  O  O42  1  0.62413100  0.78299300  0.79187700  1
  O  O43  1  0.37586900  0.21700700  0.20812300  1
  O  O44  1  0.14497700  0.30113600  0.64153500  1
  O  O45  1  0.85502300  0.69886400  0.35846500  1
  O  O46  1  0.14497700  0.69886400  0.85846500  1
  O  O47  1  0.85502300  0.30113600  0.14153500  1
loop_
_geom_bond_atom_site_label_1
_geom_bond_atom_site_label_2
_geom_bond_distance
_geom_bond_site_symmetry_2
Co0 O17 2.085435 1_455
Co0 O33 2.104931 1_555
Co0 O7 2.108644 1_555
Co0 O47 2.119155 1_455
Co0 O43 2.166850 1_555
Co0 O29 2.186295 1_455
Co1 O16 2.085435 1_655
Co1 O32 2.104931 1_555
Co1 O6 2.108644 1_555
Co1 O46 2.119155 1_655
Co1 O42 2.166850 1_555
Co1 O28 2.186295 1_655
Co2 O19 2.085435 1_455
Co2 O35 2.104931 1_555
Co2 O5 2.108644 1_555
Co2 O45 2.119155 1_455
Co2 O41 2.166850 1_555
Co2 O31 2.186295 1_455
Co3 O18 2.085435 1_655
Co3 O34 2.104931 1_555
Co3 O4 2.108644 1_555
Co3 O44 2.119155 1_655
Co3 O40 2.166850 1_555
Co3 O30 2.186295 1_655
Co4 O37 2.091705 1_555
Co4 O13 2.094977 1_555
Co4 O0 2.103331 1_555
Co4 O24 2.105491 1_555
Co4 O21 2.131912 1_555
Co4 O8 2.178940 1_555
Co5 O36 2.091705 1_555
Co5 O12 2.094977 1_555
Co5 O1 2.103331 1_555
Co5 O25 2.105491 1_555
Co5 O20 2.131912 1_555
Co5 O9 2.178940 1_555
Co6 O39 2.091705 1_555
Co6 O15 2.094977 1_555
Co6 O2 2.103331 1_554
Co6 O26 2.105491 1_554
Co6 O23 2.131912 1_555
Co6 O10 2.178940 1_554
Co7 O38 2.091705 1_555
Co7 O14 2.094977 1_555
Co7 O3 2.103331 1_556
Co7 O27 2.105491 1_556
Co7 O22 2.131912 1_555
Co7 O11 2.178940 1_556
H0 O32 1.027115 1_555
H0 O8 1.604204 1_555
H1 O33 1.027115 1_555
H1 O9 1.604204 1_555
H2 O34 1.027115 1_555
H2 O10 1.604204 1_555
H3 O35 1.027115 1_555
H3 O11 1.604204 1_555
H4 O44 1.001899 1_555
H5 O45 1.001899 1_555
H6 O46 1.001899 1_555
H7 O47 1.001899 1_555
O0 Se0 1.725751 1_455
O0 Sr0 2.551967 1_555
O1 Se1 1.725751 1_655
O1 Sr1 2.551967 1_555
O2 Se2 1.725751 1_455
O2 Sr0 2.551967 1_555
O3 Se3 1.725751 1_655
O3 Sr1 2.551967 1_555
O4 Se0 1.736771 1_555
O4 Sr0 2.756213 1_555
O5 Se1 1.736771 1_555
O5 Sr1 2.756213 1_555
O6 Se2 1.736771 1_555
O6 Sr0 2.756213 1_555
O7 Se3 1.736771 1_555
O7 Sr1 2.756213 1_555
O8 Se0 1.758896 1_555
O8 Sr0 2.815425 1_555
O9 Se1 1.758896 1_555
O9 Sr1 2.815425 1_555
O10 Se2 1.758896 1_555
O10 Sr0 2.815425 1_555
O11 Se3 1.758896 1_555
O11 Sr1 2.815425 1_555
O12 Se4 1.738627 1_555
O12 Sr2 2.575921 1_555
O13 Se5 1.738627 1_555
O13 Sr3 2.575921 1_565
O14 Se6 1.738627 1_555
O14 Sr2 2.575921 1_565
O15 Se7 1.738627 1_555
O15 Sr3 2.575921 1_555
O16 Se4 1.735136 1_565
O16 Sr2 2.646183 1_465
O17 Se5 1.735136 1_545
O17 Sr3 2.646183 1_655
O18 Se6 1.735136 1_545
O18 Sr2 2.646183 1_455
O19 Se7 1.735136 1_565
O19 Sr3 2.646183 1_665
O20 Se4 1.741147 1_655
O20 Sr2 2.771334 1_555
O21 Se5 1.741147 1_455
O21 Sr3 2.771334 1_565
O22 Se6 1.741147 1_655
O22 Sr2 2.771334 1_565
O23 Se7 1.741147 1_455
O23 Sr3 2.771334 1_555
O24 Se8 1.692245 1_555
O25 Se9 1.692245 1_555
O26 Se10 1.692245 1_555
O27 Se11 1.692245 1_555
O28 Se8 1.717862 1_555
O28 Sr0 2.682544 1_555
O29 Se9 1.717862 1_555
O29 Sr1 2.682544 1_555
O30 Se10 1.717862 1_555
O30 Sr0 2.682544 1_555
O31 Se11 1.717862 1_555
O31 Sr1 2.682544 1_555
O32 Se8 1.868114 1_555
O33 Se9 1.868114 1_555
O34 Se10 1.868114 1_555
O35 Se11 1.868114 1_555
O36 Se12 1.687072 1_555
O37 Se13 1.687072 1_555
O38 Se14 1.687072 1_555
O39 Se15 1.687072 1_555
O40 Se12 1.713347 1_555
O40 Sr2 2.599939 1_555
O41 Se13 1.713347 1_555
O41 Sr3 2.599939 1_565
O42 Se14 1.713347 1_555
O42 Sr2 2.599939 1_565
O43 Se15 1.713347 1_555
O43 Sr3 2.599939 1_555
O44 Se12 1.883165 1_555
O45 Se13 1.883165 1_555
O46 Se14 1.883165 1_555
O47 Se15 1.883165 1_555
