# generated using pymatgen
data_Li4VP2O9
_symmetry_space_group_name_H-M   'P 1'
_cell_length_a   5.27753700
_cell_length_b   8.83091400
_cell_length_c   15.77035600
_cell_angle_alpha   90.00000000
_cell_angle_beta   90.00000000
_cell_angle_gamma   90.00000000
_symmetry_Int_Tables_number   1
_chemical_formula_structural   Li4VP2O9
_chemical_formula_sum   'Li16 V4 P8 O36'
_cell_volume   734.98493827
_cell_formula_units_Z   4
loop_
 _symmetry_equiv_pos_site_id
 _symmetry_equiv_pos_as_xyz
  1  'x, y, z'
loop_
 _atom_site_type_symbol
 _atom_site_label
 _atom_site_symmetry_multiplicity
 _atom_site_fract_x
 _atom_site_fract_y
 _atom_site_fract_z
 _atom_site_occupancy
  Li  Li0  1  0.28707200  0.47824600  0.10128000  1
  Li  Li1  1  0.69853000  0.32239300  0.05638100  1
  Li  Li2  1  0.71630500  0.87684900  0.19822800  1
  Li  Li3  1  0.19034900  0.72854800  0.14742800  1
  Li  Li4  1  0.69034900  0.22854800  0.35257200  1
  Li  Li5  1  0.21630500  0.37684900  0.30177200  1
  Li  Li6  1  0.19853000  0.82239300  0.44361900  1
  Li  Li7  1  0.78707200  0.97824600  0.39872000  1
  Li  Li8  1  0.21292800  0.47824600  0.60128000  1
  Li  Li9  1  0.80147000  0.32239300  0.55638100  1
  Li  Li10  1  0.78369500  0.87684900  0.69822800  1
  Li  Li11  1  0.30965100  0.72854800  0.64742800  1
  Li  Li12  1  0.80965100  0.22854800  0.85257200  1
  Li  Li13  1  0.28369500  0.37684900  0.80177200  1
  Li  Li14  1  0.30147000  0.82239300  0.94361900  1
  Li  Li15  1  0.71292800  0.97824600  0.89872000  1
  V  V0  1  0.11860100  0.09997400  0.12297900  1
  V  V1  1  0.61860100  0.59997400  0.37702100  1
  V  V2  1  0.38139900  0.09997400  0.62297900  1
  V  V3  1  0.88139900  0.59997400  0.87702100  1
  P  P0  1  0.69602300  0.68511800  0.02848200  1
  P  P1  1  0.79790700  0.51780000  0.22430800  1
  P  P2  1  0.29790700  0.01780000  0.27569200  1
  P  P3  1  0.19602300  0.18511800  0.47151800  1
  P  P4  1  0.80397700  0.68511800  0.52848200  1
  P  P5  1  0.70209300  0.51780000  0.72430800  1
  P  P6  1  0.20209300  0.01780000  0.77569200  1
  P  P7  1  0.30397700  0.18511800  0.97151800  1
  O  O0  1  0.21316700  0.02530000  0.00568200  1
  O  O1  1  0.41058300  0.68625000  0.04828800  1
  O  O2  1  0.85780800  0.75436100  0.09806900  1
  O  O3  1  0.25913900  0.27609400  0.05867300  1
  O  O4  1  0.80588000  0.10190900  0.12412300  1
  O  O5  1  0.26649400  0.92596800  0.18820000  1
  O  O6  1  0.62356200  0.45148100  0.15728500  1
  O  O7  1  0.08022200  0.51723500  0.20048400  1
  O  O8  1  0.21015700  0.17663500  0.23934100  1
  O  O9  1  0.71015700  0.67663500  0.26065900  1
  O  O10  1  0.58022200  0.01723500  0.29951600  1
  O  O11  1  0.12356200  0.95148100  0.34271500  1
  O  O12  1  0.76649400  0.42596800  0.31180000  1
  O  O13  1  0.30588000  0.60190900  0.37587700  1
  O  O14  1  0.75913900  0.77609400  0.44132700  1
  O  O15  1  0.35780800  0.25436100  0.40193100  1
  O  O16  1  0.91058300  0.18625000  0.45171200  1
  O  O17  1  0.71316700  0.52530000  0.49431800  1
  O  O18  1  0.28683300  0.02530000  0.50568200  1
  O  O19  1  0.08941700  0.68625000  0.54828800  1
  O  O20  1  0.64219200  0.75436100  0.59806900  1
  O  O21  1  0.24086100  0.27609400  0.55867300  1
  O  O22  1  0.69412000  0.10190900  0.62412300  1
  O  O23  1  0.23350600  0.92596800  0.68820000  1
  O  O24  1  0.87643800  0.45148100  0.65728500  1
  O  O25  1  0.41977800  0.51723500  0.70048400  1
  O  O26  1  0.28984300  0.17663500  0.73934100  1
  O  O27  1  0.78984300  0.67663500  0.76065900  1
  O  O28  1  0.91977800  0.01723500  0.79951600  1
  O  O29  1  0.37643800  0.95148100  0.84271500  1
  O  O30  1  0.73350600  0.42596800  0.81180000  1
  O  O31  1  0.19412000  0.60190900  0.87587700  1
  O  O32  1  0.74086100  0.77609400  0.94132700  1
  O  O33  1  0.14219200  0.25436100  0.90193100  1
  O  O34  1  0.58941700  0.18625000  0.95171200  1
  O  O35  1  0.78683300  0.52530000  0.99431800  1
loop_
_geom_bond_atom_site_label_1
_geom_bond_atom_site_label_2
_geom_bond_distance
_geom_bond_site_symmetry_2
Li0 O3 1.913142 1_555
Li0 O7 1.938523 1_555
Li0 O6 1.997384 1_555
Li0 O1 2.120698 1_555
Li1 O6 1.997064 1_555
Li1 O35 2.094250 1_554
Li1 O34 2.121733 1_554
Li1 O4 2.292023 1_555
Li1 O3 2.354949 1_555
Li2 O9 2.023979 1_555
Li2 O2 2.054916 1_555
Li2 O10 2.145753 1_565
Li2 O4 2.353582 1_565
Li2 O5 2.418375 1_555
Li3 O5 1.901148 1_555
Li3 O2 1.933365 1_455
Li3 O1 1.983658 1_555
Li3 O7 2.126067 1_555
Li4 O12 1.901148 1_555
Li4 O15 1.933365 1_555
Li4 O16 1.983658 1_555
Li4 O10 2.126067 1_555
Li5 O8 2.023979 1_555
Li5 O15 2.054916 1_555
Li5 O7 2.145753 1_555
Li5 O13 2.353582 1_555
Li5 O12 2.418375 1_455
Li6 O11 1.997064 1_555
Li6 O18 2.094250 1_565
Li6 O19 2.121733 1_555
Li6 O13 2.292023 1_555
Li6 O14 2.354949 1_455
Li7 O14 1.913142 1_555
Li7 O10 1.938523 1_565
Li7 O11 1.997384 1_655
Li7 O16 2.120698 1_565
Li8 O21 1.913142 1_555
Li8 O25 1.938523 1_555
Li8 O24 1.997384 1_455
Li8 O19 2.120698 1_555
Li9 O24 1.997064 1_555
Li9 O17 2.094250 1_555
Li9 O16 2.121733 1_555
Li9 O22 2.292023 1_555
Li9 O21 2.354949 1_655
Li10 O27 2.023979 1_555
Li10 O20 2.054916 1_555
Li10 O28 2.145753 1_565
Li10 O22 2.353582 1_565
Li10 O23 2.418375 1_655
Li11 O23 1.901148 1_555
Li11 O20 1.933365 1_555
Li11 O19 1.983658 1_555
Li11 O25 2.126067 1_555
Li12 O30 1.901148 1_555
Li12 O33 1.933365 1_655
Li12 O34 1.983658 1_555
Li12 O28 2.126067 1_555
Li13 O26 2.023979 1_555
Li13 O33 2.054916 1_555
Li13 O25 2.145753 1_555
Li13 O31 2.353582 1_555
Li13 O30 2.418375 1_555
Li14 O29 1.997064 1_555
Li14 O0 2.094250 1_566
Li14 O1 2.121733 1_556
Li14 O31 2.292023 1_555
Li14 O32 2.354949 1_555
Li15 O32 1.913142 1_555
Li15 O28 1.938523 1_565
Li15 O29 1.997384 1_555
Li15 O34 2.120698 1_565
O0 P7 1.584880 1_554
O0 V0 2.026266 1_555
O1 P0 1.538494 1_555
O2 P0 1.518960 1_555
O3 P7 1.609535 1_554
O3 V0 1.999382 1_555
O4 V0 1.650584 1_655
O5 P2 1.609016 1_565
O5 V0 2.007079 1_565
O6 P1 1.518815 1_555
O7 P1 1.536577 1_455
O8 P2 1.584472 1_555
O8 V0 2.014762 1_555
O9 P1 1.584472 1_555
O9 V1 2.014762 1_555
O10 P2 1.536577 1_555
O11 P2 1.518815 1_565
O12 P1 1.609016 1_555
O12 V1 2.007079 1_555
O13 V1 1.650584 1_555
O14 P4 1.609535 1_555
O14 V1 1.999382 1_555
O15 P3 1.518960 1_555
O16 P3 1.538494 1_655
O17 P4 1.584880 1_555
O17 V1 2.026266 1_555
O18 P3 1.584880 1_555
O18 V2 2.026266 1_555
O19 P4 1.538494 1_455
O20 P4 1.518960 1_555
O21 P3 1.609535 1_555
O21 V2 1.999382 1_555
O22 V2 1.650584 1_555
O23 P6 1.609016 1_565
O23 V2 2.007079 1_565
O24 P5 1.518815 1_555
O25 P5 1.536577 1_555
O26 P6 1.584472 1_555
O26 V2 2.014762 1_555
O27 P5 1.584472 1_555
O27 V3 2.014762 1_555
O28 P6 1.536577 1_655
O29 P6 1.518815 1_565
O30 P5 1.609016 1_555
O30 V3 2.007079 1_555
O31 V3 1.650584 1_455
O32 P0 1.609535 1_556
O32 V3 1.999382 1_555
O33 P7 1.518960 1_555
O34 P7 1.538494 1_555
O35 P0 1.584880 1_556
O35 V3 2.026266 1_555
