# generated using pymatgen
data_Co3(PO4)2
_symmetry_space_group_name_H-M   'P 1'
_cell_length_a   9.92592200
_cell_length_b   8.80000600
_cell_length_c   20.70569712
_cell_angle_alpha   80.89597300
_cell_angle_beta   90.00000000
_cell_angle_gamma   90.00000000
_symmetry_Int_Tables_number   1
_chemical_formula_structural   Co3(PO4)2
_chemical_formula_sum   'Co36 P24 O96'
_cell_volume   1785.82125877
_cell_formula_units_Z   12
loop_
 _symmetry_equiv_pos_site_id
 _symmetry_equiv_pos_as_xyz
  1  'x, y, z'
loop_
 _atom_site_type_symbol
 _atom_site_label
 _atom_site_symmetry_multiplicity
 _atom_site_fract_x
 _atom_site_fract_y
 _atom_site_fract_z
 _atom_site_occupancy
  Co  Co0  1  0.90600400  0.93034600  0.94056000  1
  Co  Co1  1  0.39332100  0.90903800  0.89196100  1
  Co  Co2  1  0.21848800  0.96257600  0.54494900  1
  Co  Co3  1  0.61468700  0.88858600  0.58276800  1
  Co  Co4  1  0.58062900  0.78768400  0.78373800  1
  Co  Co5  1  0.11293900  0.96076900  0.24442000  1
  Co  Co6  1  0.70507500  0.89615000  0.29652600  1
  Co  Co7  1  0.08062900  0.71231600  0.71626200  1
  Co  Co8  1  0.11468700  0.61141400  0.91723200  1
  Co  Co9  1  0.71848800  0.53742400  0.95505100  1
  Co  Co10  1  0.27772200  0.76394100  0.35979300  1
  Co  Co11  1  0.88178900  0.71883000  0.42343600  1
  Co  Co12  1  0.89332100  0.59096200  0.60803900  1
  Co  Co13  1  0.38178900  0.78117000  0.07656400  1
  Co  Co14  1  0.77772200  0.73605900  0.14020700  1
  Co  Co15  1  0.40600400  0.56965400  0.55944000  1
  Co  Co16  1  0.38706100  0.46076900  0.74442000  1
  Co  Co17  1  0.79492500  0.39615000  0.79652600  1
  Co  Co18  1  0.20507500  0.60385000  0.20347400  1
  Co  Co19  1  0.61293900  0.53923100  0.25558000  1
  Co  Co20  1  0.59399600  0.43034600  0.44056000  1
  Co  Co21  1  0.22227800  0.26394100  0.85979300  1
  Co  Co22  1  0.61821100  0.21883000  0.92343600  1
  Co  Co23  1  0.10667900  0.40903800  0.39196100  1
  Co  Co24  1  0.11821100  0.28117000  0.57656400  1
  Co  Co25  1  0.72227800  0.23605900  0.64020700  1
  Co  Co26  1  0.28151200  0.46257600  0.04494900  1
  Co  Co27  1  0.88531300  0.38858600  0.08276800  1
  Co  Co28  1  0.91937100  0.28768400  0.28373800  1
  Co  Co29  1  0.29492500  0.10385000  0.70347400  1
  Co  Co30  1  0.88706100  0.03923100  0.75558000  1
  Co  Co31  1  0.41937100  0.21231600  0.21626200  1
  Co  Co32  1  0.38531300  0.11141400  0.41723200  1
  Co  Co33  1  0.78151200  0.03742400  0.45505100  1
  Co  Co34  1  0.60667900  0.09096200  0.10803900  1
  Co  Co35  1  0.09399600  0.06965400  0.05944000  1
  P  P0  1  0.12995000  0.95022900  0.82837200  1
  P  P1  1  0.64497100  0.86978900  0.99800100  1
  P  P2  1  0.92514000  0.96755700  0.60538400  1
  P  P3  1  0.35754300  0.80726900  0.67010700  1
  P  P4  1  0.85754300  0.69273100  0.82989300  1
  P  P5  1  0.55423400  0.80126800  0.43905500  1
  P  P6  1  0.43221000  0.84971400  0.21875200  1
  P  P7  1  0.42514000  0.53244300  0.89461600  1
  P  P8  1  0.14497100  0.63021100  0.50199900  1
  P  P9  1  0.62995000  0.54977100  0.67162800  1
  P  P10  1  0.93221000  0.65028600  0.28124800  1
  P  P11  1  0.05423400  0.69873200  0.06094500  1
  P  P12  1  0.94576600  0.30126800  0.93905500  1
  P  P13  1  0.06779000  0.34971400  0.71875200  1
  P  P14  1  0.37005000  0.45022900  0.32837200  1
  P  P15  1  0.85502900  0.36978900  0.49800100  1
  P  P16  1  0.57486000  0.46755700  0.10538400  1
  P  P17  1  0.56779000  0.15028600  0.78124800  1
  P  P18  1  0.44576600  0.19873200  0.56094500  1
  P  P19  1  0.14245700  0.30726900  0.17010700  1
  P  P20  1  0.64245700  0.19273100  0.32989300  1
  P  P21  1  0.07486000  0.03244300  0.39461600  1
  P  P22  1  0.35502900  0.13021100  0.00199900  1
  P  P23  1  0.87005000  0.04977100  0.17162800  1
  O  O0  1  0.53535900  0.99453400  0.82519600  1
  O  O1  1  0.49544300  0.84307100  0.98166300  1
  O  O2  1  0.07284000  0.89996200  0.76514700  1
  O  O3  1  0.24198300  0.92179100  0.64651600  1
  O  O4  1  0.44336100  0.88985700  0.71631900  1
  O  O5  1  0.20251700  0.81869700  0.87550700  1
  O  O6  1  0.81245000  0.95064900  0.55603900  1
  O  O7  1  0.78719800  0.84225900  0.79439700  1
  O  O8  1  0.74141600  0.74271000  0.98371600  1
  O  O9  1  0.95548100  0.93913800  0.43079300  1
  O  O10  1  0.60966700  0.91387800  0.48415700  1
  O  O11  1  0.13255500  0.93956500  0.34264900  1
  O  O12  1  0.93853700  0.72670100  0.89017400  1
  O  O13  1  0.96906100  0.80368800  0.63793500  1
  O  O14  1  0.42671600  0.87897500  0.40289900  1
  O  O15  1  0.98676500  0.97220900  0.13945400  1
  O  O16  1  0.46906100  0.69631200  0.86206500  1
  O  O17  1  0.43853700  0.77329900  0.60982600  1
  O  O18  1  0.29271600  0.98296600  0.04453400  1
  O  O19  1  0.75681700  0.92908300  0.19241300  1
  O  O20  1  0.31783300  0.87840500  0.26583500  1
  O  O21  1  0.24141600  0.75729000  0.51628400  1
  O  O22  1  0.66925000  0.78161900  0.39114400  1
  O  O23  1  0.28719800  0.65774100  0.70560300  1
  O  O24  1  0.31245000  0.54935100  0.94396100  1
  O  O25  1  0.70251700  0.68130300  0.62449300  1
  O  O26  1  0.94336100  0.61014300  0.78368100  1
  O  O27  1  0.65355900  0.88282100  0.07302800  1
  O  O28  1  0.74198300  0.57820900  0.85348400  1
  O  O29  1  0.88058500  0.76620200  0.32549500  1
  O  O30  1  0.57284000  0.60003800  0.73485300  1
  O  O31  1  0.55524100  0.77188600  0.25753600  1
  O  O32  1  0.02138400  0.85677700  0.02017400  1
  O  O33  1  0.99544300  0.65692900  0.51833700  1
  O  O34  1  0.52138400  0.64322300  0.47982600  1
  O  O35  1  0.05524100  0.72811400  0.24246400  1
  O  O36  1  0.38058500  0.73379800  0.17450500  1
  O  O37  1  0.54451900  0.43913800  0.93079300  1
  O  O38  1  0.89033300  0.41387800  0.98415700  1
  O  O39  1  0.15355900  0.61717900  0.42697200  1
  O  O40  1  0.36744500  0.43956500  0.84264900  1
  O  O41  1  0.16925000  0.71838100  0.10885600  1
  O  O42  1  0.03535900  0.50546600  0.67480400  1
  O  O43  1  0.07328400  0.37897500  0.90289900  1
  O  O44  1  0.51323500  0.47220900  0.63945400  1
  O  O45  1  0.81783300  0.62159500  0.23416500  1
  O  O46  1  0.20728400  0.48296600  0.54453400  1
  O  O47  1  0.74318300  0.42908300  0.69241300  1
  O  O48  1  0.25681700  0.57091700  0.30758700  1
  O  O49  1  0.79271600  0.51703400  0.45546600  1
  O  O50  1  0.18216700  0.37840500  0.76583500  1
  O  O51  1  0.48676500  0.52779100  0.36054600  1
  O  O52  1  0.92671600  0.62102500  0.09710100  1
  O  O53  1  0.96464100  0.49453400  0.32519600  1
  O  O54  1  0.83075000  0.28161900  0.89114400  1
  O  O55  1  0.63255500  0.56043500  0.15735100  1
  O  O56  1  0.84644100  0.38282100  0.57302800  1
  O  O57  1  0.10966700  0.58612200  0.01584300  1
  O  O58  1  0.45548100  0.56086200  0.06920700  1
  O  O59  1  0.61941500  0.26620200  0.82549500  1
  O  O60  1  0.94475900  0.27188600  0.75753600  1
  O  O61  1  0.47861600  0.35677700  0.52017400  1
  O  O62  1  0.00455700  0.34307100  0.48166300  1
  O  O63  1  0.97861600  0.14322300  0.97982600  1
  O  O64  1  0.44475900  0.22811400  0.74246400  1
  O  O65  1  0.42716000  0.39996200  0.26514700  1
  O  O66  1  0.11941500  0.23379800  0.67450500  1
  O  O67  1  0.25801700  0.42179100  0.14651600  1
  O  O68  1  0.34644100  0.11717900  0.92697200  1
  O  O69  1  0.05663900  0.38985700  0.21631900  1
  O  O70  1  0.29748300  0.31869700  0.37550700  1
  O  O71  1  0.68755000  0.45064900  0.05603900  1
  O  O72  1  0.71280200  0.34225900  0.29439700  1
  O  O73  1  0.33075000  0.21838100  0.60885600  1
  O  O74  1  0.75858400  0.24271000  0.48371600  1
  O  O75  1  0.68216700  0.12159500  0.73416500  1
  O  O76  1  0.24318300  0.07091700  0.80758700  1
  O  O77  1  0.70728400  0.01703400  0.95546600  1
  O  O78  1  0.56146300  0.22670100  0.39017400  1
  O  O79  1  0.53093900  0.30368800  0.13793500  1
  O  O80  1  0.01323500  0.02779100  0.86054600  1
  O  O81  1  0.57328400  0.12102500  0.59710100  1
  O  O82  1  0.03093900  0.19631200  0.36206500  1
  O  O83  1  0.06146300  0.27329900  0.10982600  1
  O  O84  1  0.86744500  0.06043500  0.65735100  1
  O  O85  1  0.39033300  0.08612200  0.51584300  1
  O  O86  1  0.04451900  0.06086200  0.56920700  1
  O  O87  1  0.25858400  0.25729000  0.01628400  1
  O  O88  1  0.21280200  0.15774100  0.20560300  1
  O  O89  1  0.18755000  0.04935100  0.44396100  1
  O  O90  1  0.79748300  0.18130300  0.12449300  1
  O  O91  1  0.55663900  0.11014300  0.28368100  1
  O  O92  1  0.75801700  0.07820900  0.35348400  1
  O  O93  1  0.92716000  0.10003800  0.23485300  1
  O  O94  1  0.50455700  0.15692900  0.01833700  1
  O  O95  1  0.46464100  0.00546600  0.17480400  1
loop_
_geom_bond_atom_site_label_1
_geom_bond_atom_site_label_2
_geom_bond_distance
_geom_bond_site_symmetry_2
Co0 O32 2.027423 1_656
Co0 O80 2.040449 1_665
Co0 O77 2.154620 1_565
Co0 O12 2.235151 1_555
Co0 O63 2.274157 1_565
Co0 O8 2.393104 1_555
Co1 O0 2.033639 1_555
Co1 O5 2.102543 1_555
Co1 O1 2.114948 1_555
Co1 O68 2.125359 1_565
Co1 O16 2.195318 1_555
Co1 O76 2.552391 1_565
Co2 O21 2.001721 1_555
Co2 O86 2.029702 1_565
Co2 O85 2.060910 1_565
Co2 O3 2.089741 1_555
Co2 O89 2.131786 1_565
Co3 O10 2.019206 1_555
Co3 O17 2.054351 1_555
Co3 O25 2.082073 1_555
Co3 O6 2.088593 1_555
Co3 O81 2.152439 1_565
Co4 O16 2.022501 1_555
Co4 O4 2.053378 1_555
Co4 O30 2.070314 1_555
Co4 O7 2.125322 1_555
Co4 O0 2.178691 1_555
Co5 O11 2.022221 1_555
Co5 O88 2.047481 1_565
Co5 O35 2.132505 1_555
Co5 O20 2.180926 1_555
Co5 O93 2.205645 1_465
Co5 O15 2.496603 1_455
Co6 O31 2.082981 1_555
Co6 O22 2.087007 1_555
Co6 O29 2.117858 1_555
Co6 O19 2.190260 1_555
Co6 O92 2.198124 1_565
Co6 O91 2.372606 1_565
Co7 O13 2.022501 1_455
Co7 O26 2.053378 1_455
Co7 O2 2.070314 1_555
Co7 O23 2.125322 1_555
Co7 O42 2.178691 1_555
Co8 O57 2.019206 1_556
Co8 O12 2.054351 1_455
Co8 O5 2.082073 1_555
Co8 O24 2.088593 1_555
Co8 O43 2.152439 1_555
Co9 O8 2.001721 1_555
Co9 O37 2.029702 1_555
Co9 O38 2.060910 1_555
Co9 O28 2.089741 1_555
Co9 O71 2.131786 1_556
Co10 O14 2.072307 1_555
Co10 O20 2.082747 1_555
Co10 O11 2.101710 1_555
Co10 O39 2.133829 1_555
Co10 O48 2.162839 1_555
Co11 O49 2.000580 1_555
Co11 O29 2.004726 1_555
Co11 O9 2.100072 1_555
Co11 O22 2.255229 1_555
Co11 O33 2.256512 1_555
Co12 O42 2.033639 1_655
Co12 O25 2.102543 1_555
Co12 O33 2.114948 1_555
Co12 O56 2.125359 1_555
Co12 O13 2.195318 1_555
Co12 O47 2.552391 1_555
Co13 O18 2.000580 1_555
Co13 O36 2.004726 1_555
Co13 O58 2.100072 1_555
Co13 O41 2.255229 1_555
Co13 O1 2.256512 1_554
Co14 O52 2.072307 1_555
Co14 O45 2.082747 1_555
Co14 O55 2.101710 1_555
Co14 O27 2.133829 1_555
Co14 O19 2.162839 1_555
Co15 O34 2.027423 1_555
Co15 O44 2.040449 1_555
Co15 O46 2.154620 1_555
Co15 O17 2.235151 1_555
Co15 O61 2.274157 1_555
Co15 O21 2.393104 1_555
Co16 O40 2.022221 1_555
Co16 O23 2.047481 1_555
Co16 O64 2.132505 1_555
Co16 O50 2.180926 1_555
Co16 O30 2.205645 1_555
Co16 O44 2.496603 1_555
Co17 O60 2.082981 1_555
Co17 O54 2.087007 1_555
Co17 O59 2.117858 1_555
Co17 O47 2.190260 1_555
Co17 O28 2.198124 1_555
Co17 O26 2.372606 1_555
Co18 O35 2.082981 1_555
Co18 O41 2.087007 1_555
Co18 O36 2.117858 1_555
Co18 O48 2.190260 1_555
Co18 O67 2.198124 1_555
Co18 O69 2.372606 1_555
Co19 O55 2.022221 1_555
Co19 O72 2.047481 1_555
Co19 O31 2.132505 1_555
Co19 O45 2.180926 1_555
Co19 O65 2.205645 1_555
Co19 O51 2.496603 1_555
Co20 O61 2.027423 1_555
Co20 O51 2.040449 1_555
Co20 O49 2.154620 1_555
Co20 O78 2.235151 1_555
Co20 O34 2.274157 1_555
Co20 O74 2.393104 1_555
Co21 O43 2.072307 1_555
Co21 O50 2.082747 1_555
Co21 O40 2.101710 1_555
Co21 O68 2.133829 1_555
Co21 O76 2.162839 1_555
Co22 O77 2.000580 1_555
Co22 O59 2.004726 1_555
Co22 O37 2.100072 1_555
Co22 O54 2.255229 1_555
Co22 O94 2.256512 1_556
Co23 O53 2.033639 1_455
Co23 O70 2.102543 1_555
Co23 O62 2.114948 1_555
Co23 O39 2.125359 1_555
Co23 O82 2.195318 1_555
Co23 O48 2.552391 1_555
Co24 O46 2.000580 1_555
Co24 O66 2.004726 1_555
Co24 O86 2.100072 1_555
Co24 O73 2.255229 1_555
Co24 O62 2.256512 1_555
Co25 O81 2.072307 1_555
Co25 O75 2.082747 1_555
Co25 O84 2.101710 1_555
Co25 O56 2.133829 1_555
Co25 O47 2.162839 1_555
Co26 O87 2.001721 1_555
Co26 O58 2.029702 1_555
Co26 O57 2.060910 1_555
Co26 O67 2.089741 1_555
Co26 O24 2.131786 1_554
Co27 O38 2.019206 1_554
Co27 O83 2.054351 1_655
Co27 O90 2.082073 1_555
Co27 O71 2.088593 1_555
Co27 O52 2.152439 1_555
Co28 O82 2.022501 1_655
Co28 O69 2.053378 1_655
Co28 O93 2.070314 1_555
Co28 O72 2.125322 1_555
Co28 O53 2.178691 1_555
Co29 O64 2.082981 1_555
Co29 O73 2.087007 1_555
Co29 O66 2.117858 1_555
Co29 O76 2.190260 1_555
Co29 O3 2.198124 1_545
Co29 O4 2.372606 1_545
Co30 O84 2.022221 1_555
Co30 O7 2.047481 1_545
Co30 O60 2.132505 1_555
Co30 O75 2.180926 1_555
Co30 O2 2.205645 1_645
Co30 O80 2.496603 1_655
Co31 O79 2.022501 1_555
Co31 O91 2.053378 1_555
Co31 O65 2.070314 1_555
Co31 O88 2.125322 1_555
Co31 O95 2.178691 1_555
Co32 O85 2.019206 1_555
Co32 O78 2.054351 1_555
Co32 O70 2.082073 1_555
Co32 O89 2.088593 1_555
Co32 O14 2.152439 1_545
Co33 O74 2.001721 1_555
Co33 O9 2.029702 1_545
Co33 O10 2.060910 1_545
Co33 O92 2.089741 1_555
Co33 O6 2.131786 1_545
Co34 O95 2.033639 1_555
Co34 O90 2.102543 1_555
Co34 O94 2.114948 1_555
Co34 O27 2.125359 1_545
Co34 O79 2.195318 1_555
Co34 O19 2.552391 1_545
Co35 O63 2.027423 1_454
Co35 O15 2.040449 1_445
Co35 O18 2.154620 1_545
Co35 O83 2.235151 1_555
Co35 O32 2.274157 1_545
Co35 O87 2.393104 1_555
O0 P17 1.554214 1_565
O1 P1 1.548467 1_555
O2 P0 1.553724 1_555
O3 P3 1.553759 1_555
O4 P3 1.545780 1_555
O5 P0 1.566399 1_555
O6 P2 1.537961 1_555
O7 P4 1.566246 1_555
O8 P1 1.535962 1_555
O9 P21 1.563569 1_665
O10 P5 1.565162 1_555
O11 P21 1.559517 1_565
O12 P4 1.552953 1_555
O13 P2 1.554430 1_555
O14 P5 1.571033 1_555
O15 P23 1.547804 1_565
O16 P7 1.554430 1_555
O17 P3 1.552953 1_555
O18 P22 1.573554 1_565
O19 P23 1.559416 1_565
O20 P6 1.543030 1_555
O21 P8 1.535962 1_555
O22 P5 1.540015 1_555
O23 P3 1.566246 1_555
O24 P7 1.537961 1_555
O25 P9 1.566399 1_555
O26 P4 1.545780 1_555
O27 P1 1.578010 1_554
O28 P4 1.553759 1_555
O29 P10 1.561475 1_555
O30 P9 1.553724 1_555
O31 P6 1.559240 1_555
O32 P11 1.543291 1_555
O33 P8 1.548467 1_655
O34 P5 1.543291 1_555
O35 P10 1.559240 1_455
O36 P6 1.561475 1_555
O37 P7 1.563569 1_555
O38 P12 1.565162 1_555
O39 P8 1.578010 1_555
O40 P7 1.559517 1_555
O41 P11 1.540015 1_555
O42 P13 1.554214 1_555
O43 P12 1.571033 1_455
O44 P9 1.547804 1_555
O45 P10 1.543030 1_555
O46 P8 1.573554 1_555
O47 P9 1.559416 1_555
O48 P14 1.559416 1_555
O49 P15 1.573554 1_555
O50 P13 1.543030 1_555
O51 P14 1.547804 1_555
O52 P11 1.571033 1_655
O53 P10 1.554214 1_555
O54 P12 1.540015 1_555
O55 P16 1.559517 1_555
O56 P15 1.578010 1_555
O57 P11 1.565162 1_555
O58 P16 1.563569 1_555
O59 P17 1.561475 1_555
O60 P13 1.559240 1_655
O61 P18 1.543291 1_555
O62 P15 1.548467 1_455
O63 P12 1.543291 1_555
O64 P17 1.559240 1_555
O65 P14 1.553724 1_555
O66 P13 1.561475 1_555
O67 P19 1.553759 1_555
O68 P22 1.578010 1_556
O69 P19 1.545780 1_555
O70 P14 1.566399 1_555
O71 P16 1.537961 1_555
O72 P20 1.566246 1_555
O73 P18 1.540015 1_555
O74 P15 1.535962 1_555
O75 P17 1.543030 1_555
O76 P0 1.559416 1_545
O77 P1 1.573554 1_545
O78 P20 1.552953 1_555
O79 P16 1.554430 1_555
O80 P0 1.547804 1_545
O81 P18 1.571033 1_555
O82 P21 1.554430 1_555
O83 P19 1.552953 1_555
O84 P2 1.559517 1_545
O85 P18 1.565162 1_555
O86 P2 1.563569 1_445
O87 P22 1.535962 1_555
O88 P19 1.566246 1_555
O89 P21 1.537961 1_555
O90 P23 1.566399 1_555
O91 P20 1.545780 1_555
O92 P20 1.553759 1_555
O93 P23 1.553724 1_555
O94 P22 1.548467 1_555
O95 P6 1.554214 1_545
