# generated using pymatgen
data_Ba4Hf3O10
_symmetry_space_group_name_H-M   'P 1'
_cell_length_a   15.50927065
_cell_length_b   15.50927065
_cell_length_c   5.93499700
_cell_angle_alpha   90.00000000
_cell_angle_beta   90.00000000
_cell_angle_gamma   157.86458612
_symmetry_Int_Tables_number   1
_chemical_formula_structural   Ba4Hf3O10
_chemical_formula_sum   'Ba8 Hf6 O20'
_cell_volume   537.91113951
_cell_formula_units_Z   2
loop_
 _symmetry_equiv_pos_site_id
 _symmetry_equiv_pos_as_xyz
  1  'x, y, z'
loop_
 _atom_site_type_symbol
 _atom_site_label
 _atom_site_symmetry_multiplicity
 _atom_site_fract_x
 _atom_site_fract_y
 _atom_site_fract_z
 _atom_site_occupancy
  Ba  Ba0  1  0.93119300  0.06880700  0.50000000  1
  Ba  Ba1  1  0.20366000  0.79634000  0.50000000  1
  Ba  Ba2  1  0.79634000  0.20366000  0.50000000  1
  Ba  Ba3  1  0.06880700  0.93119300  0.50000000  1
  Ba  Ba4  1  0.70366000  0.29634000  0.00000000  1
  Ba  Ba5  1  0.43119300  0.56880700  0.00000000  1
  Ba  Ba6  1  0.29634000  0.70366000  0.00000000  1
  Ba  Ba7  1  0.56880700  0.43119300  0.00000000  1
  Hf  Hf0  1  0.50000000  0.50000000  0.50000000  1
  Hf  Hf1  1  0.36089600  0.63910400  0.50000000  1
  Hf  Hf2  1  0.63910400  0.36089600  0.50000000  1
  Hf  Hf3  1  0.13910400  0.86089600  0.00000000  1
  Hf  Hf4  1  0.00000000  0.00000000  0.00000000  1
  Hf  Hf5  1  0.86089600  0.13910400  0.00000000  1
  O  O0  1  0.43090200  0.56909800  0.50000000  1
  O  O1  1  0.29235500  0.70764500  0.50000000  1
  O  O2  1  0.70764500  0.29235500  0.50000000  1
  O  O3  1  0.56909800  0.43090200  0.50000000  1
  O  O4  1  0.22967700  0.22967700  0.72956400  1
  O  O5  1  0.89914500  0.62240500  0.73917500  1
  O  O6  1  0.62240500  0.89914500  0.73917500  1
  O  O7  1  0.12240500  0.39914500  0.76082500  1
  O  O8  1  0.39914500  0.12240500  0.76082500  1
  O  O9  1  0.72967700  0.72967700  0.77043600  1
  O  O10  1  0.93090200  0.06909800  0.00000000  1
  O  O11  1  0.20764500  0.79235500  0.00000000  1
  O  O12  1  0.79235500  0.20764500  0.00000000  1
  O  O13  1  0.06909800  0.93090200  0.00000000  1
  O  O14  1  0.27032300  0.27032300  0.22956400  1
  O  O15  1  0.60085500  0.87759500  0.23917500  1
  O  O16  1  0.87759500  0.60085500  0.23917500  1
  O  O17  1  0.10085500  0.37759500  0.26082500  1
  O  O18  1  0.37759500  0.10085500  0.26082500  1
  O  O19  1  0.77032300  0.77032300  0.27043600  1
loop_
_geom_bond_atom_site_label_1
_geom_bond_atom_site_label_2
_geom_bond_distance
_geom_bond_site_symmetry_2
Ba0 O19 2.848519 1_545
Ba0 O4 2.848519 1_655
Ba0 O17 2.920348 1_655
Ba0 O6 2.920348 1_545
Ba0 O10 2.967512 1_556
Ba0 O10 2.967512 1_555
Ba0 O0 2.977310 1_545
Ba0 O0 2.977310 1_655
Ba0 O7 3.048243 1_655
Ba0 O15 3.048243 1_545
Ba0 O9 3.091035 1_545
Ba0 O14 3.091035 1_655
Ba1 O1 2.700020 1_555
Ba1 O5 2.827445 1_455
Ba1 O18 2.827445 1_565
Ba1 O16 2.959358 1_455
Ba1 O8 2.959358 1_565
Ba1 O11 2.969977 1_555
Ba1 O11 2.969977 1_556
Ba1 O2 2.979767 1_565
Ba1 O2 2.979767 1_455
Ba2 O2 2.700020 1_555
Ba2 O6 2.827445 1_545
Ba2 O17 2.827445 1_655
Ba2 O15 2.959358 1_545
Ba2 O7 2.959358 1_655
Ba2 O12 2.969977 1_555
Ba2 O12 2.969977 1_556
Ba2 O1 2.979767 1_655
Ba2 O1 2.979767 1_545
Ba3 O19 2.848519 1_455
Ba3 O4 2.848519 1_565
Ba3 O18 2.920348 1_565
Ba3 O5 2.920348 1_455
Ba3 O13 2.967512 1_556
Ba3 O13 2.967512 1_555
Ba3 O3 2.977310 1_455
Ba3 O3 2.977310 1_565
Ba3 O8 3.048243 1_565
Ba3 O16 3.048243 1_455
Ba3 O9 3.091035 1_455
Ba3 O14 3.091035 1_565
Ba4 O12 2.700020 1_555
Ba4 O16 2.827445 1_555
Ba4 O8 2.827445 1_554
Ba4 O5 2.959358 1_554
Ba4 O18 2.959358 1_555
Ba4 O2 2.969977 1_555
Ba4 O2 2.969977 1_554
Ba4 O11 2.979767 1_655
Ba4 O11 2.979767 1_545
Ba5 O9 2.848519 1_554
Ba5 O14 2.848519 1_555
Ba5 O7 2.920348 1_554
Ba5 O15 2.920348 1_555
Ba5 O0 2.967512 1_555
Ba5 O0 2.967512 1_554
Ba5 O10 2.977310 1_565
Ba5 O10 2.977310 1_455
Ba5 O17 3.048243 1_555
Ba5 O6 3.048243 1_554
Ba5 O4 3.091035 1_554
Ba5 O19 3.091035 1_555
Ba6 O11 2.700020 1_555
Ba6 O15 2.827445 1_555
Ba6 O7 2.827445 1_554
Ba6 O6 2.959358 1_554
Ba6 O17 2.959358 1_555
Ba6 O1 2.969977 1_555
Ba6 O1 2.969977 1_554
Ba6 O12 2.979767 1_565
Ba6 O12 2.979767 1_455
Ba7 O9 2.848519 1_554
Ba7 O14 2.848519 1_555
Ba7 O8 2.920348 1_554
Ba7 O16 2.920348 1_555
Ba7 O3 2.967512 1_555
Ba7 O3 2.967512 1_554
Ba7 O13 2.977310 1_655
Ba7 O13 2.977310 1_545
Ba7 O18 3.048243 1_555
Ba7 O5 3.048243 1_554
Ba7 O4 3.091035 1_554
Ba7 O19 3.091035 1_555
Hf0 O3 2.103456 1_555
Hf0 O0 2.103456 1_555
Hf0 O9 2.108688 1_555
Hf0 O14 2.108688 1_555
Hf0 O19 2.108867 1_555
Hf0 O4 2.108867 1_555
Hf1 O1 2.086500 1_555
Hf1 O15 2.103795 1_555
Hf1 O7 2.103795 1_555
Hf1 O6 2.103973 1_555
Hf1 O17 2.103973 1_555
Hf1 O0 2.131097 1_555
Hf2 O2 2.086500 1_555
Hf2 O16 2.103795 1_555
Hf2 O8 2.103795 1_555
Hf2 O5 2.103973 1_555
Hf2 O18 2.103973 1_555
Hf2 O3 2.131097 1_555
Hf3 O11 2.086500 1_555
Hf3 O18 2.103795 1_565
Hf3 O5 2.103795 1_454
Hf3 O8 2.103973 1_564
Hf3 O16 2.103973 1_455
Hf3 O13 2.131097 1_555
Hf4 O10 2.103456 1_455
Hf4 O13 2.103456 1_545
Hf4 O19 2.108688 1_445
Hf4 O4 2.108688 1_554
Hf4 O9 2.108867 1_444
Hf4 O14 2.108867 1_555
Hf5 O12 2.086500 1_555
Hf5 O17 2.103795 1_655
Hf5 O6 2.103795 1_544
Hf5 O7 2.103973 1_654
Hf5 O15 2.103973 1_545
Hf5 O10 2.131097 1_555
