# generated using pymatgen
data_FeOF
_symmetry_space_group_name_H-M   'P 1'
_cell_length_a   14.15023525
_cell_length_b   4.78539346
_cell_length_c   3.06085500
_cell_angle_alpha   90.00000000
_cell_angle_beta   90.00000000
_cell_angle_gamma   91.25211075
_symmetry_Int_Tables_number   1
_chemical_formula_structural   FeOF
_chemical_formula_sum   'Fe6 O6 F6'
_cell_volume   207.21460220
_cell_formula_units_Z   6
loop_
 _symmetry_equiv_pos_site_id
 _symmetry_equiv_pos_as_xyz
  1  'x, y, z'
loop_
 _atom_site_type_symbol
 _atom_site_label
 _atom_site_symmetry_multiplicity
 _atom_site_fract_x
 _atom_site_fract_y
 _atom_site_fract_z
 _atom_site_occupancy
  Fe  Fe0  1  0.00497200  0.01277100  0.00000000  1
  Fe  Fe1  1  0.17706200  0.43201700  0.50000000  1
  Fe  Fe2  1  0.33806900  0.99764400  0.00000000  1
  Fe  Fe3  1  0.50021600  0.56278000  0.50000000  1
  Fe  Fe4  1  0.67189800  0.99254400  0.00000000  1
  Fe  Fe5  1  0.80909000  0.50559400  0.50000000  1
  O  O0  1  0.09968500  0.29270400  0.00000000  1
  O  O1  1  0.27457200  0.17766000  0.50000000  1
  O  O2  1  0.39061900  0.80280600  0.50000000  1
  O  O3  1  0.56522700  0.71369100  0.00000000  1
  O  O4  1  0.73406000  0.81888600  0.50000000  1
  O  O5  1  0.76744900  0.30306900  0.00000000  1
  F  F0  1  0.06273200  0.80345800  0.50000000  1
  F  F1  1  0.22605000  0.68790100  0.00000000  1
  F  F2  1  0.43734500  0.30878500  0.00000000  1
  F  F3  1  0.60025000  0.20715700  0.50000000  1
  F  F4  1  0.90606200  0.69618700  0.00000000  1
  F  F5  1  0.93464300  0.18434200  0.50000000  1
loop_
_geom_bond_atom_site_label_1
_geom_bond_atom_site_label_2
_geom_bond_distance
_geom_bond_site_symmetry_2
Fe0 O0 1.874088 1_555
Fe1 O1 1.859782 1_555
Fe1 O0 1.988357 1_556
Fe1 O0 1.988357 1_555
Fe2 O2 1.948016 1_554
Fe2 O2 1.948016 1_555
Fe2 O1 1.981268 1_565
Fe2 O1 1.981268 1_564
Fe3 O3 1.918582 1_555
Fe3 O3 1.918582 1_556
Fe3 O2 1.949930 1_555
Fe4 O4 1.959199 1_554
Fe4 O4 1.959199 1_555
Fe4 O5 1.987067 1_565
Fe4 O3 1.992737 1_555
Fe5 O4 1.855918 1_555
Fe5 O5 1.898346 1_556
Fe5 O5 1.898346 1_555
F0 Fe0 2.012284 1_565
F0 Fe0 2.012284 1_566
F0 Fe1 2.429489 1_555
F1 Fe1 2.070034 1_554
F1 Fe1 2.070034 1_555
F1 Fe2 2.146366 1_555
F2 Fe2 2.024577 1_545
F2 Fe3 2.136297 1_555
F2 Fe3 2.136297 1_554
F3 Fe4 2.114313 1_545
F3 Fe4 2.114313 1_546
F3 Fe3 2.237195 1_555
F4 Fe0 2.039945 1_665
F4 Fe5 2.236569 1_554
F4 Fe5 2.236569 1_555
F5 Fe0 2.010568 1_655
F5 Fe0 2.010568 1_656
F5 Fe5 2.374664 1_555
