# generated using pymatgen
data_Na3CaAl3Si3CO15
_symmetry_space_group_name_H-M   'P 1'
_cell_length_a   12.55402289
_cell_length_b   12.55402289
_cell_length_c   5.73906100
_cell_angle_alpha   90.00000000
_cell_angle_beta   90.00000000
_cell_angle_gamma   120.00000469
_symmetry_Int_Tables_number   1
_chemical_formula_structural   Na3CaAl3Si3CO15
_chemical_formula_sum   'Na6 Ca2 Al6 Si6 C2 O30'
_cell_volume   783.31651741
_cell_formula_units_Z   2
loop_
 _symmetry_equiv_pos_site_id
 _symmetry_equiv_pos_as_xyz
  1  'x, y, z'
loop_
 _atom_site_type_symbol
 _atom_site_label
 _atom_site_symmetry_multiplicity
 _atom_site_fract_x
 _atom_site_fract_y
 _atom_site_fract_z
 _atom_site_occupancy
  Na  Na0  1  0.96997100  0.48198200  0.69269900  1
  Na  Na1  1  0.03002900  0.51801800  0.19269900  1
  Na  Na2  1  0.51801800  0.48799000  0.69269900  1
  Na  Na3  1  0.48198200  0.51201000  0.19269900  1
  Na  Na4  1  0.48799000  0.96997100  0.19269900  1
  Na  Na5  1  0.51201000  0.03002900  0.69269900  1
  Ca  Ca0  1  0.33333300  0.66666700  0.66431000  1
  Ca  Ca1  1  0.66666700  0.33333300  0.16431000  1
  Al  Al0  1  0.00402400  0.74104400  0.22009900  1
  Al  Al1  1  0.26298000  0.00402400  0.72009900  1
  Al  Al2  1  0.74104400  0.73702000  0.72009900  1
  Al  Al3  1  0.25895600  0.26298000  0.22009900  1
  Al  Al4  1  0.73702000  0.99597600  0.22009900  1
  Al  Al5  1  0.99597600  0.25895600  0.72009900  1
  Si  Si0  1  0.26949400  0.00335900  0.22058000  1
  Si  Si1  1  0.26613400  0.26949400  0.72058000  1
  Si  Si2  1  0.00335900  0.73386600  0.72058000  1
  Si  Si3  1  0.99664100  0.26613400  0.22058000  1
  Si  Si4  1  0.73386600  0.73050600  0.22058000  1
  Si  Si5  1  0.73050600  0.99664100  0.72058000  1
  C  C0  1  0.33333300  0.66666700  0.27745200  1
  C  C1  1  0.66666700  0.33333300  0.77745200  1
  O  O0  1  0.62639500  0.21706400  0.80441600  1
  O  O1  1  0.40933100  0.62639500  0.30441600  1
  O  O2  1  0.64847100  0.99064500  0.95913600  1
  O  O3  1  0.65345000  0.00011600  0.47997400  1
  O  O4  1  0.73301900  0.86980600  0.71603600  1
  O  O5  1  0.74692100  0.86394000  0.22652400  1
  O  O6  1  0.86980600  0.13678700  0.21603600  1
  O  O7  1  0.65333400  0.65345000  0.97997400  1
  O  O8  1  0.65782600  0.64847100  0.45913600  1
  O  O9  1  0.86394000  0.11701900  0.72652400  1
  O  O10  1  0.99064500  0.34217400  0.45913600  1
  O  O11  1  0.00011600  0.34666600  0.97997400  1
  O  O12  1  0.21706400  0.59066900  0.30441600  1
  O  O13  1  0.88298100  0.74692100  0.72652400  1
  O  O14  1  0.86321300  0.73301900  0.21603600  1
  O  O15  1  0.13678700  0.26698100  0.71603600  1
  O  O16  1  0.11701900  0.25307900  0.22652400  1
  O  O17  1  0.78293600  0.40933100  0.80441600  1
  O  O18  1  0.99988400  0.65333400  0.47997400  1
  O  O19  1  0.00935500  0.65782600  0.95913600  1
  O  O20  1  0.13606000  0.88298100  0.22652400  1
  O  O21  1  0.34217400  0.35152900  0.95913600  1
  O  O22  1  0.34666600  0.34655000  0.47997400  1
  O  O23  1  0.13019400  0.86321300  0.71603600  1
  O  O24  1  0.25307900  0.13606000  0.72652400  1
  O  O25  1  0.26698100  0.13019400  0.21603600  1
  O  O26  1  0.34655000  0.99988400  0.97997400  1
  O  O27  1  0.35152900  0.00935500  0.45913600  1
  O  O28  1  0.59066900  0.37360500  0.80441600  1
  O  O29  1  0.37360500  0.78293600  0.30441600  1
loop_
_geom_bond_atom_site_label_1
_geom_bond_atom_site_label_2
_geom_bond_distance
_geom_bond_site_symmetry_2
Na0 O17 2.148179 1_555
Na0 O10 2.323837 1_555
Na0 O18 2.334766 1_555
Na0 O19 2.522777 1_655
Na0 O11 2.527857 1_655
Na1 O12 2.148179 1_555
Na1 O19 2.323837 1_554
Na1 O11 2.334766 1_554
Na1 O10 2.522777 1_455
Na1 O18 2.527857 1_455
Na2 O28 2.148190 1_555
Na2 O8 2.323831 1_555
Na2 O22 2.334770 1_555
Na2 O21 2.522780 1_555
Na2 O7 2.527850 1_555
Na3 O1 2.148190 1_555
Na3 O21 2.323831 1_554
Na3 O7 2.334770 1_554
Na3 O8 2.522780 1_555
Na3 O22 2.527850 1_555
Na4 O29 2.148180 1_555
Na4 O2 2.323827 1_554
Na4 O26 2.334776 1_554
Na4 O27 2.522786 1_565
Na4 O3 2.527847 1_565
Na5 O0 2.148180 1_555
Na5 O27 2.323827 1_555
Na5 O3 2.334776 1_555
Na5 O2 2.522786 1_545
Na5 O26 2.527847 1_545
Ca0 O29 2.431934 1_555
Ca0 O12 2.431935 1_555
Ca0 O1 2.431941 1_555
Ca1 O0 2.431934 1_554
Ca1 O17 2.431935 1_554
Ca1 O28 2.431941 1_554
Al0 O14 1.719744 1_455
Al0 O20 1.723492 1_555
Al0 O18 1.839106 1_455
Al0 O19 1.846318 1_554
Al1 O23 1.719744 1_545
Al1 O24 1.723492 1_555
Al1 O26 1.839106 1_545
Al1 O27 1.846318 1_555
Al2 O4 1.719744 1_555
Al2 O13 1.723492 1_555
Al2 O7 1.839106 1_555
Al2 O8 1.846318 1_555
Al3 O25 1.719744 1_555
Al3 O16 1.723492 1_555
Al3 O22 1.839106 1_555
Al3 O21 1.846318 1_554
Al4 O6 1.719744 1_565
Al4 O5 1.723492 1_555
Al4 O3 1.839106 1_565
Al4 O2 1.846318 1_554
Al5 O15 1.719744 1_655
Al5 O9 1.723492 1_555
Al5 O11 1.839106 1_655
Al5 O10 1.846318 1_555
C0 O29 1.293118 1_555
C0 O12 1.293120 1_555
C0 O1 1.293129 1_555
C0 Ca0 2.220202 1_555
C1 O0 1.293118 1_555
C1 O17 1.293120 1_555
C1 O28 1.293129 1_555
C1 Ca1 2.220202 1_556
O2 Si5 1.692092 1_555
O3 Si5 1.699014 1_545
O4 Si5 1.608507 1_555
O5 Si4 1.599861 1_555
O6 Si3 1.608501 1_555
O7 Si4 1.699018 1_556
O8 Si4 1.692095 1_555
O9 Si5 1.599855 1_545
O10 Si3 1.692099 1_555
O11 Si3 1.699021 1_456
O13 Si2 1.599848 1_655
O14 Si4 1.608495 1_555
O15 Si1 1.608495 1_555
O16 Si3 1.599848 1_455
O18 Si2 1.699021 1_655
O19 Si2 1.692099 1_555
O20 Si0 1.599855 1_565
O21 Si1 1.692095 1_555
O22 Si1 1.699018 1_555
O23 Si2 1.608501 1_555
O24 Si1 1.599861 1_555
O25 Si0 1.608507 1_555
O26 Si0 1.699014 1_566
O27 Si0 1.692092 1_555
