# generated using pymatgen
data_Na3MnPCO7
_symmetry_space_group_name_H-M   'P 1'
_cell_length_a   5.32203306
_cell_length_b   11.32042220
_cell_length_c   11.32132381
_cell_angle_alpha   106.85414413
_cell_angle_beta   90.00267858
_cell_angle_gamma   90.00517996
_symmetry_Int_Tables_number   1
_chemical_formula_structural   Na3MnPCO7
_chemical_formula_sum   'Na12 Mn4 P4 C4 O28'
_cell_volume   652.78502872
_cell_formula_units_Z   4
loop_
 _symmetry_equiv_pos_site_id
 _symmetry_equiv_pos_as_xyz
  1  'x, y, z'
loop_
 _atom_site_type_symbol
 _atom_site_label
 _atom_site_symmetry_multiplicity
 _atom_site_fract_x
 _atom_site_fract_y
 _atom_site_fract_z
 _atom_site_occupancy
  Na  Na0  1  0.00239200  0.24110900  0.24309100  1
  Na  Na1  1  0.00218500  0.74113500  0.74308000  1
  Na  Na2  1  0.99753000  0.99309900  0.99112700  1
  Na  Na3  1  0.99768400  0.49306100  0.49112600  1
  Na  Na4  1  0.44201700  0.02912600  0.19545400  1
  Na  Na5  1  0.44208000  0.52913200  0.69548100  1
  Na  Na6  1  0.55782700  0.94548200  0.77915000  1
  Na  Na7  1  0.55773900  0.44552400  0.27907700  1
  Na  Na8  1  0.49518600  0.99739200  0.49264400  1
  Na  Na9  1  0.49490700  0.49744500  0.99256300  1
  Na  Na10  1  0.50532000  0.24252800  0.74738500  1
  Na  Na11  1  0.50483300  0.74266100  0.24739600  1
  Mn  Mn0  1  0.02089200  0.72205600  0.01626900  1
  Mn  Mn1  1  0.97960600  0.26628300  0.97206800  1
  Mn  Mn2  1  0.02174800  0.22208600  0.51623400  1
  Mn  Mn3  1  0.97856800  0.76620700  0.47206000  1
  P  P0  1  0.98379700  0.94745500  0.29041100  1
  P  P1  1  0.98397800  0.44749300  0.79041200  1
  P  P2  1  0.01608000  0.04042400  0.69748300  1
  P  P3  1  0.01586900  0.54051600  0.19748900  1
  C  C0  1  0.49907800  0.29370500  0.44352100  1
  C  C1  1  0.49838800  0.79370100  0.94341700  1
  C  C2  1  0.50113300  0.69347900  0.54377500  1
  C  C3  1  0.50161400  0.19345000  0.04374100  1
  O  O0  1  0.32230800  0.34312300  0.39389300  1
  O  O1  1  0.32171700  0.84327000  0.89389700  1
  O  O2  1  0.67794100  0.64387300  0.59320000  1
  O  O3  1  0.67820300  0.14389400  0.09333800  1
  O  O4  1  0.73517000  0.31306300  0.42063100  1
  O  O5  1  0.73442900  0.81291300  0.92031200  1
  O  O6  1  0.26504300  0.67049900  0.56308000  1
  O  O7  1  0.26542000  0.17043600  0.06302300  1
  O  O8  1  0.06598000  0.90189200  0.15169500  1
  O  O9  1  0.06606500  0.40190600  0.65170700  1
  O  O10  1  0.93395700  0.90169800  0.65190800  1
  O  O11  1  0.93400600  0.40173500  0.15191200  1
  O  O12  1  0.07477700  0.08474700  0.33778800  1
  O  O13  1  0.07476300  0.58479200  0.83780100  1
  O  O14  1  0.92525600  0.08782300  0.83477700  1
  O  O15  1  0.92520600  0.58778500  0.33479800  1
  O  O16  1  0.44357900  0.22670700  0.51485000  1
  O  O17  1  0.44315500  0.72674600  0.01480600  1
  O  O18  1  0.55652500  0.76480800  0.47675000  1
  O  O19  1  0.55690400  0.26479700  0.97676400  1
  O  O20  1  0.69736700  0.93665100  0.30313800  1
  O  O21  1  0.69759600  0.43663200  0.80312600  1
  O  O22  1  0.30248100  0.05312500  0.68664100  1
  O  O23  1  0.30222400  0.55335000  0.18657900  1
  O  O24  1  0.12624800  0.87042500  0.36352500  1
  O  O25  1  0.12675100  0.37060700  0.86361100  1
  O  O26  1  0.87356400  0.11357900  0.62049800  1
  O  O27  1  0.87291500  0.61377300  0.12069500  1
loop_
_geom_bond_atom_site_label_1
_geom_bond_atom_site_label_2
_geom_bond_distance
_geom_bond_site_symmetry_2
Na0 O12 2.351914 1_555
Na0 O11 2.364946 1_455
Na0 O4 2.403577 1_455
Na0 O7 2.410450 1_555
Na0 O3 2.445360 1_455
Na0 O0 2.450182 1_555
Na1 O13 2.352075 1_555
Na1 O10 2.364126 1_455
Na1 O5 2.402497 1_455
Na1 O6 2.409311 1_555
Na1 O2 2.446508 1_455
Na1 O1 2.449227 1_555
Na2 O14 2.351955 1_565
Na2 O8 2.364678 1_656
Na2 O7 2.403584 1_666
Na2 O5 2.411474 1_555
Na2 O1 2.446095 1_655
Na2 O3 2.448784 1_566
Na3 O15 2.351912 1_555
Na3 O9 2.364365 1_655
Na3 O6 2.402816 1_655
Na3 O4 2.407751 1_555
Na3 O0 2.448439 1_655
Na3 O2 2.450010 1_555
Na4 O20 2.273580 1_545
Na4 O3 2.339949 1_555
Na4 O8 2.431205 1_545
Na4 O12 2.495033 1_555
Na4 O7 2.661038 1_555
Na5 O21 2.273987 1_555
Na5 O2 2.340031 1_555
Na5 O9 2.431066 1_555
Na5 O13 2.495293 1_555
Na5 O6 2.662109 1_555
Na6 O22 2.273495 1_565
Na6 O1 2.340300 1_555
Na6 O10 2.431948 1_555
Na6 O14 2.495560 1_565
Na6 O5 2.660924 1_555
Na7 O23 2.275343 1_555
Na7 O0 2.340312 1_555
Na7 O11 2.432085 1_555
Na7 O15 2.495270 1_555
Na7 O4 2.664975 1_555
Na8 O20 2.319161 1_555
Na8 O22 2.338895 1_565
Na8 O16 2.549363 1_565
Na8 O26 2.602994 1_565
Na8 O18 2.607067 1_555
Na8 O24 2.615137 1_555
Na9 O21 2.319785 1_555
Na9 O23 2.339025 1_556
Na9 O17 2.549207 1_556
Na9 O27 2.603311 1_556
Na9 O19 2.608466 1_555
Na9 O25 2.610692 1_555
Na10 O22 2.319489 1_555
Na10 O21 2.338617 1_555
Na10 O19 2.550093 1_555
Na10 O25 2.605258 1_555
Na10 O16 2.607134 1_555
Na10 O26 2.611541 1_555
Na11 O23 2.318070 1_555
Na11 O20 2.338107 1_555
Na11 O18 2.550147 1_555
Na11 O24 2.603485 1_555
Na11 O17 2.607470 1_555
Na11 O27 2.609801 1_555
Mn0 O27 2.088249 1_455
Mn0 O8 2.177787 1_555
Mn0 O13 2.181448 1_554
Mn0 O17 2.248095 1_555
Mn0 O5 2.282637 1_454
Mn1 O25 2.087220 1_655
Mn1 O11 2.178402 1_556
Mn1 O14 2.181729 1_555
Mn1 O19 2.250441 1_555
Mn1 O7 2.280230 1_656
Mn2 O26 2.089220 1_455
Mn2 O9 2.177437 1_555
Mn2 O12 2.181061 1_555
Mn2 O16 2.245764 1_555
Mn2 O4 2.281417 1_455
Mn3 O24 2.088071 1_655
Mn3 O10 2.178046 1_555
Mn3 O15 2.180583 1_555
Mn3 O18 2.246920 1_555
Mn3 O6 2.282058 1_655
C0 O16 1.292184 1_555
C0 O0 1.302312 1_555
C0 O4 1.314099 1_555
C1 O17 1.292028 1_556
C1 O1 1.302201 1_555
C1 O5 1.314070 1_555
C2 O18 1.292283 1_555
C2 O2 1.302363 1_555
C2 O6 1.314198 1_555
C3 O19 1.291903 1_554
C3 O3 1.302289 1_555
C3 O7 1.314764 1_555
O8 P0 1.566540 1_455
O9 P1 1.566295 1_455
O10 P2 1.566367 1_665
O11 P3 1.566547 1_655
O12 P0 1.566567 1_445
O13 P1 1.566324 1_455
O14 P2 1.566541 1_655
O15 P3 1.566348 1_655
O20 P0 1.539380 1_555
O21 P1 1.539178 1_555
O22 P2 1.539235 1_555
O23 P3 1.539252 1_555
O24 P0 1.561713 1_455
O25 P1 1.562051 1_455
O26 P2 1.561840 1_655
O27 P3 1.562235 1_655
