# generated using pymatgen
data_Li7Mn7(P4O17)2
_symmetry_space_group_name_H-M   'P 1'
_cell_length_a   20.04278500
_cell_length_b   8.18754800
_cell_length_c   10.02909587
_cell_angle_alpha   70.21944765
_cell_angle_beta   90.00000000
_cell_angle_gamma   90.00000000
_symmetry_Int_Tables_number   1
_chemical_formula_structural   Li7Mn7(P4O17)2
_chemical_formula_sum   'Li14 Mn14 P16 O68'
_cell_volume   1548.67876867
_cell_formula_units_Z   2
loop_
 _symmetry_equiv_pos_site_id
 _symmetry_equiv_pos_as_xyz
  1  'x, y, z'
loop_
 _atom_site_type_symbol
 _atom_site_label
 _atom_site_symmetry_multiplicity
 _atom_site_fract_x
 _atom_site_fract_y
 _atom_site_fract_z
 _atom_site_occupancy
  Li  Li0  1  0.00000000  0.00000000  0.50000000  1
  Li  Li1  1  0.37513400  0.24263700  0.10839000  1
  Li  Li2  1  0.50000000  0.00000000  0.00000000  1
  Li  Li3  1  0.12486600  0.24263700  0.60839000  1
  Li  Li4  1  0.93128000  0.51517600  0.17534600  1
  Li  Li5  1  0.24784900  0.45688500  0.30763900  1
  Li  Li6  1  0.74784900  0.54311500  0.19236100  1
  Li  Li7  1  0.56872000  0.51517600  0.67534600  1
  Li  Li8  1  0.43128000  0.48482400  0.32465400  1
  Li  Li9  1  0.25215100  0.45688500  0.80763900  1
  Li  Li10  1  0.75215100  0.54311500  0.69236100  1
  Li  Li11  1  0.06872000  0.48482400  0.82465400  1
  Li  Li12  1  0.87513400  0.75736300  0.39161000  1
  Li  Li13  1  0.62486600  0.75736300  0.89161000  1
  Mn  Mn0  1  0.66513400  0.99117100  0.07443900  1
  Mn  Mn1  1  0.08618100  0.11307100  0.09967200  1
  Mn  Mn2  1  0.83486600  0.99117100  0.57443900  1
  Mn  Mn3  1  0.41381900  0.11307100  0.59967200  1
  Mn  Mn4  1  0.63830400  0.27818500  0.22269100  1
  Mn  Mn5  1  0.86169600  0.27818500  0.72269100  1
  Mn  Mn6  1  0.00000000  0.50000000  0.50000000  1
  Mn  Mn7  1  0.13830400  0.72181500  0.27730900  1
  Mn  Mn8  1  0.50000000  0.50000000  0.00000000  1
  Mn  Mn9  1  0.36169600  0.72181500  0.77730900  1
  Mn  Mn10  1  0.58618100  0.88692900  0.40032800  1
  Mn  Mn11  1  0.16513400  0.00882900  0.42556100  1
  Mn  Mn12  1  0.91381900  0.88692900  0.90032800  1
  Mn  Mn13  1  0.33486600  0.00882900  0.92556100  1
  P  P0  1  0.73286800  0.95957500  0.35424400  1
  P  P1  1  0.49198500  0.16803800  0.31162600  1
  P  P2  1  0.76713200  0.95957500  0.85424400  1
  P  P3  1  0.07936100  0.36318500  0.28674000  1
  P  P4  1  0.85330100  0.36203600  0.42758900  1
  P  P5  1  0.00801500  0.16803800  0.81162600  1
  P  P6  1  0.42063900  0.36318500  0.78674000  1
  P  P7  1  0.35330100  0.63796400  0.07241100  1
  P  P8  1  0.64669900  0.36203600  0.92758900  1
  P  P9  1  0.57936100  0.63681500  0.21326000  1
  P  P10  1  0.99198500  0.83196200  0.18837400  1
  P  P11  1  0.14669900  0.63796400  0.57241100  1
  P  P12  1  0.92063900  0.63681500  0.71326000  1
  P  P13  1  0.23286800  0.04042500  0.14575600  1
  P  P14  1  0.50801500  0.83196200  0.68837400  1
  P  P15  1  0.26713200  0.04042500  0.64575600  1
  O  O0  1  0.30004700  0.10840000  0.06573100  1
  O  O1  1  0.17808200  0.15600400  0.04668000  1
  O  O2  1  0.61491200  0.05406900  0.21166800  1
  O  O3  1  0.23723400  0.08495800  0.28575900  1
  O  O4  1  0.49522300  0.96728100  0.35758200  1
  O  O5  1  0.19995300  0.10840000  0.56573100  1
  O  O6  1  0.32191800  0.15600400  0.54668000  1
  O  O7  1  0.70118400  0.33073700  0.04464300  1
  O  O8  1  0.88508800  0.05406900  0.71166800  1
  O  O9  1  0.87865600  0.18607800  0.42022600  1
  O  O10  1  0.26276600  0.08495800  0.78575900  1
  O  O11  1  0.00477700  0.96728100  0.85758200  1
  O  O12  1  0.72390900  0.15227900  0.33452200  1
  O  O13  1  0.08789800  0.18897000  0.41194600  1
  O  O14  1  0.06963700  0.34175200  0.14303500  1
  O  O15  1  0.47091700  0.23991100  0.15508400  1
  O  O16  1  0.56091800  0.23482400  0.34616700  1
  O  O17  1  0.43836700  0.22838400  0.39787200  1
  O  O18  1  0.59124400  0.44418800  0.99741000  1
  O  O19  1  0.79881600  0.33073700  0.54464300  1
  O  O20  1  0.01374800  0.44422400  0.32226000  1
  O  O21  1  0.62134400  0.18607800  0.92022600  1
  O  O22  1  0.77609100  0.15227900  0.83452200  1
  O  O23  1  0.41210200  0.18897000  0.91194600  1
  O  O24  1  0.43036300  0.34175200  0.64303500  1
  O  O25  1  0.02908300  0.23991100  0.65508400  1
  O  O26  1  0.93908200  0.23482400  0.84616700  1
  O  O27  1  0.06163300  0.22838400  0.89787200  1
  O  O28  1  0.90875600  0.44418800  0.49741000  1
  O  O29  1  0.33650500  0.50914000  0.21903500  1
  O  O30  1  0.64423900  0.52311900  0.21796600  1
  O  O31  1  0.14423900  0.47688100  0.28203400  1
  O  O32  1  0.83650500  0.49086000  0.28096500  1
  O  O33  1  0.51374800  0.55577600  0.17774000  1
  O  O34  1  0.48625200  0.44422400  0.82226000  1
  O  O35  1  0.16349500  0.50914000  0.71903500  1
  O  O36  1  0.85576100  0.52311900  0.71796600  1
  O  O37  1  0.35576100  0.47688100  0.78203400  1
  O  O38  1  0.66349500  0.49086000  0.78096500  1
  O  O39  1  0.09124400  0.55581200  0.50259000  1
  O  O40  1  0.93836700  0.77161600  0.10212800  1
  O  O41  1  0.06091800  0.76517600  0.15383300  1
  O  O42  1  0.97091700  0.76008900  0.34491600  1
  O  O43  1  0.56963700  0.65824800  0.35696500  1
  O  O44  1  0.58789800  0.81103000  0.08805400  1
  O  O45  1  0.22390900  0.84772100  0.16547800  1
  O  O46  1  0.37865600  0.81392200  0.07977400  1
  O  O47  1  0.98625200  0.55577600  0.67774000  1
  O  O48  1  0.20118400  0.66926300  0.45535700  1
  O  O49  1  0.40875600  0.55581200  0.00259000  1
  O  O50  1  0.56163300  0.77161600  0.60212800  1
  O  O51  1  0.43908200  0.76517600  0.65383300  1
  O  O52  1  0.52908300  0.76008900  0.84491600  1
  O  O53  1  0.93036300  0.65824800  0.85696500  1
  O  O54  1  0.91210200  0.81103000  0.58805400  1
  O  O55  1  0.27609100  0.84772100  0.66547800  1
  O  O56  1  0.99522300  0.03271900  0.14241800  1
  O  O57  1  0.73723400  0.91504200  0.21424100  1
  O  O58  1  0.12134400  0.81392200  0.57977400  1
  O  O59  1  0.11491200  0.94593100  0.28833200  1
  O  O60  1  0.29881600  0.66926300  0.95535700  1
  O  O61  1  0.67808200  0.84399600  0.45332000  1
  O  O62  1  0.80004700  0.89160000  0.43426900  1
  O  O63  1  0.50477700  0.03271900  0.64241800  1
  O  O64  1  0.76276600  0.91504200  0.71424100  1
  O  O65  1  0.38508800  0.94593100  0.78833200  1
  O  O66  1  0.82191800  0.84399600  0.95332000  1
  O  O67  1  0.69995300  0.89160000  0.93426900  1
loop_
_geom_bond_atom_site_label_1
_geom_bond_atom_site_label_2
_geom_bond_distance
_geom_bond_site_symmetry_2
Li0 O13 2.313563 1_555
Li0 O54 2.313563 1_445
Li1 O15 1.974386 1_555
Li1 O0 1.993525 1_555
Li1 O23 2.282435 1_554
Li1 O49 2.512625 1_555
Li2 O44 2.313563 1_545
Li2 O23 2.313563 1_554
Li3 O25 1.974386 1_555
Li3 O5 1.993525 1_555
Li3 O13 2.282435 1_555
Li3 O39 2.512625 1_555
Li4 O40 1.980970 1_555
Li4 O32 2.151104 1_555
Li4 O20 2.158965 1_655
Li5 O29 1.967939 1_555
Li5 O31 2.092055 1_555
Li6 O32 1.967939 1_555
Li6 O30 2.092055 1_555
Li7 O50 1.980970 1_555
Li7 O38 2.151104 1_555
Li7 O34 2.158965 1_555
Li8 O17 1.980970 1_555
Li8 O29 2.151104 1_555
Li8 O33 2.158965 1_555
Li9 O35 1.967939 1_555
Li9 O37 2.092055 1_555
Li10 O38 1.967939 1_555
Li10 O36 2.092055 1_555
Li11 O27 1.980970 1_555
Li11 O35 2.151104 1_555
Li11 O47 2.158965 1_455
Li12 O42 1.974386 1_555
Li12 O62 1.993525 1_555
Li12 O54 2.282435 1_555
Li12 O28 2.512625 1_555
Li13 O52 1.974386 1_555
Li13 O67 1.993525 1_555
Li13 O44 2.282435 1_556
Li13 O18 2.512625 1_555
Mn0 O2 1.911098 1_565
Mn0 O57 1.962428 1_555
Mn0 O67 1.975739 1_554
Mn0 O21 2.009587 1_564
Mn0 O44 2.110470 1_555
Mn1 O1 1.916340 1_555
Mn1 O56 1.936291 1_455
Mn1 O27 1.983989 1_554
Mn1 O59 2.007934 1_545
Mn1 O14 2.087067 1_555
Mn2 O8 1.911098 1_565
Mn2 O64 1.962428 1_555
Mn2 O62 1.975739 1_555
Mn2 O9 2.009587 1_565
Mn2 O54 2.110470 1_555
Mn3 O6 1.916340 1_555
Mn3 O63 1.936291 1_555
Mn3 O17 1.983989 1_555
Mn3 O65 2.007934 1_545
Mn3 O24 2.087067 1_555
Mn4 O2 1.932981 1_555
Mn4 O16 1.941054 1_555
Mn4 O30 1.993424 1_555
Mn4 O7 2.107610 1_555
Mn4 O12 2.117045 1_555
Mn4 O18 2.400674 1_554
Mn5 O8 1.932981 1_555
Mn5 O26 1.941054 1_555
Mn5 O36 1.993424 1_555
Mn5 O19 2.107610 1_555
Mn5 O22 2.117045 1_555
Mn5 O28 2.400674 1_555
Mn6 O39 1.887319 1_555
Mn6 O28 1.887319 1_455
Mn6 O47 2.003250 1_455
Mn6 O20 2.003250 1_555
Mn6 O25 2.247637 1_555
Mn6 O42 2.247637 1_455
Mn7 O59 1.932981 1_555
Mn7 O41 1.941054 1_555
Mn7 O31 1.993424 1_555
Mn7 O48 2.107610 1_555
Mn7 O45 2.117045 1_555
Mn7 O39 2.400674 1_555
Mn8 O49 1.887319 1_555
Mn8 O18 1.887319 1_554
Mn8 O33 2.003250 1_555
Mn8 O34 2.003250 1_554
Mn8 O52 2.247637 1_554
Mn8 O15 2.247637 1_555
Mn9 O65 1.932981 1_555
Mn9 O51 1.941054 1_555
Mn9 O37 1.993424 1_555
Mn9 O60 2.107610 1_555
Mn9 O55 2.117045 1_555
Mn9 O49 2.400674 1_556
Mn10 O61 1.916340 1_555
Mn10 O4 1.936291 1_555
Mn10 O50 1.983989 1_555
Mn10 O2 2.007934 1_565
Mn10 O43 2.087067 1_555
Mn11 O59 1.911098 1_545
Mn11 O3 1.962428 1_555
Mn11 O5 1.975739 1_555
Mn11 O58 2.009587 1_545
Mn11 O13 2.110470 1_555
Mn12 O66 1.916340 1_555
Mn12 O11 1.936291 1_655
Mn12 O40 1.983989 1_556
Mn12 O8 2.007934 1_565
Mn12 O53 2.087067 1_555
Mn13 O65 1.911098 1_545
Mn13 O10 1.962428 1_555
Mn13 O0 1.975739 1_556
Mn13 O46 2.009587 1_546
Mn13 O23 2.110470 1_555
O0 P13 1.569870 1_555
O1 P13 1.565933 1_555
O3 P13 1.567999 1_555
O4 P1 1.551017 1_565
O5 P15 1.569870 1_555
O6 P15 1.565933 1_555
O7 P8 1.559722 1_554
O9 P4 1.552812 1_555
O10 P15 1.567999 1_555
O11 P5 1.551017 1_565
O12 P0 1.532811 1_545
O13 P3 1.558321 1_555
O14 P3 1.522205 1_555
O15 P1 1.537564 1_555
O16 P1 1.567183 1_555
O17 P1 1.560908 1_555
O18 P8 1.580165 1_555
O19 P4 1.559722 1_555
O20 P3 1.567332 1_555
O21 P8 1.552812 1_555
O22 P2 1.532811 1_545
O23 P6 1.558321 1_555
O24 P6 1.522205 1_555
O25 P5 1.537564 1_555
O26 P5 1.567183 1_655
O27 P5 1.560908 1_555
O28 P4 1.580165 1_555
O29 P7 1.529192 1_555
O30 P9 1.590573 1_555
O31 P3 1.590573 1_555
O32 P4 1.529192 1_555
O33 P9 1.567332 1_555
O34 P6 1.567332 1_555
O35 P11 1.529192 1_555
O36 P12 1.590573 1_555
O37 P6 1.590573 1_555
O38 P8 1.529192 1_555
O39 P11 1.580165 1_555
O40 P10 1.560908 1_555
O41 P10 1.567183 1_455
O42 P10 1.537564 1_555
O43 P9 1.522205 1_555
O44 P9 1.558321 1_555
O45 P13 1.532811 1_565
O46 P7 1.552812 1_555
O47 P12 1.567332 1_555
O48 P11 1.559722 1_555
O49 P7 1.580165 1_555
O50 P14 1.560908 1_555
O51 P14 1.567183 1_555
O52 P14 1.537564 1_555
O53 P12 1.522205 1_555
O54 P12 1.558321 1_555
O55 P15 1.532811 1_565
O56 P10 1.551017 1_545
O57 P0 1.567999 1_555
O58 P11 1.552812 1_555
O60 P7 1.559722 1_556
O61 P0 1.565933 1_555
O62 P0 1.569870 1_555
O63 P14 1.551017 1_545
O64 P2 1.567999 1_555
O66 P2 1.565933 1_555
O67 P2 1.569870 1_555
