# generated using pymatgen
data_La3Si2BO10
_symmetry_space_group_name_H-M   'P 1'
_cell_length_a   7.30641700
_cell_length_b   10.01401100
_cell_length_c   23.53053800
_cell_angle_alpha   90.00000000
_cell_angle_beta   90.00000000
_cell_angle_gamma   90.00000000
_symmetry_Int_Tables_number   1
_chemical_formula_structural   La3Si2BO10
_chemical_formula_sum   'La24 Si16 B8 O80'
_cell_volume   1721.64805471
_cell_formula_units_Z   8
loop_
 _symmetry_equiv_pos_site_id
 _symmetry_equiv_pos_as_xyz
  1  'x, y, z'
loop_
 _atom_site_type_symbol
 _atom_site_label
 _atom_site_symmetry_multiplicity
 _atom_site_fract_x
 _atom_site_fract_y
 _atom_site_fract_z
 _atom_site_occupancy
  La  La0  1  0.63980500  0.99071700  0.42812300  1
  La  La1  1  0.86019500  0.99071700  0.92812300  1
  La  La2  1  0.17365900  0.86597500  0.33717800  1
  La  La3  1  0.32634100  0.86597500  0.83717800  1
  La  La4  1  0.59326200  0.76690100  0.68271100  1
  La  La5  1  0.90673800  0.76690100  0.18271100  1
  La  La6  1  0.09326200  0.73309900  0.68271100  1
  La  La7  1  0.40673800  0.73309900  0.18271100  1
  La  La8  1  0.67365900  0.63402500  0.33717800  1
  La  La9  1  0.82634100  0.63402500  0.83717800  1
  La  La10  1  0.36019500  0.50928300  0.92812300  1
  La  La11  1  0.13980500  0.50928300  0.42812300  1
  La  La12  1  0.63980500  0.49071700  0.07187700  1
  La  La13  1  0.86019500  0.49071700  0.57187700  1
  La  La14  1  0.17365900  0.36597500  0.16282200  1
  La  La15  1  0.32634100  0.36597500  0.66282200  1
  La  La16  1  0.59326200  0.26690100  0.81728900  1
  La  La17  1  0.90673800  0.26690100  0.31728900  1
  La  La18  1  0.09326200  0.23309900  0.81728900  1
  La  La19  1  0.40673800  0.23309900  0.31728900  1
  La  La20  1  0.67365900  0.13402500  0.16282200  1
  La  La21  1  0.82634100  0.13402500  0.66282200  1
  La  La22  1  0.36019500  0.00928300  0.57187700  1
  La  La23  1  0.13980500  0.00928300  0.07187700  1
  Si  Si0  1  0.68342300  0.93871600  0.27933000  1
  Si  Si1  1  0.81657700  0.93871600  0.77933000  1
  Si  Si2  1  0.64484100  0.87510900  0.07849700  1
  Si  Si3  1  0.85515900  0.87510900  0.57849700  1
  Si  Si4  1  0.14484100  0.62489100  0.07849700  1
  Si  Si5  1  0.35515900  0.62489100  0.57849700  1
  Si  Si6  1  0.18342300  0.56128400  0.27933000  1
  Si  Si7  1  0.31657700  0.56128400  0.77933000  1
  Si  Si8  1  0.68342300  0.43871600  0.22067000  1
  Si  Si9  1  0.81657700  0.43871600  0.72067000  1
  Si  Si10  1  0.85515900  0.37510900  0.92150300  1
  Si  Si11  1  0.64484100  0.37510900  0.42150300  1
  Si  Si12  1  0.14484100  0.12489100  0.42150300  1
  Si  Si13  1  0.35515900  0.12489100  0.92150300  1
  Si  Si14  1  0.18342300  0.06128400  0.22067000  1
  Si  Si15  1  0.31657700  0.06128400  0.72067000  1
  B  B0  1  0.15477200  0.75593400  0.97234400  1
  B  B1  1  0.34522800  0.75593400  0.47234400  1
  B  B2  1  0.84522800  0.74406600  0.47234400  1
  B  B3  1  0.65477200  0.74406600  0.97234400  1
  B  B4  1  0.34522800  0.25593400  0.02765600  1
  B  B5  1  0.15477200  0.25593400  0.52765600  1
  B  B6  1  0.84522800  0.24406600  0.02765600  1
  B  B7  1  0.65477200  0.24406600  0.52765600  1
  O  O0  1  0.46631400  0.95978200  0.09926500  1
  O  O1  1  0.03368600  0.95978200  0.59926500  1
  O  O2  1  0.82475700  0.95050200  0.10541800  1
  O  O3  1  0.67524300  0.95050200  0.60541800  1
  O  O4  1  0.63135800  0.90221800  0.21250700  1
  O  O5  1  0.86864200  0.90221800  0.71250700  1
  O  O6  1  0.20264300  0.89703100  0.22125700  1
  O  O7  1  0.29735700  0.89703100  0.72125700  1
  O  O8  1  0.53434000  0.89207700  0.32725200  1
  O  O9  1  0.96566000  0.89207700  0.82725200  1
  O  O10  1  0.42241200  0.87063500  0.49129500  1
  O  O11  1  0.07758800  0.87063500  0.99129500  1
  O  O12  1  0.66352400  0.85938200  0.00824400  1
  O  O13  1  0.83647600  0.85938200  0.50824400  1
  O  O14  1  0.86837800  0.84791500  0.29007700  1
  O  O15  1  0.63162200  0.84791500  0.79007700  1
  O  O16  1  0.14737100  0.77318400  0.10965400  1
  O  O17  1  0.35262900  0.77318400  0.60965400  1
  O  O18  1  0.77129100  0.76165700  0.41922600  1
  O  O19  1  0.72870900  0.76165700  0.91922600  1
  O  O20  1  0.27129100  0.73834300  0.41922600  1
  O  O21  1  0.22870900  0.73834300  0.91922600  1
  O  O22  1  0.64737100  0.72681600  0.10965400  1
  O  O23  1  0.85262900  0.72681600  0.60965400  1
  O  O24  1  0.36837800  0.65208500  0.29007700  1
  O  O25  1  0.13162200  0.65208500  0.79007700  1
  O  O26  1  0.16352400  0.64061800  0.00824400  1
  O  O27  1  0.33647600  0.64061800  0.50824400  1
  O  O28  1  0.92241200  0.62936500  0.49129500  1
  O  O29  1  0.57758800  0.62936500  0.99129500  1
  O  O30  1  0.03434000  0.60792300  0.32725200  1
  O  O31  1  0.46566000  0.60792300  0.82725200  1
  O  O32  1  0.70264300  0.60296900  0.22125700  1
  O  O33  1  0.79735700  0.60296900  0.72125700  1
  O  O34  1  0.13135800  0.59778200  0.21250700  1
  O  O35  1  0.36864200  0.59778200  0.71250700  1
  O  O36  1  0.32475700  0.54949800  0.10541800  1
  O  O37  1  0.17524300  0.54949800  0.60541800  1
  O  O38  1  0.96631400  0.54021800  0.09926500  1
  O  O39  1  0.53368600  0.54021800  0.59926500  1
  O  O40  1  0.46631400  0.45978200  0.40073500  1
  O  O41  1  0.03368600  0.45978200  0.90073500  1
  O  O42  1  0.82475700  0.45050200  0.39458200  1
  O  O43  1  0.67524300  0.45050200  0.89458200  1
  O  O44  1  0.63135800  0.40221800  0.28749300  1
  O  O45  1  0.86864200  0.40221800  0.78749300  1
  O  O46  1  0.20264300  0.39703100  0.27874300  1
  O  O47  1  0.29735700  0.39703100  0.77874300  1
  O  O48  1  0.53434000  0.39207700  0.17274800  1
  O  O49  1  0.96566000  0.39207700  0.67274800  1
  O  O50  1  0.42241200  0.37063500  0.00870500  1
  O  O51  1  0.07758800  0.37063500  0.50870500  1
  O  O52  1  0.66352400  0.35938200  0.49175600  1
  O  O53  1  0.83647600  0.35938200  0.99175600  1
  O  O54  1  0.86837800  0.34791500  0.20992300  1
  O  O55  1  0.63162200  0.34791500  0.70992300  1
  O  O56  1  0.35262900  0.27318400  0.89034600  1
  O  O57  1  0.14737100  0.27318400  0.39034600  1
  O  O58  1  0.77129100  0.26165700  0.08077400  1
  O  O59  1  0.72870900  0.26165700  0.58077400  1
  O  O60  1  0.27129100  0.23834300  0.08077400  1
  O  O61  1  0.22870900  0.23834300  0.58077400  1
  O  O62  1  0.85262900  0.22681600  0.89034600  1
  O  O63  1  0.64737100  0.22681600  0.39034600  1
  O  O64  1  0.36837800  0.15208500  0.20992300  1
  O  O65  1  0.13162200  0.15208500  0.70992300  1
  O  O66  1  0.16352400  0.14061800  0.49175600  1
  O  O67  1  0.33647600  0.14061800  0.99175600  1
  O  O68  1  0.92241200  0.12936500  0.00870500  1
  O  O69  1  0.57758800  0.12936500  0.50870500  1
  O  O70  1  0.03434000  0.10792300  0.17274800  1
  O  O71  1  0.46566000  0.10792300  0.67274800  1
  O  O72  1  0.70264300  0.10296900  0.27874300  1
  O  O73  1  0.79735700  0.10296900  0.77874300  1
  O  O74  1  0.13135800  0.09778200  0.28749300  1
  O  O75  1  0.36864200  0.09778200  0.78749300  1
  O  O76  1  0.32475700  0.04949800  0.39458200  1
  O  O77  1  0.17524300  0.04949800  0.89458200  1
  O  O78  1  0.96631400  0.04021800  0.40073500  1
  O  O79  1  0.53368600  0.04021800  0.90073500  1
loop_
_geom_bond_atom_site_label_1
_geom_bond_atom_site_label_2
_geom_bond_distance
_geom_bond_site_symmetry_2
La0 O69 2.393680 1_565
La0 O10 2.485661 1_555
La0 O18 2.495660 1_555
La0 O76 2.503598 1_565
La0 O78 2.520354 1_565
La0 O63 2.526485 1_565
La0 O8 2.683883 1_555
La0 O13 2.710885 1_555
La1 O68 2.393680 1_566
La1 O11 2.485661 1_655
La1 O19 2.495660 1_555
La1 O77 2.503598 1_665
La1 O79 2.520354 1_565
La1 O62 2.526485 1_565
La1 O9 2.683883 1_555
La1 O12 2.710885 1_556
La2 O20 2.422759 1_555
La2 O14 2.497246 1_455
La2 O76 2.533933 1_565
La2 O74 2.617417 1_565
La2 O8 2.658497 1_555
La2 O78 2.752500 1_465
La2 O6 2.753511 1_555
La2 O30 2.787198 1_555
La2 O24 2.800026 1_555
La3 O21 2.422759 1_555
La3 O15 2.497246 1_555
La3 O77 2.533933 1_565
La3 O75 2.617417 1_565
La3 O9 2.658497 1_455
La3 O79 2.752500 1_565
La3 O7 2.753511 1_555
La3 O31 2.787198 1_555
La3 O25 2.800026 1_555
La4 O33 2.396092 1_555
La4 O17 2.459737 1_555
La4 O35 2.460313 1_555
La4 O5 2.525089 1_555
La4 O23 2.589889 1_555
La4 O3 2.654620 1_555
La4 O15 2.668205 1_555
La4 O7 2.682361 1_555
La4 O39 3.032796 1_555
La5 O32 2.396092 1_555
La5 O16 2.459737 1_655
La5 O34 2.460313 1_655
La5 O4 2.525089 1_555
La5 O22 2.589889 1_555
La5 O2 2.654620 1_555
La5 O14 2.668205 1_555
La5 O6 2.682361 1_655
La5 O38 3.032796 1_555
La6 O7 2.396092 1_555
La6 O23 2.459737 1_455
La6 O5 2.460313 1_455
La6 O35 2.525089 1_555
La6 O17 2.589889 1_555
La6 O37 2.654620 1_555
La6 O25 2.668205 1_555
La6 O33 2.682361 1_455
La6 O1 3.032796 1_555
La7 O6 2.396092 1_555
La7 O22 2.459737 1_555
La7 O4 2.460313 1_555
La7 O34 2.525089 1_555
La7 O16 2.589889 1_555
La7 O36 2.654620 1_555
La7 O24 2.668205 1_555
La7 O32 2.682361 1_555
La7 O0 3.032796 1_555
La8 O18 2.422759 1_555
La8 O24 2.497246 1_555
La8 O42 2.533933 1_555
La8 O44 2.617417 1_555
La8 O30 2.658497 1_655
La8 O40 2.752500 1_555
La8 O32 2.753511 1_555
La8 O8 2.787198 1_555
La8 O14 2.800026 1_555
La9 O19 2.422759 1_555
La9 O25 2.497246 1_655
La9 O43 2.533933 1_555
La9 O45 2.617417 1_555
La9 O31 2.658497 1_555
La9 O41 2.752500 1_655
La9 O33 2.753511 1_555
La9 O9 2.787198 1_555
La9 O15 2.800026 1_555
La10 O50 2.393680 1_556
La10 O29 2.485661 1_555
La10 O21 2.495660 1_555
La10 O43 2.503598 1_555
La10 O41 2.520354 1_555
La10 O56 2.526485 1_555
La10 O31 2.683883 1_555
La10 O26 2.710885 1_556
La11 O51 2.393680 1_555
La11 O28 2.485661 1_455
La11 O20 2.495660 1_555
La11 O42 2.503598 1_455
La11 O40 2.520354 1_555
La11 O57 2.526485 1_555
La11 O30 2.683883 1_555
La11 O27 2.710885 1_555
La12 O29 2.393680 1_554
La12 O50 2.485661 1_555
La12 O58 2.495660 1_555
La12 O36 2.503598 1_555
La12 O38 2.520354 1_555
La12 O22 2.526485 1_555
La12 O48 2.683883 1_555
La12 O53 2.710885 1_554
La13 O28 2.393680 1_555
La13 O51 2.485661 1_655
La13 O59 2.495660 1_555
La13 O37 2.503598 1_655
La13 O39 2.520354 1_555
La13 O23 2.526485 1_555
La13 O49 2.683883 1_555
La13 O52 2.710885 1_555
La14 O60 2.422759 1_555
La14 O54 2.497246 1_455
La14 O36 2.533933 1_555
La14 O34 2.617417 1_555
La14 O48 2.658497 1_555
La14 O38 2.752500 1_455
La14 O46 2.753511 1_555
La14 O70 2.787198 1_555
La14 O64 2.800026 1_555
La15 O61 2.422759 1_555
La15 O55 2.497246 1_555
La15 O37 2.533933 1_555
La15 O35 2.617417 1_555
La15 O49 2.658497 1_455
La15 O39 2.752500 1_555
La15 O47 2.753511 1_555
La15 O71 2.787198 1_555
La15 O65 2.800026 1_555
La16 O73 2.396092 1_555
La16 O56 2.459737 1_555
La16 O75 2.460313 1_555
La16 O45 2.525089 1_555
La16 O62 2.589889 1_555
La16 O43 2.654620 1_555
La16 O55 2.668205 1_555
La16 O47 2.682361 1_555
La16 O79 3.032796 1_555
La17 O72 2.396092 1_555
La17 O57 2.459737 1_655
La17 O74 2.460313 1_655
La17 O44 2.525089 1_555
La17 O63 2.589889 1_555
La17 O42 2.654620 1_555
La17 O54 2.668205 1_555
La17 O46 2.682361 1_655
La17 O78 3.032796 1_555
La18 O47 2.396092 1_555
La18 O62 2.459737 1_455
La18 O45 2.460313 1_455
La18 O75 2.525089 1_555
La18 O56 2.589889 1_555
La18 O77 2.654620 1_555
La18 O65 2.668205 1_555
La18 O73 2.682361 1_455
La18 O41 3.032796 1_555
La19 O46 2.396092 1_555
La19 O63 2.459737 1_555
La19 O44 2.460313 1_555
La19 O74 2.525089 1_555
La19 O57 2.589889 1_555
La19 O76 2.654620 1_555
La19 O64 2.668205 1_555
La19 O72 2.682361 1_555
La19 O40 3.032796 1_555
La20 O58 2.422759 1_555
La20 O64 2.497246 1_555
La20 O2 2.533933 1_545
La20 O4 2.617417 1_545
La20 O70 2.658497 1_655
La20 O0 2.752500 1_545
La20 O72 2.753511 1_555
La20 O48 2.787198 1_555
La20 O54 2.800026 1_555
La21 O59 2.422759 1_555
La21 O65 2.497246 1_655
La21 O3 2.533933 1_545
La21 O5 2.617417 1_545
La21 O71 2.658497 1_555
La21 O1 2.752500 1_645
La21 O73 2.753511 1_555
La21 O49 2.787198 1_555
La21 O55 2.800026 1_555
La22 O10 2.393680 1_545
La22 O69 2.485661 1_555
La22 O61 2.495660 1_555
La22 O3 2.503598 1_545
La22 O1 2.520354 1_545
La22 O17 2.526485 1_545
La22 O71 2.683883 1_555
La22 O66 2.710885 1_555
La23 O11 2.393680 1_544
La23 O68 2.485661 1_455
La23 O60 2.495660 1_555
La23 O2 2.503598 1_445
La23 O0 2.520354 1_545
La23 O16 2.526485 1_545
La23 O70 2.683883 1_555
La23 O67 2.710885 1_554
B0 O11 1.355064 1_555
B0 O21 1.372990 1_555
B0 O26 1.432198 1_556
B1 O10 1.355064 1_555
B1 O20 1.372990 1_555
B1 O27 1.432198 1_555
B2 O28 1.355064 1_555
B2 O18 1.372990 1_555
B2 O13 1.432198 1_555
B3 O29 1.355064 1_555
B3 O19 1.372990 1_555
B3 O12 1.432198 1_556
B4 O50 1.355064 1_555
B4 O60 1.372990 1_555
B4 O67 1.432198 1_554
B5 O51 1.355064 1_555
B5 O61 1.372990 1_555
B5 O66 1.432198 1_555
B6 O68 1.355064 1_555
B6 O58 1.372990 1_555
B6 O53 1.432198 1_554
B7 O69 1.355064 1_555
B7 O59 1.372990 1_555
B7 O52 1.432198 1_555
O0 Si2 1.630709 1_555
O1 Si3 1.630709 1_455
O2 Si2 1.642955 1_555
O3 Si3 1.642955 1_555
O4 Si0 1.658517 1_555
O5 Si1 1.658517 1_555
O6 Si14 1.650873 1_565
O7 Si15 1.650873 1_565
O8 Si0 1.635901 1_555
O9 Si1 1.635901 1_555
O12 Si2 1.666177 1_555
O13 Si3 1.666177 1_555
O14 Si0 1.648306 1_555
O15 Si1 1.648306 1_555
O16 Si4 1.656226 1_555
O17 Si5 1.656226 1_555
O22 Si2 1.656226 1_555
O23 Si3 1.656226 1_555
O24 Si6 1.648306 1_555
O25 Si7 1.648306 1_555
O26 Si4 1.666177 1_555
O27 Si5 1.666177 1_555
O30 Si6 1.635901 1_555
O31 Si7 1.635901 1_555
O32 Si8 1.650873 1_555
O33 Si9 1.650873 1_555
O34 Si6 1.658517 1_555
O35 Si7 1.658517 1_555
O36 Si4 1.642955 1_555
O37 Si5 1.642955 1_555
O38 Si4 1.630709 1_655
O39 Si5 1.630709 1_555
O40 Si11 1.630709 1_555
O41 Si10 1.630709 1_455
O42 Si11 1.642955 1_555
O43 Si10 1.642955 1_555
O44 Si8 1.658517 1_555
O45 Si9 1.658517 1_555
O46 Si6 1.650873 1_555
O47 Si7 1.650873 1_555
O48 Si8 1.635901 1_555
O49 Si9 1.635901 1_555
O52 Si11 1.666177 1_555
O53 Si10 1.666177 1_555
O54 Si8 1.648306 1_555
O55 Si9 1.648306 1_555
O56 Si13 1.656226 1_555
O57 Si12 1.656226 1_555
O62 Si10 1.656226 1_555
O63 Si11 1.656226 1_555
O64 Si14 1.648306 1_555
O65 Si15 1.648306 1_555
O66 Si12 1.666177 1_555
O67 Si13 1.666177 1_555
O70 Si14 1.635901 1_555
O71 Si15 1.635901 1_555
O72 Si0 1.650873 1_545
O73 Si1 1.650873 1_545
O74 Si14 1.658517 1_555
O75 Si15 1.658517 1_555
O76 Si12 1.642955 1_555
O77 Si13 1.642955 1_555
O78 Si12 1.630709 1_655
O79 Si13 1.630709 1_555
