# generated using pymatgen
data_Li3Co3NiO8
_symmetry_space_group_name_H-M   'P 1'
_cell_length_a   5.85754854
_cell_length_b   5.77054742
_cell_length_c   5.89830048
_cell_angle_alpha   60.89682397
_cell_angle_beta   90.00000884
_cell_angle_gamma   120.50000670
_symmetry_Int_Tables_number   1
_chemical_formula_structural   Li3Co3NiO8
_chemical_formula_sum   'Li3 Co3 Ni1 O8'
_cell_volume   141.79616519
_cell_formula_units_Z   1
loop_
 _symmetry_equiv_pos_site_id
 _symmetry_equiv_pos_as_xyz
  1  'x, y, z'
loop_
 _atom_site_type_symbol
 _atom_site_label
 _atom_site_symmetry_multiplicity
 _atom_site_fract_x
 _atom_site_fract_y
 _atom_site_fract_z
 _atom_site_occupancy
  Li  Li0  1  0.00000000  0.50000000  0.50000000  1
  Li  Li1  1  0.50000000  0.00000000  0.50000000  1
  Li  Li2  1  0.50000000  0.50000000  0.50000000  1
  Co  Co0  1  0.00000000  0.50000000  0.00000000  1
  Co  Co1  1  0.50000000  0.00000000  0.00000000  1
  Co  Co2  1  0.50000000  0.50000000  0.00000000  1
  Ni  Ni0  1  0.00000000  0.00000000  0.00000000  1
  O  O0  1  0.28174000  0.02398300  0.21210900  1
  O  O1  1  0.26987400  0.53974900  0.21962400  1
  O  O2  1  0.74224300  0.02398300  0.21210900  1
  O  O3  1  0.75228500  0.50456800  0.22740000  1
  O  O4  1  0.24771500  0.49543200  0.77260000  1
  O  O5  1  0.25775700  0.97601700  0.78789100  1
  O  O6  1  0.73012600  0.46025100  0.78037600  1
  O  O7  1  0.71826000  0.97601700  0.78789100  1
loop_
_geom_bond_atom_site_label_1
_geom_bond_atom_site_label_2
_geom_bond_distance
_geom_bond_site_symmetry_2
Li0 O6 2.132920 1_455
Li0 O1 2.132920 1_555
Li0 O4 2.165402 1_555
Li0 O3 2.165402 1_455
Li0 O0 2.165579 1_565
Li0 O7 2.165579 1_445
Li1 O4 2.079670 1_545
Li1 O3 2.079670 1_555
Li1 O7 2.118505 1_545
Li1 O0 2.118505 1_555
Li1 O5 2.118506 1_545
Li1 O2 2.118506 1_555
Li2 O6 2.132924 1_555
Li2 O1 2.132924 1_555
Li2 O3 2.165410 1_555
Li2 O4 2.165410 1_555
Li2 O2 2.165579 1_565
Li2 O5 2.165579 1_545
Co0 O5 1.958903 1_554
Co0 O2 1.958903 1_455
Co0 O4 1.994577 1_554
Co0 O3 1.994577 1_455
Co0 O1 2.037303 1_555
Co0 O6 2.037303 1_454
Co1 O2 1.888616 1_555
Co1 O5 1.888616 1_544
Co1 O0 1.888617 1_555
Co1 O7 1.888617 1_544
Co1 O6 1.888936 1_554
Co1 O1 1.888936 1_545
Co2 O7 1.958903 1_554
Co2 O0 1.958903 1_555
Co2 O4 1.994585 1_554
Co2 O3 1.994585 1_555
Co2 O1 2.037308 1_555
Co2 O6 2.037308 1_554
Ni0 O3 2.033917 1_445
Ni0 O4 2.033917 1_554
Ni0 O7 2.060209 1_444
Ni0 O0 2.060209 1_555
Ni0 O2 2.060209 1_455
Ni0 O5 2.060209 1_544
