# generated using pymatgen
data_Mn6O11F
_symmetry_space_group_name_H-M   'P 1'
_cell_length_a   5.39850319
_cell_length_b   5.39850319
_cell_length_c   6.97798654
_cell_angle_alpha   72.89087365
_cell_angle_beta   72.89087365
_cell_angle_gamma   73.12540705
_symmetry_Int_Tables_number   1
_chemical_formula_structural   Mn6O11F
_chemical_formula_sum   'Mn6 O11 F1'
_cell_volume   181.08499816
_cell_formula_units_Z   1
loop_
 _symmetry_equiv_pos_site_id
 _symmetry_equiv_pos_as_xyz
  1  'x, y, z'
loop_
 _atom_site_type_symbol
 _atom_site_label
 _atom_site_symmetry_multiplicity
 _atom_site_fract_x
 _atom_site_fract_y
 _atom_site_fract_z
 _atom_site_occupancy
  Mn  Mn0  1  0.33071600  0.66928400  0.00000000  1
  Mn  Mn1  1  0.00433500  0.32962200  0.83276100  1
  Mn  Mn2  1  0.31242700  0.68757300  0.50000000  1
  Mn  Mn3  1  0.01629300  0.33261100  0.32492200  1
  Mn  Mn4  1  0.66738900  0.98370700  0.67507800  1
  Mn  Mn5  1  0.67037800  0.99566500  0.16723900  1
  O  O0  1  0.30592300  0.02474600  0.83445200  1
  O  O1  1  0.56261300  0.89728300  0.46532800  1
  O  O2  1  0.23490600  0.56339400  0.79405800  1
  O  O3  1  0.89715000  0.23463500  0.12941400  1
  O  O4  1  0.76536500  0.10285000  0.87058600  1
  O  O5  1  0.43660600  0.76509400  0.20594200  1
  O  O6  1  0.10271700  0.43738700  0.53467200  1
  O  O7  1  0.02336600  0.97663400  0.50000000  1
  O  O8  1  0.69409300  0.63525600  0.83530000  1
  O  O9  1  0.36474400  0.30590700  0.16470000  1
  O  O10  1  0.97525400  0.69407700  0.16554800  1
  F  F0  1  0.63572900  0.36427100  0.50000000  1
loop_
_geom_bond_atom_site_label_1
_geom_bond_atom_site_label_2
_geom_bond_distance
_geom_bond_site_symmetry_2
Mn0 O0 1.916337 1_564
Mn0 O10 1.916337 1_455
Mn0 O2 1.936957 1_554
Mn0 O5 1.936957 1_555
Mn0 O8 1.947125 1_554
Mn0 O9 1.947125 1_555
Mn1 O3 1.930225 1_456
Mn1 O2 1.930972 1_555
Mn1 O4 1.938851 1_455
Mn1 O6 1.940243 1_555
Mn1 O0 1.950384 1_555
Mn1 O8 1.980710 1_455
Mn2 O7 1.859183 1_555
Mn2 O5 1.919173 1_555
Mn2 O2 1.919173 1_555
Mn2 O6 1.923205 1_555
Mn2 O1 1.923205 1_555
Mn3 O9 1.873312 1_555
Mn3 O3 1.921722 1_455
Mn3 O10 1.926354 1_455
Mn3 O6 1.929237 1_555
Mn3 O7 1.946929 1_545
Mn4 O8 1.873312 1_555
Mn4 O4 1.921722 1_565
Mn4 O0 1.926354 1_565
Mn4 O1 1.929237 1_555
Mn4 O7 1.946929 1_655
Mn5 O4 1.930225 1_564
Mn5 O5 1.930972 1_555
Mn5 O3 1.938851 1_565
Mn5 O1 1.940243 1_555
Mn5 O10 1.950384 1_555
Mn5 O9 1.980710 1_565
F0 Mn3 2.045680 1_655
F0 Mn4 2.045680 1_545
F0 Mn2 2.079414 1_555
