# generated using pymatgen
data_Li4Cr3CoO8
_symmetry_space_group_name_H-M   'P 1'
_cell_length_a   5.10333800
_cell_length_b   5.85724745
_cell_length_c   10.15010654
_cell_angle_alpha   90.13544356
_cell_angle_beta   99.50102000
_cell_angle_gamma   106.68223393
_symmetry_Int_Tables_number   1
_chemical_formula_structural   Li4Cr3CoO8
_chemical_formula_sum   'Li8 Cr6 Co2 O16'
_cell_volume   286.24795985
_cell_formula_units_Z   2
loop_
 _symmetry_equiv_pos_site_id
 _symmetry_equiv_pos_as_xyz
  1  'x, y, z'
loop_
 _atom_site_type_symbol
 _atom_site_label
 _atom_site_symmetry_multiplicity
 _atom_site_fract_x
 _atom_site_fract_y
 _atom_site_fract_z
 _atom_site_occupancy
  Li  Li0  1  0.99577300  0.74669200  0.75043500  1
  Li  Li1  1  0.00051400  0.74817500  0.25269100  1
  Li  Li2  1  0.00000000  0.50000000  0.50000000  1
  Li  Li3  1  0.00000000  0.50000000  0.00000000  1
  Li  Li4  1  0.99948600  0.25182500  0.74730900  1
  Li  Li5  1  0.00422700  0.25330800  0.24956500  1
  Li  Li6  1  0.00000000  0.00000000  0.50000000  1
  Li  Li7  1  0.00000000  0.00000000  0.00000000  1
  Cr  Cr0  1  0.50005400  0.62366900  0.87298600  1
  Cr  Cr1  1  0.49994600  0.37633100  0.12701400  1
  Cr  Cr2  1  0.50022800  0.12728300  0.37728400  1
  Cr  Cr3  1  0.49960800  0.12578900  0.87278000  1
  Cr  Cr4  1  0.49977200  0.87271700  0.62271600  1
  Cr  Cr5  1  0.50039200  0.87421100  0.12722000  1
  Co  Co0  1  0.50027200  0.62450600  0.37667500  1
  Co  Co1  1  0.49972800  0.37549400  0.62332500  1
  O  O0  1  0.27671500  0.56396100  0.68670300  1
  O  O1  1  0.27621100  0.56908500  0.19485800  1
  O  O2  1  0.71867100  0.67276600  0.55744900  1
  O  O3  1  0.72728400  0.68143300  0.06044800  1
  O  O4  1  0.28132900  0.32723400  0.44255100  1
  O  O5  1  0.72328500  0.43603900  0.31329700  1
  O  O6  1  0.27271600  0.31856700  0.93955200  1
  O  O7  1  0.72378900  0.43091500  0.80514200  1
  O  O8  1  0.27554200  0.07298700  0.68581800  1
  O  O9  1  0.72328700  0.18563800  0.56209100  1
  O  O10  1  0.27264500  0.06883200  0.19108000  1
  O  O11  1  0.72672700  0.18224900  0.06086800  1
  O  O12  1  0.27671300  0.81436200  0.43790900  1
  O  O13  1  0.72445800  0.92701300  0.31418200  1
  O  O14  1  0.27327300  0.81775100  0.93913200  1
  O  O15  1  0.72735500  0.93116800  0.80892000  1
loop_
_geom_bond_atom_site_label_1
_geom_bond_atom_site_label_2
_geom_bond_distance
_geom_bond_site_symmetry_2
Li0 O7 2.107434 1_555
Li0 O15 2.124041 1_555
Li0 O14 2.146980 1_655
Li0 O2 2.180426 1_555
Li0 O0 2.191701 1_655
Li0 O8 2.206749 1_665
Li1 O12 2.116467 1_555
Li1 O5 2.128422 1_455
Li1 O1 2.131102 1_555
Li1 O13 2.146156 1_455
Li1 O10 2.154536 1_565
Li1 O3 2.165608 1_455
Li2 O4 2.129090 1_555
Li2 O2 2.129090 1_455
Li2 O0 2.129610 1_555
Li2 O5 2.129610 1_455
Li2 O9 2.142010 1_455
Li2 O12 2.142010 1_555
Li3 O3 2.137930 1_455
Li3 O6 2.137930 1_554
Li3 O14 2.142471 1_554
Li3 O11 2.142471 1_455
Li3 O7 2.193370 1_454
Li3 O1 2.193370 1_555
Li4 O9 2.116467 1_555
Li4 O0 2.128422 1_655
Li4 O7 2.131102 1_555
Li4 O8 2.146156 1_655
Li4 O15 2.154536 1_545
Li4 O6 2.165608 1_655
Li5 O1 2.107434 1_555
Li5 O10 2.124041 1_555
Li5 O11 2.146980 1_455
Li5 O4 2.180426 1_555
Li5 O5 2.191701 1_455
Li5 O13 2.206749 1_445
Li6 O13 2.119640 1_445
Li6 O8 2.119640 1_555
Li6 O12 2.178486 1_545
Li6 O9 2.178486 1_455
Li6 O2 2.185583 1_445
Li6 O4 2.185583 1_555
Li7 O6 2.142774 1_554
Li7 O3 2.142774 1_445
Li7 O14 2.145265 1_544
Li7 O11 2.145265 1_455
Li7 O10 2.154873 1_555
Li7 O15 2.154873 1_444
Cr0 O7 2.012103 1_555
Cr0 O0 2.013220 1_555
Cr0 O15 2.016794 1_555
Cr0 O6 2.017486 1_555
Cr0 O14 2.022558 1_555
Cr0 O3 2.030512 1_556
Cr1 O1 2.012103 1_555
Cr1 O5 2.013220 1_555
Cr1 O10 2.016794 1_555
Cr1 O3 2.017486 1_555
Cr1 O11 2.022558 1_555
Cr1 O6 2.030512 1_554
Cr2 O9 1.999993 1_555
Cr2 O4 2.012516 1_555
Cr2 O5 2.013917 1_555
Cr2 O12 2.018882 1_545
Cr2 O10 2.020442 1_555
Cr2 O13 2.026025 1_545
Cr3 O7 2.016308 1_555
Cr3 O15 2.019004 1_545
Cr3 O6 2.020187 1_555
Cr3 O8 2.020451 1_555
Cr3 O14 2.027102 1_545
Cr3 O11 2.035669 1_556
Cr4 O12 1.999993 1_555
Cr4 O2 2.012516 1_555
Cr4 O0 2.013917 1_555
Cr4 O9 2.018882 1_565
Cr4 O15 2.020442 1_555
Cr4 O8 2.026025 1_565
Cr5 O1 2.016308 1_555
Cr5 O10 2.019004 1_565
Cr5 O3 2.020187 1_555
Cr5 O13 2.020451 1_555
Cr5 O11 2.027102 1_565
Cr5 O14 2.035669 1_554
Co0 O2 1.957152 1_555
Co0 O4 1.965320 1_555
Co0 O12 1.970736 1_555
Co0 O5 1.971640 1_555
Co0 O1 1.976365 1_555
Co0 O13 1.982883 1_555
Co1 O4 1.957152 1_555
Co1 O2 1.965320 1_555
Co1 O9 1.970736 1_555
Co1 O0 1.971640 1_555
Co1 O7 1.976365 1_555
Co1 O8 1.982883 1_555
