# generated using pymatgen
data_LiVF4
_symmetry_space_group_name_H-M   'P 1'
_cell_length_a   5.15387468
_cell_length_b   5.15387468
_cell_length_c   6.21127800
_cell_angle_alpha   90.00000000
_cell_angle_beta   90.00000000
_cell_angle_gamma   93.64424839
_symmetry_Int_Tables_number   1
_chemical_formula_structural   LiVF4
_chemical_formula_sum   'Li2 V2 F8'
_cell_volume   164.65298815
_cell_formula_units_Z   2
loop_
 _symmetry_equiv_pos_site_id
 _symmetry_equiv_pos_as_xyz
  1  'x, y, z'
loop_
 _atom_site_type_symbol
 _atom_site_label
 _atom_site_symmetry_multiplicity
 _atom_site_fract_x
 _atom_site_fract_y
 _atom_site_fract_z
 _atom_site_occupancy
  Li  Li0  1  0.37467300  0.62532700  0.25000000  1
  Li  Li1  1  0.62532700  0.37467300  0.75000000  1
  V  V0  1  0.98094900  0.01905100  0.25000000  1
  V  V1  1  0.01905100  0.98094900  0.75000000  1
  F  F0  1  0.25345200  0.28393300  0.25000000  1
  F  F1  1  0.28393300  0.25345200  0.75000000  1
  F  F2  1  0.82501500  0.17498500  0.52044200  1
  F  F3  1  0.82501500  0.17498500  0.97955800  1
  F  F4  1  0.17498500  0.82501500  0.47955800  1
  F  F5  1  0.17498500  0.82501500  0.02044200  1
  F  F6  1  0.71606700  0.74654800  0.25000000  1
  F  F7  1  0.74654800  0.71606700  0.75000000  1
loop_
_geom_bond_atom_site_label_1
_geom_bond_atom_site_label_2
_geom_bond_distance
_geom_bond_site_symmetry_2
F0 Li0 1.829325 1_555
F0 V0 1.895369 1_455
F1 Li1 1.829325 1_555
F1 V1 1.895369 1_545
F2 V1 2.039687 1_645
F2 V0 2.048305 1_555
F2 Li1 2.070280 1_555
F3 V1 2.039687 1_645
F3 V0 2.048305 1_556
F3 Li1 2.070280 1_555
F4 V0 2.039687 1_465
F4 V1 2.048305 1_555
F4 Li0 2.070280 1_555
F5 V0 2.039687 1_465
F5 V1 2.048305 1_554
F5 Li0 2.070280 1_555
F6 Li0 1.829325 1_555
F6 V0 1.895369 1_565
F7 Li1 1.829325 1_555
F7 V1 1.895369 1_655
