# generated using pymatgen
data_V2Si2O7
_symmetry_space_group_name_H-M   'P 1'
_cell_length_a   6.53534250
_cell_length_b   6.53533826
_cell_length_c   6.53534392
_cell_angle_alpha   59.99968504
_cell_angle_beta   59.99971367
_cell_angle_gamma   59.99968504
_symmetry_Int_Tables_number   1
_chemical_formula_structural   V2Si2O7
_chemical_formula_sum   'V4 Si4 O14'
_cell_volume   197.37260145
_cell_formula_units_Z   2
loop_
 _symmetry_equiv_pos_site_id
 _symmetry_equiv_pos_as_xyz
  1  'x, y, z'
loop_
 _atom_site_type_symbol
 _atom_site_label
 _atom_site_symmetry_multiplicity
 _atom_site_fract_x
 _atom_site_fract_y
 _atom_site_fract_z
 _atom_site_occupancy
  V  V0  1  0.00000300  0.00000000  0.00000000  1
  V  V1  1  0.49999500  0.00000500  0.99999900  1
  V  V2  1  0.00000100  0.49999700  0.99999900  1
  V  V3  1  0.00000100  0.00000200  0.50000000  1
  Si  Si0  1  0.49999900  0.50000100  0.00000000  1
  Si  Si1  1  0.50000000  0.00000000  0.50000100  1
  Si  Si2  1  0.00000000  0.50000000  0.50000000  1
  Si  Si3  1  0.50000000  0.49999900  0.50000000  1
  O  O0  1  0.12500000  0.12499800  0.12500000  1
  O  O1  1  0.57702600  0.17297500  0.17297500  1
  O  O2  1  0.57702500  0.17297500  0.57702500  1
  O  O3  1  0.17297500  0.57702500  0.17297600  1
  O  O4  1  0.57702600  0.57702500  0.17297500  1
  O  O5  1  0.17297500  0.17297500  0.57702600  1
  O  O6  1  0.82702500  0.42297500  0.42297500  1
  O  O7  1  0.17297500  0.57702600  0.57702500  1
  O  O8  1  0.82702500  0.82702400  0.42297500  1
  O  O9  1  0.42297500  0.82702500  0.42297500  1
  O  O10  1  0.42297500  0.42297400  0.82702500  1
  O  O11  1  0.82702500  0.42297400  0.82702500  1
  O  O12  1  0.42297400  0.82702400  0.82702500  1
  O  O13  1  0.87500000  0.87500000  0.87500000  1
loop_
_geom_bond_atom_site_label_1
_geom_bond_atom_site_label_2
_geom_bond_distance
_geom_bond_site_symmetry_2
O0 V1 2.000998 1_554
O0 V0 2.001009 1_555
O0 V2 2.001017 1_554
O0 V3 2.001025 1_555
O1 Si0 1.782189 1_555
O1 Si1 1.782190 1_555
O1 V0 2.285882 1_655
O1 V1 2.285892 1_554
O2 Si3 1.782180 1_555
O2 Si1 1.782191 1_555
O2 V1 2.285865 1_555
O2 V3 2.285880 1_655
O3 Si2 1.782181 1_555
O3 Si0 1.782182 1_555
O3 V0 2.285869 1_565
O3 V2 2.285906 1_554
O4 Si3 1.782186 1_555
O4 Si0 1.782201 1_555
O4 V2 2.285872 1_654
O4 V1 2.285895 1_564
O5 Si2 1.782184 1_555
O5 Si1 1.782185 1_555
O5 V0 2.285865 1_556
O5 V3 2.285874 1_555
O6 Si3 1.782189 1_555
O6 Si2 1.782196 1_655
O6 V3 2.285861 1_655
O6 V2 2.285883 1_654
O7 Si3 1.782186 1_555
O7 Si2 1.782201 1_555
O7 V2 2.285866 1_555
O7 V3 2.285878 1_565
O8 Si2 1.782179 1_655
O8 Si1 1.782186 1_565
O8 V0 2.285876 1_665
O8 V3 2.285909 1_665
O9 Si3 1.782192 1_555
O9 Si1 1.782201 1_565
O9 V3 2.285869 1_565
O9 V1 2.285885 1_564
O10 Si3 1.782188 1_555
O10 Si0 1.782201 1_556
O10 V1 2.285843 1_555
O10 V2 2.285871 1_555
O11 Si2 1.782186 1_655
O11 Si0 1.782190 1_556
O11 V0 2.285868 1_656
O11 V2 2.285878 1_655
O12 Si0 1.782174 1_556
O12 Si1 1.782182 1_565
O12 V0 2.285855 1_566
O12 V1 2.285896 1_565
O13 V3 2.001025 1_665
O13 V2 2.001038 1_655
O13 V1 2.001051 1_565
O13 V0 2.001052 1_666
