# generated using pymatgen
data_Mn2OF2
_symmetry_space_group_name_H-M   'P 1'
_cell_length_a   8.83524500
_cell_length_b   8.90951456
_cell_length_c   8.92245250
_cell_angle_alpha   109.55191024
_cell_angle_beta   109.41352192
_cell_angle_gamma   109.19499379
_symmetry_Int_Tables_number   1
_chemical_formula_structural   Mn2OF2
_chemical_formula_sum   'Mn16 O8 F16'
_cell_volume   542.35254102
_cell_formula_units_Z   8
loop_
 _symmetry_equiv_pos_site_id
 _symmetry_equiv_pos_as_xyz
  1  'x, y, z'
loop_
 _atom_site_type_symbol
 _atom_site_label
 _atom_site_symmetry_multiplicity
 _atom_site_fract_x
 _atom_site_fract_y
 _atom_site_fract_z
 _atom_site_occupancy
  Mn  Mn0  1  0.72708800  0.18961300  0.95457800  1
  Mn  Mn1  1  0.96693100  0.96204400  0.96125200  1
  Mn  Mn2  1  0.98839800  0.48188700  0.50866600  1
  Mn  Mn3  1  0.48898500  0.51604700  0.00323200  1
  Mn  Mn4  1  0.72237800  0.47740000  0.73646900  1
  Mn  Mn5  1  0.79408600  0.04172600  0.24991500  1
  Mn  Mn6  1  0.53518300  0.26158800  0.31126600  1
  Mn  Mn7  1  0.03900100  0.24821800  0.76834100  1
  Mn  Mn8  1  0.77789400  0.72986400  0.49744400  1
  Mn  Mn9  1  0.24980800  0.28186200  0.52581900  1
  Mn  Mn10  1  0.95541500  0.73484600  0.19206500  1
  Mn  Mn11  1  0.48140600  0.77591800  0.73084500  1
  Mn  Mn12  1  0.48392000  0.02268000  0.51754300  1
  Mn  Mn13  1  0.22273000  0.97428100  0.75169500  1
  Mn  Mn14  1  0.27943600  0.53120200  0.23527000  1
  Mn  Mn15  1  0.22837300  0.75883600  0.02106400  1
  O  O0  1  0.00095100  0.25554500  0.52145600  1
  O  O1  1  0.96074100  0.71656200  0.95622900  1
  O  O2  1  0.45449700  0.00078800  0.73148600  1
  O  O3  1  0.77595400  0.51324200  0.53603900  1
  O  O4  1  0.73174100  0.95768900  0.97636400  1
  O  O5  1  0.46229700  0.24483700  0.50826700  1
  O  O6  1  0.25478400  0.52787100  0.99101700  1
  O  O7  1  0.98117500  0.97927900  0.73326500  1
  F  F0  1  0.78027800  0.24150400  0.73862900  1
  F  F1  1  0.30219500  0.24363700  0.77209600  1
  F  F2  1  0.50466900  0.56095400  0.78086200  1
  F  F3  1  0.74772300  0.27258700  0.22067600  1
  F  F4  1  0.05487300  0.02244400  0.26686600  1
  F  F5  1  0.71516800  0.45341500  0.00942700  1
  F  F6  1  0.54755600  0.77144100  0.49841100  1
  F  F7  1  0.22831700  0.72020200  0.76731100  1
  F  F8  1  0.48596000  0.45068900  0.22230100  1
  F  F9  1  0.28880100  0.04386300  0.04554500  1
  F  F10  1  0.23951700  0.50890100  0.45624400  1
  F  F11  1  0.73301200  0.77310100  0.24458800  1
  F  F12  1  0.53480300  0.98489900  0.26900200  1
  F  F13  1  0.02881900  0.27511400  0.05994300  1
  F  F14  1  0.01267900  0.72521900  0.44273700  1
  F  F15  1  0.23245600  0.76820400  0.28577700  1
loop_
_geom_bond_atom_site_label_1
_geom_bond_atom_site_label_2
_geom_bond_distance
_geom_bond_site_symmetry_2
Mn0 O2 2.121392 1_555
Mn0 O4 2.151414 1_545
Mn1 O4 2.115266 1_555
Mn1 O7 2.131653 1_555
Mn1 O1 2.154675 1_555
Mn2 O3 2.065110 1_555
Mn2 O0 2.093962 1_655
Mn3 O6 2.075034 1_554
Mn4 O1 2.080358 1_555
Mn4 O3 2.090389 1_555
Mn4 O5 2.157402 1_555
Mn5 O4 2.105506 1_544
Mn5 O0 2.125353 1_655
Mn6 O5 2.095575 1_555
Mn6 O3 2.142986 1_555
Mn7 O0 2.141981 1_555
Mn7 O7 2.164980 1_445
Mn7 O6 2.198898 1_555
Mn8 O3 2.066587 1_555
Mn8 O7 2.079638 1_555
Mn9 O5 2.055736 1_555
Mn9 O0 2.118684 1_555
Mn10 O1 2.073160 1_554
Mn11 O4 2.088709 1_555
Mn11 O2 2.092116 1_565
Mn12 O2 2.072499 1_555
Mn12 O5 2.075766 1_555
Mn13 O2 2.058493 1_565
Mn13 O7 2.101884 1_455
Mn14 O6 2.105882 1_554
Mn15 O6 2.085401 1_554
Mn15 O1 2.104048 1_454
F0 Mn7 2.189917 1_655
F0 Mn12 2.276782 1_555
F0 Mn0 2.280885 1_555
F0 Mn4 2.325260 1_555
F1 Mn3 2.149581 1_556
F1 Mn13 2.190885 1_545
F1 Mn9 2.255481 1_555
F1 Mn7 2.328461 1_555
F2 Mn11 2.163202 1_555
F2 Mn3 2.189411 1_556
F2 Mn9 2.357190 1_555
F2 Mn4 2.379425 1_555
F3 Mn0 2.160007 1_554
F3 Mn6 2.265003 1_555
F3 Mn2 2.270430 1_555
F3 Mn5 2.304057 1_555
F4 Mn10 2.183617 1_445
F4 Mn9 2.193053 1_555
F4 Mn5 2.325373 1_455
F4 Mn1 2.379774 1_444
F5 Mn10 2.216788 1_555
F5 Mn3 2.233488 1_555
F5 Mn0 2.280763 1_554
F5 Mn4 2.534500 1_554
F6 Mn8 2.187269 1_555
F6 Mn14 2.304437 1_555
F6 Mn11 2.325913 1_555
F6 Mn12 2.447730 1_565
F7 Mn15 2.173051 1_556
F7 Mn2 2.199119 1_455
F7 Mn11 2.283482 1_555
F7 Mn13 2.329442 1_555
F8 Mn14 2.191563 1_555
F8 Mn6 2.192083 1_555
F8 Mn3 2.224118 1_555
F8 Mn8 2.520177 1_555
F9 Mn6 2.199268 1_555
F9 Mn13 2.292582 1_544
F9 Mn15 2.332648 1_545
F9 Mn1 2.456075 1_444
F10 Mn14 2.174761 1_555
F10 Mn9 2.325786 1_555
F10 Mn11 2.346185 1_555
F10 Mn2 2.369261 1_455
F11 Mn3 2.212827 1_555
F11 Mn5 2.253665 1_565
F11 Mn10 2.267729 1_555
F11 Mn8 2.341588 1_555
F12 Mn5 2.255576 1_565
F12 Mn12 2.344305 1_565
F12 Mn6 2.364479 1_565
F12 Mn15 2.393952 1_555
F13 Mn14 2.131239 1_555
F13 Mn0 2.256145 1_454
F13 Mn1 2.426445 1_444
F13 Mn7 2.566588 1_554
F14 Mn10 2.161121 1_455
F14 Mn8 2.293268 1_455
F14 Mn2 2.392447 1_455
F14 Mn13 2.400880 1_555
F15 Mn10 2.184854 1_455
F15 Mn12 2.201871 1_565
F15 Mn14 2.213118 1_555
F15 Mn15 2.322977 1_555
