# generated using pymatgen
data_Li2V2F7
_symmetry_space_group_name_H-M   'P 1'
_cell_length_a   4.90819000
_cell_length_b   7.88246500
_cell_length_c   13.01164415
_cell_angle_alpha   86.74727155
_cell_angle_beta   90.00000000
_cell_angle_gamma   90.00000000
_symmetry_Int_Tables_number   1
_chemical_formula_structural   Li2V2F7
_chemical_formula_sum   'Li8 V8 F28'
_cell_volume   502.59176584
_cell_formula_units_Z   4
loop_
 _symmetry_equiv_pos_site_id
 _symmetry_equiv_pos_as_xyz
  1  'x, y, z'
loop_
 _atom_site_type_symbol
 _atom_site_label
 _atom_site_symmetry_multiplicity
 _atom_site_fract_x
 _atom_site_fract_y
 _atom_site_fract_z
 _atom_site_occupancy
  Li  Li0  1  0.28968700  0.98421900  0.84454100  1
  Li  Li1  1  0.26771400  0.93697900  0.31266000  1
  Li  Li2  1  0.75649400  0.71390600  0.73375400  1
  Li  Li3  1  0.27569600  0.55996300  0.90883400  1
  Li  Li4  1  0.77569600  0.44003700  0.09116600  1
  Li  Li5  1  0.25649400  0.28609400  0.26624600  1
  Li  Li6  1  0.76771400  0.06302100  0.68734000  1
  Li  Li7  1  0.78968700  0.01578100  0.15545900  1
  V  V0  1  0.78811100  0.82872300  0.95164500  1
  V  V1  1  0.26949000  0.82768400  0.54177300  1
  V  V2  1  0.26341700  0.65869900  0.16850500  1
  V  V3  1  0.76714500  0.57231900  0.38728600  1
  V  V4  1  0.26714500  0.42768100  0.61271400  1
  V  V5  1  0.76341700  0.34130100  0.83149500  1
  V  V6  1  0.76949000  0.17231600  0.45822700  1
  V  V7  1  0.28811100  0.17127700  0.04835500  1
  F  F0  1  0.50316100  0.97648900  0.43774000  1
  F  F1  1  0.93908200  0.91416900  0.80559500  1
  F  F2  1  0.11901500  0.94261100  0.01681800  1
  F  F3  1  0.52364900  0.87263700  0.65319100  1
  F  F4  1  0.03618300  0.84403700  0.20919600  1
  F  F5  1  0.45256500  0.76340200  0.87128100  1
  F  F6  1  0.03362600  0.77323100  0.42398800  1
  F  F7  1  0.57504400  0.74798800  0.08991600  1
  F  F8  1  0.48837100  0.71434900  0.29318000  1
  F  F9  1  0.05250000  0.66078700  0.63262100  1
  F  F10  1  0.93106500  0.56866700  0.84480600  1
  F  F11  1  0.49606500  0.61277900  0.51567700  1
  F  F12  1  0.05030800  0.60044100  0.04032200  1
  F  F13  1  0.51410500  0.48793200  0.74083000  1
  F  F14  1  0.01410500  0.51206800  0.25917000  1
  F  F15  1  0.55030800  0.39955900  0.95967800  1
  F  F16  1  0.99606500  0.38722100  0.48432300  1
  F  F17  1  0.43106500  0.43133300  0.15519400  1
  F  F18  1  0.55250000  0.33921300  0.36737900  1
  F  F19  1  0.98837100  0.28565100  0.70682000  1
  F  F20  1  0.07504400  0.25201200  0.91008400  1
  F  F21  1  0.53362600  0.22676900  0.57601200  1
  F  F22  1  0.95256500  0.23659800  0.12871900  1
  F  F23  1  0.53618300  0.15596300  0.79080400  1
  F  F24  1  0.02364900  0.12736300  0.34680900  1
  F  F25  1  0.61901500  0.05738900  0.98318200  1
  F  F26  1  0.43908200  0.08583100  0.19440500  1
  F  F27  1  0.00316100  0.02351100  0.56226000  1
loop_
_geom_bond_atom_site_label_1
_geom_bond_atom_site_label_2
_geom_bond_distance
_geom_bond_site_symmetry_2
F0 Li1 2.034382 1_555
F0 V6 2.051635 1_565
F0 V1 2.084073 1_555
F1 Li0 1.885395 1_655
F1 Li6 2.060786 1_565
F1 Li2 2.082366 1_555
F1 V0 2.113952 1_555
F2 V7 2.046944 1_565
F2 V0 2.061367 1_454
F2 Li0 2.398054 1_554
F2 Li7 2.513506 1_465
F3 Li2 1.954888 1_555
F3 V1 1.960033 1_555
F3 Li6 1.990024 1_565
F4 Li7 1.917783 1_465
F4 V2 1.935536 1_555
F4 Li1 1.937110 1_555
F5 Li3 1.864130 1_555
F5 Li0 1.929004 1_555
F5 V0 2.032729 1_555
F5 Li2 2.378839 1_555
F6 V1 1.986923 1_555
F6 V3 2.128999 1_455
F6 Li1 2.207315 1_555
F7 V2 1.949047 1_555
F7 V0 2.146063 1_554
F8 V2 2.030731 1_555
F8 Li1 2.089796 1_555
F8 V3 2.114080 1_555
F9 Li2 2.019960 1_455
F9 V1 2.021343 1_555
F9 V4 2.146445 1_555
F10 Li3 1.885076 1_655
F10 Li2 1.986209 1_555
F10 V5 1.988542 1_555
F10 V0 2.636328 1_555
F11 V1 2.070470 1_555
F11 V3 2.173308 1_555
F11 V4 2.185483 1_555
F12 Li4 1.938580 1_455
F12 V2 2.042955 1_555
F12 Li3 2.077168 1_554
F12 V0 2.447405 1_454
F13 V5 2.017483 1_555
F13 V4 2.136244 1_555
F13 Li2 2.139631 1_555
F14 V2 2.017483 1_555
F14 V3 2.136244 1_455
F14 Li5 2.139631 1_555
F15 Li3 1.938580 1_555
F15 V5 2.042955 1_555
F15 Li4 2.077168 1_556
F15 V7 2.447405 1_556
F16 V6 2.070470 1_555
F16 V4 2.173308 1_655
F16 V3 2.185483 1_555
F17 Li4 1.885076 1_555
F17 Li5 1.986209 1_555
F17 V2 1.988542 1_555
F17 V7 2.636328 1_555
F18 Li5 2.019960 1_555
F18 V6 2.021343 1_555
F18 V3 2.146445 1_555
F19 V5 2.030731 1_555
F19 Li6 2.089796 1_555
F19 V4 2.114080 1_655
F20 V5 1.949047 1_455
F20 V7 2.146063 1_556
F21 V6 1.986923 1_555
F21 V4 2.128999 1_555
F21 Li6 2.207315 1_555
F22 Li4 1.864130 1_555
F22 Li7 1.929004 1_555
F22 V7 2.032729 1_655
F22 Li5 2.378839 1_655
F23 Li0 1.917783 1_545
F23 V5 1.935536 1_555
F23 Li6 1.937110 1_555
F24 Li5 1.954888 1_555
F24 V6 1.960033 1_455
F24 Li1 1.990024 1_545
F25 V0 2.046944 1_545
F25 V7 2.061367 1_556
F25 Li7 2.398054 1_556
F25 Li0 2.513506 1_545
F26 Li7 1.885395 1_555
F26 Li1 2.060786 1_545
F26 Li5 2.082366 1_555
F26 V7 2.113952 1_555
F27 Li6 2.034382 1_455
F27 V1 2.051635 1_545
F27 V6 2.084073 1_455
