# generated using pymatgen
data_Mn3NiO8
_symmetry_space_group_name_H-M   'P 1'
_cell_length_a   8.14197000
_cell_length_b   8.14197000
_cell_length_c   8.14197000
_cell_angle_alpha   90.00000000
_cell_angle_beta   90.00000000
_cell_angle_gamma   90.00000000
_symmetry_Int_Tables_number   1
_chemical_formula_structural   Mn3NiO8
_chemical_formula_sum   'Mn12 Ni4 O32'
_cell_volume   539.74483302
_cell_formula_units_Z   4
loop_
 _symmetry_equiv_pos_site_id
 _symmetry_equiv_pos_as_xyz
  1  'x, y, z'
loop_
 _atom_site_type_symbol
 _atom_site_label
 _atom_site_symmetry_multiplicity
 _atom_site_fract_x
 _atom_site_fract_y
 _atom_site_fract_z
 _atom_site_occupancy
  Mn  Mn0  1  0.12808000  0.12192000  0.62500000  1
  Mn  Mn1  1  0.12500000  0.37192000  0.87808000  1
  Mn  Mn2  1  0.12192000  0.62500000  0.12808000  1
  Mn  Mn3  1  0.37808000  0.37500000  0.62808000  1
  Mn  Mn4  1  0.37500000  0.62808000  0.37808000  1
  Mn  Mn5  1  0.37192000  0.87808000  0.12500000  1
  Mn  Mn6  1  0.62808000  0.37808000  0.37500000  1
  Mn  Mn7  1  0.62500000  0.12808000  0.12192000  1
  Mn  Mn8  1  0.62192000  0.87500000  0.87192000  1
  Mn  Mn9  1  0.87808000  0.12500000  0.37192000  1
  Mn  Mn10  1  0.87500000  0.87192000  0.62192000  1
  Mn  Mn11  1  0.87192000  0.62192000  0.87500000  1
  Ni  Ni0  1  0.12500000  0.87500000  0.37500000  1
  Ni  Ni1  1  0.37500000  0.12500000  0.87500000  1
  Ni  Ni2  1  0.62500000  0.62500000  0.62500000  1
  Ni  Ni3  1  0.87500000  0.37500000  0.12500000  1
  O  O0  1  0.11452500  0.10773800  0.38795200  1
  O  O1  1  0.11204800  0.88547500  0.60773800  1
  O  O2  1  0.10964700  0.60964700  0.89035300  1
  O  O3  1  0.10773800  0.38795200  0.11452500  1
  O  O4  1  0.14226200  0.13547500  0.86204800  1
  O  O5  1  0.14035300  0.35964700  0.64035300  1
  O  O6  1  0.13795200  0.64226200  0.36452500  1
  O  O7  1  0.13547500  0.86204800  0.14226200  1
  O  O8  1  0.36452500  0.13795200  0.64226200  1
  O  O9  1  0.36204800  0.35773800  0.86452500  1
  O  O10  1  0.35964700  0.64035300  0.14035300  1
  O  O11  1  0.35773800  0.86452500  0.36204800  1
  O  O12  1  0.39226200  0.61204800  0.61452500  1
  O  O13  1  0.39035300  0.39035300  0.39035300  1
  O  O14  1  0.38795200  0.11452500  0.10773800  1
  O  O15  1  0.38547500  0.89226200  0.88795200  1
  O  O16  1  0.61452500  0.39226200  0.61204800  1
  O  O17  1  0.61204800  0.61452500  0.39226200  1
  O  O18  1  0.60964700  0.89035300  0.10964700  1
  O  O19  1  0.60773800  0.11204800  0.88547500  1
  O  O20  1  0.64226200  0.36452500  0.13795200  1
  O  O21  1  0.64035300  0.14035300  0.35964700  1
  O  O22  1  0.63795200  0.85773800  0.63547500  1
  O  O23  1  0.63547500  0.63795200  0.85773800  1
  O  O24  1  0.86452500  0.36204800  0.35773800  1
  O  O25  1  0.86204800  0.14226200  0.13547500  1
  O  O26  1  0.85964700  0.85964700  0.85964700  1
  O  O27  1  0.85773800  0.63547500  0.63795200  1
  O  O28  1  0.89226200  0.88795200  0.38547500  1
  O  O29  1  0.89035300  0.10964700  0.60964700  1
  O  O30  1  0.88795200  0.38547500  0.89226200  1
  O  O31  1  0.88547500  0.60773800  0.11204800  1
loop_
_geom_bond_atom_site_label_1
_geom_bond_atom_site_label_2
_geom_bond_distance
_geom_bond_site_symmetry_2
Mn0 O8 1.934660 1_555
Mn0 O1 1.934660 1_545
Mn0 O0 1.936636 1_555
Mn0 O4 1.936636 1_555
Mn0 O5 1.942171 1_555
Mn0 O29 1.942171 1_455
Mn1 O4 1.934660 1_555
Mn1 O3 1.934660 1_556
Mn1 O9 1.936636 1_555
Mn1 O30 1.936636 1_455
Mn1 O5 1.942171 1_555
Mn1 O2 1.942171 1_555
Mn2 O31 1.934660 1_455
Mn2 O6 1.934660 1_555
Mn2 O3 1.936636 1_555
Mn2 O7 1.936636 1_555
Mn2 O10 1.942171 1_555
Mn2 O2 1.942171 1_554
Mn3 O16 1.934660 1_555
Mn3 O9 1.934660 1_555
Mn3 O8 1.936636 1_555
Mn3 O12 1.936636 1_555
Mn3 O13 1.942171 1_555
Mn3 O5 1.942171 1_555
Mn4 O12 1.934660 1_555
Mn4 O11 1.934660 1_555
Mn4 O6 1.936636 1_555
Mn4 O17 1.936636 1_555
Mn4 O13 1.942171 1_555
Mn4 O10 1.942171 1_555
Mn5 O7 1.934660 1_555
Mn5 O14 1.934660 1_565
Mn5 O11 1.936636 1_555
Mn5 O15 1.936636 1_554
Mn5 O10 1.942171 1_555
Mn5 O18 1.942171 1_555
Mn6 O17 1.934660 1_555
Mn6 O24 1.934660 1_555
Mn6 O20 1.936636 1_555
Mn6 O16 1.936636 1_555
Mn6 O13 1.942171 1_555
Mn6 O21 1.942171 1_555
Mn7 O20 1.934660 1_555
Mn7 O19 1.934660 1_554
Mn7 O14 1.936636 1_555
Mn7 O25 1.936636 1_555
Mn7 O21 1.942171 1_555
Mn7 O18 1.942171 1_545
Mn8 O15 1.934660 1_555
Mn8 O22 1.934660 1_555
Mn8 O19 1.936636 1_565
Mn8 O23 1.936636 1_555
Mn8 O18 1.942171 1_556
Mn8 O26 1.942171 1_555
Mn9 O25 1.934660 1_555
Mn9 O0 1.934660 1_655
Mn9 O24 1.936636 1_555
Mn9 O28 1.936636 1_545
Mn9 O21 1.942171 1_555
Mn9 O29 1.942171 1_555
Mn10 O27 1.934660 1_555
Mn10 O28 1.934660 1_555
Mn10 O1 1.936636 1_655
Mn10 O22 1.936636 1_555
Mn10 O29 1.942171 1_565
Mn10 O26 1.942171 1_555
Mn11 O23 1.934660 1_555
Mn11 O30 1.934660 1_555
Mn11 O31 1.936636 1_556
Mn11 O27 1.936636 1_555
Mn11 O2 1.942171 1_655
Mn11 O26 1.942171 1_555
Ni0 O0 1.899793 1_565
Ni0 O7 1.899793 1_555
Ni0 O6 1.899793 1_555
Ni0 O1 1.899793 1_555
Ni0 O28 1.899793 1_455
Ni0 O11 1.899793 1_555
Ni1 O14 1.899793 1_556
Ni1 O8 1.899793 1_555
Ni1 O19 1.899793 1_555
Ni1 O9 1.899793 1_555
Ni1 O15 1.899793 1_545
Ni1 O4 1.899793 1_555
Ni2 O23 1.899793 1_555
Ni2 O17 1.899793 1_555
Ni2 O22 1.899793 1_555
Ni2 O12 1.899793 1_555
Ni2 O16 1.899793 1_555
Ni2 O27 1.899793 1_555
Ni3 O3 1.899793 1_655
Ni3 O30 1.899793 1_554
Ni3 O24 1.899793 1_555
Ni3 O25 1.899793 1_555
Ni3 O31 1.899793 1_555
Ni3 O20 1.899793 1_555
