# generated using pymatgen
data_Na3(NiO2)2
_symmetry_space_group_name_H-M   'P 1'
_cell_length_a   4.88586396
_cell_length_b   4.88586396
_cell_length_c   10.48284900
_cell_angle_alpha   90.00000000
_cell_angle_beta   90.00000000
_cell_angle_gamma   109.35032666
_symmetry_Int_Tables_number   1
_chemical_formula_structural   Na3(NiO2)2
_chemical_formula_sum   'Na6 Ni4 O8'
_cell_volume   236.10691414
_cell_formula_units_Z   2
loop_
 _symmetry_equiv_pos_site_id
 _symmetry_equiv_pos_as_xyz
  1  'x, y, z'
loop_
 _atom_site_type_symbol
 _atom_site_label
 _atom_site_symmetry_multiplicity
 _atom_site_fract_x
 _atom_site_fract_y
 _atom_site_fract_z
 _atom_site_occupancy
  Na  Na0  1  0.64873300  0.35126700  0.06474800  1
  Na  Na1  1  0.64873300  0.35126700  0.43525200  1
  Na  Na2  1  0.35126700  0.64873300  0.56474800  1
  Na  Na3  1  0.31415700  0.68584300  0.25000000  1
  Na  Na4  1  0.68584300  0.31415700  0.75000000  1
  Na  Na5  1  0.35126700  0.64873300  0.93525200  1
  Ni  Ni0  1  0.00000000  0.00000000  0.00000000  1
  Ni  Ni1  1  0.92814100  0.07185900  0.25000000  1
  Ni  Ni2  1  0.00000000  0.00000000  0.50000000  1
  Ni  Ni3  1  0.07185900  0.92814100  0.75000000  1
  O  O0  1  0.13988700  0.29629600  0.11937400  1
  O  O1  1  0.13988700  0.29629600  0.38062600  1
  O  O2  1  0.29629600  0.13988700  0.88062600  1
  O  O3  1  0.29629600  0.13988700  0.61937400  1
  O  O4  1  0.70370400  0.86011300  0.38062600  1
  O  O5  1  0.70370400  0.86011300  0.11937400  1
  O  O6  1  0.86011300  0.70370400  0.61937400  1
  O  O7  1  0.86011300  0.70370400  0.88062600  1
loop_
_geom_bond_atom_site_label_1
_geom_bond_atom_site_label_2
_geom_bond_distance
_geom_bond_site_symmetry_2
Na0 O5 2.477600 1_555
Na0 O0 2.477600 1_555
Na0 O2 2.564883 1_554
Na0 O7 2.564883 1_554
Na0 O5 2.566277 1_545
Na0 O0 2.566277 1_655
Na1 O1 2.477600 1_555
Na1 O4 2.477600 1_555
Na1 O3 2.564883 1_555
Na1 O6 2.564883 1_555
Na1 O4 2.566277 1_545
Na1 O1 2.566277 1_655
Na2 O6 2.477600 1_555
Na2 O3 2.477600 1_555
Na2 O1 2.564883 1_555
Na2 O4 2.564883 1_555
Na2 O6 2.566277 1_455
Na2 O3 2.566277 1_565
Na3 O0 2.269049 1_555
Na3 O1 2.269049 1_555
Na3 O5 2.269049 1_555
Na3 O4 2.269049 1_555
Na4 O6 2.269049 1_555
Na4 O7 2.269049 1_555
Na4 O2 2.269049 1_555
Na4 O3 2.269049 1_555
Na5 O7 2.477600 1_555
Na5 O2 2.477600 1_555
Na5 O5 2.564883 1_556
Na5 O0 2.564883 1_556
Na5 O2 2.566277 1_565
Na5 O7 2.566277 1_455
Ni0 O5 1.863632 1_445
Ni0 O0 1.863632 1_555
Ni0 O7 1.863632 1_444
Ni0 O2 1.863632 1_554
Ni1 O5 1.842839 1_545
Ni1 O4 1.842839 1_545
Ni1 O0 1.842839 1_655
Ni1 O1 1.842839 1_655
Ni2 O4 1.863632 1_445
Ni2 O6 1.863632 1_445
Ni2 O1 1.863632 1_555
Ni2 O3 1.863632 1_555
Ni3 O6 1.842839 1_455
Ni3 O7 1.842839 1_455
Ni3 O3 1.842839 1_565
Ni3 O2 1.842839 1_565
