# generated using pymatgen
data_Li12Fe3NiP4(CO7)4
_symmetry_space_group_name_H-M   'P 1'
_cell_length_a   8.47152825
_cell_length_b   9.99761636
_cell_length_c   6.43878900
_cell_angle_alpha   90.00000000
_cell_angle_beta   90.00000000
_cell_angle_gamma   85.26408917
_symmetry_Int_Tables_number   1
_chemical_formula_structural   Li12Fe3NiP4(CO7)4
_chemical_formula_sum   'Li12 Fe3 Ni1 P4 C4 O28'
_cell_volume   543.47195059
_cell_formula_units_Z   1
loop_
 _symmetry_equiv_pos_site_id
 _symmetry_equiv_pos_as_xyz
  1  'x, y, z'
loop_
 _atom_site_type_symbol
 _atom_site_label
 _atom_site_symmetry_multiplicity
 _atom_site_fract_x
 _atom_site_fract_y
 _atom_site_fract_z
 _atom_site_occupancy
  Li  Li0  1  0.09311400  0.38124200  0.25000000  1
  Li  Li1  1  0.09626200  0.88172900  0.25000000  1
  Li  Li2  1  0.27509700  0.12246100  0.02243200  1
  Li  Li3  1  0.27509700  0.12246100  0.47756800  1
  Li  Li4  1  0.27566400  0.62518800  0.02298500  1
  Li  Li5  1  0.27566400  0.62518800  0.47701500  1
  Li  Li6  1  0.72536300  0.37798200  0.52215700  1
  Li  Li7  1  0.72536300  0.37798200  0.97784300  1
  Li  Li8  1  0.72505800  0.87428000  0.52074400  1
  Li  Li9  1  0.72505800  0.87428000  0.97925600  1
  Li  Li10  1  0.90594700  0.11933800  0.75000000  1
  Li  Li11  1  0.90473400  0.61840400  0.75000000  1
  Fe  Fe0  1  0.33383800  0.39527100  0.75000000  1
  Fe  Fe1  1  0.33622700  0.89147600  0.75000000  1
  Fe  Fe2  1  0.66680900  0.10616400  0.25000000  1
  Ni  Ni0  1  0.66711300  0.60416400  0.25000000  1
  P  P0  1  0.41299000  0.36128000  0.25000000  1
  P  P1  1  0.41335500  0.85851600  0.25000000  1
  P  P2  1  0.58752500  0.14005300  0.75000000  1
  P  P3  1  0.58830900  0.64096100  0.75000000  1
  C  C0  1  0.03451000  0.35001000  0.75000000  1
  C  C1  1  0.03480700  0.85121600  0.75000000  1
  C  C2  1  0.96591300  0.14945600  0.25000000  1
  C  C3  1  0.96143900  0.64866300  0.25000000  1
  O  O0  1  0.07097300  0.47345800  0.75000000  1
  O  O1  1  0.11244600  0.17909100  0.25000000  1
  O  O2  1  0.07098600  0.97433900  0.75000000  1
  O  O3  1  0.14792500  0.25369100  0.75000000  1
  O  O4  1  0.10704200  0.67958300  0.25000000  1
  O  O5  1  0.14860000  0.75491800  0.75000000  1
  O  O6  1  0.30958400  0.41420600  0.06301000  1
  O  O7  1  0.30958400  0.41420600  0.43699000  1
  O  O8  1  0.30959700  0.91093700  0.06300700  1
  O  O9  1  0.30959700  0.91093700  0.43699300  1
  O  O10  1  0.42124300  0.08837100  0.75000000  1
  O  O11  1  0.43135900  0.20501200  0.25000000  1
  O  O12  1  0.42036400  0.59230400  0.75000000  1
  O  O13  1  0.43278200  0.70142200  0.25000000  1
  O  O14  1  0.56980500  0.29675100  0.75000000  1
  O  O15  1  0.58017100  0.41343500  0.25000000  1
  O  O16  1  0.57177200  0.79759800  0.75000000  1
  O  O17  1  0.57888900  0.91114100  0.25000000  1
  O  O18  1  0.69079500  0.08714900  0.93728900  1
  O  O19  1  0.69079500  0.08714900  0.56271100  1
  O  O20  1  0.69101500  0.58728800  0.56200900  1
  O  O21  1  0.69101500  0.58728800  0.93799100  1
  O  O22  1  0.85215400  0.24592500  0.25000000  1
  O  O23  1  0.88773700  0.32075300  0.75000000  1
  O  O24  1  0.84534400  0.74320400  0.25000000  1
  O  O25  1  0.92932700  0.02618100  0.25000000  1
  O  O26  1  0.88825300  0.82099000  0.75000000  1
  O  O27  1  0.92558800  0.52491400  0.25000000  1
loop_
_geom_bond_atom_site_label_1
_geom_bond_atom_site_label_2
_geom_bond_distance
_geom_bond_site_symmetry_2
Li0 O27 1.934089 1_455
Li0 O1 2.014130 1_555
Li0 O6 2.240744 1_555
Li0 O7 2.240744 1_555
Li0 O22 2.540297 1_455
Li1 O25 1.936064 1_465
Li1 O4 2.015494 1_555
Li1 O9 2.210947 1_555
Li1 O8 2.210947 1_555
Li2 O1 2.058478 1_555
Li2 O8 2.126904 1_545
Li2 O10 2.157847 1_554
Li2 O11 2.181955 1_555
Li2 O3 2.392813 1_554
Li3 O1 2.058478 1_555
Li3 O9 2.126904 1_545
Li3 O10 2.157847 1_555
Li3 O11 2.181955 1_555
Li3 O3 2.392813 1_555
Li4 O4 2.084372 1_555
Li4 O6 2.120877 1_555
Li4 O12 2.152599 1_554
Li4 O13 2.157918 1_555
Li4 O5 2.387431 1_554
Li5 O4 2.084372 1_555
Li5 O7 2.120877 1_555
Li5 O12 2.152599 1_555
Li5 O13 2.157918 1_555
Li5 O5 2.387431 1_555
Li6 O23 2.059549 1_555
Li6 O20 2.104467 1_555
Li6 O15 2.153441 1_555
Li6 O14 2.173723 1_555
Li6 O22 2.394452 1_555
Li7 O23 2.059549 1_555
Li7 O21 2.104467 1_555
Li7 O15 2.153441 1_556
Li7 O14 2.173723 1_555
Li7 O22 2.394452 1_556
Li8 O26 2.062164 1_555
Li8 O19 2.141127 1_565
Li8 O16 2.148804 1_555
Li8 O17 2.152382 1_555
Li8 O24 2.360956 1_555
Li9 O26 2.062164 1_555
Li9 O18 2.141127 1_565
Li9 O16 2.148804 1_555
Li9 O17 2.152382 1_556
Li9 O24 2.360956 1_556
Li10 O2 1.929136 1_645
Li10 O23 2.006831 1_555
Li10 O18 2.230866 1_555
Li10 O19 2.230866 1_555
Li10 O3 2.541864 1_655
Li11 O0 1.935523 1_655
Li11 O26 2.018651 1_555
Li11 O20 2.221021 1_555
Li11 O21 2.221021 1_555
Fe0 O7 2.033099 1_555
Fe0 O6 2.033099 1_556
Fe0 O14 2.154307 1_555
Fe0 O12 2.157795 1_555
Fe0 O3 2.202765 1_555
Fe0 O0 2.298377 1_555
Fe1 O9 2.035505 1_555
Fe1 O8 2.035505 1_556
Fe1 O16 2.133861 1_555
Fe1 O10 2.151216 1_565
Fe1 O5 2.179157 1_555
Fe1 O2 2.329788 1_555
Fe2 O18 2.031047 1_554
Fe2 O19 2.031047 1_555
Fe2 O17 2.143860 1_545
Fe2 O11 2.151662 1_555
Fe2 O22 2.186332 1_555
Fe2 O25 2.300355 1_555
Ni0 O21 2.024783 1_554
Ni0 O20 2.024783 1_555
Ni0 O15 2.100098 1_555
Ni0 O24 2.135095 1_555
Ni0 O13 2.137174 1_555
Ni0 O27 2.266268 1_555
C0 O0 1.296759 1_555
C0 O23 1.300628 1_455
C0 O3 1.302939 1_555
C1 O2 1.292842 1_555
C1 O26 1.301799 1_455
C1 O5 1.304965 1_555
C2 O25 1.295410 1_555
C2 O1 1.299801 1_655
C2 O22 1.305927 1_555
C3 O4 1.296146 1_655
C3 O27 1.298052 1_555
C3 O24 1.306580 1_555
O6 P0 1.555770 1_555
O7 P0 1.555770 1_555
O8 P1 1.555910 1_555
O9 P1 1.555910 1_555
O10 P2 1.539965 1_555
O11 P0 1.557201 1_555
O12 P3 1.541149 1_555
O13 P1 1.565593 1_555
O14 P2 1.561396 1_555
O15 P0 1.549088 1_555
O16 P3 1.560687 1_555
O17 P1 1.537906 1_555
O18 P2 1.556580 1_555
O19 P2 1.556580 1_555
O20 P3 1.559818 1_555
O21 P3 1.559818 1_555
