# generated using pymatgen
data_VOF2
_symmetry_space_group_name_H-M   'P 1'
_cell_length_a   5.05181064
_cell_length_b   5.29157994
_cell_length_c   11.51102526
_cell_angle_alpha   100.52090452
_cell_angle_beta   102.33225227
_cell_angle_gamma   90.18067333
_symmetry_Int_Tables_number   1
_chemical_formula_structural   VOF2
_chemical_formula_sum   'V6 O6 F12'
_cell_volume   295.27453423
_cell_formula_units_Z   6
loop_
 _symmetry_equiv_pos_site_id
 _symmetry_equiv_pos_as_xyz
  1  'x, y, z'
loop_
 _atom_site_type_symbol
 _atom_site_label
 _atom_site_symmetry_multiplicity
 _atom_site_fract_x
 _atom_site_fract_y
 _atom_site_fract_z
 _atom_site_occupancy
  V  V0  1  0.85236158  0.80277646  0.66385732  1
  V  V1  1  0.70009213  0.69571805  0.33620406  1
  V  V2  1  0.51902902  0.53012740  0.99689117  1
  V  V3  1  0.35416165  0.34343736  0.66860880  1
  V  V4  1  0.03266376  0.02580098  0.00472994  1
  V  V5  1  0.18596786  0.20153207  0.32945151  1
  O  O0  1  0.96484388  0.89137814  0.36042671  1
  O  O1  1  0.61662316  0.55236514  0.69135045  1
  O  O2  1  0.29892939  0.22071374  0.03222142  1
  O  O3  1  0.68492657  0.77414603  0.97293653  1
  O  O4  1  0.35507718  0.44515266  0.30673969  1
  O  O5  1  0.08960887  0.59618910  0.63694932  1
  F  F0  1  0.96534277  0.09472971  0.16718511  1
  F  F1  1  0.88526935  0.39188670  0.37600671  1
  F  F2  1  0.68910096  0.55924349  0.16694798  1
  F  F3  1  0.64001278  0.76342988  0.49952490  1
  F  F4  1  0.76492849  0.26738168  0.95703428  1
  F  F5  1  0.43075620  0.93675195  0.28722430  1
  F  F6  1  0.21270663  0.71693360  0.03973124  1
  F  F7  1  0.55801861  0.04704507  0.70142589  1
  F  F8  1  0.35346576  0.22262646  0.49887468  1
  F  F9  1  0.30442373  0.41117556  0.83486277  1
  F  F10  1  0.02560018  0.10527266  0.63638070  1
  F  F11  1  0.01609249  0.90418512  0.83443552  1
loop_
_geom_bond_atom_site_label_1
_geom_bond_atom_site_label_2
_geom_bond_distance
_geom_bond_site_symmetry_2
O0 V1 1.632508 1_555
O0 V5 2.107326 1_665
O1 V3 1.669016 1_555
O1 V0 1.891669 1_555
O2 V4 1.632025 1_555
O2 V2 2.123034 1_554
O3 V2 1.633292 1_555
O3 V4 2.127413 1_666
O4 V5 1.634505 1_555
O4 V1 2.116500 1_555
O5 V0 1.664519 1_455
O5 V3 1.920670 1_555
F0 V4 1.941406 1_655
F0 V5 1.942102 1_655
F1 V1 1.940439 1_555
F1 V5 1.941554 1_655
F2 V1 1.939133 1_555
F2 V2 1.940215 1_554
F3 V1 1.937341 1_555
F3 V0 1.939166 1_555
F4 V2 1.925640 1_555
F4 V4 1.927430 1_656
F5 V1 1.934384 1_555
F5 V5 1.935869 1_565
F6 V4 1.937567 1_565
F6 V2 1.942323 1_554
F7 V3 1.929633 1_555
F7 V0 2.037519 1_545
F8 V5 1.935683 1_555
F8 V3 1.940876 1_555
F9 V2 1.937381 1_555
F9 V3 1.951803 1_555
F10 V0 1.929360 1_445
F10 V3 2.008476 1_555
F11 V4 1.932009 1_566
F11 V0 1.935516 1_455
