# generated using pymatgen
data_BaEuO2
_symmetry_space_group_name_H-M   'P 1'
_cell_length_a   6.62287695
_cell_length_b   6.62287695
_cell_length_c   6.62287691
_cell_angle_alpha   32.91423789
_cell_angle_beta   32.91423789
_cell_angle_gamma   32.91424498
_symmetry_Int_Tables_number   1
_chemical_formula_structural   BaEuO2
_chemical_formula_sum   'Ba1 Eu1 O2'
_cell_volume   76.32029071
_cell_formula_units_Z   1
loop_
 _symmetry_equiv_pos_site_id
 _symmetry_equiv_pos_as_xyz
  1  'x, y, z'
loop_
 _atom_site_type_symbol
 _atom_site_label
 _atom_site_symmetry_multiplicity
 _atom_site_fract_x
 _atom_site_fract_y
 _atom_site_fract_z
 _atom_site_occupancy
  Ba  Ba0  1  0.00000000  0.00000000  0.00000000  1
  Eu  Eu0  1  0.50000000  0.50000000  0.50000000  1
  O  O0  1  0.23966400  0.23966400  0.23966400  1
  O  O1  1  0.76033600  0.76033600  0.76033600  1
loop_
_geom_bond_atom_site_label_1
_geom_bond_atom_site_label_2
_geom_bond_distance
_geom_bond_site_symmetry_2
Ba0 O1 2.790468 1_445
Ba0 O0 2.790468 1_554
Ba0 O1 2.790468 1_544
Ba0 O0 2.790468 1_455
Ba0 O1 2.790468 1_454
Ba0 O0 2.790468 1_545
Eu0 O0 2.563624 1_556
Eu0 O1 2.563624 1_554
Eu0 O0 2.563624 1_655
Eu0 O0 2.563624 1_565
Eu0 O1 2.563624 1_455
Eu0 O1 2.563624 1_545
