# generated using pymatgen
data_LiV2F7
_symmetry_space_group_name_H-M   'P 1'
_cell_length_a   7.14814100
_cell_length_b   7.82071400
_cell_length_c   10.18393446
_cell_angle_alpha   89.14064370
_cell_angle_beta   90.00000000
_cell_angle_gamma   90.00000000
_symmetry_Int_Tables_number   1
_chemical_formula_structural   LiV2F7
_chemical_formula_sum   'Li4 V8 F28'
_cell_volume   569.25422092
_cell_formula_units_Z   4
loop_
 _symmetry_equiv_pos_site_id
 _symmetry_equiv_pos_as_xyz
  1  'x, y, z'
loop_
 _atom_site_type_symbol
 _atom_site_label
 _atom_site_symmetry_multiplicity
 _atom_site_fract_x
 _atom_site_fract_y
 _atom_site_fract_z
 _atom_site_occupancy
  Li  Li0  1  0.59218400  0.30433600  0.64885500  1
  Li  Li1  1  0.10676700  0.82871000  0.64453900  1
  Li  Li2  1  0.40781600  0.30433600  0.14885500  1
  Li  Li3  1  0.89323300  0.82871000  0.14453900  1
  V  V0  1  0.11616900  0.11825700  0.91723400  1
  V  V1  1  0.61714200  0.60235500  0.90793100  1
  V  V2  1  0.10846500  0.39651100  0.59183600  1
  V  V3  1  0.60948300  0.88157200  0.57935500  1
  V  V4  1  0.88383100  0.11825700  0.41723400  1
  V  V5  1  0.38285800  0.60235500  0.40793100  1
  V  V6  1  0.89153500  0.39651100  0.09183600  1
  V  V7  1  0.39051700  0.88157200  0.07935500  1
  F  F0  1  0.86508100  0.19374200  0.97481400  1
  F  F1  1  0.38082000  0.06233400  0.93467000  1
  F  F2  1  0.36591400  0.69479700  0.94739900  1
  F  F3  1  0.88211100  0.54801400  0.92991400  1
  F  F4  1  0.56148800  0.40945600  0.81087000  1
  F  F5  1  0.06095100  0.94439800  0.80049800  1
  F  F6  1  0.14033400  0.27519200  0.75940500  1
  F  F7  1  0.64027200  0.73591300  0.73594300  1
  F  F8  1  0.54528500  0.06999200  0.68230600  1
  F  F9  1  0.05225900  0.59911200  0.67907800  1
  F  F10  1  0.38874000  0.44607000  0.57262000  1
  F  F11  1  0.83603500  0.31319200  0.55600300  1
  F  F12  1  0.88736000  0.93687500  0.56505600  1
  F  F13  1  0.33731900  0.80867400  0.53682500  1
  F  F14  1  0.13491900  0.19374200  0.47481400  1
  F  F15  1  0.61918000  0.06233400  0.43467000  1
  F  F16  1  0.63408600  0.69479700  0.44739900  1
  F  F17  1  0.11788900  0.54801400  0.42991400  1
  F  F18  1  0.43851200  0.40945600  0.31087000  1
  F  F19  1  0.93904900  0.94439800  0.30049800  1
  F  F20  1  0.85966600  0.27519200  0.25940500  1
  F  F21  1  0.35972800  0.73591300  0.23594300  1
  F  F22  1  0.45471500  0.06999200  0.18230600  1
  F  F23  1  0.94774100  0.59911200  0.17907800  1
  F  F24  1  0.61126000  0.44607000  0.07262000  1
  F  F25  1  0.16396500  0.31319200  0.05600300  1
  F  F26  1  0.11264000  0.93687500  0.06505600  1
  F  F27  1  0.66268100  0.80867400  0.03682500  1
loop_
_geom_bond_atom_site_label_1
_geom_bond_atom_site_label_2
_geom_bond_distance
_geom_bond_site_symmetry_2
F0 V0 1.980934 1_655
F0 V6 2.006853 1_556
F1 V0 1.949166 1_555
F1 V7 2.027789 1_546
F2 V1 1.979366 1_555
F2 V7 2.007331 1_556
F3 V1 1.953266 1_555
F3 V6 2.017186 1_556
F4 V1 1.859018 1_555
F4 Li0 1.867361 1_555
F5 V0 1.861824 1_565
F5 Li1 1.868576 1_555
F6 V2 1.953390 1_555
F6 V0 2.015072 1_555
F7 V3 1.958223 1_555
F7 V1 2.032555 1_555
F8 V3 1.878191 1_545
F8 Li0 1.889083 1_555
F9 Li1 1.865702 1_555
F9 V2 1.871793 1_555
F10 Li0 1.980015 1_555
F10 V2 2.049399 1_555
F10 V5 2.060858 1_555
F11 Li0 1.983765 1_555
F11 V2 2.087377 1_655
F11 V4 2.121962 1_555
F12 Li1 1.951920 1_655
F12 V3 2.037593 1_555
F12 V4 2.053067 1_565
F13 Li1 1.987204 1_555
F13 V3 2.074819 1_555
F13 V5 2.120406 1_555
F14 V4 1.980934 1_455
F14 V2 2.006853 1_555
F15 V4 1.949166 1_555
F15 V3 2.027789 1_545
F16 V5 1.979366 1_555
F16 V3 2.007331 1_555
F17 V5 1.953266 1_555
F17 V2 2.017186 1_555
F18 V5 1.859018 1_555
F18 Li2 1.867361 1_555
F19 V4 1.861824 1_565
F19 Li3 1.868576 1_555
F20 V6 1.953390 1_555
F20 V4 2.015072 1_555
F21 V7 1.958223 1_555
F21 V5 2.032555 1_555
F22 V7 1.878191 1_545
F22 Li2 1.889083 1_555
F23 Li3 1.865702 1_555
F23 V6 1.871793 1_555
F24 Li2 1.980015 1_555
F24 V6 2.049399 1_555
F24 V1 2.060858 1_554
F25 Li2 1.983765 1_555
F25 V6 2.087377 1_455
F25 V0 2.121962 1_554
F26 Li3 1.951920 1_455
F26 V7 2.037593 1_555
F26 V0 2.053067 1_564
F27 Li3 1.987204 1_555
F27 V7 2.074819 1_555
F27 V1 2.120406 1_554
