# generated using pymatgen
data_Li5V3P8O29
_symmetry_space_group_name_H-M   'P 1'
_cell_length_a   9.76792300
_cell_length_b   9.76837594
_cell_length_c   14.06716327
_cell_angle_alpha   89.76126992
_cell_angle_beta   89.74727669
_cell_angle_gamma   60.20540377
_symmetry_Int_Tables_number   1
_chemical_formula_structural   Li5V3P8O29
_chemical_formula_sum   'Li10 V6 P16 O58'
_cell_volume   1164.80059396
_cell_formula_units_Z   2
loop_
 _symmetry_equiv_pos_site_id
 _symmetry_equiv_pos_as_xyz
  1  'x, y, z'
loop_
 _atom_site_type_symbol
 _atom_site_label
 _atom_site_symmetry_multiplicity
 _atom_site_fract_x
 _atom_site_fract_y
 _atom_site_fract_z
 _atom_site_occupancy
  Li  Li0  1  0.90281600  0.77010100  0.43816100  1
  Li  Li1  1  0.32243000  0.90546900  0.43449500  1
  Li  Li2  1  0.32843100  0.76658800  0.94284500  1
  Li  Li3  1  0.90596500  0.32869700  0.94507300  1
  Li  Li4  1  0.22646100  0.68068700  0.55916600  1
  Li  Li5  1  0.77111700  0.32345500  0.43780700  1
  Li  Li6  1  0.66952900  0.23145500  0.05931600  1
  Li  Li7  1  0.68339600  0.09152400  0.56306300  1
  Li  Li8  1  0.09046800  0.22316300  0.55492400  1
  Li  Li9  1  0.01047300  0.94387300  0.00976300  1
  V  V0  1  0.43360900  0.56928400  0.75055500  1
  V  V1  1  0.56548100  0.43295900  0.25082000  1
  V  V2  1  0.00169800  0.56761900  0.24178600  1
  V  V3  1  0.00089100  0.43672200  0.75502200  1
  V  V4  1  0.56813000  0.99753200  0.75579900  1
  V  V5  1  0.43202000  0.00373600  0.24624500  1
  P  P0  1  0.77860600  0.91914200  0.16065700  1
  P  P1  1  0.91343300  0.76952300  0.65781600  1
  P  P2  1  0.31928300  0.91533900  0.65493900  1
  P  P3  1  0.66835600  0.66362300  0.87052100  1
  P  P4  1  0.67064100  0.66549400  0.36884800  1
  P  P5  1  0.31478100  0.77246700  0.15863300  1
  P  P6  1  0.22798100  0.67972800  0.34019800  1
  P  P7  1  0.91267800  0.31312500  0.15695500  1
  P  P8  1  0.08376900  0.69609100  0.84256600  1
  P  P9  1  0.77121900  0.32287900  0.65810700  1
  P  P10  1  0.68442900  0.23019600  0.84017600  1
  P  P11  1  0.33257300  0.33312900  0.63240800  1
  P  P12  1  0.33414800  0.33335000  0.12916400  1
  P  P13  1  0.67989800  0.08640200  0.34547000  1
  P  P14  1  0.08694000  0.23281600  0.33955800  1
  P  P15  1  0.22089200  0.08267500  0.83969600  1
  O  O0  1  0.75365900  0.00022500  0.43664800  1
  O  O1  1  0.74884000  0.91833700  0.66016500  1
  O  O2  1  0.99694500  0.79343400  0.92518300  1
  O  O3  1  0.91772700  0.74560600  0.16399500  1
  O  O4  1  0.62007000  0.92411100  0.16516100  1
  O  O5  1  0.67791700  0.80475600  0.82772900  1
  O  O6  1  0.47810100  0.90615200  0.67672600  1
  O  O7  1  0.20396000  0.98997900  0.91845300  1
  O  O8  1  0.34674600  0.91150500  0.16993800  1
  O  O9  1  0.81661300  0.67048300  0.32194400  1
  O  O10  1  0.90258100  0.61928400  0.68049300  1
  O  O11  1  0.51705300  0.81316800  0.33253200  1
  O  O12  1  0.68004700  0.64280100  0.97528100  1
  O  O13  1  0.68653400  0.65905700  0.47470400  1
  O  O14  1  0.51121900  0.67614300  0.83167800  1
  O  O15  1  0.91041700  0.47275200  0.17139100  1
  O  O16  1  0.81399100  0.50638200  0.82542700  1
  O  O17  1  0.33718000  0.74811200  0.65882500  1
  O  O18  1  0.20460100  0.79071300  0.24975900  1
  O  O19  1  0.23907500  0.75827600  0.42975600  1
  O  O20  1  0.22743800  0.78774400  0.06887400  1
  O  O21  1  0.46961300  0.61618300  0.17050900  1
  O  O22  1  0.67401900  0.51178400  0.33041000  1
  O  O23  1  0.25686400  0.66084400  0.83925800  1
  O  O24  1  0.62389700  0.48251300  0.67692400  1
  O  O25  1  0.92283200  0.33707000  0.65910700  1
  O  O26  1  0.01026500  0.78957200  0.74328800  1
  O  O27  1  0.00012700  0.75160800  0.56606700  1
  O  O28  1  0.99588400  0.24579700  0.42907700  1
  O  O29  1  0.07831200  0.66329700  0.34025800  1
  O  O30  1  0.37657500  0.51904400  0.32305800  1
  O  O31  1  0.74294100  0.33929400  0.16267000  1
  O  O32  1  0.32798700  0.48709800  0.66809400  1
  O  O33  1  0.52655000  0.38470100  0.82585900  1
  O  O34  1  0.76786500  0.23125900  0.92908800  1
  O  O35  1  0.76130200  0.24403100  0.56868900  1
  O  O36  1  0.79327700  0.20948000  0.74829200  1
  O  O37  1  0.66163200  0.25321400  0.34351200  1
  O  O38  1  0.18727400  0.48758000  0.17583000  1
  O  O39  1  0.08065900  0.53747000  0.83021700  1
  O  O40  1  0.48927100  0.32361000  0.16881300  1
  O  O41  1  0.32716600  0.34405100  0.02406800  1
  O  O42  1  0.31531800  0.33121900  0.52740900  1
  O  O43  1  0.48401300  0.18649100  0.67138900  1
  O  O44  1  0.09472500  0.38369100  0.31989300  1
  O  O45  1  0.18410700  0.33192200  0.68185300  1
  O  O46  1  0.65634800  0.08817700  0.83587500  1
  O  O47  1  0.79853800  0.99176900  0.26010400  1
  O  O48  1  0.80367200  0.00739700  0.08154700  1
  O  O49  1  0.52115000  0.09586500  0.32465400  1
  O  O50  1  0.32293700  0.19455100  0.17443500  1
  O  O51  1  0.37641400  0.08428300  0.83123900  1
  O  O52  1  0.07827700  0.25663000  0.84024800  1
  O  O53  1  0.99118300  0.23120400  0.06712000  1
  O  O54  1  0.99848200  0.20847700  0.24967400  1
  O  O55  1  0.25182700  0.08407400  0.34090000  1
  O  O56  1  0.24770200  0.99673100  0.56260500  1
  O  O57  1  0.19859700  0.01374100  0.73886300  1
loop_
_geom_bond_atom_site_label_1
_geom_bond_atom_site_label_2
_geom_bond_distance
_geom_bond_site_symmetry_2
Li0 O0 1.980273 1_565
Li0 O27 2.003811 1_655
Li0 O29 2.034109 1_655
Li0 O9 2.273398 1_555
Li1 O19 1.974701 1_555
Li1 O56 1.982517 1_555
Li1 O55 2.011501 1_565
Li1 O11 2.183483 1_555
Li2 O7 1.928372 1_555
Li2 O20 1.985943 1_556
Li2 O23 2.101942 1_555
Li2 O14 2.198444 1_555
Li3 O53 1.938717 1_556
Li3 O34 2.014100 1_555
Li3 O52 2.076575 1_655
Li3 O16 2.256514 1_555
Li4 O27 1.963069 1_555
Li4 O19 1.995726 1_555
Li4 O17 2.073103 1_555
Li4 O32 2.243450 1_555
Li5 O28 1.937537 1_555
Li5 O35 2.015285 1_555
Li5 O37 2.030596 1_555
Li5 O22 2.195873 1_555
Li6 O48 1.937246 1_555
Li6 O34 2.064295 1_554
Li6 O31 2.123759 1_555
Li6 O40 2.166935 1_555
Li7 O0 1.955233 1_555
Li7 O35 1.983136 1_555
Li7 O1 2.012513 1_545
Li7 O43 2.272835 1_555
Li8 O28 1.960770 1_455
Li8 O56 1.971389 1_545
Li8 O25 2.061302 1_455
Li8 O45 2.479782 1_555
Li9 O2 1.949765 1_454
Li9 O48 2.055907 1_465
Li9 O20 2.074063 1_555
Li9 O7 2.498872 1_554
O0 P13 1.506407 1_555
O1 P1 1.541557 1_555
O1 V4 2.038324 1_555
O2 P8 1.474180 1_655
O3 P0 1.559833 1_555
O3 V2 1.862254 1_655
O4 P0 1.526071 1_555
O4 V5 1.961917 1_565
O5 P3 1.546696 1_555
O5 V4 1.925300 1_555
O6 P2 1.540843 1_555
O6 V4 1.898531 1_555
O7 P15 1.487794 1_565
O8 P5 1.546314 1_555
O8 V5 1.849182 1_565
O9 P4 1.590986 1_555
O9 V2 1.932812 1_655
O10 P1 1.554742 1_555
O10 V3 1.868965 1_655
O11 P4 1.562858 1_555
O11 V5 2.020409 1_565
O12 P3 1.483926 1_555
O13 P4 1.495664 1_555
O14 P3 1.577890 1_555
O14 V0 1.941785 1_555
O15 P7 1.562533 1_555
O15 V2 1.863046 1_655
O16 P3 1.616795 1_555
O16 V3 1.879346 1_655
O17 P2 1.554843 1_555
O17 V0 1.990119 1_555
O18 P6 1.609684 1_555
O18 P5 1.622458 1_555
O19 P6 1.509810 1_555
O20 P5 1.491930 1_555
O21 P5 1.533440 1_555
O21 V1 1.919244 1_555
O22 P4 1.582822 1_555
O22 V1 1.949187 1_555
O23 P8 1.549309 1_555
O23 V0 1.947638 1_555
O24 P9 1.530538 1_555
O24 V0 1.915926 1_555
O25 P9 1.554615 1_555
O25 V3 2.026588 1_655
O26 P1 1.604590 1_455
O26 P8 1.626775 1_555
O27 P1 1.502821 1_455
O28 P14 1.507419 1_655
O29 P6 1.547984 1_555
O29 V2 2.016782 1_555
O30 P6 1.537713 1_555
O30 V1 1.895562 1_555
O31 P7 1.548710 1_555
O31 V1 1.947788 1_555
O32 P11 1.566923 1_555
O32 V0 1.973823 1_555
O33 P10 1.543965 1_555
O33 V0 1.887654 1_555
O34 P10 1.498729 1_555
O35 P9 1.506027 1_555
O36 P10 1.618117 1_555
O36 P9 1.623716 1_555
O37 P13 1.548725 1_555
O37 V1 2.004518 1_555
O38 P12 1.615826 1_555
O38 V2 1.827770 1_555
O39 P8 1.575126 1_555
O39 V3 1.863474 1_555
O40 P12 1.574738 1_555
O40 V1 1.958056 1_555
O41 P12 1.481138 1_555
O42 P11 1.488606 1_555
O43 P11 1.560632 1_555
O43 V4 1.993805 1_545
O44 P14 1.536944 1_555
O44 V2 1.905489 1_555
O45 P11 1.610915 1_555
O45 V3 1.866028 1_555
O46 P10 1.543532 1_555
O46 V4 1.889596 1_545
O47 P13 1.603724 1_565
O47 P0 1.626711 1_555
O48 P0 1.496994 1_545
O49 P13 1.536262 1_555
O49 V5 1.892051 1_555
O50 P12 1.547772 1_555
O50 V5 1.910537 1_555
O51 P15 1.531094 1_555
O51 V4 1.940128 1_545
O52 P15 1.573437 1_555
O52 V3 1.942273 1_555
O53 P7 1.488439 1_555
O54 P7 1.611119 1_555
O54 P14 1.618069 1_655
O55 P14 1.542707 1_555
O55 V5 2.025378 1_555
O56 P2 1.501681 1_555
O57 P2 1.605764 1_545
O57 P15 1.633778 1_555
