# generated using pymatgen
data_Ti2Fe4O9
_symmetry_space_group_name_H-M   'P 1'
_cell_length_a   5.14511200
_cell_length_b   5.51593287
_cell_length_c   11.66543599
_cell_angle_alpha   97.41181546
_cell_angle_beta   102.65347386
_cell_angle_gamma   91.13795417
_symmetry_Int_Tables_number   1
_chemical_formula_structural   Ti2Fe4O9
_chemical_formula_sum   'Ti4 Fe8 O18'
_cell_volume   319.93009435
_cell_formula_units_Z   2
loop_
 _symmetry_equiv_pos_site_id
 _symmetry_equiv_pos_as_xyz
  1  'x, y, z'
loop_
 _atom_site_type_symbol
 _atom_site_label
 _atom_site_symmetry_multiplicity
 _atom_site_fract_x
 _atom_site_fract_y
 _atom_site_fract_z
 _atom_site_occupancy
  Ti  Ti0  1  0.04763500  0.33429600  0.09701000  1
  Ti  Ti1  1  0.71991000  0.01006100  0.42679200  1
  Ti  Ti2  1  0.28009000  0.98993900  0.57320800  1
  Ti  Ti3  1  0.95236500  0.66570400  0.90299000  1
  Fe  Fe0  1  0.54996500  0.84191100  0.09648300  1
  Fe  Fe1  1  0.61843100  0.33238800  0.23636300  1
  Fe  Fe2  1  0.12163400  0.81659700  0.23629200  1
  Fe  Fe3  1  0.77926100  0.48904000  0.56797000  1
  Fe  Fe4  1  0.22073900  0.51096000  0.43203000  1
  Fe  Fe5  1  0.87836600  0.18340300  0.76370800  1
  Fe  Fe6  1  0.38156900  0.66761200  0.76363700  1
  Fe  Fe7  1  0.45003500  0.15808900  0.90351700  1
  O  O0  1  0.37876200  0.57670400  0.16741100  1
  O  O1  1  0.89887800  0.68337000  0.05907000  1
  O  O2  1  0.78967200  0.97287000  0.27386900  1
  O  O3  1  0.26158700  0.09200700  0.16651900  1
  O  O4  1  0.69898500  0.19075500  0.06951900  1
  O  O5  1  0.97667600  0.48604300  0.26177500  1
  O  O6  1  0.56032700  0.33593800  0.39558100  1
  O  O7  1  0.93891800  0.76999700  0.49813800  1
  O  O8  1  0.36611200  0.85877100  0.39768300  1
  O  O9  1  0.63388800  0.14122900  0.60231700  1
  O  O10  1  0.06108200  0.23000300  0.50186200  1
  O  O11  1  0.43967300  0.66406200  0.60441900  1
  O  O12  1  0.02332400  0.51395700  0.73822500  1
  O  O13  1  0.30101500  0.80924500  0.93048100  1
  O  O14  1  0.73841300  0.90799300  0.83348100  1
  O  O15  1  0.21032800  0.02713000  0.72613100  1
  O  O16  1  0.10112200  0.31663000  0.94093000  1
  O  O17  1  0.62123800  0.42329600  0.83258900  1
loop_
_geom_bond_atom_site_label_1
_geom_bond_atom_site_label_2
_geom_bond_distance
_geom_bond_site_symmetry_2
Fe0 O0 2.044722 1_555
Fe0 O13 2.058450 1_554
Fe0 O1 2.117806 1_555
Fe0 O4 2.143027 1_565
Fe0 O2 2.187623 1_555
Fe0 O3 2.256905 1_565
Fe1 O6 1.942577 1_555
Fe1 O5 1.958925 1_555
Fe1 O0 1.973529 1_555
Fe1 O4 2.131712 1_555
Fe1 O3 2.182209 1_555
Fe1 O2 2.241572 1_545
Fe2 O8 2.004683 1_555
Fe2 O3 2.005274 1_565
Fe2 O2 2.035039 1_455
Fe2 O5 2.037660 1_455
Fe2 O0 2.099462 1_555
Fe2 O1 2.159661 1_455
Fe3 O7 2.075670 1_555
Fe3 O12 2.090554 1_655
Fe3 O11 2.110010 1_555
Fe3 O6 2.134893 1_555
Fe3 O9 2.161771 1_555
Fe3 O10 2.242025 1_655
Fe4 O10 2.075670 1_555
Fe4 O5 2.090554 1_455
Fe4 O6 2.110010 1_555
Fe4 O11 2.134893 1_555
Fe4 O8 2.161771 1_555
Fe4 O7 2.242025 1_455
Fe5 O9 2.004683 1_555
Fe5 O14 2.005274 1_545
Fe5 O15 2.035039 1_655
Fe5 O12 2.037660 1_655
Fe5 O17 2.099462 1_555
Fe5 O16 2.159661 1_655
Fe6 O11 1.942577 1_555
Fe6 O12 1.958925 1_555
Fe6 O17 1.973529 1_555
Fe6 O13 2.131712 1_555
Fe6 O14 2.182209 1_555
Fe6 O15 2.241572 1_565
Fe7 O17 2.044722 1_555
Fe7 O4 2.058450 1_556
Fe7 O16 2.117806 1_555
Fe7 O13 2.143027 1_545
Fe7 O15 2.187623 1_555
Fe7 O14 2.256905 1_545
O0 Ti0 2.092387 1_555
O1 Ti3 1.890803 1_554
O1 Ti0 2.149209 1_655
O2 Ti1 1.882098 1_565
O3 Ti0 1.897979 1_555
O4 Ti0 1.890410 1_655
O5 Ti0 2.105398 1_655
O6 Ti1 2.033294 1_555
O7 Ti1 1.910130 1_565
O7 Ti2 2.070718 1_655
O8 Ti1 1.929004 1_565
O8 Ti2 2.222490 1_555
O9 Ti2 1.929004 1_545
O9 Ti1 2.222490 1_555
O10 Ti2 1.910130 1_545
O10 Ti1 2.070718 1_455
O11 Ti2 2.033294 1_555
O12 Ti3 2.105398 1_455
O13 Ti3 1.890410 1_455
O14 Ti3 1.897979 1_555
O15 Ti2 1.882098 1_545
O16 Ti0 1.890803 1_556
O16 Ti3 2.149209 1_455
O17 Ti3 2.092387 1_555
