# generated using pymatgen
data_Ti3Fe2Cu(PO4)6
_symmetry_space_group_name_H-M   'P 1'
_cell_length_a   8.52973611
_cell_length_b   8.52973611
_cell_length_c   8.52973536
_cell_angle_alpha   61.18826570
_cell_angle_beta   61.18826570
_cell_angle_gamma   61.18826405
_symmetry_Int_Tables_number   1
_chemical_formula_structural   Ti3Fe2Cu(PO4)6
_chemical_formula_sum   'Ti3 Fe2 Cu1 P6 O24'
_cell_volume   450.55572821
_cell_formula_units_Z   1
loop_
 _symmetry_equiv_pos_site_id
 _symmetry_equiv_pos_as_xyz
  1  'x, y, z'
loop_
 _atom_site_type_symbol
 _atom_site_label
 _atom_site_symmetry_multiplicity
 _atom_site_fract_x
 _atom_site_fract_y
 _atom_site_fract_z
 _atom_site_occupancy
  Ti  Ti0  1  0.85779700  0.85779700  0.85779700  1
  Ti  Ti1  1  0.64468600  0.64468600  0.64468600  1
  Ti  Ti2  1  0.35482600  0.35482600  0.35482600  1
  Fe  Fe0  1  0.00369300  0.00369300  0.00369300  1
  Fe  Fe1  1  0.50116600  0.50116600  0.50116600  1
  Cu  Cu0  1  0.14515600  0.14515600  0.14515600  1
  P  P0  1  0.95440500  0.24793800  0.54254600  1
  P  P1  1  0.54254600  0.95440500  0.24793800  1
  P  P2  1  0.74937700  0.45670200  0.04439500  1
  P  P3  1  0.45670200  0.04439500  0.74937700  1
  P  P4  1  0.04439500  0.74937700  0.45670200  1
  P  P5  1  0.24793800  0.54254600  0.95440500  1
  O  O0  1  0.88590300  0.67333500  0.51280000  1
  O  O1  1  0.67333500  0.51280000  0.88590300  1
  O  O2  1  0.94221400  0.09019100  0.74210200  1
  O  O3  1  0.51280000  0.88590300  0.67333500  1
  O  O4  1  0.98152800  0.18631200  0.39178700  1
  O  O5  1  0.75946400  0.41126900  0.56770500  1
  O  O6  1  0.74210200  0.94221400  0.09019100  1
  O  O7  1  0.56770500  0.75946400  0.41126900  1
  O  O8  1  0.81470200  0.62006300  0.99805500  1
  O  O9  1  0.41126900  0.56770500  0.75946400  1
  O  O10  1  0.90311700  0.26436700  0.05132200  1
  O  O11  1  0.62006300  0.99805500  0.81470200  1
  O  O12  1  0.39178700  0.98152800  0.18631200  1
  O  O13  1  0.09019100  0.74210200  0.94221400  1
  O  O14  1  0.58650500  0.44762300  0.23864100  1
  O  O15  1  0.18631200  0.39178700  0.98152800  1
  O  O16  1  0.44762300  0.23864100  0.58650500  1
  O  O17  1  0.26436700  0.05132200  0.90311700  1
  O  O18  1  0.23864100  0.58650500  0.44762300  1
  O  O19  1  0.99805500  0.81470200  0.62006300  1
  O  O20  1  0.49606600  0.11992600  0.31231700  1
  O  O21  1  0.05132200  0.90311700  0.26436700  1
  O  O22  1  0.31231700  0.49606600  0.11992600  1
  O  O23  1  0.11992600  0.31231700  0.49606600  1
loop_
_geom_bond_atom_site_label_1
_geom_bond_atom_site_label_2
_geom_bond_distance
_geom_bond_site_symmetry_2
Fe0 O21 2.130976 1_545
Fe0 O10 2.130976 1_455
Fe0 O17 2.130976 1_554
Fe0 O2 2.228490 1_454
Fe0 O13 2.228491 1_544
Fe0 O6 2.228491 1_445
Fe1 O14 2.201583 1_555
Fe1 O18 2.201583 1_555
Fe1 O16 2.201583 1_555
Fe1 O9 2.218484 1_555
Fe1 O5 2.218485 1_555
Fe1 O7 2.218485 1_555
Cu0 O4 1.976432 1_455
Cu0 O12 1.976432 1_545
Cu0 O15 1.976432 1_554
Cu0 O17 2.172938 1_554
Cu0 O10 2.172938 1_455
Cu0 O21 2.172938 1_545
O0 P4 1.549132 1_655
O0 Ti1 1.883426 1_555
O1 P2 1.549132 1_556
O1 Ti1 1.883426 1_555
O2 P0 1.573318 1_555
O2 Ti0 2.055979 1_545
O3 P3 1.549132 1_565
O3 Ti1 1.883426 1_555
O4 P0 1.493661 1_555
O5 P0 1.569472 1_555
O5 Ti1 2.028633 1_555
O6 P1 1.573318 1_555
O6 Ti0 2.055978 1_554
O7 P1 1.569472 1_555
O7 Ti1 2.028633 1_555
O8 P2 1.553563 1_556
O8 Ti0 1.906480 1_555
O9 P5 1.569472 1_555
O9 Ti1 2.028633 1_555
O10 P2 1.523887 1_555
O11 P3 1.553563 1_565
O11 Ti0 1.906480 1_555
O12 P1 1.493661 1_555
O13 P5 1.573318 1_555
O13 Ti0 2.055979 1_455
O14 P2 1.562889 1_555
O14 Ti2 2.092319 1_555
O15 P5 1.493661 1_555
O16 P3 1.562889 1_555
O16 Ti2 2.092319 1_555
O17 P3 1.523887 1_555
O18 P4 1.562889 1_555
O18 Ti2 2.092319 1_555
O19 P4 1.553563 1_655
O19 Ti0 1.906479 1_555
O20 P1 1.565239 1_545
O20 Ti2 1.884142 1_555
O21 P4 1.523887 1_555
O22 P5 1.565239 1_554
O22 Ti2 1.884142 1_555
O23 P0 1.565239 1_455
O23 Ti2 1.884142 1_555
