# generated using pymatgen
data_CrH12Pd(NO)4
_symmetry_space_group_name_H-M   'P 1'
_cell_length_a   9.27029009
_cell_length_b   9.27029009
_cell_length_c   9.27029009
_cell_angle_alpha   133.03218000
_cell_angle_beta   133.03218000
_cell_angle_gamma   68.60361560
_symmetry_Int_Tables_number   1
_chemical_formula_structural   CrH12Pd(NO)4
_chemical_formula_sum   'Cr2 H24 Pd2 N8 O8'
_cell_volume   418.02332282
_cell_formula_units_Z   2
loop_
 _symmetry_equiv_pos_site_id
 _symmetry_equiv_pos_as_xyz
  1  'x, y, z'
loop_
 _atom_site_type_symbol
 _atom_site_label
 _atom_site_symmetry_multiplicity
 _atom_site_fract_x
 _atom_site_fract_y
 _atom_site_fract_z
 _atom_site_occupancy
  Cr  Cr0  1  0.75000000  0.25000000  0.50000000  1
  Cr  Cr1  1  0.00000000  0.00000000  0.00000000  1
  H  H0  1  0.18346500  0.36773400  0.18426900  1
  H  H1  1  0.11773400  0.43346500  0.68426900  1
  H  H2  1  0.74919500  0.43346500  0.31573100  1
  H  H3  1  0.18346500  0.99919500  0.81573100  1
  H  H4  1  0.56653500  0.88226600  0.31573100  1
  H  H5  1  0.63226600  0.81653500  0.81573100  1
  H  H6  1  0.00080500  0.81653500  0.18426900  1
  H  H7  1  0.56653500  0.25080500  0.68426900  1
  H  H8  1  0.39086800  0.44256200  0.27744300  1
  H  H9  1  0.16511900  0.44256200  0.05169400  1
  H  H10  1  0.19256200  0.64086800  0.77744300  1
  H  H11  1  0.86342500  0.64086800  0.44830600  1
  H  H12  1  0.39086800  0.11342500  0.94830600  1
  H  H13  1  0.16511900  0.11342500  0.72255700  1
  H  H14  1  0.19256200  0.41511900  0.55169400  1
  H  H15  1  0.86342500  0.41511900  0.22255700  1
  H  H16  1  0.35913200  0.80743800  0.22255700  1
  H  H17  1  0.58488100  0.80743800  0.44830600  1
  H  H18  1  0.55743800  0.60913200  0.72255700  1
  H  H19  1  0.88657500  0.60913200  0.05169400  1
  H  H20  1  0.35913200  0.13657500  0.55169400  1
  H  H21  1  0.58488100  0.13657500  0.77744300  1
  H  H22  1  0.55743800  0.83488100  0.94830600  1
  H  H23  1  0.88657500  0.83488100  0.27744300  1
  Pd  Pd0  1  0.50000000  0.50000000  0.00000000  1
  Pd  Pd1  1  0.25000000  0.75000000  0.50000000  1
  N  N0  1  0.24887200  0.46992800  0.22105700  1
  N  N1  1  0.21992800  0.49887200  0.72105700  1
  N  N2  1  0.77781500  0.49887200  0.27894300  1
  N  N3  1  0.24887200  0.02781500  0.77894300  1
  N  N4  1  0.50112800  0.78007200  0.27894300  1
  N  N5  1  0.53007200  0.75112800  0.77894300  1
  N  N6  1  0.97218500  0.75112800  0.22105700  1
  N  N7  1  0.50112800  0.22218500  0.72105700  1
  O  O0  1  0.06235900  0.24786200  0.18550300  1
  O  O1  1  0.99786200  0.31235900  0.68550300  1
  O  O2  1  0.62685700  0.31235900  0.31449700  1
  O  O3  1  0.06235900  0.87685700  0.81449700  1
  O  O4  1  0.68764100  0.00213800  0.31449700  1
  O  O5  1  0.75213800  0.93764100  0.81449700  1
  O  O6  1  0.12314300  0.93764100  0.18550300  1
  O  O7  1  0.68764100  0.37314300  0.68550300  1
loop_
_geom_bond_atom_site_label_1
_geom_bond_atom_site_label_2
_geom_bond_distance
_geom_bond_site_symmetry_2
Cr0 O4 1.670507 1_555
Cr0 O1 1.670507 1_555
Cr0 O2 1.670508 1_555
Cr0 O7 1.670508 1_555
Cr1 O0 1.670507 1_555
Cr1 O5 1.670507 1_444
Cr1 O3 1.670508 1_544
Cr1 O6 1.670508 1_545
H0 N0 1.037983 1_555
H1 N1 1.037983 1_555
H2 N2 1.037998 1_555
H3 N3 1.037998 1_565
H4 N4 1.037983 1_555
H5 N5 1.037983 1_555
H6 N6 1.037998 1_455
H7 N7 1.037998 1_555
H8 N0 1.033724 1_555
H9 N0 1.033730 1_555
H10 N1 1.033724 1_555
H11 N2 1.033725 1_555
H12 N3 1.033725 1_555
H13 N3 1.033725 1_555
H14 N1 1.033730 1_555
H15 N2 1.033725 1_555
H16 N4 1.033724 1_555
H17 N4 1.033730 1_555
H18 N5 1.033724 1_555
H19 N6 1.033725 1_555
H20 N7 1.033725 1_555
H21 N7 1.033725 1_555
H22 N5 1.033730 1_555
H23 N6 1.033725 1_555
N0 Pd1 2.060981 1_555
N1 Pd0 2.060981 1_556
N2 Pd0 2.060977 1_555
N3 Pd1 2.060977 1_545
N4 Pd0 2.060981 1_555
N5 Pd1 2.060981 1_555
N6 Pd1 2.060977 1_655
N7 Pd0 2.060977 1_556
