# generated using pymatgen
data_LuWO4
_symmetry_space_group_name_H-M   'P 1'
_cell_length_a   6.53928838
_cell_length_b   6.53928838
_cell_length_c   6.53928838
_cell_angle_alpha   133.33894046
_cell_angle_beta   133.33894046
_cell_angle_gamma   68.12236161
_symmetry_Int_Tables_number   1
_chemical_formula_structural   LuWO4
_chemical_formula_sum   'Lu2 W2 O8'
_cell_volume   145.33803819
_cell_formula_units_Z   2
loop_
 _symmetry_equiv_pos_site_id
 _symmetry_equiv_pos_as_xyz
  1  'x, y, z'
loop_
 _atom_site_type_symbol
 _atom_site_label
 _atom_site_symmetry_multiplicity
 _atom_site_fract_x
 _atom_site_fract_y
 _atom_site_fract_z
 _atom_site_occupancy
  Lu  Lu0  1  0.25000000  0.75000000  0.50000000  1
  Lu  Lu1  1  0.50000000  0.50000000  0.00000000  1
  W  W0  1  0.00000000  0.00000000  0.00000000  1
  W  W1  1  0.75000000  0.25000000  0.50000000  1
  O  O0  1  0.09355400  0.53380700  0.94916100  1
  O  O1  1  0.89439300  0.34355400  0.05974700  1
  O  O2  1  0.28380700  0.83464500  0.94025300  1
  O  O3  1  0.16535500  0.10560700  0.44916100  1
  O  O4  1  0.58464500  0.14439300  0.05083900  1
  O  O5  1  0.46619300  0.41535500  0.55974700  1
  O  O6  1  0.85560700  0.90644600  0.44025300  1
  O  O7  1  0.65644600  0.71619300  0.55083900  1
loop_
_geom_bond_atom_site_label_1
_geom_bond_atom_site_label_2
_geom_bond_distance
_geom_bond_site_symmetry_2
Lu0 O5 2.247207 1_555
Lu0 O4 2.247211 1_566
Lu0 O0 2.247213 1_554
Lu0 O6 2.247213 1_455
Lu0 O1 2.381969 1_455
Lu0 O7 2.381969 1_555
Lu0 O3 2.381970 1_565
Lu0 O2 2.381973 1_555
Lu1 O2 2.247207 1_554
Lu1 O3 2.247211 1_554
Lu1 O7 2.247213 1_555
Lu1 O1 2.247213 1_555
Lu1 O6 2.381969 1_555
Lu1 O0 2.381969 1_554
Lu1 O4 2.381970 1_555
Lu1 O5 2.381973 1_554
O0 W1 1.919911 1_455
O1 W0 1.919911 1_655
O2 W0 1.919912 1_566
O3 W0 1.919909 1_555
O4 W1 1.919909 1_555
O5 W1 1.919912 1_555
O6 W1 1.919911 1_565
O7 W0 1.919911 1_666
