# generated using pymatgen
data_Li2Co3NiO8
_symmetry_space_group_name_H-M   'P 1'
_cell_length_a   8.04217200
_cell_length_b   8.04217200
_cell_length_c   8.04217200
_cell_angle_alpha   90.00000000
_cell_angle_beta   90.00000000
_cell_angle_gamma   90.00000000
_symmetry_Int_Tables_number   1
_chemical_formula_structural   Li2Co3NiO8
_chemical_formula_sum   'Li8 Co12 Ni4 O32'
_cell_volume   520.13978246
_cell_formula_units_Z   4
loop_
 _symmetry_equiv_pos_site_id
 _symmetry_equiv_pos_as_xyz
  1  'x, y, z'
loop_
 _atom_site_type_symbol
 _atom_site_label
 _atom_site_symmetry_multiplicity
 _atom_site_fract_x
 _atom_site_fract_y
 _atom_site_fract_z
 _atom_site_occupancy
  Li  Li0  1  0.00201200  0.00201200  0.00201200  1
  Li  Li1  1  0.24798800  0.24798800  0.24798800  1
  Li  Li2  1  0.25201200  0.75201200  0.74798800  1
  Li  Li3  1  0.49798800  0.99798800  0.50201200  1
  Li  Li4  1  0.50201200  0.49798800  0.99798800  1
  Li  Li5  1  0.74798800  0.25201200  0.75201200  1
  Li  Li6  1  0.75201200  0.74798800  0.25201200  1
  Li  Li7  1  0.99798800  0.50201200  0.49798800  1
  Co  Co0  1  0.12253700  0.12746300  0.62500000  1
  Co  Co1  1  0.12500000  0.37746300  0.87253700  1
  Co  Co2  1  0.12746300  0.62500000  0.12253700  1
  Co  Co3  1  0.37253700  0.37500000  0.62253700  1
  Co  Co4  1  0.37500000  0.62253700  0.37253700  1
  Co  Co5  1  0.37746300  0.87253700  0.12500000  1
  Co  Co6  1  0.62253700  0.37253700  0.37500000  1
  Co  Co7  1  0.62500000  0.12253700  0.12746300  1
  Co  Co8  1  0.62746300  0.87500000  0.87746300  1
  Co  Co9  1  0.87253700  0.12500000  0.37746300  1
  Co  Co10  1  0.87500000  0.87746300  0.62746300  1
  Co  Co11  1  0.87746300  0.62746300  0.87500000  1
  Ni  Ni0  1  0.12500000  0.87500000  0.37500000  1
  Ni  Ni1  1  0.37500000  0.12500000  0.87500000  1
  Ni  Ni2  1  0.62500000  0.62500000  0.62500000  1
  Ni  Ni3  1  0.87500000  0.37500000  0.12500000  1
  O  O0  1  0.11441800  0.11058900  0.38951500  1
  O  O1  1  0.11048500  0.88558200  0.61058900  1
  O  O2  1  0.11335700  0.61335700  0.88664300  1
  O  O3  1  0.13941100  0.13558200  0.86048500  1
  O  O4  1  0.11058900  0.38951500  0.11441800  1
  O  O5  1  0.13664300  0.36335700  0.63664300  1
  O  O6  1  0.13951500  0.63941100  0.36441800  1
  O  O7  1  0.13558200  0.86048500  0.13941100  1
  O  O8  1  0.36441800  0.13951500  0.63941100  1
  O  O9  1  0.36048500  0.36058900  0.86441800  1
  O  O10  1  0.36335700  0.63664300  0.13664300  1
  O  O11  1  0.38941100  0.61048500  0.61441800  1
  O  O12  1  0.36058900  0.86441800  0.36048500  1
  O  O13  1  0.38664300  0.38664300  0.38664300  1
  O  O14  1  0.38951500  0.11441800  0.11058900  1
  O  O15  1  0.38558200  0.88941100  0.88951500  1
  O  O16  1  0.61441800  0.38941100  0.61048500  1
  O  O17  1  0.61048500  0.61441800  0.38941100  1
  O  O18  1  0.61335700  0.88664300  0.11335700  1
  O  O19  1  0.63941100  0.36441800  0.13951500  1
  O  O20  1  0.61058900  0.11048500  0.88558200  1
  O  O21  1  0.63664300  0.13664300  0.36335700  1
  O  O22  1  0.63951500  0.86058900  0.63558200  1
  O  O23  1  0.63558200  0.63951500  0.86058900  1
  O  O24  1  0.86441800  0.36048500  0.36058900  1
  O  O25  1  0.86048500  0.13941100  0.13558200  1
  O  O26  1  0.86335700  0.86335700  0.86335700  1
  O  O27  1  0.88941100  0.88951500  0.38558200  1
  O  O28  1  0.86058900  0.63558200  0.63951500  1
  O  O29  1  0.88664300  0.11335700  0.61335700  1
  O  O30  1  0.88951500  0.38558200  0.88941100  1
  O  O31  1  0.88558200  0.61058900  0.11048500  1
loop_
_geom_bond_atom_site_label_1
_geom_bond_atom_site_label_2
_geom_bond_distance
_geom_bond_site_symmetry_2
Li0 O25 1.915816 1_455
Li0 O3 1.915816 1_554
Li0 O7 1.915816 1_545
Li0 O26 1.931388 1_444
Li1 O0 1.915816 1_555
Li1 O14 1.915816 1_555
Li1 O4 1.915816 1_555
Li1 O13 1.931388 1_555
Li2 O15 1.915816 1_555
Li2 O11 1.915816 1_555
Li2 O1 1.915816 1_555
Li2 O2 1.931388 1_555
Li3 O22 1.915816 1_555
Li3 O12 1.915816 1_555
Li3 O8 1.915816 1_565
Li3 O21 1.931388 1_565
Li4 O23 1.915816 1_555
Li4 O19 1.915816 1_556
Li4 O9 1.915816 1_555
Li4 O10 1.931388 1_556
Li5 O30 1.915816 1_555
Li5 O16 1.915816 1_555
Li5 O20 1.915816 1_555
Li5 O29 1.931388 1_555
Li6 O27 1.915816 1_555
Li6 O31 1.915816 1_555
Li6 O17 1.915816 1_555
Li6 O18 1.931388 1_555
Li7 O28 1.915816 1_555
Li7 O6 1.915816 1_655
Li7 O24 1.915816 1_555
Li7 O5 1.931388 1_655
Co0 O3 1.899789 1_555
Co0 O0 1.899789 1_555
Co0 O5 1.902794 1_555
Co0 O29 1.902794 1_455
Co0 O8 1.951107 1_555
Co0 O1 1.951107 1_545
Co1 O9 1.899789 1_555
Co1 O30 1.899789 1_455
Co1 O2 1.902794 1_555
Co1 O5 1.902794 1_555
Co1 O4 1.951107 1_556
Co1 O3 1.951107 1_555
Co2 O7 1.899789 1_555
Co2 O4 1.899789 1_555
Co2 O10 1.902794 1_555
Co2 O2 1.902794 1_554
Co2 O6 1.951107 1_555
Co2 O31 1.951107 1_455
Co3 O11 1.899789 1_555
Co3 O8 1.899789 1_555
Co3 O5 1.902794 1_555
Co3 O13 1.902794 1_555
Co3 O9 1.951107 1_555
Co3 O16 1.951107 1_555
Co4 O17 1.899789 1_555
Co4 O6 1.899789 1_555
Co4 O10 1.902794 1_555
Co4 O13 1.902794 1_555
Co4 O12 1.951107 1_555
Co4 O11 1.951107 1_555
Co5 O12 1.899789 1_555
Co5 O15 1.899789 1_554
Co5 O18 1.902794 1_555
Co5 O10 1.902794 1_555
Co5 O14 1.951107 1_565
Co5 O7 1.951107 1_555
Co6 O16 1.899789 1_555
Co6 O19 1.899789 1_555
Co6 O21 1.902794 1_555
Co6 O13 1.902794 1_555
Co6 O24 1.951107 1_555
Co6 O17 1.951107 1_555
Co7 O25 1.899789 1_555
Co7 O14 1.899789 1_555
Co7 O21 1.902794 1_555
Co7 O18 1.902794 1_545
Co7 O19 1.951107 1_555
Co7 O20 1.951107 1_554
Co8 O20 1.899789 1_565
Co8 O23 1.899789 1_555
Co8 O26 1.902794 1_555
Co8 O18 1.902794 1_556
Co8 O15 1.951107 1_555
Co8 O22 1.951107 1_555
Co9 O24 1.899789 1_555
Co9 O27 1.899789 1_545
Co9 O29 1.902794 1_555
Co9 O21 1.902794 1_555
Co9 O0 1.951107 1_655
Co9 O25 1.951107 1_555
Co10 O1 1.899789 1_655
Co10 O22 1.899789 1_555
Co10 O26 1.902794 1_555
Co10 O29 1.902794 1_565
Co10 O27 1.951107 1_555
Co10 O28 1.951107 1_555
Co11 O31 1.899789 1_556
Co11 O28 1.899789 1_555
Co11 O26 1.902794 1_555
Co11 O2 1.902794 1_655
Co11 O30 1.951107 1_555
Co11 O23 1.951107 1_555
Ni0 O0 1.900147 1_565
Ni0 O1 1.900147 1_555
Ni0 O7 1.900147 1_555
Ni0 O12 1.900147 1_555
Ni0 O27 1.900147 1_455
Ni0 O6 1.900147 1_555
Ni1 O14 1.900147 1_556
Ni1 O20 1.900147 1_555
Ni1 O3 1.900147 1_555
Ni1 O9 1.900147 1_555
Ni1 O15 1.900147 1_545
Ni1 O8 1.900147 1_555
Ni2 O28 1.900147 1_555
Ni2 O22 1.900147 1_555
Ni2 O23 1.900147 1_555
Ni2 O17 1.900147 1_555
Ni2 O16 1.900147 1_555
Ni2 O11 1.900147 1_555
Ni3 O4 1.900147 1_655
Ni3 O31 1.900147 1_555
Ni3 O25 1.900147 1_555
Ni3 O30 1.900147 1_554
Ni3 O24 1.900147 1_555
Ni3 O19 1.900147 1_555
