# generated using pymatgen
data_Li4Ni3SbO8
_symmetry_space_group_name_H-M   'P 1'
_cell_length_a   5.98462998
_cell_length_b   5.98462998
_cell_length_c   5.98463033
_cell_angle_alpha   59.97152309
_cell_angle_beta   59.97152309
_cell_angle_gamma   59.97152488
_symmetry_Int_Tables_number   1
_chemical_formula_structural   Li4Ni3SbO8
_chemical_formula_sum   'Li4 Ni3 Sb1 O8'
_cell_volume   151.46643536
_cell_formula_units_Z   1
loop_
 _symmetry_equiv_pos_site_id
 _symmetry_equiv_pos_as_xyz
  1  'x, y, z'
loop_
 _atom_site_type_symbol
 _atom_site_label
 _atom_site_symmetry_multiplicity
 _atom_site_fract_x
 _atom_site_fract_y
 _atom_site_fract_z
 _atom_site_occupancy
  Li  Li0  1  0.50000000  0.50000000  0.50000000  1
  Li  Li1  1  0.50000000  0.00000000  0.00000000  1
  Li  Li2  1  0.00000000  0.50000000  0.00000000  1
  Li  Li3  1  0.00000000  0.00000000  0.50000000  1
  Ni  Ni0  1  0.00000000  0.50000000  0.50000000  1
  Ni  Ni1  1  0.50000000  0.00000000  0.50000000  1
  Ni  Ni2  1  0.50000000  0.50000000  0.00000000  1
  Sb  Sb0  1  0.00000000  0.00000000  0.00000000  1
  O  O0  1  0.26272100  0.26272100  0.26272100  1
  O  O1  1  0.24080100  0.76184500  0.76184500  1
  O  O2  1  0.76184500  0.24080100  0.76184500  1
  O  O3  1  0.73727900  0.73727900  0.73727900  1
  O  O4  1  0.76184500  0.76184500  0.24080100  1
  O  O5  1  0.75919900  0.23815500  0.23815500  1
  O  O6  1  0.23815500  0.75919900  0.23815500  1
  O  O7  1  0.23815500  0.23815500  0.75919900  1
loop_
_geom_bond_atom_site_label_1
_geom_bond_atom_site_label_2
_geom_bond_distance
_geom_bond_site_symmetry_2
Li0 O4 2.215726 1_555
Li0 O7 2.215726 1_555
Li0 O1 2.215726 1_555
Li0 O2 2.215726 1_555
Li0 O5 2.215726 1_555
Li0 O6 2.215726 1_555
Li1 O2 2.129064 1_554
Li1 O6 2.129064 1_545
Li1 O4 2.129064 1_545
Li1 O7 2.129064 1_554
Li1 O3 2.228373 1_544
Li1 O0 2.228373 1_555
Li2 O1 2.129064 1_554
Li2 O5 2.129064 1_455
Li2 O4 2.129064 1_455
Li2 O7 2.129064 1_554
Li2 O3 2.228373 1_454
Li2 O0 2.228373 1_555
Li3 O2 2.129064 1_455
Li3 O1 2.129064 1_545
Li3 O5 2.129064 1_455
Li3 O6 2.129064 1_545
Li3 O0 2.228373 1_555
Li3 O3 2.228373 1_445
Ni0 O3 2.013462 1_455
Ni0 O0 2.013462 1_555
Ni0 O6 2.106604 1_555
Ni0 O2 2.106604 1_455
Ni0 O7 2.106604 1_555
Ni0 O4 2.106604 1_455
Ni1 O0 2.013462 1_555
Ni1 O3 2.013462 1_545
Ni1 O5 2.106604 1_555
Ni1 O1 2.106604 1_545
Ni1 O7 2.106604 1_555
Ni1 O4 2.106604 1_545
Ni2 O0 2.013462 1_555
Ni2 O3 2.013462 1_554
Ni2 O6 2.106604 1_555
Ni2 O5 2.106604 1_555
Ni2 O1 2.106604 1_554
Ni2 O2 2.106604 1_554
O1 Sb0 2.015254 1_566
O2 Sb0 2.015254 1_656
O4 Sb0 2.015254 1_665
O5 Sb0 2.015254 1_655
O6 Sb0 2.015254 1_565
O7 Sb0 2.015254 1_556
