# generated using pymatgen
data_Na4Sb2C4SO16
_symmetry_space_group_name_H-M   'P 1'
_cell_length_a   10.19855800
_cell_length_b   10.21310037
_cell_length_c   17.68745463
_cell_angle_alpha   74.07741238
_cell_angle_beta   73.52811537
_cell_angle_gamma   60.82846427
_symmetry_Int_Tables_number   1
_chemical_formula_structural   Na4Sb2C4SO16
_chemical_formula_sum   'Na16 Sb8 C16 S4 O64'
_cell_volume   1522.09221221
_cell_formula_units_Z   4
loop_
 _symmetry_equiv_pos_site_id
 _symmetry_equiv_pos_as_xyz
  1  'x, y, z'
loop_
 _atom_site_type_symbol
 _atom_site_label
 _atom_site_symmetry_multiplicity
 _atom_site_fract_x
 _atom_site_fract_y
 _atom_site_fract_z
 _atom_site_occupancy
  Na  Na0  1  0.41456400  0.91384100  0.16415700  1
  Na  Na1  1  0.78427600  0.28483200  0.03483500  1
  Na  Na2  1  0.11856000  0.20083800  0.45953300  1
  Na  Na3  1  0.68948700  0.62225000  0.45997700  1
  Na  Na4  1  0.00284300  0.91548400  0.16564600  1
  Na  Na5  1  0.41574700  0.50331600  0.16527700  1
  Na  Na6  1  0.49882400  0.42242600  0.66071800  1
  Na  Na7  1  0.20988400  0.12131800  0.95984600  1
  Na  Na8  1  0.08831900  0.58691500  0.33950700  1
  Na  Na9  1  0.91313200  0.40788300  0.66855000  1
  Na  Na10  1  0.89323000  0.78473700  0.53505300  1
  Na  Na11  1  0.70107500  0.21821800  0.46024000  1
  Na  Na12  1  0.21204300  0.71229200  0.95804300  1
  Na  Na13  1  0.62132500  0.70955200  0.96159600  1
  Na  Na14  1  0.92015700  0.00416200  0.66601800  1
  Na  Na15  1  0.59018100  0.09207000  0.84006200  1
  Sb  Sb0  1  0.00566900  0.50666200  0.00005800  1
  Sb  Sb1  1  0.25205000  0.24131800  0.24662200  1
  Sb  Sb2  1  0.49144100  0.00759400  0.49986100  1
  Sb  Sb3  1  0.25124000  0.74901200  0.75021300  1
  Sb  Sb4  1  0.74999300  0.24959500  0.25568600  1
  Sb  Sb5  1  0.74024300  0.75303500  0.24761700  1
  Sb  Sb6  1  0.74956000  0.74086600  0.75239400  1
  Sb  Sb7  1  0.24401400  0.25216100  0.74796700  1
  C  C0  1  0.08255100  0.19352900  0.13509000  1
  C  C1  1  0.08821600  0.58288800  0.14114900  1
  C  C2  1  0.42243700  0.92350700  0.35744300  1
  C  C3  1  0.60890300  0.10894600  0.17111100  1
  C  C4  1  0.10635200  0.60945000  0.67155700  1
  C  C5  1  0.42056900  0.29708100  0.36033500  1
  C  C6  1  0.80021200  0.91948000  0.36108700  1
  C  C7  1  0.29781300  0.42250600  0.85945900  1
  C  C8  1  0.69042000  0.58002200  0.13795800  1
  C  C9  1  0.19081200  0.08476100  0.63799500  1
  C  C10  1  0.58990700  0.69230000  0.63682800  1
  C  C11  1  0.88878500  0.39387200  0.33560600  1
  C  C12  1  0.39050600  0.89263600  0.83535400  1
  C  C13  1  0.59079000  0.08030100  0.63967700  1
  C  C14  1  0.92087900  0.42060400  0.85948100  1
  C  C15  1  0.92232200  0.79783800  0.85997700  1
  S  S0  1  0.18345500  0.68851000  0.43746600  1
  S  S1  1  0.31235600  0.81225200  0.06247800  1
  S  S2  1  0.68784000  0.18769800  0.93745200  1
  S  S3  1  0.81198100  0.31226800  0.56258600  1
  O  O0  1  0.13243400  0.26011500  0.06856500  1
  O  O1  1  0.20768000  0.71767700  0.34761000  1
  O  O2  1  0.08555900  0.60118300  0.46589000  1
  O  O3  1  0.15956700  0.13374200  0.19397900  1
  O  O4  1  0.03976400  0.63301700  0.07284700  1
  O  O5  1  0.08968200  0.83663100  0.46895500  1
  O  O6  1  0.32832300  0.59854700  0.46734400  1
  O  O7  1  0.49010200  0.85580600  0.29470800  1
  O  O8  1  0.99287400  0.36111700  0.79442600  1
  O  O9  1  0.47734500  0.11236300  0.17528500  1
  O  O10  1  0.21218900  0.45820400  0.14984000  1
  O  O11  1  0.22629700  0.47965000  0.67590400  1
  O  O12  1  0.29787100  0.04979100  0.35403300  1
  O  O13  1  0.72978500  0.97898200  0.17374700  1
  O  O14  1  0.02375700  0.37525900  0.33694700  1
  O  O15  1  0.40108100  0.66359700  0.03229900  1
  O  O16  1  0.16391800  0.90046600  0.03296600  1
  O  O17  1  0.61935500  0.23277600  0.16616800  1
  O  O18  1  0.11171300  0.73215600  0.67525900  1
  O  O19  1  0.48233700  0.86721800  0.42145300  1
  O  O20  1  0.34847200  0.36702800  0.30074400  1
  O  O21  1  0.81279700  0.78886100  0.35627000  1
  O  O22  1  0.30970600  0.29074100  0.85784600  1
  O  O23  1  0.28228500  0.78301300  0.15197800  1
  O  O24  1  0.40256100  0.90174500  0.03291100  1
  O  O25  1  0.46514000  0.68199200  0.64614200  1
  O  O26  1  0.95758100  0.18114200  0.14416300  1
  O  O27  1  0.75550600  0.53227100  0.06950500  1
  O  O28  1  0.25680200  0.04014100  0.56875000  1
  O  O29  1  0.36207700  0.22911600  0.42395400  1
  O  O30  1  0.84910800  0.99644000  0.29788300  1
  O  O31  1  0.35438100  0.49276100  0.79657800  1
  O  O32  1  0.64114500  0.75876000  0.56982200  1
  O  O33  1  0.13455000  0.00616900  0.69496100  1
  O  O34  1  0.63229300  0.50431200  0.19612600  1
  O  O35  1  0.05429200  0.79368700  0.85377400  1
  O  O36  1  0.73792200  0.97352300  0.42788100  1
  O  O37  1  0.55318800  0.29007400  0.35731900  1
  O  O38  1  0.22682000  0.48663700  0.92324700  1
  O  O39  1  0.59736000  0.09775500  0.96565900  1
  O  O40  1  0.71713100  0.21614500  0.84763800  1
  O  O41  1  0.68098900  0.70771700  0.14661900  1
  O  O42  1  0.17797200  0.21262600  0.64835700  1
  O  O43  1  0.66919100  0.63115000  0.69505000  1
  O  O44  1  0.53964900  0.13244100  0.57283800  1
  O  O45  1  0.87011000  0.27534700  0.33639500  1
  O  O46  1  0.37256700  0.77563100  0.83562800  1
  O  O47  1  0.83614300  0.10080700  0.96797200  1
  O  O48  1  0.60076900  0.33632600  0.96844700  1
  O  O49  1  0.97730100  0.61866600  0.66524200  1
  O  O50  1  0.77318800  0.52681400  0.33556700  1
  O  O51  1  0.71740500  0.95489800  0.64624200  1
  O  O52  1  0.27656600  0.02632000  0.83636700  1
  O  O53  1  0.79597200  0.54815500  0.85660600  1
  O  O54  1  0.52746000  0.87447900  0.83611600  1
  O  O55  1  0.51788300  0.15424600  0.69962000  1
  O  O56  1  0.01274800  0.66160000  0.19904100  1
  O  O57  1  0.89973400  0.16347800  0.53228700  1
  O  O58  1  0.66360600  0.40024500  0.53308600  1
  O  O59  1  0.97278700  0.35812500  0.92569700  1
  O  O60  1  0.84434300  0.86842800  0.80240300  1
  O  O61  1  0.90219900  0.40159400  0.53315400  1
  O  O62  1  0.78161900  0.28264400  0.65205000  1
  O  O63  1  0.86854100  0.72682800  0.92427300  1
loop_
_geom_bond_atom_site_label_1
_geom_bond_atom_site_label_2
_geom_bond_distance
_geom_bond_site_symmetry_2
Na0 O23 2.394081 1_555
Na0 O24 2.398421 1_555
Na0 O7 2.467695 1_555
Na0 O9 2.472955 1_565
Na0 O41 2.492984 1_555
Na0 O3 2.502726 1_565
Na1 O48 2.259612 1_554
Na1 O47 2.259746 1_554
Na1 O17 2.546793 1_555
Na1 O59 2.547220 1_554
Na1 O27 2.621806 1_555
Na1 O26 2.640959 1_555
Na2 O57 2.390436 1_455
Na2 O28 2.441780 1_555
Na2 O12 2.469858 1_555
Na2 O61 2.488678 1_455
Na2 O14 2.489966 1_555
Na2 O29 2.522006 1_555
Na3 O58 2.379894 1_555
Na3 O50 2.412754 1_555
Na3 O19 2.432132 1_555
Na3 O32 2.496910 1_555
Na3 O61 2.585729 1_555
Na3 O21 2.628132 1_555
Na4 O16 2.448490 1_555
Na4 O56 2.453691 1_555
Na4 O26 2.455962 1_465
Na4 O23 2.457807 1_555
Na4 O13 2.502068 1_455
Na4 O30 2.515987 1_455
Na5 O34 2.425574 1_555
Na5 O10 2.433000 1_555
Na5 O15 2.466257 1_555
Na5 O23 2.467898 1_555
Na5 O20 2.513590 1_555
Na5 O17 2.519533 1_555
Na6 O58 2.393703 1_555
Na6 O25 2.449406 1_555
Na6 O11 2.493578 1_555
Na6 O62 2.497023 1_555
Na6 O31 2.523618 1_555
Na6 O55 2.556538 1_555
Na7 O52 2.418873 1_555
Na7 O0 2.423609 1_556
Na7 O16 2.463019 1_546
Na7 O24 2.472763 1_546
Na7 O22 2.499637 1_555
Na7 O59 2.527203 1_455
Na8 O1 2.252705 1_555
Na8 O2 2.271136 1_555
Na8 O21 2.539850 1_455
Na8 O20 2.560761 1_555
Na8 O14 2.562523 1_555
Na8 O56 2.611798 1_555
Na9 O62 2.370517 1_555
Na9 O8 2.431287 1_555
Na9 O42 2.447973 1_655
Na9 O61 2.448363 1_555
Na9 O43 2.450205 1_555
Na9 O49 2.519643 1_555
Na10 O5 2.242477 1_655
Na10 O2 2.274017 1_655
Na10 O49 2.544291 1_555
Na10 O36 2.557305 1_555
Na10 O32 2.595561 1_555
Na10 O51 2.634545 1_555
Na11 O58 2.367439 1_555
Na11 O37 2.423266 1_555
Na11 O57 2.451595 1_555
Na11 O44 2.456322 1_555
Na11 O45 2.499688 1_555
Na11 O36 2.541967 1_545
Na12 O16 2.408218 1_556
Na12 O15 2.414968 1_556
Na12 O46 2.457737 1_555
Na12 O38 2.469798 1_555
Na12 O35 2.493653 1_555
Na12 O4 2.515421 1_556
Na13 O24 2.432090 1_556
Na13 O15 2.437662 1_556
Na13 O27 2.442021 1_556
Na13 O63 2.499901 1_555
Na13 O54 2.502246 1_555
Na13 O53 2.505937 1_555
Na14 O33 2.393215 1_655
Na14 O62 2.457955 1_555
Na14 O57 2.474493 1_555
Na14 O51 2.484381 1_545
Na14 O18 2.490374 1_645
Na14 O60 2.547767 1_545
Na15 O40 2.256308 1_555
Na15 O39 2.260731 1_555
Na15 O60 2.542362 1_545
Na15 O22 2.565157 1_555
Na15 O55 2.614232 1_555
Na15 O54 2.617011 1_545
C0 O0 1.290178 1_555
C0 O26 1.302382 1_455
C0 O3 1.312305 1_555
C1 O10 1.295008 1_555
C1 O56 1.299491 1_555
C1 O4 1.310846 1_555
C2 O19 1.295470 1_555
C2 O12 1.297875 1_565
C2 O7 1.306575 1_555
C3 O17 1.297656 1_555
C3 O13 1.298948 1_545
C3 O9 1.306303 1_555
C4 O11 1.294691 1_555
C4 O18 1.300638 1_555
C4 O49 1.307814 1_455
C5 O20 1.294690 1_555
C5 O29 1.303196 1_555
C5 O37 1.305414 1_555
C6 O21 1.301000 1_555
C6 O36 1.301656 1_555
C6 O30 1.303862 1_555
C7 O31 1.298642 1_555
C7 O22 1.298651 1_555
C7 O38 1.306166 1_555
C8 O34 1.293184 1_555
C8 O27 1.302699 1_555
C8 O41 1.308639 1_555
C9 O33 1.290781 1_555
C9 O28 1.304024 1_555
C9 O42 1.306565 1_555
C10 O25 1.288229 1_555
C10 O32 1.300608 1_555
C10 O43 1.315816 1_555
C11 O50 1.293392 1_555
C11 O14 1.300944 1_655
C11 O45 1.309876 1_555
C12 O52 1.292173 1_565
C12 O46 1.292644 1_555
C12 O54 1.319940 1_555
C13 O44 1.298738 1_555
C13 O55 1.300832 1_555
C13 O51 1.308603 1_545
C14 O59 1.292813 1_555
C14 O8 1.304540 1_555
C14 O53 1.305756 1_555
C15 O60 1.298747 1_555
C15 O35 1.299415 1_655
C15 O63 1.304464 1_555
O0 Sb0 2.349644 1_555
O1 S0 1.505003 1_555
O2 S0 1.543500 1_555
O3 Sb1 2.243491 1_555
O4 Sb0 2.246479 1_555
O5 S0 1.504383 1_555
O6 S0 1.469467 1_555
O7 Sb5 2.228864 1_555
O8 Sb7 2.236814 1_655
O9 Sb1 2.218935 1_555
O10 Sb1 2.332059 1_555
O11 Sb7 2.269765 1_555
O12 Sb1 2.286338 1_555
O13 Sb5 2.286571 1_555
O14 Sb1 2.414404 1_555
O15 S1 1.496741 1_555
O16 S1 1.495467 1_555
O17 Sb4 2.424909 1_555
O18 Sb3 2.290402 1_555
O19 Sb2 2.298057 1_565
O20 Sb1 2.443507 1_555
O21 Sb5 2.414717 1_555
O22 Sb7 2.407718 1_555
O23 S1 1.497930 1_555
O24 S1 1.496604 1_555
O25 Sb3 2.360976 1_555
O26 Sb4 2.409856 1_555
O27 Sb0 2.415565 1_655
O28 Sb2 2.261593 1_555
O29 Sb2 2.256067 1_555
O30 Sb4 2.254973 1_565
O31 Sb3 2.292643 1_555
O32 Sb2 2.425742 1_565
O33 Sb3 2.339539 1_545
O34 Sb4 2.342539 1_555
O35 Sb3 2.253122 1_555
O36 Sb2 2.374107 1_565
O37 Sb4 2.232418 1_555
O38 Sb0 2.222528 1_556
O39 S2 1.502674 1_555
O40 S2 1.503162 1_555
O41 Sb5 2.260337 1_555
O42 Sb7 2.247036 1_555
O43 Sb6 2.224087 1_555
O44 Sb2 2.325444 1_555
O45 Sb4 2.262632 1_555
O46 Sb3 2.345378 1_555
O47 S2 1.502740 1_555
O48 S2 1.503247 1_555
O49 Sb6 2.351126 1_555
O50 Sb5 2.332056 1_555
O51 Sb6 2.410296 1_555
O52 Sb7 2.333281 1_555
O53 Sb6 2.256414 1_555
O54 Sb6 2.319274 1_555
O55 Sb7 2.434006 1_555
O56 Sb5 2.426948 1_455
O57 S3 1.498805 1_555
O58 S3 1.494811 1_555
O59 Sb0 2.446333 1_656
O60 Sb6 2.399781 1_555
O61 S3 1.495306 1_555
O62 S3 1.497385 1_555
O63 Sb0 2.269903 1_656
