# generated using pymatgen
data_Mn3SnO8
_symmetry_space_group_name_H-M   'P 1'
_cell_length_a   5.82641663
_cell_length_b   5.82641663
_cell_length_c   9.43078600
_cell_angle_alpha   90.00000000
_cell_angle_beta   90.00000000
_cell_angle_gamma   120.00000719
_symmetry_Int_Tables_number   1
_chemical_formula_structural   Mn3SnO8
_chemical_formula_sum   'Mn6 Sn2 O16'
_cell_volume   277.25638976
_cell_formula_units_Z   2
loop_
 _symmetry_equiv_pos_site_id
 _symmetry_equiv_pos_as_xyz
  1  'x, y, z'
loop_
 _atom_site_type_symbol
 _atom_site_label
 _atom_site_symmetry_multiplicity
 _atom_site_fract_x
 _atom_site_fract_y
 _atom_site_fract_z
 _atom_site_occupancy
  Mn  Mn0  1  0.16770600  0.83229400  0.21340900  1
  Mn  Mn1  1  0.16770600  0.33541300  0.21340900  1
  Mn  Mn2  1  0.66458700  0.83229400  0.21340900  1
  Mn  Mn3  1  0.33541300  0.16770600  0.71340900  1
  Mn  Mn4  1  0.83229400  0.66458700  0.71340900  1
  Mn  Mn5  1  0.83229400  0.16770600  0.71340900  1
  Sn  Sn0  1  0.33333300  0.66666700  0.49337000  1
  Sn  Sn1  1  0.66666700  0.33333300  0.99337000  1
  O  O0  1  0.15869600  0.84130400  0.60439300  1
  O  O1  1  0.03436400  0.51718200  0.32955000  1
  O  O2  1  0.33333300  0.66666700  0.10881800  1
  O  O3  1  0.00000000  0.00000000  0.31361200  1
  O  O4  1  0.00000000  0.00000000  0.81361200  1
  O  O5  1  0.15869600  0.31739200  0.60439300  1
  O  O6  1  0.48281800  0.96563600  0.32955000  1
  O  O7  1  0.48281800  0.51718200  0.32955000  1
  O  O8  1  0.31739200  0.15869600  0.10439300  1
  O  O9  1  0.68260800  0.84130400  0.60439300  1
  O  O10  1  0.51718200  0.48281800  0.82955000  1
  O  O11  1  0.51718200  0.03436400  0.82955000  1
  O  O12  1  0.66666700  0.33333300  0.60881800  1
  O  O13  1  0.84130400  0.68260800  0.10439300  1
  O  O14  1  0.96563600  0.48281800  0.82955000  1
  O  O15  1  0.84130400  0.15869600  0.10439300  1
loop_
_geom_bond_atom_site_label_1
_geom_bond_atom_site_label_2
_geom_bond_distance
_geom_bond_site_symmetry_2
Mn0 O1 1.935894 1_555
Mn0 O6 1.935894 1_555
Mn0 O3 1.938384 1_565
Mn0 O2 1.940794 1_555
Mn0 O8 1.943117 1_565
Mn0 O13 1.943117 1_455
Mn1 O1 1.935890 1_555
Mn1 O7 1.935894 1_555
Mn1 O3 1.938388 1_555
Mn1 O2 1.940794 1_555
Mn1 O15 1.943117 1_455
Mn1 O8 1.943122 1_555
Mn2 O6 1.935890 1_555
Mn2 O7 1.935894 1_555
Mn2 O3 1.938388 1_665
Mn2 O2 1.940794 1_555
Mn2 O15 1.943117 1_565
Mn2 O13 1.943122 1_555
Mn3 O11 1.935890 1_555
Mn3 O10 1.935894 1_555
Mn3 O4 1.938388 1_555
Mn3 O12 1.940794 1_555
Mn3 O0 1.943117 1_545
Mn3 O5 1.943122 1_555
Mn4 O14 1.935890 1_555
Mn4 O10 1.935894 1_555
Mn4 O4 1.938388 1_665
Mn4 O12 1.940794 1_555
Mn4 O0 1.943117 1_655
Mn4 O9 1.943122 1_555
Mn5 O11 1.935894 1_555
Mn5 O14 1.935894 1_555
Mn5 O4 1.938384 1_655
Mn5 O12 1.940794 1_555
Mn5 O5 1.943117 1_655
Mn5 O9 1.943117 1_545
O0 Sn0 2.049939 1_555
O1 Sn0 2.159302 1_555
O5 Sn0 2.049943 1_555
O6 Sn0 2.159302 1_555
O7 Sn0 2.159305 1_555
O8 Sn1 2.049943 1_554
O9 Sn0 2.049943 1_555
O10 Sn1 2.159305 1_555
O11 Sn1 2.159302 1_555
O13 Sn1 2.049943 1_554
O14 Sn1 2.159302 1_555
O15 Sn1 2.049939 1_554
