# generated using pymatgen
data_Li6Mn2OF11
_symmetry_space_group_name_H-M   'P 1'
_cell_length_a   5.07761340
_cell_length_b   5.52900363
_cell_length_c   8.86410315
_cell_angle_alpha   86.31260980
_cell_angle_beta   73.44532096
_cell_angle_gamma   116.94742507
_symmetry_Int_Tables_number   1
_chemical_formula_structural   Li6Mn2OF11
_chemical_formula_sum   'Li6 Mn2 O1 F11'
_cell_volume   207.11681960
_cell_formula_units_Z   1
loop_
 _symmetry_equiv_pos_site_id
 _symmetry_equiv_pos_as_xyz
  1  'x, y, z'
loop_
 _atom_site_type_symbol
 _atom_site_label
 _atom_site_symmetry_multiplicity
 _atom_site_fract_x
 _atom_site_fract_y
 _atom_site_fract_z
 _atom_site_occupancy
  Li  Li0  1  0.13943900  0.34499600  0.06366200  1
  Li  Li1  1  0.36088200  0.40737100  0.69430700  1
  Li  Li2  1  0.63930200  0.60001300  0.33050000  1
  Li  Li3  1  0.85821400  0.14397600  0.40296400  1
  Li  Li4  1  0.81684000  0.60675900  0.94122900  1
  Li  Li5  1  0.62494500  0.12463500  0.83228700  1
  Mn  Mn0  1  0.16990400  0.90176100  0.56777800  1
  Mn  Mn1  1  0.33694200  0.85867400  0.18046600  1
  O  O0  1  0.41020300  0.87221900  0.37989300  1
  F  F0  1  0.06641200  0.02364500  0.22256600  1
  F  F1  1  0.09160300  0.57375500  0.69025100  1
  F  F2  1  0.54921300  0.63690600  0.13757500  1
  F  F3  1  0.23823000  0.24970300  0.47378100  1
  F  F4  1  0.25362600  0.78930700  0.98306600  1
  F  F5  1  0.78740300  0.72543800  0.53346100  1
  F  F6  1  0.75182200  0.21427500  0.02472000  1
  F  F7  1  0.45827500  0.38180200  0.87405300  1
  F  F8  1  0.53936000  0.10243000  0.61483300  1
  F  F9  1  0.92983300  0.46598400  0.27851800  1
  F  F10  1  0.95988000  0.97077700  0.76483100  1
loop_
_geom_bond_atom_site_label_1
_geom_bond_atom_site_label_2
_geom_bond_distance
_geom_bond_site_symmetry_2
Li2 O0 2.278448 1_555
Li3 O0 2.163565 1_545
Mn0 O0 1.829405 1_555
Mn1 O0 1.906674 1_555
F0 Mn1 1.935303 1_545
F0 Li3 1.981968 1_455
F0 Li0 2.015359 1_555
F0 Li2 2.242819 1_445
F1 Mn0 1.863564 1_555
F1 Li1 1.969989 1_555
F1 Li4 2.333073 1_455
F1 Li5 2.435338 1_455
F2 Li2 1.913324 1_555
F2 Li4 1.948936 1_554
F2 Mn1 1.958055 1_555
F2 Li0 2.287480 1_555
F3 Mn0 1.881402 1_545
F3 Li2 2.036285 1_555
F3 Li3 2.043070 1_455
F3 Li1 2.321588 1_555
F4 Mn1 1.936199 1_556
F4 Li5 1.963556 1_565
F4 Li4 2.136121 1_455
F4 Li0 2.264663 1_556
F5 Mn0 1.863805 1_655
F5 Li1 2.069230 1_555
F5 Li2 2.177576 1_555
F5 Li3 2.342423 1_565
F6 Li0 1.909236 1_655
F6 Li5 2.003949 1_554
F6 Li4 2.090616 1_554
F6 Mn1 2.109252 1_545
F7 Li1 1.812870 1_555
F7 Li0 1.895779 1_556
F7 Li5 1.963360 1_555
F7 Li4 1.969007 1_555
F8 Mn0 1.882324 1_545
F8 Li3 2.018841 1_555
F8 Li5 2.092543 1_555
F8 Li1 2.309550 1_555
F9 Li3 1.857640 1_555
F9 Li2 1.893428 1_555
F9 Mn1 2.099561 1_655
F9 Li0 2.204863 1_655
F10 Mn0 1.930514 1_655
F10 Li4 2.155536 1_555
F10 Li5 2.184180 1_565
F10 Li1 2.233713 1_665
