# generated using pymatgen
data_Co6O5F7
_symmetry_space_group_name_H-M   'P 1'
_cell_length_a   5.45796300
_cell_length_b   5.55620970
_cell_length_c   7.01627626
_cell_angle_alpha   74.36635300
_cell_angle_beta   73.80554162
_cell_angle_gamma   72.51655830
_symmetry_Int_Tables_number   1
_chemical_formula_structural   Co6O5F7
_chemical_formula_sum   'Co6 O5 F7'
_cell_volume   190.84360830
_cell_formula_units_Z   1
loop_
 _symmetry_equiv_pos_site_id
 _symmetry_equiv_pos_as_xyz
  1  'x, y, z'
loop_
 _atom_site_type_symbol
 _atom_site_label
 _atom_site_symmetry_multiplicity
 _atom_site_fract_x
 _atom_site_fract_y
 _atom_site_fract_z
 _atom_site_occupancy
  Co  Co0  1  0.69525600  0.67282400  0.83860500  1
  Co  Co1  1  0.68274800  0.61295800  0.31481200  1
  Co  Co2  1  0.31131800  0.36640200  0.66882700  1
  Co  Co3  1  0.31206500  0.33579700  0.16858700  1
  Co  Co4  1  0.00031100  0.99516400  0.49971400  1
  Co  Co5  1  0.00208200  0.00334800  0.00263700  1
  O  O0  1  0.02659700  0.66107100  0.66800100  1
  O  O1  1  0.21998300  0.24531300  0.96603900  1
  O  O2  1  0.41810700  0.43082600  0.37019900  1
  O  O3  1  0.78532800  0.76227700  0.03275300  1
  O  O4  1  0.97040100  0.33851600  0.33206300  1
  F  F0  1  0.37416000  0.94242200  0.33667700  1
  F  F1  1  0.58187900  0.57534400  0.63523600  1
  F  F2  1  0.90064600  0.88182800  0.30262200  1
  F  F3  1  0.09153000  0.11254700  0.69980900  1
  F  F4  1  0.62340800  0.05608600  0.66570900  1
  F  F5  1  0.32301600  0.70692000  0.99042000  1
  F  F6  1  0.68116400  0.30035600  0.00729100  1
loop_
_geom_bond_atom_site_label_1
_geom_bond_atom_site_label_2
_geom_bond_distance
_geom_bond_site_symmetry_2
Co0 O3 1.797093 1_556
Co0 O0 1.863133 1_655
Co0 F1 1.955181 1_555
Co0 F5 1.992123 1_555
Co0 F6 2.101024 1_556
Co0 F4 2.128697 1_565
Co1 O4 1.836515 1_555
Co1 O2 1.901209 1_555
Co1 O3 1.922075 1_555
Co1 F0 2.089485 1_555
Co1 F1 2.127582 1_555
Co1 F2 2.143678 1_555
Co2 O0 1.888561 1_555
Co2 O2 1.974305 1_555
Co2 O1 1.978692 1_555
Co2 F4 2.027222 1_555
Co2 F3 2.044910 1_555
Co2 F1 2.066992 1_555
Co3 O1 1.860177 1_554
Co3 O4 1.895416 1_455
Co3 O2 1.912487 1_555
Co3 F6 1.996975 1_555
Co3 F5 2.112184 1_554
Co3 F0 2.161363 1_545
Co4 O0 1.900977 1_555
Co4 F2 1.923403 1_455
Co4 F3 1.929440 1_565
Co4 O4 1.939140 1_465
Co4 F0 2.019233 1_555
Co4 F4 2.039721 1_465
Co5 O1 1.972841 1_554
Co5 O3 1.974454 1_445
Co5 F2 2.000289 1_445
Co5 F3 2.006363 1_554
Co5 F5 2.011750 1_544
Co5 F6 2.013125 1_455
