# generated using pymatgen
data_V3O5F
_symmetry_space_group_name_H-M   'P 1'
_cell_length_a   5.52051271
_cell_length_b   5.52051271
_cell_length_c   7.39767213
_cell_angle_alpha   69.81940042
_cell_angle_beta   69.81940042
_cell_angle_gamma   71.83518595
_symmetry_Int_Tables_number   1
_chemical_formula_structural   V3O5F
_chemical_formula_sum   'V6 O10 F2'
_cell_volume   193.80893563
_cell_formula_units_Z   2
loop_
 _symmetry_equiv_pos_site_id
 _symmetry_equiv_pos_as_xyz
  1  'x, y, z'
loop_
 _atom_site_type_symbol
 _atom_site_label
 _atom_site_symmetry_multiplicity
 _atom_site_fract_x
 _atom_site_fract_y
 _atom_site_fract_z
 _atom_site_occupancy
  V  V0  1  0.82636300  0.82636300  0.64555900  1
  V  V1  1  0.50000000  0.50000000  0.50000000  1
  V  V2  1  0.81128800  0.81128800  0.17536200  1
  V  V3  1  0.50000000  0.50000000  0.00000000  1
  V  V4  1  0.17363700  0.17363700  0.35444100  1
  V  V5  1  0.18871200  0.18871200  0.82463800  1
  O  O0  1  0.80036600  0.19963400  0.50000000  1
  O  O1  1  0.13574100  0.53449300  0.16351700  1
  O  O2  1  0.39650600  0.39650600  0.80803100  1
  O  O3  1  0.73757700  0.73757700  0.45759200  1
  O  O4  1  0.26242300  0.26242300  0.54240800  1
  O  O5  1  0.60349400  0.60349400  0.19196900  1
  O  O6  1  0.86425900  0.46550700  0.83648300  1
  O  O7  1  0.19963400  0.80036600  0.50000000  1
  O  O8  1  0.53449300  0.13574100  0.16351700  1
  O  O9  1  0.46550700  0.86425900  0.83648300  1
  F  F0  1  0.06181500  0.06181500  0.13018600  1
  F  F1  1  0.93818500  0.93818500  0.86981400  1
loop_
_geom_bond_atom_site_label_1
_geom_bond_atom_site_label_2
_geom_bond_distance
_geom_bond_site_symmetry_2
O0 V1 1.945440 1_555
O0 V0 1.953877 1_545
O0 V4 1.953877 1_655
O1 V3 1.945527 1_555
O1 V2 1.956633 1_455
O1 V4 2.002458 1_555
O2 V5 1.809117 1_555
O2 V3 1.998192 1_556
O2 V1 2.062128 1_555
O3 V0 1.871979 1_555
O3 V2 1.902930 1_555
O3 V1 2.010838 1_555
O4 V4 1.871979 1_555
O4 V5 1.902930 1_555
O4 V1 2.010838 1_555
O5 V2 1.809117 1_555
O5 V3 1.998192 1_555
O5 V1 2.062128 1_555
O6 V3 1.945527 1_556
O6 V5 1.956633 1_655
O6 V0 2.002458 1_555
O7 V1 1.945440 1_555
O7 V0 1.953877 1_455
O7 V4 1.953877 1_565
O8 V3 1.945527 1_555
O8 V2 1.956633 1_545
O8 V4 2.002458 1_555
O9 V3 1.945527 1_556
O9 V5 1.956633 1_565
O9 V0 2.002458 1_555
F0 V5 2.052218 1_554
F0 V2 2.119456 1_445
F0 V4 2.272687 1_555
F1 V2 2.052218 1_556
F1 V5 2.119456 1_665
F1 V0 2.272687 1_555
