# generated using pymatgen
data_K2P4PtClO11
_symmetry_space_group_name_H-M   'P 1'
_cell_length_a   8.84035400
_cell_length_b   9.79428751
_cell_length_c   9.87714334
_cell_angle_alpha   65.88671214
_cell_angle_beta   79.90580544
_cell_angle_gamma   67.59214647
_symmetry_Int_Tables_number   1
_chemical_formula_structural   K2P4PtClO11
_chemical_formula_sum   'K4 P8 Pt2 Cl2 O22'
_cell_volume   721.45344198
_cell_formula_units_Z   2
loop_
 _symmetry_equiv_pos_site_id
 _symmetry_equiv_pos_as_xyz
  1  'x, y, z'
loop_
 _atom_site_type_symbol
 _atom_site_label
 _atom_site_symmetry_multiplicity
 _atom_site_fract_x
 _atom_site_fract_y
 _atom_site_fract_z
 _atom_site_occupancy
  K  K0  1  0.67389400  0.24782000  0.21386300  1
  K  K1  1  0.32610600  0.75218000  0.78613700  1
  K  K2  1  0.21975100  0.96483600  0.12145300  1
  K  K3  1  0.78024900  0.03516400  0.87854700  1
  P  P0  1  0.23886400  0.53100500  0.25251900  1
  P  P1  1  0.76113600  0.46899500  0.74748100  1
  P  P2  1  0.38144800  0.29741300  0.82217700  1
  P  P3  1  0.61855200  0.70258700  0.17782300  1
  P  P4  1  0.83732800  0.72039700  0.79050800  1
  P  P5  1  0.16267200  0.27960300  0.20949200  1
  P  P6  1  0.82249700  0.83566700  0.27636100  1
  P  P7  1  0.17750300  0.16433300  0.72363900  1
  Pt  Pt0  1  0.04643000  0.61691200  0.42433000  1
  Pt  Pt1  1  0.95357000  0.38308800  0.57567000  1
  Cl  Cl0  1  0.13609400  0.76797900  0.48644000  1
  Cl  Cl1  1  0.86390600  0.23202100  0.51356000  1
  O  O0  1  0.23463500  0.68000500  0.12308400  1
  O  O1  1  0.76536500  0.31999500  0.87691600  1
  O  O2  1  0.38425100  0.40376500  0.33504200  1
  O  O3  1  0.61574900  0.59623500  0.66495800  1
  O  O4  1  0.12670800  0.45423300  0.19949400  1
  O  O5  1  0.87329200  0.54576700  0.80050600  1
  O  O6  1  0.21857500  0.25480100  0.80652800  1
  O  O7  1  0.78142500  0.74519900  0.19347200  1
  O  O8  1  0.50619700  0.26485800  0.70341000  1
  O  O9  1  0.49380300  0.73514200  0.29659000  1
  O  O10  1  0.30810800  0.46777400  0.81388400  1
  O  O11  1  0.69189200  0.53222600  0.18611600  1
  O  O12  1  0.68689200  0.84611500  0.71945000  1
  O  O13  1  0.31310800  0.15388500  0.28055000  1
  O  O14  1  0.96682300  0.73052600  0.85761800  1
  O  O15  1  0.03317700  0.26947400  0.14238200  1
  O  O16  1  0.70960600  0.87419300  0.39595800  1
  O  O17  1  0.29039400  0.12580700  0.60404200  1
  O  O18  1  0.90542200  0.94664400  0.16740500  1
  O  O19  1  0.09457800  0.05335600  0.83259500  1
  O  O20  1  0.43871500  0.18183100  0.97927600  1
  O  O21  1  0.56128500  0.81816900  0.02072400  1
loop_
_geom_bond_atom_site_label_1
_geom_bond_atom_site_label_2
_geom_bond_distance
_geom_bond_site_symmetry_2
K0 O11 2.749287 1_555
K0 O2 2.785609 1_555
K0 O18 3.045483 1_545
K0 O1 3.130469 1_554
K0 O15 3.199498 1_655
K0 O16 3.265923 1_545
K1 O10 2.749287 1_555
K1 O3 2.785609 1_555
K1 O19 3.045483 1_565
K1 O0 3.130469 1_556
K1 O14 3.199498 1_455
K1 O17 3.265923 1_565
K2 O0 2.735738 1_555
K2 O18 2.797975 1_455
K2 O9 2.838486 1_555
K2 O15 2.880664 1_565
K2 O19 2.910400 1_564
K2 O21 2.996262 1_555
K2 O20 3.159271 1_564
K2 O6 3.242222 1_564
K2 O13 3.252079 1_565
K3 O1 2.735738 1_555
K3 O19 2.797975 1_655
K3 O8 2.838486 1_555
K3 O14 2.880664 1_545
K3 O18 2.910400 1_546
K3 O20 2.996262 1_555
K3 O21 3.159271 1_546
K3 O7 3.242222 1_546
K3 O12 3.252079 1_545
P0 Pt0 2.354833 1_555
P1 Pt1 2.354833 1_555
P6 Pt0 2.422283 1_655
P7 Pt1 2.422283 1_455
Pt0 Pt1 2.521729 1_455
Cl0 Pt0 2.236093 1_555
Cl0 K2 3.425469 1_555
Cl0 K1 3.574720 1_555
Cl1 Pt1 2.236093 1_555
Cl1 K3 3.425469 1_555
Cl1 K0 3.574720 1_555
O0 P0 1.488707 1_555
O1 P1 1.488707 1_555
O2 P0 1.478330 1_555
O3 P1 1.478330 1_555
O4 P5 1.579443 1_555
O4 P0 1.701457 1_555
O5 P4 1.579443 1_555
O5 P1 1.701457 1_555
O6 P7 1.590426 1_555
O6 P2 1.691191 1_555
O7 P6 1.590426 1_555
O7 P3 1.691191 1_555
O8 P2 1.509322 1_555
O9 P3 1.509322 1_555
O10 P2 1.514380 1_555
O11 P3 1.514380 1_555
O12 P4 1.466289 1_555
O13 P5 1.466289 1_555
O14 P4 1.471752 1_555
O15 P5 1.471752 1_555
O16 P6 1.482447 1_555
O17 P7 1.482447 1_555
O18 P6 1.500726 1_555
O19 P7 1.500726 1_555
O20 P2 1.532553 1_555
O21 P3 1.532553 1_555
