# generated using pymatgen
data_Na2MnPCO7
_symmetry_space_group_name_H-M   'P 1'
_cell_length_a   6.72661700
_cell_length_b   8.89076889
_cell_length_c   10.41127074
_cell_angle_alpha   91.37958766
_cell_angle_beta   90.29495876
_cell_angle_gamma   90.08101273
_symmetry_Int_Tables_number   1
_chemical_formula_structural   Na2MnPCO7
_chemical_formula_sum   'Na8 Mn4 P4 C4 O28'
_cell_volume   622.45446437
_cell_formula_units_Z   4
loop_
 _symmetry_equiv_pos_site_id
 _symmetry_equiv_pos_as_xyz
  1  'x, y, z'
loop_
 _atom_site_type_symbol
 _atom_site_label
 _atom_site_symmetry_multiplicity
 _atom_site_fract_x
 _atom_site_fract_y
 _atom_site_fract_z
 _atom_site_occupancy
  Na  Na0  1  0.46754400  0.74111900  0.62055100  1
  Na  Na1  1  0.00768000  0.75850500  0.12487400  1
  Na  Na2  1  0.49490100  0.75791400  0.12093700  1
  Na  Na3  1  0.50481800  0.24480000  0.88409200  1
  Na  Na4  1  0.99551200  0.24487500  0.88603900  1
  Na  Na5  1  0.50469300  0.24925400  0.36921800  1
  Na  Na6  1  0.99500400  0.24755500  0.36657100  1
  Na  Na7  1  0.76551200  0.06777300  0.61752200  1
  Mn  Mn0  1  0.75530000  0.64922700  0.88471300  1
  Mn  Mn1  1  0.75748700  0.64829000  0.39477500  1
  Mn  Mn2  1  0.24804100  0.35250300  0.60886900  1
  Mn  Mn3  1  0.25250200  0.35370700  0.10986700  1
  P  P0  1  0.25153800  0.57789400  0.85589800  1
  P  P1  1  0.25101900  0.58142600  0.35251800  1
  P  P2  1  0.74730500  0.41762700  0.64669000  1
  P  P3  1  0.75156300  0.42446800  0.14764900  1
  C  C0  1  0.74572600  0.92954600  0.85907900  1
  C  C1  1  0.74726000  0.92937500  0.36541300  1
  C  C2  1  0.25213300  0.07520900  0.63582200  1
  C  C3  1  0.25092000  0.07411000  0.13538800  1
  O  O0  1  0.26106000  0.93648600  0.64033600  1
  O  O1  1  0.25188700  0.93374000  0.13753900  1
  O  O2  1  0.75623700  0.85544200  0.96733300  1
  O  O3  1  0.74607200  0.85340200  0.47313000  1
  O  O4  1  0.73298900  0.84521900  0.75656100  1
  O  O5  1  0.74927800  0.84725000  0.26177300  1
  O  O6  1  0.06397800  0.66734900  0.89428400  1
  O  O7  1  0.43941200  0.67031600  0.89197600  1
  O  O8  1  0.06176100  0.67323800  0.37736100  1
  O  O9  1  0.43896900  0.67185900  0.38923800  1
  O  O10  1  0.25623200  0.54176000  0.70723500  1
  O  O11  1  0.73660700  0.56797100  0.57837600  1
  O  O12  1  0.25862200  0.54625600  0.20210800  1
  O  O13  1  0.75061600  0.57817800  0.08111100  1
  O  O14  1  0.25274600  0.42348000  0.92382800  1
  O  O15  1  0.75094000  0.45109400  0.79740200  1
  O  O16  1  0.24767300  0.42761700  0.42186200  1
  O  O17  1  0.75190000  0.45405300  0.29936400  1
  O  O18  1  0.56640900  0.31426000  0.61568200  1
  O  O19  1  0.93205100  0.32172500  0.61148300  1
  O  O20  1  0.56577600  0.32964800  0.11354600  1
  O  O21  1  0.93816900  0.33152600  0.11352600  1
  O  O22  1  0.24630000  0.16866700  0.73573100  1
  O  O23  1  0.25082700  0.16399400  0.23638100  1
  O  O24  1  0.24696200  0.14867900  0.52537800  1
  O  O25  1  0.25021800  0.14879600  0.02660800  1
  O  O26  1  0.74991300  0.07226500  0.85669300  1
  O  O27  1  0.74784200  0.07211100  0.37265800  1
loop_
_geom_bond_atom_site_label_1
_geom_bond_atom_site_label_2
_geom_bond_distance
_geom_bond_site_symmetry_2
Na0 O0 2.231852 1_555
Na0 O11 2.412842 1_555
Na0 O4 2.440518 1_555
Na0 O10 2.461628 1_555
Na0 O9 2.477770 1_555
Na0 O3 2.638293 1_555
Na0 O7 2.916931 1_555
Na1 O1 2.263566 1_555
Na1 O5 2.377072 1_455
Na1 O13 2.391004 1_455
Na1 O2 2.517413 1_454
Na1 O6 2.545644 1_554
Na1 O12 2.669265 1_555
Na1 O8 2.775617 1_555
Na2 O1 2.267775 1_555
Na2 O5 2.371273 1_555
Na2 O13 2.380640 1_555
Na2 O7 2.515725 1_554
Na2 O2 2.547741 1_554
Na2 O12 2.619803 1_555
Na2 O9 2.939841 1_555
Na3 O26 2.267915 1_555
Na3 O14 2.356487 1_555
Na3 O22 2.405548 1_555
Na3 O25 2.438468 1_556
Na3 O20 2.519195 1_556
Na3 O15 2.646882 1_555
Na3 O18 2.908003 1_555
Na4 O26 2.267770 1_555
Na4 O14 2.371804 1_655
Na4 O22 2.394399 1_655
Na4 O25 2.417741 1_656
Na4 O21 2.504822 1_556
Na4 O15 2.644615 1_555
Na5 O27 2.272927 1_555
Na5 O23 2.307584 1_555
Na5 O16 2.404118 1_555
Na5 O24 2.557946 1_555
Na5 O17 2.584006 1_555
Na5 O18 2.647204 1_555
Na5 O20 2.804873 1_555
Na6 O27 2.280290 1_555
Na6 O23 2.308578 1_655
Na6 O16 2.391808 1_655
Na6 O24 2.534609 1_655
Na6 O17 2.567661 1_555
Na6 O19 2.654584 1_555
Na6 O21 2.780173 1_555
Na7 O3 2.401848 1_545
Na7 O4 2.489667 1_545
Na7 O26 2.492185 1_555
Na7 O19 2.521329 1_555
Na7 O27 2.552725 1_555
Na7 O18 2.570333 1_555
Mn0 O15 1.962836 1_555
Mn0 O2 2.006318 1_555
Mn0 O6 2.084060 1_655
Mn0 O7 2.134945 1_555
Mn0 O13 2.154954 1_556
Mn0 O4 2.224788 1_555
Mn1 O17 1.971605 1_555
Mn1 O3 1.981495 1_555
Mn1 O11 2.061984 1_555
Mn1 O8 2.067768 1_655
Mn1 O9 2.153678 1_555
Mn1 O5 2.273096 1_555
Mn2 O10 1.949181 1_555
Mn2 O24 1.990876 1_555
Mn2 O16 2.073473 1_555
Mn2 O22 2.126051 1_555
Mn2 O19 2.143097 1_455
Mn2 O18 2.169905 1_555
Mn3 O12 1.942890 1_555
Mn3 O25 1.998597 1_555
Mn3 O14 2.047998 1_554
Mn3 O20 2.118647 1_555
Mn3 O21 2.123919 1_455
Mn3 O23 2.164967 1_555
C0 O26 1.269998 1_565
C0 O4 1.291899 1_555
C0 O2 1.320760 1_555
C1 O27 1.269458 1_565
C1 O5 1.288350 1_555
C1 O3 1.323086 1_555
C2 O0 1.236911 1_545
C2 O22 1.316368 1_555
C2 O24 1.336372 1_555
C3 O1 1.248763 1_545
C3 O23 1.305277 1_555
C3 O25 1.326555 1_555
O6 P0 1.541664 1_555
O7 P0 1.546182 1_555
O8 P1 1.532994 1_555
O9 P1 1.538935 1_555
O10 P0 1.573654 1_555
O11 P2 1.530769 1_555
O12 P1 1.590569 1_555
O13 P3 1.546964 1_555
O14 P0 1.559397 1_555
O15 P2 1.590069 1_555
O16 P1 1.561843 1_555
O17 P3 1.595027 1_555
O18 P2 1.551759 1_555
O19 P2 1.548657 1_555
O20 P3 1.541618 1_555
O21 P3 1.542080 1_555
