# generated using pymatgen
data_Mn3Cu2Sn(PO4)6
_symmetry_space_group_name_H-M   'P 1'
_cell_length_a   8.60244157
_cell_length_b   8.60244157
_cell_length_c   8.60244183
_cell_angle_alpha   59.62346226
_cell_angle_beta   59.62346226
_cell_angle_gamma   59.62346552
_symmetry_Int_Tables_number   1
_chemical_formula_structural   Mn3Cu2Sn(PO4)6
_chemical_formula_sum   'Mn3 Cu2 Sn1 P6 O24'
_cell_volume   446.29082190
_cell_formula_units_Z   1
loop_
 _symmetry_equiv_pos_site_id
 _symmetry_equiv_pos_as_xyz
  1  'x, y, z'
loop_
 _atom_site_type_symbol
 _atom_site_label
 _atom_site_symmetry_multiplicity
 _atom_site_fract_x
 _atom_site_fract_y
 _atom_site_fract_z
 _atom_site_occupancy
  Mn  Mn0  1  0.14326600  0.14326600  0.14326600  1
  Mn  Mn1  1  0.35723800  0.35723800  0.35723800  1
  Mn  Mn2  1  0.64260700  0.64260700  0.64260700  1
  Cu  Cu0  1  0.00244400  0.00244400  0.00244400  1
  Cu  Cu1  1  0.49949500  0.49949500  0.49949500  1
  Sn  Sn0  1  0.85728400  0.85728400  0.85728400  1
  P  P0  1  0.04345900  0.45254100  0.74738800  1
  P  P1  1  0.45254100  0.74738800  0.04345900  1
  P  P2  1  0.74738800  0.04345900  0.45254100  1
  P  P3  1  0.96232800  0.53580600  0.25497100  1
  P  P4  1  0.25497100  0.96232800  0.53580600  1
  P  P5  1  0.53580600  0.25497100  0.96232800  1
  O  O0  1  0.50200600  0.30970400  0.12400200  1
  O  O1  1  0.12400200  0.50200600  0.30970400  1
  O  O2  1  0.25866900  0.91603700  0.05943900  1
  O  O3  1  0.30970400  0.12400200  0.50200600  1
  O  O4  1  0.61107900  0.80041800  0.01982400  1
  O  O5  1  0.43729700  0.57849000  0.24030600  1
  O  O6  1  0.91603700  0.05943900  0.25866900  1
  O  O7  1  0.57849000  0.24030600  0.43729700  1
  O  O8  1  0.99193400  0.38060200  0.19559200  1
  O  O9  1  0.24030600  0.43729700  0.57849000  1
  O  O10  1  0.94764400  0.73476200  0.08900000  1
  O  O11  1  0.19559200  0.99193400  0.38060200  1
  O  O12  1  0.80041800  0.01982400  0.61107900  1
  O  O13  1  0.05943900  0.25866900  0.91603700  1
  O  O14  1  0.76525500  0.55215600  0.42099100  1
  O  O15  1  0.01982400  0.61107900  0.80041800  1
  O  O16  1  0.42099100  0.76525500  0.55215600  1
  O  O17  1  0.08900000  0.94764400  0.73476200  1
  O  O18  1  0.55215600  0.42099100  0.76525500  1
  O  O19  1  0.38060200  0.19559200  0.99193400  1
  O  O20  1  0.69652100  0.87955500  0.48988700  1
  O  O21  1  0.73476200  0.08900000  0.94764400  1
  O  O22  1  0.87955500  0.48988700  0.69652100  1
  O  O23  1  0.48988700  0.69652100  0.87955500  1
loop_
_geom_bond_atom_site_label_1
_geom_bond_atom_site_label_2
_geom_bond_distance
_geom_bond_site_symmetry_2
Mn0 O19 1.927303 1_554
Mn0 O11 1.927303 1_545
Mn0 O8 1.927303 1_455
Mn0 O6 2.016306 1_455
Mn0 O2 2.016306 1_545
Mn0 O13 2.016306 1_554
Mn1 O3 1.879207 1_555
Mn1 O0 1.879207 1_555
Mn1 O1 1.879207 1_555
Mn1 O5 1.948719 1_555
Mn1 O7 1.948719 1_555
Mn1 O9 1.948719 1_555
Mn2 O20 1.930655 1_555
Mn2 O23 1.930655 1_555
Mn2 O22 1.930655 1_555
Mn2 O18 1.997202 1_555
Mn2 O16 1.997202 1_555
Mn2 O14 1.997202 1_555
Cu0 O13 2.172239 1_554
Cu0 O2 2.172239 1_545
Cu0 O6 2.172239 1_455
Cu0 O10 2.255651 1_445
Cu0 O21 2.255651 1_454
Cu0 O17 2.255651 1_544
Cu1 O9 2.241849 1_555
Cu1 O7 2.241849 1_555
Cu1 O5 2.241849 1_555
Cu1 O14 2.250444 1_555
Cu1 O16 2.250444 1_555
Cu1 O18 2.250444 1_555
O0 P5 1.534720 1_554
O1 P3 1.534720 1_455
O2 P1 1.558177 1_555
O3 P4 1.534720 1_545
O4 P1 1.537665 1_555
O4 Sn0 2.010264 1_554
O5 P1 1.573376 1_555
O6 P2 1.558177 1_555
O7 P2 1.573376 1_555
O8 P3 1.524019 1_555
O9 P0 1.573376 1_555
O10 P3 1.573554 1_555
O10 Sn0 2.074150 1_554
O11 P4 1.524019 1_555
O12 P2 1.537665 1_555
O12 Sn0 2.010264 1_545
O13 P0 1.558177 1_555
O14 P3 1.564237 1_555
O15 P0 1.537665 1_555
O15 Sn0 2.010264 1_455
O16 P4 1.564237 1_555
O17 P4 1.573554 1_555
O17 Sn0 2.074150 1_455
O18 P5 1.564237 1_555
O19 P5 1.524019 1_555
O20 P2 1.518684 1_565
O21 P5 1.573555 1_555
O21 Sn0 2.074150 1_545
O22 P0 1.518684 1_655
O23 P1 1.518685 1_556
