# generated using pymatgen
data_LiV3OF11
_symmetry_space_group_name_H-M   'P 1'
_cell_length_a   5.25380600
_cell_length_b   5.40275700
_cell_length_c   15.61690669
_cell_angle_alpha   80.18098106
_cell_angle_beta   90.00000000
_cell_angle_gamma   90.00000000
_symmetry_Int_Tables_number   1
_chemical_formula_structural   LiV3OF11
_chemical_formula_sum   'Li2 V6 O2 F22'
_cell_volume   436.79292546
_cell_formula_units_Z   2
loop_
 _symmetry_equiv_pos_site_id
 _symmetry_equiv_pos_as_xyz
  1  'x, y, z'
loop_
 _atom_site_type_symbol
 _atom_site_label
 _atom_site_symmetry_multiplicity
 _atom_site_fract_x
 _atom_site_fract_y
 _atom_site_fract_z
 _atom_site_occupancy
  Li  Li0  1  0.71970900  0.29052000  0.99214300  1
  Li  Li1  1  0.21970900  0.70948000  0.00785700  1
  V  V0  1  0.49168200  0.90205600  0.17390400  1
  V  V1  1  0.00056400  0.74985400  0.50011900  1
  V  V2  1  0.52584900  0.57537900  0.82543600  1
  V  V3  1  0.99168200  0.09794400  0.82609600  1
  V  V4  1  0.02584900  0.42462100  0.17456400  1
  V  V5  1  0.50056400  0.25014600  0.49988100  1
  O  O0  1  0.77832000  0.36107000  0.85476300  1
  O  O1  1  0.27832000  0.63893000  0.14523700  1
  F  F0  1  0.19525900  0.45889400  0.47665000  1
  F  F1  1  0.28519400  0.31306900  0.80473700  1
  F  F2  1  0.69525900  0.54110600  0.52335000  1
  F  F3  1  0.07264300  0.02034900  0.94462700  1
  F  F4  1  0.08609300  0.67556300  0.61100900  1
  F  F5  1  0.42479700  0.86227700  0.28515400  1
  F  F6  1  0.91743300  0.82048700  0.38899800  1
  F  F7  1  0.57483100  0.67314200  0.71158100  1
  F  F8  1  0.57264300  0.97965100  0.05537300  1
  F  F9  1  0.20238700  0.12630900  0.14707000  1
  F  F10  1  0.30604900  0.95953700  0.47674800  1
  F  F11  1  0.21233200  0.80310700  0.81720200  1
  F  F12  1  0.71233200  0.19689300  0.18279800  1
  F  F13  1  0.80604900  0.04046300  0.52325200  1
  F  F14  1  0.43180100  0.51192100  0.95065200  1
  F  F15  1  0.07483100  0.32685800  0.28841900  1
  F  F16  1  0.41743300  0.17951300  0.61100200  1
  F  F17  1  0.92479700  0.13772300  0.71484600  1
  F  F18  1  0.93180100  0.48807900  0.04934800  1
  F  F19  1  0.58609300  0.32443700  0.38899100  1
  F  F20  1  0.70238700  0.87369100  0.85293000  1
  F  F21  1  0.78519400  0.68693100  0.19526300  1
loop_
_geom_bond_atom_site_label_1
_geom_bond_atom_site_label_2
_geom_bond_distance
_geom_bond_site_symmetry_2
Li0 O0 2.136386 1_555
Li1 O1 2.136386 1_555
O0 V2 1.768886 1_555
O0 V3 1.922243 1_555
O1 V4 1.768886 1_555
O1 V0 1.922243 1_555
F0 V5 1.958798 1_555
F0 V1 1.961705 1_555
F1 V3 1.925574 1_455
F1 V2 1.966668 1_555
F2 V1 1.958798 1_655
F2 V5 1.961705 1_555
F3 V3 1.875772 1_455
F3 Li1 1.956347 1_546
F4 V1 1.767748 1_555
F5 V0 1.749517 1_555
F6 V1 1.766920 1_655
F7 V2 1.785048 1_555
F8 V0 1.875772 1_555
F8 Li0 1.956347 1_564
F9 V0 1.944344 1_545
F9 V4 1.969325 1_555
F10 V5 1.957940 1_565
F10 V1 1.962515 1_555
F11 V3 1.994005 1_465
F11 V2 2.046823 1_555
F12 V0 1.994005 1_545
F12 V4 2.046823 1_655
F13 V1 1.957940 1_645
F13 V5 1.962515 1_555
F14 Li1 1.871961 1_556
F14 Li0 1.968332 1_555
F14 V2 1.989208 1_555
F15 V4 1.785048 1_555
F16 V5 1.766920 1_555
F17 V3 1.749517 1_555
F18 Li0 1.871961 1_554
F18 Li1 1.968332 1_655
F18 V4 1.989208 1_655
F19 V5 1.767748 1_555
F20 V3 1.944344 1_565
F20 V2 1.969325 1_555
F21 V0 1.925574 1_555
F21 V4 1.966668 1_655
