# generated using pymatgen
data_Li5BiO4
_symmetry_space_group_name_H-M   'P 1'
_cell_length_a   13.65635200
_cell_length_b   13.65635200
_cell_length_c   4.87800500
_cell_angle_alpha   90.00000000
_cell_angle_beta   90.00000000
_cell_angle_gamma   90.00000000
_symmetry_Int_Tables_number   1
_chemical_formula_structural   Li5BiO4
_chemical_formula_sum   'Li40 Bi8 O32'
_cell_volume   909.72817633
_cell_formula_units_Z   8
loop_
 _symmetry_equiv_pos_site_id
 _symmetry_equiv_pos_as_xyz
  1  'x, y, z'
loop_
 _atom_site_type_symbol
 _atom_site_label
 _atom_site_symmetry_multiplicity
 _atom_site_fract_x
 _atom_site_fract_y
 _atom_site_fract_z
 _atom_site_occupancy
  Li  Li0  1  0.75969600  0.24030400  0.00000000  1
  Li  Li1  1  0.74030400  0.25969600  0.50000000  1
  Li  Li2  1  0.24030400  0.24030400  0.00000000  1
  Li  Li3  1  0.25969600  0.25969600  0.50000000  1
  Li  Li4  1  0.11024400  0.35553800  0.57263500  1
  Li  Li5  1  0.88975600  0.35553800  0.57263500  1
  Li  Li6  1  0.37193800  0.37193800  0.00000000  1
  Li  Li7  1  0.62806200  0.37193800  0.00000000  1
  Li  Li8  1  0.85553800  0.38975600  0.07263500  1
  Li  Li9  1  0.14446200  0.38975600  0.07263500  1
  Li  Li10  1  0.00000000  0.50000000  0.09410100  1
  Li  Li11  1  0.50000000  0.50000000  0.50000000  1
  Li  Li12  1  0.50000000  0.50000000  0.00000000  1
  Li  Li13  1  0.00000000  0.50000000  0.59410100  1
  Li  Li14  1  0.85553800  0.61024400  0.07263500  1
  Li  Li15  1  0.14446200  0.61024400  0.07263500  1
  Li  Li16  1  0.37193800  0.62806200  0.00000000  1
  Li  Li17  1  0.62806200  0.62806200  0.00000000  1
  Li  Li18  1  0.88975600  0.64446200  0.57263500  1
  Li  Li19  1  0.11024400  0.64446200  0.57263500  1
  Li  Li20  1  0.24030400  0.75969600  0.00000000  1
  Li  Li21  1  0.25969600  0.74030400  0.50000000  1
  Li  Li22  1  0.75969600  0.75969600  0.00000000  1
  Li  Li23  1  0.74030400  0.74030400  0.50000000  1
  Li  Li24  1  0.38975600  0.85553800  0.92736500  1
  Li  Li25  1  0.61024400  0.85553800  0.92736500  1
  Li  Li26  1  0.87193800  0.87193800  0.50000000  1
  Li  Li27  1  0.12806200  0.87193800  0.50000000  1
  Li  Li28  1  0.35553800  0.88975600  0.42736500  1
  Li  Li29  1  0.64446200  0.88975600  0.42736500  1
  Li  Li30  1  0.00000000  0.00000000  0.00000000  1
  Li  Li31  1  0.00000000  0.00000000  0.50000000  1
  Li  Li32  1  0.50000000  0.00000000  0.90589900  1
  Li  Li33  1  0.50000000  0.00000000  0.40589900  1
  Li  Li34  1  0.35553800  0.11024400  0.42736500  1
  Li  Li35  1  0.64446200  0.11024400  0.42736500  1
  Li  Li36  1  0.87193800  0.12806200  0.50000000  1
  Li  Li37  1  0.12806200  0.12806200  0.50000000  1
  Li  Li38  1  0.38975600  0.14446200  0.92736500  1
  Li  Li39  1  0.61024400  0.14446200  0.92736500  1
  Bi  Bi0  1  0.50000000  0.27257100  0.44896600  1
  Bi  Bi1  1  0.27257100  0.50000000  0.55103400  1
  Bi  Bi2  1  0.72742900  0.50000000  0.55103400  1
  Bi  Bi3  1  0.50000000  0.72742900  0.44896600  1
  Bi  Bi4  1  0.00000000  0.77257100  0.05103400  1
  Bi  Bi5  1  0.77257100  0.00000000  0.94896600  1
  Bi  Bi6  1  0.22742900  0.00000000  0.94896600  1
  Bi  Bi7  1  0.00000000  0.22742900  0.05103400  1
  O  O0  1  0.86109000  0.26391600  0.28174000  1
  O  O1  1  0.13891000  0.26391600  0.28174000  1
  O  O2  1  0.76391600  0.36109000  0.78174000  1
  O  O3  1  0.23608400  0.36109000  0.78174000  1
  O  O4  1  0.00000000  0.38067800  0.84139200  1
  O  O5  1  0.50000000  0.38325000  0.78449500  1
  O  O6  1  0.88067800  0.50000000  0.34139200  1
  O  O7  1  0.38325000  0.50000000  0.21550500  1
  O  O8  1  0.61675000  0.50000000  0.21550500  1
  O  O9  1  0.11932200  0.50000000  0.34139200  1
  O  O10  1  0.50000000  0.61675000  0.78449500  1
  O  O11  1  0.00000000  0.61932200  0.84139200  1
  O  O12  1  0.23608400  0.63891000  0.78174000  1
  O  O13  1  0.76391600  0.63891000  0.78174000  1
  O  O14  1  0.86109000  0.73608400  0.28174000  1
  O  O15  1  0.13891000  0.73608400  0.28174000  1
  O  O16  1  0.36109000  0.76391600  0.21826000  1
  O  O17  1  0.63891000  0.76391600  0.21826000  1
  O  O18  1  0.73608400  0.86109000  0.71826000  1
  O  O19  1  0.26391600  0.86109000  0.71826000  1
  O  O20  1  0.50000000  0.88067800  0.65860800  1
  O  O21  1  0.00000000  0.88325000  0.71550500  1
  O  O22  1  0.88325000  0.00000000  0.28449500  1
  O  O23  1  0.11675000  0.00000000  0.28449500  1
  O  O24  1  0.38067800  0.00000000  0.15860800  1
  O  O25  1  0.61932200  0.00000000  0.15860800  1
  O  O26  1  0.00000000  0.11675000  0.71550500  1
  O  O27  1  0.50000000  0.11932200  0.65860800  1
  O  O28  1  0.73608400  0.13891000  0.71826000  1
  O  O29  1  0.26391600  0.13891000  0.71826000  1
  O  O30  1  0.36109000  0.23608400  0.21826000  1
  O  O31  1  0.63891000  0.23608400  0.21826000  1
loop_
_geom_bond_atom_site_label_1
_geom_bond_atom_site_label_2
_geom_bond_distance
_geom_bond_site_symmetry_2
Li0 O2 1.964100 1_554
Li0 O31 1.964100 1_555
Li0 O0 1.977391 1_555
Li0 O28 1.977391 1_554
Li1 O28 1.964100 1_555
Li1 O0 1.964100 1_555
Li1 O31 1.977391 1_555
Li1 O2 1.977391 1_555
Li2 O30 1.964100 1_555
Li2 O3 1.964100 1_554
Li2 O29 1.977391 1_554
Li2 O1 1.977391 1_555
Li3 O1 1.964100 1_555
Li3 O29 1.964100 1_555
Li3 O3 1.977391 1_555
Li3 O30 1.977391 1_555
Li4 O1 1.931925 1_555
Li4 O3 1.999869 1_555
Li4 O4 2.025638 1_555
Li4 O9 2.275917 1_555
Li5 O0 1.931925 1_555
Li5 O2 1.999869 1_555
Li5 O4 2.025638 1_655
Li5 O6 2.275917 1_555
Li6 O5 2.046331 1_554
Li6 O7 2.046331 1_555
Li6 O30 2.144179 1_555
Li6 O3 2.144179 1_554
Li7 O5 2.046331 1_554
Li7 O8 2.046331 1_555
Li7 O31 2.144179 1_555
Li7 O2 2.144179 1_554
Li8 O2 1.931925 1_554
Li8 O0 1.999869 1_555
Li8 O6 2.025638 1_555
Li8 O4 2.275917 1_654
Li9 O3 1.931925 1_554
Li9 O1 1.999869 1_555
Li9 O9 2.025638 1_555
Li9 O4 2.275917 1_554
Li10 O9 2.027414 1_555
Li10 O6 2.027414 1_455
Li10 O4 2.043250 1_554
Li10 O11 2.043250 1_554
Li11 O8 2.113751 1_555
Li11 O7 2.113751 1_555
Li11 O5 2.113751 1_555
Li11 O10 2.113751 1_555
Li12 O10 1.909748 1_554
Li12 O5 1.909748 1_554
Li12 O8 1.909748 1_555
Li12 O7 1.909748 1_555
Li13 O4 2.027414 1_555
Li13 O11 2.027414 1_555
Li13 O9 2.043250 1_555
Li13 O6 2.043250 1_455
Li14 O13 1.931925 1_554
Li14 O14 1.999869 1_555
Li14 O6 2.025638 1_555
Li14 O11 2.275917 1_654
Li15 O12 1.931925 1_554
Li15 O15 1.999869 1_555
Li15 O9 2.025638 1_555
Li15 O11 2.275917 1_554
Li16 O10 2.046331 1_554
Li16 O7 2.046331 1_555
Li16 O12 2.144179 1_554
Li16 O16 2.144179 1_555
Li17 O10 2.046331 1_554
Li17 O8 2.046331 1_555
Li17 O17 2.144179 1_555
Li17 O13 2.144179 1_554
Li18 O14 1.931925 1_555
Li18 O13 1.999869 1_555
Li18 O11 2.025638 1_655
Li18 O6 2.275917 1_555
Li19 O15 1.931925 1_555
Li19 O12 1.999869 1_555
Li19 O11 2.025638 1_555
Li19 O9 2.275917 1_555
Li20 O16 1.964100 1_555
Li20 O12 1.964100 1_554
Li20 O19 1.977391 1_554
Li20 O15 1.977391 1_555
Li21 O15 1.964100 1_555
Li21 O19 1.964100 1_555
Li21 O12 1.977391 1_555
Li21 O16 1.977391 1_555
Li22 O17 1.964100 1_555
Li22 O13 1.964100 1_554
Li22 O14 1.977391 1_555
Li22 O18 1.977391 1_554
Li23 O18 1.964100 1_555
Li23 O14 1.964100 1_555
Li23 O13 1.977391 1_555
Li23 O17 1.977391 1_555
Li24 O16 1.931925 1_556
Li24 O19 1.999869 1_555
Li24 O20 2.025638 1_555
Li24 O24 2.275917 1_566
Li25 O17 1.931925 1_556
Li25 O18 1.999869 1_555
Li25 O20 2.025638 1_555
Li25 O25 2.275917 1_566
Li26 O21 2.046331 1_655
Li26 O22 2.046331 1_565
Li26 O18 2.144179 1_555
Li26 O14 2.144179 1_555
Li27 O23 2.046331 1_565
Li27 O21 2.046331 1_555
Li27 O19 2.144179 1_555
Li27 O15 2.144179 1_555
Li28 O19 1.931925 1_555
Li28 O16 1.999869 1_555
Li28 O24 2.025638 1_565
Li28 O20 2.275917 1_555
Li29 O18 1.931925 1_555
Li29 O17 1.999869 1_555
Li29 O25 2.025638 1_565
Li29 O20 2.275917 1_555
Li30 O23 2.113751 1_555
Li30 O22 2.113751 1_455
Li30 O26 2.113751 1_554
Li30 O21 2.113751 1_544
Li31 O26 1.909748 1_555
Li31 O23 1.909748 1_555
Li31 O21 1.909748 1_545
Li31 O22 1.909748 1_455
Li32 O20 2.027414 1_545
Li32 O27 2.027414 1_555
Li32 O24 2.043250 1_556
Li32 O25 2.043250 1_556
Li33 O24 2.027414 1_555
Li33 O25 2.027414 1_555
Li33 O27 2.043250 1_555
Li33 O20 2.043250 1_545
Li34 O29 1.931925 1_555
Li34 O30 1.999869 1_555
Li34 O24 2.025638 1_555
Li34 O27 2.275917 1_555
Li35 O28 1.931925 1_555
Li35 O31 1.999869 1_555
Li35 O25 2.025638 1_555
Li35 O27 2.275917 1_555
Li36 O22 2.046331 1_555
Li36 O26 2.046331 1_655
Li36 O0 2.144179 1_555
Li36 O28 2.144179 1_555
Li37 O26 2.046331 1_555
Li37 O23 2.046331 1_555
Li37 O1 2.144179 1_555
Li37 O29 2.144179 1_555
Li38 O30 1.931925 1_556
Li38 O29 1.999869 1_555
Li38 O27 2.025638 1_555
Li38 O24 2.275917 1_556
Li39 O31 1.931925 1_556
Li39 O28 1.999869 1_555
Li39 O27 2.025638 1_555
Li39 O25 2.275917 1_556
Bi0 O5 2.227863 1_555
Bi0 O30 2.261282 1_555
Bi0 O31 2.261282 1_555
Bi0 O27 2.329310 1_555
Bi1 O7 2.227863 1_555
Bi1 O12 2.261282 1_555
Bi1 O3 2.261282 1_555
Bi1 O9 2.329310 1_555
Bi2 O8 2.227863 1_555
Bi2 O13 2.261282 1_555
Bi2 O2 2.261282 1_555
Bi2 O6 2.329310 1_555
Bi3 O10 2.227863 1_555
Bi3 O16 2.261282 1_555
Bi3 O17 2.261282 1_555
Bi3 O20 2.329310 1_555
Bi4 O21 2.227863 1_554
Bi4 O14 2.261282 1_455
Bi4 O15 2.261282 1_555
Bi4 O11 2.329310 1_554
Bi5 O22 2.227863 1_556
Bi5 O18 2.261282 1_545
Bi5 O28 2.261282 1_555
Bi5 O25 2.329310 1_556
Bi6 O23 2.227863 1_556
Bi6 O29 2.261282 1_555
Bi6 O19 2.261282 1_545
Bi6 O24 2.329310 1_556
Bi7 O26 2.227863 1_554
Bi7 O1 2.261282 1_555
Bi7 O0 2.261282 1_455
Bi7 O4 2.329310 1_554
