# generated using pymatgen
data_SnP2O9
_symmetry_space_group_name_H-M   'P 1'
_cell_length_a   5.10758067
_cell_length_b   5.10758067
_cell_length_c   14.86272697
_cell_angle_alpha   87.03968044
_cell_angle_beta   87.03968044
_cell_angle_gamma   60.25445163
_symmetry_Int_Tables_number   1
_chemical_formula_structural   SnP2O9
_chemical_formula_sum   'Sn2 P4 O18'
_cell_volume   336.04068069
_cell_formula_units_Z   2
loop_
 _symmetry_equiv_pos_site_id
 _symmetry_equiv_pos_as_xyz
  1  'x, y, z'
loop_
 _atom_site_type_symbol
 _atom_site_label
 _atom_site_symmetry_multiplicity
 _atom_site_fract_x
 _atom_site_fract_y
 _atom_site_fract_z
 _atom_site_occupancy
  Sn  Sn0  1  0.00000000  0.50000000  0.00000000  1
  Sn  Sn1  1  0.50000000  0.00000000  0.50000000  1
  P  P0  1  0.35311700  0.85400400  0.88943600  1
  P  P1  1  0.14599600  0.64688300  0.61056400  1
  P  P2  1  0.64688300  0.14599600  0.11056400  1
  P  P3  1  0.85400400  0.35311700  0.38943600  1
  O  O0  1  0.28875800  0.60733600  0.92688100  1
  O  O1  1  0.39266400  0.71124200  0.57311900  1
  O  O2  1  0.71124200  0.39266400  0.07311900  1
  O  O3  1  0.60733600  0.28875800  0.42688100  1
  O  O4  1  0.09112300  0.17484500  0.90676700  1
  O  O5  1  0.82515500  0.90887700  0.59323300  1
  O  O6  1  0.90887700  0.82515500  0.09323300  1
  O  O7  1  0.17484500  0.09112300  0.40676700  1
  O  O8  1  0.65076100  0.81599300  0.92400800  1
  O  O9  1  0.18400700  0.34923900  0.57599200  1
  O  O10  1  0.34923900  0.18400700  0.07599200  1
  O  O11  1  0.81599300  0.65076100  0.42400800  1
  O  O12  1  0.40669800  0.82679500  0.78293300  1
  O  O13  1  0.17320500  0.59330200  0.71706700  1
  O  O14  1  0.59330200  0.17320500  0.21706700  1
  O  O15  1  0.82679500  0.40669800  0.28293300  1
  O  O16  1  0.62793900  0.37206100  0.75000000  1
  O  O17  1  0.37206100  0.62793900  0.25000000  1
loop_
_geom_bond_atom_site_label_1
_geom_bond_atom_site_label_2
_geom_bond_distance
_geom_bond_site_symmetry_2
O0 P0 1.524701 1_555
O0 Sn0 2.057185 1_556
O1 P1 1.524701 1_555
O1 Sn1 2.057185 1_565
O2 P2 1.524701 1_555
O2 Sn0 2.057185 1_655
O3 P3 1.524701 1_555
O3 Sn1 2.057185 1_555
O4 P0 1.540922 1_545
O4 Sn0 2.073396 1_556
O5 P1 1.540922 1_655
O5 Sn1 2.073396 1_565
O6 P2 1.540922 1_565
O6 Sn0 2.073396 1_655
O7 P3 1.540922 1_455
O7 Sn1 2.073396 1_555
O8 P0 1.546078 1_555
O8 Sn0 2.055577 1_656
O9 P1 1.546078 1_555
O9 Sn1 2.055577 1_555
O10 P2 1.546078 1_555
O10 Sn0 2.055577 1_555
O11 P3 1.546078 1_555
O11 Sn1 2.055577 1_565
O12 P0 1.593768 1_555
O12 O16 2.089711 1_555
O13 P1 1.593768 1_555
O13 O16 2.089711 1_555
O14 P2 1.593768 1_555
O14 O17 2.089711 1_555
O15 P3 1.593768 1_555
O15 O17 2.089711 1_555
