# generated using pymatgen
data_KHoCoSi2O7
_symmetry_space_group_name_H-M   'P 1'
_cell_length_a   6.42903196
_cell_length_b   6.42903196
_cell_length_c   8.59137321
_cell_angle_alpha   78.41420928
_cell_angle_beta   78.41420928
_cell_angle_gamma   101.79731091
_symmetry_Int_Tables_number   1
_chemical_formula_structural   KHoCoSi2O7
_chemical_formula_sum   'K2 Ho2 Co2 Si4 O14'
_cell_volume   329.50718639
_cell_formula_units_Z   2
loop_
 _symmetry_equiv_pos_site_id
 _symmetry_equiv_pos_as_xyz
  1  'x, y, z'
loop_
 _atom_site_type_symbol
 _atom_site_label
 _atom_site_symmetry_multiplicity
 _atom_site_fract_x
 _atom_site_fract_y
 _atom_site_fract_z
 _atom_site_occupancy
  K  K0  1  0.62498800  0.78918100  0.74206600  1
  K  K1  1  0.21081900  0.37501200  0.25793400  1
  Ho  Ho0  1  0.74232300  0.75705800  0.20466500  1
  Ho  Ho1  1  0.24294200  0.25767700  0.79533500  1
  Co  Co0  1  0.20413900  0.79586100  0.50000000  1
  Co  Co1  1  0.71501800  0.28498200  0.00000000  1
  Si  Si0  1  0.07182600  0.72079400  0.87349500  1
  Si  Si1  1  0.27920600  0.92817400  0.12650500  1
  Si  Si2  1  0.83767200  0.31106700  0.64464600  1
  Si  Si3  1  0.68893300  0.16232800  0.35535400  1
  O  O0  1  0.38987700  0.18906700  0.03888200  1
  O  O1  1  0.11279100  0.88720900  0.00000000  1
  O  O2  1  0.83942000  0.14320500  0.17962600  1
  O  O3  1  0.21416100  0.54201500  0.88379000  1
  O  O4  1  0.45798500  0.78583900  0.11621000  1
  O  O5  1  0.82934500  0.17065500  0.50000000  1
  O  O6  1  0.08896000  0.47540300  0.58449200  1
  O  O7  1  0.52459700  0.91104000  0.41550800  1
  O  O8  1  0.08942500  0.84828300  0.30098300  1
  O  O9  1  0.61273500  0.39110700  0.31899300  1
  O  O10  1  0.15171700  0.91057500  0.69901700  1
  O  O11  1  0.85679500  0.16058000  0.82037400  1
  O  O12  1  0.60889300  0.38726500  0.68100700  1
  O  O13  1  0.81093300  0.61012300  0.96111800  1
loop_
_geom_bond_atom_site_label_1
_geom_bond_atom_site_label_2
_geom_bond_distance
_geom_bond_site_symmetry_2
K0 O13 2.625306 1_555
K0 O3 2.683016 1_555
K0 O12 2.723880 1_555
K0 O5 2.757220 1_565
K0 O11 2.822732 1_565
K0 O7 2.992130 1_555
K0 O4 3.172103 1_556
K0 O10 3.242472 1_655
K0 O10 3.363156 1_555
K1 O0 2.625306 1_555
K1 O4 2.683016 1_555
K1 O9 2.723880 1_555
K1 O5 2.757220 1_455
K1 O2 2.822732 1_455
K1 O6 2.992130 1_555
K1 O3 3.172103 1_554
K1 O8 3.242472 1_545
K1 O8 3.363156 1_555
Ho0 O4 2.143184 1_555
Ho0 O9 2.266213 1_555
Ho0 O2 2.386816 1_565
Ho0 O13 2.461438 1_554
Ho0 O1 2.525199 1_655
Ho0 O8 2.531791 1_655
Ho0 O7 2.547367 1_555
Ho1 O3 2.143184 1_555
Ho1 O12 2.266213 1_555
Ho1 O11 2.386816 1_455
Ho1 O0 2.461438 1_556
Ho1 O1 2.525199 1_546
Ho1 O10 2.531791 1_545
Ho1 O6 2.547367 1_555
Co0 O7 1.969619 1_555
Co0 O6 1.969619 1_555
Co0 O8 1.989393 1_555
Co0 O10 1.989393 1_555
Co1 O13 1.992757 1_554
Co1 O0 1.992757 1_555
Co1 O11 2.020119 1_554
Co1 O2 2.020119 1_555
O0 Si1 1.635833 1_545
O1 Si0 1.691771 1_554
O1 Si1 1.691771 1_555
O2 Si3 1.663419 1_555
O3 Si0 1.608725 1_555
O4 Si1 1.608725 1_555
O5 Si3 1.679178 1_555
O5 Si2 1.679178 1_555
O6 Si2 1.655499 1_455
O7 Si3 1.655499 1_565
O8 Si1 1.642971 1_555
O9 Si3 1.634760 1_555
O10 Si0 1.642971 1_555
O11 Si2 1.663419 1_555
O12 Si2 1.634760 1_555
O13 Si0 1.635833 1_655
