# generated using pymatgen
data_LiCuPO4
_symmetry_space_group_name_H-M   'P 1'
_cell_length_a   5.13138510
_cell_length_b   5.13138510
_cell_length_c   7.95378457
_cell_angle_alpha   86.55689550
_cell_angle_beta   86.55689550
_cell_angle_gamma   120.07217666
_symmetry_Int_Tables_number   1
_chemical_formula_structural   LiCuPO4
_chemical_formula_sum   'Li2 Cu2 P2 O8'
_cell_volume   179.92631368
_cell_formula_units_Z   2
loop_
 _symmetry_equiv_pos_site_id
 _symmetry_equiv_pos_as_xyz
  1  'x, y, z'
loop_
 _atom_site_type_symbol
 _atom_site_label
 _atom_site_symmetry_multiplicity
 _atom_site_fract_x
 _atom_site_fract_y
 _atom_site_fract_z
 _atom_site_occupancy
  Li  Li0  1  0.81691000  0.01107800  0.01734700  1
  Li  Li1  1  0.01107800  0.81691000  0.51734700  1
  Cu  Cu0  1  0.57004700  0.23911300  0.69203700  1
  Cu  Cu1  1  0.23911300  0.57004700  0.19203700  1
  P  P0  1  0.61459100  0.33679300  0.30076800  1
  P  P1  1  0.33679300  0.61459100  0.80076800  1
  O  O0  1  0.29865700  0.05890600  0.31713100  1
  O  O1  1  0.78538900  0.38821100  0.46462600  1
  O  O2  1  0.82829100  0.31518000  0.16124000  1
  O  O3  1  0.61323300  0.63905900  0.25544900  1
  O  O4  1  0.05890600  0.29865700  0.81713100  1
  O  O5  1  0.38821100  0.78538900  0.96462600  1
  O  O6  1  0.31518000  0.82829100  0.66124000  1
  O  O7  1  0.63905900  0.61323300  0.75544900  1
loop_
_geom_bond_atom_site_label_1
_geom_bond_atom_site_label_2
_geom_bond_distance
_geom_bond_site_symmetry_2
Li0 O2 1.969655 1_555
Li0 O4 1.974679 1_654
Li0 O5 1.993039 1_544
Li0 O3 2.377296 1_545
Li1 O6 1.969655 1_555
Li1 O0 1.974679 1_565
Li1 O1 1.993039 1_455
Li1 O7 2.377296 1_455
Cu0 O7 1.876614 1_555
Cu0 O6 1.884653 1_545
Cu0 O1 1.955633 1_555
Cu1 O3 1.876614 1_555
Cu1 O2 1.884653 1_455
Cu1 O5 1.955633 1_554
O0 P0 1.521213 1_555
O1 P0 1.575776 1_555
O2 P0 1.561049 1_555
O3 P0 1.574704 1_555
O4 P1 1.521213 1_555
O5 P1 1.575776 1_555
O6 P1 1.561049 1_555
O7 P1 1.574704 1_555
