# generated using pymatgen
data_V5O9
_symmetry_space_group_name_H-M   'P 1'
_cell_length_a   5.62930600
_cell_length_b   7.10963709
_cell_length_c   8.58128376
_cell_angle_alpha   69.79770779
_cell_angle_beta   74.46412173
_cell_angle_gamma   70.95880567
_symmetry_Int_Tables_number   1
_chemical_formula_structural   V5O9
_chemical_formula_sum   'V10 O18'
_cell_volume   299.98104405
_cell_formula_units_Z   2
loop_
 _symmetry_equiv_pos_site_id
 _symmetry_equiv_pos_as_xyz
  1  'x, y, z'
loop_
 _atom_site_type_symbol
 _atom_site_label
 _atom_site_symmetry_multiplicity
 _atom_site_fract_x
 _atom_site_fract_y
 _atom_site_fract_z
 _atom_site_occupancy
  V  V0  1  0.71969200  0.82477400  0.41765200  1
  V  V1  1  0.28241600  0.17566200  0.57489000  1
  V  V2  1  0.72498700  0.31654300  0.42804600  1
  V  V3  1  0.27374500  0.67993800  0.57709400  1
  V  V4  1  0.36018300  0.65219300  0.21437200  1
  V  V5  1  0.65346500  0.35101400  0.79100000  1
  V  V6  1  0.34077100  0.17147900  0.19877900  1
  V  V7  1  0.63807300  0.84075900  0.80228700  1
  V  V8  1  0.00276100  0.49602000  0.00388100  1
  V  V9  1  0.99231700  0.00209800  0.99559400  1
  O  O0  1  0.05480700  0.20384600  0.41566900  1
  O  O1  1  0.94091800  0.79260400  0.57861800  1
  O  O2  1  0.72051100  0.50729800  0.20472500  1
  O  O3  1  0.29784600  0.48379900  0.79776300  1
  O  O4  1  0.61756200  0.15978500  0.01570800  1
  O  O5  1  0.37381000  0.85007300  0.97121700  1
  O  O6  1  0.90732900  0.80524000  0.91572900  1
  O  O7  1  0.09427800  0.18254900  0.08339800  1
  O  O8  1  0.26415600  0.45893600  0.14386300  1
  O  O9  1  0.74564500  0.53889900  0.86164300  1
  O  O10  1  0.32093800  0.46660000  0.46339600  1
  O  O11  1  0.68466500  0.53508500  0.54015600  1
  O  O12  1  0.00389000  0.19880400  0.75889000  1
  O  O13  1  0.97125900  0.80952200  0.24582500  1
  O  O14  1  0.58063400  0.13280200  0.36529000  1
  O  O15  1  0.42542000  0.86222000  0.63140500  1
  O  O16  1  0.40876100  0.85325600  0.32808400  1
  O  O17  1  0.59916200  0.14820300  0.67502400  1
loop_
_geom_bond_atom_site_label_1
_geom_bond_atom_site_label_2
_geom_bond_distance
_geom_bond_site_symmetry_2
O0 V2 1.755822 1_455
O0 V1 2.032200 1_555
O0 V6 2.134835 1_555
O1 V3 1.779601 1_655
O1 V0 2.007139 1_555
O1 V7 2.242260 1_555
O2 V2 1.928975 1_555
O2 V4 1.946273 1_555
O2 V8 2.011662 1_655
O3 V5 1.909089 1_555
O3 V3 1.933691 1_555
O3 V8 2.081693 1_556
O4 V6 1.896612 1_555
O4 V5 1.940976 1_554
O4 V9 2.032854 1_554
O5 V7 1.779229 1_555
O5 V9 2.055451 1_465
O5 V4 2.072715 1_556
O6 V7 1.918261 1_555
O6 V9 1.983048 1_565
O6 V8 1.998109 1_656
O7 V6 1.876912 1_555
O7 V9 1.980628 1_454
O7 V8 2.021577 1_555
O8 V6 1.858337 1_555
O8 V4 1.944265 1_555
O8 V8 2.037808 1_555
O9 V5 1.897676 1_555
O9 V7 1.947871 1_555
O9 V8 2.019690 1_656
O10 V3 1.985798 1_555
O10 V1 2.013862 1_555
O10 V4 2.084765 1_555
O10 V2 2.161990 1_555
O11 V0 2.011077 1_555
O11 V2 2.019039 1_555
O11 V5 2.092567 1_555
O11 V3 2.188656 1_555
O12 V5 1.913169 1_455
O12 V1 1.914012 1_555
O12 V9 2.027936 1_455
O13 V0 1.755859 1_555
O13 V4 2.100336 1_655
O13 V9 2.106778 1_564
O14 V0 2.000209 1_545
O14 V2 2.017374 1_555
O14 V6 2.111966 1_555
O14 V1 2.138564 1_555
O15 V3 1.994508 1_555
O15 V1 2.035052 1_565
O15 V7 2.067176 1_555
O15 V0 2.145087 1_555
O16 V0 2.019233 1_555
O16 V6 2.103567 1_565
O16 V4 2.105184 1_555
O16 V3 2.141168 1_555
O17 V7 2.045837 1_545
O17 V2 2.103087 1_555
O17 V1 2.105594 1_555
O17 V5 2.145864 1_555
