# generated using pymatgen
data_ZrFeP3PbO12
_symmetry_space_group_name_H-M   'P 1'
_cell_length_a   9.35135724
_cell_length_b   9.35135724
_cell_length_c   9.35135669
_cell_angle_alpha   56.01506746
_cell_angle_beta   56.01506746
_cell_angle_gamma   56.01506844
_symmetry_Int_Tables_number   1
_chemical_formula_structural   ZrFeP3PbO12
_chemical_formula_sum   'Zr2 Fe2 P6 Pb2 O24'
_cell_volume   524.86194747
_cell_formula_units_Z   2
loop_
 _symmetry_equiv_pos_site_id
 _symmetry_equiv_pos_as_xyz
  1  'x, y, z'
loop_
 _atom_site_type_symbol
 _atom_site_label
 _atom_site_symmetry_multiplicity
 _atom_site_fract_x
 _atom_site_fract_y
 _atom_site_fract_z
 _atom_site_occupancy
  Zr  Zr0  1  0.85392600  0.85392600  0.85392600  1
  Zr  Zr1  1  0.35392600  0.35392600  0.35392600  1
  Fe  Fe0  1  0.65345700  0.65345700  0.65345700  1
  Fe  Fe1  1  0.15345700  0.15345700  0.15345700  1
  P  P0  1  0.95607200  0.26341400  0.52587900  1
  P  P1  1  0.52587900  0.95607200  0.26341400  1
  P  P2  1  0.26341400  0.52587900  0.95607200  1
  P  P3  1  0.76341400  0.45607200  0.02587900  1
  P  P4  1  0.45607200  0.02587900  0.76341400  1
  P  P5  1  0.02587900  0.76341400  0.45607200  1
  Pb  Pb0  1  0.01252500  0.01252500  0.01252500  1
  Pb  Pb1  1  0.51252500  0.51252500  0.51252500  1
  O  O0  1  0.85905400  0.74388500  0.48378900  1
  O  O1  1  0.74388500  0.48378900  0.85905400  1
  O  O2  1  0.48378900  0.85905400  0.74388500  1
  O  O3  1  0.92170400  0.09322200  0.70435900  1
  O  O4  1  0.78175200  0.44032900  0.54919500  1
  O  O5  1  0.98378900  0.24388500  0.35905400  1
  O  O6  1  0.70435900  0.92170400  0.09322200  1
  O  O7  1  0.54919500  0.78175200  0.44032900  1
  O  O8  1  0.44032900  0.54919500  0.78175200  1
  O  O9  1  0.78214000  0.62135400  0.00394500  1
  O  O10  1  0.94032900  0.28175200  0.04919500  1
  O  O11  1  0.62135400  0.00394500  0.78214000  1
  O  O12  1  0.35905400  0.98378900  0.24388500  1
  O  O13  1  0.09322200  0.70435900  0.92170400  1
  O  O14  1  0.24388500  0.35905400  0.98378900  1
  O  O15  1  0.59322200  0.42170400  0.20435900  1
  O  O16  1  0.42170400  0.20435900  0.59322200  1
  O  O17  1  0.28175200  0.04919500  0.94032900  1
  O  O18  1  0.00394500  0.78214000  0.62135400  1
  O  O19  1  0.20435900  0.59322200  0.42170400  1
  O  O20  1  0.04919500  0.94032900  0.28175200  1
  O  O21  1  0.50394500  0.12135400  0.28214000  1
  O  O22  1  0.28214000  0.50394500  0.12135400  1
  O  O23  1  0.12135400  0.28214000  0.50394500  1
loop_
_geom_bond_atom_site_label_1
_geom_bond_atom_site_label_2
_geom_bond_distance
_geom_bond_site_symmetry_2
Fe0 O1 1.958637 1_555
Fe0 O0 1.958637 1_555
Fe0 O2 1.958637 1_555
Fe0 O7 2.133943 1_555
Fe0 O4 2.133943 1_555
Fe0 O8 2.133943 1_555
Fe1 O5 1.958637 1_455
Fe1 O14 1.958637 1_554
Fe1 O12 1.958637 1_545
Fe1 O17 2.133943 1_554
Fe1 O10 2.133943 1_455
Fe1 O20 2.133943 1_545
O0 P5 1.532253 1_655
O1 P3 1.532253 1_556
O2 P4 1.532253 1_565
O3 P0 1.557063 1_555
O3 Zr0 2.112111 1_545
O4 P0 1.559752 1_555
O4 Pb1 2.391238 1_555
O5 P0 1.532253 1_555
O6 P1 1.557063 1_555
O6 Zr0 2.112111 1_554
O7 P1 1.559752 1_555
O7 Pb1 2.391238 1_555
O8 P2 1.559752 1_555
O8 Pb1 2.391238 1_555
O9 P3 1.539370 1_555
O9 Zr0 2.077776 1_554
O10 P3 1.559752 1_555
O10 Pb0 2.391238 1_655
O11 P4 1.539370 1_555
O11 Zr0 2.077776 1_545
O12 P1 1.532253 1_555
O13 P2 1.557063 1_555
O13 Zr0 2.112111 1_455
O14 P2 1.532253 1_555
O15 P3 1.557063 1_555
O15 Zr1 2.112111 1_555
O16 P4 1.557063 1_555
O16 Zr1 2.112111 1_555
O17 P4 1.559752 1_555
O17 Pb0 2.391238 1_556
O18 P5 1.539370 1_555
O18 Zr0 2.077776 1_455
O19 P5 1.557063 1_555
O19 Zr1 2.112111 1_555
O20 P5 1.559752 1_555
O20 Pb0 2.391238 1_565
O21 P1 1.539370 1_545
O21 Zr1 2.077776 1_555
O22 P2 1.539370 1_554
O22 Zr1 2.077776 1_555
O23 P0 1.539370 1_455
O23 Zr1 2.077776 1_555
