# generated using pymatgen
data_Ba2YCl7
_symmetry_space_group_name_H-M   'P 1'
_cell_length_a   14.30365400
_cell_length_b   7.68799100
_cell_length_c   12.10923146
_cell_angle_alpha   80.36298188
_cell_angle_beta   90.00000000
_cell_angle_gamma   90.00000000
_symmetry_Int_Tables_number   1
_chemical_formula_structural   Ba2YCl7
_chemical_formula_sum   'Ba8 Y4 Cl28'
_cell_volume   1312.81660244
_cell_formula_units_Z   4
loop_
 _symmetry_equiv_pos_site_id
 _symmetry_equiv_pos_as_xyz
  1  'x, y, z'
loop_
 _atom_site_type_symbol
 _atom_site_label
 _atom_site_symmetry_multiplicity
 _atom_site_fract_x
 _atom_site_fract_y
 _atom_site_fract_z
 _atom_site_occupancy
  Ba  Ba0  1  0.56562600  0.32828900  0.17055600  1
  Ba  Ba1  1  0.87860400  0.19463300  0.20924300  1
  Ba  Ba2  1  0.37860400  0.80536700  0.29075700  1
  Ba  Ba3  1  0.06562600  0.67171100  0.32944400  1
  Ba  Ba4  1  0.93437400  0.32828900  0.67055600  1
  Ba  Ba5  1  0.62139600  0.19463300  0.70924300  1
  Ba  Ba6  1  0.12139600  0.80536700  0.79075700  1
  Ba  Ba7  1  0.43437400  0.67171100  0.82944400  1
  Y  Y0  1  0.20641600  0.16276800  0.01520500  1
  Y  Y1  1  0.70641600  0.83723200  0.48479500  1
  Y  Y2  1  0.29358400  0.16276800  0.51520500  1
  Y  Y3  1  0.79358400  0.83723200  0.98479500  1
  Cl  Cl0  1  0.18829800  0.82710100  0.11331100  1
  Cl  Cl1  1  0.37429400  0.15154600  0.10849700  1
  Cl  Cl2  1  0.43523400  0.63538100  0.09202300  1
  Cl  Cl3  1  0.94232100  0.85844900  0.11445400  1
  Cl  Cl4  1  0.09018900  0.32127900  0.14033400  1
  Cl  Cl5  1  0.70299800  0.99854100  0.13780200  1
  Cl  Cl6  1  0.75651500  0.52569000  0.11558600  1
  Cl  Cl7  1  0.25651500  0.47431000  0.38441400  1
  Cl  Cl8  1  0.20299800  0.00145900  0.36219800  1
  Cl  Cl9  1  0.59018900  0.67872100  0.35966600  1
  Cl  Cl10  1  0.44232100  0.14155100  0.38554600  1
  Cl  Cl11  1  0.93523400  0.36461900  0.40797700  1
  Cl  Cl12  1  0.87429400  0.84845400  0.39150300  1
  Cl  Cl13  1  0.68829800  0.17289900  0.38668900  1
  Cl  Cl14  1  0.31170200  0.82710100  0.61331100  1
  Cl  Cl15  1  0.12570600  0.15154600  0.60849700  1
  Cl  Cl16  1  0.06476600  0.63538100  0.59202300  1
  Cl  Cl17  1  0.55767900  0.85844900  0.61445400  1
  Cl  Cl18  1  0.40981100  0.32127900  0.64033400  1
  Cl  Cl19  1  0.79700200  0.99854100  0.63780200  1
  Cl  Cl20  1  0.74348500  0.52569000  0.61558600  1
  Cl  Cl21  1  0.24348500  0.47431000  0.88441400  1
  Cl  Cl22  1  0.29700200  0.00145900  0.86219800  1
  Cl  Cl23  1  0.90981100  0.67872100  0.85966600  1
  Cl  Cl24  1  0.05767900  0.14155100  0.88554600  1
  Cl  Cl25  1  0.56476600  0.36461900  0.90797700  1
  Cl  Cl26  1  0.62570600  0.84845400  0.89150300  1
  Cl  Cl27  1  0.81170200  0.17289900  0.88668900  1
loop_
_geom_bond_atom_site_label_1
_geom_bond_atom_site_label_2
_geom_bond_distance
_geom_bond_site_symmetry_2
Ba0 Cl2 3.033994 1_555
Ba0 Cl6 3.140567 1_555
Ba0 Cl25 3.144975 1_554
Ba0 Cl1 3.200427 1_555
Ba0 Cl13 3.210750 1_555
Ba0 Cl10 3.270763 1_555
Ba0 Cl5 3.283536 1_545
Ba1 Cl11 3.034513 1_555
Ba1 Cl5 3.125210 1_545
Ba1 Cl3 3.133917 1_545
Ba1 Cl6 3.138035 1_555
Ba1 Cl12 3.160903 1_545
Ba1 Cl4 3.245242 1_655
Ba1 Cl13 3.454626 1_555
Ba2 Cl2 3.034513 1_555
Ba2 Cl8 3.125210 1_565
Ba2 Cl10 3.133917 1_565
Ba2 Cl7 3.138035 1_555
Ba2 Cl1 3.160903 1_565
Ba2 Cl9 3.245242 1_555
Ba2 Cl0 3.454626 1_555
Ba3 Cl11 3.033994 1_455
Ba3 Cl7 3.140567 1_555
Ba3 Cl16 3.144975 1_555
Ba3 Cl12 3.200427 1_455
Ba3 Cl0 3.210750 1_555
Ba3 Cl3 3.270763 1_455
Ba3 Cl8 3.283536 1_565
Ba4 Cl16 3.033994 1_655
Ba4 Cl20 3.140567 1_555
Ba4 Cl11 3.144975 1_555
Ba4 Cl15 3.200427 1_655
Ba4 Cl27 3.210750 1_555
Ba4 Cl24 3.270763 1_655
Ba4 Cl19 3.283536 1_545
Ba5 Cl25 3.034513 1_555
Ba5 Cl19 3.125210 1_545
Ba5 Cl17 3.133917 1_545
Ba5 Cl20 3.138035 1_555
Ba5 Cl26 3.160903 1_545
Ba5 Cl18 3.245242 1_555
Ba5 Cl27 3.454626 1_555
Ba6 Cl16 3.034513 1_555
Ba6 Cl22 3.125210 1_565
Ba6 Cl24 3.133917 1_565
Ba6 Cl21 3.138035 1_555
Ba6 Cl15 3.160903 1_565
Ba6 Cl23 3.245242 1_455
Ba6 Cl14 3.454626 1_555
Ba7 Cl25 3.033994 1_555
Ba7 Cl21 3.140567 1_555
Ba7 Cl2 3.144975 1_556
Ba7 Cl26 3.200427 1_555
Ba7 Cl14 3.210750 1_555
Ba7 Cl17 3.270763 1_555
Ba7 Cl22 3.283536 1_565
Cl0 Y0 2.666750 1_565
Cl1 Y0 2.648983 1_555
Cl3 Y3 2.665269 1_554
Cl4 Y0 2.676374 1_555
Cl5 Y3 2.723781 1_554
Cl6 Y3 2.693713 1_554
Cl7 Y2 2.693713 1_555
Cl8 Y2 2.723781 1_555
Cl9 Y1 2.676374 1_555
Cl10 Y2 2.665269 1_555
Cl12 Y1 2.648983 1_555
Cl13 Y1 2.666750 1_545
Cl14 Y2 2.666750 1_565
Cl15 Y2 2.648983 1_555
Cl17 Y1 2.665269 1_555
Cl18 Y2 2.676374 1_555
Cl19 Y1 2.723781 1_555
Cl20 Y1 2.693713 1_555
Cl21 Y0 2.693713 1_556
Cl22 Y0 2.723781 1_556
Cl23 Y3 2.676374 1_555
Cl24 Y0 2.665269 1_556
Cl26 Y3 2.648983 1_555
Cl27 Y3 2.666750 1_545
