# generated using pymatgen
data_LiV6O7F5
_symmetry_space_group_name_H-M   'P 1'
_cell_length_a   6.59720200
_cell_length_b   7.01101800
_cell_length_c   9.26447791
_cell_angle_alpha   89.48660886
_cell_angle_beta   90.00000000
_cell_angle_gamma   90.00000000
_symmetry_Int_Tables_number   1
_chemical_formula_structural   LiV6O7F5
_chemical_formula_sum   'Li2 V12 O14 F10'
_cell_volume   428.49363949
_cell_formula_units_Z   2
loop_
 _symmetry_equiv_pos_site_id
 _symmetry_equiv_pos_as_xyz
  1  'x, y, z'
loop_
 _atom_site_type_symbol
 _atom_site_label
 _atom_site_symmetry_multiplicity
 _atom_site_fract_x
 _atom_site_fract_y
 _atom_site_fract_z
 _atom_site_occupancy
  Li  Li0  1  0.73984900  0.75960300  0.26157300  1
  Li  Li1  1  0.73984900  0.24039700  0.73842700  1
  V  V0  1  0.96979200  0.00000000  0.00000000  1
  V  V1  1  0.50678400  0.00000000  0.50000000  1
  V  V2  1  0.49766000  0.95441500  0.82856400  1
  V  V3  1  0.01344400  0.00450400  0.32792600  1
  V  V4  1  0.49405800  0.51995400  0.67017700  1
  V  V5  1  0.49405800  0.48004600  0.32982300  1
  V  V6  1  0.47968000  0.50000000  0.00000000  1
  V  V7  1  0.01534100  0.52528200  0.17261700  1
  V  V8  1  0.00099100  0.50000000  0.50000000  1
  V  V9  1  0.49766000  0.04558500  0.17143600  1
  V  V10  1  0.01534100  0.47471800  0.82738300  1
  V  V11  1  0.01344400  0.99549600  0.67207400  1
  O  O0  1  0.70840200  0.99480800  0.66458600  1
  O  O1  1  0.67690200  0.00000000  0.00000000  1
  O  O2  1  0.30876500  0.98818900  0.66482600  1
  O  O3  1  0.80264800  0.51258600  0.33256800  1
  O  O4  1  0.80264800  0.48741400  0.66743200  1
  O  O5  1  0.49904800  0.68342300  0.83740700  1
  O  O6  1  0.99218200  0.81233200  0.16786900  1
  O  O7  1  0.49904800  0.31657700  0.16259300  1
  O  O8  1  0.20439000  0.50104300  0.34068200  1
  O  O9  1  0.20439000  0.49895700  0.65931800  1
  O  O10  1  0.18904800  0.50000000  0.00000000  1
  O  O11  1  0.70840200  0.00519200  0.33541400  1
  O  O12  1  0.30876500  0.01181100  0.33517400  1
  O  O13  1  0.99218200  0.18766800  0.83213100  1
  F  F0  1  0.99830100  0.79325800  0.83695700  1
  F  F1  1  0.28483700  0.00000000  0.00000000  1
  F  F2  1  0.79745300  0.50000000  0.00000000  1
  F  F3  1  0.49757100  0.70089400  0.16864500  1
  F  F4  1  0.50844400  0.69746000  0.49224600  1
  F  F5  1  0.99830100  0.20674200  0.16304300  1
  F  F6  1  0.00469300  0.80528800  0.49913400  1
  F  F7  1  0.50844400  0.30254000  0.50775400  1
  F  F8  1  0.49757100  0.29910600  0.83135500  1
  F  F9  1  0.00469300  0.19471200  0.50086600  1
loop_
_geom_bond_atom_site_label_1
_geom_bond_atom_site_label_2
_geom_bond_distance
_geom_bond_site_symmetry_2
Li0 O11 1.869982 1_565
Li0 O3 1.892911 1_555
Li0 O6 1.912000 1_555
Li1 O0 1.869982 1_545
Li1 O4 1.892911 1_555
Li1 O13 1.912000 1_555
O0 V11 2.013626 1_655
O0 V1 2.023502 1_565
O0 V2 2.076854 1_555
O1 V0 1.932254 1_555
O1 V9 2.008014 1_555
O1 V2 2.008014 1_544
O2 V11 1.950138 1_555
O2 V2 1.975784 1_555
O2 V1 2.010723 1_565
O3 V8 2.030679 1_655
O3 V7 2.042152 1_655
O3 V5 2.048757 1_555
O4 V8 2.030679 1_655
O4 V10 2.042152 1_655
O4 V4 2.048757 1_555
O5 V2 1.900984 1_555
O5 V4 1.935649 1_555
O5 V6 1.975960 1_556
O6 V3 2.017320 1_665
O6 V7 2.018390 1_655
O6 V0 2.033479 1_565
O7 V9 1.900984 1_555
O7 V5 1.935649 1_555
O7 V6 1.975960 1_555
O8 V5 1.919368 1_555
O8 V8 1.994751 1_555
O8 V7 2.000997 1_555
O9 V4 1.919368 1_555
O9 V8 1.994751 1_555
O9 V10 2.000997 1_555
O10 V6 1.917358 1_555
O10 V7 1.976671 1_555
O10 V10 1.976671 1_554
O11 V3 2.013626 1_655
O11 V1 2.023502 1_555
O11 V9 2.076854 1_555
O12 V3 1.950138 1_555
O12 V9 1.975784 1_555
O12 V1 2.010723 1_555
O13 V11 2.017320 1_645
O13 V10 2.018390 1_655
O13 V0 2.033479 1_556
F0 V11 2.077261 1_655
F0 V0 2.111211 1_566
F0 V10 2.238669 1_655
F1 V0 2.078416 1_455
F1 V2 2.145960 1_544
F1 V9 2.145960 1_555
F2 V6 2.096413 1_555
F2 V7 2.158755 1_655
F2 V10 2.158755 1_654
F3 Li0 1.863255 1_555
F3 V6 2.116194 1_555
F3 V5 2.141562 1_555
F3 V9 2.417005 1_565
F4 V4 2.058729 1_555
F4 V1 2.123001 1_565
F4 V5 2.153578 1_555
F5 V3 2.077261 1_655
F5 V0 2.111211 1_555
F5 V7 2.238669 1_655
F6 V11 2.094522 1_555
F6 V3 2.104828 1_565
F6 V8 2.140462 1_555
F7 V5 2.058729 1_555
F7 V1 2.123001 1_555
F7 V4 2.153578 1_555
F8 Li1 1.863255 1_555
F8 V6 2.116194 1_556
F8 V4 2.141562 1_555
F8 V2 2.417005 1_545
F9 V3 2.094522 1_555
F9 V11 2.104828 1_545
F9 V8 2.140462 1_555
