# generated using pymatgen
data_Mg(CO3)2
_symmetry_space_group_name_H-M   'P 1'
_cell_length_a   7.87760400
_cell_length_b   7.85839900
_cell_length_c   9.05438934
_cell_angle_alpha   80.86888300
_cell_angle_beta   90.00000000
_cell_angle_gamma   90.00000000
_symmetry_Int_Tables_number   1
_chemical_formula_structural   Mg(CO3)2
_chemical_formula_sum   'Mg4 C8 O24'
_cell_volume   553.41221037
_cell_formula_units_Z   4
loop_
 _symmetry_equiv_pos_site_id
 _symmetry_equiv_pos_as_xyz
  1  'x, y, z'
loop_
 _atom_site_type_symbol
 _atom_site_label
 _atom_site_symmetry_multiplicity
 _atom_site_fract_x
 _atom_site_fract_y
 _atom_site_fract_z
 _atom_site_occupancy
  Mg  Mg0  1  0.50000000  0.00000000  0.50000000  1
  Mg  Mg1  1  0.00000000  0.00000000  0.00000000  1
  Mg  Mg2  1  0.00000000  0.50000000  0.50000000  1
  Mg  Mg3  1  0.50000000  0.50000000  0.00000000  1
  C  C0  1  0.67760100  0.83196300  0.82104500  1
  C  C1  1  0.17760100  0.16803700  0.67895500  1
  C  C2  1  0.32239900  0.16803700  0.17895500  1
  C  C3  1  0.82239900  0.83196300  0.32104500  1
  C  C4  1  0.23517600  0.69061700  0.98514400  1
  C  C5  1  0.73517600  0.30938300  0.51485600  1
  C  C6  1  0.76482400  0.30938300  0.01485600  1
  C  C7  1  0.26482400  0.69061700  0.48514400  1
  O  O0  1  0.61020500  0.92041400  0.70619000  1
  O  O1  1  0.11020500  0.07958600  0.79381000  1
  O  O2  1  0.38979500  0.07958600  0.29381000  1
  O  O3  1  0.88979500  0.92041400  0.20619000  1
  O  O4  1  0.77837700  0.90468700  0.90194700  1
  O  O5  1  0.27837700  0.09531300  0.59805300  1
  O  O6  1  0.22162300  0.09531300  0.09805300  1
  O  O7  1  0.72162300  0.90468700  0.40194700  1
  O  O8  1  0.26128400  0.58529200  0.89212100  1
  O  O9  1  0.76128400  0.41470800  0.60787900  1
  O  O10  1  0.73871600  0.41470800  0.10787900  1
  O  O11  1  0.23871600  0.58529200  0.39212100  1
  O  O12  1  0.09308000  0.75856900  0.00381100  1
  O  O13  1  0.59308000  0.24143100  0.49618900  1
  O  O14  1  0.90692000  0.24143100  0.99618900  1
  O  O15  1  0.40692000  0.75856900  0.50381100  1
  O  O16  1  0.13007000  0.71728700  0.55966800  1
  O  O17  1  0.63007000  0.28271300  0.94033200  1
  O  O18  1  0.86993000  0.28271300  0.44033200  1
  O  O19  1  0.36993000  0.71728700  0.05966800  1
  O  O20  1  0.64454400  0.67081900  0.85577400  1
  O  O21  1  0.14454400  0.32918100  0.64422600  1
  O  O22  1  0.35545600  0.32918100  0.14422600  1
  O  O23  1  0.85545600  0.67081900  0.35577400  1
loop_
_geom_bond_atom_site_label_1
_geom_bond_atom_site_label_2
_geom_bond_distance
_geom_bond_site_symmetry_2
Mg0 O15 2.029203 1_545
Mg0 O13 2.029203 1_555
Mg0 O0 2.063894 1_545
Mg0 O2 2.063894 1_555
Mg0 O5 2.146694 1_555
Mg0 O7 2.146694 1_545
Mg1 O12 2.029203 1_545
Mg1 O14 2.029203 1_454
Mg1 O1 2.063894 1_554
Mg1 O3 2.063894 1_445
Mg1 O4 2.146694 1_444
Mg1 O6 2.146694 1_555
Mg2 O21 2.060931 1_555
Mg2 O23 2.060931 1_455
Mg2 O16 2.133122 1_555
Mg2 O18 2.133122 1_455
Mg2 O9 2.175286 1_455
Mg2 O11 2.175286 1_555
Mg3 O20 2.060931 1_554
Mg3 O22 2.060931 1_555
Mg3 O19 2.133122 1_555
Mg3 O17 2.133122 1_554
Mg3 O8 2.175286 1_554
Mg3 O10 2.175286 1_555
C0 O0 1.271641 1_555
C0 O4 1.275262 1_555
C0 O20 1.282150 1_555
C1 O1 1.271641 1_555
C1 O5 1.275262 1_555
C1 O21 1.282150 1_555
C2 O2 1.271641 1_555
C2 O6 1.275262 1_555
C2 O22 1.282150 1_555
C3 O3 1.271641 1_555
C3 O7 1.275262 1_555
C3 O23 1.282150 1_555
C4 O12 1.263078 1_556
C4 O8 1.287648 1_555
C4 O19 1.292667 1_556
C5 O13 1.263078 1_555
C5 O9 1.287648 1_555
C5 O18 1.292667 1_555
C6 O14 1.263078 1_554
C6 O10 1.287648 1_555
C6 O17 1.292667 1_554
C7 O15 1.263078 1_555
C7 O11 1.287648 1_555
C7 O16 1.292667 1_555
