# generated using pymatgen
data_P3(PbO5)2
_symmetry_space_group_name_H-M   'P 1'
_cell_length_a   8.01614653
_cell_length_b   8.01614653
_cell_length_c   5.00939645
_cell_angle_alpha   86.90681662
_cell_angle_beta   86.90681662
_cell_angle_gamma   138.30668230
_symmetry_Int_Tables_number   1
_chemical_formula_structural   P3(PbO5)2
_chemical_formula_sum   'P3 Pb2 O10'
_cell_volume   211.63187880
_cell_formula_units_Z   1
loop_
 _symmetry_equiv_pos_site_id
 _symmetry_equiv_pos_as_xyz
  1  'x, y, z'
loop_
 _atom_site_type_symbol
 _atom_site_label
 _atom_site_symmetry_multiplicity
 _atom_site_fract_x
 _atom_site_fract_y
 _atom_site_fract_z
 _atom_site_occupancy
  P  P0  1  0.57415400  0.57415400  0.76330100  1
  P  P1  1  0.60888200  0.28719500  0.47700800  1
  P  P2  1  0.28719500  0.60888200  0.47700800  1
  Pb  Pb0  1  0.17748900  0.88247400  0.01855900  1
  Pb  Pb1  1  0.88247400  0.17748900  0.01855900  1
  O  O0  1  0.34355400  0.11445600  0.40294500  1
  O  O1  1  0.11445600  0.34355400  0.40294500  1
  O  O2  1  0.31763500  0.31763500  0.89303500  1
  O  O3  1  0.76937300  0.76937300  0.93842800  1
  O  O4  1  0.39961400  0.81397900  0.24495100  1
  O  O5  1  0.81397900  0.39961400  0.24495100  1
  O  O6  1  0.59360200  0.15626800  0.73215500  1
  O  O7  1  0.15626800  0.59360200  0.73215500  1
  O  O8  1  0.71318600  0.54500600  0.56218900  1
  O  O9  1  0.54500600  0.71318600  0.56218900  1
loop_
_geom_bond_atom_site_label_1
_geom_bond_atom_site_label_2
_geom_bond_distance
_geom_bond_site_symmetry_2
O0 P1 1.523494 1_555
O0 Pb0 2.429814 1_545
O1 P2 1.523494 1_555
O1 Pb1 2.429814 1_455
O2 P0 1.508596 1_555
O2 Pb0 2.767723 1_546
O2 Pb1 2.767723 1_456
O3 P0 1.518712 1_555
O3 Pb0 2.727144 1_656
O3 Pb1 2.727144 1_566
O4 P2 1.527900 1_555
O4 Pb0 2.523670 1_555
O4 Pb1 2.661704 1_565
O5 P1 1.527900 1_555
O5 Pb1 2.523670 1_555
O5 Pb0 2.661704 1_655
O6 P1 1.548060 1_555
O6 Pb0 2.492428 1_546
O6 Pb1 2.691861 1_556
O7 P2 1.548060 1_555
O7 Pb1 2.492428 1_456
O7 Pb0 2.691861 1_556
O8 P0 1.613938 1_555
O8 P1 1.644778 1_555
O9 P0 1.613938 1_555
O9 P2 1.644778 1_555
