# generated using pymatgen
data_EuH4S2NO8
_symmetry_space_group_name_H-M   'P 1'
_cell_length_a   7.22084900
_cell_length_b   8.99647800
_cell_length_c   10.87925714
_cell_angle_alpha   88.64500458
_cell_angle_beta   90.00000000
_cell_angle_gamma   90.00000000
_symmetry_Int_Tables_number   1
_chemical_formula_structural   EuH4S2NO8
_chemical_formula_sum   'Eu4 H16 S8 N4 O32'
_cell_volume   706.54295381
_cell_formula_units_Z   4
loop_
 _symmetry_equiv_pos_site_id
 _symmetry_equiv_pos_as_xyz
  1  'x, y, z'
loop_
 _atom_site_type_symbol
 _atom_site_label
 _atom_site_symmetry_multiplicity
 _atom_site_fract_x
 _atom_site_fract_y
 _atom_site_fract_z
 _atom_site_occupancy
  Eu  Eu0  1  0.32911900  0.94766700  0.84808800  1
  Eu  Eu1  1  0.17088100  0.94766700  0.34808800  1
  Eu  Eu2  1  0.82911900  0.05233300  0.65191200  1
  Eu  Eu3  1  0.67088100  0.05233300  0.15191200  1
  H  H0  1  0.54820800  0.64909000  0.65309500  1
  H  H1  1  0.95179200  0.64909000  0.15309500  1
  H  H2  1  0.76926400  0.60159300  0.61796700  1
  H  H3  1  0.73073600  0.60159300  0.11796700  1
  H  H4  1  0.66867900  0.53627000  0.74799500  1
  H  H5  1  0.83132100  0.53627000  0.24799500  1
  H  H6  1  0.10040800  0.52651500  0.88782400  1
  H  H7  1  0.39959200  0.52651500  0.38782400  1
  H  H8  1  0.60040800  0.47348500  0.61217600  1
  H  H9  1  0.89959200  0.47348500  0.11217600  1
  H  H10  1  0.16867900  0.46373000  0.75200500  1
  H  H11  1  0.33132100  0.46373000  0.25200500  1
  H  H12  1  0.26926400  0.39840700  0.88203300  1
  H  H13  1  0.23073600  0.39840700  0.38203300  1
  H  H14  1  0.04820800  0.35091000  0.84690500  1
  H  H15  1  0.45179200  0.35091000  0.34690500  1
  S  S0  1  0.83223800  0.82513900  0.88680700  1
  S  S1  1  0.66776200  0.82513900  0.38680700  1
  S  S2  1  0.16461500  0.73660000  0.58482900  1
  S  S3  1  0.33538500  0.73660000  0.08482900  1
  S  S4  1  0.66461500  0.26340000  0.91517100  1
  S  S5  1  0.83538500  0.26340000  0.41517100  1
  S  S6  1  0.33223800  0.17486100  0.61319300  1
  S  S7  1  0.16776200  0.17486100  0.11319300  1
  N  N0  1  0.64661800  0.56597700  0.65710700  1
  N  N1  1  0.85338200  0.56597700  0.15710700  1
  N  N2  1  0.14661800  0.43402300  0.84289300  1
  N  N3  1  0.35338200  0.43402300  0.34289300  1
  O  O0  1  0.98860400  0.89944400  0.81649100  1
  O  O1  1  0.51139600  0.89944400  0.31649100  1
  O  O2  1  0.67288300  0.88576200  0.51155900  1
  O  O3  1  0.66481400  0.87102100  0.81147000  1
  O  O4  1  0.04978300  0.87355500  0.55807100  1
  O  O5  1  0.82711700  0.88576200  0.01155900  1
  O  O6  1  0.83518600  0.87102100  0.31147000  1
  O  O7  1  0.45021700  0.87355500  0.05807100  1
  O  O8  1  0.30708400  0.76848100  0.67982800  1
  O  O9  1  0.19291600  0.76848100  0.17982800  1
  O  O10  1  0.24189900  0.71232200  0.96452400  1
  O  O11  1  0.25810100  0.71232200  0.46452400  1
  O  O12  1  0.84902300  0.66366400  0.89086200  1
  O  O13  1  0.65097700  0.66366400  0.39086200  1
  O  O14  1  0.04837300  0.61133900  0.62345600  1
  O  O15  1  0.45162700  0.61133900  0.12345600  1
  O  O16  1  0.54837300  0.38866100  0.87654400  1
  O  O17  1  0.95162700  0.38866100  0.37654400  1
  O  O18  1  0.34902300  0.33633600  0.60913800  1
  O  O19  1  0.15097700  0.33633600  0.10913800  1
  O  O20  1  0.74189900  0.28767800  0.53547600  1
  O  O21  1  0.75810100  0.28767800  0.03547600  1
  O  O22  1  0.80708400  0.23151900  0.82017200  1
  O  O23  1  0.69291600  0.23151900  0.32017200  1
  O  O24  1  0.54978300  0.12644500  0.94192900  1
  O  O25  1  0.16481400  0.12897900  0.68853000  1
  O  O26  1  0.17288300  0.11423800  0.98844100  1
  O  O27  1  0.95021700  0.12644500  0.44192900  1
  O  O28  1  0.33518600  0.12897900  0.18853000  1
  O  O29  1  0.32711700  0.11423800  0.48844100  1
  O  O30  1  0.48860400  0.10055600  0.68350900  1
  O  O31  1  0.01139600  0.10055600  0.18350900  1
loop_
_geom_bond_atom_site_label_1
_geom_bond_atom_site_label_2
_geom_bond_distance
_geom_bond_site_symmetry_2
Eu0 O26 2.440932 1_565
Eu0 O8 2.472741 1_555
Eu0 O24 2.499132 1_565
Eu0 O30 2.511479 1_565
Eu0 O7 2.521090 1_556
Eu0 O10 2.521366 1_555
Eu0 O0 2.521739 1_455
Eu0 O3 2.554008 1_555
Eu0 O25 2.635840 1_565
Eu1 O29 2.440932 1_565
Eu1 O9 2.472741 1_555
Eu1 O27 2.499132 1_465
Eu1 O31 2.511479 1_565
Eu1 O4 2.521090 1_555
Eu1 O11 2.521366 1_555
Eu1 O1 2.521739 1_555
Eu1 O6 2.554008 1_455
Eu1 O28 2.635840 1_565
Eu2 O2 2.440932 1_545
Eu2 O22 2.472741 1_555
Eu2 O4 2.499132 1_645
Eu2 O0 2.511479 1_545
Eu2 O27 2.521090 1_555
Eu2 O20 2.521366 1_555
Eu2 O30 2.521739 1_555
Eu2 O25 2.554008 1_655
Eu2 O3 2.635840 1_545
Eu3 O5 2.440932 1_545
Eu3 O23 2.472741 1_555
Eu3 O7 2.499132 1_545
Eu3 O1 2.511479 1_545
Eu3 O24 2.521090 1_554
Eu3 O21 2.521366 1_555
Eu3 O31 2.521739 1_655
Eu3 O28 2.554008 1_555
Eu3 O6 2.635840 1_545
H0 N0 1.031703 1_555
H1 N1 1.031703 1_555
H2 N0 1.030454 1_555
H3 N1 1.030454 1_555
H4 N0 1.030543 1_555
H5 N1 1.030543 1_555
H6 N2 1.030491 1_555
H7 N3 1.030491 1_555
H8 N0 1.030491 1_555
H9 N1 1.030491 1_555
H10 N2 1.030543 1_555
H11 N3 1.030543 1_555
H12 N2 1.030454 1_555
H13 N3 1.030454 1_555
H14 N2 1.031703 1_555
H15 N3 1.031703 1_555
O0 S0 1.510875 1_555
O1 S1 1.510875 1_555
O2 S1 1.475075 1_555
O3 S0 1.512511 1_555
O4 S2 1.507789 1_555
O5 S0 1.475075 1_554
O6 S1 1.512511 1_555
O7 S3 1.507789 1_555
O8 S2 1.490894 1_555
O9 S3 1.490894 1_555
O10 S3 1.493301 1_556
O11 S2 1.493301 1_555
O12 S0 1.457381 1_555
O13 S1 1.457381 1_555
O14 S2 1.458991 1_555
O15 S3 1.458991 1_555
O16 S4 1.458991 1_555
O17 S5 1.458991 1_555
O18 S6 1.457381 1_555
O19 S7 1.457381 1_555
O20 S5 1.493301 1_555
O21 S4 1.493301 1_554
O22 S4 1.490894 1_555
O23 S5 1.490894 1_555
O24 S4 1.507789 1_555
O25 S6 1.512511 1_555
O26 S7 1.475075 1_556
O27 S5 1.507789 1_555
O28 S7 1.512511 1_555
O29 S6 1.475075 1_555
O30 S6 1.510875 1_555
O31 S7 1.510875 1_555
