# generated using pymatgen
data_Li2Fe2Si2O7
_symmetry_space_group_name_H-M   'P 1'
_cell_length_a   4.93703652
_cell_length_b   13.34065991
_cell_length_c   4.93692590
_cell_angle_alpha   90.04725306
_cell_angle_beta   61.83299907
_cell_angle_gamma   89.92760327
_symmetry_Int_Tables_number   1
_chemical_formula_structural   Li2Fe2Si2O7
_chemical_formula_sum   'Li4 Fe4 Si4 O14'
_cell_volume   286.65455484
_cell_formula_units_Z   2
loop_
 _symmetry_equiv_pos_site_id
 _symmetry_equiv_pos_as_xyz
  1  'x, y, z'
loop_
 _atom_site_type_symbol
 _atom_site_label
 _atom_site_symmetry_multiplicity
 _atom_site_fract_x
 _atom_site_fract_y
 _atom_site_fract_z
 _atom_site_occupancy
  Li  Li0  1  0.25180200  0.58221000  0.34935600  1
  Li  Li1  1  0.25203000  0.91774400  0.34895900  1
  Li  Li2  1  0.65123400  0.41777800  0.74788000  1
  Li  Li3  1  0.65041800  0.08221400  0.74836900  1
  Fe  Fe0  1  0.96693800  0.49993100  0.03319000  1
  Fe  Fe1  1  0.97901800  0.74996600  0.01350600  1
  Fe  Fe2  1  0.96642900  0.99997600  0.03371700  1
  Fe  Fe3  1  0.98631100  0.24998300  0.02091600  1
  Si  Si0  1  0.30479400  0.36238500  0.39904200  1
  Si  Si1  1  0.30384600  0.13757800  0.39974100  1
  Si  Si2  1  0.60051700  0.63755800  0.69590500  1
  Si  Si3  1  0.60076800  0.86239400  0.69537200  1
  O  O0  1  0.15622600  0.25008500  0.37199300  1
  O  O1  1  0.62801100  0.75004100  0.84369800  1
  O  O2  1  0.66138800  0.13431000  0.12952000  1
  O  O3  1  0.66274900  0.36485600  0.12795200  1
  O  O4  1  0.87175300  0.86501500  0.33745000  1
  O  O5  1  0.87084100  0.63446200  0.33825600  1
  O  O6  1  0.25754400  0.87029100  0.72005900  1
  O  O7  1  0.25688700  0.63026000  0.72103800  1
  O  O8  1  0.28032200  0.37043400  0.74209300  1
  O  O9  1  0.27850700  0.13045000  0.74353900  1
  O  O10  1  0.07692900  0.05514600  0.37146600  1
  O  O11  1  0.07806900  0.44492400  0.37023900  1
  O  O12  1  0.62909600  0.55511200  0.92273600  1
  O  O13  1  0.62936500  0.94489800  0.92221600  1
loop_
_geom_bond_atom_site_label_1
_geom_bond_atom_site_label_2
_geom_bond_distance
_geom_bond_site_symmetry_2
Li0 O7 1.954540 1_555
Li0 O11 2.005358 1_555
Li0 O5 2.029889 1_455
Li0 O12 2.080770 1_554
Li1 O6 1.951159 1_555
Li1 O10 2.006155 1_565
Li1 O4 2.031458 1_455
Li1 O13 2.082765 1_554
Li2 O8 1.950727 1_555
Li2 O12 2.005404 1_555
Li2 O3 2.031086 1_556
Li2 O11 2.083673 1_655
Li3 O9 1.955617 1_555
Li3 O13 2.005515 1_545
Li3 O2 2.030013 1_556
Li3 O10 2.079571 1_655
Fe0 O11 2.114542 1_655
Fe0 O12 2.116017 1_554
Fe0 O5 2.243492 1_555
Fe0 O3 2.250853 1_555
Fe0 O8 2.309460 1_654
Fe0 O7 2.318422 1_654
Fe1 O4 2.094799 1_555
Fe1 O5 2.104243 1_555
Fe1 O7 2.153527 1_654
Fe1 O6 2.166811 1_654
Fe1 O1 2.253308 1_554
Fe2 O10 2.116003 1_665
Fe2 O13 2.116454 1_554
Fe2 O2 2.241135 1_565
Fe2 O4 2.248013 1_555
Fe2 O6 2.311902 1_654
Fe2 O9 2.320123 1_664
Fe3 O3 2.091671 1_555
Fe3 O2 2.106593 1_555
Fe3 O9 2.150526 1_654
Fe3 O8 2.169584 1_654
Fe3 O0 2.254000 1_655
O0 Si1 1.701326 1_555
O0 Si0 1.701536 1_555
O1 Si2 1.701414 1_555
O1 Si3 1.701526 1_555
O2 Si1 1.635250 1_555
O3 Si0 1.637889 1_555
O4 Si3 1.637640 1_555
O5 Si2 1.635704 1_555
O6 Si3 1.643736 1_555
O7 Si2 1.644609 1_555
O8 Si0 1.643458 1_555
O9 Si1 1.644802 1_555
O10 Si1 1.623079 1_555
O11 Si0 1.622668 1_555
O12 Si2 1.623121 1_555
O13 Si3 1.622719 1_555
