# generated using pymatgen
data_Na2UO4
_symmetry_space_group_name_H-M   'P 1'
_cell_length_a   6.69060860
_cell_length_b   6.69060860
_cell_length_c   6.69060860
_cell_angle_alpha   142.05399550
_cell_angle_beta   142.05399550
_cell_angle_gamma   54.74747314
_symmetry_Int_Tables_number   1
_chemical_formula_structural   Na2UO4
_chemical_formula_sum   'Na2 U1 O4'
_cell_volume   112.45453052
_cell_formula_units_Z   1
loop_
 _symmetry_equiv_pos_site_id
 _symmetry_equiv_pos_as_xyz
  1  'x, y, z'
loop_
 _atom_site_type_symbol
 _atom_site_label
 _atom_site_symmetry_multiplicity
 _atom_site_fract_x
 _atom_site_fract_y
 _atom_site_fract_z
 _atom_site_occupancy
  Na  Na0  1  0.64717700  0.64717700  0.00000000  1
  Na  Na1  1  0.35282300  0.35282300  0.00000000  1
  U  U0  1  0.00000000  0.00000000  0.00000000  1
  O  O0  1  0.50000000  0.00000000  0.50000000  1
  O  O1  1  0.00000000  0.50000000  0.50000000  1
  O  O2  1  0.83753600  0.83753600  0.00000000  1
  O  O3  1  0.16246400  0.16246400  0.00000000  1
loop_
_geom_bond_atom_site_label_1
_geom_bond_atom_site_label_2
_geom_bond_distance
_geom_bond_site_symmetry_2
Na0 O2 2.262012 1_555
Na0 O0 2.791127 1_565
Na0 O0 2.791127 1_554
Na0 O1 2.791127 1_554
Na0 O1 2.791127 1_655
Na1 O3 2.262012 1_555
Na1 O0 2.791127 1_554
Na1 O1 2.791127 1_554
Na1 O0 2.791127 1_565
Na1 O1 2.791127 1_655
O0 U0 2.175268 1_555
O0 U0 2.175268 1_656
O1 U0 2.175268 1_555
O1 U0 2.175268 1_566
O2 U0 1.930539 1_665
O3 U0 1.930539 1_555
