# generated using pymatgen
data_Os5(CO)16
_symmetry_space_group_name_H-M   'P 1'
_cell_length_a   9.44881400
_cell_length_b   11.01171435
_cell_length_c   13.75012144
_cell_angle_alpha   100.99893287
_cell_angle_beta   93.72176753
_cell_angle_gamma   107.60726639
_symmetry_Int_Tables_number   1
_chemical_formula_structural   Os5(CO)16
_chemical_formula_sum   'Os10 C32 O32'
_cell_volume   1327.04924995
_cell_formula_units_Z   2
loop_
 _symmetry_equiv_pos_site_id
 _symmetry_equiv_pos_as_xyz
  1  'x, y, z'
loop_
 _atom_site_type_symbol
 _atom_site_label
 _atom_site_symmetry_multiplicity
 _atom_site_fract_x
 _atom_site_fract_y
 _atom_site_fract_z
 _atom_site_occupancy
  Os  Os0  1  0.89078800  0.33057000  0.73291400  1
  Os  Os1  1  0.10921200  0.66943000  0.26708600  1
  Os  Os2  1  0.59421600  0.26840700  0.70192600  1
  Os  Os3  1  0.40578400  0.73159300  0.29807400  1
  Os  Os4  1  0.73495400  0.07789100  0.75784300  1
  Os  Os5  1  0.26504600  0.92210900  0.24215700  1
  Os  Os6  1  0.65393200  0.24782300  0.89832500  1
  Os  Os7  1  0.34606800  0.75217700  0.10167500  1
  Os  Os8  1  0.76791300  0.52667500  0.67707400  1
  Os  Os9  1  0.23208700  0.47332500  0.32292600  1
  C  C0  1  0.97054900  0.28138900  0.61638400  1
  C  C1  1  0.02945100  0.71861100  0.38361600  1
  C  C2  1  0.00703300  0.25285100  0.80621500  1
  C  C3  1  0.99296700  0.74714900  0.19378500  1
  C  C4  1  0.04981300  0.49515600  0.76845500  1
  C  C5  1  0.95018700  0.50484400  0.23154500  1
  C  C6  1  0.59087700  0.18955900  0.56553400  1
  C  C7  1  0.40912300  0.81044100  0.43446600  1
  C  C8  1  0.42695300  0.13055400  0.72494500  1
  C  C9  1  0.57304700  0.86944600  0.27505500  1
  C  C10  1  0.45001200  0.35479000  0.68158400  1
  C  C11  1  0.54998800  0.64521000  0.31841600  1
  C  C12  1  0.76003900  0.98850100  0.62923500  1
  C  C13  1  0.23996100  0.01149900  0.37076500  1
  C  C14  1  0.56490800  0.94420700  0.77671600  1
  C  C15  1  0.43509200  0.05579300  0.22328400  1
  C  C16  1  0.84679900  0.00048800  0.82985800  1
  C  C17  1  0.15320100  0.99951200  0.17014200  1
  C  C18  1  0.64293600  0.40479900  0.98045800  1
  C  C19  1  0.35706400  0.59520100  0.01954200  1
  C  C20  1  0.49731400  0.15260300  0.95719000  1
  C  C21  1  0.50268600  0.84739700  0.04281000  1
  C  C22  1  0.79410000  0.21799700  0.98755100  1
  C  C23  1  0.20590000  0.78200300  0.01244900  1
  C  C24  1  0.79993700  0.44801700  0.54354100  1
  C  C25  1  0.20006300  0.55198300  0.45645900  1
  C  C26  1  0.73360700  0.58899100  0.81481200  1
  C  C27  1  0.26639300  0.41100900  0.18518800  1
  C  C28  1  0.93241400  0.68319500  0.68546300  1
  C  C29  1  0.06758600  0.31680500  0.31453700  1
  C  C30  1  0.62671800  0.60001100  0.62762500  1
  C  C31  1  0.37328200  0.39998900  0.37237500  1
  O  O0  1  0.01518100  0.24346300  0.54351600  1
  O  O1  1  0.98481900  0.75653700  0.45648400  1
  O  O2  1  0.10512700  0.23212700  0.84912500  1
  O  O3  1  0.89487300  0.76787300  0.15087500  1
  O  O4  1  0.15785300  0.58552000  0.78962500  1
  O  O5  1  0.84214700  0.41448000  0.21037500  1
  O  O6  1  0.59069200  0.13595900  0.48377800  1
  O  O7  1  0.40930800  0.86404100  0.51622200  1
  O  O8  1  0.31424700  0.05106000  0.72769200  1
  O  O9  1  0.68575300  0.94894000  0.27230800  1
  O  O10  1  0.34936700  0.39128000  0.66340800  1
  O  O11  1  0.65063300  0.60872000  0.33659200  1
  O  O12  1  0.77177700  0.92562900  0.55376500  1
  O  O13  1  0.22822300  0.07437100  0.44623500  1
  O  O14  1  0.46392700  0.85955900  0.78934500  1
  O  O15  1  0.53607300  0.14044100  0.21065500  1
  O  O16  1  0.91541900  0.95235200  0.87410800  1
  O  O17  1  0.08458100  0.04764800  0.12589200  1
  O  O18  1  0.65015100  0.49430400  0.04378300  1
  O  O19  1  0.34984900  0.50569600  0.95621700  1
  O  O20  1  0.39339300  0.08982800  0.98689100  1
  O  O21  1  0.60660700  0.91017200  0.01310900  1
  O  O22  1  0.88389900  0.20719700  0.04438500  1
  O  O23  1  0.11610100  0.79280300  0.95561500  1
  O  O24  1  0.82265800  0.40890000  0.46378000  1
  O  O25  1  0.17734200  0.59110000  0.53622000  1
  O  O26  1  0.71040600  0.63754900  0.89156600  1
  O  O27  1  0.28959400  0.36245100  0.10843400  1
  O  O28  1  0.02966300  0.77919400  0.69190400  1
  O  O29  1  0.97033700  0.22080600  0.30809600  1
  O  O30  1  0.54122600  0.64532200  0.59779100  1
  O  O31  1  0.45877400  0.35467800  0.40220900  1
loop_
_geom_bond_atom_site_label_1
_geom_bond_atom_site_label_2
_geom_bond_distance
_geom_bond_site_symmetry_2
C0 O0 1.165286 1_655
C0 Os0 1.871156 1_555
C1 O1 1.165286 1_455
C1 Os1 1.871156 1_555
C2 O2 1.169460 1_555
C2 Os0 1.925833 1_455
C3 O3 1.169460 1_555
C3 Os1 1.925833 1_655
C4 O4 1.163343 1_555
C4 Os0 1.923668 1_455
C5 O5 1.163343 1_555
C5 Os1 1.923668 1_655
C6 O6 1.165348 1_555
C6 Os2 1.904315 1_555
C7 O7 1.165348 1_555
C7 Os3 1.904315 1_555
C8 O8 1.164325 1_555
C8 Os2 1.923317 1_555
C9 O9 1.164325 1_555
C9 Os3 1.923317 1_555
C10 O10 1.169150 1_555
C10 Os2 1.917234 1_555
C11 O11 1.169150 1_555
C11 Os3 1.917234 1_555
C12 O12 1.164361 1_555
C12 Os4 1.919272 1_565
C13 O13 1.164361 1_555
C13 Os5 1.919272 1_545
C14 O14 1.163881 1_555
C14 Os4 1.893396 1_565
C15 O15 1.163881 1_555
C15 Os5 1.893396 1_545
C16 O16 1.162466 1_545
C16 Os4 1.885466 1_555
C17 O17 1.162466 1_565
C17 Os5 1.885466 1_555
C18 O18 1.165504 1_556
C18 Os6 1.911323 1_555
C19 O19 1.165504 1_554
C19 Os7 1.911323 1_555
C20 O20 1.165312 1_555
C20 Os6 1.866851 1_555
C21 O21 1.165312 1_555
C21 Os7 1.866851 1_555
C22 O22 1.164138 1_556
C22 Os6 1.890274 1_555
C23 O23 1.164138 1_554
C23 Os7 1.890274 1_555
C24 O24 1.157879 1_555
C24 Os8 1.958794 1_555
C25 O25 1.157879 1_555
C25 Os9 1.958794 1_555
C26 O26 1.154733 1_555
C26 Os8 1.970082 1_555
C27 O27 1.154733 1_555
C27 Os9 1.970082 1_555
C28 O28 1.155741 1_655
C28 Os8 1.918342 1_555
C29 O29 1.155741 1_455
C29 Os9 1.918342 1_555
C30 O30 1.161333 1_555
C30 Os8 1.907325 1_555
C31 O31 1.161333 1_555
C31 Os9 1.907325 1_555
