# generated using pymatgen
data_Li7Ni9O16
_symmetry_space_group_name_H-M   'P 1'
_cell_length_a   4.99708600
_cell_length_b   5.74893268
_cell_length_c   10.47049411
_cell_angle_alpha   74.21813708
_cell_angle_beta   77.02791972
_cell_angle_gamma   73.59737186
_symmetry_Int_Tables_number   1
_chemical_formula_structural   Li7Ni9O16
_chemical_formula_sum   'Li7 Ni9 O16'
_cell_volume   274.10015860
_cell_formula_units_Z   1
loop_
 _symmetry_equiv_pos_site_id
 _symmetry_equiv_pos_as_xyz
  1  'x, y, z'
loop_
 _atom_site_type_symbol
 _atom_site_label
 _atom_site_symmetry_multiplicity
 _atom_site_fract_x
 _atom_site_fract_y
 _atom_site_fract_z
 _atom_site_occupancy
  Li  Li0  1  0.99439900  0.81290000  0.62684000  1
  Li  Li1  1  0.99984700  0.93608800  0.87208600  1
  Li  Li2  1  0.00015300  0.06391200  0.12791400  1
  Li  Li3  1  0.00009600  0.44059600  0.87478500  1
  Li  Li4  1  0.00560100  0.18710000  0.37316000  1
  Li  Li5  1  0.99990400  0.55940400  0.12521500  1
  Li  Li6  1  0.50000000  0.50000000  0.50000000  1
  Ni  Ni0  1  0.00148800  0.31656800  0.62167300  1
  Ni  Ni1  1  0.50505300  0.12198800  0.74944300  1
  Ni  Ni2  1  0.49494700  0.87801200  0.25055700  1
  Ni  Ni3  1  0.49923400  0.25062400  0.00035500  1
  Ni  Ni4  1  0.50000000  0.00000000  0.50000000  1
  Ni  Ni5  1  0.50064000  0.62437700  0.74658100  1
  Ni  Ni6  1  0.49936000  0.37562300  0.25341900  1
  Ni  Ni7  1  0.50076600  0.74937600  0.99964500  1
  Ni  Ni8  1  0.99851200  0.68343200  0.37832700  1
  O  O0  1  0.27125000  0.97860900  0.68938500  1
  O  O1  1  0.27116800  0.84943900  0.42073200  1
  O  O2  1  0.71166400  0.91692500  0.06973400  1
  O  O3  1  0.28833600  0.08307500  0.93026600  1
  O  O4  1  0.26664000  0.43842800  0.69802400  1
  O  O5  1  0.27057200  0.19942900  0.19043600  1
  O  O6  1  0.72875000  0.02139100  0.31061500  1
  O  O7  1  0.73290600  0.27110200  0.80736800  1
  O  O8  1  0.27631800  0.58218800  0.94298200  1
  O  O9  1  0.72368200  0.41781200  0.05701800  1
  O  O10  1  0.24509900  0.34226900  0.43757600  1
  O  O11  1  0.72883200  0.15056100  0.57926800  1
  O  O12  1  0.72942800  0.80057100  0.80956400  1
  O  O13  1  0.26709400  0.72889800  0.19263200  1
  O  O14  1  0.73336000  0.56157200  0.30197600  1
  O  O15  1  0.75490100  0.65773100  0.56242400  1
loop_
_geom_bond_atom_site_label_1
_geom_bond_atom_site_label_2
_geom_bond_distance
_geom_bond_site_symmetry_2
Li0 O15 1.993891 1_555
Li0 O11 2.023199 1_565
Li0 O12 2.064104 1_555
Li0 O0 2.177331 1_655
Li0 O4 2.229173 1_655
Li0 O1 2.278515 1_655
Li1 O12 2.032410 1_555
Li1 O7 2.047648 1_565
Li1 O0 2.080062 1_655
Li1 O3 2.127354 1_665
Li1 O8 2.156508 1_655
Li1 O2 2.235238 1_556
Li2 O5 2.032410 1_555
Li2 O13 2.047648 1_545
Li2 O6 2.080062 1_455
Li2 O2 2.127354 1_445
Li2 O9 2.156508 1_455
Li2 O3 2.235238 1_554
Li3 O4 2.023868 1_555
Li3 O9 2.085372 1_456
Li3 O8 2.114460 1_555
Li3 O12 2.154894 1_455
Li3 O3 2.165828 1_555
Li3 O7 2.182311 1_455
Li4 O10 1.993891 1_555
Li4 O1 2.023199 1_545
Li4 O5 2.064104 1_555
Li4 O6 2.177331 1_455
Li4 O14 2.229173 1_455
Li4 O11 2.278515 1_455
Li5 O14 2.023868 1_555
Li5 O8 2.085372 1_654
Li5 O9 2.114460 1_555
Li5 O5 2.154894 1_655
Li5 O2 2.165828 1_555
Li5 O13 2.182311 1_655
Li6 O15 2.054367 1_555
Li6 O10 2.054367 1_555
Li6 O1 2.062495 1_555
Li6 O11 2.062495 1_555
Li6 O4 2.128981 1_555
Li6 O14 2.128981 1_555
Ni0 O15 2.016537 1_455
Ni0 O10 2.027937 1_555
Ni0 O4 2.046926 1_555
Ni0 O11 2.049579 1_455
Ni0 O0 2.072512 1_545
Ni0 O7 2.097649 1_455
Ni1 O11 1.871447 1_555
Ni1 O7 1.882346 1_555
Ni1 O4 1.884102 1_555
Ni1 O12 1.892578 1_545
Ni1 O0 1.896194 1_545
Ni1 O3 1.947655 1_555
Ni2 O1 1.871447 1_555
Ni2 O13 1.882346 1_555
Ni2 O14 1.884102 1_555
Ni2 O5 1.892578 1_565
Ni2 O6 1.896194 1_565
Ni2 O2 1.947655 1_555
Ni3 O8 1.927034 1_554
Ni3 O9 1.936885 1_555
Ni3 O2 1.942391 1_545
Ni3 O3 1.970295 1_554
Ni3 O5 2.050280 1_555
Ni3 O7 2.085516 1_554
Ni4 O11 2.030146 1_555
Ni4 O1 2.030146 1_545
Ni4 O15 2.044536 1_545
Ni4 O10 2.044536 1_555
Ni4 O0 2.045234 1_545
Ni4 O6 2.045234 1_555
Ni5 O4 2.009249 1_555
Ni5 O12 2.030729 1_555
Ni5 O0 2.036220 1_555
Ni5 O7 2.043087 1_555
Ni5 O15 2.050779 1_555
Ni5 O8 2.095604 1_555
Ni6 O14 2.009249 1_555
Ni6 O5 2.030729 1_555
Ni6 O6 2.036220 1_555
Ni6 O13 2.043087 1_555
Ni6 O10 2.050779 1_555
Ni6 O9 2.095604 1_555
Ni7 O9 1.927034 1_556
Ni7 O8 1.936885 1_555
Ni7 O3 1.942391 1_565
Ni7 O2 1.970295 1_556
Ni7 O12 2.050280 1_555
Ni7 O13 2.085516 1_556
Ni8 O10 2.016537 1_655
Ni8 O15 2.027937 1_555
Ni8 O14 2.046926 1_555
Ni8 O1 2.049579 1_655
Ni8 O6 2.072512 1_565
Ni8 O13 2.097649 1_655
