# generated using pymatgen
data_LiLa(MoO4)2
_symmetry_space_group_name_H-M   'P 1'
_cell_length_a   10.03237400
_cell_length_b   10.21065200
_cell_length_c   13.82228300
_cell_angle_alpha   90.00000000
_cell_angle_beta   90.00000000
_cell_angle_gamma   90.00000000
_symmetry_Int_Tables_number   1
_chemical_formula_structural   LiLa(MoO4)2
_chemical_formula_sum   'Li8 La8 Mo16 O64'
_cell_volume   1415.91430459
_cell_formula_units_Z   8
loop_
 _symmetry_equiv_pos_site_id
 _symmetry_equiv_pos_as_xyz
  1  'x, y, z'
loop_
 _atom_site_type_symbol
 _atom_site_label
 _atom_site_symmetry_multiplicity
 _atom_site_fract_x
 _atom_site_fract_y
 _atom_site_fract_z
 _atom_site_occupancy
  Li  Li0  1  0.07996800  0.22998800  0.47622100  1
  Li  Li1  1  0.42003200  0.72998800  0.52377900  1
  Li  Li2  1  0.57996800  0.77001200  0.02377900  1
  Li  Li3  1  0.92003200  0.27001200  0.97622100  1
  Li  Li4  1  0.92003200  0.77001200  0.52377900  1
  Li  Li5  1  0.57996800  0.27001200  0.47622100  1
  Li  Li6  1  0.42003200  0.22998800  0.97622100  1
  Li  Li7  1  0.07996800  0.72998800  0.02377900  1
  La  La0  1  0.12040700  0.54516500  0.37447200  1
  La  La1  1  0.37959300  0.04516500  0.62552800  1
  La  La2  1  0.62040700  0.45483500  0.12552800  1
  La  La3  1  0.87959300  0.95483500  0.87447200  1
  La  La4  1  0.87959300  0.45483500  0.62552800  1
  La  La5  1  0.62040700  0.95483500  0.37447200  1
  La  La6  1  0.37959300  0.54516500  0.87447200  1
  La  La7  1  0.12040700  0.04516500  0.12552800  1
  Mo  Mo0  1  0.36618200  0.26269700  0.29595300  1
  Mo  Mo1  1  0.13381800  0.76269700  0.70404700  1
  Mo  Mo2  1  0.86618200  0.73730300  0.20404700  1
  Mo  Mo3  1  0.63381800  0.23730300  0.79595300  1
  Mo  Mo4  1  0.63381800  0.73730300  0.70404700  1
  Mo  Mo5  1  0.86618200  0.23730300  0.29595300  1
  Mo  Mo6  1  0.13381800  0.26269700  0.79595300  1
  Mo  Mo7  1  0.36618200  0.76269700  0.20404700  1
  Mo  Mo8  1  0.71272100  0.58195000  0.41850400  1
  Mo  Mo9  1  0.78727900  0.08195000  0.58149600  1
  Mo  Mo10  1  0.21272100  0.41805000  0.08149600  1
  Mo  Mo11  1  0.28727900  0.91805000  0.91850400  1
  Mo  Mo12  1  0.28727900  0.41805000  0.58149600  1
  Mo  Mo13  1  0.21272100  0.91805000  0.41850400  1
  Mo  Mo14  1  0.78727900  0.58195000  0.91850400  1
  Mo  Mo15  1  0.71272100  0.08195000  0.08149600  1
  O  O0  1  0.29531100  0.18894000  0.18921300  1
  O  O1  1  0.20468900  0.68894000  0.81078700  1
  O  O2  1  0.79531100  0.81106000  0.31078700  1
  O  O3  1  0.70468900  0.31106000  0.68921300  1
  O  O4  1  0.70468900  0.81106000  0.81078700  1
  O  O5  1  0.79531100  0.31106000  0.18921300  1
  O  O6  1  0.20468900  0.18894000  0.68921300  1
  O  O7  1  0.29531100  0.68894000  0.31078700  1
  O  O8  1  0.48434400  0.38276400  0.25854600  1
  O  O9  1  0.01565600  0.88276400  0.74145400  1
  O  O10  1  0.98434400  0.61723600  0.24145400  1
  O  O11  1  0.51565600  0.11723600  0.75854600  1
  O  O12  1  0.51565600  0.61723600  0.74145400  1
  O  O13  1  0.98434400  0.11723600  0.25854600  1
  O  O14  1  0.01565600  0.38276400  0.75854600  1
  O  O15  1  0.48434400  0.88276400  0.24145400  1
  O  O16  1  0.24457400  0.33166300  0.37807500  1
  O  O17  1  0.25542600  0.83166300  0.62192500  1
  O  O18  1  0.74457400  0.66833700  0.12192500  1
  O  O19  1  0.75542600  0.16833700  0.87807500  1
  O  O20  1  0.75542600  0.66833700  0.62192500  1
  O  O21  1  0.74457400  0.16833700  0.37807500  1
  O  O22  1  0.25542600  0.33166300  0.87807500  1
  O  O23  1  0.24457400  0.83166300  0.12192500  1
  O  O24  1  0.45921500  0.14541600  0.36450000  1
  O  O25  1  0.04078500  0.64541600  0.63550000  1
  O  O26  1  0.95921500  0.85458400  0.13550000  1
  O  O27  1  0.54078500  0.35458400  0.86450000  1
  O  O28  1  0.54078500  0.85458400  0.63550000  1
  O  O29  1  0.95921500  0.35458400  0.36450000  1
  O  O30  1  0.04078500  0.14541600  0.86450000  1
  O  O31  1  0.45921500  0.64541600  0.13550000  1
  O  O32  1  0.66494600  0.44452300  0.49057000  1
  O  O33  1  0.83505400  0.94452300  0.50943000  1
  O  O34  1  0.16494600  0.55547700  0.00943000  1
  O  O35  1  0.33505400  0.05547700  0.99057000  1
  O  O36  1  0.33505400  0.55547700  0.50943000  1
  O  O37  1  0.16494600  0.05547700  0.49057000  1
  O  O38  1  0.83505400  0.44452300  0.99057000  1
  O  O39  1  0.66494600  0.94452300  0.00943000  1
  O  O40  1  0.70360900  0.53675000  0.29468400  1
  O  O41  1  0.79639100  0.03675000  0.70531600  1
  O  O42  1  0.20360900  0.46325000  0.20531600  1
  O  O43  1  0.29639100  0.96325000  0.79468400  1
  O  O44  1  0.29639100  0.46325000  0.70531600  1
  O  O45  1  0.20360900  0.96325000  0.29468400  1
  O  O46  1  0.79639100  0.53675000  0.79468400  1
  O  O47  1  0.70360900  0.03675000  0.20531600  1
  O  O48  1  0.88846300  0.60172000  0.45544700  1
  O  O49  1  0.61153700  0.10172000  0.54455300  1
  O  O50  1  0.38846300  0.39828000  0.04455300  1
  O  O51  1  0.11153700  0.89828000  0.95544700  1
  O  O52  1  0.11153700  0.39828000  0.54455300  1
  O  O53  1  0.38846300  0.89828000  0.45544700  1
  O  O54  1  0.61153700  0.60172000  0.95544700  1
  O  O55  1  0.88846300  0.10172000  0.04455300  1
  O  O56  1  0.60194500  0.71866200  0.44122300  1
  O  O57  1  0.89805500  0.21866200  0.55877700  1
  O  O58  1  0.10194500  0.28133800  0.05877700  1
  O  O59  1  0.39805500  0.78133800  0.94122300  1
  O  O60  1  0.39805500  0.28133800  0.55877700  1
  O  O61  1  0.10194500  0.78133800  0.44122300  1
  O  O62  1  0.89805500  0.71866200  0.94122300  1
  O  O63  1  0.60194500  0.21866200  0.05877700  1
loop_
_geom_bond_atom_site_label_1
_geom_bond_atom_site_label_2
_geom_bond_distance
_geom_bond_site_symmetry_2
Li0 O37 1.985248 1_555
Li0 O52 1.986251 1_555
Li0 O57 2.155506 1_455
Li0 O29 2.338968 1_455
Li0 O16 2.375973 1_555
Li1 O36 1.985248 1_555
Li1 O53 1.986251 1_555
Li1 O56 2.155506 1_555
Li1 O28 2.338968 1_555
Li1 O17 2.375973 1_555
Li2 O39 1.985248 1_555
Li2 O54 1.986251 1_554
Li2 O59 2.155506 1_554
Li2 O31 2.338968 1_555
Li2 O18 2.375973 1_555
Li3 O38 1.985248 1_555
Li3 O55 1.986251 1_556
Li3 O58 2.155506 1_656
Li3 O30 2.338968 1_655
Li3 O19 2.375973 1_555
Li4 O33 1.985248 1_555
Li4 O48 1.986251 1_555
Li4 O61 2.155506 1_655
Li4 O25 2.338968 1_655
Li4 O20 2.375973 1_555
Li5 O32 1.985248 1_555
Li5 O49 1.986251 1_555
Li5 O60 2.155506 1_555
Li5 O24 2.338968 1_555
Li5 O21 2.375973 1_555
Li6 O35 1.985248 1_555
Li6 O50 1.986251 1_556
Li6 O63 2.155506 1_556
Li6 O27 2.338968 1_555
Li6 O22 2.375973 1_555
Li7 O34 1.985248 1_555
Li7 O51 1.986251 1_554
Li7 O62 2.155506 1_454
Li7 O26 2.338968 1_455
Li7 O23 2.375973 1_555
La0 O10 2.405276 1_455
La0 O7 2.451324 1_555
La0 O16 2.511294 1_555
La0 O29 2.533946 1_455
La0 O61 2.588596 1_555
La0 O42 2.619759 1_555
La0 O48 2.645921 1_455
La0 O52 2.789993 1_555
La0 O36 2.850986 1_555
La1 O11 2.405276 1_555
La1 O6 2.451324 1_555
La1 O17 2.511294 1_545
La1 O28 2.533946 1_545
La1 O60 2.588596 1_555
La1 O43 2.619759 1_545
La1 O49 2.645921 1_555
La1 O53 2.789993 1_545
La1 O37 2.850986 1_555
La2 O8 2.405276 1_555
La2 O5 2.451324 1_555
La2 O18 2.511294 1_555
La2 O31 2.533946 1_555
La2 O63 2.588596 1_555
La2 O40 2.619759 1_555
La2 O50 2.645921 1_555
La2 O54 2.789993 1_554
La2 O38 2.850986 1_554
La3 O9 2.405276 1_655
La3 O4 2.451324 1_555
La3 O19 2.511294 1_565
La3 O30 2.533946 1_665
La3 O62 2.588596 1_555
La3 O41 2.619759 1_565
La3 O51 2.645921 1_655
La3 O55 2.789993 1_566
La3 O39 2.850986 1_556
La4 O14 2.405276 1_655
La4 O3 2.451324 1_555
La4 O20 2.511294 1_555
La4 O25 2.533946 1_655
La4 O57 2.588596 1_555
La4 O46 2.619759 1_555
La4 O52 2.645921 1_655
La4 O48 2.789993 1_555
La4 O32 2.850986 1_555
La5 O15 2.405276 1_555
La5 O2 2.451324 1_555
La5 O21 2.511294 1_565
La5 O24 2.533946 1_565
La5 O56 2.588596 1_555
La5 O47 2.619759 1_565
La5 O53 2.645921 1_555
La5 O49 2.789993 1_565
La5 O33 2.850986 1_555
La6 O12 2.405276 1_555
La6 O1 2.451324 1_555
La6 O22 2.511294 1_555
La6 O27 2.533946 1_555
La6 O59 2.588596 1_555
La6 O44 2.619759 1_555
La6 O54 2.645921 1_555
La6 O50 2.789993 1_556
La6 O34 2.850986 1_556
La7 O13 2.405276 1_455
La7 O0 2.451324 1_555
La7 O23 2.511294 1_545
La7 O26 2.533946 1_445
La7 O58 2.588596 1_555
La7 O45 2.619759 1_545
La7 O55 2.645921 1_455
La7 O51 2.789993 1_544
La7 O35 2.850986 1_554
Mo0 O8 1.782023 1_555
Mo0 O24 1.789660 1_555
Mo0 O0 1.802630 1_555
Mo0 O16 1.809089 1_555
Mo1 O9 1.782023 1_555
Mo1 O25 1.789660 1_555
Mo1 O1 1.802630 1_555
Mo1 O17 1.809089 1_555
Mo2 O10 1.782023 1_555
Mo2 O26 1.789660 1_555
Mo2 O2 1.802630 1_555
Mo2 O18 1.809089 1_555
Mo3 O11 1.782023 1_555
Mo3 O27 1.789660 1_555
Mo3 O3 1.802630 1_555
Mo3 O19 1.809089 1_555
Mo4 O12 1.782023 1_555
Mo4 O28 1.789660 1_555
Mo4 O4 1.802630 1_555
Mo4 O20 1.809089 1_555
Mo5 O13 1.782023 1_555
Mo5 O29 1.789660 1_555
Mo5 O5 1.802630 1_555
Mo5 O21 1.809089 1_555
Mo6 O14 1.782023 1_555
Mo6 O30 1.789660 1_555
Mo6 O6 1.802630 1_555
Mo6 O22 1.809089 1_555
Mo7 O15 1.782023 1_555
Mo7 O31 1.789660 1_555
Mo7 O7 1.802630 1_555
Mo7 O23 1.809089 1_555
Mo8 O40 1.774966 1_555
Mo8 O32 1.786336 1_555
Mo8 O56 1.811710 1_555
Mo8 O48 1.846633 1_555
Mo9 O41 1.774966 1_555
Mo9 O33 1.786336 1_545
Mo9 O57 1.811710 1_555
Mo9 O49 1.846633 1_555
Mo10 O42 1.774966 1_555
Mo10 O34 1.786336 1_555
Mo10 O58 1.811710 1_555
Mo10 O50 1.846633 1_555
Mo11 O43 1.774966 1_555
Mo11 O35 1.786336 1_565
Mo11 O59 1.811710 1_555
Mo11 O51 1.846633 1_555
Mo12 O44 1.774966 1_555
Mo12 O36 1.786336 1_555
Mo12 O60 1.811710 1_555
Mo12 O52 1.846633 1_555
Mo13 O45 1.774966 1_555
Mo13 O37 1.786336 1_565
Mo13 O61 1.811710 1_555
Mo13 O53 1.846633 1_555
Mo14 O46 1.774966 1_555
Mo14 O38 1.786336 1_555
Mo14 O62 1.811710 1_555
Mo14 O54 1.846633 1_555
Mo15 O47 1.774966 1_555
Mo15 O39 1.786336 1_545
Mo15 O63 1.811710 1_555
Mo15 O55 1.846633 1_555
