# generated using pymatgen
data_Li4Fe(PO4)2
_symmetry_space_group_name_H-M   'P 1'
_cell_length_a   4.79145500
_cell_length_b   5.43428824
_cell_length_c   6.17625700
_cell_angle_alpha   95.68355177
_cell_angle_beta   94.37620549
_cell_angle_gamma   101.91864152
_symmetry_Int_Tables_number   1
_chemical_formula_structural   Li4Fe(PO4)2
_chemical_formula_sum   'Li4 Fe1 P2 O8'
_cell_volume   155.80271157
_cell_formula_units_Z   1
loop_
 _symmetry_equiv_pos_site_id
 _symmetry_equiv_pos_as_xyz
  1  'x, y, z'
loop_
 _atom_site_type_symbol
 _atom_site_label
 _atom_site_symmetry_multiplicity
 _atom_site_fract_x
 _atom_site_fract_y
 _atom_site_fract_z
 _atom_site_occupancy
  Li  Li0  1  0.15385800  0.29117500  0.57051000  1
  Li  Li1  1  0.30431300  0.58353900  0.17407500  1
  Li  Li2  1  0.69568700  0.41646100  0.82592500  1
  Li  Li3  1  0.84614200  0.70882500  0.42949000  1
  Fe  Fe0  1  0.00000000  0.00000000  0.00000000  1
  P  P0  1  0.38293100  0.78740700  0.71543500  1
  P  P1  1  0.61706900  0.21259300  0.28456500  1
  O  O0  1  0.24267100  0.58379100  0.85846400  1
  O  O1  1  0.26243600  0.69711900  0.47649700  1
  O  O2  1  0.28384700  0.19191000  0.26119000  1
  O  O3  1  0.31367700  0.05059800  0.79182000  1
  O  O4  1  0.68632300  0.94940200  0.20818000  1
  O  O5  1  0.71615300  0.80809000  0.73881000  1
  O  O6  1  0.73756400  0.30288100  0.52350300  1
  O  O7  1  0.75732900  0.41620900  0.14153600  1
loop_
_geom_bond_atom_site_label_1
_geom_bond_atom_site_label_2
_geom_bond_distance
_geom_bond_site_symmetry_2
Li0 O6 2.008649 1_455
Li0 O2 2.108302 1_555
Li0 O3 2.184411 1_555
Li0 O0 2.217551 1_555
Li0 O1 2.302192 1_555
Li1 O1 1.946803 1_555
Li1 O0 1.949312 1_554
Li1 O2 2.230942 1_555
Li1 O4 2.388032 1_555
Li1 O7 2.534643 1_555
Li1 O7 2.575880 1_455
Li2 O6 1.946803 1_555
Li2 O7 1.949312 1_556
Li2 O5 2.230942 1_555
Li2 O3 2.388032 1_555
Li2 O0 2.534643 1_555
Li2 O0 2.575880 1_655
Li3 O1 2.008649 1_655
Li3 O5 2.108302 1_555
Li3 O4 2.184411 1_555
Li3 O7 2.217551 1_555
Li3 O6 2.302192 1_555
Fe0 O3 2.044989 1_554
Fe0 O4 2.044989 1_445
Fe0 O2 2.070211 1_555
Fe0 O5 2.070211 1_444
O0 P0 1.559946 1_555
O1 P0 1.536696 1_555
O2 P1 1.571671 1_555
O3 P0 1.569899 1_545
O4 P1 1.569899 1_565
O5 P0 1.571671 1_555
O6 P1 1.536696 1_555
O7 P1 1.559946 1_555
