# generated using pymatgen
data_TiMn(PO4)2
_symmetry_space_group_name_H-M   'P 1'
_cell_length_a   5.01757094
_cell_length_b   11.77721438
_cell_length_c   11.77769144
_cell_angle_alpha   118.20817442
_cell_angle_beta   90.63324516
_cell_angle_gamma   89.36720272
_symmetry_Int_Tables_number   1
_chemical_formula_structural   TiMn(PO4)2
_chemical_formula_sum   'Ti4 Mn4 P8 O32'
_cell_volume   613.27112616
_cell_formula_units_Z   4
loop_
 _symmetry_equiv_pos_site_id
 _symmetry_equiv_pos_as_xyz
  1  'x, y, z'
loop_
 _atom_site_type_symbol
 _atom_site_label
 _atom_site_symmetry_multiplicity
 _atom_site_fract_x
 _atom_site_fract_y
 _atom_site_fract_z
 _atom_site_occupancy
  Ti  Ti0  1  0.46957700  0.48539900  0.26456400  1
  Ti  Ti1  1  0.46958000  0.98540400  0.76457400  1
  Ti  Ti2  1  0.53042000  0.51460000  0.73543300  1
  Ti  Ti3  1  0.53042300  0.01459400  0.23542600  1
  Mn  Mn0  1  0.96861100  0.76107200  0.48893400  1
  Mn  Mn1  1  0.03132500  0.23893200  0.51106500  1
  Mn  Mn2  1  0.96873500  0.26110100  0.98895700  1
  Mn  Mn3  1  0.03134700  0.73891100  0.01106800  1
  P  P0  1  0.44662400  0.17249900  0.07741600  1
  P  P1  1  0.44657400  0.67250000  0.57742500  1
  P  P2  1  0.55341200  0.82750000  0.92257900  1
  P  P3  1  0.55340100  0.32749800  0.42257600  1
  P  P4  1  0.88907000  0.57167700  0.17836200  1
  P  P5  1  0.88907300  0.07168200  0.67837800  1
  P  P6  1  0.11092700  0.42832500  0.82163000  1
  P  P7  1  0.11091400  0.92831700  0.32162900  1
  O  O0  1  0.64220800  0.40152400  0.34851900  1
  O  O1  1  0.64222300  0.90152700  0.84852600  1
  O  O2  1  0.35777500  0.59847300  0.65148100  1
  O  O3  1  0.35782300  0.09847400  0.15147200  1
  O  O4  1  0.74580700  0.17603700  0.07385200  1
  O  O5  1  0.74576400  0.67602700  0.57387100  1
  O  O6  1  0.25422600  0.82397700  0.92613200  1
  O  O7  1  0.25421400  0.32396900  0.42613100  1
  O  O8  1  0.18562500  0.54870900  0.20124200  1
  O  O9  1  0.18563000  0.04871900  0.70126000  1
  O  O10  1  0.81436600  0.45128600  0.79875400  1
  O  O11  1  0.81435200  0.95127700  0.29874700  1
  O  O12  1  0.13590600  0.35433100  0.89555500  1
  O  O13  1  0.13586900  0.85431400  0.39554900  1
  O  O14  1  0.86411600  0.64567400  0.10443700  1
  O  O15  1  0.86412300  0.14568400  0.60445500  1
  O  O16  1  0.31086800  0.10692800  0.93970200  1
  O  O17  1  0.31084400  0.60692500  0.43970000  1
  O  O18  1  0.31090900  0.31023400  0.14299400  1
  O  O19  1  0.31087800  0.81023400  0.64300000  1
  O  O20  1  0.68910600  0.68976200  0.85700600  1
  O  O21  1  0.68910200  0.18976300  0.35700400  1
  O  O22  1  0.68914700  0.89306800  0.06030300  1
  O  O23  1  0.68913700  0.39307000  0.56029700  1
  O  O24  1  0.73531600  0.63336900  0.31071400  1
  O  O25  1  0.73532000  0.13337800  0.81072900  1
  O  O26  1  0.73534200  0.43930100  0.11664900  1
  O  O27  1  0.73534600  0.93930400  0.61666300  1
  O  O28  1  0.26467500  0.36663100  0.68927700  1
  O  O29  1  0.26467400  0.86662300  0.18927700  1
  O  O30  1  0.26466100  0.56070200  0.88334500  1
  O  O31  1  0.26463200  0.06069500  0.38333900  1
loop_
_geom_bond_atom_site_label_1
_geom_bond_atom_site_label_2
_geom_bond_distance
_geom_bond_site_symmetry_2
Mn0 O5 2.061756 1_555
Mn0 O13 2.074231 1_655
Mn0 O24 2.244615 1_555
Mn0 O27 2.244672 1_555
Mn0 O19 2.353077 1_655
Mn0 O17 2.353441 1_655
Mn1 O7 2.061779 1_555
Mn1 O15 2.074216 1_455
Mn1 O28 2.244690 1_555
Mn1 O31 2.244809 1_555
Mn1 O21 2.352870 1_455
Mn1 O23 2.353211 1_455
Mn2 O4 2.061785 1_556
Mn2 O12 2.074096 1_655
Mn2 O26 2.244673 1_556
Mn2 O25 2.245040 1_555
Mn2 O18 2.352556 1_656
Mn2 O16 2.353248 1_655
Mn3 O6 2.062014 1_554
Mn3 O14 2.073981 1_455
Mn3 O30 2.244617 1_554
Mn3 O29 2.244644 1_555
Mn3 O20 2.352969 1_454
Mn3 O22 2.353396 1_455
O0 P3 1.566981 1_555
O0 Ti0 1.894549 1_555
O1 P2 1.566958 1_555
O1 Ti1 1.894567 1_555
O2 P1 1.566969 1_555
O2 Ti2 1.894535 1_555
O3 P0 1.566953 1_555
O3 Ti3 1.894515 1_555
O4 P0 1.503810 1_555
O5 P1 1.503832 1_555
O6 P2 1.503809 1_555
O7 P3 1.503819 1_555
O8 P4 1.552753 1_455
O8 Ti0 1.902835 1_555
O9 P5 1.552754 1_455
O9 Ti1 1.902808 1_545
O10 P6 1.552750 1_655
O10 Ti2 1.902833 1_555
O11 P7 1.552769 1_655
O11 Ti3 1.902790 1_565
O12 P6 1.498542 1_555
O13 P7 1.498574 1_555
O14 P4 1.498564 1_555
O15 P5 1.498593 1_555
O16 P0 1.579298 1_556
O16 Ti1 2.038946 1_545
O17 P1 1.579345 1_555
O17 Ti0 2.039058 1_555
O18 P0 1.579363 1_555
O18 Ti0 2.039221 1_555
O19 P1 1.579313 1_555
O19 Ti1 2.039339 1_555
O20 P2 1.579346 1_555
O20 Ti2 2.039241 1_555
O21 P3 1.579332 1_555
O21 Ti3 2.039296 1_555
O22 P2 1.579346 1_554
O22 Ti3 2.038935 1_565
O23 P3 1.579320 1_555
O23 Ti2 2.039036 1_555
O24 P4 1.580015 1_555
O24 Ti0 2.061568 1_555
O25 P5 1.580003 1_555
O25 Ti1 2.061598 1_545
O26 P4 1.580109 1_555
O26 Ti0 2.061336 1_555
O27 P5 1.580124 1_565
O27 Ti1 2.061302 1_555
O28 P6 1.580009 1_555
O28 Ti2 2.061569 1_555
O29 P7 1.580030 1_555
O29 Ti3 2.061611 1_565
O30 P6 1.580132 1_555
O30 Ti2 2.061284 1_555
O31 P7 1.580103 1_545
O31 Ti3 2.061399 1_555
