# generated using pymatgen
data_Li4Ni7O11
_symmetry_space_group_name_H-M   'P 1'
_cell_length_a   5.09576300
_cell_length_b   8.75652503
_cell_length_c   9.70008915
_cell_angle_alpha   113.78938616
_cell_angle_beta   95.92834503
_cell_angle_gamma   95.19838729
_symmetry_Int_Tables_number   1
_chemical_formula_structural   Li4Ni7O11
_chemical_formula_sum   'Li8 Ni14 O22'
_cell_volume   389.75353746
_cell_formula_units_Z   2
loop_
 _symmetry_equiv_pos_site_id
 _symmetry_equiv_pos_as_xyz
  1  'x, y, z'
loop_
 _atom_site_type_symbol
 _atom_site_label
 _atom_site_symmetry_multiplicity
 _atom_site_fract_x
 _atom_site_fract_y
 _atom_site_fract_z
 _atom_site_occupancy
  Li  Li0  1  0.27785300  0.58779300  0.04652100  1
  Li  Li1  1  0.72214700  0.41220700  0.95347900  1
  Li  Li2  1  0.45661900  0.31463300  0.40941200  1
  Li  Li3  1  0.91342000  0.13654000  0.31879000  1
  Li  Li4  1  0.64182900  0.04078800  0.76894400  1
  Li  Li5  1  0.35817100  0.95921200  0.23105600  1
  Li  Li6  1  0.08658000  0.86346000  0.68121000  1
  Li  Li7  1  0.54338100  0.68536700  0.59058800  1
  Ni  Ni0  1  0.63339800  0.54657900  0.27189800  1
  Ni  Ni1  1  0.00000000  0.50000000  0.50000000  1
  Ni  Ni2  1  0.36660200  0.45342100  0.72810200  1
  Ni  Ni3  1  0.81740100  0.27222600  0.63492200  1
  Ni  Ni4  1  0.09089200  0.36295300  0.18183900  1
  Ni  Ni5  1  0.18074600  0.22831000  0.86501800  1
  Ni  Ni6  1  0.27518200  0.09141600  0.54319000  1
  Ni  Ni7  1  0.54422700  0.18239900  0.09443400  1
  Ni  Ni8  1  0.00000000  0.00000000  0.00000000  1
  Ni  Ni9  1  0.72481800  0.90858400  0.45681000  1
  Ni  Ni10  1  0.45577300  0.81760100  0.90556600  1
  Ni  Ni11  1  0.81925400  0.77169000  0.13498200  1
  Ni  Ni12  1  0.18259900  0.72777400  0.36507800  1
  Ni  Ni13  1  0.90910800  0.63704700  0.81816100  1
  O  O0  1  0.96142500  0.58072300  0.17039200  1
  O  O1  1  0.30242800  0.53478900  0.38512100  1
  O  O2  1  0.69757200  0.46521100  0.61487900  1
  O  O3  1  0.58650000  0.61620100  0.92678000  1
  O  O4  1  0.03857500  0.41927700  0.82960800  1
  O  O5  1  0.14301200  0.30453700  0.52965700  1
  O  O6  1  0.41350000  0.38379900  0.07322000  1
  O  O7  1  0.76639800  0.35627900  0.29477800  1
  O  O8  1  0.48471800  0.25822400  0.74967400  1
  O  O9  1  0.95143200  0.08396900  0.65719500  1
  O  O10  1  0.87424700  0.18923900  0.97935400  1
  O  O11  1  0.21563700  0.14871600  0.18949700  1
  O  O12  1  0.60587700  0.11941300  0.44518800  1
  O  O13  1  0.70794700  0.97655100  0.10316900  1
  O  O14  1  0.29205300  0.02344900  0.89683100  1
  O  O15  1  0.39412300  0.88058700  0.55481200  1
  O  O16  1  0.78436300  0.85128400  0.81050300  1
  O  O17  1  0.04856800  0.91603100  0.34280500  1
  O  O18  1  0.51528200  0.74177600  0.25032600  1
  O  O19  1  0.85698800  0.69546300  0.47034300  1
  O  O20  1  0.23360200  0.64372100  0.70522200  1
  O  O21  1  0.12575300  0.81076100  0.02064600  1
loop_
_geom_bond_atom_site_label_1
_geom_bond_atom_site_label_2
_geom_bond_distance
_geom_bond_site_symmetry_2
Li0 O18 2.061539 1_555
Li0 O6 2.072591 1_555
Li0 O3 2.103376 1_554
Li0 O0 2.118888 1_455
Li0 O4 2.174966 1_554
Li0 O21 2.259437 1_555
Li1 O8 2.061539 1_555
Li1 O3 2.072591 1_555
Li1 O6 2.103376 1_556
Li1 O4 2.118888 1_655
Li1 O0 2.174966 1_556
Li1 O10 2.259437 1_555
Li2 O12 2.069010 1_555
Li2 O2 2.073507 1_555
Li2 O5 2.089191 1_555
Li2 O7 2.108723 1_555
Li2 O11 2.191929 1_555
Li2 O1 2.234276 1_555
Li3 O13 2.086007 1_545
Li3 O11 2.105480 1_655
Li3 O5 2.117288 1_655
Li3 O12 2.117645 1_555
Li3 O17 2.197179 1_645
Li3 O7 2.214639 1_555
Li4 O16 2.035004 1_545
Li4 O10 2.083123 1_555
Li4 O9 2.093519 1_555
Li4 O15 2.159246 1_545
Li4 O8 2.198518 1_555
Li4 O14 2.301834 1_555
Li5 O11 2.035004 1_565
Li5 O21 2.083123 1_555
Li5 O17 2.093519 1_555
Li5 O12 2.159246 1_565
Li5 O18 2.198518 1_555
Li5 O13 2.301834 1_555
Li6 O14 2.086007 1_565
Li6 O16 2.105480 1_455
Li6 O19 2.117288 1_455
Li6 O15 2.117645 1_555
Li6 O9 2.197179 1_465
Li6 O20 2.214639 1_555
Li7 O15 2.069010 1_555
Li7 O1 2.073507 1_555
Li7 O19 2.089191 1_555
Li7 O20 2.108723 1_555
Li7 O16 2.191929 1_555
Li7 O2 2.234276 1_555
Ni0 O7 1.938376 1_555
Ni0 O18 1.943331 1_555
Ni0 O19 1.989063 1_555
Ni0 O6 2.012404 1_555
Ni0 O0 2.083230 1_555
Ni0 O1 2.122226 1_555
Ni1 O5 2.030587 1_555
Ni1 O19 2.030587 1_455
Ni1 O20 2.044874 1_555
Ni1 O7 2.044874 1_455
Ni1 O1 2.062298 1_555
Ni1 O2 2.062298 1_455
Ni2 O20 1.938376 1_555
Ni2 O8 1.943331 1_555
Ni2 O5 1.989063 1_555
Ni2 O3 2.012404 1_555
Ni2 O4 2.083230 1_555
Ni2 O2 2.122226 1_555
Ni3 O12 1.918756 1_555
Ni3 O9 1.921327 1_555
Ni3 O2 1.921941 1_555
Ni3 O4 1.957090 1_655
Ni3 O5 2.091337 1_655
Ni3 O8 2.142481 1_555
Ni4 O1 2.046363 1_555
Ni4 O10 2.056170 1_454
Ni4 O11 2.060977 1_555
Ni4 O6 2.074733 1_555
Ni4 O7 2.084736 1_455
Ni4 O0 2.113654 1_455
Ni5 O4 2.017576 1_555
Ni5 O9 2.053541 1_455
Ni5 O14 2.056628 1_555
Ni5 O8 2.059284 1_555
Ni5 O6 2.081692 1_556
Ni5 O10 2.086517 1_455
Ni6 O15 2.035879 1_545
Ni6 O8 2.049554 1_555
Ni6 O12 2.060963 1_555
Ni6 O17 2.068076 1_545
Ni6 O5 2.088224 1_555
Ni6 O9 2.089117 1_455
Ni7 O6 2.018317 1_555
Ni7 O11 2.046910 1_555
Ni7 O7 2.054910 1_555
Ni7 O14 2.068169 1_554
Ni7 O13 2.081674 1_545
Ni7 O10 2.121622 1_554
Ni8 O21 1.905330 1_545
Ni8 O10 1.905330 1_454
Ni8 O11 1.916863 1_555
Ni8 O16 1.916863 1_444
Ni8 O13 1.917433 1_445
Ni8 O14 1.917433 1_554
Ni9 O12 2.035879 1_565
Ni9 O18 2.049554 1_555
Ni9 O15 2.060963 1_555
Ni9 O9 2.068076 1_565
Ni9 O19 2.088224 1_555
Ni9 O17 2.089117 1_655
Ni10 O3 2.018317 1_555
Ni10 O16 2.046910 1_555
Ni10 O20 2.054910 1_555
Ni10 O13 2.068169 1_556
Ni10 O14 2.081674 1_565
Ni10 O21 2.121622 1_556
Ni11 O0 2.017576 1_555
Ni11 O17 2.053541 1_655
Ni11 O13 2.056628 1_555
Ni11 O18 2.059284 1_555
Ni11 O3 2.081692 1_554
Ni11 O21 2.086517 1_655
Ni12 O15 1.918756 1_555
Ni12 O17 1.921327 1_555
Ni12 O1 1.921941 1_555
Ni12 O0 1.957090 1_455
Ni12 O19 2.091337 1_455
Ni12 O18 2.142481 1_555
Ni13 O2 2.046363 1_555
Ni13 O21 2.056170 1_656
Ni13 O16 2.060977 1_555
Ni13 O3 2.074733 1_555
Ni13 O20 2.084736 1_655
Ni13 O4 2.113654 1_655
