# generated using pymatgen
data_Li3ZrNb(TeO6)2
_symmetry_space_group_name_H-M   'P 1'
_cell_length_a   5.21592100
_cell_length_b   5.52569964
_cell_length_c   7.62222970
_cell_angle_alpha   94.04543397
_cell_angle_beta   90.24559394
_cell_angle_gamma   90.02761255
_symmetry_Int_Tables_number   1
_chemical_formula_structural   Li3ZrNb(TeO6)2
_chemical_formula_sum   'Li3 Zr1 Nb1 Te2 O12'
_cell_volume   219.13550989
_cell_formula_units_Z   1
loop_
 _symmetry_equiv_pos_site_id
 _symmetry_equiv_pos_as_xyz
  1  'x, y, z'
loop_
 _atom_site_type_symbol
 _atom_site_label
 _atom_site_symmetry_multiplicity
 _atom_site_fract_x
 _atom_site_fract_y
 _atom_site_fract_z
 _atom_site_occupancy
  Li  Li0  1  0.50217800  0.02437300  0.73721200  1
  Li  Li1  1  0.00010400  0.56922000  0.72298900  1
  Li  Li2  1  0.99591200  0.55477600  0.22406500  1
  Zr  Zr0  1  0.00075800  0.00655100  0.01073600  1
  Nb  Nb0  1  0.50105700  0.48888500  0.49063300  1
  Te  Te0  1  0.50127900  0.49804200  0.99629100  1
  Te  Te1  1  0.00189400  0.99734700  0.50328500  1
  O  O0  1  0.81768200  0.68434400  0.44661200  1
  O  O1  1  0.62018500  0.49321600  0.75055000  1
  O  O2  1  0.69639100  0.18779400  0.45103900  1
  O  O3  1  0.87522300  0.97776400  0.73847000  1
  O  O4  1  0.80196600  0.32516400  0.06702400  1
  O  O5  1  0.33139400  0.19312600  0.93685700  1
  O  O6  1  0.68692200  0.78869000  0.05566800  1
  O  O7  1  0.11337300  0.98561300  0.26889500  1
  O  O8  1  0.19543300  0.67067900  0.94239000  1
  O  O9  1  0.37449700  0.49336100  0.24772200  1
  O  O10  1  0.29733100  0.80164300  0.57251000  1
  O  O11  1  0.18642200  0.29981300  0.56685100  1
loop_
_geom_bond_atom_site_label_1
_geom_bond_atom_site_label_2
_geom_bond_distance
_geom_bond_site_symmetry_2
Li0 O5 1.947032 1_555
Li0 O3 1.962939 1_545
Li0 O10 2.000398 1_545
Li1 O8 2.000383 1_555
Li1 O1 2.040239 1_455
Li1 O11 2.082851 1_555
Li1 O3 2.344987 1_455
Li1 O10 2.364242 1_555
Li1 O0 2.433168 1_455
Li2 O4 1.959600 1_555
Li2 O9 2.013263 1_655
Li2 O0 2.024120 1_555
Li2 O7 2.457999 1_655
Li2 O6 2.476694 1_555
Li2 O8 2.513024 1_654
Nb0 O2 1.957187 1_555
Nb0 O9 1.964820 1_555
Nb0 O0 2.015112 1_555
Nb0 O11 2.052906 1_555
Nb0 O1 2.072281 1_555
Nb0 O10 2.088209 1_555
O0 Te1 1.997651 1_655
O1 Te0 1.974025 1_555
O2 Te1 1.964820 1_645
O3 Te1 1.923339 1_655
O3 Zr0 2.168519 1_666
O4 Te0 1.931278 1_554
O4 Zr0 2.063436 1_655
O5 Te0 1.927858 1_555
O5 Zr0 2.107760 1_556
O6 Te0 1.901044 1_554
O6 Zr0 2.075374 1_665
O7 Te1 1.877965 1_555
O7 Zr0 2.062213 1_565
O8 Te0 1.916983 1_555
O8 Zr0 2.148685 1_566
O9 Te0 2.031907 1_554
O10 Te1 1.974233 1_555
O11 Te1 1.958236 1_545
