# generated using pymatgen
data_LiNiPO4
_symmetry_space_group_name_H-M   'P 1'
_cell_length_a   5.15564761
_cell_length_b   8.65805199
_cell_length_c   7.77813737
_cell_angle_alpha   101.33683523
_cell_angle_beta   90.23687436
_cell_angle_gamma   90.02361536
_symmetry_Int_Tables_number   1
_chemical_formula_structural   LiNiPO4
_chemical_formula_sum   'Li4 Ni4 P4 O16'
_cell_volume   340.42188385
_cell_formula_units_Z   4
loop_
 _symmetry_equiv_pos_site_id
 _symmetry_equiv_pos_as_xyz
  1  'x, y, z'
loop_
 _atom_site_type_symbol
 _atom_site_label
 _atom_site_symmetry_multiplicity
 _atom_site_fract_x
 _atom_site_fract_y
 _atom_site_fract_z
 _atom_site_occupancy
  Li  Li0  1  0.56186500  0.91228900  0.00722400  1
  Li  Li1  1  0.06724500  0.09019100  0.99205800  1
  Li  Li2  1  0.47476900  0.68105800  0.53488000  1
  Li  Li3  1  0.97651200  0.31907800  0.46363100  1
  Ni  Ni0  1  0.46508300  0.40852500  0.79933900  1
  Ni  Ni1  1  0.01822900  0.91238700  0.62357500  1
  Ni  Ni2  1  0.96392500  0.59170700  0.20052900  1
  Ni  Ni3  1  0.51900500  0.08802200  0.37719600  1
  P  P0  1  0.47170600  0.41150200  0.23261900  1
  P  P1  1  0.97268500  0.58805900  0.76687700  1
  P  P2  1  0.05520400  0.95777300  0.28657600  1
  P  P3  1  0.55730100  0.04215600  0.71408900  1
  O  O0  1  0.49748200  0.35584500  0.03196200  1
  O  O1  1  0.00119100  0.64252200  0.96764300  1
  O  O2  1  0.60836000  0.57414900  0.29497800  1
  O  O3  1  0.10884700  0.42559100  0.70410800  1
  O  O4  1  0.79360400  0.98077100  0.20115300  1
  O  O5  1  0.29753900  0.01748300  0.79974500  1
  O  O6  1  0.27624500  0.98933000  0.16318300  1
  O  O7  1  0.77988700  0.01170400  0.83791000  1
  O  O8  1  0.17748200  0.42732000  0.28498000  1
  O  O9  1  0.67784400  0.57251100  0.71433900  1
  O  O10  1  0.08094300  0.79739000  0.34587700  1
  O  O11  1  0.58012000  0.20259000  0.65482500  1
  O  O12  1  0.60833300  0.29421200  0.32936500  1
  O  O13  1  0.10806700  0.70577500  0.67066500  1
  O  O14  1  0.09179000  0.08472600  0.46007600  1
  O  O15  1  0.59290600  0.91533500  0.54059800  1
loop_
_geom_bond_atom_site_label_1
_geom_bond_atom_site_label_2
_geom_bond_distance
_geom_bond_site_symmetry_2
Li0 O4 1.920208 1_555
Li0 O6 1.944825 1_555
Li0 O7 2.048366 1_564
Li0 O5 2.419030 1_564
Li1 O5 1.920577 1_555
Li1 O7 1.938657 1_455
Li1 O6 2.034994 1_546
Li1 O4 2.481240 1_446
Li2 O2 2.035969 1_555
Li2 O9 2.105304 1_555
Li2 O15 2.109638 1_555
Li2 O13 2.159527 1_555
Li3 O3 2.031093 1_655
Li3 O8 2.099011 1_655
Li3 O14 2.109511 1_655
Li3 O12 2.152914 1_555
Ni0 O0 1.957495 1_556
Ni0 O3 1.993916 1_555
Ni0 O11 2.003186 1_555
Ni0 O9 2.007470 1_555
Ni1 O13 1.950788 1_555
Ni1 O5 2.066807 1_565
Ni1 O7 2.117286 1_465
Ni1 O14 2.176482 1_565
Ni1 O10 2.218531 1_555
Ni1 O15 2.284833 1_455
Ni2 O1 1.956489 1_654
Ni2 O2 1.994522 1_555
Ni2 O10 2.003830 1_655
Ni2 O8 2.008061 1_655
Ni3 O12 1.949184 1_555
Ni3 O4 2.063672 1_545
Ni3 O6 2.119020 1_545
Ni3 O15 2.177038 1_545
Ni3 O11 2.213223 1_555
Ni3 O14 2.299266 1_555
O0 P0 1.546562 1_555
O1 P1 1.546301 1_455
O2 P0 1.562851 1_555
O3 P1 1.563170 1_455
O4 P2 1.531333 1_655
O5 P3 1.531724 1_555
O6 P2 1.551257 1_555
O7 P3 1.550787 1_555
O8 P0 1.571308 1_555
O9 P1 1.571265 1_555
O10 P2 1.552431 1_555
O11 P3 1.551717 1_555
O12 P0 1.546069 1_555
O13 P1 1.545818 1_455
O14 P2 1.574630 1_545
O15 P3 1.574803 1_565
