# generated using pymatgen
data_Li3Mn2(PO4)3
_symmetry_space_group_name_H-M   'P 1'
_cell_length_a   8.65827900
_cell_length_b   8.93564500
_cell_length_c   12.12054200
_cell_angle_alpha   90.00000000
_cell_angle_beta   90.00000000
_cell_angle_gamma   90.00000000
_symmetry_Int_Tables_number   1
_chemical_formula_structural   Li3Mn2(PO4)3
_chemical_formula_sum   'Li12 Mn8 P12 O48'
_cell_volume   937.73369943
_cell_formula_units_Z   4
loop_
 _symmetry_equiv_pos_site_id
 _symmetry_equiv_pos_as_xyz
  1  'x, y, z'
loop_
 _atom_site_type_symbol
 _atom_site_label
 _atom_site_symmetry_multiplicity
 _atom_site_fract_x
 _atom_site_fract_y
 _atom_site_fract_z
 _atom_site_occupancy
  Li  Li0  1  0.52330200  0.53173300  0.18174500  1
  Li  Li1  1  0.47669800  0.53173300  0.81825500  1
  Li  Li2  1  0.97669800  0.46826700  0.68174500  1
  Li  Li3  1  0.02330200  0.46826700  0.31825500  1
  Li  Li4  1  0.18400200  0.19715800  0.21447900  1
  Li  Li5  1  0.81599800  0.19715800  0.78552100  1
  Li  Li6  1  0.51937400  0.05335400  0.31516000  1
  Li  Li7  1  0.48062600  0.05335400  0.68484000  1
  Li  Li8  1  0.01937400  0.94664600  0.18484000  1
  Li  Li9  1  0.98062600  0.94664600  0.81516000  1
  Li  Li10  1  0.68400200  0.80284200  0.28552100  1
  Li  Li11  1  0.31599800  0.80284200  0.71447900  1
  Mn  Mn0  1  0.20996200  0.50179200  0.11238600  1
  Mn  Mn1  1  0.79003800  0.50179200  0.88761400  1
  Mn  Mn2  1  0.70996200  0.49820800  0.38761400  1
  Mn  Mn3  1  0.29003800  0.49820800  0.61238600  1
  Mn  Mn4  1  0.20597000  0.98822400  0.38943800  1
  Mn  Mn5  1  0.79403000  0.98822400  0.61056200  1
  Mn  Mn6  1  0.70597000  0.01177600  0.11056200  1
  Mn  Mn7  1  0.29403000  0.01177600  0.88943800  1
  P  P0  1  0.00000000  0.69849400  0.50000000  1
  P  P1  1  0.14254100  0.64320600  0.85404800  1
  P  P2  1  0.85745900  0.64320600  0.14595200  1
  P  P3  1  0.35745900  0.35679400  0.35404800  1
  P  P4  1  0.64254100  0.35679400  0.64595200  1
  P  P5  1  0.50000000  0.30150600  0.00000000  1
  P  P6  1  0.00000000  0.19562200  0.00000000  1
  P  P7  1  0.86138900  0.14335300  0.35403100  1
  P  P8  1  0.13861100  0.14335300  0.64596900  1
  P  P9  1  0.36138900  0.85664700  0.14596900  1
  P  P10  1  0.63861100  0.85664700  0.85403100  1
  P  P11  1  0.50000000  0.80437800  0.50000000  1
  O  O0  1  0.39397000  0.71449500  0.57600100  1
  O  O1  1  0.60603000  0.71449500  0.42399900  1
  O  O2  1  0.36045200  0.68783500  0.16586200  1
  O  O3  1  0.63954800  0.68783500  0.83413800  1
  O  O4  1  0.81504400  0.59801300  0.02926100  1
  O  O5  1  0.18495600  0.59801300  0.97073900  1
  O  O6  1  0.90720500  0.59174200  0.42077300  1
  O  O7  1  0.09279500  0.59174200  0.57922700  1
  O  O8  1  0.01918800  0.58225500  0.17905700  1
  O  O9  1  0.98081200  0.58225500  0.82094300  1
  O  O10  1  0.73153700  0.58267200  0.22835300  1
  O  O11  1  0.26846300  0.58267200  0.77164700  1
  O  O12  1  0.23153700  0.41732800  0.27164700  1
  O  O13  1  0.76846300  0.41732800  0.72835300  1
  O  O14  1  0.48081200  0.41774500  0.67905700  1
  O  O15  1  0.51918800  0.41774500  0.32094300  1
  O  O16  1  0.40720500  0.40825800  0.07922700  1
  O  O17  1  0.59279500  0.40825800  0.92077300  1
  O  O18  1  0.31504400  0.40198700  0.47073900  1
  O  O19  1  0.68495600  0.40198700  0.52926100  1
  O  O20  1  0.86045200  0.31216500  0.33413800  1
  O  O21  1  0.13954800  0.31216500  0.66586200  1
  O  O22  1  0.10603000  0.28550500  0.07600100  1
  O  O23  1  0.89397000  0.28550500  0.92399900  1
  O  O24  1  0.39540000  0.21107600  0.92466500  1
  O  O25  1  0.60460000  0.21107600  0.07533500  1
  O  O26  1  0.35372600  0.18608500  0.33577000  1
  O  O27  1  0.64627400  0.18608500  0.66423000  1
  O  O28  1  0.82930400  0.09992900  0.47299800  1
  O  O29  1  0.17069600  0.09992900  0.52700200  1
  O  O30  1  0.90914200  0.08772000  0.07896800  1
  O  O31  1  0.09085800  0.08772000  0.92103200  1
  O  O32  1  0.02682200  0.08526300  0.31616300  1
  O  O33  1  0.97317800  0.08526300  0.68383700  1
  O  O34  1  0.73940300  0.05899000  0.28095000  1
  O  O35  1  0.26059700  0.05899000  0.71905000  1
  O  O36  1  0.23940300  0.94101000  0.21905000  1
  O  O37  1  0.76059700  0.94101000  0.78095000  1
  O  O38  1  0.52682200  0.91473700  0.18383700  1
  O  O39  1  0.47317800  0.91473700  0.81616300  1
  O  O40  1  0.40914200  0.91228000  0.42103200  1
  O  O41  1  0.59085800  0.91228000  0.57896800  1
  O  O42  1  0.32930400  0.90007100  0.02700200  1
  O  O43  1  0.67069600  0.90007100  0.97299800  1
  O  O44  1  0.85372600  0.81391500  0.16423000  1
  O  O45  1  0.14627400  0.81391500  0.83577000  1
  O  O46  1  0.10460000  0.78892400  0.42466500  1
  O  O47  1  0.89540000  0.78892400  0.57533500  1
loop_
_geom_bond_atom_site_label_1
_geom_bond_atom_site_label_2
_geom_bond_distance
_geom_bond_site_symmetry_2
Li0 O16 1.942100 1_555
Li0 O10 1.943441 1_555
Li0 O15 1.971096 1_555
Li0 O2 1.992694 1_555
Li1 O17 1.942100 1_555
Li1 O11 1.943441 1_555
Li1 O14 1.971096 1_555
Li1 O3 1.992694 1_555
Li2 O7 1.942100 1_655
Li2 O13 1.943441 1_555
Li2 O9 1.971096 1_555
Li2 O21 1.992694 1_655
Li3 O6 1.942100 1_455
Li3 O12 1.943441 1_555
Li3 O8 1.971096 1_555
Li3 O20 1.992694 1_455
Li4 O22 1.973854 1_555
Li4 O26 2.080986 1_555
Li4 O32 2.090634 1_555
Li4 O12 2.126034 1_555
Li4 O36 2.339227 1_545
Li5 O23 1.973854 1_555
Li5 O27 2.080986 1_555
Li5 O33 2.090634 1_555
Li5 O13 2.126034 1_555
Li5 O37 2.339227 1_545
Li6 O26 1.877789 1_555
Li6 O34 1.950325 1_555
Li6 O38 2.017894 1_545
Li6 O40 2.036336 1_545
Li7 O27 1.877789 1_555
Li7 O35 1.950325 1_555
Li7 O39 2.017894 1_545
Li7 O41 2.036336 1_545
Li8 O44 1.877789 1_455
Li8 O36 1.950325 1_555
Li8 O32 2.017894 1_565
Li8 O30 2.036336 1_465
Li9 O45 1.877789 1_655
Li9 O37 1.950325 1_555
Li9 O33 2.017894 1_565
Li9 O31 2.036336 1_665
Li10 O1 1.973854 1_555
Li10 O44 2.080986 1_555
Li10 O38 2.090634 1_555
Li10 O10 2.126034 1_555
Li10 O34 2.339227 1_565
Li11 O0 1.973854 1_555
Li11 O45 2.080986 1_555
Li11 O39 2.090634 1_555
Li11 O11 2.126034 1_555
Li11 O35 2.339227 1_565
Mn0 O5 1.932268 1_554
Mn0 O16 1.943347 1_555
Mn0 O8 1.974414 1_555
Mn0 O12 2.081034 1_555
Mn0 O22 2.177027 1_555
Mn0 O2 2.209411 1_555
Mn1 O4 1.932268 1_556
Mn1 O17 1.943347 1_555
Mn1 O9 1.974414 1_555
Mn1 O13 2.081034 1_555
Mn1 O23 2.177027 1_555
Mn1 O3 2.209411 1_555
Mn2 O19 1.932268 1_555
Mn2 O6 1.943347 1_555
Mn2 O15 1.974414 1_555
Mn2 O10 2.081034 1_555
Mn2 O1 2.177027 1_555
Mn2 O20 2.209411 1_555
Mn3 O18 1.932268 1_555
Mn3 O7 1.943347 1_555
Mn3 O14 1.974414 1_555
Mn3 O11 2.081034 1_555
Mn3 O0 2.177027 1_555
Mn3 O21 2.209411 1_555
Mn4 O40 1.923968 1_555
Mn4 O29 1.967142 1_565
Mn4 O32 1.986606 1_565
Mn4 O46 2.030802 1_555
Mn4 O36 2.127631 1_555
Mn4 O26 2.277203 1_565
Mn5 O41 1.923968 1_555
Mn5 O28 1.967142 1_565
Mn5 O33 1.986606 1_565
Mn5 O47 2.030802 1_555
Mn5 O37 2.127631 1_555
Mn5 O27 2.277203 1_565
Mn6 O30 1.923968 1_555
Mn6 O43 1.967142 1_544
Mn6 O38 1.986606 1_545
Mn6 O25 2.030802 1_555
Mn6 O34 2.127631 1_555
Mn6 O44 2.277203 1_545
Mn7 O31 1.923968 1_555
Mn7 O42 1.967142 1_546
Mn7 O39 1.986606 1_545
Mn7 O24 2.030802 1_555
Mn7 O35 2.127631 1_555
Mn7 O45 2.277203 1_545
O0 P11 1.528536 1_555
O1 P11 1.528536 1_555
O2 P9 1.527614 1_555
O3 P10 1.527614 1_555
O4 P2 1.516032 1_555
O5 P1 1.516032 1_555
O6 P0 1.574030 1_655
O7 P0 1.574030 1_555
O8 P2 1.555139 1_455
O9 P1 1.555139 1_655
O10 P2 1.574408 1_555
O11 P1 1.574408 1_555
O12 P3 1.574408 1_555
O13 P4 1.574408 1_555
O14 P4 1.555139 1_555
O15 P3 1.555139 1_555
O16 P5 1.574030 1_555
O17 P5 1.574030 1_556
O18 P3 1.516032 1_555
O19 P4 1.516032 1_555
O20 P7 1.527614 1_555
O21 P8 1.527614 1_555
O22 P6 1.528536 1_555
O23 P6 1.528536 1_656
O24 P5 1.518852 1_556
O25 P5 1.518852 1_555
O26 P3 1.541737 1_555
O27 P4 1.541737 1_555
O28 P7 1.518861 1_555
O29 P8 1.518861 1_555
O30 P6 1.569903 1_655
O31 P6 1.569903 1_556
O32 P7 1.591153 1_455
O33 P8 1.591153 1_655
O34 P7 1.571119 1_555
O35 P8 1.571119 1_555
O36 P9 1.571119 1_555
O37 P10 1.571119 1_555
O38 P9 1.591153 1_555
O39 P10 1.591153 1_555
O40 P11 1.569903 1_555
O41 P11 1.569903 1_555
O42 P9 1.518861 1_555
O43 P10 1.518861 1_555
O44 P2 1.541737 1_555
O45 P1 1.541737 1_555
O46 P0 1.518852 1_555
O47 P0 1.518852 1_655
