# generated using pymatgen
data_Rb4SiO4
_symmetry_space_group_name_H-M   'P 1'
_cell_length_a   6.60167190
_cell_length_b   10.66530122
_cell_length_c   10.96500685
_cell_angle_alpha   67.12796663
_cell_angle_beta   90.00000000
_cell_angle_gamma   90.00000000
_symmetry_Int_Tables_number   1
_chemical_formula_structural   Rb4SiO4
_chemical_formula_sum   'Rb16 Si4 O16'
_cell_volume   711.33225584
_cell_formula_units_Z   4
loop_
 _symmetry_equiv_pos_site_id
 _symmetry_equiv_pos_as_xyz
  1  'x, y, z'
loop_
 _atom_site_type_symbol
 _atom_site_label
 _atom_site_symmetry_multiplicity
 _atom_site_fract_x
 _atom_site_fract_y
 _atom_site_fract_z
 _atom_site_occupancy
  Rb  Rb0  1  0.57828817  0.28790190  0.07398422  1
  Rb  Rb1  1  0.12375379  0.42976012  0.14926086  1
  Rb  Rb2  1  0.92171183  0.78790190  0.07398422  1
  Rb  Rb3  1  0.32471383  0.10446061  0.37853244  1
  Rb  Rb4  1  0.82775480  0.21862397  0.41117537  1
  Rb  Rb5  1  0.37624621  0.92976012  0.14926086  1
  Rb  Rb6  1  0.17528617  0.60446061  0.37853244  1
  Rb  Rb7  1  0.32775480  0.28137603  0.58882463  1
  Rb  Rb8  1  0.67224520  0.71862397  0.41117537  1
  Rb  Rb9  1  0.82471383  0.39553939  0.62146756  1
  Rb  Rb10  1  0.62375379  0.07023988  0.85073914  1
  Rb  Rb11  1  0.17224520  0.78137603  0.58882463  1
  Rb  Rb12  1  0.67528617  0.89553939  0.62146756  1
  Rb  Rb13  1  0.07828817  0.21209810  0.92601578  1
  Rb  Rb14  1  0.87624621  0.57023988  0.85073914  1
  Rb  Rb15  1  0.42171183  0.71209810  0.92601578  1
  Si  Si0  1  0.87907152  0.01524523  0.23885857  1
  Si  Si1  1  0.62092848  0.51524523  0.23885857  1
  Si  Si2  1  0.37907152  0.48475477  0.76114143  1
  Si  Si3  1  0.12092848  0.98475477  0.76114143  1
  O  O0  1  0.78180958  0.01908643  0.09912435  1
  O  O1  1  0.01113501  0.15655642  0.20741458  1
  O  O2  1  0.71819042  0.51908643  0.09912435  1
  O  O3  1  0.47422346  0.37923977  0.31057745  1
  O  O4  1  0.48886499  0.65655642  0.20741458  1
  O  O5  1  0.81173487  0.50757077  0.34064302  1
  O  O6  1  0.02577654  0.87923977  0.31057745  1
  O  O7  1  0.31173487  -0.00757077  0.65935698  1
  O  O8  1  0.68826513  0.00757077  0.34064302  1
  O  O9  1  0.97422346  0.12076023  0.68942255  1
  O  O10  1  0.18826513  0.49242923  0.65935698  1
  O  O11  1  0.51113501  0.34344358  0.79258542  1
  O  O12  1  0.52577654  0.62076023  0.68942255  1
  O  O13  1  0.28180958  0.48091357  0.90087565  1
  O  O14  1  -0.01113501  0.84344358  0.79258542  1
  O  O15  1  0.21819042  0.98091357  0.90087565  1
loop_
_geom_bond_atom_site_label_1
_geom_bond_atom_site_label_2
_geom_bond_distance
_geom_bond_site_symmetry_2
O0 Si0 1.647046 1_555
O0 Rb2 2.745324 1_545
O0 Rb10 2.765692 1_554
O0 Rb5 2.823325 1_545
O0 Rb13 2.938353 1_654
O0 Rb0 3.080020 1_555
O1 Si0 1.657249 1_455
O1 Rb3 2.702656 1_555
O1 Rb1 2.829359 1_555
O1 Rb4 2.836426 1_455
O1 Rb13 2.940607 1_554
O1 Rb0 3.267277 1_455
O2 Si1 1.647046 1_555
O2 Rb0 2.745324 1_555
O2 Rb14 2.765692 1_554
O2 Rb1 2.823325 1_655
O2 Rb15 2.938353 1_554
O2 Rb2 3.080020 1_555
O3 Si1 1.665459 1_555
O3 Rb1 2.833968 1_555
O3 Rb4 2.851209 1_555
O3 Rb3 2.901787 1_555
O3 Rb7 2.976145 1_555
O3 Rb0 3.180494 1_555
O4 Si1 1.657249 1_555
O4 Rb6 2.702656 1_555
O4 Rb5 2.829359 1_555
O4 Rb8 2.836426 1_555
O4 Rb15 2.940607 1_554
O4 Rb2 3.267277 1_555
O5 Si1 1.663728 1_555
O5 Rb6 2.708208 1_655
O5 Rb8 2.804662 1_555
O5 Rb9 2.838432 1_555
O5 Rb4 2.872894 1_555
O5 Rb1 3.269425 1_655
O5 Rb2 3.349604 1_555
O6 Si0 1.665459 1_465
O6 Rb5 2.833968 1_555
O6 Rb8 2.851209 1_455
O6 Rb6 2.901787 1_555
O6 Rb11 2.976145 1_555
O6 Rb2 3.180494 1_455
O7 Si3 1.663728 1_545
O7 Rb12 2.708208 1_545
O7 Rb11 2.804662 1_545
O7 Rb3 2.838432 1_555
O7 Rb7 2.872894 1_555
O7 Rb10 3.269425 1_555
O7 Rb15 3.349604 1_545
O8 Si0 1.663728 1_555
O8 Rb3 2.708208 1_555
O8 Rb4 2.804662 1_555
O8 Rb12 2.838432 1_545
O8 Rb8 2.872894 1_545
O8 Rb5 3.269425 1_545
O8 Rb0 3.349604 1_555
O9 Si3 1.665459 1_645
O9 Rb10 2.833968 1_555
O9 Rb7 2.851209 1_655
O9 Rb9 2.901787 1_555
O9 Rb4 2.976145 1_555
O9 Rb13 3.180494 1_655
O10 Si2 1.663728 1_555
O10 Rb9 2.708208 1_455
O10 Rb7 2.804662 1_555
O10 Rb6 2.838432 1_555
O10 Rb11 2.872894 1_555
O10 Rb14 3.269425 1_455
O10 Rb13 3.349604 1_555
O11 Si2 1.657249 1_555
O11 Rb9 2.702656 1_555
O11 Rb10 2.829359 1_555
O11 Rb7 2.836426 1_555
O11 Rb0 2.940607 1_556
O11 Rb13 3.267277 1_555
O12 Si2 1.665459 1_555
O12 Rb14 2.833968 1_555
O12 Rb11 2.851209 1_555
O12 Rb12 2.901787 1_555
O12 Rb8 2.976145 1_555
O12 Rb15 3.180494 1_555
O13 Si2 1.647046 1_555
O13 Rb15 2.745324 1_555
O13 Rb1 2.765692 1_556
O13 Rb14 2.823325 1_455
O13 Rb0 2.938353 1_556
O13 Rb13 3.080020 1_555
O14 Si3 1.657249 1_555
O14 Rb12 2.702656 1_455
O14 Rb14 2.829359 1_455
O14 Rb11 2.836426 1_555
O14 Rb2 2.940607 1_456
O14 Rb15 3.267277 1_555
O15 Si3 1.647046 1_555
O15 Rb13 2.745324 1_565
O15 Rb5 2.765692 1_556
O15 Rb10 2.823325 1_565
O15 Rb2 2.938353 1_456
O15 Rb15 3.080020 1_555
