# generated using pymatgen
data_LiV2(OF)3
_symmetry_space_group_name_H-M   'P 1'
_cell_length_a   10.17500310
_cell_length_b   10.27958671
_cell_length_c   10.76499445
_cell_angle_alpha   86.18057150
_cell_angle_beta   116.30303827
_cell_angle_gamma   62.12159164
_symmetry_Int_Tables_number   1
_chemical_formula_structural   LiV2(OF)3
_chemical_formula_sum   'Li8 V16 O24 F24'
_cell_volume   837.27852952
_cell_formula_units_Z   8
loop_
 _symmetry_equiv_pos_site_id
 _symmetry_equiv_pos_as_xyz
  1  'x, y, z'
loop_
 _atom_site_type_symbol
 _atom_site_label
 _atom_site_symmetry_multiplicity
 _atom_site_fract_x
 _atom_site_fract_y
 _atom_site_fract_z
 _atom_site_occupancy
  Li  Li0  1  0.26775200  0.12768700  0.67423400  1
  Li  Li1  1  0.77344200  0.12434600  0.68081100  1
  Li  Li2  1  0.80365100  0.34287800  0.43930000  1
  Li  Li3  1  0.22833300  0.64320100  0.09942000  1
  Li  Li4  1  0.27061300  0.62452200  0.67766000  1
  Li  Li5  1  0.30614300  0.84137400  0.43585400  1
  Li  Li6  1  0.76102900  0.62798700  0.66869600  1
  Li  Li7  1  0.79809700  0.84394200  0.43458600  1
  V  V0  1  0.47239600  0.01771200  0.48593600  1
  V  V1  1  0.02186100  0.23439100  0.25278300  1
  V  V2  1  0.51565900  0.99419600  0.00964500  1
  V  V3  1  0.01275500  0.27046400  0.77335100  1
  V  V4  1  0.97045300  0.01180100  0.48273700  1
  V  V5  1  0.52147200  0.23630000  0.25016800  1
  V  V6  1  0.01643300  0.98637600  0.00139600  1
  V  V7  1  0.49805900  0.26068000  0.75691700  1
  V  V8  1  0.47680400  0.50402600  0.48899100  1
  V  V9  1  0.02174400  0.73359300  0.25633800  1
  V  V10  1  0.52016700  0.48437500  0.99347300  1
  V  V11  1  0.00177300  0.76607700  0.76023400  1
  V  V12  1  0.97638400  0.50837200  0.48372000  1
  V  V13  1  0.52131700  0.73366400  0.25487500  1
  V  V14  1  0.00880900  0.49715000  0.00759900  1
  V  V15  1  0.50876400  0.77161000  0.76915900  1
  O  O0  1  0.24671300  0.05645800  0.37662700  1
  O  O1  1  0.04267800  0.33085400  0.12975500  1
  O  O2  1  0.04027600  0.32231300  0.62046300  1
  O  O3  1  0.45433800  0.16196800  0.37463300  1
  O  O4  1  0.45738400  0.16687900  0.86248500  1
  O  O5  1  0.74721200  0.05149200  0.36821600  1
  O  O6  1  0.05401800  0.37870400  0.87436200  1
  O  O7  1  0.54643000  0.33139200  0.13171100  1
  O  O8  1  0.54860500  0.32749500  0.62429600  1
  O  O9  1  0.94830200  0.16831000  0.37813400  1
  O  O10  1  0.96452800  0.16897700  0.86084500  1
  O  O11  1  0.54913300  0.37908200  0.88071600  1
  O  O12  1  0.23779500  0.57122900  0.36975500  1
  O  O13  1  0.05582300  0.82246200  0.12731600  1
  O  O14  1  0.04189500  0.82344600  0.61848000  1
  O  O15  1  0.45096200  0.66277600  0.37771600  1
  O  O16  1  0.46372900  0.66787800  0.86126500  1
  O  O17  1  0.74658900  0.55408000  0.37180200  1
  O  O18  1  0.04995600  0.88232900  0.88077700  1
  O  O19  1  0.53580200  0.83558700  0.12914600  1
  O  O20  1  0.53751600  0.82195900  0.61879300  1
  O  O21  1  0.94527000  0.67040200  0.38000000  1
  O  O22  1  0.96990900  0.66522100  0.87148700  1
  O  O23  1  0.55670100  0.87445100  0.87493700  1
  F  F0  1  0.25231700  0.08108000  0.86146000  1
  F  F1  1  0.43834800  0.13618200  0.11661800  1
  F  F2  1  0.42391000  0.13357200  0.61729800  1
  F  F3  1  0.05965000  0.36629000  0.38160300  1
  F  F4  1  0.75353900  0.08240200  0.86564100  1
  F  F5  1  0.25762400  0.43902700  0.13835500  1
  F  F6  1  0.95031600  0.12574300  0.11358200  1
  F  F7  1  0.24814000  0.44467600  0.63409700  1
  F  F8  1  0.90928400  0.13597200  0.60348500  1
  F  F9  1  0.57310900  0.36409300  0.38467100  1
  F  F10  1  0.25666800  0.58374100  0.86886800  1
  F  F11  1  0.75340600  0.42549400  0.13399700  1
  F  F12  1  0.75526100  0.43730600  0.62976300  1
  F  F13  1  0.43561700  0.62759400  0.11500200  1
  F  F14  1  0.40912000  0.63659500  0.60234500  1
  F  F15  1  0.06795200  0.86940500  0.37762000  1
  F  F16  1  0.74796600  0.58080900  0.85675300  1
  F  F17  1  0.25433600  0.92487100  0.13780800  1
  F  F18  1  0.93654900  0.63713300  0.11725700  1
  F  F19  1  0.25368000  0.93747200  0.63278600  1
  F  F20  1  0.91613200  0.63867200  0.61151900  1
  F  F21  1  0.57597900  0.85838500  0.39028000  1
  F  F22  1  0.76202300  0.92054900  0.13715300  1
  F  F23  1  0.74728400  0.94460700  0.63142900  1
loop_
_geom_bond_atom_site_label_1
_geom_bond_atom_site_label_2
_geom_bond_distance
_geom_bond_site_symmetry_2
Li0 O2 2.005678 1_555
Li0 O4 2.315704 1_555
Li0 O23 2.559715 1_545
Li1 O8 2.023410 1_555
Li1 O10 2.315179 1_555
Li1 O18 2.472278 1_645
Li2 O17 1.953387 1_555
Li2 O9 2.089568 1_555
Li2 O2 2.225456 1_655
Li3 O13 2.020603 1_555
Li3 O18 2.479394 1_554
Li4 O14 2.016258 1_555
Li4 O16 2.336811 1_555
Li4 O11 2.502712 1_555
Li5 O0 1.969964 1_565
Li5 O15 2.091410 1_555
Li5 O20 2.204516 1_555
Li6 O20 1.992565 1_555
Li6 O22 2.487866 1_555
Li6 O6 2.570245 1_655
Li7 O5 1.940749 1_565
Li7 O21 2.047280 1_555
Li7 O14 2.284833 1_655
O0 V1 1.848169 1_555
O0 V0 1.871873 1_555
O1 V1 1.747064 1_555
O1 V14 1.875690 1_555
O2 V3 1.871479 1_555
O2 V12 1.965096 1_455
O3 V0 1.726769 1_555
O3 V5 2.002138 1_555
O4 V7 1.742578 1_555
O4 V2 1.954679 1_546
O5 V4 1.852146 1_555
O5 V5 1.873637 1_555
O6 V3 1.670376 1_555
O6 V14 2.011190 1_556
O7 V5 1.731817 1_555
O7 V10 1.924009 1_554
O8 V8 1.847506 1_555
O8 V7 1.903920 1_555
O9 V4 1.761189 1_555
O9 V1 2.022609 1_655
O10 V3 1.724451 1_655
O10 V6 2.019385 1_646
O11 V10 1.710415 1_555
O11 V7 1.929085 1_555
O12 V9 1.739979 1_555
O12 V8 1.892964 1_555
O13 V6 1.849292 1_555
O13 V9 1.854162 1_555
O14 V11 1.870940 1_555
O14 V4 1.943723 1_465
O15 V8 1.796173 1_555
O15 V13 1.997642 1_555
O16 V15 1.746107 1_555
O16 V10 1.954114 1_555
O17 V13 1.849999 1_555
O17 V12 1.881475 1_555
O18 V6 1.784003 1_556
O18 V11 1.882287 1_555
O19 V13 1.756023 1_555
O19 V2 1.878727 1_555
O20 V15 1.850212 1_555
O20 V0 2.015824 1_565
O21 V12 1.751276 1_555
O21 V9 2.018682 1_655
O22 V11 1.762774 1_655
O22 V14 1.948794 1_656
O23 V15 1.674070 1_555
O23 V2 2.021441 1_556
F0 V3 1.974442 1_555
F0 V2 2.075127 1_546
F0 Li0 2.130408 1_555
F1 V5 1.942928 1_555
F1 V2 2.007038 1_545
F2 Li0 1.962647 1_555
F2 V0 1.988650 1_555
F2 V7 2.171188 1_555
F3 V12 1.985321 1_455
F3 V1 2.043228 1_555
F4 V7 2.012089 1_555
F4 V6 2.034561 1_646
F4 Li1 2.123738 1_555
F5 Li3 1.963841 1_555
F5 V14 2.015671 1_555
F5 V5 2.137504 1_555
F6 V6 2.003177 1_645
F6 V1 2.009815 1_655
F7 V7 1.995285 1_555
F7 Li4 2.026294 1_555
F7 V12 2.212188 1_455
F8 Li1 1.943848 1_555
F8 V4 1.975177 1_555
F8 Li2 2.116737 1_555
F9 V8 2.040284 1_555
F9 Li2 2.044003 1_555
F9 V5 2.079161 1_555
F10 V11 2.020179 1_555
F10 V10 2.024861 1_555
F10 Li4 2.152253 1_555
F11 V10 1.907849 1_554
F11 V1 2.122990 1_655
F12 V3 2.012608 1_655
F12 Li6 2.053389 1_555
F12 V8 2.243554 1_555
F12 Li2 2.470096 1_555
F13 Li3 1.966896 1_555
F13 V13 2.039793 1_555
F13 V10 2.165339 1_554
F14 Li4 1.954914 1_555
F14 V8 1.977127 1_555
F14 Li5 2.124075 1_555
F14 V15 2.492667 1_555
F15 V9 2.046312 1_555
F15 V4 2.065139 1_465
F15 Li5 2.079949 1_555
F16 V15 1.978680 1_555
F16 V14 2.068932 1_656
F16 Li6 2.125828 1_555
F17 V6 1.926268 1_555
F17 V13 2.115099 1_555
F18 V9 1.956449 1_655
F18 V14 2.002695 1_655
F19 V15 1.987439 1_555
F19 Li0 2.089101 1_565
F19 V4 2.269107 1_465
F20 Li6 1.973709 1_555
F20 V12 2.070666 1_555
F20 Li7 2.142424 1_555
F20 V11 2.268873 1_655
F21 Li7 2.019608 1_555
F21 V13 2.067636 1_555
F21 V0 2.103764 1_565
F22 V2 1.943822 1_555
F22 V9 2.059189 1_655
F23 V11 2.007626 1_655
F23 Li1 2.057322 1_565
F23 V0 2.199111 1_565
