# generated using pymatgen
data_Li2VOF5
_symmetry_space_group_name_H-M   'P 1'
_cell_length_a   5.46957101
_cell_length_b   5.46957101
_cell_length_c   5.46957101
_cell_angle_alpha   111.69995030
_cell_angle_beta   108.54829324
_cell_angle_gamma   108.18885855
_symmetry_Int_Tables_number   1
_chemical_formula_structural   Li2VOF5
_chemical_formula_sum   'Li2 V1 O1 F5'
_cell_volume   125.81677276
_cell_formula_units_Z   1
loop_
 _symmetry_equiv_pos_site_id
 _symmetry_equiv_pos_as_xyz
  1  'x, y, z'
loop_
 _atom_site_type_symbol
 _atom_site_label
 _atom_site_symmetry_multiplicity
 _atom_site_fract_x
 _atom_site_fract_y
 _atom_site_fract_z
 _atom_site_occupancy
  Li  Li0  1  0.46671700  0.73652500  0.20324200  1
  Li  Li1  1  0.46671700  0.26347500  0.73019200  1
  V  V0  1  0.99897100  0.00000000  0.99897100  1
  O  O0  1  0.74358200  0.00000000  0.74358200  1
  F  F0  1  0.32074900  0.29862800  0.02212100  1
  F  F1  1  0.72349400  0.70137200  0.02212100  1
  F  F2  1  0.05540200  0.28838200  0.34378400  1
  F  F3  1  0.05540200  0.71161800  0.76702100  1
  F  F4  1  0.32883700  0.00000000  0.32883700  1
loop_
_geom_bond_atom_site_label_1
_geom_bond_atom_site_label_2
_geom_bond_distance
_geom_bond_site_symmetry_2
Li0 O0 2.396919 1_565
Li1 O0 2.396919 1_555
O0 V0 1.631284 1_555
F0 V0 1.921478 1_454
F0 Li0 1.975794 1_555
F0 Li1 1.975794 1_554
F1 V0 1.921475 1_564
F1 Li1 1.975794 1_554
F1 Li0 1.975799 1_555
F2 V0 1.807212 1_454
F3 V0 1.807209 1_465
F4 Li1 1.842119 1_555
F4 Li0 1.842119 1_545
F4 V0 2.107002 1_454
