# generated using pymatgen
data_LiMnCO4
_symmetry_space_group_name_H-M   'P 1'
_cell_length_a   3.37760180
_cell_length_b   9.18451700
_cell_length_c   9.61311699
_cell_angle_alpha   90.00027420
_cell_angle_beta   98.25261375
_cell_angle_gamma   89.99981891
_symmetry_Int_Tables_number   1
_chemical_formula_structural   LiMnCO4
_chemical_formula_sum   'Li4 Mn4 C4 O16'
_cell_volume   295.12660477
_cell_formula_units_Z   4
loop_
 _symmetry_equiv_pos_site_id
 _symmetry_equiv_pos_as_xyz
  1  'x, y, z'
loop_
 _atom_site_type_symbol
 _atom_site_label
 _atom_site_symmetry_multiplicity
 _atom_site_fract_x
 _atom_site_fract_y
 _atom_site_fract_z
 _atom_site_occupancy
  Li  Li0  1  0.20272100  0.32013200  0.91180400  1
  Li  Li1  1  0.20269700  0.17986500  0.41180600  1
  Li  Li2  1  0.79728500  0.82013200  0.58820100  1
  Li  Li3  1  0.79729300  0.67986300  0.08819300  1
  Mn  Mn0  1  0.22426600  0.56448600  0.38964100  1
  Mn  Mn1  1  0.77572400  0.06448200  0.11035600  1
  Mn  Mn2  1  0.22428500  0.93551400  0.88964100  1
  Mn  Mn3  1  0.77569800  0.43552100  0.61036500  1
  C  C0  1  0.20705600  0.63203200  0.84220400  1
  C  C1  1  0.20704600  0.86797200  0.34221200  1
  C  C2  1  0.79294600  0.13203100  0.65779700  1
  C  C3  1  0.79296300  0.36796700  0.15778800  1
  O  O0  1  0.18736900  0.50899900  0.77155100  1
  O  O1  1  0.18735800  0.99100500  0.27155800  1
  O  O2  1  0.81264100  0.00899900  0.72845000  1
  O  O3  1  0.81263000  0.49099800  0.22844300  1
  O  O4  1  0.27119400  0.11049200  0.99647800  1
  O  O5  1  0.27116800  0.38951100  0.49648400  1
  O  O6  1  0.72880000  0.61049500  0.50351900  1
  O  O7  1  0.72883900  0.88950600  0.00351200  1
  O  O8  1  0.19000600  0.75498300  0.77096800  1
  O  O9  1  0.18999400  0.74501900  0.27097500  1
  O  O10  1  0.80997300  0.25498500  0.72903300  1
  O  O11  1  0.81002900  0.24501400  0.22902300  1
  O  O12  1  0.24785900  0.63201600  0.97492200  1
  O  O13  1  0.24785300  0.86798800  0.47493000  1
  O  O14  1  0.75214900  0.13201300  0.52508000  1
  O  O15  1  0.75215700  0.36798200  0.02506900  1
loop_
_geom_bond_atom_site_label_1
_geom_bond_atom_site_label_2
_geom_bond_distance
_geom_bond_site_symmetry_2
Li0 O15 2.042137 1_456
Li0 O15 2.059739 1_556
Li0 O4 2.090299 1_555
Li0 O10 2.129714 1_455
Li0 O0 2.193054 1_555
Li1 O14 2.042156 1_455
Li1 O14 2.059822 1_555
Li1 O5 2.090358 1_555
Li1 O11 2.129670 1_455
Li1 O1 2.192967 1_545
Li2 O13 2.042201 1_655
Li2 O13 2.059763 1_555
Li2 O6 2.090299 1_555
Li2 O8 2.129647 1_655
Li2 O2 2.193020 1_565
Li3 O12 2.042174 1_654
Li3 O12 2.059751 1_554
Li3 O7 2.090346 1_555
Li3 O9 2.129735 1_655
Li3 O3 2.193025 1_555
Mn0 O5 1.901570 1_555
Mn0 O6 1.935314 1_555
Mn0 O9 2.006525 1_555
Mn0 O3 2.042404 1_455
Mn0 O6 2.168745 1_455
Mn1 O7 1.901575 1_545
Mn1 O4 1.935306 1_554
Mn1 O11 2.006512 1_555
Mn1 O1 2.042394 1_645
Mn1 O4 2.168763 1_654
Mn2 O4 1.901555 1_565
Mn2 O7 1.935337 1_556
Mn2 O8 2.006539 1_555
Mn2 O2 2.042367 1_465
Mn2 O7 2.168649 1_456
Mn3 O6 1.901577 1_555
Mn3 O5 1.935318 1_555
Mn3 O10 2.006558 1_555
Mn3 O0 2.042365 1_655
Mn3 O5 2.168776 1_655
C0 O12 1.263435 1_555
C0 O0 1.315163 1_555
C0 O8 1.317630 1_555
C1 O13 1.263435 1_555
C1 O1 1.315173 1_555
C1 O9 1.317645 1_555
C2 O14 1.263426 1_555
C2 O2 1.315159 1_555
C2 O10 1.317651 1_555
C3 O15 1.263444 1_555
C3 O3 1.315158 1_555
C3 O11 1.317639 1_555
