# generated using pymatgen
data_NaAgF4
_symmetry_space_group_name_H-M   'P 1'
_cell_length_a   5.46208505
_cell_length_b   5.46208554
_cell_length_c   6.48505474
_cell_angle_alpha   114.90588019
_cell_angle_beta   114.90587366
_cell_angle_gamma   89.99999452
_symmetry_Int_Tables_number   1
_chemical_formula_structural   NaAgF4
_chemical_formula_sum   'Na2 Ag2 F8'
_cell_volume   155.42174405
_cell_formula_units_Z   2
loop_
 _symmetry_equiv_pos_site_id
 _symmetry_equiv_pos_as_xyz
  1  'x, y, z'
loop_
 _atom_site_type_symbol
 _atom_site_label
 _atom_site_symmetry_multiplicity
 _atom_site_fract_x
 _atom_site_fract_y
 _atom_site_fract_z
 _atom_site_occupancy
  Na  Na0  1  0.25000000  0.25000000  0.50000000  1
  Na  Na1  1  0.75000000  0.75000000  0.50000000  1
  Ag  Ag0  1  0.00000000  0.50000000  -0.00000000  1
  Ag  Ag1  1  0.50000000  -0.00000000  -0.00000000  1
  F  F0  1  0.94771137  0.44771137  0.25629409  1
  F  F1  1  0.69141728  0.19141728  0.74370591  1
  F  F2  1  0.05228863  0.55228863  0.74370591  1
  F  F3  1  0.19141728  0.05228863  0.74370591  1
  F  F4  1  0.30858272  0.80858272  0.25629409  1
  F  F5  1  0.44771137  0.30858272  0.25629409  1
  F  F6  1  0.80858272  0.94771137  0.25629409  1
  F  F7  1  0.55228863  0.69141728  0.74370591  1
loop_
_geom_bond_atom_site_label_1
_geom_bond_atom_site_label_2
_geom_bond_distance
_geom_bond_site_symmetry_2
Ag0 F4 1.930101 1_555
Ag0 F1 1.930101 1_454
Ag0 F0 1.930101 1_455
Ag0 F2 1.930101 1_554
Ag1 F7 1.930101 1_544
Ag1 F5 1.930101 1_555
Ag1 F6 1.930101 1_545
Ag1 F3 1.930101 1_554
F0 Na1 2.372738 1_555
F0 Na0 2.372738 1_655
F1 Na1 2.372738 1_545
F1 Na0 2.372738 1_555
F2 Na0 2.372738 1_555
F2 Na1 2.372738 1_455
F3 Na1 2.372738 1_445
F3 Na0 2.372738 1_555
F4 Na0 2.372738 1_565
F4 Na1 2.372738 1_555
F5 Na1 2.372738 1_555
F5 Na0 2.372738 1_555
F6 Na0 2.372738 1_665
F6 Na1 2.372738 1_555
F7 Na0 2.372738 1_555
F7 Na1 2.372738 1_555
