# generated using pymatgen
data_LiMn2O3F
_symmetry_space_group_name_H-M   'P 1'
_cell_length_a   5.98987592
_cell_length_b   5.98987592
_cell_length_c   5.98987597
_cell_angle_alpha   61.73877892
_cell_angle_beta   61.73877892
_cell_angle_gamma   61.73877819
_symmetry_Int_Tables_number   1
_chemical_formula_structural   LiMn2O3F
_chemical_formula_sum   'Li2 Mn4 O6 F2'
_cell_volume   157.88451597
_cell_formula_units_Z   2
loop_
 _symmetry_equiv_pos_site_id
 _symmetry_equiv_pos_as_xyz
  1  'x, y, z'
loop_
 _atom_site_type_symbol
 _atom_site_label
 _atom_site_symmetry_multiplicity
 _atom_site_fract_x
 _atom_site_fract_y
 _atom_site_fract_z
 _atom_site_occupancy
  Li  Li0  1  0.10627500  0.10627500  0.10627500  1
  Li  Li1  1  0.89372500  0.89372500  0.89372500  1
  Mn  Mn0  1  0.50000000  0.00000000  0.50000000  1
  Mn  Mn1  1  0.50000000  0.50000000  0.50000000  1
  Mn  Mn2  1  0.50000000  0.50000000  0.00000000  1
  Mn  Mn3  1  0.00000000  0.50000000  0.50000000  1
  O  O0  1  0.74202700  0.74202700  0.30491200  1
  O  O1  1  0.74202700  0.30491200  0.74202700  1
  O  O2  1  0.30491200  0.74202700  0.74202700  1
  O  O3  1  0.69508800  0.25797300  0.25797300  1
  O  O4  1  0.25797300  0.25797300  0.69508800  1
  O  O5  1  0.25797300  0.69508800  0.25797300  1
  F  F0  1  0.76259600  0.76259600  0.76259600  1
  F  F1  1  0.23740400  0.23740400  0.23740400  1
loop_
_geom_bond_atom_site_label_1
_geom_bond_atom_site_label_2
_geom_bond_distance
_geom_bond_site_symmetry_2
Li0 O5 2.064144 1_545
Li0 O3 2.064144 1_455
Li0 O4 2.064144 1_554
Li1 O1 2.064144 1_565
Li1 O2 2.064144 1_655
Li1 O0 2.064144 1_556
Mn0 O0 1.959395 1_545
Mn0 O4 1.959395 1_555
Mn0 O2 1.959395 1_545
Mn0 O3 1.959395 1_555
Mn1 O3 2.085805 1_555
Mn1 O1 2.085805 1_555
Mn1 O5 2.085805 1_555
Mn1 O2 2.085805 1_555
Mn1 O4 2.085805 1_555
Mn1 O0 2.085805 1_555
Mn2 O2 1.959395 1_554
Mn2 O3 1.959395 1_555
Mn2 O1 1.959395 1_554
Mn2 O5 1.959395 1_555
Mn3 O0 1.959395 1_455
Mn3 O4 1.959395 1_555
Mn3 O1 1.959395 1_455
Mn3 O5 1.959395 1_555
F0 Li1 1.898272 1_555
F0 Mn3 2.253199 1_655
F0 Mn0 2.253199 1_565
F0 Mn2 2.253199 1_556
F1 Li0 1.898272 1_555
F1 Mn3 2.253199 1_555
F1 Mn0 2.253199 1_555
F1 Mn2 2.253199 1_555
