# generated using pymatgen
data_NbFe3(PO4)6
_symmetry_space_group_name_H-M   'P 1'
_cell_length_a   8.97433240
_cell_length_b   8.97433240
_cell_length_c   8.97433282
_cell_angle_alpha   58.55273934
_cell_angle_beta   58.55273934
_cell_angle_gamma   58.55274425
_symmetry_Int_Tables_number   1
_chemical_formula_structural   NbFe3(PO4)6
_chemical_formula_sum   'Nb1 Fe3 P6 O24'
_cell_volume   494.16748963
_cell_formula_units_Z   1
loop_
 _symmetry_equiv_pos_site_id
 _symmetry_equiv_pos_as_xyz
  1  'x, y, z'
loop_
 _atom_site_type_symbol
 _atom_site_label
 _atom_site_symmetry_multiplicity
 _atom_site_fract_x
 _atom_site_fract_y
 _atom_site_fract_z
 _atom_site_occupancy
  Nb  Nb0  1  0.85960200  0.85960200  0.85960200  1
  Fe  Fe0  1  0.14276200  0.14276200  0.14276200  1
  Fe  Fe1  1  0.35798600  0.35798600  0.35798600  1
  Fe  Fe2  1  0.64322200  0.64322200  0.64322200  1
  P  P0  1  0.74992300  0.03550600  0.46254500  1
  P  P1  1  0.03550600  0.46254500  0.74992300  1
  P  P2  1  0.46254500  0.74992300  0.03550600  1
  P  P3  1  0.52819800  0.25775100  0.96594900  1
  P  P4  1  0.96594900  0.52819800  0.25775100  1
  P  P5  1  0.25775100  0.96594900  0.52819800  1
  O  O0  1  0.27598500  0.13639000  0.50845300  1
  O  O1  1  0.50845300  0.27598500  0.13639000  1
  O  O2  1  0.91940800  0.06467900  0.28611200  1
  O  O3  1  0.13639000  0.50845300  0.27598500  1
  O  O4  1  0.57734700  0.20990900  0.44454200  1
  O  O5  1  0.78433500  0.99760800  0.63436000  1
  O  O6  1  0.06467900  0.28611200  0.91940800  1
  O  O7  1  0.20990900  0.44454200  0.57734700  1
  O  O8  1  0.44454200  0.57734700  0.20990900  1
  O  O9  1  0.35971400  0.22932500  0.99378600  1
  O  O10  1  0.70560200  0.08322400  0.93238100  1
  O  O11  1  0.99378600  0.35971400  0.22932500  1
  O  O12  1  0.99760800  0.63436000  0.78433500  1
  O  O13  1  0.28611200  0.91940800  0.06467900  1
  O  O14  1  0.63436000  0.78433500  0.99760800  1
  O  O15  1  0.55494600  0.42775100  0.79131200  1
  O  O16  1  0.79131200  0.55494600  0.42775100  1
  O  O17  1  0.93238100  0.70560200  0.08322400  1
  O  O18  1  0.22932500  0.99378600  0.35971400  1
  O  O19  1  0.42775100  0.79131200  0.55494600  1
  O  O20  1  0.86487100  0.48923300  0.72528200  1
  O  O21  1  0.08322400  0.93238100  0.70560200  1
  O  O22  1  0.48923300  0.72528200  0.86487100  1
  O  O23  1  0.72528200  0.86487100  0.48923300  1
loop_
_geom_bond_atom_site_label_1
_geom_bond_atom_site_label_2
_geom_bond_distance
_geom_bond_site_symmetry_2
Nb0 O21 1.973809 1_655
Nb0 O17 1.973809 1_556
Nb0 O10 1.973809 1_565
Nb0 O14 2.003934 1_555
Nb0 O12 2.003935 1_555
Nb0 O5 2.003935 1_555
Fe0 O9 1.990010 1_554
Fe0 O18 1.990010 1_545
Fe0 O11 1.990010 1_455
Fe0 O2 1.999549 1_455
Fe0 O13 1.999549 1_545
Fe0 O6 1.999549 1_554
Fe1 O0 2.001987 1_555
Fe1 O1 2.001987 1_555
Fe1 O3 2.001987 1_555
Fe1 O8 2.008388 1_555
Fe1 O7 2.008388 1_555
Fe1 O4 2.008388 1_555
Fe2 O15 1.987823 1_555
Fe2 O16 1.987823 1_555
Fe2 O19 1.987823 1_555
Fe2 O23 2.001785 1_555
Fe2 O22 2.001785 1_555
Fe2 O20 2.001785 1_555
O0 P5 1.531645 1_545
O1 P3 1.531645 1_554
O2 P0 1.535949 1_555
O3 P4 1.531645 1_455
O4 P0 1.530481 1_555
O5 P0 1.558413 1_565
O6 P1 1.535949 1_555
O7 P1 1.530481 1_555
O8 P2 1.530481 1_555
O9 P3 1.534786 1_555
O10 P3 1.571188 1_555
O11 P4 1.534786 1_555
O12 P1 1.558413 1_655
O13 P2 1.535949 1_555
O14 P2 1.558413 1_556
O15 P3 1.528447 1_555
O16 P4 1.528447 1_555
O17 P4 1.571188 1_555
O18 P5 1.534786 1_555
O19 P5 1.528447 1_555
O20 P1 1.538387 1_655
O21 P5 1.571188 1_555
O22 P2 1.538387 1_556
O23 P0 1.538387 1_565
