# generated using pymatgen
data_Li2MnPCO7
_symmetry_space_group_name_H-M   'P 1'
_cell_length_a   8.46801415
_cell_length_b   10.03582135
_cell_length_c   6.44506921
_cell_angle_alpha   90.00000000
_cell_angle_beta   90.00000000
_cell_angle_gamma   86.42513324
_symmetry_Int_Tables_number   1
_chemical_formula_structural   Li2MnPCO7
_chemical_formula_sum   'Li8 Mn4 P4 C4 O28'
_cell_volume   546.65861677
_cell_formula_units_Z   4
loop_
 _symmetry_equiv_pos_site_id
 _symmetry_equiv_pos_as_xyz
  1  'x, y, z'
loop_
 _atom_site_type_symbol
 _atom_site_label
 _atom_site_symmetry_multiplicity
 _atom_site_fract_x
 _atom_site_fract_y
 _atom_site_fract_z
 _atom_site_occupancy
  Li  Li0  1  0.26575845  0.12881192  0.03668215  1
  Li  Li1  1  0.26191728  0.12667475  0.46389039  1
  Li  Li2  1  0.26191728  0.62667475  0.03610961  1
  Li  Li3  1  0.26575845  0.62881192  0.46331785  1
  Li  Li4  1  0.73043833  0.37171870  0.96342746  1
  Li  Li5  1  0.73043833  0.87171870  0.53657254  1
  Li  Li6  1  0.89137499  0.11083660  0.75600644  1
  Li  Li7  1  0.89137499  0.61083660  0.74399356  1
  Mn  Mn0  1  0.33570002  0.40370905  0.74568834  1
  Mn  Mn1  1  0.33570002  0.90370905  0.75431166  1
  Mn  Mn2  1  0.67715676  0.09468929  0.24885891  1
  Mn  Mn3  1  0.67715676  0.59468929  0.25114109  1
  P  P0  1  0.41670857  0.36688509  0.24298521  1
  P  P1  1  0.41670857  0.86688509  0.25701479  1
  P  P2  1  0.58340192  0.14131890  0.75323272  1
  P  P3  1  0.58340192  0.64131890  0.74676728  1
  C  C0  1  0.04472553  0.35494379  0.75803399  1
  C  C1  1  0.04472553  0.85494379  0.74196601  1
  C  C2  1  0.95952122  0.13702743  0.25108021  1
  C  C3  1  0.95952122  0.63702743  0.24891979  1
  O  O0  1  0.06990982  0.48007239  0.74925000  1
  O  O1  1  0.10069999  0.17237060  0.24690064  1
  O  O2  1  0.06990982  0.98007239  0.75075000  1
  O  O3  1  0.17485725  0.27098797  0.74267830  1
  O  O4  1  0.10069999  0.67237060  0.25309936  1
  O  O5  1  0.17485725  0.77098797  0.75732170  1
  O  O6  1  0.31413571  0.41845741  0.05520358  1
  O  O7  1  0.32784398  0.42435778  0.43740983  1
  O  O8  1  0.32784398  0.92435778  0.06259017  1
  O  O9  1  0.31413571  0.91845741  0.44479642  1
  O  O10  1  0.41636875  0.08245523  0.74849104  1
  O  O11  1  0.43488313  0.21179799  0.24855341  1
  O  O12  1  0.41636875  0.58245523  0.75150896  1
  O  O13  1  0.43488313  0.71179799  0.25144659  1
  O  O14  1  0.55332882  0.29379980  0.76072098  1
  O  O15  1  0.58382983  0.42085371  0.22503719  1
  O  O16  1  0.55332882  0.79379980  0.73927902  1
  O  O17  1  0.58382983  0.92085371  0.27496281  1
  O  O18  1  0.68562399  0.09283565  0.93880760  1
  O  O19  1  0.68720043  0.09060074  0.56802460  1
  O  O20  1  0.68562399  0.59283565  0.56119240  1
  O  O21  1  0.68720043  0.59060074  0.93197540  1
  O  O22  1  0.83760906  0.22731604  0.23377537  1
  O  O23  1  0.91211333  0.30610721  0.78150713  1
  O  O24  1  0.83760906  0.72731604  0.26622463  1
  O  O25  1  0.91867082  0.01653797  0.27193856  1
  O  O26  1  0.91211333  0.80610721  0.71849287  1
  O  O27  1  0.91867082  0.51653797  0.22806144  1
loop_
_geom_bond_atom_site_label_1
_geom_bond_atom_site_label_2
_geom_bond_distance
_geom_bond_site_symmetry_2
Li0 O1 1.975904 1_555
Li0 O8 2.092824 1_545
Li0 O11 2.181299 1_555
Li0 O10 2.284511 1_554
Li0 O3 2.466174 1_554
Li1 O1 1.987919 1_555
Li1 O9 2.112346 1_545
Li1 O11 2.226494 1_555
Li1 O10 2.280286 1_555
Li1 O3 2.395088 1_555
Li2 O4 1.987919 1_555
Li2 O6 2.112346 1_555
Li2 O13 2.226494 1_555
Li2 O12 2.280286 1_554
Li2 O5 2.395088 1_554
Li3 O4 1.975904 1_555
Li3 O7 2.092824 1_555
Li3 O13 2.181299 1_555
Li3 O12 2.284511 1_555
Li3 O5 2.466174 1_555
Li4 O23 2.012147 1_555
Li4 O15 2.133308 1_556
Li4 O14 2.171146 1_555
Li4 O21 2.213633 1_555
Li4 O22 2.407439 1_556
Li5 O26 2.012147 1_555
Li5 O17 2.133308 1_555
Li5 O16 2.171146 1_555
Li5 O19 2.213633 1_565
Li5 O24 2.407439 1_555
Li6 O2 1.939478 1_645
Li6 O23 1.985245 1_555
Li6 O18 2.120278 1_555
Li6 O19 2.131238 1_555
Li7 O0 1.939478 1_655
Li7 O26 1.985245 1_555
Li7 O20 2.120278 1_555
Li7 O21 2.131238 1_555
Mn0 O12 1.959286 1_555
Mn0 O3 1.963629 1_555
Mn0 O7 1.998331 1_555
Mn0 O6 2.007809 1_556
Mn0 O14 2.090164 1_555
Mn0 O0 2.332052 1_555
Mn1 O10 1.959286 1_565
Mn1 O5 1.963629 1_555
Mn1 O8 1.998331 1_556
Mn1 O9 2.007809 1_555
Mn1 O16 2.090164 1_555
Mn1 O2 2.332052 1_555
Mn2 O22 1.962826 1_555
Mn2 O17 1.966818 1_545
Mn2 O18 1.999633 1_554
Mn2 O19 2.059106 1_555
Mn2 O25 2.149385 1_555
Mn2 O11 2.299907 1_555
Mn3 O24 1.962826 1_555
Mn3 O15 1.966818 1_555
Mn3 O20 1.999633 1_555
Mn3 O21 2.059106 1_554
Mn3 O27 2.149385 1_555
Mn3 O13 2.299907 1_555
C0 O23 1.262054 1_455
C0 O0 1.288036 1_555
C0 O3 1.348420 1_555
C1 O26 1.262054 1_455
C1 O2 1.288036 1_555
C1 O5 1.348420 1_555
C2 O1 1.268324 1_655
C2 O25 1.285336 1_555
C2 O22 1.335138 1_555
C3 O4 1.268324 1_655
C3 O27 1.285336 1_555
C3 O24 1.335138 1_555
O6 P0 1.559168 1_555
O7 P0 1.554037 1_555
O8 P1 1.554037 1_555
O9 P1 1.559168 1_555
O10 P2 1.566765 1_555
O11 P0 1.554852 1_555
O12 P3 1.566765 1_555
O13 P1 1.554852 1_555
O14 P2 1.536331 1_555
O15 P0 1.550828 1_555
O16 P3 1.536331 1_555
O17 P1 1.550828 1_555
O18 P2 1.537543 1_555
O19 P2 1.549432 1_555
O20 P3 1.537543 1_555
O21 P3 1.549432 1_555
