# generated using pymatgen
data_LiVTe(WO6)2
_symmetry_space_group_name_H-M   'P 1'
_cell_length_a   5.15159500
_cell_length_b   5.34609754
_cell_length_c   7.47610446
_cell_angle_alpha   86.99340366
_cell_angle_beta   89.81333116
_cell_angle_gamma   89.51372842
_symmetry_Int_Tables_number   1
_chemical_formula_structural   LiVTe(WO6)2
_chemical_formula_sum   'Li1 V1 Te1 W2 O12'
_cell_volume   205.60722451
_cell_formula_units_Z   1
loop_
 _symmetry_equiv_pos_site_id
 _symmetry_equiv_pos_as_xyz
  1  'x, y, z'
loop_
 _atom_site_type_symbol
 _atom_site_label
 _atom_site_symmetry_multiplicity
 _atom_site_fract_x
 _atom_site_fract_y
 _atom_site_fract_z
 _atom_site_occupancy
  Li  Li0  1  0.00099800  0.47470300  0.22695700  1
  V  V0  1  0.00651400  0.03616800  0.02911700  1
  Te  Te0  1  0.49781200  0.50151900  0.49657900  1
  W  W0  1  0.50210800  0.53587400  0.98861300  1
  W  W1  1  0.00390300  0.99777300  0.52676300  1
  O  O0  1  0.69483800  0.20121500  0.55559300  1
  O  O1  1  0.91033600  0.00845500  0.25261900  1
  O  O2  1  0.70484300  0.80568600  0.95260800  1
  O  O3  1  0.79991600  0.69880100  0.55328600  1
  O  O4  1  0.19535100  0.69871100  0.05609300  1
  O  O5  1  0.61975100  0.49969000  0.25265800  1
  O  O6  1  0.39187400  0.50201500  0.74508500  1
  O  O7  1  0.79510500  0.29881300  0.96590900  1
  O  O8  1  0.19058800  0.31058700  0.43953900  1
  O  O9  1  0.28552400  0.21008400  0.05240200  1
  O  O10  1  0.10077400  0.00204200  0.75547700  1
  O  O11  1  0.29976400  0.80346900  0.44350300  1
loop_
_geom_bond_atom_site_label_1
_geom_bond_atom_site_label_2
_geom_bond_distance
_geom_bond_site_symmetry_2
Li0 O5 1.976856 1_455
Li0 O4 1.979877 1_555
Li0 O8 2.024560 1_555
Li0 O9 2.449241 1_555
Li0 O7 2.457846 1_454
Li0 O1 2.537134 1_455
O0 Te0 1.924399 1_555
O0 W1 1.938393 1_645
O1 V0 1.740492 1_655
O1 W1 2.104725 1_645
O2 W0 1.796355 1_555
O2 V0 2.091137 1_666
O3 W1 1.921509 1_655
O3 Te0 1.947637 1_555
O4 W0 1.878080 1_554
O4 V0 2.043295 1_565
O5 Te0 1.927290 1_555
O5 W0 2.065732 1_554
O6 W0 1.926925 1_555
O6 Te0 1.934778 1_555
O7 V0 1.813502 1_656
O7 W0 1.975275 1_555
O8 Te0 1.950939 1_555
O8 W1 2.013867 1_545
O9 V0 1.732639 1_555
O9 W0 2.109089 1_554
O10 W1 1.784133 1_545
O10 V0 2.117875 1_556
O11 Te0 1.926576 1_555
O11 W1 1.955587 1_555
