# generated using pymatgen
data_Li(YSi)2
_symmetry_space_group_name_H-M   'P 1'
_cell_length_a   7.16103100
_cell_length_b   7.16103100
_cell_length_c   4.18712500
_cell_angle_alpha   90.00000000
_cell_angle_beta   90.00000000
_cell_angle_gamma   90.00000000
_symmetry_Int_Tables_number   1
_chemical_formula_structural   Li(YSi)2
_chemical_formula_sum   'Li2 Y4 Si4'
_cell_volume   214.71729823
_cell_formula_units_Z   2
loop_
 _symmetry_equiv_pos_site_id
 _symmetry_equiv_pos_as_xyz
  1  'x, y, z'
loop_
 _atom_site_type_symbol
 _atom_site_label
 _atom_site_symmetry_multiplicity
 _atom_site_fract_x
 _atom_site_fract_y
 _atom_site_fract_z
 _atom_site_occupancy
  Li  Li0  1  0.00000000  0.00000000  0.00000000  1
  Li  Li1  1  0.50000000  0.50000000  0.00000000  1
  Y  Y0  1  0.82108700  0.67891300  0.50000000  1
  Y  Y1  1  0.17891300  0.32108700  0.50000000  1
  Y  Y2  1  0.67891300  0.17891300  0.50000000  1
  Y  Y3  1  0.32108700  0.82108700  0.50000000  1
  Si  Si0  1  0.61815400  0.88184600  0.00000000  1
  Si  Si1  1  0.38184600  0.11815400  0.00000000  1
  Si  Si2  1  0.88184600  0.38184600  0.00000000  1
  Si  Si3  1  0.11815400  0.61815400  0.00000000  1
loop_
_geom_bond_atom_site_label_1
_geom_bond_atom_site_label_2
_geom_bond_distance
_geom_bond_site_symmetry_2
Li0 Si2 2.862324 1_455
Li0 Si0 2.862324 1_445
Li0 Si1 2.862324 1_555
Li0 Si3 2.862324 1_545
Li1 Si1 2.862324 1_555
Li1 Si3 2.862324 1_555
Li1 Si0 2.862324 1_555
Li1 Si2 2.862324 1_555
Si0 Si1 2.393145 1_565
Si0 Y0 2.933707 1_554
Si0 Y0 2.933707 1_555
Si0 Y3 3.016247 1_555
Si0 Y3 3.016247 1_554
Si0 Y2 3.016247 1_565
Si0 Y2 3.016247 1_564
Si1 Y1 2.933707 1_555
Si1 Y1 2.933707 1_554
Si1 Y2 3.016247 1_554
Si1 Y2 3.016247 1_555
Si1 Y3 3.016247 1_544
Si1 Y3 3.016247 1_545
Si2 Si3 2.393145 1_655
Si2 Y2 2.933707 1_554
Si2 Y2 2.933707 1_555
Si2 Y0 3.016247 1_554
Si2 Y0 3.016247 1_555
Si2 Y1 3.016247 1_654
Si2 Y1 3.016247 1_655
Si3 Y3 2.933707 1_554
Si3 Y3 2.933707 1_555
Si3 Y0 3.016247 1_455
Si3 Y1 3.016247 1_554
Si3 Y0 3.016247 1_454
Si3 Y1 3.016247 1_555
