# generated using pymatgen
data_TbInO3
_symmetry_space_group_name_H-M   'P 1'
_cell_length_a   5.56706700
_cell_length_b   5.89846600
_cell_length_c   8.20451300
_cell_angle_alpha   90.00000000
_cell_angle_beta   90.00000000
_cell_angle_gamma   90.00000000
_symmetry_Int_Tables_number   1
_chemical_formula_structural   TbInO3
_chemical_formula_sum   'Tb4 In4 O12'
_cell_volume   269.41286852
_cell_formula_units_Z   4
loop_
 _symmetry_equiv_pos_site_id
 _symmetry_equiv_pos_as_xyz
  1  'x, y, z'
loop_
 _atom_site_type_symbol
 _atom_site_label
 _atom_site_symmetry_multiplicity
 _atom_site_fract_x
 _atom_site_fract_y
 _atom_site_fract_z
 _atom_site_occupancy
  Tb  Tb0  1  0.52110000  0.93515300  0.75000000  1
  Tb  Tb1  1  0.97890000  0.43515300  0.75000000  1
  Tb  Tb2  1  0.02110000  0.56484700  0.25000000  1
  Tb  Tb3  1  0.47890000  0.06484700  0.25000000  1
  In  In0  1  0.50000000  0.50000000  0.00000000  1
  In  In1  1  0.50000000  0.50000000  0.50000000  1
  In  In2  1  0.00000000  0.00000000  0.00000000  1
  In  In3  1  0.00000000  0.00000000  0.50000000  1
  O  O0  1  0.64419000  0.43029400  0.25000000  1
  O  O1  1  0.68460700  0.18832400  0.57360000  1
  O  O2  1  0.68460700  0.18832400  0.92640000  1
  O  O3  1  0.81539300  0.68832400  0.92640000  1
  O  O4  1  0.81539300  0.68832400  0.57360000  1
  O  O5  1  0.85581000  0.93029400  0.25000000  1
  O  O6  1  0.14419000  0.06970600  0.75000000  1
  O  O7  1  0.18460700  0.31167600  0.07360000  1
  O  O8  1  0.18460700  0.31167600  0.42640000  1
  O  O9  1  0.31539300  0.81167600  0.07360000  1
  O  O10  1  0.31539300  0.81167600  0.42640000  1
  O  O11  1  0.35581000  0.56970600  0.75000000  1
loop_
_geom_bond_atom_site_label_1
_geom_bond_atom_site_label_2
_geom_bond_distance
_geom_bond_site_symmetry_2
In0 O3 2.163665 1_554
In0 O7 2.163665 1_555
In0 O9 2.191027 1_555
In0 O2 2.191027 1_554
In0 O11 2.240654 1_554
In0 O0 2.240654 1_555
In1 O4 2.163665 1_555
In1 O8 2.163665 1_555
In1 O10 2.191027 1_555
In1 O1 2.191027 1_555
In1 O11 2.240654 1_555
In1 O0 2.240654 1_555
In2 O2 2.163665 1_454
In2 O9 2.163665 1_545
In2 O7 2.191027 1_555
In2 O3 2.191027 1_444
In2 O6 2.240654 1_554
In2 O5 2.240654 1_445
In3 O10 2.163665 1_545
In3 O1 2.163665 1_455
In3 O8 2.191027 1_555
In3 O4 2.191027 1_445
In3 O6 2.240654 1_555
In3 O5 2.240654 1_445
O0 Tb2 2.243364 1_655
O0 Tb3 2.343767 1_555
O1 Tb0 2.270061 1_545
O1 Tb1 2.626495 1_555
O1 Tb3 2.981749 1_555
O2 Tb0 2.270061 1_545
O2 Tb1 2.626495 1_555
O2 Tb3 2.981749 1_556
O3 Tb1 2.270061 1_555
O3 Tb0 2.626495 1_555
O3 Tb2 2.981749 1_656
O4 Tb1 2.270061 1_555
O4 Tb0 2.626495 1_555
O4 Tb2 2.981749 1_655
O5 Tb3 2.243364 1_565
O5 Tb2 2.343767 1_655
O6 Tb0 2.243364 1_545
O6 Tb1 2.343767 1_455
O7 Tb2 2.270061 1_555
O7 Tb3 2.626495 1_555
O7 Tb1 2.981749 1_454
O8 Tb2 2.270061 1_555
O8 Tb3 2.626495 1_555
O8 Tb1 2.981749 1_455
O9 Tb3 2.270061 1_565
O9 Tb2 2.626495 1_555
O9 Tb0 2.981749 1_554
O10 Tb3 2.270061 1_565
O10 Tb2 2.626495 1_555
O10 Tb0 2.981749 1_555
O11 Tb1 2.243364 1_455
O11 Tb0 2.343767 1_555
