# generated using pymatgen
data_LiCoSiO4
_symmetry_space_group_name_H-M   'P 1'
_cell_length_a   5.32564721
_cell_length_b   24.35019400
_cell_length_c   5.32580200
_cell_angle_alpha   90.00006051
_cell_angle_beta   120.00196399
_cell_angle_gamma   89.99993527
_symmetry_Int_Tables_number   1
_chemical_formula_structural   LiCoSiO4
_chemical_formula_sum   'Li6 Co6 Si6 O24'
_cell_volume   598.11111426
_cell_formula_units_Z   6
loop_
 _symmetry_equiv_pos_site_id
 _symmetry_equiv_pos_as_xyz
  1  'x, y, z'
loop_
 _atom_site_type_symbol
 _atom_site_label
 _atom_site_symmetry_multiplicity
 _atom_site_fract_x
 _atom_site_fract_y
 _atom_site_fract_z
 _atom_site_occupancy
  Li  Li0  1  0.00000100  0.00000400  0.00000000  1
  Li  Li1  1  0.00000100  0.50000300  0.00000100  1
  Li  Li2  1  0.00000000  0.16667800  0.00000000  1
  Li  Li3  1  0.99999900  0.66664700  0.00000000  1
  Li  Li4  1  0.99999900  0.33334200  0.99999900  1
  Li  Li5  1  0.00000000  0.83333100  0.00000000  1
  Co  Co0  1  0.50000100  0.91666300  0.00000000  1
  Co  Co1  1  0.50000000  0.58332100  0.50000100  1
  Co  Co2  1  0.00000000  0.25001800  0.50000000  1
  Co  Co3  1  0.50000100  0.41666600  0.00000000  1
  Co  Co4  1  0.50000000  0.08335300  0.50000000  1
  Co  Co5  1  0.00000000  0.74998100  0.50000000  1
  Si  Si0  1  0.50000000  0.16668300  0.00000000  1
  Si  Si1  1  0.49999900  0.66665600  0.00000000  1
  Si  Si2  1  0.49999900  0.33333800  0.49999900  1
  Si  Si3  1  0.50000000  0.83331300  0.49999900  1
  Si  Si4  1  0.00000000  0.00001500  0.50000000  1
  Si  Si5  1  0.00000100  0.49999700  0.50000000  1
  O  O0  1  0.79541300  0.20340000  0.18851300  1
  O  O1  1  0.79544500  0.70329600  0.18855100  1
  O  O2  1  0.81151200  0.46328400  0.20464700  1
  O  O3  1  0.81142500  0.96332400  0.20455700  1
  O  O4  1  0.39314300  0.13003300  0.18858000  1
  O  O5  1  0.39312400  0.62992400  0.18849800  1
  O  O6  1  0.39317300  0.37002700  0.20461300  1
  O  O7  1  0.39312700  0.87003000  0.20458700  1
  O  O8  1  0.81155300  0.03672100  0.60686000  1
  O  O9  1  0.81140900  0.53665600  0.60688500  1
  O  O10  1  0.79547100  0.29666400  0.60692800  1
  O  O11  1  0.79535100  0.79663800  0.60687400  1
  O  O12  1  0.20452900  0.29666400  0.39307100  1
  O  O13  1  0.20465000  0.79663900  0.39312700  1
  O  O14  1  0.18844700  0.03672100  0.39314100  1
  O  O15  1  0.18859100  0.53665600  0.39311600  1
  O  O16  1  0.60682600  0.37002600  0.79538600  1
  O  O17  1  0.60687400  0.87003000  0.79541300  1
  O  O18  1  0.60685800  0.13003300  0.81142100  1
  O  O19  1  0.60687500  0.62992400  0.81150200  1
  O  O20  1  0.18848800  0.46328300  0.79535300  1
  O  O21  1  0.18857600  0.96332400  0.79544300  1
  O  O22  1  0.20458600  0.20340000  0.81148700  1
  O  O23  1  0.20455300  0.70329600  0.81144900  1
loop_
_geom_bond_atom_site_label_1
_geom_bond_atom_site_label_2
_geom_bond_distance
_geom_bond_site_symmetry_2
Li0 O21 2.021719 1_544
Li0 O3 2.021725 1_445
Li0 O8 2.022142 1_454
Li0 O14 2.022146 1_555
Li1 O15 2.021332 1_555
Li1 O9 2.021337 1_454
Li1 O2 2.022163 1_455
Li1 O20 2.022172 1_554
Li2 O18 2.021313 1_454
Li2 O4 2.021316 1_555
Li2 O22 2.022039 1_554
Li2 O0 2.022041 1_455
Li3 O1 2.021272 1_555
Li3 O23 2.021274 1_654
Li3 O19 2.022086 1_554
Li3 O5 2.022089 1_655
Li4 O10 2.021418 1_555
Li4 O12 2.021423 1_656
Li4 O16 2.021862 1_555
Li4 O6 2.021878 1_656
Li5 O13 2.021811 1_555
Li5 O11 2.021817 1_454
Li5 O17 2.021829 1_454
Li5 O7 2.021834 1_555
Co0 O17 1.849530 1_554
Co0 O7 1.849536 1_555
Co0 O3 1.849754 1_555
Co0 O21 1.849757 1_554
Co1 O19 1.849230 1_555
Co1 O5 1.849239 1_555
Co1 O9 1.849748 1_555
Co1 O15 1.849749 1_555
Co2 O22 1.849360 1_555
Co2 O0 1.849360 1_455
Co2 O10 1.849658 1_455
Co2 O12 1.849663 1_555
Co3 O20 1.849449 1_554
Co3 O2 1.849458 1_555
Co3 O6 1.849581 1_555
Co3 O16 1.849588 1_554
Co4 O8 1.849842 1_555
Co4 O14 1.849845 1_555
Co4 O4 1.850076 1_555
Co4 O18 1.850078 1_555
Co5 O11 1.850124 1_455
Co5 O13 1.850142 1_555
Co5 O23 1.850215 1_555
Co5 O1 1.850216 1_455
O0 Si0 1.644043 1_555
O1 Si1 1.643165 1_555
O2 Si5 1.643790 1_655
O3 Si4 1.643871 1_665
O4 Si0 1.643345 1_555
O5 Si1 1.644150 1_555
O6 Si2 1.643656 1_555
O7 Si3 1.644102 1_555
O8 Si4 1.643527 1_655
O9 Si5 1.643597 1_655
O10 Si2 1.643705 1_555
O11 Si3 1.643251 1_555
O12 Si2 1.643698 1_555
O13 Si3 1.643237 1_555
O14 Si4 1.643525 1_555
O15 Si5 1.643587 1_555
O16 Si2 1.643645 1_555
O17 Si3 1.644108 1_555
O18 Si0 1.643342 1_556
O19 Si1 1.644152 1_556
O20 Si5 1.643802 1_555
O21 Si4 1.643873 1_565
O22 Si0 1.644045 1_556
O23 Si1 1.643164 1_556
