# generated using pymatgen
data_Li4Mn3V2Sb3O16
_symmetry_space_group_name_H-M   'P 1'
_cell_length_a   6.23290876
_cell_length_b   6.12071849
_cell_length_c   9.75984331
_cell_angle_alpha   90.04502710
_cell_angle_beta   91.83838953
_cell_angle_gamma   119.41937142
_symmetry_Int_Tables_number   1
_chemical_formula_structural   Li4Mn3V2Sb3O16
_chemical_formula_sum   'Li4 Mn3 V2 Sb3 O16'
_cell_volume   324.09772556
_cell_formula_units_Z   1
loop_
 _symmetry_equiv_pos_site_id
 _symmetry_equiv_pos_as_xyz
  1  'x, y, z'
loop_
 _atom_site_type_symbol
 _atom_site_label
 _atom_site_symmetry_multiplicity
 _atom_site_fract_x
 _atom_site_fract_y
 _atom_site_fract_z
 _atom_site_occupancy
  Li  Li0  1  0.32419900  0.66227100  0.88593600  1
  Li  Li1  1  0.97778400  0.98868700  0.98571600  1
  Li  Li2  1  0.98842500  0.99404000  0.50322400  1
  Li  Li3  1  0.64423500  0.32225100  0.40229800  1
  Mn  Mn0  1  0.66430200  0.83180400  0.21302700  1
  Mn  Mn1  1  0.82992000  0.66265100  0.70893400  1
  Mn  Mn2  1  0.83035300  0.16767500  0.70886000  1
  V  V0  1  0.35137700  0.67554300  0.49699100  1
  V  V1  1  0.70364100  0.35205100  0.97298800  1
  Sb  Sb0  1  0.16839400  0.83008300  0.21532900  1
  Sb  Sb1  1  0.16799600  0.33804800  0.21513400  1
  Sb  Sb2  1  0.34565400  0.17297200  0.71608300  1
  O  O0  1  0.19101000  0.84808400  0.59484600  1
  O  O1  1  0.03144900  0.51576800  0.33895500  1
  O  O2  1  0.31687700  0.65823500  0.10026900  1
  O  O3  1  0.01366000  0.00702400  0.31811600  1
  O  O4  1  0.00980600  0.00481500  0.80080900  1
  O  O5  1  0.19053800  0.34221200  0.59514800  1
  O  O6  1  0.46322000  0.95264400  0.34556400  1
  O  O7  1  0.46286600  0.51079700  0.34557100  1
  O  O8  1  0.31625900  0.15796400  0.10581400  1
  O  O9  1  0.67104200  0.83515700  0.59438200  1
  O  O10  1  0.50919100  0.47008600  0.85007800  1
  O  O11  1  0.50935000  0.03993200  0.85011900  1
  O  O12  1  0.66151300  0.33076300  0.60721300  1
  O  O13  1  0.85504900  0.67786100  0.09517300  1
  O  O14  1  0.94666000  0.47396800  0.84618600  1
  O  O15  1  0.85522900  0.17691500  0.09507600  1
loop_
_geom_bond_atom_site_label_1
_geom_bond_atom_site_label_2
_geom_bond_distance
_geom_bond_site_symmetry_2
Li0 O10 2.047774 1_555
Li0 O11 2.050313 1_565
Li0 O14 2.071858 1_455
Li0 O2 2.093718 1_556
Li1 O4 1.819457 1_665
Li1 O15 1.991221 1_566
Li1 O13 1.992921 1_556
Li1 O8 2.142485 1_666
Li2 O3 1.816900 1_665
Li2 O9 1.968498 1_555
Li2 O5 2.054370 1_665
Li2 O0 2.056475 1_655
Li3 O12 1.998642 1_555
Li3 O6 2.036628 1_545
Li3 O7 2.039296 1_555
Li3 O1 2.213260 1_655
Mn0 O3 2.122380 1_665
Mn0 O2 2.148072 1_555
Mn0 O7 2.189741 1_555
Mn0 O6 2.191874 1_555
Mn0 O13 2.193382 1_555
Mn0 O15 2.196715 1_565
Mn1 O12 2.012260 1_555
Mn1 O4 2.018154 1_665
Mn1 O9 2.074471 1_555
Mn1 O14 2.103098 1_555
Mn1 O10 2.268842 1_555
Mn1 O0 2.290571 1_655
Mn2 O12 2.013617 1_555
Mn2 O4 2.020495 1_655
Mn2 O9 2.077604 1_545
Mn2 O14 2.105964 1_555
Mn2 O11 2.270909 1_555
Mn2 O5 2.284421 1_655
O0 V0 2.030567 1_555
O0 Sb2 2.079332 1_565
O1 Sb1 2.083608 1_555
O1 Sb0 2.083756 1_555
O1 V0 2.279534 1_555
O2 Sb1 2.059668 1_555
O2 Sb0 2.060356 1_555
O3 Sb1 2.047238 1_555
O3 Sb0 2.048393 1_545
O4 Sb2 2.029993 1_555
O5 V0 2.034860 1_555
O5 Sb2 2.076892 1_555
O6 Sb0 2.012367 1_555
O6 V0 2.110756 1_555
O7 Sb1 2.013746 1_555
O7 V0 2.106088 1_555
O8 Sb0 2.066132 1_545
O8 Sb1 2.066245 1_555
O8 V1 2.511391 1_554
O9 V0 1.947441 1_555
O10 Sb2 2.036193 1_555
O10 V1 2.048937 1_555
O11 Sb2 2.036579 1_555
O11 V1 2.045635 1_555
O12 Sb2 2.050746 1_555
O13 Sb0 2.030126 1_655
O13 V1 2.089188 1_554
O14 V1 1.842306 1_555
O15 Sb1 2.027031 1_655
O15 V1 2.094370 1_554
