# generated using pymatgen
data_Li2Fe7(OF2)4
_symmetry_space_group_name_H-M   'P 1'
_cell_length_a   11.08669060
_cell_length_b   11.08669060
_cell_length_c   6.35540717
_cell_angle_alpha   73.61499293
_cell_angle_beta   73.61499293
_cell_angle_gamma   45.36547320
_symmetry_Int_Tables_number   1
_chemical_formula_structural   Li2Fe7(OF2)4
_chemical_formula_sum   'Li4 Fe14 O8 F16'
_cell_volume   529.26674888
_cell_formula_units_Z   2
loop_
 _symmetry_equiv_pos_site_id
 _symmetry_equiv_pos_as_xyz
  1  'x, y, z'
loop_
 _atom_site_type_symbol
 _atom_site_label
 _atom_site_symmetry_multiplicity
 _atom_site_fract_x
 _atom_site_fract_y
 _atom_site_fract_z
 _atom_site_occupancy
  Li  Li0  1  0.99591000  0.49575900  0.98214400  1
  Li  Li1  1  0.49575900  0.99591000  0.48214400  1
  Li  Li2  1  0.14170800  0.85012400  0.26112500  1
  Li  Li3  1  0.85012400  0.14170800  0.76112500  1
  Fe  Fe0  1  0.32009100  0.34388300  0.66945800  1
  Fe  Fe1  1  0.50298200  0.51807100  0.48676200  1
  Fe  Fe2  1  0.69510300  0.14064200  0.29533800  1
  Fe  Fe3  1  0.97475900  0.67554700  0.45059200  1
  Fe  Fe4  1  0.85048800  0.31663700  0.12899000  1
  Fe  Fe5  1  0.30755900  0.01980100  0.10113300  1
  Fe  Fe6  1  0.34388300  0.32009100  0.16945800  1
  Fe  Fe7  1  0.51807100  0.50298200  0.98676200  1
  Fe  Fe8  1  0.67228000  0.64241300  0.83103500  1
  Fe  Fe9  1  0.67554700  0.97475900  0.95059200  1
  Fe  Fe10  1  0.31663700  0.85048800  0.62899000  1
  Fe  Fe11  1  0.14064200  0.69510300  0.79533800  1
  Fe  Fe12  1  0.01980100  0.30755900  0.60113300  1
  Fe  Fe13  1  0.64241300  0.67228000  0.33103500  1
  O  O0  1  0.08838800  0.57038700  0.71201000  1
  O  O1  1  0.26064500  0.73273300  0.52774400  1
  O  O2  1  0.60133300  0.57017400  0.16816500  1
  O  O3  1  0.57038700  0.08838800  0.21201000  1
  O  O4  1  0.92287500  0.41463100  0.86444900  1
  O  O5  1  0.73273300  0.26064500  0.02774400  1
  O  O6  1  0.57017400  0.60133300  0.66816500  1
  O  O7  1  0.41463100  0.92287500  0.36444900  1
  F  F0  1  0.56934100  0.09788700  0.65560300  1
  F  F1  1  0.93472400  0.88922800  0.33179500  1
  F  F2  1  0.41791100  0.40474900  0.34488700  1
  F  F3  1  0.09451200  0.05980700  0.15500000  1
  F  F4  1  0.24933000  0.26351500  0.49649200  1
  F  F5  1  0.73220600  0.74661600  0.00069100  1
  F  F6  1  0.26371200  0.72947800  0.98431400  1
  F  F7  1  0.09788700  0.56934100  0.15560300  1
  F  F8  1  0.41884700  0.91845300  0.80943600  1
  F  F9  1  0.74661600  0.73220600  0.50069100  1
  F  F10  1  0.40474900  0.41791100  0.84488700  1
  F  F11  1  0.26351500  0.24933000  0.99649200  1
  F  F12  1  0.88922800  0.93472400  0.83179500  1
  F  F13  1  0.05980700  0.09451200  0.65500000  1
  F  F14  1  0.72947800  0.26371200  0.48431400  1
  F  F15  1  0.91845300  0.41884700  0.30943600  1
loop_
_geom_bond_atom_site_label_1
_geom_bond_atom_site_label_2
_geom_bond_distance
_geom_bond_site_symmetry_2
Li0 O4 1.941336 1_555
Li0 O0 2.020076 1_655
Li1 O7 1.941336 1_555
Li1 O3 2.020076 1_565
Li2 O1 1.977055 1_555
Li3 O5 1.977055 1_556
Fe0 O0 1.976060 1_555
Fe1 O1 1.979982 1_555
Fe1 O2 2.145240 1_555
Fe1 O6 2.188017 1_555
Fe2 O5 1.984816 1_555
Fe2 O3 2.059049 1_555
Fe3 O0 1.931526 1_655
Fe4 O4 2.021001 1_554
Fe4 O5 2.083703 1_555
Fe4 O2 2.165592 1_555
Fe5 O7 1.917857 1_545
Fe6 O3 1.976060 1_555
Fe7 O5 1.979982 1_556
Fe7 O6 2.145240 1_555
Fe7 O2 2.188017 1_556
Fe8 O6 2.052278 1_555
Fe8 O4 2.076727 1_555
Fe8 O2 2.194788 1_556
Fe9 O3 1.931526 1_566
Fe10 O7 2.021001 1_555
Fe10 O1 2.083703 1_555
Fe10 O6 2.165592 1_555
Fe11 O1 1.984816 1_555
Fe11 O0 2.059049 1_555
Fe12 O4 1.917857 1_455
Fe13 O2 2.052278 1_555
Fe13 O7 2.076727 1_555
Fe13 O6 2.194788 1_555
F0 Fe9 2.075488 1_545
F0 Fe0 2.119013 1_555
F0 Li1 2.380246 1_545
F0 Fe2 2.434421 1_555
F1 Li2 1.945782 1_655
F1 Fe3 2.020322 1_555
F1 Fe2 2.111487 1_565
F2 Fe0 2.206230 1_555
F2 Fe6 2.233074 1_555
F2 Fe2 2.333881 1_555
F2 Fe1 2.462717 1_555
F2 Fe7 2.544494 1_554
F3 Li2 1.933434 1_545
F3 Fe5 2.012531 1_555
F3 Fe4 2.148604 1_455
F4 Fe12 2.153761 1_555
F4 Fe0 2.153858 1_555
F4 Fe6 2.184354 1_555
F4 Li1 2.212932 1_545
F5 Fe9 2.078336 1_554
F5 Li0 2.204847 1_554
F5 Fe13 2.252894 1_555
F5 Fe8 2.263641 1_554
F6 Li2 2.038730 1_556
F6 Fe7 2.076193 1_555
F6 Fe11 2.315778 1_555
F6 Fe10 2.427570 1_555
F7 Fe3 2.075488 1_455
F7 Fe6 2.119013 1_555
F7 Li0 2.380246 1_454
F7 Fe11 2.434421 1_554
F8 Fe5 2.039190 1_566
F8 Li1 2.193566 1_555
F8 Fe8 2.275333 1_555
F8 Fe10 2.363792 1_555
F9 Fe3 2.078336 1_555
F9 Li1 2.204847 1_555
F9 Fe8 2.252894 1_555
F9 Fe13 2.263641 1_555
F10 Fe6 2.206230 1_556
F10 Fe0 2.233074 1_555
F10 Fe11 2.333881 1_555
F10 Fe7 2.462717 1_555
F10 Fe1 2.544494 1_555
F11 Fe5 2.153761 1_556
F11 Fe6 2.153858 1_556
F11 Fe0 2.184354 1_555
F11 Li0 2.212932 1_455
F12 Li3 1.945782 1_565
F12 Fe9 2.020322 1_555
F12 Fe11 2.111487 1_655
F13 Li3 1.933434 1_455
F13 Fe12 2.012531 1_555
F13 Fe10 2.148604 1_545
F14 Li3 2.038730 1_555
F14 Fe1 2.076193 1_555
F14 Fe2 2.315778 1_555
F14 Fe4 2.427570 1_555
F15 Fe12 2.039190 1_655
F15 Li0 2.193566 1_554
F15 Fe13 2.275333 1_555
F15 Fe4 2.363792 1_555
