# generated using pymatgen
data_Li3CuS2
_symmetry_space_group_name_H-M   'P 1'
_cell_length_a   9.74952174
_cell_length_b   9.74952174
_cell_length_c   9.74952174
_cell_angle_alpha   109.47122063
_cell_angle_beta   109.47122063
_cell_angle_gamma   109.47122063
_symmetry_Int_Tables_number   1
_chemical_formula_structural   Li3CuS2
_chemical_formula_sum   'Li24 Cu8 S16'
_cell_volume   713.39168831
_cell_formula_units_Z   8
loop_
 _symmetry_equiv_pos_site_id
 _symmetry_equiv_pos_as_xyz
  1  'x, y, z'
loop_
 _atom_site_type_symbol
 _atom_site_label
 _atom_site_symmetry_multiplicity
 _atom_site_fract_x
 _atom_site_fract_y
 _atom_site_fract_z
 _atom_site_occupancy
  Li  Li0  1  0.74909500  0.99876200  0.99589600  1
  Li  Li1  1  0.99713400  0.50123800  0.25033300  1
  Li  Li2  1  0.74966700  0.00286600  0.49876200  1
  Li  Li3  1  0.75033300  0.24909500  0.25319900  1
  Li  Li4  1  0.49589600  0.49713400  0.24680100  1
  Li  Li5  1  0.00410400  0.25090500  0.00123800  1
  Li  Li6  1  0.00123800  0.00410400  0.25090500  1
  Li  Li7  1  0.49876200  0.74966700  0.00286600  1
  Li  Li8  1  0.74680100  0.24966700  0.75090500  1
  Li  Li9  1  0.75319900  0.50410400  0.50286600  1
  Li  Li10  1  0.49713400  0.24680100  0.49589600  1
  Li  Li11  1  0.75090500  0.74680100  0.24966700  1
  Li  Li12  1  0.50286600  0.75319900  0.50410400  1
  Li  Li13  1  0.24909500  0.25319900  0.75033300  1
  Li  Li14  1  0.24680100  0.49589600  0.49713400  1
  Li  Li15  1  0.25319900  0.75033300  0.24909500  1
  Li  Li16  1  0.99876200  0.99589600  0.74909500  1
  Li  Li17  1  0.50123800  0.25033300  0.99713400  1
  Li  Li18  1  0.50410400  0.50286600  0.75319900  1
  Li  Li19  1  0.99589600  0.74909500  0.99876200  1
  Li  Li20  1  0.25033300  0.99713400  0.50123800  1
  Li  Li21  1  0.24966700  0.75090500  0.74680100  1
  Li  Li22  1  0.00286600  0.49876200  0.74966700  1
  Li  Li23  1  0.25090500  0.00123800  0.00410400  1
  Cu  Cu0  1  0.75419100  0.50000000  0.00000000  1
  Cu  Cu1  1  0.50000000  0.00000000  0.24580900  1
  Cu  Cu2  1  0.25419100  0.25419100  0.25419100  1
  Cu  Cu3  1  0.24580900  0.50000000  0.00000000  1
  Cu  Cu4  1  0.50000000  0.00000000  0.75419100  1
  Cu  Cu5  1  0.00000000  0.24580900  0.50000000  1
  Cu  Cu6  1  0.74580900  0.74580900  0.74580900  1
  Cu  Cu7  1  0.00000000  0.75419100  0.50000000  1
  S  S0  1  0.75000000  0.00285800  0.25285800  1
  S  S1  1  0.00000000  0.00000000  0.00000000  1
  S  S2  1  0.50000000  0.00000000  0.50000000  1
  S  S3  1  0.50000000  0.50000000  0.00000000  1
  S  S4  1  0.49714200  0.24714200  0.25000000  1
  S  S5  1  0.99714200  0.74714200  0.25000000  1
  S  S6  1  0.25000000  0.49714200  0.24714200  1
  S  S7  1  0.24714200  0.25000000  0.49714200  1
  S  S8  1  0.25285800  0.75000000  0.00285800  1
  S  S9  1  0.75285800  0.75000000  0.50285800  1
  S  S10  1  0.74714200  0.25000000  0.99714200  1
  S  S11  1  0.75000000  0.50285800  0.75285800  1
  S  S12  1  0.00000000  0.50000000  0.50000000  1
  S  S13  1  0.00285800  0.25285800  0.75000000  1
  S  S14  1  0.50285800  0.75285800  0.75000000  1
  S  S15  1  0.25000000  0.99714200  0.74714200  1
loop_
_geom_bond_atom_site_label_1
_geom_bond_atom_site_label_2
_geom_bond_distance
_geom_bond_site_symmetry_2
Li0 S14 2.398505 1_555
Li0 S1 2.429074 1_666
Li0 S10 2.451882 1_565
Li0 S0 2.489240 1_566
Li1 S5 2.398505 1_555
Li1 S12 2.429074 1_655
Li1 S10 2.451882 1_554
Li1 S6 2.489240 1_655
Li2 S0 2.398505 1_555
Li2 S2 2.429074 1_555
Li2 S13 2.451882 1_655
Li2 S9 2.489240 1_545
Li3 S0 2.398505 1_555
Li3 S12 2.429074 1_655
Li3 S4 2.451882 1_555
Li3 S10 2.489240 1_554
Li4 S6 2.398505 1_555
Li4 S3 2.429074 1_555
Li4 S4 2.451882 1_555
Li4 S9 2.489240 1_555
Li5 S6 2.398505 1_555
Li5 S1 2.429074 1_555
Li5 S13 2.451882 1_554
Li5 S10 2.489240 1_454
Li6 S7 2.398505 1_555
Li6 S1 2.429074 1_555
Li6 S0 2.451882 1_455
Li6 S5 2.489240 1_445
Li7 S8 2.398505 1_555
Li7 S3 2.429074 1_555
Li7 S0 2.451882 1_565
Li7 S14 2.489240 1_554
Li8 S10 2.398505 1_555
Li8 S2 2.429074 1_555
Li8 S11 2.451882 1_555
Li8 S13 2.489240 1_655
Li9 S9 2.398505 1_555
Li9 S12 2.429074 1_655
Li9 S11 2.451882 1_555
Li9 S4 2.489240 1_555
Li10 S4 2.398505 1_555
Li10 S2 2.429074 1_555
Li10 S7 2.451882 1_555
Li10 S11 2.489240 1_555
Li11 S5 2.398505 1_555
Li11 S3 2.429074 1_555
Li11 S9 2.451882 1_555
Li11 S0 2.489240 1_565
Li12 S14 2.398505 1_555
Li12 S2 2.429074 1_565
Li12 S9 2.451882 1_555
Li12 S6 2.489240 1_555
Li13 S13 2.398505 1_555
Li13 S3 2.429074 1_556
Li13 S7 2.451882 1_555
Li13 S15 2.489240 1_545
Li14 S7 2.398505 1_555
Li14 S12 2.429074 1_555
Li14 S6 2.451882 1_555
Li14 S14 2.489240 1_555
Li15 S8 2.398505 1_555
Li15 S2 2.429074 1_565
Li15 S6 2.451882 1_555
Li15 S5 2.489240 1_455
Li16 S9 2.398505 1_555
Li16 S1 2.429074 1_666
Li16 S15 2.451882 1_655
Li16 S13 2.489240 1_665
Li17 S10 2.398505 1_555
Li17 S3 2.429074 1_556
Li17 S15 2.451882 1_545
Li17 S4 2.489240 1_556
Li18 S11 2.398505 1_555
Li18 S3 2.429074 1_556
Li18 S14 2.451882 1_555
Li18 S7 2.489240 1_555
Li19 S11 2.398505 1_555
Li19 S1 2.429074 1_666
Li19 S5 2.451882 1_556
Li19 S8 2.489240 1_656
Li20 S15 2.398505 1_555
Li20 S2 2.429074 1_565
Li20 S5 2.451882 1_455
Li20 S7 2.489240 1_565
Li21 S15 2.398505 1_555
Li21 S12 2.429074 1_555
Li21 S14 2.451882 1_555
Li21 S8 2.489240 1_556
Li22 S13 2.398505 1_555
Li22 S12 2.429074 1_555
Li22 S8 2.451882 1_556
Li22 S11 2.489240 1_455
Li23 S4 2.398505 1_555
Li23 S1 2.429074 1_555
Li23 S8 2.451882 1_545
Li23 S15 2.489240 1_544
Cu0 S11 2.405847 1_554
Cu0 S5 2.405847 1_555
Cu0 S10 2.405847 1_554
Cu0 S3 2.478241 1_555
Cu0 Li19 2.770270 1_554
Cu0 Li1 2.770270 1_555
Cu0 Li8 2.770270 1_554
Cu0 Li17 2.813274 1_554
Cu0 Li11 2.813274 1_555
Cu0 Li18 2.813274 1_554
Cu1 S8 2.405847 1_545
Cu1 S0 2.405847 1_555
Cu1 S4 2.405847 1_555
Cu1 S2 2.478241 1_555
Cu1 Li3 2.770270 1_555
Cu1 Li23 2.770270 1_555
Cu1 Li7 2.770270 1_545
Cu1 Li2 2.813274 1_555
Cu1 Li15 2.813274 1_545
Cu1 Li10 2.813274 1_555
Cu2 S6 2.405847 1_555
Cu2 S7 2.405847 1_555
Cu2 S4 2.405847 1_555
Cu2 S1 2.478241 1_555
Cu2 Li10 2.770270 1_555
Cu2 Li14 2.770270 1_555
Cu2 Li4 2.770270 1_555
Cu2 Li23 2.813274 1_555
Cu2 Li5 2.813274 1_555
Cu2 Li6 2.813274 1_555
Cu3 S13 2.405847 1_554
Cu3 S8 2.405847 1_555
Cu3 S6 2.405847 1_555
Cu3 S3 2.478241 1_555
Cu3 Li5 2.770270 1_555
Cu3 Li15 2.770270 1_555
Cu3 Li22 2.770270 1_554
Cu3 Li7 2.813274 1_555
Cu3 Li4 2.813274 1_555
Cu3 Li13 2.813274 1_554
Cu4 S15 2.405847 1_545
Cu4 S14 2.405847 1_545
Cu4 S10 2.405847 1_555
Cu4 S2 2.478241 1_555
Cu4 Li0 2.770270 1_545
Cu4 Li21 2.770270 1_545
Cu4 Li17 2.770270 1_555
Cu4 Li12 2.813274 1_545
Cu4 Li8 2.813274 1_555
Cu4 Li20 2.813274 1_545
Cu5 S13 2.405847 1_555
Cu5 S0 2.405847 1_455
Cu5 S7 2.405847 1_555
Cu5 S12 2.478241 1_555
Cu5 Li13 2.770270 1_555
Cu5 Li6 2.770270 1_555
Cu5 Li2 2.770270 1_455
Cu5 Li14 2.813274 1_555
Cu5 Li3 2.813274 1_455
Cu5 Li22 2.813274 1_555
Cu6 S14 2.405847 1_555
Cu6 S11 2.405847 1_555
Cu6 S9 2.405847 1_555
Cu6 S1 2.478241 1_666
Cu6 Li9 2.770270 1_555
Cu6 Li12 2.770270 1_555
Cu6 Li18 2.770270 1_555
Cu6 Li16 2.813274 1_555
Cu6 Li0 2.813274 1_555
Cu6 Li19 2.813274 1_555
Cu7 S5 2.405847 1_455
Cu7 S9 2.405847 1_455
Cu7 S15 2.405847 1_555
Cu7 S12 2.478241 1_555
Cu7 Li16 2.770270 1_455
Cu7 Li11 2.770270 1_455
Cu7 Li20 2.770270 1_555
Cu7 Li21 2.813274 1_555
Cu7 Li9 2.813274 1_455
Cu7 Li1 2.813274 1_455
