# generated using pymatgen
data_Li4Ni5BiO12
_symmetry_space_group_name_H-M   'P 1'
_cell_length_a   5.19123391
_cell_length_b   5.15048096
_cell_length_c   10.12156696
_cell_angle_alpha   91.10435303
_cell_angle_beta   92.19175784
_cell_angle_gamma   59.73791845
_symmetry_Int_Tables_number   1
_chemical_formula_structural   Li4Ni5BiO12
_chemical_formula_sum   'Li4 Ni5 Bi1 O12'
_cell_volume   233.57477214
_cell_formula_units_Z   1
loop_
 _symmetry_equiv_pos_site_id
 _symmetry_equiv_pos_as_xyz
  1  'x, y, z'
loop_
 _atom_site_type_symbol
 _atom_site_label
 _atom_site_symmetry_multiplicity
 _atom_site_fract_x
 _atom_site_fract_y
 _atom_site_fract_z
 _atom_site_occupancy
  Li  Li0  1  0.17479500  0.45877000  0.74198900  1
  Li  Li1  1  0.36643500  0.45877000  0.25801100  1
  Li  Li2  1  0.63356500  0.54123000  0.74198900  1
  Li  Li3  1  0.82520500  0.54123000  0.25801100  1
  Ni  Ni0  1  0.16430800  0.67138400  0.50000000  1
  Ni  Ni1  1  0.66564000  0.66871900  0.00000000  1
  Ni  Ni2  1  0.33436000  0.33128100  0.00000000  1
  Ni  Ni3  1  0.83569200  0.32861600  0.50000000  1
  Ni  Ni4  1  0.50000000  0.00000000  0.50000000  1
  Bi  Bi0  1  0.00000000  0.00000000  0.00000000  1
  O  O0  1  0.02788500  0.64134800  0.11412800  1
  O  O1  1  0.33076700  0.64134800  0.88587200  1
  O  O2  1  0.15755700  0.35782700  0.39793900  1
  O  O3  1  0.51538400  0.64217300  0.39793900  1
  O  O4  1  0.48461600  0.35782700  0.60206100  1
  O  O5  1  0.17826600  0.00000000  0.58984600  1
  O  O6  1  0.84244300  0.64217300  0.60206100  1
  O  O7  1  0.66923300  0.35865200  0.11412800  1
  O  O8  1  0.35908000  0.00000000  0.10510800  1
  O  O9  1  0.97211500  0.35865200  0.88587200  1
  O  O10  1  0.64092000  0.00000000  0.89489200  1
  O  O11  1  0.82173400  0.00000000  0.41015400  1
loop_
_geom_bond_atom_site_label_1
_geom_bond_atom_site_label_2
_geom_bond_distance
_geom_bond_site_symmetry_2
Li0 O6 2.024082 1_455
Li0 O4 2.041084 1_555
Li0 O9 2.046169 1_455
Li0 O1 2.070071 1_555
Li1 O3 2.024082 1_555
Li1 O2 2.041084 1_555
Li1 O7 2.046169 1_555
Li1 O0 2.070072 1_555
Li2 O4 2.024082 1_555
Li2 O6 2.041084 1_555
Li2 O1 2.046169 1_555
Li2 O9 2.070072 1_555
Li3 O2 2.024082 1_655
Li3 O3 2.041084 1_555
Li3 O0 2.046169 1_655
Li3 O7 2.070071 1_555
Ni0 O2 1.914797 1_555
Ni0 O4 1.914798 1_555
Ni0 O5 1.938073 1_565
Ni0 O11 1.938073 1_465
Ni0 O6 2.067117 1_455
Ni0 O3 2.067117 1_555
Ni1 O8 1.974437 1_565
Ni1 O10 1.974439 1_564
Ni1 O7 1.981050 1_555
Ni1 O9 1.981052 1_554
Ni1 O1 2.112685 1_554
Ni1 O0 2.112689 1_655
Ni2 O10 1.974437 1_554
Ni2 O8 1.974439 1_555
Ni2 O1 1.981050 1_554
Ni2 O0 1.981052 1_555
Ni2 O7 2.112685 1_555
Ni2 O9 2.112689 1_454
Ni3 O6 1.914797 1_555
Ni3 O3 1.914798 1_555
Ni3 O11 1.938073 1_555
Ni3 O5 1.938073 1_655
Ni3 O2 2.067117 1_655
Ni3 O4 2.067117 1_555
Ni4 O11 1.932021 1_555
Ni4 O5 1.932021 1_555
Ni4 O4 2.062682 1_555
Ni4 O3 2.062682 1_545
Ni4 O6 2.062682 1_545
Ni4 O2 2.062682 1_555
Bi0 O10 2.110654 1_454
Bi0 O8 2.110654 1_555
Bi0 O0 2.137181 1_545
Bi0 O9 2.137181 1_454
Bi0 O1 2.137181 1_544
Bi0 O7 2.137181 1_455
