# generated using pymatgen
data_YbCO3
_symmetry_space_group_name_H-M   'P 1'
_cell_length_a   4.37097400
_cell_length_b   6.27881700
_cell_length_c   8.63539900
_cell_angle_alpha   90.00000000
_cell_angle_beta   90.00000000
_cell_angle_gamma   90.00000000
_symmetry_Int_Tables_number   1
_chemical_formula_structural   YbCO3
_chemical_formula_sum   'Yb4 C4 O12'
_cell_volume   236.99460386
_cell_formula_units_Z   4
loop_
 _symmetry_equiv_pos_site_id
 _symmetry_equiv_pos_as_xyz
  1  'x, y, z'
loop_
 _atom_site_type_symbol
 _atom_site_label
 _atom_site_symmetry_multiplicity
 _atom_site_fract_x
 _atom_site_fract_y
 _atom_site_fract_z
 _atom_site_occupancy
  Yb  Yb0  1  0.00000000  0.00000000  0.00000000  1
  Yb  Yb1  1  0.00000000  0.00000000  0.50000000  1
  Yb  Yb2  1  0.50000000  0.50000000  0.00000000  1
  Yb  Yb3  1  0.50000000  0.50000000  0.50000000  1
  C  C0  1  0.11139700  0.64541300  0.25000000  1
  C  C1  1  0.38860300  0.14541300  0.25000000  1
  C  C2  1  0.61139700  0.85458700  0.75000000  1
  C  C3  1  0.88860300  0.35458700  0.75000000  1
  O  O0  1  0.97574800  0.66160500  0.11634600  1
  O  O1  1  0.02425200  0.33839500  0.61634600  1
  O  O2  1  0.97574800  0.66160500  0.38365400  1
  O  O3  1  0.02425200  0.33839500  0.88365400  1
  O  O4  1  0.09647000  0.11177800  0.25000000  1
  O  O5  1  0.40353000  0.61177800  0.25000000  1
  O  O6  1  0.52425200  0.16160500  0.38365400  1
  O  O7  1  0.52425200  0.16160500  0.11634600  1
  O  O8  1  0.47574800  0.83839500  0.61634600  1
  O  O9  1  0.47574800  0.83839500  0.88365400  1
  O  O10  1  0.59647000  0.38822200  0.75000000  1
  O  O11  1  0.90353000  0.88822200  0.75000000  1
loop_
_geom_bond_atom_site_label_1
_geom_bond_atom_site_label_2
_geom_bond_distance
_geom_bond_site_symmetry_2
C0 O5 1.294252 1_555
C0 O2 1.301523 1_455
C0 O0 1.301523 1_455
C1 O4 1.294252 1_555
C1 O6 1.301523 1_555
C1 O7 1.301523 1_555
C2 O11 1.294252 1_555
C2 O8 1.301523 1_555
C2 O9 1.301523 1_555
C3 O10 1.294252 1_555
C3 O1 1.301523 1_655
C3 O3 1.301523 1_655
O0 Yb0 2.352676 1_665
O0 Yb2 2.522548 1_555
O0 Yb2 2.699988 1_655
O1 Yb1 2.352676 1_555
O1 Yb3 2.522548 1_555
O1 Yb3 2.699988 1_455
O2 Yb1 2.352676 1_665
O2 Yb3 2.522548 1_555
O2 Yb3 2.699988 1_655
O3 Yb0 2.352676 1_556
O3 Yb2 2.522548 1_556
O3 Yb2 2.699988 1_456
O4 Yb0 2.308897 1_555
O4 Yb1 2.308897 1_555
O5 Yb3 2.308897 1_555
O5 Yb2 2.308897 1_555
O6 Yb3 2.352676 1_555
O6 Yb1 2.522548 1_655
O6 Yb1 2.699988 1_555
O7 Yb2 2.352676 1_555
O7 Yb0 2.522548 1_655
O7 Yb0 2.699988 1_555
O8 Yb3 2.352676 1_555
O8 Yb1 2.522548 1_565
O8 Yb1 2.699988 1_665
O9 Yb2 2.352676 1_556
O9 Yb0 2.522548 1_566
O9 Yb0 2.699988 1_666
O10 Yb3 2.308897 1_555
O10 Yb2 2.308897 1_556
O11 Yb0 2.308897 1_666
O11 Yb1 2.308897 1_665
