# generated using pymatgen
data_NdIO
_symmetry_space_group_name_H-M   'P 1'
_cell_length_a   4.07992489
_cell_length_b   4.07992489
_cell_length_c   9.48195849
_cell_angle_alpha   90.00000000
_cell_angle_beta   90.00000000
_cell_angle_gamma   90.00000000
_symmetry_Int_Tables_number   1
_chemical_formula_structural   NdIO
_chemical_formula_sum   'Nd2 I2 O2'
_cell_volume   157.83466239
_cell_formula_units_Z   2
loop_
 _symmetry_equiv_pos_site_id
 _symmetry_equiv_pos_as_xyz
  1  'x, y, z'
loop_
 _atom_site_type_symbol
 _atom_site_label
 _atom_site_symmetry_multiplicity
 _atom_site_fract_x
 _atom_site_fract_y
 _atom_site_fract_z
 _atom_site_occupancy
  Nd  Nd0  1  -0.00000000  0.50000000  0.12255211  1
  Nd  Nd1  1  0.50000000  -0.00000000  0.87744789  1
  I  I0  1  -0.00000000  0.50000000  0.67742034  1
  I  I1  1  0.50000000  0.00000000  0.32257966  1
  O  O0  1  0.00000000  0.00000000  0.00000000  1
  O  O1  1  0.50000000  0.50000000  0.00000000  1
loop_
_geom_bond_atom_site_label_1
_geom_bond_atom_site_label_2
_geom_bond_distance
_geom_bond_site_symmetry_2
Nd0 O1 2.347716 1_555
Nd0 O1 2.347716 1_455
Nd0 O0 2.347716 1_565
Nd0 O0 2.347716 1_555
Nd1 O0 2.347716 1_556
Nd1 O0 2.347716 1_656
Nd1 O1 2.347716 1_556
Nd1 O1 2.347716 1_546
I0 Nd1 3.452562 1_565
I0 Nd1 3.452562 1_555
I0 Nd1 3.452562 1_465
I0 Nd1 3.452562 1_455
I1 Nd0 3.452562 1_655
I1 Nd0 3.452562 1_555
I1 Nd0 3.452562 1_545
I1 Nd0 3.452562 1_645
