# generated using pymatgen
data_Co2Ni3Sb(PO4)6
_symmetry_space_group_name_H-M   'P 1'
_cell_length_a   8.47085401
_cell_length_b   8.66509927
_cell_length_c   8.66509853
_cell_angle_alpha   59.99999493
_cell_angle_beta   59.23849486
_cell_angle_gamma   59.23849433
_symmetry_Int_Tables_number   1
_chemical_formula_structural   Co2Ni3Sb(PO4)6
_chemical_formula_sum   'Co2 Ni3 Sb1 P6 O24'
_cell_volume   444.49137719
_cell_formula_units_Z   1
loop_
 _symmetry_equiv_pos_site_id
 _symmetry_equiv_pos_as_xyz
  1  'x, y, z'
loop_
 _atom_site_type_symbol
 _atom_site_label
 _atom_site_symmetry_multiplicity
 _atom_site_fract_x
 _atom_site_fract_y
 _atom_site_fract_z
 _atom_site_occupancy
  Co  Co0  1  0.02856700  0.99047700  0.99047700  1
  Co  Co1  1  0.49861000  0.50046400  0.50046400  1
  Ni  Ni0  1  0.07019400  0.64326900  0.64326900  1
  Ni  Ni1  1  0.43503400  0.85498900  0.85498900  1
  Ni  Ni2  1  0.92353400  0.35882200  0.35882200  1
  Sb  Sb0  1  0.57416500  0.14194500  0.14194500  1
  P  P0  1  0.24435600  0.25516300  0.54725300  1
  P  P1  1  0.24435600  0.95322800  0.25516300  1
  P  P2  1  0.24435600  0.54725300  0.95322800  1
  P  P3  1  0.74733200  0.45987700  0.04816600  1
  P  P4  1  0.74733200  0.04816600  0.74462400  1
  P  P5  1  0.74733200  0.74462400  0.45987700  1
  O  O0  1  0.06663300  0.10819300  0.32084500  1
  O  O1  1  0.06663300  0.50432900  0.10819300  1
  O  O2  1  0.06663300  0.32084500  0.50432900  1
  O  O3  1  0.22189600  0.09430200  0.74496400  1
  O  O4  1  0.43875100  0.18105600  0.38939400  1
  O  O5  1  0.28529500  0.40499800  0.55808200  1
  O  O6  1  0.22189600  0.93883800  0.09430200  1
  O  O7  1  0.28529500  0.75162500  0.40499800  1
  O  O8  1  0.56057100  0.60846500  0.01325000  1
  O  O9  1  0.28529500  0.55808200  0.75162500  1
  O  O10  1  0.77624000  0.25122000  0.06319400  1
  O  O11  1  0.56057100  0.01325000  0.81771300  1
  O  O12  1  0.43875100  0.99079900  0.18105600  1
  O  O13  1  0.22189600  0.74496400  0.93883800  1
  O  O14  1  0.71477200  0.43785300  0.25190100  1
  O  O15  1  0.43875100  0.38939400  0.99079900  1
  O  O16  1  0.71477200  0.25190100  0.59547500  1
  O  O17  1  0.77624000  0.06319400  0.90934600  1
  O  O18  1  0.71477200  0.59547500  0.43785300  1
  O  O19  1  0.56057100  0.81771300  0.60846500  1
  O  O20  1  0.77624000  0.90934600  0.25122000  1
  O  O21  1  0.93411900  0.68340700  0.48754700  1
  O  O22  1  0.93411900  0.48754700  0.89492700  1
  O  O23  1  0.93411900  0.89492700  0.68340700  1
loop_
_geom_bond_atom_site_label_1
_geom_bond_atom_site_label_2
_geom_bond_distance
_geom_bond_site_symmetry_2
Co0 O13 2.011578 1_555
Co0 O3 2.011584 1_565
Co0 O6 2.011592 1_556
Co0 O17 2.275143 1_465
Co0 O20 2.275149 1_456
Co0 O10 2.275154 1_466
Co1 O9 2.095663 1_555
Co1 O7 2.095669 1_555
Co1 O5 2.095676 1_555
Co1 O18 2.098613 1_555
Co1 O16 2.098616 1_555
Co1 O14 2.098619 1_555
Ni0 O23 1.995481 1_455
Ni0 O22 1.995485 1_455
Ni0 O21 1.995489 1_455
Ni0 O9 2.104180 1_555
Ni0 O7 2.104182 1_555
Ni0 O5 2.104186 1_555
Ni1 O11 1.952739 1_565
Ni1 O8 1.952747 1_556
Ni1 O19 1.952754 1_555
Ni1 O6 2.103020 1_556
Ni1 O3 2.103024 1_565
Ni1 O13 2.103027 1_555
Ni2 O1 1.976812 1_655
Ni2 O0 1.976812 1_655
Ni2 O2 1.976813 1_655
Ni2 O14 2.063310 1_555
Ni2 O16 2.063312 1_555
Ni2 O18 2.063316 1_555
O0 P1 1.487721 1_545
O1 P2 1.487721 1_554
O2 P0 1.487721 1_555
O3 P0 1.569707 1_555
O4 P0 1.577212 1_555
O4 Sb0 1.959892 1_555
O5 P0 1.558983 1_555
O6 P1 1.569707 1_555
O7 P1 1.558983 1_555
O8 P3 1.506166 1_555
O9 P2 1.558983 1_555
O10 P3 1.640180 1_555
O10 Sb0 2.027141 1_555
O11 P4 1.506166 1_555
O12 P1 1.577212 1_555
O12 Sb0 1.959893 1_565
O13 P2 1.569707 1_555
O14 P3 1.564586 1_555
O15 P2 1.577212 1_555
O15 Sb0 1.959893 1_556
O16 P4 1.564580 1_555
O17 P4 1.640188 1_555
O17 Sb0 2.027141 1_556
O18 P5 1.564570 1_555
O19 P5 1.506166 1_555
O20 P5 1.640183 1_555
O20 Sb0 2.027141 1_565
O21 P5 1.498231 1_555
O22 P3 1.498228 1_556
O23 P4 1.498226 1_565
