# generated using pymatgen
data_Li7MgNi7O16
_symmetry_space_group_name_H-M   'P 1'
_cell_length_a   7.57737181
_cell_length_b   7.57737181
_cell_length_c   4.99618959
_cell_angle_alpha   77.39396365
_cell_angle_beta   77.39396365
_cell_angle_gamma   98.37072707
_symmetry_Int_Tables_number   1
_chemical_formula_structural   Li7MgNi7O16
_chemical_formula_sum   'Li7 Mg1 Ni7 O16'
_cell_volume   267.51919110
_cell_formula_units_Z   1
loop_
 _symmetry_equiv_pos_site_id
 _symmetry_equiv_pos_as_xyz
  1  'x, y, z'
loop_
 _atom_site_type_symbol
 _atom_site_label
 _atom_site_symmetry_multiplicity
 _atom_site_fract_x
 _atom_site_fract_y
 _atom_site_fract_z
 _atom_site_occupancy
  Li  Li0  1  0.50262000  0.00232600  0.50098000  1
  Li  Li1  1  0.23984600  0.24352000  0.52751200  1
  Li  Li2  1  0.88070200  0.11929800  0.50000000  1
  Li  Li3  1  0.99767400  0.49738000  0.49902000  1
  Li  Li4  1  0.62183300  0.37816700  0.50000000  1
  Li  Li5  1  0.37916400  0.62083600  0.50000000  1
  Li  Li6  1  0.75648000  0.76015400  0.47248800  1
  Mg  Mg0  1  0.11785100  0.88214900  0.50000000  1
  Ni  Ni0  1  0.36864500  0.12360200  0.00098500  1
  Ni  Ni1  1  0.74889700  0.25110300  0.00000000  1
  Ni  Ni2  1  0.12151800  0.36969000  0.99798300  1
  Ni  Ni3  1  0.50111900  0.49888100  0.00000000  1
  Ni  Ni4  1  0.87639800  0.63135500  0.99901500  1
  Ni  Ni5  1  0.24967100  0.75032900  0.00000000  1
  Ni  Ni6  1  0.63031000  0.87848200  0.00201700  1
  O  O0  1  0.73251500  0.01460200  0.22675200  1
  O  O1  1  0.15004800  0.13494200  0.24980100  1
  O  O2  1  0.61962800  0.12659700  0.78666100  1
  O  O3  1  0.51627400  0.26208600  0.21822300  1
  O  O4  1  0.25583100  0.50578200  0.20892600  1
  O  O5  1  0.36276900  0.36453300  0.76520400  1
  O  O6  1  0.87340300  0.38037200  0.21333900  1
  O  O7  1  0.98539800  0.26748500  0.77324800  1
  O  O8  1  0.63546700  0.63723100  0.23479600  1
  O  O9  1  0.12745200  0.63628600  0.77380600  1
  O  O10  1  0.02313700  0.73555100  0.23908200  1
  O  O11  1  0.73791400  0.48372600  0.78177700  1
  O  O12  1  0.36371400  0.87254800  0.22619400  1
  O  O13  1  0.49421800  0.74416900  0.79107400  1
  O  O14  1  0.26444900  0.97686300  0.76091800  1
  O  O15  1  0.86505800  0.84995200  0.75019900  1
loop_
_geom_bond_atom_site_label_1
_geom_bond_atom_site_label_2
_geom_bond_distance
_geom_bond_site_symmetry_2
Li0 O14 1.935725 1_545
Li0 O0 1.943139 1_555
Li0 O3 2.131627 1_555
Li0 O2 2.146151 1_555
Li0 O13 2.148760 1_545
Li0 O12 2.208699 1_545
Li1 O1 1.952538 1_555
Li1 O5 1.956560 1_555
Li1 O7 2.103261 1_455
Li1 O14 2.157169 1_545
Li1 O4 2.227666 1_555
Li1 O3 2.280679 1_555
Li2 O15 2.119752 1_545
Li2 O1 2.119752 1_655
Li2 O0 2.153242 1_555
Li2 O7 2.153242 1_555
Li2 O6 2.190322 1_555
Li2 O2 2.190322 1_555
Li3 O10 1.935725 1_655
Li3 O7 1.943139 1_555
Li3 O11 2.131627 1_555
Li3 O6 2.146151 1_555
Li3 O4 2.148760 1_655
Li3 O9 2.208699 1_655
Li4 O3 2.054887 1_555
Li4 O11 2.054887 1_555
Li4 O5 2.089417 1_555
Li4 O8 2.089417 1_555
Li4 O2 2.115150 1_555
Li4 O6 2.115150 1_555
Li5 O8 2.068218 1_555
Li5 O5 2.068218 1_555
Li5 O12 2.125788 1_555
Li5 O9 2.125788 1_555
Li5 O13 2.158169 1_555
Li5 O4 2.158169 1_555
Li6 O15 1.952538 1_555
Li6 O8 1.956560 1_555
Li6 O0 2.103261 1_565
Li6 O10 2.157169 1_655
Li6 O13 2.227666 1_555
Li6 O11 2.280679 1_555
Mg0 O15 1.994228 1_455
Mg0 O1 1.994228 1_565
Mg0 O10 2.063176 1_555
Mg0 O14 2.063176 1_555
Mg0 O9 2.077958 1_555
Mg0 O12 2.077958 1_555
Ni0 O1 1.866995 1_555
Ni0 O5 1.957147 1_554
Ni0 O2 1.962621 1_554
Ni0 O12 1.978118 1_545
Ni0 O14 2.009515 1_544
Ni0 O3 2.053243 1_555
Ni1 O7 1.870295 1_554
Ni1 O0 1.870295 1_555
Ni1 O11 1.883113 1_554
Ni1 O3 1.883113 1_555
Ni1 O6 1.900319 1_555
Ni1 O2 1.900319 1_554
Ni2 O7 1.891251 1_455
Ni2 O5 1.951541 1_555
Ni2 O4 1.961361 1_556
Ni2 O6 1.974391 1_456
Ni2 O1 2.011841 1_556
Ni2 O9 2.073948 1_555
Ni3 O11 1.918880 1_554
Ni3 O3 1.918880 1_555
Ni3 O13 1.937044 1_554
Ni3 O4 1.937044 1_555
Ni3 O8 2.063683 1_555
Ni3 O5 2.063683 1_554
Ni4 O15 1.866995 1_555
Ni4 O8 1.957147 1_556
Ni4 O6 1.962621 1_556
Ni4 O9 1.978118 1_655
Ni4 O10 2.009515 1_656
Ni4 O11 2.053243 1_555
Ni5 O10 1.837531 1_555
Ni5 O14 1.837531 1_554
Ni5 O12 1.879267 1_555
Ni5 O9 1.879267 1_554
Ni5 O13 1.930707 1_554
Ni5 O4 1.930707 1_555
Ni6 O0 1.891251 1_565
Ni6 O8 1.951541 1_555
Ni6 O13 1.961361 1_554
Ni6 O2 1.974391 1_564
Ni6 O15 2.011841 1_554
Ni6 O12 2.073948 1_555
