# generated using pymatgen
data_Hf2N2O
_symmetry_space_group_name_H-M   'P 1'
_cell_length_a   8.65610431
_cell_length_b   8.66425777
_cell_length_c   8.68094031
_cell_angle_alpha   109.42041965
_cell_angle_beta   109.41815780
_cell_angle_gamma   109.41776626
_symmetry_Int_Tables_number   1
_chemical_formula_structural   Hf2N2O
_chemical_formula_sum   'Hf16 N16 O8'
_cell_volume   502.15646583
_cell_formula_units_Z   8
loop_
 _symmetry_equiv_pos_site_id
 _symmetry_equiv_pos_as_xyz
  1  'x, y, z'
loop_
 _atom_site_type_symbol
 _atom_site_label
 _atom_site_symmetry_multiplicity
 _atom_site_fract_x
 _atom_site_fract_y
 _atom_site_fract_z
 _atom_site_occupancy
  Hf  Hf0  1  0.51159246  0.49872759  0.50097237  1
  Hf  Hf1  1  0.21229505  0.75706628  0.46432996  1
  Hf  Hf2  1  0.47046168  0.72078666  0.24727309  1
  Hf  Hf3  1  0.96422891  0.21436188  0.25834295  1
  Hf  Hf4  1  0.29178261  0.24804067  0.03476824  1
  Hf  Hf5  1  0.74783804  0.96582169  0.70776275  1
  Hf  Hf6  1  0.99127452  0.50338054  0.99487764  1
  Hf  Hf7  1  0.24542432  0.53466240  0.78488579  1
  Hf  Hf8  1  0.50049752  0.00791174  0.01075749  1
  Hf  Hf9  1  0.25287155  0.02922234  0.28612967  1
  Hf  Hf10  1  0.99981001  0.99653760  0.48975036  1
  Hf  Hf11  1  0.74389840  0.46530643  0.21541591  1
  Hf  Hf12  1  0.71860556  0.75071451  0.96884084  1
  Hf  Hf13  1  0.02744222  0.77981161  0.74936578  1
  Hf  Hf14  1  0.53876334  0.28175149  0.75013113  1
  Hf  Hf15  1  0.78630518  0.24979104  0.53612217  1
  N  N0  1  0.77043121  0.73012814  0.73740202  1
  N  N1  1  0.53876833  0.51020372  0.27170079  1
  N  N2  1  0.50771324  0.76718494  0.03939754  1
  N  N3  1  0.95756369  0.72545900  0.46931778  1
  N  N4  1  0.24041872  0.76797810  0.22915284  1
  N  N5  1  0.72841764  0.23617689  0.26949345  1
  N  N6  1  0.72648691  0.96271357  0.45741833  1
  N  N7  1  0.76387451  0.22673758  0.77890547  1
  N  N8  1  0.99561605  0.53824329  0.76650156  1
  N  N9  1  0.77287070  0.54676002  0.01166122  1
  N  N10  1  0.48355118  0.22438256  0.95181513  1
  N  N11  1  0.96615007  0.95871092  0.22555505  1
  N  N12  1  0.05295438  0.27523619  0.53600769  1
  N  N13  1  0.25815924  0.98961117  0.03141905  1
  N  N14  1  0.27324833  0.03199105  0.54724517  1
  N  N15  1  0.53427863  0.26509857  0.48803660  1
  O  O0  1  0.27872139  0.75885465  0.72475161  1
  O  O1  1  0.46351528  0.73949949  0.52065980  1
  O  O2  1  0.22668814  0.28071471  0.26477593  1
  O  O3  1  0.01402889  0.46187491  0.23598043  1
  O  O4  1  0.22152056  0.44493038  0.97998776  1
  O  O5  1  0.03325290  0.05280308  0.77611491  1
  O  O6  1  0.45262264  0.48907402  0.72298993  1
  O  O7  1  0.73605199  0.01173758  0.96398478  1
loop_
_geom_bond_atom_site_label_1
_geom_bond_atom_site_label_2
_geom_bond_distance
_geom_bond_site_symmetry_2
Hf0 N15 2.067959 1_555
Hf0 N1 2.110414 1_555
Hf0 N0 2.114534 1_555
Hf0 O6 2.171423 1_555
Hf0 O2 2.195206 1_555
Hf0 O1 2.222994 1_555
Hf1 N14 2.059650 1_565
Hf1 O0 2.132628 1_555
Hf1 O1 2.133923 1_555
Hf1 N3 2.146784 1_455
Hf1 N4 2.163257 1_555
Hf1 O3 2.205480 1_555
Hf2 N2 2.074882 1_555
Hf2 N6 2.076848 1_555
Hf2 N4 2.129076 1_555
Hf2 N1 2.148197 1_555
Hf2 O4 2.302786 1_554
Hf2 O1 2.346854 1_555
Hf3 N12 2.081430 1_655
Hf3 O2 2.126240 1_655
Hf3 O3 2.130793 1_655
Hf3 N5 2.141812 1_555
Hf3 N11 2.143832 1_545
Hf3 O7 2.206385 1_554
Hf4 N10 2.058877 1_554
Hf4 O5 2.127721 1_554
Hf4 O4 2.131470 1_554
Hf4 N13 2.148696 1_545
Hf4 N1 2.168198 1_555
Hf4 O2 2.205136 1_555
Hf5 N7 2.077764 1_565
Hf5 N6 2.109146 1_555
Hf5 O5 2.124548 1_665
Hf5 O1 2.134387 1_555
Hf5 O7 2.169192 1_565
Hf5 N0 2.203669 1_555
Hf6 N9 2.087048 1_556
Hf6 N8 2.112641 1_555
Hf6 N7 2.134361 1_555
Hf6 N4 2.176835 1_656
Hf6 O3 2.195967 1_656
Hf6 O4 2.245937 1_655
Hf7 N12 2.093578 1_555
Hf7 O4 2.125433 1_555
Hf7 N8 2.126194 1_455
Hf7 O0 2.128573 1_555
Hf7 O6 2.152244 1_555
Hf7 N2 2.181342 1_556
Hf8 N5 2.086576 1_555
Hf8 N13 2.122642 1_545
Hf8 N10 2.138283 1_554
Hf8 N2 2.199334 1_545
Hf8 O7 2.199524 1_554
Hf8 O0 2.240475 1_544
Hf9 N4 2.106528 1_545
Hf9 N13 2.140576 1_545
Hf9 N15 2.156704 1_555
Hf9 N11 2.172544 1_445
Hf9 N14 2.205658 1_555
Hf9 O2 2.324390 1_555
Hf10 N11 2.108226 1_555
Hf10 N14 2.138890 1_665
Hf10 N12 2.167370 1_665
Hf10 N3 2.188678 1_555
Hf10 N6 2.192021 1_555
Hf10 O5 2.263404 1_665
Hf11 N1 2.110131 1_555
Hf11 N3 2.138502 1_555
Hf11 N5 2.159674 1_555
Hf11 N9 2.167239 1_555
Hf11 N10 2.222412 1_554
Hf11 O3 2.296191 1_655
Hf12 N9 2.086658 1_556
Hf12 N11 2.095726 1_556
Hf12 N2 2.141621 1_556
Hf12 N0 2.164201 1_555
Hf12 O7 2.231553 1_565
Hf12 O6 2.244954 1_555
Hf13 N0 2.079740 1_455
Hf13 N8 2.080773 1_455
Hf13 N3 2.137594 1_455
Hf13 N13 2.159369 1_556
Hf13 O5 2.280096 1_565
Hf13 O0 2.314198 1_555
Hf14 N7 2.111797 1_555
Hf14 N10 2.125544 1_555
Hf14 N14 2.129351 1_555
Hf14 O6 2.212098 1_555
Hf14 N9 2.216654 1_556
Hf14 N15 2.217707 1_555
Hf15 N15 2.138870 1_555
Hf15 N5 2.151810 1_555
Hf15 N6 2.167942 1_545
Hf15 N8 2.187360 1_555
Hf15 N12 2.244873 1_655
Hf15 N7 2.246280 1_555
