# generated using pymatgen
data_Li13Mn17O40
_symmetry_space_group_name_H-M   'P 1'
_cell_length_a   5.84892868
_cell_length_b   5.84892868
_cell_length_c   24.03853102
_cell_angle_alpha   83.27561958
_cell_angle_beta   83.27561958
_cell_angle_gamma   59.98286758
_symmetry_Int_Tables_number   1
_chemical_formula_structural   Li13Mn17O40
_chemical_formula_sum   'Li13 Mn17 O40'
_cell_volume   705.52185799
_cell_formula_units_Z   1
loop_
 _symmetry_equiv_pos_site_id
 _symmetry_equiv_pos_as_xyz
  1  'x, y, z'
loop_
 _atom_site_type_symbol
 _atom_site_label
 _atom_site_symmetry_multiplicity
 _atom_site_fract_x
 _atom_site_fract_y
 _atom_site_fract_z
 _atom_site_occupancy
  Li  Li0  1  0.77123600  0.77123600  0.17722300  1
  Li  Li1  1  0.50000000  0.50000000  0.00000000  1
  Li  Li2  1  0.82378600  0.82378600  0.02864600  1
  Li  Li3  1  0.09961200  0.09961200  0.70041500  1
  Li  Li4  1  0.97176300  0.97176300  0.57867300  1
  Li  Li5  1  0.56896900  0.56896900  0.77318100  1
  Li  Li6  1  0.17621400  0.17621400  0.97135400  1
  Li  Li7  1  0.63037300  0.63037300  0.62614300  1
  Li  Li8  1  0.02823700  0.02823700  0.42132700  1
  Li  Li9  1  0.22876400  0.22876400  0.82277700  1
  Li  Li10  1  0.36962700  0.36962700  0.37385700  1
  Li  Li11  1  0.43103100  0.43103100  0.22681900  1
  Li  Li12  1  0.90038800  0.90038800  0.29958500  1
  Mn  Mn0  1  0.30174600  0.30174600  0.09938000  1
  Mn  Mn1  1  0.90178100  0.90178100  0.79834600  1
  Mn  Mn2  1  0.30236500  0.79592900  0.09954900  1
  Mn  Mn3  1  0.69763500  0.20407100  0.90045100  1
  Mn  Mn4  1  0.09821900  0.09821900  0.20165400  1
  Mn  Mn5  1  0.20407100  0.69763500  0.90045100  1
  Mn  Mn6  1  0.69825400  0.69825400  0.90062000  1
  Mn  Mn7  1  0.79592900  0.30236500  0.09954900  1
  Mn  Mn8  1  0.10000100  0.60008300  0.70044700  1
  Mn  Mn9  1  0.39991700  0.89999900  0.29955300  1
  Mn  Mn10  1  0.60008300  0.10000100  0.70044700  1
  Mn  Mn11  1  0.00000000  0.50000000  0.50000000  1
  Mn  Mn12  1  0.50000000  0.50000000  0.50000000  1
  Mn  Mn13  1  0.50000000  0.00000000  0.50000000  1
  Mn  Mn14  1  0.89999900  0.39991700  0.29955300  1
  Mn  Mn15  1  0.29758200  0.29758200  0.60271500  1
  Mn  Mn16  1  0.70241800  0.70241800  0.39728500  1
  O  O0  1  0.41285700  0.97159600  0.14667800  1
  O  O1  1  0.97159600  0.41285700  0.14667800  1
  O  O2  1  0.63428300  0.17350100  0.05816200  1
  O  O3  1  0.45239800  0.45239800  0.14237500  1
  O  O4  1  0.85328700  0.85328700  0.94231300  1
  O  O5  1  0.58714300  0.02840400  0.85332200  1
  O  O6  1  0.17350100  0.63428300  0.05816200  1
  O  O7  1  0.63341600  0.63341600  0.05822200  1
  O  O8  1  0.82649900  0.36571700  0.94183800  1
  O  O9  1  0.36658400  0.36658400  0.94177800  1
  O  O10  1  0.97003200  0.97003200  0.14788700  1
  O  O11  1  0.93632200  0.93632200  0.65890100  1
  O  O12  1  0.75146700  0.20929700  0.75132600  1
  O  O13  1  0.36571700  0.82649900  0.94183800  1
  O  O14  1  0.14671300  0.14671300  0.05768700  1
  O  O15  1  0.54760200  0.54760200  0.85762500  1
  O  O16  1  0.02840500  0.58714300  0.85332200  1
  O  O17  1  0.99118500  0.44808700  0.64879700  1
  O  O18  1  0.02996800  0.02996800  0.85211300  1
  O  O19  1  0.43307300  0.43307300  0.65280100  1
  O  O20  1  0.16900200  0.16900200  0.54817300  1
  O  O21  1  0.20929700  0.75146700  0.75132600  1
  O  O22  1  0.76630900  0.76630900  0.74752700  1
  O  O23  1  0.17134100  0.61599200  0.54614300  1
  O  O24  1  0.82865900  0.38400800  0.45385700  1
  O  O25  1  0.44808700  0.99118500  0.64879700  1
  O  O26  1  0.64595700  0.64595700  0.54349700  1
  O  O27  1  0.06367800  0.06367800  0.34109900  1
  O  O28  1  0.26329800  0.26329800  0.74165600  1
  O  O29  1  0.38400800  0.82865900  0.45385700  1
  O  O30  1  0.83099800  0.83099800  0.45182700  1
  O  O31  1  0.23369100  0.23369100  0.25247300  1
  O  O32  1  0.56692700  0.56692700  0.34719900  1
  O  O33  1  0.00881500  0.55191300  0.35120300  1
  O  O34  1  0.61599200  0.17134100  0.54614300  1
  O  O35  1  0.73670200  0.73670200  0.25834400  1
  O  O36  1  0.35404300  0.35404300  0.45650300  1
  O  O37  1  0.55191300  0.00881500  0.35120300  1
  O  O38  1  0.24853300  0.79070300  0.24867400  1
  O  O39  1  0.79070300  0.24853300  0.24867400  1
loop_
_geom_bond_atom_site_label_1
_geom_bond_atom_site_label_2
_geom_bond_distance
_geom_bond_site_symmetry_2
Li0 O35 1.934050 1_555
Li0 O0 2.001862 1_555
Li0 O1 2.001862 1_555
Li0 O10 2.042026 1_555
Li1 O9 2.073027 1_554
Li1 O7 2.073027 1_555
Li1 O2 2.085596 1_555
Li1 O6 2.085596 1_555
Li1 O13 2.085596 1_554
Li1 O8 2.085596 1_554
Li2 O2 1.950183 1_565
Li2 O6 1.950183 1_655
Li2 O7 1.963343 1_555
Li2 O4 2.056346 1_554
Li3 O28 2.043922 1_555
Li3 O11 2.044319 1_445
Li3 O12 2.085420 1_455
Li3 O21 2.085420 1_545
Li3 O17 2.096391 1_455
Li3 O25 2.096391 1_545
Li4 O11 1.913386 1_555
Li4 O23 2.010265 1_655
Li4 O34 2.010265 1_565
Li4 O20 2.033399 1_665
Li5 O12 1.929179 1_555
Li5 O21 1.929179 1_555
Li5 O22 2.011052 1_555
Li5 O15 2.012108 1_555
Li6 O8 1.950183 1_455
Li6 O13 1.950183 1_545
Li6 O9 1.963343 1_555
Li6 O14 2.056346 1_556
Li7 O17 1.941366 1_555
Li7 O25 1.941366 1_555
Li7 O26 1.971559 1_555
Li7 O19 2.014964 1_555
Li8 O27 1.913386 1_555
Li8 O29 2.010265 1_545
Li8 O24 2.010265 1_455
Li8 O30 2.033399 1_445
Li9 O28 1.934050 1_555
Li9 O16 2.001862 1_555
Li9 O5 2.001862 1_555
Li9 O18 2.042026 1_555
Li10 O37 1.941366 1_555
Li10 O33 1.941366 1_555
Li10 O36 1.971559 1_555
Li10 O32 2.014964 1_555
Li11 O38 1.929179 1_555
Li11 O39 1.929179 1_555
Li11 O31 2.011052 1_555
Li11 O3 2.012108 1_555
Li12 O35 2.043922 1_555
Li12 O27 2.044319 1_665
Li12 O39 2.085420 1_565
Li12 O38 2.085420 1_655
Li12 O33 2.096391 1_655
Li12 O37 2.096391 1_565
Mn0 O6 1.894834 1_555
Mn0 O2 1.894834 1_555
Mn0 O3 1.955618 1_555
Mn0 O1 1.961428 1_455
Mn0 O0 1.961428 1_545
Mn0 O14 1.974159 1_555
Mn1 O21 1.860132 1_655
Mn1 O12 1.860132 1_565
Mn1 O18 1.952197 1_665
Mn1 O22 1.956928 1_555
Mn1 O16 1.994412 1_655
Mn1 O5 1.994412 1_565
Mn2 O6 1.886963 1_555
Mn2 O7 1.889144 1_555
Mn2 O3 1.957074 1_555
Mn2 O0 1.966020 1_555
Mn2 O14 1.978175 1_565
Mn2 O10 1.983235 1_455
Mn3 O8 1.886963 1_555
Mn3 O9 1.889144 1_555
Mn3 O15 1.957074 1_555
Mn3 O5 1.966020 1_555
Mn3 O4 1.978175 1_545
Mn3 O18 1.983235 1_655
Mn4 O38 1.860132 1_545
Mn4 O39 1.860132 1_455
Mn4 O10 1.952197 1_445
Mn4 O31 1.956928 1_555
Mn4 O1 1.994412 1_455
Mn4 O0 1.994412 1_545
Mn5 O13 1.886963 1_555
Mn5 O9 1.889144 1_555
Mn5 O15 1.957074 1_555
Mn5 O16 1.966016 1_555
Mn5 O4 1.978175 1_455
Mn5 O18 1.983235 1_565
Mn6 O8 1.894834 1_555
Mn6 O13 1.894834 1_555
Mn6 O15 1.955618 1_555
Mn6 O5 1.961428 1_565
Mn6 O16 1.961433 1_655
Mn6 O4 1.974159 1_555
Mn7 O2 1.886963 1_555
Mn7 O7 1.889144 1_555
Mn7 O3 1.957074 1_555
Mn7 O1 1.966020 1_555
Mn7 O14 1.978175 1_655
Mn7 O10 1.983235 1_545
Mn8 O28 1.912063 1_555
Mn8 O11 1.913584 1_455
Mn8 O21 1.921340 1_555
Mn8 O17 1.935622 1_455
Mn8 O22 1.969065 1_455
Mn8 O19 1.973998 1_555
Mn9 O35 1.912063 1_555
Mn9 O27 1.913584 1_565
Mn9 O38 1.921340 1_555
Mn9 O37 1.935622 1_565
Mn9 O31 1.969065 1_565
Mn9 O32 1.973998 1_555
Mn10 O28 1.912063 1_555
Mn10 O11 1.913584 1_545
Mn10 O12 1.921340 1_555
Mn10 O25 1.935622 1_545
Mn10 O22 1.969065 1_545
Mn10 O19 1.973998 1_555
Mn11 O24 1.952368 1_455
Mn11 O23 1.952368 1_555
Mn11 O20 1.973444 1_555
Mn11 O30 1.973444 1_455
Mn11 O36 2.010830 1_555
Mn11 O26 2.010830 1_455
Mn12 O36 1.923049 1_555
Mn12 O26 1.923049 1_555
Mn12 O29 1.938538 1_555
Mn12 O24 1.938538 1_555
Mn12 O23 1.938538 1_555
Mn12 O34 1.938538 1_555
Mn13 O29 1.952368 1_545
Mn13 O34 1.952368 1_555
Mn13 O20 1.973444 1_555
Mn13 O30 1.973444 1_545
Mn13 O26 2.010830 1_545
Mn13 O36 2.010830 1_555
Mn14 O35 1.912063 1_555
Mn14 O27 1.913584 1_655
Mn14 O39 1.921340 1_555
Mn14 O33 1.935622 1_655
Mn14 O31 1.969065 1_655
Mn14 O32 1.973998 1_555
Mn15 O17 1.843554 1_455
Mn15 O25 1.843554 1_545
Mn15 O19 1.944448 1_555
Mn15 O20 1.969236 1_555
Mn15 O34 2.032027 1_555
Mn15 O23 2.032027 1_555
Mn16 O33 1.843554 1_655
Mn16 O37 1.843554 1_565
Mn16 O32 1.944448 1_555
Mn16 O30 1.969236 1_555
Mn16 O24 2.032027 1_555
Mn16 O29 2.032027 1_555
