# generated using pymatgen
data_Li2(FeO2)3
_symmetry_space_group_name_H-M   'P 1'
_cell_length_a   5.12841800
_cell_length_b   5.13666031
_cell_length_c   10.51394261
_cell_angle_alpha   90.61461054
_cell_angle_beta   103.72342653
_cell_angle_gamma   119.40952823
_symmetry_Int_Tables_number   1
_chemical_formula_structural   Li2(FeO2)3
_chemical_formula_sum   'Li4 Fe6 O12'
_cell_volume   231.72428366
_cell_formula_units_Z   2
loop_
 _symmetry_equiv_pos_site_id
 _symmetry_equiv_pos_as_xyz
  1  'x, y, z'
loop_
 _atom_site_type_symbol
 _atom_site_label
 _atom_site_symmetry_multiplicity
 _atom_site_fract_x
 _atom_site_fract_y
 _atom_site_fract_z
 _atom_site_occupancy
  Li  Li0  1  0.84684400  0.25484500  0.74176300  1
  Li  Li1  1  0.51205300  0.42636200  0.24172700  1
  Li  Li2  1  0.15616700  0.75820600  0.24343900  1
  Li  Li3  1  0.16582700  0.92380200  0.74325100  1
  Fe  Fe0  1  0.98008400  0.16161400  0.48192800  1
  Fe  Fe1  1  0.00315600  0.33389900  0.00727300  1
  Fe  Fe2  1  0.66979300  0.49946900  0.50769000  1
  Fe  Fe3  1  0.65228100  0.65223600  0.98178400  1
  Fe  Fe4  1  0.33444100  0.83140500  0.50660000  1
  Fe  Fe5  1  0.34072000  0.99864600  0.00720100  1
  O  O0  1  0.08893200  0.03182500  0.10729300  1
  O  O1  1  0.39271600  0.17446800  0.60662200  1
  O  O2  1  0.57617200  0.13304600  0.38912800  1
  O  O3  1  0.24368400  0.27302900  0.89039100  1
  O  O4  1  0.73746000  0.38681000  0.10724900  1
  O  O5  1  0.05922100  0.52913300  0.61036300  1
  O  O6  1  0.27665500  0.49032500  0.39857000  1
  O  O7  1  0.94079600  0.62624400  0.89023200  1
  O  O8  1  0.40229500  0.69478600  0.10823600  1
  O  O9  1  0.74001500  0.88404300  0.60479900  1
  O  O10  1  0.93785300  0.78583300  0.39393100  1
  O  O11  1  0.58772900  0.97241800  0.89745800  1
loop_
_geom_bond_atom_site_label_1
_geom_bond_atom_site_label_2
_geom_bond_distance
_geom_bond_site_symmetry_2
Li0 O5 2.080527 1_655
Li0 O9 2.131588 1_545
Li0 O3 2.212185 1_655
Li0 O7 2.232683 1_555
Li0 O1 2.255294 1_555
Li0 O11 2.395808 1_545
Li1 O4 2.092043 1_555
Li1 O8 2.148647 1_555
Li1 O0 2.231140 1_555
Li1 O10 2.248876 1_555
Li1 O2 2.252733 1_555
Li1 O6 2.367936 1_555
Li2 O0 2.104331 1_565
Li2 O4 2.181760 1_455
Li2 O10 2.183797 1_455
Li2 O8 2.228306 1_555
Li2 O2 2.234133 1_565
Li2 O6 2.310954 1_555
Li3 O1 2.106354 1_565
Li3 O3 2.171310 1_565
Li3 O5 2.202081 1_555
Li3 O9 2.230874 1_455
Li3 O11 2.273501 1_555
Li3 O7 2.284870 1_455
Fe0 O2 2.000947 1_555
Fe0 O6 2.018524 1_655
Fe0 O10 2.021099 1_545
Fe0 O9 2.070690 1_545
Fe0 O5 2.117752 1_655
Fe0 O1 2.178491 1_655
Fe1 O8 1.988327 1_555
Fe1 O4 2.018068 1_455
Fe1 O0 2.047649 1_555
Fe1 O7 2.048454 1_454
Fe1 O3 2.054093 1_554
Fe1 O11 2.054648 1_444
Fe2 O5 1.962607 1_655
Fe2 O2 2.026139 1_555
Fe2 O9 2.039127 1_555
Fe2 O6 2.047378 1_555
Fe2 O1 2.072890 1_555
Fe2 O10 2.077513 1_555
Fe3 O7 2.000170 1_555
Fe3 O11 2.006818 1_555
Fe3 O3 2.025913 1_555
Fe3 O4 2.034673 1_556
Fe3 O8 2.129942 1_556
Fe3 O0 2.193704 1_666
Fe4 O1 1.895911 1_565
Fe4 O6 1.932652 1_555
Fe4 O9 1.971818 1_555
Fe4 O10 1.994495 1_455
Fe4 O5 2.051296 1_555
Fe4 O2 2.084259 1_565
Fe5 O0 1.913357 1_565
Fe5 O11 1.952421 1_554
Fe5 O8 2.006189 1_555
Fe5 O4 2.043801 1_565
Fe5 O3 2.044108 1_564
Fe5 O7 2.068288 1_454
