# generated using pymatgen
data_LiCoPO4
_symmetry_space_group_name_H-M   'P 1'
_cell_length_a   5.45344238
_cell_length_b   10.62695735
_cell_length_c   6.15318403
_cell_angle_alpha   89.98778717
_cell_angle_beta   89.92500932
_cell_angle_gamma   75.90322514
_symmetry_Int_Tables_number   1
_chemical_formula_structural   LiCoPO4
_chemical_formula_sum   'Li4 Co4 P4 O16'
_cell_volume   345.85954369
_cell_formula_units_Z   4
loop_
 _symmetry_equiv_pos_site_id
 _symmetry_equiv_pos_as_xyz
  1  'x, y, z'
loop_
 _atom_site_type_symbol
 _atom_site_label
 _atom_site_symmetry_multiplicity
 _atom_site_fract_x
 _atom_site_fract_y
 _atom_site_fract_z
 _atom_site_occupancy
  Li  Li0  1  0.26958800  0.29790100  0.53265300  1
  Li  Li1  1  0.22879100  0.20065600  0.03188300  1
  Li  Li2  1  0.77099600  0.79930700  0.96823100  1
  Li  Li3  1  0.73001400  0.70181000  0.46768400  1
  Co  Co0  1  0.36476600  0.59862300  0.16792600  1
  Co  Co1  1  0.63496800  0.40143100  0.83177200  1
  Co  Co2  1  0.13582100  0.90154900  0.66796700  1
  Co  Co3  1  0.86315100  0.09857400  0.33211000  1
  P  P0  1  0.23504800  0.64001000  0.65709900  1
  P  P1  1  0.26555600  0.86034900  0.15733100  1
  P  P2  1  0.73482900  0.13972500  0.84277900  1
  P  P3  1  0.76486100  0.35997900  0.34286900  1
  O  O0  1  0.97155700  0.73937400  0.68979300  1
  O  O1  1  0.47101500  0.23882400  0.81107800  1
  O  O2  1  0.52924800  0.76109700  0.18905500  1
  O  O3  1  0.02848500  0.26081000  0.30953200  1
  O  O4  1  0.07311400  0.77482400  0.14454300  1
  O  O5  1  0.57275400  0.27411100  0.35664800  1
  O  O6  1  0.42748200  0.72566300  0.64395500  1
  O  O7  1  0.92701100  0.22540600  0.85490800  1
  O  O8  1  0.22792100  0.55665900  0.45287100  1
  O  O9  1  0.27225200  0.94366100  0.95285300  1
  O  O10  1  0.72907100  0.05630800  0.04729200  1
  O  O11  1  0.77175500  0.44356600  0.54682300  1
  O  O12  1  0.30261800  0.54529100  0.85659500  1
  O  O13  1  0.19773500  0.95517300  0.35675400  1
  O  O14  1  0.80283900  0.04473100  0.64366800  1
  O  O15  1  0.69675300  0.45459000  0.14332800  1
loop_
_geom_bond_atom_site_label_1
_geom_bond_atom_site_label_2
_geom_bond_distance
_geom_bond_site_symmetry_2
Li0 O5 1.939589 1_555
Li0 O3 2.006602 1_555
Li0 O1 2.050456 1_555
Li1 O7 1.938346 1_454
Li1 O1 2.002859 1_554
Li1 O3 2.043535 1_555
Li2 O4 1.937765 1_656
Li2 O2 2.001263 1_556
Li2 O0 2.047801 1_555
Li3 O6 1.937617 1_555
Li3 O0 2.005835 1_555
Li3 O2 2.050237 1_555
Co0 O8 1.997069 1_555
Co0 O12 2.049788 1_554
Co0 O15 2.071966 1_555
Co0 O2 2.134828 1_555
Co0 O4 2.146239 1_555
Co1 O11 1.997527 1_555
Co1 O15 2.050039 1_556
Co1 O12 2.072474 1_555
Co1 O1 2.134174 1_555
Co1 O7 2.145972 1_555
Co2 O9 1.998158 1_555
Co2 O13 2.048744 1_555
Co2 O14 2.071171 1_465
Co2 O0 2.131274 1_455
Co2 O6 2.143984 1_555
Co3 O10 1.992851 1_555
Co3 O14 2.049465 1_555
Co3 O13 2.078641 1_645
Co3 O3 2.135763 1_655
Co3 O5 2.137998 1_555
O0 P0 1.574951 1_655
O1 P2 1.574660 1_555
O2 P1 1.574905 1_555
O3 P3 1.575073 1_455
O4 P1 1.548711 1_555
O5 P3 1.550113 1_555
O6 P0 1.549650 1_555
O7 P2 1.548590 1_555
O8 P0 1.543581 1_555
O9 P1 1.543820 1_556
O10 P2 1.543820 1_554
O11 P3 1.543455 1_555
O12 P0 1.573467 1_555
O13 P1 1.573456 1_555
O14 P2 1.573096 1_555
O15 P3 1.573251 1_555
