# generated using pymatgen
data_Ti17(NO4)6
_symmetry_space_group_name_H-M   'P 1'
_cell_length_a   10.39777700
_cell_length_b   11.30154485
_cell_length_c   11.47914304
_cell_angle_alpha   99.74432534
_cell_angle_beta   111.59773247
_cell_angle_gamma   109.62832581
_symmetry_Int_Tables_number   1
_chemical_formula_structural   Ti17(NO4)6
_chemical_formula_sum   'Ti34 N12 O48'
_cell_volume   1113.30836956
_cell_formula_units_Z   2
loop_
 _symmetry_equiv_pos_site_id
 _symmetry_equiv_pos_as_xyz
  1  'x, y, z'
loop_
 _atom_site_type_symbol
 _atom_site_label
 _atom_site_symmetry_multiplicity
 _atom_site_fract_x
 _atom_site_fract_y
 _atom_site_fract_z
 _atom_site_occupancy
  Ti  Ti0  1  0.14746000  0.57164600  0.64456300  1
  Ti  Ti1  1  0.17463900  0.07247100  0.57096000  1
  Ti  Ti2  1  0.07274700  0.74830900  0.48342800  1
  Ti  Ti3  1  0.64597200  0.57660600  0.64926800  1
  Ti  Ti4  1  0.67692400  0.07206400  0.57094900  1
  Ti  Ti5  1  0.42772200  0.25065800  0.51973800  1
  Ti  Ti6  1  0.17893200  0.07644000  0.23401300  1
  Ti  Ti7  1  0.32307600  0.92793600  0.42905100  1
  Ti  Ti8  1  0.14743500  0.57257000  0.31124400  1
  Ti  Ti9  1  0.35402800  0.42339400  0.35073200  1
  Ti  Ti10  1  0.57227800  0.74934200  0.48026200  1
  Ti  Ti11  1  0.92725300  0.25169100  0.51657200  1
  Ti  Ti12  1  0.07144600  0.75027800  0.14692400  1
  Ti  Ti13  1  0.67210900  0.07005900  0.23546100  1
  Ti  Ti14  1  0.64066700  0.55285700  0.30559500  1
  Ti  Ti15  1  0.85254000  0.42835400  0.35543700  1
  Ti  Ti16  1  0.82536100  0.92752900  0.42904000  1
  Ti  Ti17  1  0.17940600  0.07705300  0.91022900  1
  Ti  Ti18  1  0.92850900  0.24927400  0.18366400  1
  Ti  Ti19  1  0.14820600  0.57461600  0.97846700  1
  Ti  Ti20  1  0.33421800  0.94274900  0.10163100  1
  Ti  Ti21  1  0.35330700  0.42333500  0.02603700  1
  Ti  Ti22  1  0.57246900  0.74920200  0.15092500  1
  Ti  Ti23  1  0.07149100  0.75072600  0.81633600  1
  Ti  Ti24  1  0.82059400  0.92294700  0.08977100  1
  Ti  Ti25  1  0.64669300  0.57666500  0.97396300  1
  Ti  Ti26  1  0.42753100  0.25079800  0.84907500  1
  Ti  Ti27  1  0.66578200  0.05725100  0.89836900  1
  Ti  Ti28  1  0.85179400  0.42538400  0.02153300  1
  Ti  Ti29  1  0.32789100  0.92994100  0.76453900  1
  Ti  Ti30  1  0.35933300  0.44714300  0.69440500  1
  Ti  Ti31  1  0.92855400  0.24972200  0.85307600  1
  Ti  Ti32  1  0.82106800  0.92356000  0.76598700  1
  Ti  Ti33  1  0.85256500  0.42743000  0.68875600  1
  N  N0  1  0.35213000  0.24936200  0.65835000  1
  N  N1  1  0.85565100  0.24977300  0.66136200  1
  N  N2  1  0.14434900  0.75022700  0.33863800  1
  N  N3  1  0.34534700  0.25046000  0.33807100  1
  N  N4  1  0.64787000  0.75063800  0.34165000  1
  N  N5  1  0.85786700  0.24983400  0.32619800  1
  N  N6  1  0.14456800  0.75082900  0.00649200  1
  N  N7  1  0.34559600  0.25059700  0.97675700  1
  N  N8  1  0.85543200  0.24917100  0.99350800  1
  N  N9  1  0.65440400  0.74940300  0.02324300  1
  N  N10  1  0.14213300  0.75016600  0.67380200  1
  N  N11  1  0.65465300  0.74954000  0.66192900  1
  O  O0  1  0.13984700  0.37728200  0.60979600  1
  O  O1  1  0.01017000  0.11782000  0.52273600  1
  O  O2  1  0.40939200  0.43817800  0.54457900  1
  O  O3  1  0.27998100  0.93562500  0.58255200  1
  O  O4  1  0.22218400  0.06347200  0.41983200  1
  O  O5  1  0.64310900  0.37957800  0.60863200  1
  O  O6  1  0.09686700  0.56500700  0.45980200  1
  O  O7  1  0.51198500  0.11848500  0.52402700  1
  O  O8  1  0.48801500  0.88151500  0.47597300  1
  O  O9  1  0.90313300  0.43499300  0.54019800  1
  O  O10  1  0.01242900  0.11983700  0.19282400  1
  O  O11  1  0.35689100  0.62042200  0.39136800  1
  O  O12  1  0.77781600  0.93652800  0.58016800  1
  O  O13  1  0.59060800  0.56182200  0.45542100  1
  O  O14  1  0.72001900  0.06437500  0.41744800  1
  O  O15  1  0.14289500  0.38182700  0.27678300  1
  O  O16  1  0.40040600  0.44869000  0.20831300  1
  O  O17  1  0.28044700  0.93827800  0.24943000  1
  O  O18  1  0.20182700  0.05230900  0.07612400  1
  O  O19  1  0.09527600  0.56421600  0.12520900  1
  O  O20  1  0.65134100  0.38924000  0.28185300  1
  O  O21  1  0.98983000  0.88218000  0.47726400  1
  O  O22  1  0.51156700  0.10915000  0.18847300  1
  O  O23  1  0.86015300  0.62271800  0.39020400  1
  O  O24  1  0.14183700  0.38095700  0.94539100  1
  O  O25  1  0.48756300  0.87709500  0.14219600  1
  O  O26  1  0.59090700  0.56167000  0.12567200  1
  O  O27  1  0.01134000  0.11922800  0.85496000  1
  O  O28  1  0.35633800  0.61890400  0.05263600  1
  O  O29  1  0.90717500  0.43659800  0.20779900  1
  O  O30  1  0.77982600  0.93391200  0.25099100  1
  O  O31  1  0.72065400  0.06142800  0.08319800  1
  O  O32  1  0.85816300  0.61904300  0.05460900  1
  O  O33  1  0.09282500  0.56340200  0.79220100  1
  O  O34  1  0.98866000  0.88077200  0.14504000  1
  O  O35  1  0.27934600  0.93857200  0.91680200  1
  O  O36  1  0.51243700  0.12290500  0.85780400  1
  O  O37  1  0.40909300  0.43833000  0.87432800  1
  O  O38  1  0.22017400  0.06608800  0.74900900  1
  O  O39  1  0.64366200  0.38109600  0.94736400  1
  O  O40  1  0.34865900  0.61076000  0.71814700  1
  O  O41  1  0.71955300  0.06172200  0.75057000  1
  O  O42  1  0.48843300  0.89085000  0.81152700  1
  O  O43  1  0.79817300  0.94769100  0.92387600  1
  O  O44  1  0.59959400  0.55131000  0.79168700  1
  O  O45  1  0.90472400  0.43578400  0.87479100  1
  O  O46  1  0.98757100  0.88016300  0.80717600  1
  O  O47  1  0.85710500  0.61817300  0.72321700  1
loop_
_geom_bond_atom_site_label_1
_geom_bond_atom_site_label_2
_geom_bond_distance
_geom_bond_site_symmetry_2
N0 Ti1 1.971890 1_555
N0 Ti5 2.017567 1_555
N0 Ti26 2.030769 1_555
N0 Ti30 2.173641 1_555
N1 Ti4 1.982757 1_555
N1 Ti33 1.992024 1_555
N1 Ti31 2.047041 1_555
N1 Ti11 2.056579 1_555
N2 Ti7 1.982757 1_555
N2 Ti8 1.992024 1_555
N2 Ti12 2.047041 1_555
N2 Ti2 2.056579 1_555
N3 Ti9 1.903865 1_555
N3 Ti6 1.919818 1_555
N3 Ti5 1.940269 1_555
N4 Ti16 1.971890 1_555
N4 Ti10 2.017567 1_555
N4 Ti22 2.030769 1_555
N4 Ti14 2.173641 1_555
N5 Ti15 2.011411 1_555
N5 Ti18 2.025082 1_555
N5 Ti13 2.027216 1_555
N5 Ti11 2.027373 1_555
N6 Ti19 1.978286 1_554
N6 Ti12 2.019723 1_555
N6 Ti23 2.029685 1_554
N6 Ti20 2.127207 1_555
N7 Ti21 1.903989 1_556
N7 Ti17 1.913245 1_555
N7 Ti26 1.947588 1_555
N8 Ti28 1.978286 1_556
N8 Ti31 2.019723 1_555
N8 Ti18 2.029685 1_556
N8 Ti27 2.127207 1_555
N9 Ti25 1.903989 1_554
N9 Ti24 1.913245 1_555
N9 Ti22 1.947588 1_555
N10 Ti0 2.011411 1_555
N10 Ti23 2.025082 1_555
N10 Ti29 2.027216 1_555
N10 Ti2 2.027373 1_555
N11 Ti3 1.903865 1_555
N11 Ti32 1.919818 1_555
N11 Ti10 1.940269 1_555
O0 Ti30 1.916528 1_555
O0 Ti11 1.919017 1_455
O0 Ti0 2.133970 1_555
O1 Ti1 1.865892 1_555
O1 Ti11 1.976105 1_455
O1 Ti16 2.096062 1_445
O2 Ti30 1.968406 1_555
O2 Ti9 2.043850 1_555
O2 Ti3 2.131822 1_555
O2 Ti5 2.171574 1_555
O3 Ti7 1.966922 1_555
O3 Ti29 1.979202 1_555
O3 Ti1 2.170200 1_565
O3 Ti2 2.175846 1_555
O4 Ti1 1.967170 1_555
O4 Ti6 2.053657 1_555
O4 Ti7 2.123849 1_545
O4 Ti5 2.166769 1_555
O5 Ti33 1.856680 1_555
O5 Ti5 1.949826 1_555
O5 Ti3 2.184126 1_555
O6 Ti8 1.967515 1_555
O6 Ti0 1.969474 1_555
O6 Ti2 2.153346 1_555
O6 Ti15 2.184385 1_455
O7 Ti4 1.877942 1_555
O7 Ti5 1.968192 1_555
O7 Ti7 2.114543 1_545
O8 Ti7 1.877942 1_555
O8 Ti10 1.968192 1_555
O8 Ti4 2.114543 1_565
O9 Ti33 1.967515 1_555
O9 Ti15 1.969474 1_555
O9 Ti11 2.153346 1_555
O9 Ti0 2.184385 1_655
O10 Ti6 1.872888 1_555
O10 Ti18 1.937636 1_455
O10 Ti24 2.172415 1_445
O11 Ti8 1.856680 1_555
O11 Ti10 1.949826 1_555
O11 Ti9 2.184126 1_555
O12 Ti16 1.967170 1_555
O12 Ti32 2.053657 1_555
O12 Ti4 2.123849 1_565
O12 Ti10 2.166769 1_555
O13 Ti14 1.968406 1_555
O13 Ti3 2.043850 1_555
O13 Ti9 2.131822 1_555
O13 Ti10 2.171574 1_555
O14 Ti4 1.966922 1_555
O14 Ti13 1.979202 1_555
O14 Ti16 2.170200 1_545
O14 Ti11 2.175846 1_555
O15 Ti9 1.887043 1_555
O15 Ti18 1.953490 1_455
O15 Ti8 2.105930 1_555
O16 Ti9 1.906035 1_555
O16 Ti21 1.910073 1_555
O16 Ti14 2.097440 1_555
O17 Ti20 1.975340 1_555
O17 Ti7 1.976136 1_555
O17 Ti6 2.155662 1_565
O17 Ti12 2.188756 1_555
O18 Ti6 1.899969 1_555
O18 Ti17 1.912137 1_554
O18 Ti20 2.117766 1_545
O19 Ti19 1.964736 1_554
O19 Ti8 1.976924 1_555
O19 Ti12 2.182505 1_555
O19 Ti28 2.183733 1_455
O20 Ti15 1.799131 1_555
O20 Ti14 1.869602 1_555
O21 Ti16 1.865892 1_555
O21 Ti2 1.976105 1_655
O21 Ti1 2.096062 1_665
O22 Ti13 1.784906 1_555
O22 Ti20 1.900819 1_545
O23 Ti14 1.916528 1_555
O23 Ti2 1.919017 1_655
O23 Ti15 2.133970 1_555
O24 Ti21 1.888141 1_556
O24 Ti31 1.941372 1_455
O24 Ti19 2.131088 1_555
O25 Ti20 1.916989 1_555
O25 Ti22 1.928671 1_555
O25 Ti13 2.114242 1_565
O26 Ti14 1.964920 1_555
O26 Ti25 2.043397 1_554
O26 Ti21 2.139032 1_555
O26 Ti22 2.172227 1_555
O27 Ti17 1.878636 1_555
O27 Ti31 1.940718 1_455
O27 Ti32 2.157776 1_445
O28 Ti19 1.852129 1_554
O28 Ti22 1.959446 1_555
O28 Ti21 2.167262 1_555
O29 Ti28 1.967808 1_555
O29 Ti15 1.982487 1_555
O29 Ti8 2.152135 1_655
O29 Ti18 2.184050 1_555
O30 Ti16 1.940918 1_555
O30 Ti24 2.038430 1_555
O30 Ti22 2.160330 1_555
O30 Ti13 2.181144 1_565
O31 Ti27 1.971325 1_554
O31 Ti13 1.985982 1_555
O31 Ti24 2.147041 1_545
O31 Ti18 2.182129 1_555
O32 Ti25 1.888141 1_554
O32 Ti12 1.941372 1_655
O32 Ti28 2.131088 1_555
O33 Ti19 1.967808 1_555
O33 Ti0 1.982487 1_555
O33 Ti33 2.152135 1_455
O33 Ti23 2.184050 1_555
O34 Ti24 1.878636 1_555
O34 Ti12 1.940718 1_655
O34 Ti6 2.157776 1_665
O35 Ti20 1.971325 1_556
O35 Ti29 1.985982 1_555
O35 Ti17 2.147041 1_565
O35 Ti23 2.182129 1_555
O36 Ti27 1.916989 1_555
O36 Ti26 1.928671 1_555
O36 Ti29 2.114242 1_545
O37 Ti30 1.964920 1_555
O37 Ti21 2.043397 1_556
O37 Ti25 2.139032 1_555
O37 Ti26 2.172227 1_555
O38 Ti1 1.940918 1_555
O38 Ti17 2.038430 1_555
O38 Ti26 2.160330 1_555
O38 Ti29 2.181144 1_545
O39 Ti28 1.852129 1_556
O39 Ti26 1.959446 1_555
O39 Ti25 2.167262 1_555
O40 Ti0 1.799131 1_555
O40 Ti30 1.869602 1_555
O41 Ti27 1.975340 1_555
O41 Ti4 1.976136 1_555
O41 Ti32 2.155662 1_545
O41 Ti31 2.188756 1_555
O42 Ti29 1.784906 1_555
O42 Ti27 1.900819 1_565
O43 Ti32 1.899969 1_555
O43 Ti24 1.912137 1_556
O43 Ti27 2.117766 1_565
O44 Ti3 1.906035 1_555
O44 Ti25 1.910073 1_555
O44 Ti30 2.097440 1_555
O45 Ti28 1.964736 1_556
O45 Ti33 1.976924 1_555
O45 Ti31 2.182505 1_555
O45 Ti19 2.183733 1_655
O46 Ti32 1.872888 1_555
O46 Ti23 1.937636 1_655
O46 Ti17 2.172415 1_665
O47 Ti3 1.887043 1_555
O47 Ti23 1.953490 1_655
O47 Ti33 2.105930 1_555
