# generated using pymatgen
data_Li3Nd2H6(N3O10)3
_symmetry_space_group_name_H-M   'P 1'
_cell_length_a   13.47833000
_cell_length_b   13.47833000
_cell_length_c   13.47833000
_cell_angle_alpha   90.00000000
_cell_angle_beta   90.00000000
_cell_angle_gamma   90.00000000
_symmetry_Int_Tables_number   1
_chemical_formula_structural   Li3Nd2H6(N3O10)3
_chemical_formula_sum   'Li12 Nd8 H24 N36 O120'
_cell_volume   2448.54593567
_cell_formula_units_Z   4
loop_
 _symmetry_equiv_pos_site_id
 _symmetry_equiv_pos_as_xyz
  1  'x, y, z'
loop_
 _atom_site_type_symbol
 _atom_site_label
 _atom_site_symmetry_multiplicity
 _atom_site_fract_x
 _atom_site_fract_y
 _atom_site_fract_z
 _atom_site_occupancy
  Li  Li0  1  0.20128700  0.94946300  0.77755400  1
  Li  Li1  1  0.22244600  0.70128700  0.55053700  1
  Li  Li2  1  0.44946300  0.72244600  0.79871300  1
  Li  Li3  1  0.70128700  0.55053700  0.22244600  1
  Li  Li4  1  0.72244600  0.79871300  0.44946300  1
  Li  Li5  1  0.94946300  0.77755400  0.20128700  1
  Li  Li6  1  0.79871300  0.44946300  0.72244600  1
  Li  Li7  1  0.77755400  0.20128700  0.94946300  1
  Li  Li8  1  0.55053700  0.22244600  0.70128700  1
  Li  Li9  1  0.29871300  0.05053700  0.27755400  1
  Li  Li10  1  0.27755400  0.29871300  0.05053700  1
  Li  Li11  1  0.05053700  0.27755400  0.29871300  1
  Nd  Nd0  1  0.03423300  0.53423300  0.96576700  1
  Nd  Nd1  1  0.53423300  0.96576700  0.03423300  1
  Nd  Nd2  1  0.96576700  0.03423300  0.53423300  1
  Nd  Nd3  1  0.46576700  0.46576700  0.46576700  1
  Nd  Nd4  1  0.77855400  0.77855400  0.77855400  1
  Nd  Nd5  1  0.22144600  0.27855400  0.72144600  1
  Nd  Nd6  1  0.27855400  0.72144600  0.22144600  1
  Nd  Nd7  1  0.72144600  0.22144600  0.27855400  1
  H  H0  1  0.86302500  0.48708100  0.53307500  1
  H  H1  1  0.46692500  0.36302500  0.01291900  1
  H  H2  1  0.98708100  0.96692500  0.13697500  1
  H  H3  1  0.36302500  0.01291900  0.46692500  1
  H  H4  1  0.96692500  0.13697500  0.98708100  1
  H  H5  1  0.48708100  0.53307500  0.86302500  1
  H  H6  1  0.13697500  0.98708100  0.96692500  1
  H  H7  1  0.53307500  0.86302500  0.48708100  1
  H  H8  1  0.01291900  0.46692500  0.36302500  1
  H  H9  1  0.63697500  0.51291900  0.03307500  1
  H  H10  1  0.03307500  0.63697500  0.51291900  1
  H  H11  1  0.51291900  0.03307500  0.63697500  1
  H  H12  1  0.05735400  0.94908100  0.89167500  1
  H  H13  1  0.10832500  0.55735400  0.55091900  1
  H  H14  1  0.44908100  0.60832500  0.94264600  1
  H  H15  1  0.55735400  0.55091900  0.10832500  1
  H  H16  1  0.60832500  0.94264600  0.44908100  1
  H  H17  1  0.94908100  0.89167500  0.05735400  1
  H  H18  1  0.94264600  0.44908100  0.60832500  1
  H  H19  1  0.89167500  0.05735400  0.94908100  1
  H  H20  1  0.55091900  0.10832500  0.55735400  1
  H  H21  1  0.44264600  0.05091900  0.39167500  1
  H  H22  1  0.39167500  0.44264600  0.05091900  1
  H  H23  1  0.05091900  0.39167500  0.44264600  1
  N  N0  1  0.23612400  0.62644000  0.01291900  1
  N  N1  1  0.98708100  0.73612400  0.87356000  1
  N  N2  1  0.12644000  0.48708100  0.76387600  1
  N  N3  1  0.73612400  0.87356000  0.98708100  1
  N  N4  1  0.48708100  0.76387600  0.12644000  1
  N  N5  1  0.62644000  0.01291900  0.23612400  1
  N  N6  1  0.76387600  0.12644000  0.48708100  1
  N  N7  1  0.01291900  0.23612400  0.62644000  1
  N  N8  1  0.87356000  0.98708100  0.73612400  1
  N  N9  1  0.26387600  0.37356000  0.51291900  1
  N  N10  1  0.51291900  0.26387600  0.37356000  1
  N  N11  1  0.37356000  0.51291900  0.26387600  1
  N  N12  1  0.38930400  0.60464300  0.62684700  1
  N  N13  1  0.37315300  0.88930400  0.89535700  1
  N  N14  1  0.10464300  0.87315300  0.61069600  1
  N  N15  1  0.88930400  0.89535700  0.37315300  1
  N  N16  1  0.87315300  0.61069600  0.10464300  1
  N  N17  1  0.60464300  0.62684700  0.38930400  1
  N  N18  1  0.61069600  0.10464300  0.87315300  1
  N  N19  1  0.62684700  0.38930400  0.60464300  1
  N  N20  1  0.89535700  0.37315300  0.88930400  1
  N  N21  1  0.11069600  0.39535700  0.12684700  1
  N  N22  1  0.12684700  0.11069600  0.39535700  1
  N  N23  1  0.39535700  0.12684700  0.11069600  1
  N  N24  1  0.70988200  0.58157100  0.85171400  1
  N  N25  1  0.14828600  0.20988200  0.91842900  1
  N  N26  1  0.08157100  0.64828600  0.29011800  1
  N  N27  1  0.20988200  0.91842900  0.14828600  1
  N  N28  1  0.64828600  0.29011800  0.08157100  1
  N  N29  1  0.58157100  0.85171400  0.70988200  1
  N  N30  1  0.29011800  0.08157100  0.64828600  1
  N  N31  1  0.85171400  0.70988200  0.58157100  1
  N  N32  1  0.91842900  0.14828600  0.20988200  1
  N  N33  1  0.79011800  0.41842900  0.35171400  1
  N  N34  1  0.35171400  0.79011800  0.41842900  1
  N  N35  1  0.41842900  0.35171400  0.79011800  1
  O  O0  1  0.87260900  0.92111000  0.66700300  1
  O  O1  1  0.33299700  0.37260900  0.57889000  1
  O  O2  1  0.42111000  0.83299700  0.12739100  1
  O  O3  1  0.37260900  0.57889000  0.33299700  1
  O  O4  1  0.83299700  0.12739100  0.42111000  1
  O  O5  1  0.92111000  0.66700300  0.87260900  1
  O  O6  1  0.12739100  0.42111000  0.83299700  1
  O  O7  1  0.66700300  0.87260900  0.92111000  1
  O  O8  1  0.57889000  0.33299700  0.37260900  1
  O  O9  1  0.62739100  0.07889000  0.16700300  1
  O  O10  1  0.16700300  0.62739100  0.07889000  1
  O  O11  1  0.07889000  0.16700300  0.62739100  1
  O  O12  1  0.22054700  0.58319100  0.93212700  1
  O  O13  1  0.06787300  0.72054700  0.91680900  1
  O  O14  1  0.08319100  0.56787300  0.77945300  1
  O  O15  1  0.72054700  0.91680900  0.06787300  1
  O  O16  1  0.56787300  0.77945300  0.08319100  1
  O  O17  1  0.58319100  0.93212700  0.22054700  1
  O  O18  1  0.77945300  0.08319100  0.56787300  1
  O  O19  1  0.93212700  0.22054700  0.58319100  1
  O  O20  1  0.91680900  0.06787300  0.72054700  1
  O  O21  1  0.27945300  0.41680900  0.43212700  1
  O  O22  1  0.43212700  0.27945300  0.41680900  1
  O  O23  1  0.41680900  0.43212700  0.27945300  1
  O  O24  1  0.83152700  0.96739400  0.81727900  1
  O  O25  1  0.18272100  0.33152700  0.53260600  1
  O  O26  1  0.46739400  0.68272100  0.16847300  1
  O  O27  1  0.33152700  0.53260600  0.18272100  1
  O  O28  1  0.68272100  0.16847300  0.46739400  1
  O  O29  1  0.96739400  0.81727900  0.83152700  1
  O  O30  1  0.16847300  0.46739400  0.68272100  1
  O  O31  1  0.81727900  0.83152700  0.96739400  1
  O  O32  1  0.53260600  0.18272100  0.33152700  1
  O  O33  1  0.66847300  0.03260600  0.31727900  1
  O  O34  1  0.31727900  0.66847300  0.03260600  1
  O  O35  1  0.03260600  0.31727900  0.66847300  1
  O  O36  1  0.34047900  0.59252000  0.54530400  1
  O  O37  1  0.45469600  0.84047900  0.90748000  1
  O  O38  1  0.09252000  0.95469600  0.65952100  1
  O  O39  1  0.84047900  0.90748000  0.45469600  1
  O  O40  1  0.95469600  0.65952100  0.09252000  1
  O  O41  1  0.59252000  0.54530400  0.34047900  1
  O  O42  1  0.65952100  0.09252000  0.95469600  1
  O  O43  1  0.54530400  0.34047900  0.59252000  1
  O  O44  1  0.90748000  0.45469600  0.84047900  1
  O  O45  1  0.15952100  0.40748000  0.04530400  1
  O  O46  1  0.04530400  0.15952100  0.40748000  1
  O  O47  1  0.40748000  0.04530400  0.15952100  1
  O  O48  1  0.05096700  0.85977900  0.53482400  1
  O  O49  1  0.46517600  0.55096700  0.64022100  1
  O  O50  1  0.35977900  0.96517600  0.94903300  1
  O  O51  1  0.55096700  0.64022100  0.46517600  1
  O  O52  1  0.96517600  0.94903300  0.35977900  1
  O  O53  1  0.85977900  0.53482400  0.05096700  1
  O  O54  1  0.94903300  0.35977900  0.96517600  1
  O  O55  1  0.53482400  0.05096700  0.85977900  1
  O  O56  1  0.64022100  0.46517600  0.55096700  1
  O  O57  1  0.44903300  0.14022100  0.03482400  1
  O  O58  1  0.03482400  0.44903300  0.14022100  1
  O  O59  1  0.14022100  0.03482400  0.44903300  1
  O  O60  1  0.36035700  0.66814600  0.68787200  1
  O  O61  1  0.31212800  0.86035700  0.83185400  1
  O  O62  1  0.16814600  0.81212800  0.63964300  1
  O  O63  1  0.86035700  0.83185400  0.31212800  1
  O  O64  1  0.81212800  0.63964300  0.16814600  1
  O  O65  1  0.66814600  0.68787200  0.36035700  1
  O  O66  1  0.63964300  0.16814600  0.81212800  1
  O  O67  1  0.68787200  0.36035700  0.66814600  1
  O  O68  1  0.83185400  0.31212800  0.86035700  1
  O  O69  1  0.13964300  0.33185400  0.18787200  1
  O  O70  1  0.18787200  0.13964300  0.33185400  1
  O  O71  1  0.33185400  0.18787200  0.13964300  1
  O  O72  1  0.70438000  0.66158000  0.90167600  1
  O  O73  1  0.09832400  0.20438000  0.83842000  1
  O  O74  1  0.16158000  0.59832400  0.29562000  1
  O  O75  1  0.20438000  0.83842000  0.09832400  1
  O  O76  1  0.59832400  0.29562000  0.16158000  1
  O  O77  1  0.66158000  0.90167600  0.70438000  1
  O  O78  1  0.29562000  0.16158000  0.59832400  1
  O  O79  1  0.90167600  0.70438000  0.66158000  1
  O  O80  1  0.83842000  0.09832400  0.20438000  1
  O  O81  1  0.79562000  0.33842000  0.40167600  1
  O  O82  1  0.40167600  0.79562000  0.33842000  1
  O  O83  1  0.33842000  0.40167600  0.79562000  1
  O  O84  1  0.74598600  0.58905000  0.76269300  1
  O  O85  1  0.23730700  0.24598600  0.91095000  1
  O  O86  1  0.08905000  0.73730700  0.25401400  1
  O  O87  1  0.24598600  0.91095000  0.23730700  1
  O  O88  1  0.73730700  0.25401400  0.08905000  1
  O  O89  1  0.58905000  0.76269300  0.74598600  1
  O  O90  1  0.25401400  0.08905000  0.73730700  1
  O  O91  1  0.76269300  0.74598600  0.58905000  1
  O  O92  1  0.91095000  0.23730700  0.24598600  1
  O  O93  1  0.75401400  0.41095000  0.26269300  1
  O  O94  1  0.26269300  0.75401400  0.41095000  1
  O  O95  1  0.41095000  0.26269300  0.75401400  1
  O  O96  1  0.50029100  0.88517800  0.68359800  1
  O  O97  1  0.31640200  0.00029100  0.61482200  1
  O  O98  1  0.38517800  0.81640200  0.49970900  1
  O  O99  1  0.00029100  0.61482200  0.31640200  1
  O  O100  1  0.81640200  0.49970900  0.38517800  1
  O  O101  1  0.88517800  0.68359800  0.50029100  1
  O  O102  1  0.49970900  0.38517800  0.81640200  1
  O  O103  1  0.68359800  0.50029100  0.88517800  1
  O  O104  1  0.61482200  0.31640200  0.00029100  1
  O  O105  1  0.99970900  0.11482200  0.18359800  1
  O  O106  1  0.18359800  0.99970900  0.11482200  1
  O  O107  1  0.11482200  0.18359800  0.99970900  1
  O  O108  1  0.10403700  0.62117400  0.51701800  1
  O  O109  1  0.48298200  0.60403700  0.87882600  1
  O  O110  1  0.12117400  0.98298200  0.89596300  1
  O  O111  1  0.60403700  0.87882600  0.48298200  1
  O  O112  1  0.98298200  0.89596300  0.12117400  1
  O  O113  1  0.62117400  0.51701800  0.10403700  1
  O  O114  1  0.89596300  0.12117400  0.98298200  1
  O  O115  1  0.51701800  0.10403700  0.62117400  1
  O  O116  1  0.87882600  0.48298200  0.60403700  1
  O  O117  1  0.39596300  0.37882600  0.01701800  1
  O  O118  1  0.01701800  0.39596300  0.37882600  1
  O  O119  1  0.37882600  0.01701800  0.39596300  1
loop_
_geom_bond_atom_site_label_1
_geom_bond_atom_site_label_2
_geom_bond_distance
_geom_bond_site_symmetry_2
Li0 O110 1.979173 1_555
Li0 O61 2.051812 1_555
Li0 O90 2.083023 1_565
Li0 O38 2.164497 1_555
Li1 O108 1.979173 1_555
Li1 O62 2.051812 1_555
Li1 O94 2.083023 1_555
Li1 O36 2.164497 1_555
Li2 O109 1.979173 1_555
Li2 O60 2.051812 1_555
Li2 O89 2.083023 1_555
Li2 O37 2.164497 1_555
Li3 O113 1.979173 1_555
Li3 O64 2.051812 1_555
Li3 O93 2.083023 1_555
Li3 O41 2.164497 1_555
Li4 O111 1.979173 1_555
Li4 O65 2.051812 1_555
Li4 O91 2.083023 1_555
Li4 O39 2.164497 1_555
Li5 O112 1.979173 1_555
Li5 O63 2.051812 1_555
Li5 O86 2.083023 1_655
Li5 O40 2.164497 1_555
Li6 O116 1.979173 1_555
Li6 O67 2.051812 1_555
Li6 O84 2.083023 1_555
Li6 O44 2.164497 1_555
Li7 O114 1.979173 1_555
Li7 O68 2.051812 1_555
Li7 O88 2.083023 1_556
Li7 O42 2.164497 1_555
Li8 O115 1.979173 1_555
Li8 O66 2.051812 1_555
Li8 O95 2.083023 1_555
Li8 O43 2.164497 1_555
Li9 O119 1.979173 1_555
Li9 O70 2.051812 1_555
Li9 O87 2.083023 1_545
Li9 O47 2.164497 1_555
Li10 O117 1.979173 1_555
Li10 O71 2.051812 1_555
Li10 O85 2.083023 1_554
Li10 O45 2.164497 1_555
Li11 O118 1.979173 1_555
Li11 O69 2.051812 1_555
Li11 O92 2.083023 1_455
Li11 O46 2.164497 1_555
Nd0 O58 2.616796 1_556
Nd0 O54 2.616796 1_455
Nd0 O53 2.616796 1_456
Nd0 O45 2.630504 1_556
Nd0 O40 2.630504 1_456
Nd0 O44 2.630504 1_455
Nd0 O12 2.635744 1_555
Nd0 O13 2.635744 1_555
Nd0 O14 2.635744 1_555
Nd0 O10 2.665273 1_556
Nd0 O6 2.665273 1_555
Nd0 O5 2.665273 1_455
Nd1 O57 2.616796 1_565
Nd1 O50 2.616796 1_554
Nd1 O55 2.616796 1_564
Nd1 O47 2.630504 1_565
Nd1 O42 2.630504 1_564
Nd1 O37 2.630504 1_554
Nd1 O17 2.635744 1_555
Nd1 O15 2.635744 1_555
Nd1 O16 2.635744 1_555
Nd1 O9 2.665273 1_565
Nd1 O2 2.665273 1_555
Nd1 O7 2.665273 1_554
Nd2 O59 2.616796 1_655
Nd2 O52 2.616796 1_545
Nd2 O48 2.616796 1_645
Nd2 O38 2.630504 1_645
Nd2 O46 2.630504 1_655
Nd2 O39 2.630504 1_545
Nd2 O19 2.635744 1_555
Nd2 O20 2.635744 1_555
Nd2 O18 2.635744 1_555
Nd2 O11 2.665273 1_655
Nd2 O4 2.665273 1_555
Nd2 O0 2.665273 1_545
Nd3 O56 2.616796 1_555
Nd3 O51 2.616796 1_555
Nd3 O49 2.616796 1_555
Nd3 O36 2.630504 1_555
Nd3 O43 2.630504 1_555
Nd3 O41 2.630504 1_555
Nd3 O23 2.635744 1_555
Nd3 O22 2.635744 1_555
Nd3 O21 2.635744 1_555
Nd3 O8 2.665273 1_555
Nd3 O1 2.665273 1_555
Nd3 O3 2.665273 1_555
Nd4 O79 2.497812 1_555
Nd4 O77 2.497812 1_555
Nd4 O72 2.497812 1_555
Nd4 O91 2.600445 1_555
Nd4 O84 2.600445 1_555
Nd4 O89 2.600445 1_555
Nd4 O31 2.694531 1_555
Nd4 O29 2.694531 1_555
Nd4 O24 2.694531 1_555
Nd4 O0 2.749453 1_555
Nd4 O7 2.749453 1_555
Nd4 O5 2.749453 1_555
Nd5 O83 2.497812 1_555
Nd5 O73 2.497812 1_555
Nd5 O78 2.497812 1_555
Nd5 O95 2.600445 1_555
Nd5 O90 2.600445 1_555
Nd5 O85 2.600445 1_555
Nd5 O30 2.694531 1_555
Nd5 O25 2.694531 1_555
Nd5 O35 2.694531 1_555
Nd5 O6 2.749453 1_555
Nd5 O1 2.749453 1_555
Nd5 O11 2.749453 1_555
Nd6 O82 2.497812 1_555
Nd6 O75 2.497812 1_555
Nd6 O74 2.497812 1_555
Nd6 O94 2.600445 1_555
Nd6 O86 2.600445 1_555
Nd6 O87 2.600445 1_555
Nd6 O26 2.694531 1_555
Nd6 O27 2.694531 1_555
Nd6 O34 2.694531 1_555
Nd6 O2 2.749453 1_555
Nd6 O10 2.749453 1_555
Nd6 O3 2.749453 1_555
Nd7 O81 2.497812 1_555
Nd7 O80 2.497812 1_555
Nd7 O76 2.497812 1_555
Nd7 O93 2.600445 1_555
Nd7 O92 2.600445 1_555
Nd7 O88 2.600445 1_555
Nd7 O28 2.694531 1_555
Nd7 O32 2.694531 1_555
Nd7 O33 2.694531 1_555
Nd7 O4 2.749453 1_555
Nd7 O9 2.749453 1_555
Nd7 O8 2.749453 1_555
H0 O116 0.981430 1_555
H1 O117 0.981430 1_555
H2 O112 0.981430 1_555
H3 O119 0.981430 1_555
H4 O114 0.981430 1_555
H5 O109 0.981430 1_555
H6 O110 0.981430 1_555
H7 O111 0.981430 1_555
H8 O118 0.981430 1_555
H9 O113 0.981430 1_555
H10 O108 0.981430 1_555
H11 O115 0.981430 1_555
H12 O110 0.975728 1_555
H13 O108 0.975728 1_555
H14 O109 0.975728 1_555
H15 O113 0.975728 1_555
H16 O111 0.975728 1_555
H17 O112 0.975728 1_555
H18 O116 0.975728 1_555
H19 O114 0.975728 1_555
H20 O115 0.975728 1_555
H21 O119 0.975728 1_555
H22 O117 0.975728 1_555
H23 O118 0.975728 1_555
N0 O12 1.252866 1_554
N0 O34 1.260097 1_555
N0 O10 1.287924 1_555
N1 O13 1.252866 1_655
N1 O29 1.260097 1_555
N1 O5 1.287924 1_555
N2 O14 1.252866 1_555
N2 O30 1.260097 1_555
N2 O6 1.287924 1_555
N3 O15 1.252866 1_556
N3 O31 1.260097 1_555
N3 O7 1.287924 1_555
N4 O16 1.252866 1_555
N4 O26 1.260097 1_555
N4 O2 1.287924 1_555
N5 O17 1.252866 1_545
N5 O33 1.260097 1_555
N5 O9 1.287924 1_555
N6 O18 1.252866 1_555
N6 O28 1.260097 1_555
N6 O4 1.287924 1_555
N7 O19 1.252866 1_455
N7 O35 1.260097 1_555
N7 O11 1.287924 1_555
N8 O20 1.252866 1_565
N8 O24 1.260097 1_555
N8 O0 1.287924 1_555
N9 O21 1.252866 1_555
N9 O25 1.260097 1_555
N9 O1 1.287924 1_555
N10 O22 1.252866 1_555
N10 O32 1.260097 1_555
N10 O8 1.287924 1_555
N11 O23 1.252866 1_555
N11 O27 1.260097 1_555
N11 O3 1.287924 1_555
N12 O60 1.249537 1_555
N12 O49 1.265567 1_555
N12 O36 1.291398 1_555
N13 O61 1.249537 1_555
N13 O50 1.265567 1_555
N13 O37 1.291398 1_555
N14 O62 1.249537 1_555
N14 O48 1.265567 1_555
N14 O38 1.291398 1_555
N15 O63 1.249537 1_555
N15 O52 1.265567 1_555
N15 O39 1.291398 1_555
N16 O64 1.249537 1_555
N16 O53 1.265567 1_555
N16 O40 1.291398 1_555
N17 O65 1.249537 1_555
N17 O51 1.265567 1_555
N17 O41 1.291398 1_555
N18 O66 1.249537 1_555
N18 O55 1.265567 1_555
N18 O42 1.291398 1_555
N19 O67 1.249537 1_555
N19 O56 1.265567 1_555
N19 O43 1.291398 1_555
N20 O68 1.249537 1_555
N20 O54 1.265567 1_555
N20 O44 1.291398 1_555
N21 O69 1.249537 1_555
N21 O58 1.265567 1_555
N21 O45 1.291398 1_555
N22 O70 1.249537 1_555
N22 O59 1.265567 1_555
N22 O46 1.291398 1_555
N23 O71 1.249537 1_555
N23 O57 1.265567 1_555
N23 O47 1.291398 1_555
N24 O103 1.236568 1_555
N24 O72 1.273536 1_555
N24 O84 1.298697 1_555
N25 O107 1.236568 1_555
N25 O73 1.273536 1_555
N25 O85 1.298697 1_555
N26 O99 1.236568 1_555
N26 O74 1.273536 1_555
N26 O86 1.298697 1_555
N27 O106 1.236568 1_555
N27 O75 1.273536 1_555
N27 O87 1.298697 1_555
N28 O104 1.236568 1_555
N28 O76 1.273536 1_555
N28 O88 1.298697 1_555
N29 O96 1.236568 1_555
N29 O77 1.273536 1_555
N29 O89 1.298697 1_555
N30 O97 1.236568 1_555
N30 O78 1.273536 1_555
N30 O90 1.298697 1_555
N31 O101 1.236568 1_555
N31 O79 1.273536 1_555
N31 O91 1.298697 1_555
N32 O105 1.236568 1_555
N32 O80 1.273536 1_555
N32 O92 1.298697 1_555
N33 O100 1.236568 1_555
N33 O81 1.273536 1_555
N33 O93 1.298697 1_555
N34 O98 1.236568 1_555
N34 O82 1.273536 1_555
N34 O94 1.298697 1_555
N35 O102 1.236568 1_555
N35 O83 1.273536 1_555
N35 O95 1.298697 1_555
