# generated using pymatgen
data_Li5Cr2Fe5O12
_symmetry_space_group_name_H-M   'P 1'
_cell_length_a   5.17070551
_cell_length_b   5.17070551
_cell_length_c   9.77930284
_cell_angle_alpha   84.58680193
_cell_angle_beta   84.58680193
_cell_angle_gamma   121.00499613
_symmetry_Int_Tables_number   1
_chemical_formula_structural   Li5Cr2Fe5O12
_chemical_formula_sum   'Li5 Cr2 Fe5 O12'
_cell_volume   219.95272425
_cell_formula_units_Z   1
loop_
 _symmetry_equiv_pos_site_id
 _symmetry_equiv_pos_as_xyz
  1  'x, y, z'
loop_
 _atom_site_type_symbol
 _atom_site_label
 _atom_site_symmetry_multiplicity
 _atom_site_fract_x
 _atom_site_fract_y
 _atom_site_fract_z
 _atom_site_occupancy
  Li  Li0  1  0.83322200  0.66898600  0.25378500  1
  Li  Li1  1  0.66861500  0.83276000  0.74611100  1
  Li  Li2  1  0.33101400  0.16677800  0.74621500  1
  Li  Li3  1  0.16724000  0.33138500  0.25388900  1
  Li  Li4  1  0.08094800  0.91905200  0.50000000  1
  Cr  Cr0  1  0.75087100  0.24912900  0.50000000  1
  Cr  Cr1  1  0.24956600  0.75043400  0.00000000  1
  Fe  Fe0  1  0.91767800  0.08232200  0.00000000  1
  Fe  Fe1  1  0.99533800  0.50300300  0.74676600  1
  Fe  Fe2  1  0.49699700  0.00466200  0.25323400  1
  Fe  Fe3  1  0.57600100  0.42399900  0.00000000  1
  Fe  Fe4  1  0.41977000  0.58023000  0.50000000  1
  O  O0  1  0.04701700  0.23613000  0.61887000  1
  O  O1  1  0.76387000  0.95298300  0.38113000  1
  O  O2  1  0.87884300  0.37142000  0.12530300  1
  O  O3  1  0.62858000  0.12115700  0.87469700  1
  O  O4  1  0.70564500  0.52784200  0.61782700  1
  O  O5  1  0.47215800  0.29435500  0.38217300  1
  O  O6  1  0.53137800  0.72834300  0.12383100  1
  O  O7  1  0.27165700  0.46862200  0.87616900  1
  O  O8  1  0.38231400  0.85584700  0.61657600  1
  O  O9  1  0.14415300  0.61768600  0.38342400  1
  O  O10  1  0.21214700  0.02502300  0.12552800  1
  O  O11  1  0.97497700  0.78785300  0.87447200  1
loop_
_geom_bond_atom_site_label_1
_geom_bond_atom_site_label_2
_geom_bond_distance
_geom_bond_site_symmetry_2
Li0 O10 2.045934 1_665
Li0 O5 2.046302 1_555
Li0 O1 2.153870 1_555
Li0 O2 2.164364 1_555
Li0 O6 2.222466 1_555
Li0 O9 2.241183 1_655
Li1 O8 2.077934 1_555
Li1 O7 2.109484 1_555
Li1 O3 2.114367 1_565
Li1 O0 2.138586 1_665
Li1 O4 2.176045 1_555
Li1 O11 2.199586 1_555
Li2 O11 2.045934 1_445
Li2 O4 2.046302 1_555
Li2 O0 2.153870 1_555
Li2 O3 2.164364 1_555
Li2 O7 2.222466 1_555
Li2 O8 2.241183 1_545
Li3 O9 2.077934 1_555
Li3 O6 2.109484 1_555
Li3 O2 2.114367 1_455
Li3 O1 2.138586 1_445
Li3 O5 2.176045 1_555
Li3 O10 2.199586 1_555
Li4 O5 2.068729 1_565
Li4 O4 2.068729 1_455
Li4 O9 2.150405 1_555
Li4 O8 2.150405 1_555
Li4 O1 2.165082 1_455
Li4 O0 2.165082 1_565
Cr0 O4 2.017167 1_555
Cr0 O5 2.017167 1_555
Cr0 O0 2.031704 1_655
Cr0 O1 2.031704 1_545
Cr0 O9 2.055941 1_655
Cr0 O8 2.055941 1_545
Cr1 O7 2.020191 1_554
Cr1 O6 2.020191 1_555
Cr1 O10 2.031579 1_565
Cr1 O11 2.031579 1_454
Cr1 O2 2.061611 1_455
Cr1 O3 2.061611 1_564
Fe0 O6 2.040904 1_545
Fe0 O7 2.040904 1_654
Fe0 O3 2.094001 1_554
Fe0 O2 2.094001 1_555
Fe0 O10 2.159133 1_655
Fe0 O11 2.159133 1_544
Fe1 O0 2.045088 1_655
Fe1 O11 2.054784 1_555
Fe1 O7 2.057851 1_655
Fe1 O8 2.067235 1_655
Fe1 O3 2.070914 1_555
Fe1 O4 2.091462 1_555
Fe2 O1 2.045088 1_545
Fe2 O10 2.054784 1_555
Fe2 O6 2.057851 1_545
Fe2 O9 2.067235 1_545
Fe2 O2 2.070914 1_555
Fe2 O5 2.091462 1_555
Fe3 O10 2.095306 1_555
Fe3 O11 2.095306 1_554
Fe3 O7 2.162653 1_554
Fe3 O6 2.162653 1_555
Fe3 O2 2.182955 1_555
Fe3 O3 2.182955 1_554
Fe4 O1 1.971282 1_555
Fe4 O0 1.971282 1_555
Fe4 O8 1.979249 1_555
Fe4 O9 1.979249 1_555
Fe4 O5 2.064239 1_555
Fe4 O4 2.064239 1_555
