# generated using pymatgen
data_Ho2WO6
_symmetry_space_group_name_H-M   'P 1'
_cell_length_a   5.27287000
_cell_length_b   8.66672000
_cell_length_c   20.99922500
_cell_angle_alpha   90.00000000
_cell_angle_beta   90.00000000
_cell_angle_gamma   90.00000000
_symmetry_Int_Tables_number   1
_chemical_formula_structural   Ho2WO6
_chemical_formula_sum   'Ho16 W8 O48'
_cell_volume   959.63282929
_cell_formula_units_Z   8
loop_
 _symmetry_equiv_pos_site_id
 _symmetry_equiv_pos_as_xyz
  1  'x, y, z'
loop_
 _atom_site_type_symbol
 _atom_site_label
 _atom_site_symmetry_multiplicity
 _atom_site_fract_x
 _atom_site_fract_y
 _atom_site_fract_z
 _atom_site_occupancy
  Ho  Ho0  1  0.45928300  0.08800500  0.43516400  1
  Ho  Ho1  1  0.41195700  0.10500400  0.66575800  1
  Ho  Ho2  1  0.53624800  0.24510200  0.93170800  1
  Ho  Ho3  1  0.48966900  0.24465800  0.19973900  1
  Ho  Ho4  1  0.98966900  0.25534200  0.80026100  1
  Ho  Ho5  1  0.03624800  0.25489800  0.06829200  1
  Ho  Ho6  1  0.91195700  0.39499600  0.33424200  1
  Ho  Ho7  1  0.95928300  0.41199500  0.56483600  1
  Ho  Ho8  1  0.54071700  0.58800500  0.06483600  1
  Ho  Ho9  1  0.58804300  0.60500400  0.83424200  1
  Ho  Ho10  1  0.46375200  0.74510200  0.56829200  1
  Ho  Ho11  1  0.51033100  0.74465800  0.30026100  1
  Ho  Ho12  1  0.01033100  0.75534200  0.69973900  1
  Ho  Ho13  1  0.96375200  0.75489800  0.43170800  1
  Ho  Ho14  1  0.08804300  0.89499600  0.16575800  1
  Ho  Ho15  1  0.04071700  0.91199500  0.93516400  1
  W  W0  1  0.93579700  0.01691200  0.55669300  1
  W  W1  1  0.98702400  0.02197400  0.31191800  1
  W  W2  1  0.48702400  0.47802600  0.68808200  1
  W  W3  1  0.43579700  0.48308800  0.44330700  1
  W  W4  1  0.06420300  0.51691200  0.94330700  1
  W  W5  1  0.01297600  0.52197400  0.18808200  1
  W  W6  1  0.51297600  0.97802600  0.81191800  1
  W  W7  1  0.56420300  0.98308800  0.05669300  1
  O  O0  1  0.25430400  0.03035700  0.24806500  1
  O  O1  1  0.79669900  0.04724500  0.12206600  1
  O  O2  1  0.77084500  0.05349000  0.87329100  1
  O  O3  1  0.30690900  0.04765700  0.99690600  1
  O  O4  1  0.32050200  0.11083000  0.11957900  1
  O  O5  1  0.78170400  0.12415500  0.00272700  1
  O  O6  1  0.28675500  0.12765700  0.85921600  1
  O  O7  1  0.67875300  0.12560500  0.75416700  1
  O  O8  1  0.12623200  0.17502900  0.36801900  1
  O  O9  1  0.10842400  0.18343200  0.59847600  1
  O  O10  1  0.75944100  0.17457300  0.51483700  1
  O  O11  1  0.77077200  0.18257200  0.27821700  1
  O  O12  1  0.27077200  0.31742800  0.72178300  1
  O  O13  1  0.25944100  0.32542700  0.48516300  1
  O  O14  1  0.60842400  0.31656800  0.40152400  1
  O  O15  1  0.62623200  0.32497100  0.63198100  1
  O  O16  1  0.17875300  0.37439500  0.24583300  1
  O  O17  1  0.78675500  0.37234300  0.14078400  1
  O  O18  1  0.28170400  0.37584500  0.99727300  1
  O  O19  1  0.82050200  0.38917000  0.88042100  1
  O  O20  1  0.80690900  0.45234300  0.00309400  1
  O  O21  1  0.27084500  0.44651000  0.12670900  1
  O  O22  1  0.29669900  0.45275500  0.87793400  1
  O  O23  1  0.75430400  0.46964300  0.75193500  1
  O  O24  1  0.74569600  0.53035700  0.25193500  1
  O  O25  1  0.20330100  0.54724500  0.37793400  1
  O  O26  1  0.22915500  0.55349000  0.62670900  1
  O  O27  1  0.69309100  0.54765700  0.50309400  1
  O  O28  1  0.67949800  0.61083000  0.38042100  1
  O  O29  1  0.21829600  0.62415500  0.49727300  1
  O  O30  1  0.71324500  0.62765700  0.64078400  1
  O  O31  1  0.32124700  0.62560500  0.74583300  1
  O  O32  1  0.87376800  0.67502900  0.13198100  1
  O  O33  1  0.89157600  0.68343200  0.90152400  1
  O  O34  1  0.24055900  0.67457300  0.98516300  1
  O  O35  1  0.22922800  0.68257200  0.22178300  1
  O  O36  1  0.72922800  0.81742800  0.77821700  1
  O  O37  1  0.74055900  0.82542700  0.01483700  1
  O  O38  1  0.39157600  0.81656800  0.09847600  1
  O  O39  1  0.37376800  0.82497100  0.86801900  1
  O  O40  1  0.82124700  0.87439500  0.25416700  1
  O  O41  1  0.21324500  0.87234300  0.35921600  1
  O  O42  1  0.71829600  0.87584500  0.50272700  1
  O  O43  1  0.17949800  0.88917000  0.61957900  1
  O  O44  1  0.19309100  0.95234300  0.49690600  1
  O  O45  1  0.72915500  0.94651000  0.37329100  1
  O  O46  1  0.70330100  0.95275500  0.62206600  1
  O  O47  1  0.24569600  0.96964300  0.74806500  1
loop_
_geom_bond_atom_site_label_1
_geom_bond_atom_site_label_2
_geom_bond_distance
_geom_bond_site_symmetry_2
Ho0 O44 2.243537 1_545
Ho0 O14 2.245301 1_555
Ho0 O45 2.284048 1_545
Ho0 O8 2.375063 1_555
Ho0 O10 2.422185 1_555
Ho0 O13 2.539045 1_555
Ho0 O42 2.694271 1_545
Ho0 O41 2.778501 1_545
Ho1 O46 2.223252 1_545
Ho1 O9 2.240487 1_555
Ho1 O47 2.265416 1_545
Ho1 O12 2.308174 1_555
Ho1 O15 2.326795 1_555
Ho1 O7 2.336146 1_555
Ho1 O43 2.437583 1_545
Ho2 O19 2.228318 1_555
Ho2 O18 2.231816 1_555
Ho2 O5 2.235612 1_556
Ho2 O6 2.254778 1_555
Ho2 O2 2.406811 1_555
Ho2 O22 2.471717 1_555
Ho2 O3 2.503000 1_555
Ho2 O20 2.740422 1_556
Ho3 O16 2.211078 1_555
Ho3 O4 2.230336 1_555
Ho3 O11 2.280863 1_555
Ho3 O17 2.282797 1_555
Ho3 O0 2.453478 1_555
Ho3 O21 2.596835 1_555
Ho3 O1 2.865063 1_555
Ho3 O24 3.025692 1_555
Ho4 O7 2.211078 1_555
Ho4 O19 2.230336 1_555
Ho4 O12 2.280863 1_655
Ho4 O6 2.282797 1_655
Ho4 O23 2.453478 1_555
Ho4 O2 2.596835 1_555
Ho4 O22 2.865063 1_655
Ho4 O47 3.025692 1_645
Ho5 O4 2.228318 1_555
Ho5 O5 2.231816 1_455
Ho5 O18 2.235612 1_554
Ho5 O17 2.254778 1_455
Ho5 O21 2.406811 1_555
Ho5 O1 2.471717 1_455
Ho5 O20 2.503000 1_455
Ho5 O3 2.740422 1_554
Ho6 O25 2.223252 1_655
Ho6 O14 2.240487 1_555
Ho6 O24 2.265416 1_555
Ho6 O11 2.308174 1_555
Ho6 O8 2.326795 1_655
Ho6 O16 2.336146 1_655
Ho6 O28 2.437583 1_555
Ho7 O27 2.243537 1_555
Ho7 O9 2.245301 1_655
Ho7 O26 2.284048 1_655
Ho7 O15 2.375063 1_555
Ho7 O13 2.422185 1_655
Ho7 O10 2.539045 1_555
Ho7 O29 2.694271 1_655
Ho7 O30 2.778501 1_555
Ho8 O20 2.243537 1_555
Ho8 O38 2.245301 1_555
Ho8 O21 2.284048 1_555
Ho8 O32 2.375063 1_555
Ho8 O34 2.422185 1_554
Ho8 O37 2.539045 1_555
Ho8 O18 2.694271 1_554
Ho8 O17 2.778501 1_555
Ho9 O22 2.223252 1_555
Ho9 O33 2.240487 1_555
Ho9 O23 2.265416 1_555
Ho9 O36 2.308174 1_555
Ho9 O39 2.326795 1_555
Ho9 O31 2.336146 1_555
Ho9 O19 2.437583 1_555
Ho10 O43 2.228318 1_555
Ho10 O42 2.231816 1_555
Ho10 O29 2.235612 1_555
Ho10 O30 2.254778 1_555
Ho10 O26 2.406811 1_555
Ho10 O46 2.471717 1_555
Ho10 O27 2.503000 1_555
Ho10 O44 2.740422 1_555
Ho11 O40 2.211078 1_555
Ho11 O28 2.230336 1_555
Ho11 O35 2.280863 1_555
Ho11 O41 2.282797 1_555
Ho11 O24 2.453478 1_555
Ho11 O45 2.596835 1_555
Ho11 O25 2.865063 1_555
Ho11 O0 3.025692 1_565
Ho12 O31 2.211078 1_555
Ho12 O43 2.230336 1_555
Ho12 O36 2.280863 1_455
Ho12 O30 2.282797 1_455
Ho12 O47 2.453478 1_555
Ho12 O26 2.596835 1_555
Ho12 O46 2.865063 1_455
Ho12 O23 3.025692 1_455
Ho13 O28 2.228318 1_555
Ho13 O29 2.231816 1_655
Ho13 O42 2.235612 1_555
Ho13 O41 2.254778 1_655
Ho13 O45 2.406811 1_555
Ho13 O25 2.471717 1_655
Ho13 O44 2.503000 1_655
Ho13 O27 2.740422 1_555
Ho14 O1 2.223252 1_465
Ho14 O38 2.240487 1_555
Ho14 O0 2.265416 1_565
Ho14 O35 2.308174 1_555
Ho14 O32 2.326795 1_455
Ho14 O40 2.336146 1_455
Ho14 O4 2.437583 1_565
Ho15 O3 2.243537 1_565
Ho15 O33 2.245301 1_455
Ho15 O2 2.284048 1_465
Ho15 O39 2.375063 1_555
Ho15 O37 2.422185 1_456
Ho15 O34 2.539045 1_555
Ho15 O5 2.694271 1_466
Ho15 O6 2.778501 1_565
O0 W1 1.946641 1_455
O1 W7 1.922650 1_545
O2 W6 1.984320 1_545
O3 W7 1.931310 1_546
O4 W7 2.149601 1_545
O5 W7 2.023423 1_545
O6 W6 2.022636 1_545
O7 W6 1.967409 1_545
O8 W1 1.919954 1_455
O9 W0 1.918635 1_455
O10 W0 1.871983 1_555
O11 W1 1.933472 1_555
O12 W2 1.933472 1_555
O13 W3 1.871983 1_555
O14 W3 1.918635 1_555
O15 W2 1.919954 1_555
O16 W5 1.967409 1_555
O17 W5 2.022636 1_655
O18 W4 2.023423 1_555
O19 W4 2.149601 1_655
O20 W4 1.931310 1_654
O21 W5 1.984320 1_555
O22 W4 1.922650 1_555
O23 W2 1.946641 1_555
O24 W5 1.946641 1_655
O25 W3 1.922650 1_555
O26 W2 1.984320 1_555
O27 W3 1.931310 1_555
O28 W3 2.149601 1_555
O29 W3 2.023423 1_555
O30 W2 2.022636 1_555
O31 W2 1.967409 1_555
O32 W5 1.919954 1_655
O33 W4 1.918635 1_655
O34 W4 1.871983 1_555
O35 W5 1.933472 1_555
O36 W6 1.933472 1_555
O37 W7 1.871983 1_555
O38 W7 1.918635 1_555
O39 W6 1.919954 1_555
O40 W1 1.967409 1_565
O41 W1 2.022636 1_465
O42 W0 2.023423 1_565
O43 W0 2.149601 1_465
O44 W0 1.931310 1_465
O45 W1 1.984320 1_565
O46 W0 1.922650 1_565
O47 W6 1.946641 1_555
