# generated using pymatgen
data_Be(Bi3O5)4
_symmetry_space_group_name_H-M   'P 1'
_cell_length_a   8.75958022
_cell_length_b   8.75958022
_cell_length_c   8.75958022
_cell_angle_alpha   109.47122063
_cell_angle_beta   109.47122063
_cell_angle_gamma   109.47122063
_symmetry_Int_Tables_number   1
_chemical_formula_structural   Be(Bi3O5)4
_chemical_formula_sum   'Be1 Bi12 O20'
_cell_volume   517.40186817
_cell_formula_units_Z   1
loop_
 _symmetry_equiv_pos_site_id
 _symmetry_equiv_pos_as_xyz
  1  'x, y, z'
loop_
 _atom_site_type_symbol
 _atom_site_label
 _atom_site_symmetry_multiplicity
 _atom_site_fract_x
 _atom_site_fract_y
 _atom_site_fract_z
 _atom_site_occupancy
  Be  Be0  1  0.00000000  0.00000000  0.00000000  1
  Bi  Bi0  1  0.16304900  0.30408900  0.48700200  1
  Bi  Bi1  1  0.14103900  0.83695100  0.32395300  1
  Bi  Bi2  1  0.18291300  0.69591100  0.85896100  1
  Bi  Bi3  1  0.30408900  0.48700200  0.16304900  1
  Bi  Bi4  1  0.51299800  0.81708700  0.67604700  1
  Bi  Bi5  1  0.32395300  0.14103900  0.83695100  1
  Bi  Bi6  1  0.69591100  0.85896100  0.18291300  1
  Bi  Bi7  1  0.48700200  0.16304900  0.30408900  1
  Bi  Bi8  1  0.67604700  0.51299800  0.81708700  1
  Bi  Bi9  1  0.83695100  0.32395300  0.14103900  1
  Bi  Bi10  1  0.85896100  0.18291300  0.69591100  1
  Bi  Bi11  1  0.81708700  0.67604700  0.51299800  1
  O  O0  1  0.12074500  0.35994700  0.73992200  1
  O  O1  1  0.26007800  0.62002500  0.38082300  1
  O  O2  1  0.00000000  0.40032100  0.00000000  1
  O  O3  1  0.00000000  0.00000000  0.40032100  1
  O  O4  1  0.23920200  0.87925500  0.61917700  1
  O  O5  1  0.37997500  0.64005300  0.76079800  1
  O  O6  1  0.00000000  0.80530400  0.00000000  1
  O  O7  1  0.00000000  0.00000000  0.80530400  1
  O  O8  1  0.35994700  0.73992200  0.12074500  1
  O  O9  1  0.38082300  0.26007800  0.62002500  1
  O  O10  1  0.40032100  0.00000000  0.00000000  1
  O  O11  1  0.19469600  0.19469600  0.19469600  1
  O  O12  1  0.61917700  0.23920200  0.87925500  1
  O  O13  1  0.64005300  0.76079800  0.37997500  1
  O  O14  1  0.80530400  0.00000000  0.00000000  1
  O  O15  1  0.73992200  0.12074500  0.35994700  1
  O  O16  1  0.62002500  0.38082300  0.26007800  1
  O  O17  1  0.87925500  0.61917700  0.23920200  1
  O  O18  1  0.76079800  0.37997500  0.64005300  1
  O  O19  1  0.59967900  0.59967900  0.59967900  1
loop_
_geom_bond_atom_site_label_1
_geom_bond_atom_site_label_2
_geom_bond_distance
_geom_bond_site_symmetry_2
Be0 O7 1.705455 1_554
Be0 O6 1.705455 1_545
Be0 O14 1.705455 1_455
Be0 O11 1.705455 1_555
Bi0 O9 2.110270 1_555
Bi0 O3 2.259221 1_555
Bi0 O0 2.287043 1_555
Bi0 O5 2.559647 1_555
Bi0 O11 2.562364 1_555
Bi1 O17 2.110264 1_455
Bi1 O3 2.259213 1_565
Bi1 O4 2.287042 1_555
Bi1 O1 2.559652 1_555
Bi1 O6 2.562363 1_555
Bi2 O8 2.110263 1_556
Bi2 O10 2.259222 1_566
Bi2 O5 2.287048 1_555
Bi2 O0 2.559647 1_555
Bi2 O6 2.562359 1_556
Bi3 O1 2.110270 1_555
Bi3 O2 2.259221 1_555
Bi3 O8 2.287043 1_555
Bi3 O13 2.559647 1_555
Bi3 O11 2.562364 1_555
Bi4 O5 2.110270 1_555
Bi4 O19 2.259221 1_555
Bi4 O1 2.287043 1_555
Bi4 O4 2.559647 1_555
Bi4 O14 2.562364 1_566
Bi5 O4 2.110264 1_545
Bi5 O10 2.259213 1_556
Bi5 O12 2.287042 1_555
Bi5 O9 2.559652 1_555
Bi5 O7 2.562363 1_555
Bi6 O15 2.110263 1_565
Bi6 O3 2.259222 1_665
Bi6 O13 2.287048 1_555
Bi6 O8 2.559647 1_555
Bi6 O14 2.562359 1_565
Bi7 O16 2.110270 1_555
Bi7 O10 2.259221 1_555
Bi7 O15 2.287043 1_555
Bi7 O18 2.559647 1_555
Bi7 O11 2.562364 1_555
Bi8 O18 2.110270 1_555
Bi8 O19 2.259221 1_555
Bi8 O9 2.287043 1_555
Bi8 O12 2.559647 1_555
Bi8 O6 2.562364 1_656
Bi9 O12 2.110264 1_554
Bi9 O2 2.259213 1_655
Bi9 O17 2.287042 1_555
Bi9 O16 2.559652 1_555
Bi9 O14 2.562363 1_555
Bi10 O0 2.110263 1_655
Bi10 O2 2.259222 1_656
Bi10 O18 2.287048 1_555
Bi10 O15 2.559647 1_555
Bi10 O7 2.562359 1_655
Bi11 O13 2.110270 1_555
Bi11 O19 2.259221 1_555
Bi11 O16 2.287043 1_555
Bi11 O17 2.559647 1_555
Bi11 O7 2.562364 1_665
