# generated using pymatgen
data_Mn3NbO8
_symmetry_space_group_name_H-M   'P 1'
_cell_length_a   5.91733797
_cell_length_b   5.91733797
_cell_length_c   9.32599800
_cell_angle_alpha   90.00000000
_cell_angle_beta   90.00000000
_cell_angle_gamma   119.99999970
_symmetry_Int_Tables_number   1
_chemical_formula_structural   Mn3NbO8
_chemical_formula_sum   'Mn6 Nb2 O16'
_cell_volume   282.79954155
_cell_formula_units_Z   2
loop_
 _symmetry_equiv_pos_site_id
 _symmetry_equiv_pos_as_xyz
  1  'x, y, z'
loop_
 _atom_site_type_symbol
 _atom_site_label
 _atom_site_symmetry_multiplicity
 _atom_site_fract_x
 _atom_site_fract_y
 _atom_site_fract_z
 _atom_site_occupancy
  Mn  Mn0  1  0.16789400  0.83210600  0.21423900  1
  Mn  Mn1  1  0.16789400  0.33578800  0.21423900  1
  Mn  Mn2  1  0.66421200  0.83210600  0.21423900  1
  Mn  Mn3  1  0.33578800  0.16789400  0.71423900  1
  Mn  Mn4  1  0.83210600  0.66421200  0.71423900  1
  Mn  Mn5  1  0.83210600  0.16789400  0.71423900  1
  Nb  Nb0  1  0.33333300  0.66666700  0.49783800  1
  Nb  Nb1  1  0.66666700  0.33333300  0.99783800  1
  O  O0  1  0.16697400  0.83302600  0.59694500  1
  O  O1  1  0.04111100  0.52055500  0.33590300  1
  O  O2  1  0.33333300  0.66666700  0.11275600  1
  O  O3  1  0.00000000  0.00000000  0.30906000  1
  O  O4  1  0.00000000  0.00000000  0.80906000  1
  O  O5  1  0.16697400  0.33394800  0.59694500  1
  O  O6  1  0.47944500  0.95888900  0.33590300  1
  O  O7  1  0.47944500  0.52055500  0.33590300  1
  O  O8  1  0.33394800  0.16697400  0.09694500  1
  O  O9  1  0.66605200  0.83302600  0.59694500  1
  O  O10  1  0.52055500  0.47944500  0.83590300  1
  O  O11  1  0.52055500  0.04111100  0.83590300  1
  O  O12  1  0.66666700  0.33333300  0.61275600  1
  O  O13  1  0.83302600  0.66605200  0.09694500  1
  O  O14  1  0.95888900  0.47944500  0.83590300  1
  O  O15  1  0.83302600  0.16697400  0.09694500  1
loop_
_geom_bond_atom_site_label_1
_geom_bond_atom_site_label_2
_geom_bond_distance
_geom_bond_site_symmetry_2
Mn0 O3 1.934691 1_565
Mn0 O2 1.941857 1_555
Mn0 O6 1.966177 1_555
Mn0 O1 1.966177 1_555
Mn0 O8 2.035064 1_565
Mn0 O13 2.035064 1_455
Mn1 O3 1.934691 1_555
Mn1 O2 1.941862 1_555
Mn1 O1 1.966172 1_555
Mn1 O7 1.966176 1_555
Mn1 O8 2.035064 1_555
Mn1 O15 2.035064 1_455
Mn2 O3 1.934691 1_665
Mn2 O2 1.941862 1_555
Mn2 O6 1.966172 1_555
Mn2 O7 1.966176 1_555
Mn2 O13 2.035064 1_555
Mn2 O15 2.035064 1_565
Mn3 O4 1.934691 1_555
Mn3 O12 1.941862 1_555
Mn3 O11 1.966172 1_555
Mn3 O10 1.966176 1_555
Mn3 O5 2.035064 1_555
Mn3 O0 2.035064 1_545
Mn4 O4 1.934691 1_665
Mn4 O12 1.941862 1_555
Mn4 O14 1.966172 1_555
Mn4 O10 1.966176 1_555
Mn4 O9 2.035064 1_555
Mn4 O0 2.035064 1_655
Mn5 O4 1.934691 1_655
Mn5 O12 1.941857 1_555
Mn5 O14 1.966177 1_555
Mn5 O11 1.966177 1_555
Mn5 O5 2.035064 1_655
Mn5 O9 2.035064 1_545
Nb0 O0 1.939439 1_555
Nb0 O9 1.939443 1_555
Nb0 O5 1.939443 1_555
Nb0 O6 2.126795 1_555
Nb0 O1 2.126795 1_555
Nb0 O7 2.126803 1_555
Nb1 O15 1.939439 1_556
Nb1 O13 1.939443 1_556
Nb1 O8 1.939443 1_556
Nb1 O14 2.126795 1_555
Nb1 O11 2.126795 1_555
Nb1 O10 2.126803 1_555
