# generated using pymatgen
data_Li3Mn(PO4)2
_symmetry_space_group_name_H-M   'P 1'
_cell_length_a   6.20052945
_cell_length_b   8.50912334
_cell_length_c   10.71765379
_cell_angle_alpha   89.93555478
_cell_angle_beta   90.17792385
_cell_angle_gamma   88.80572332
_symmetry_Int_Tables_number   1
_chemical_formula_structural   Li3Mn(PO4)2
_chemical_formula_sum   'Li12 Mn4 P8 O32'
_cell_volume   565.34891662
_cell_formula_units_Z   4
loop_
 _symmetry_equiv_pos_site_id
 _symmetry_equiv_pos_as_xyz
  1  'x, y, z'
loop_
 _atom_site_type_symbol
 _atom_site_label
 _atom_site_symmetry_multiplicity
 _atom_site_fract_x
 _atom_site_fract_y
 _atom_site_fract_z
 _atom_site_occupancy
  Li  Li0  1  0.00002700  0.00030800  0.00013900  1
  Li  Li1  1  0.00020400  0.49993400  0.25022900  1
  Li  Li2  1  0.99981900  0.00018900  0.50022100  1
  Li  Li3  1  0.99990900  0.50013200  0.75028200  1
  Li  Li4  1  0.23060600  0.33133700  0.50016400  1
  Li  Li5  1  0.23040200  0.83149700  0.75004800  1
  Li  Li6  1  0.23059200  0.33147900  0.99986600  1
  Li  Li7  1  0.23039500  0.83132100  0.24975900  1
  Li  Li8  1  0.76941800  0.16850400  0.25023000  1
  Li  Li9  1  0.76957900  0.66850500  0.50012400  1
  Li  Li10  1  0.76940700  0.16868700  0.75000300  1
  Li  Li11  1  0.76966000  0.66867700  0.00032700  1
  Mn  Mn0  1  0.50015100  0.99999900  0.00003100  1
  Mn  Mn1  1  0.49993000  0.50009300  0.25008100  1
  Mn  Mn2  1  0.49974000  0.99992500  0.49985000  1
  Mn  Mn3  1  0.49983200  0.49992700  0.74980300  1
  P  P0  1  0.73238100  0.35341600  0.50007200  1
  P  P1  1  0.73223400  0.85355200  0.75001600  1
  P  P2  1  0.73241800  0.35355000  0.00004400  1
  P  P3  1  0.73227200  0.85343900  0.25000800  1
  P  P4  1  0.26761800  0.14645800  0.24992000  1
  P  P5  1  0.26772400  0.64643500  0.49996000  1
  P  P6  1  0.26760800  0.14655200  0.74992600  1
  P  P7  1  0.26780500  0.64655000  0.99998600  1
  O  O0  1  0.93918900  0.25557900  0.49994600  1
  O  O1  1  0.93905900  0.75572400  0.74989000  1
  O  O2  1  0.93924800  0.25573500  0.99982200  1
  O  O3  1  0.93902400  0.75557600  0.24986800  1
  O  O4  1  0.06079200  0.24423300  0.25007000  1
  O  O5  1  0.06093700  0.74423800  0.50003100  1
  O  O6  1  0.06080300  0.24438300  0.75011900  1
  O  O7  1  0.06102500  0.74439200  0.00019300  1
  O  O8  1  0.53125800  0.25256600  0.50001800  1
  O  O9  1  0.53108000  0.75273000  0.74997000  1
  O  O10  1  0.53127200  0.25271600  0.00004200  1
  O  O11  1  0.53113100  0.75262200  0.24993900  1
  O  O12  1  0.46872200  0.24724700  0.24998100  1
  O  O13  1  0.46888100  0.74722500  0.50003900  1
  O  O14  1  0.46874600  0.24740700  0.74993000  1
  O  O15  1  0.46893600  0.74735000  0.00002100  1
  O  O16  1  0.73042600  0.46949300  0.61707000  1
  O  O17  1  0.73025400  0.96971700  0.86698900  1
  O  O18  1  0.73057700  0.46955900  0.11711600  1
  O  O19  1  0.73024400  0.96952700  0.36701700  1
  O  O20  1  0.27041500  0.03023300  0.36750900  1
  O  O21  1  0.27034100  0.53038300  0.61759600  1
  O  O22  1  0.27043800  0.03045300  0.86751800  1
  O  O23  1  0.27055100  0.53038900  0.11758700  1
  O  O24  1  0.72971400  0.46943300  0.38242700  1
  O  O25  1  0.72958600  0.96955200  0.63235400  1
  O  O26  1  0.72956000  0.46968200  0.88244800  1
  O  O27  1  0.72967400  0.96948600  0.13238200  1
  O  O28  1  0.26951100  0.03050400  0.13283500  1
  O  O29  1  0.26976300  0.53033500  0.38297000  1
  O  O30  1  0.26944200  0.03053900  0.63287500  1
  O  O31  1  0.26967100  0.53052600  0.88294000  1
loop_
_geom_bond_atom_site_label_1
_geom_bond_atom_site_label_2
_geom_bond_distance
_geom_bond_site_symmetry_2
Li0 O2 2.198135 1_454
Li0 O7 2.202441 1_545
Li0 O28 2.210125 1_555
Li0 O17 2.215051 1_444
Li0 O27 2.218098 1_445
Li0 O22 2.220211 1_554
Li1 O4 2.200260 1_555
Li1 O3 2.200313 1_455
Li1 O29 2.211019 1_555
Li1 O18 2.213866 1_455
Li1 O24 2.218072 1_455
Li1 O23 2.220400 1_555
Li2 O0 2.197685 1_555
Li2 O5 2.202852 1_645
Li2 O30 2.210663 1_655
Li2 O19 2.214576 1_545
Li2 O25 2.216567 1_545
Li2 O20 2.221597 1_655
Li3 O1 2.199584 1_555
Li3 O6 2.200948 1_655
Li3 O31 2.211393 1_655
Li3 O16 2.214174 1_555
Li3 O26 2.217130 1_555
Li3 O21 2.220876 1_655
Li4 O0 1.931094 1_455
Li4 O8 1.967854 1_555
Li4 O29 2.125583 1_555
Li4 O21 2.129242 1_555
Li5 O1 1.930707 1_455
Li5 O9 1.967992 1_555
Li5 O30 2.125653 1_565
Li5 O22 2.129116 1_565
Li6 O2 1.930628 1_455
Li6 O10 1.967984 1_556
Li6 O31 2.124158 1_555
Li6 O23 2.130335 1_556
Li7 O3 1.930793 1_455
Li7 O11 1.968136 1_555
Li7 O28 2.125100 1_565
Li7 O20 2.130582 1_565
Li8 O4 1.930765 1_655
Li8 O12 1.968021 1_555
Li8 O19 2.122882 1_545
Li8 O27 2.131700 1_545
Li9 O5 1.930681 1_655
Li9 O13 1.967974 1_555
Li9 O16 2.124107 1_555
Li9 O24 2.131206 1_555
Li10 O6 1.930786 1_655
Li10 O14 1.967759 1_555
Li10 O17 2.124074 1_545
Li10 O25 2.131293 1_545
Li11 O7 1.930669 1_655
Li11 O15 1.967992 1_555
Li11 O18 2.123779 1_555
Li11 O26 2.132030 1_554
Mn0 O27 2.018950 1_555
Mn0 O22 2.020934 1_564
Mn0 O17 2.033067 1_554
Mn0 O28 2.033827 1_565
Mn0 O15 2.162531 1_555
Mn0 O10 2.163043 1_565
Mn1 O23 2.019191 1_555
Mn1 O24 2.020188 1_555
Mn1 O29 2.032154 1_555
Mn1 O18 2.035097 1_555
Mn1 O11 2.161503 1_555
Mn1 O12 2.164197 1_555
Mn2 O20 2.017819 1_565
Mn2 O25 2.021366 1_555
Mn2 O19 2.033349 1_555
Mn2 O30 2.034108 1_565
Mn2 O8 2.162673 1_565
Mn2 O13 2.162720 1_555
Mn3 O21 2.017676 1_555
Mn3 O26 2.021791 1_555
Mn3 O16 2.033023 1_555
Mn3 O31 2.034342 1_555
Mn3 O14 2.161349 1_555
Mn3 O9 2.163861 1_555
O0 P0 1.514241 1_555
O1 P1 1.514288 1_555
O2 P2 1.514260 1_556
O3 P3 1.514069 1_555
O4 P4 1.514054 1_555
O5 P5 1.513976 1_555
O6 P6 1.514201 1_555
O7 P7 1.514122 1_554
O8 P0 1.528464 1_555
O9 P1 1.528485 1_555
O10 P2 1.528504 1_555
O11 P3 1.528393 1_555
O12 P4 1.528066 1_555
O13 P5 1.528343 1_555
O14 P6 1.528566 1_555
O15 P7 1.528259 1_554
O16 P0 1.597023 1_555
O17 P1 1.597276 1_555
O18 P2 1.597290 1_555
O19 P3 1.597172 1_555
O20 P4 1.600942 1_555
O21 P5 1.600436 1_555
O22 P6 1.600305 1_555
O23 P7 1.600709 1_554
O24 P0 1.600327 1_555
O25 P1 1.600382 1_555
O26 P2 1.600511 1_556
O27 P3 1.600326 1_555
O28 P4 1.597109 1_555
O29 P5 1.597075 1_555
O30 P6 1.597135 1_555
O31 P7 1.597150 1_555
