# generated using pymatgen
data_Li2AgF6
_symmetry_space_group_name_H-M   'P 1'
_cell_length_a   4.73870058
_cell_length_b   4.73861465
_cell_length_c   8.86950732
_cell_angle_alpha   90.01416854
_cell_angle_beta   90.00708253
_cell_angle_gamma   89.99233473
_symmetry_Int_Tables_number   1
_chemical_formula_structural   Li2AgF6
_chemical_formula_sum   'Li4 Ag2 F12'
_cell_volume   199.16367731
_cell_formula_units_Z   2
loop_
 _symmetry_equiv_pos_site_id
 _symmetry_equiv_pos_as_xyz
  1  'x, y, z'
loop_
 _atom_site_type_symbol
 _atom_site_label
 _atom_site_symmetry_multiplicity
 _atom_site_fract_x
 _atom_site_fract_y
 _atom_site_fract_z
 _atom_site_occupancy
  Li  Li0  1  0.00009194  0.00005871  0.34160975  1
  Li  Li1  1  -0.00005891  -0.00004762  0.65839659  1
  Li  Li2  1  0.50003516  0.50005913  0.15840100  1
  Li  Li3  1  0.49995409  0.50001174  0.84161945  1
  Ag  Ag0  1  0.99997102  0.99997006  -0.00000780  1
  Ag  Ag1  1  0.50000196  0.49998532  0.49997412  1
  F  F0  1  0.19062124  0.80927513  0.16434066  1
  F  F1  1  0.19061974  0.80927823  0.83571044  1
  F  F2  1  0.19014754  0.80991134  0.49998296  1
  F  F3  1  0.30982107  0.30978916  0.00002385  1
  F  F4  1  0.30936494  0.30928341  0.33582586  1
  F  F5  1  0.30932531  0.30929845  0.66427018  1
  F  F6  1  0.69071013  0.69071696  0.33569724  1
  F  F7  1  0.69069356  0.69073279  0.66413538  1
  F  F8  1  0.69008744  0.69018034  0.00001759  1
  F  F9  1  0.80996499  0.19016474  0.49999702  1
  F  F10  1  0.80933043  0.19066591  0.16432057  1
  F  F11  1  0.80932335  0.19066420  0.83568614  1
loop_
_geom_bond_atom_site_label_1
_geom_bond_atom_site_label_2
_geom_bond_distance
_geom_bond_site_symmetry_2
Ag0 F1 1.937858 1_654
Ag0 F10 1.938159 1_565
Ag0 F11 1.938191 1_564
Ag0 F0 1.938481 1_655
Ag0 F3 2.076487 1_665
Ag0 F8 2.076501 1_555
Ag1 F4 1.936909 1_555
Ag1 F7 1.937217 1_555
Ag1 F5 1.938452 1_555
Ag1 F6 1.938493 1_555
Ag1 F2 2.076582 1_555
Ag1 F9 2.076593 1_555
F0 Li0 2.025830 1_565
F0 Li2 2.073392 1_555
F1 Li1 2.026396 1_565
F1 Li3 2.073297 1_555
F2 Li0 1.896373 1_565
F2 Li1 1.896574 1_565
F3 Li2 1.896816 1_555
F3 Li3 1.897201 1_554
F4 Li2 2.027639 1_555
F4 Li0 2.073210 1_555
F5 Li3 2.026378 1_555
F5 Li1 2.073982 1_555
F6 Li2 2.025994 1_555
F6 Li0 2.073968 1_665
F7 Li3 2.028077 1_555
F7 Li1 2.073098 1_665
F8 Li3 1.896544 1_554
F8 Li2 1.896653 1_555
F9 Li0 1.896368 1_655
F9 Li1 1.896514 1_655
F10 Li0 2.026260 1_655
F10 Li2 2.073593 1_555
F11 Li1 2.026006 1_655
F11 Li3 2.073682 1_555
