# generated using pymatgen
data_Rb4PbO4
_symmetry_space_group_name_H-M   'P 1'
_cell_length_a   7.10489382
_cell_length_b   11.24691000
_cell_length_c   11.35867244
_cell_angle_alpha   69.62552105
_cell_angle_beta   90.00000000
_cell_angle_gamma   90.00000000
_symmetry_Int_Tables_number   1
_chemical_formula_structural   Rb4PbO4
_chemical_formula_sum   'Rb16 Pb4 O16'
_cell_volume   850.86478925
_cell_formula_units_Z   4
loop_
 _symmetry_equiv_pos_site_id
 _symmetry_equiv_pos_as_xyz
  1  'x, y, z'
loop_
 _atom_site_type_symbol
 _atom_site_label
 _atom_site_symmetry_multiplicity
 _atom_site_fract_x
 _atom_site_fract_y
 _atom_site_fract_z
 _atom_site_occupancy
  Rb  Rb0  1  0.58194023  0.94372700  0.69950075  1
  Rb  Rb1  1  0.10245928  0.83349699  0.58252706  1
  Rb  Rb2  1  0.91805977  0.94372700  0.19950075  1
  Rb  Rb3  1  0.32514592  0.63050960  0.89152697  1
  Rb  Rb4  1  0.39754072  0.83349699  0.08252706  1
  Rb  Rb5  1  0.79554265  0.57098682  0.79594187  1
  Rb  Rb6  1  0.17485408  0.63050960  0.39152697  1
  Rb  Rb7  1  0.70445735  0.57098682  0.29594187  1
  Rb  Rb8  1  0.29554265  0.42901318  0.70405813  1
  Rb  Rb9  1  0.82514592  0.36949040  0.60847303  1
  Rb  Rb10  1  0.20445735  0.42901318  0.20405813  1
  Rb  Rb11  1  0.60245928  0.16650301  0.91747294  1
  Rb  Rb12  1  0.67485408  0.36949040  0.10847303  1
  Rb  Rb13  1  0.08194023  0.05627300  0.80049925  1
  Rb  Rb14  1  0.89754072  0.16650301  0.41747294  1
  Rb  Rb15  1  0.41805977  0.05627300  0.30049925  1
  Pb  Pb0  1  0.87001982  0.75903754  0.99377484  1
  Pb  Pb1  1  0.62998018  0.75903754  0.49377484  1
  Pb  Pb2  1  0.37001982  0.24096246  0.50622516  1
  Pb  Pb3  1  0.12998018  0.24096246  0.00622516  1
  O  O0  1  0.75983039  0.93702347  0.97056576  1
  O  O1  1  0.74016961  0.93702347  0.47056576  1
  O  O2  1  0.00479525  0.78158840  0.82457558  1
  O  O3  1  0.45389888  0.68495741  0.65069949  1
  O  O4  1  0.49520475  0.78158840  0.32457558  1
  O  O5  1  0.85461594  0.63162597  0.52391192  1
  O  O6  1  0.04610112  0.68495741  0.15069949  1
  O  O7  1  0.35461594  0.36837403  0.97608808  1
  O  O8  1  0.64538406  0.63162597  0.02391192  1
  O  O9  1  0.95389888  0.31504259  0.84930051  1
  O  O10  1  0.14538406  0.36837403  0.47608808  1
  O  O11  1  0.50479525  0.21841160  0.67542442  1
  O  O12  1  0.54610112  0.31504259  0.34930051  1
  O  O13  1  0.99520475  0.21841160  0.17542442  1
  O  O14  1  0.25983039  0.06297653  0.52943424  1
  O  O15  1  0.24016961  0.06297653  0.02943424  1
loop_
_geom_bond_atom_site_label_1
_geom_bond_atom_site_label_2
_geom_bond_distance
_geom_bond_site_symmetry_2
O0 Pb0 2.078971 1_555
O0 Rb11 2.681658 1_565
O0 Rb2 2.857989 1_556
O0 Rb4 2.927045 1_556
O0 Rb13 2.993969 1_665
O0 Rb0 3.304744 1_555
O1 Pb1 2.078971 1_555
O1 Rb14 2.681658 1_565
O1 Rb0 2.857989 1_555
O1 Rb1 2.927045 1_655
O1 Rb15 2.993969 1_565
O1 Rb2 3.304744 1_555
O2 Pb0 2.082178 1_455
O2 Rb1 2.695107 1_555
O2 Rb3 2.783197 1_555
O2 Rb5 2.909102 1_455
O2 Rb13 3.054673 1_565
O3 Pb1 2.098175 1_555
O3 Rb3 2.743768 1_555
O3 Rb8 2.950357 1_555
O3 Rb1 2.953727 1_555
O3 Rb5 2.963828 1_555
O3 Rb0 3.275420 1_555
O4 Pb1 2.082178 1_555
O4 Rb4 2.695107 1_555
O4 Rb6 2.783197 1_555
O4 Rb7 2.909102 1_555
O4 Rb15 3.054673 1_565
O5 Pb1 2.091967 1_555
O5 Rb6 2.729701 1_655
O5 Rb9 2.772470 1_555
O5 Rb5 2.953204 1_555
O5 Rb7 3.088396 1_555
O5 Rb1 3.122729 1_655
O6 Pb0 2.098175 1_454
O6 Rb6 2.743768 1_555
O6 Rb10 2.950357 1_555
O6 Rb4 2.953727 1_555
O6 Rb7 2.963828 1_455
O6 Rb2 3.275420 1_455
O7 Pb3 2.091967 1_556
O7 Rb12 2.729701 1_556
O7 Rb3 2.772470 1_555
O7 Rb8 2.953204 1_555
O7 Rb10 3.088396 1_556
O7 Rb11 3.122729 1_555
O8 Pb0 2.091967 1_554
O8 Rb3 2.729701 1_554
O8 Rb12 2.772470 1_555
O8 Rb7 2.953204 1_555
O8 Rb5 3.088396 1_554
O8 Rb4 3.122729 1_555
O9 Pb3 2.098175 1_656
O9 Rb9 2.743768 1_555
O9 Rb5 2.950357 1_555
O9 Rb11 2.953727 1_555
O9 Rb8 2.963828 1_655
O9 Rb13 3.275420 1_655
O10 Pb2 2.091967 1_555
O10 Rb9 2.729701 1_455
O10 Rb6 2.772470 1_555
O10 Rb10 2.953204 1_555
O10 Rb8 3.088396 1_555
O10 Rb14 3.122729 1_455
O11 Pb2 2.082178 1_555
O11 Rb11 2.695107 1_555
O11 Rb9 2.783197 1_555
O11 Rb8 2.909102 1_555
O11 Rb0 3.054673 1_545
O12 Pb2 2.098175 1_555
O12 Rb12 2.743768 1_555
O12 Rb7 2.950357 1_555
O12 Rb14 2.953727 1_555
O12 Rb10 2.963828 1_555
O12 Rb15 3.275420 1_555
O13 Pb3 2.082178 1_655
O13 Rb14 2.695107 1_555
O13 Rb12 2.783197 1_555
O13 Rb10 2.909102 1_655
O13 Rb2 3.054673 1_545
O14 Pb2 2.078971 1_555
O14 Rb1 2.681658 1_545
O14 Rb15 2.857989 1_555
O14 Rb14 2.927045 1_455
O14 Rb0 2.993969 1_545
O14 Rb13 3.304744 1_555
O15 Pb3 2.078971 1_555
O15 Rb4 2.681658 1_545
O15 Rb13 2.857989 1_554
O15 Rb11 2.927045 1_554
O15 Rb2 2.993969 1_445
O15 Rb15 3.304744 1_555
