# generated using pymatgen
data_V2CrFe3(PO4)6
_symmetry_space_group_name_H-M   'P 1'
_cell_length_a   8.43583714
_cell_length_b   8.43583714
_cell_length_c   8.43583697
_cell_angle_alpha   61.66652134
_cell_angle_beta   61.66652134
_cell_angle_gamma   61.66652324
_symmetry_Int_Tables_number   1
_chemical_formula_structural   V2CrFe3(PO4)6
_chemical_formula_sum   'V2 Cr1 Fe3 P6 O24'
_cell_volume   440.35330092
_cell_formula_units_Z   1
loop_
 _symmetry_equiv_pos_site_id
 _symmetry_equiv_pos_as_xyz
  1  'x, y, z'
loop_
 _atom_site_type_symbol
 _atom_site_label
 _atom_site_symmetry_multiplicity
 _atom_site_fract_x
 _atom_site_fract_y
 _atom_site_fract_z
 _atom_site_occupancy
  V  V0  1  0.99868000  0.99868000  0.99868000  1
  V  V1  1  0.50040800  0.50040800  0.50040800  1
  Cr  Cr0  1  0.14224300  0.14224300  0.14224300  1
  Fe  Fe0  1  0.64694300  0.64694300  0.64694300  1
  Fe  Fe1  1  0.85405900  0.85406000  0.85405900  1
  Fe  Fe2  1  0.35310900  0.35310900  0.35310900  1
  P  P0  1  0.95319200  0.25046200  0.54412700  1
  P  P1  1  0.54412700  0.95319200  0.25046200  1
  P  P2  1  0.25046200  0.54412600  0.95319200  1
  P  P3  1  0.75021100  0.45317500  0.04908700  1
  P  P4  1  0.45317500  0.04908700  0.75021100  1
  P  P5  1  0.04908700  0.75021100  0.45317500  1
  O  O0  1  0.50523100  0.10654400  0.32379700  1
  O  O1  1  0.32379700  0.50523100  0.10654400  1
  O  O2  1  0.10654400  0.32379700  0.50523100  1
  O  O3  1  0.93822700  0.09571600  0.74784200  1
  O  O4  1  0.99364400  0.17980000  0.39020200  1
  O  O5  1  0.75055400  0.40559200  0.56044200  1
  O  O6  1  0.74784200  0.93822700  0.09571600  1
  O  O7  1  0.56044200  0.75055400  0.40559200  1
  O  O8  1  0.82239000  0.60793100  0.00666900  1
  O  O9  1  0.40559200  0.56044200  0.75055400  1
  O  O10  1  0.90603600  0.25027600  0.06324500  1
  O  O11  1  0.60793100  0.00666900  0.82239000  1
  O  O12  1  0.39020200  0.99364400  0.17980000  1
  O  O13  1  0.09571600  0.74784200  0.93822700  1
  O  O14  1  0.59554600  0.43830200  0.25055100  1
  O  O15  1  0.17980000  0.39020200  0.99364400  1
  O  O16  1  0.43830200  0.25055100  0.59554600  1
  O  O17  1  0.25027600  0.06324500  0.90603600  1
  O  O18  1  0.25055100  0.59554600  0.43830200  1
  O  O19  1  0.00666900  0.82239000  0.60793100  1
  O  O20  1  0.06324500  0.90603600  0.25027600  1
  O  O21  1  0.89354500  0.67964000  0.49259600  1
  O  O22  1  0.67964000  0.49259600  0.89354500  1
  O  O23  1  0.49259600  0.89354500  0.67964000  1
loop_
_geom_bond_atom_site_label_1
_geom_bond_atom_site_label_2
_geom_bond_distance
_geom_bond_site_symmetry_2
Cr0 O4 1.952001 1_455
Cr0 O15 1.952001 1_554
Cr0 O12 1.952001 1_545
Cr0 O17 2.050703 1_554
Cr0 O20 2.050703 1_545
Cr0 O10 2.050703 1_455
Fe0 O22 1.931769 1_555
Fe0 O21 1.931769 1_555
Fe0 O23 1.931769 1_555
Fe0 O7 2.134800 1_555
Fe0 O9 2.134800 1_555
Fe0 O5 2.134800 1_555
Fe1 O11 1.924207 1_565
Fe1 O19 1.924211 1_655
Fe1 O8 1.924215 1_556
Fe1 O3 2.121078 1_565
Fe1 O6 2.121081 1_556
Fe1 O13 2.121084 1_655
Fe2 O1 1.920326 1_555
Fe2 O2 1.920326 1_555
Fe2 O0 1.920326 1_555
Fe2 O16 2.138484 1_555
Fe2 O14 2.138484 1_555
Fe2 O18 2.138484 1_555
O0 P1 1.525773 1_545
O1 P2 1.525776 1_554
O2 P0 1.525773 1_455
O3 P0 1.579365 1_555
O3 V0 2.095619 1_545
O4 P0 1.509591 1_555
O5 P0 1.574125 1_555
O5 V1 2.092113 1_555
O6 P1 1.579365 1_555
O6 V0 2.095619 1_554
O7 P1 1.574125 1_555
O7 V1 2.092113 1_555
O8 P3 1.519015 1_555
O9 P2 1.574124 1_555
O9 V1 2.092113 1_555
O10 P3 1.578347 1_555
O10 V0 2.128585 1_544
O11 P4 1.519015 1_555
O12 P1 1.509591 1_555
O13 P2 1.579370 1_555
O13 V0 2.095619 1_455
O14 P3 1.566724 1_555
O14 V1 2.098716 1_555
O15 P2 1.509584 1_555
O16 P4 1.566724 1_555
O16 V1 2.098716 1_555
O17 P4 1.578347 1_555
O17 V0 2.128585 1_445
O18 P5 1.566724 1_555
O18 V1 2.098716 1_555
O19 P5 1.519015 1_555
O20 P5 1.578347 1_555
O20 V0 2.128585 1_454
O21 P5 1.525137 1_655
O22 P3 1.525137 1_556
O23 P4 1.525137 1_565
