# generated using pymatgen
data_Li2MnSiO4
_symmetry_space_group_name_H-M   'P 1'
_cell_length_a   5.46786000
_cell_length_b   5.98386000
_cell_length_c   11.06126353
_cell_angle_alpha   82.70583900
_cell_angle_beta   90.00000000
_cell_angle_gamma   90.00000000
_symmetry_Int_Tables_number   1
_chemical_formula_structural   Li2MnSiO4
_chemical_formula_sum   'Li8 Mn4 Si4 O16'
_cell_volume   358.98365424
_cell_formula_units_Z   4
loop_
 _symmetry_equiv_pos_site_id
 _symmetry_equiv_pos_as_xyz
  1  'x, y, z'
loop_
 _atom_site_type_symbol
 _atom_site_label
 _atom_site_symmetry_multiplicity
 _atom_site_fract_x
 _atom_site_fract_y
 _atom_site_fract_z
 _atom_site_occupancy
  Li  Li0  1  0.32169800  0.04320000  0.83230700  1
  Li  Li1  1  0.17830200  0.04320000  0.33230700  1
  Li  Li2  1  0.18026900  0.22628100  0.57275500  1
  Li  Li3  1  0.31973100  0.22628100  0.07275500  1
  Li  Li4  1  0.68026900  0.77371900  0.92724500  1
  Li  Li5  1  0.81973100  0.77371900  0.42724500  1
  Li  Li6  1  0.82169800  0.95680000  0.66769300  1
  Li  Li7  1  0.67830200  0.95680000  0.16769300  1
  Mn  Mn0  1  0.17904300  0.57458900  0.83195700  1
  Mn  Mn1  1  0.67904300  0.42541100  0.66804300  1
  Mn  Mn2  1  0.32095700  0.57458900  0.33195700  1
  Mn  Mn3  1  0.82095700  0.42541100  0.16804300  1
  Si  Si0  1  0.81795200  0.25666800  0.91147100  1
  Si  Si1  1  0.68204800  0.25666800  0.41147100  1
  Si  Si2  1  0.31795200  0.74333200  0.58852900  1
  Si  Si3  1  0.18204800  0.74333200  0.08852900  1
  O  O0  1  0.69531400  0.09099900  0.81976900  1
  O  O1  1  0.80468600  0.09099900  0.31976900  1
  O  O2  1  0.11698800  0.23700100  0.92521800  1
  O  O3  1  0.38301200  0.23700100  0.42521800  1
  O  O4  1  0.82451800  0.23922400  0.54330500  1
  O  O5  1  0.28634800  0.47792400  0.66323000  1
  O  O6  1  0.67548200  0.23922400  0.04330500  1
  O  O7  1  0.21365200  0.47792400  0.16323000  1
  O  O8  1  0.78634800  0.52207600  0.83677000  1
  O  O9  1  0.32451800  0.76077600  0.95669500  1
  O  O10  1  0.71365200  0.52207600  0.33677000  1
  O  O11  1  0.17548200  0.76077600  0.45669500  1
  O  O12  1  0.61698800  0.76299900  0.57478200  1
  O  O13  1  0.88301200  0.76299900  0.07478200  1
  O  O14  1  0.19531400  0.90900100  0.68023100  1
  O  O15  1  0.30468600  0.90900100  0.18023100  1
loop_
_geom_bond_atom_site_label_1
_geom_bond_atom_site_label_2
_geom_bond_distance
_geom_bond_site_symmetry_2
Li0 O2 1.989113 1_555
Li0 O9 2.039343 1_545
Li0 O0 2.065025 1_555
Li0 O14 2.072450 1_545
Li1 O3 1.989113 1_555
Li1 O11 2.039343 1_545
Li1 O1 2.065025 1_455
Li1 O15 2.072450 1_545
Li2 O3 1.967157 1_555
Li2 O4 1.972181 1_455
Li2 O5 1.997009 1_555
Li2 O14 2.109849 1_545
Li3 O2 1.967157 1_554
Li3 O6 1.972181 1_555
Li3 O7 1.997009 1_555
Li3 O15 2.109849 1_545
Li4 O13 1.967157 1_556
Li4 O9 1.972181 1_555
Li4 O8 1.997009 1_555
Li4 O0 2.109849 1_565
Li5 O12 1.967157 1_555
Li5 O11 1.972181 1_655
Li5 O10 1.997009 1_555
Li5 O1 2.109849 1_565
Li6 O12 1.989113 1_555
Li6 O4 2.039343 1_565
Li6 O14 2.065025 1_655
Li6 O0 2.072450 1_565
Li7 O13 1.989113 1_555
Li7 O6 2.039343 1_565
Li7 O15 2.065025 1_555
Li7 O1 2.072450 1_565
Mn0 O9 2.041581 1_555
Mn0 O5 2.106219 1_555
Mn0 O8 2.169747 1_455
Mn0 O2 2.175055 1_555
Mn0 O14 2.444599 1_555
Mn1 O4 2.041581 1_555
Mn1 O8 2.106219 1_555
Mn1 O5 2.169747 1_555
Mn1 O12 2.175055 1_555
Mn1 O0 2.444599 1_555
Mn2 O11 2.041581 1_555
Mn2 O7 2.106219 1_555
Mn2 O10 2.169747 1_555
Mn2 O3 2.175055 1_555
Mn2 O15 2.444599 1_555
Mn3 O6 2.041581 1_555
Mn3 O10 2.106219 1_555
Mn3 O7 2.169747 1_655
Mn3 O13 2.175055 1_555
Mn3 O1 2.444599 1_555
O0 Si0 1.648223 1_555
O1 Si1 1.648223 1_555
O2 Si0 1.644973 1_455
O3 Si1 1.644973 1_555
O4 Si1 1.644868 1_555
O5 Si2 1.703425 1_555
O6 Si0 1.644868 1_554
O7 Si3 1.703425 1_555
O8 Si0 1.703425 1_555
O9 Si3 1.644868 1_556
O10 Si1 1.703425 1_555
O11 Si2 1.644868 1_555
O12 Si2 1.644973 1_555
O13 Si3 1.644973 1_655
O14 Si2 1.648223 1_555
O15 Si3 1.648223 1_555
