# generated using pymatgen
data_Li3BiS3
_symmetry_space_group_name_H-M   'P 1'
_cell_length_a   6.87589824
_cell_length_b   6.87589824
_cell_length_c   6.87589796
_cell_angle_alpha   105.21972041
_cell_angle_beta   105.21972041
_cell_angle_gamma   105.21972832
_symmetry_Int_Tables_number   1
_chemical_formula_structural   Li3BiS3
_chemical_formula_sum   'Li6 Bi2 S6'
_cell_volume   282.84878480
_cell_formula_units_Z   2
loop_
 _symmetry_equiv_pos_site_id
 _symmetry_equiv_pos_as_xyz
  1  'x, y, z'
loop_
 _atom_site_type_symbol
 _atom_site_label
 _atom_site_symmetry_multiplicity
 _atom_site_fract_x
 _atom_site_fract_y
 _atom_site_fract_z
 _atom_site_occupancy
  Li  Li0  1  0.09831700  0.47458900  0.69624200  1
  Li  Li1  1  0.19624200  0.97458900  0.59831700  1
  Li  Li2  1  0.97458900  0.59831700  0.19624200  1
  Li  Li3  1  0.69624200  0.09831700  0.47458900  1
  Li  Li4  1  0.47458900  0.69624200  0.09831700  1
  Li  Li5  1  0.59831700  0.19624200  0.97458900  1
  Bi  Bi0  1  0.51509300  0.51509300  0.51509300  1
  Bi  Bi1  1  0.01509300  0.01509300  0.01509300  1
  S  S0  1  0.28043900  0.29313300  0.92610700  1
  S  S1  1  0.42610700  0.79313300  0.78043900  1
  S  S2  1  0.78043900  0.42610700  0.79313300  1
  S  S3  1  0.29313300  0.92610700  0.28043900  1
  S  S4  1  0.79313300  0.78043900  0.42610700  1
  S  S5  1  0.92610700  0.28043900  0.29313300  1
loop_
_geom_bond_atom_site_label_1
_geom_bond_atom_site_label_2
_geom_bond_distance
_geom_bond_site_symmetry_2
Li0 S2 2.414709 1_455
Li0 S1 2.503909 1_555
Li0 S5 2.524053 1_455
Li0 S0 2.537601 1_555
Li1 S3 2.414709 1_555
Li1 S0 2.503909 1_565
Li1 S4 2.524053 1_455
Li1 S1 2.537601 1_555
Li2 S5 2.414709 1_555
Li2 S3 2.503909 1_655
Li2 S2 2.524053 1_554
Li2 S4 2.537601 1_555
Li3 S4 2.414709 1_545
Li3 S2 2.503909 1_555
Li3 S3 2.524053 1_545
Li3 S5 2.537601 1_555
Li4 S1 2.414709 1_554
Li4 S4 2.503909 1_555
Li4 S0 2.524053 1_554
Li4 S3 2.537601 1_555
Li5 S0 2.414709 1_555
Li5 S5 2.503909 1_556
Li5 S1 2.524053 1_545
Li5 S2 2.537601 1_555
Bi0 S4 2.593636 1_555
Bi0 S2 2.593636 1_555
Bi0 S1 2.593636 1_555
Bi1 S0 2.593636 1_554
Bi1 S5 2.593636 1_455
Bi1 S3 2.593636 1_545
