# generated using pymatgen
data_Li3Fe8(BO3)8
_symmetry_space_group_name_H-M   'P 1'
_cell_length_a   5.29696200
_cell_length_b   9.04792755
_cell_length_c   11.33087972
_cell_angle_alpha   113.21010763
_cell_angle_beta   102.59064864
_cell_angle_gamma   90.31478261
_symmetry_Int_Tables_number   1
_chemical_formula_structural   Li3Fe8(BO3)8
_chemical_formula_sum   'Li3 Fe8 B8 O24'
_cell_volume   484.56070596
_cell_formula_units_Z   1
loop_
 _symmetry_equiv_pos_site_id
 _symmetry_equiv_pos_as_xyz
  1  'x, y, z'
loop_
 _atom_site_type_symbol
 _atom_site_label
 _atom_site_symmetry_multiplicity
 _atom_site_fract_x
 _atom_site_fract_y
 _atom_site_fract_z
 _atom_site_occupancy
  Li  Li0  1  0.82544400  0.18256700  0.33995500  1
  Li  Li1  1  0.39955200  0.03640600  0.09168400  1
  Li  Li2  1  0.06579600  0.40512000  0.83678100  1
  Fe  Fe0  1  0.59361100  0.60668100  0.87079900  1
  Fe  Fe1  1  0.91023000  0.89124200  0.11966700  1
  Fe  Fe2  1  0.15499800  0.47515300  0.61303700  1
  Fe  Fe3  1  0.34411600  0.01309000  0.37494000  1
  Fe  Fe4  1  0.65017900  0.98156100  0.62896100  1
  Fe  Fe5  1  0.85261000  0.53446300  0.36746000  1
  Fe  Fe6  1  0.09529800  0.08435500  0.86945100  1
  Fe  Fe7  1  0.39821800  0.39990200  0.12502400  1
  B  B0  1  0.35094500  0.34261000  0.36577900  1
  B  B1  1  0.11451300  0.76023200  0.87522700  1
  B  B2  1  0.85793000  0.86753700  0.37654100  1
  B  B3  1  0.59246800  0.27549000  0.87136900  1
  B  B4  1  0.14563600  0.14133300  0.62394600  1
  B  B5  1  0.40099700  0.72844100  0.12282600  1
  B  B6  1  0.65358900  0.64326100  0.62385700  1
  B  B7  1  0.89213300  0.23151500  0.12378800  1
  O  O0  1  0.88160100  0.76448500  0.91210200  1
  O  O1  1  0.52847900  0.54317300  0.66711900  1
  O  O2  1  0.77942500  0.10449800  0.13896200  1
  O  O3  1  0.46955500  0.20565800  0.36178200  1
  O  O4  1  0.12282300  0.37305800  0.41300800  1
  O  O5  1  0.20581400  0.60620800  0.82335000  1
  O  O6  1  0.71473700  0.40743500  0.86676200  1
  O  O7  1  0.96107300  0.98257400  0.33776400  1
  O  O8  1  0.30961100  0.88232500  0.17619600  1
  O  O9  1  0.36154700  0.09465900  0.57138800  1
  O  O10  1  0.06179400  0.28948900  0.64072200  1
  O  O11  1  0.60408100  0.72119400  0.06276400  1
  O  O12  1  0.36201500  0.28907100  0.91664800  1
  O  O13  1  0.63709100  0.90826600  0.42799200  1
  O  O14  1  0.69728700  0.12840300  0.82638900  1
  O  O15  1  0.02497700  0.03928900  0.66365800  1
  O  O16  1  0.28523800  0.59632200  0.12512900  1
  O  O17  1  0.77360500  0.37375000  0.15057800  1
  O  O18  1  0.87093700  0.59196400  0.57538100  1
  O  O19  1  0.55836500  0.78333400  0.62903200  1
  O  O20  1  0.96727500  0.73293200  0.36327400  1
  O  O21  1  0.25353900  0.89974700  0.89870200  1
  O  O22  1  0.45417600  0.44639700  0.32183900  1
  O  O23  1  0.13139800  0.21848500  0.08696800  1
loop_
_geom_bond_atom_site_label_1
_geom_bond_atom_site_label_2
_geom_bond_distance
_geom_bond_site_symmetry_2
Li0 O7 1.943648 1_545
Li0 O3 1.955862 1_555
Li0 O2 2.057460 1_555
Li0 O4 2.101016 1_655
Li1 O2 1.992908 1_555
Li1 O21 2.007383 1_544
Li1 O8 2.081193 1_545
Li1 O23 2.190081 1_555
Li2 O6 1.960607 1_455
Li2 O5 2.033762 1_555
Li2 O10 2.043882 1_555
Li2 O12 2.128717 1_555
Fe0 O6 1.903734 1_555
Fe0 O0 1.929464 1_555
Fe0 O11 1.994545 1_556
Fe0 O5 2.006290 1_555
Fe0 O1 2.093062 1_555
Fe1 O2 1.999789 1_565
Fe1 O11 2.036556 1_555
Fe1 O8 2.084227 1_655
Fe1 O0 2.141558 1_554
Fe1 O7 2.227142 1_555
Fe2 O10 1.907325 1_555
Fe2 O18 1.912096 1_455
Fe2 O1 1.956744 1_555
Fe2 O4 2.049148 1_555
Fe2 O5 2.155674 1_555
Fe3 O13 1.930820 1_545
Fe3 O3 1.932534 1_555
Fe3 O7 1.974824 1_445
Fe3 O9 2.030456 1_555
Fe3 O8 2.054895 1_545
Fe4 O19 1.856083 1_555
Fe4 O15 1.963474 1_665
Fe4 O9 1.979573 1_565
Fe4 O14 2.059641 1_565
Fe4 O13 2.090551 1_555
Fe5 O20 1.914033 1_555
Fe5 O22 2.130148 1_555
Fe5 O4 2.177775 1_655
Fe5 O18 2.182686 1_555
Fe5 O17 2.248791 1_555
Fe6 O21 1.983184 1_545
Fe6 O14 2.134400 1_455
Fe6 O12 2.138670 1_555
Fe6 O15 2.147697 1_555
Fe6 O23 2.240156 1_556
Fe7 O16 1.878002 1_555
Fe7 O17 1.975291 1_555
Fe7 O23 2.007168 1_555
Fe7 O22 2.051610 1_555
Fe7 O12 2.133390 1_554
B0 O3 1.381648 1_555
B0 O22 1.382128 1_555
B0 O4 1.411299 1_555
B1 O21 1.358767 1_555
B1 O0 1.382289 1_455
B1 O5 1.416752 1_555
B2 O20 1.320129 1_555
B2 O13 1.405974 1_555
B2 O7 1.426106 1_555
B3 O6 1.379410 1_555
B3 O14 1.391405 1_555
B3 O12 1.411888 1_555
B4 O10 1.368509 1_555
B4 O15 1.381946 1_555
B4 O9 1.394629 1_555
B5 O16 1.352464 1_555
B5 O11 1.381817 1_555
B5 O8 1.417736 1_555
B6 O19 1.351083 1_555
B6 O18 1.386795 1_555
B6 O1 1.408719 1_555
B7 O2 1.378294 1_555
B7 O17 1.388009 1_555
B7 O23 1.409821 1_655
