# generated using pymatgen
data_Co3WO8
_symmetry_space_group_name_H-M   'P 1'
_cell_length_a   5.78699900
_cell_length_b   5.78717613
_cell_length_c   9.18249100
_cell_angle_alpha   89.99704886
_cell_angle_beta   90.00143668
_cell_angle_gamma   120.00103050
_symmetry_Int_Tables_number   1
_chemical_formula_structural   Co3WO8
_chemical_formula_sum   'Co6 W2 O16'
_cell_volume   266.32181393
_cell_formula_units_Z   2
loop_
 _symmetry_equiv_pos_site_id
 _symmetry_equiv_pos_as_xyz
  1  'x, y, z'
loop_
 _atom_site_type_symbol
 _atom_site_label
 _atom_site_symmetry_multiplicity
 _atom_site_fract_x
 _atom_site_fract_y
 _atom_site_fract_z
 _atom_site_occupancy
  Co  Co0  1  0.16743800  0.83259700  0.21272000  1
  Co  Co1  1  0.16742800  0.33491800  0.21284400  1
  Co  Co2  1  0.66512900  0.83258200  0.21276100  1
  Co  Co3  1  0.33487100  0.16745300  0.71276100  1
  Co  Co4  1  0.83256200  0.66515900  0.71272000  1
  Co  Co5  1  0.83257100  0.16749000  0.71284400  1
  W  W0  1  0.33335100  0.66683400  0.49238400  1
  W  W1  1  0.66665000  0.33348300  0.99238400  1
  O  O0  1  0.16991800  0.83017100  0.59536500  1
  O  O1  1  0.04057300  0.52005000  0.33965800  1
  O  O2  1  0.33330900  0.66661800  0.11313400  1
  O  O3  1  0.00000200  0.00007000  0.30877000  1
  O  O4  1  0.99999800  0.00006800  0.80877000  1
  O  O5  1  0.16976700  0.33970100  0.59544900  1
  O  O6  1  0.47978700  0.95941300  0.33976300  1
  O  O7  1  0.47953000  0.52014100  0.33959600  1
  O  O8  1  0.33970000  0.16997100  0.09541500  1
  O  O9  1  0.66030000  0.83027100  0.59541500  1
  O  O10  1  0.52021300  0.47962600  0.83976300  1
  O  O11  1  0.52047000  0.04061100  0.83959600  1
  O  O12  1  0.66669100  0.33330900  0.61313500  1
  O  O13  1  0.83008200  0.66025300  0.09536500  1
  O  O14  1  0.95942700  0.47947700  0.83965800  1
  O  O15  1  0.83023300  0.16993400  0.09544800  1
loop_
_geom_bond_atom_site_label_1
_geom_bond_atom_site_label_2
_geom_bond_distance
_geom_bond_site_symmetry_2
Co0 O3 1.896143 1_565
Co0 O2 1.898015 1_555
Co0 O6 1.959630 1_555
Co0 O1 1.959877 1_555
Co0 O8 2.004865 1_565
Co0 O13 2.005040 1_455
Co1 O3 1.895273 1_555
Co1 O2 1.897833 1_555
Co1 O1 1.956910 1_555
Co1 O7 1.956968 1_555
Co1 O15 2.004558 1_455
Co1 O8 2.004908 1_555
Co2 O3 1.895728 1_665
Co2 O2 1.897984 1_555
Co2 O6 1.958726 1_555
Co2 O7 1.958871 1_555
Co2 O15 2.004812 1_565
Co2 O13 2.005015 1_555
Co3 O4 1.895727 1_455
Co3 O12 1.897979 1_555
Co3 O10 1.958727 1_555
Co3 O11 1.958872 1_555
Co3 O5 2.004808 1_555
Co3 O0 2.005015 1_545
Co4 O4 1.896143 1_565
Co4 O12 1.898010 1_555
Co4 O10 1.959629 1_555
Co4 O14 1.959878 1_555
Co4 O9 2.004866 1_555
Co4 O0 2.005039 1_655
Co5 O4 1.895278 1_555
Co5 O12 1.897825 1_555
Co5 O14 1.956910 1_555
Co5 O11 1.956963 1_555
Co5 O5 2.004556 1_655
Co5 O9 2.004909 1_545
O0 W0 1.891140 1_555
O1 W0 2.029707 1_555
O5 W0 1.893027 1_555
O6 W0 2.028304 1_555
O7 W0 2.030517 1_555
O8 W1 1.892070 1_554
O9 W0 1.892067 1_555
O10 W1 2.028309 1_555
O11 W1 2.030517 1_555
O13 W1 1.891140 1_554
O14 W1 2.029701 1_555
O15 W1 1.893019 1_554
