# generated using pymatgen
data_Li3Fe4(BO3)4
_symmetry_space_group_name_H-M   'P 1'
_cell_length_a   5.24167200
_cell_length_b   9.10279172
_cell_length_c   11.39611379
_cell_angle_alpha   112.52799829
_cell_angle_beta   102.70356456
_cell_angle_gamma   90.17554224
_symmetry_Int_Tables_number   1
_chemical_formula_structural   Li3Fe4(BO3)4
_chemical_formula_sum   'Li6 Fe8 B8 O24'
_cell_volume   487.65924689
_cell_formula_units_Z   2
loop_
 _symmetry_equiv_pos_site_id
 _symmetry_equiv_pos_as_xyz
  1  'x, y, z'
loop_
 _atom_site_type_symbol
 _atom_site_label
 _atom_site_symmetry_multiplicity
 _atom_site_fract_x
 _atom_site_fract_y
 _atom_site_fract_z
 _atom_site_occupancy
  Li  Li0  1  0.02901900  0.04024800  0.40628200  1
  Li  Li1  1  0.30147000  0.28229600  0.91226300  1
  Li  Li2  1  0.48926300  0.50945600  0.66694600  1
  Li  Li3  1  0.27012400  0.24915200  0.16982700  1
  Li  Li4  1  0.98076000  0.00589200  0.66414000  1
  Li  Li5  1  0.76792500  0.74417700  0.16023200  1
  Fe  Fe0  1  0.00892500  0.35809400  0.37948100  1
  Fe  Fe1  1  0.26812200  0.92497100  0.87989600  1
  Fe  Fe2  1  0.47858600  0.16055600  0.63269900  1
  Fe  Fe3  1  0.25015900  0.56379300  0.13192700  1
  Fe  Fe4  1  0.77572300  0.45132400  0.88557400  1
  Fe  Fe5  1  0.51965200  0.85099700  0.38452500  1
  Fe  Fe6  1  0.96248300  0.65029400  0.62830300  1
  Fe  Fe7  1  0.74862200  0.05954900  0.12567800  1
  B  B0  1  0.02067000  0.69299800  0.37990000  1
  B  B1  1  0.27167000  0.59989100  0.87513400  1
  B  B2  1  0.47463700  0.81628500  0.63145100  1
  B  B3  1  0.23894400  0.89613800  0.13025500  1
  B  B4  1  0.51863900  0.17565700  0.37130300  1
  B  B5  1  0.76104400  0.10430700  0.87585200  1
  B  B6  1  0.97720900  0.31424000  0.62484800  1
  B  B7  1  0.73380400  0.39546500  0.12591300  1
  O  O0  1  0.02154500  0.08740500  0.86374800  1
  O  O1  1  0.12018100  0.71422800  0.84548300  1
  O  O2  1  0.16828100  0.49519400  0.92005600  1
  O  O3  1  0.08472400  0.17037200  0.61305400  1
  O  O4  1  0.10373100  0.42702900  0.59683300  1
  O  O5  1  0.24439100  0.85470200  0.67787000  1
  O  O6  1  0.25807300  0.68059000  0.34132200  1
  O  O7  1  0.51949000  0.59295400  0.85774000  1
  O  O8  1  0.62224900  0.21793800  0.84269600  1
  O  O9  1  0.42189300  0.06592100  0.41698300  1
  O  O10  1  0.36590100  0.28760900  0.35258300  1
  O  O11  1  0.63745700  0.00639500  0.91861500  1
  O  O12  1  0.33540600  0.99882400  0.07982200  1
  O  O13  1  0.59190700  0.68441400  0.63089300  1
  O  O14  1  0.58205100  0.92126100  0.58515400  1
  O  O15  1  0.41143900  0.79879400  0.17333800  1
  O  O16  1  0.46282200  0.37584800  0.10932000  1
  O  O17  1  0.74088700  0.34286700  0.66254800  1
  O  O18  1  0.76577800  0.15759000  0.34367800  1
  O  O19  1  0.93578600  0.58985800  0.42628700  1
  O  O20  1  0.87491200  0.81797000  0.36805700  1
  O  O21  1  0.84247600  0.51783400  0.10108700  1
  O  O22  1  0.89325700  0.29125700  0.16280300  1
  O  O23  1  0.98576400  0.89522100  0.14103200  1
loop_
_geom_bond_atom_site_label_1
_geom_bond_atom_site_label_2
_geom_bond_distance
_geom_bond_site_symmetry_2
Li0 O18 1.927133 1_455
Li0 O20 2.023868 1_445
Li0 O9 2.043289 1_555
Li0 O3 2.144154 1_555
Li1 O8 2.008810 1_555
Li1 O2 2.038300 1_555
Li1 O16 2.044122 1_556
Li1 O0 2.116957 1_555
Li2 O13 1.894216 1_555
Li2 O7 1.977833 1_555
Li2 O17 2.006172 1_555
Li2 O4 2.026407 1_555
Li3 O10 1.921624 1_555
Li3 O16 1.932439 1_555
Li3 O22 2.003538 1_455
Li3 O12 2.174796 1_545
Li4 O3 1.918346 1_655
Li4 O5 1.977289 1_645
Li4 O0 2.064598 1_655
Li4 O14 2.098287 1_545
Li5 O23 1.890205 1_555
Li5 O15 1.957709 1_555
Li5 O21 1.977044 1_555
Li5 O20 2.137635 1_555
Fe0 O19 2.028526 1_455
Fe0 O10 2.028730 1_555
Fe0 O18 2.075664 1_455
Fe0 O22 2.241256 1_455
Fe0 O4 2.245392 1_555
Fe1 O1 1.927653 1_555
Fe1 O11 1.963872 1_565
Fe1 O0 2.001556 1_565
Fe1 O12 2.058834 1_556
Fe1 O5 2.114322 1_555
Fe2 O17 2.026789 1_555
Fe2 O3 2.033083 1_555
Fe2 O14 2.136488 1_545
Fe2 O8 2.194127 1_555
Fe2 O9 2.219943 1_555
Fe3 O16 2.009010 1_555
Fe3 O21 2.101569 1_455
Fe3 O15 2.133843 1_555
Fe3 O2 2.188890 1_554
Fe3 O6 2.199676 1_555
Fe4 O7 1.924373 1_555
Fe4 O2 2.016668 1_655
Fe4 O8 2.102486 1_555
Fe4 O21 2.236585 1_556
Fe4 O17 2.310827 1_555
Fe5 O6 1.906138 1_555
Fe5 O20 1.925391 1_555
Fe5 O9 1.939565 1_565
Fe5 O14 2.071930 1_555
Fe5 O15 2.204859 1_555
Fe6 O13 1.972888 1_555
Fe6 O4 2.091567 1_655
Fe6 O19 2.123602 1_555
Fe6 O5 2.185266 1_655
Fe6 O1 2.267412 1_655
Fe7 O23 1.982312 1_545
Fe7 O22 2.089924 1_555
Fe7 O12 2.131537 1_545
Fe7 O11 2.158828 1_554
Fe7 O18 2.275713 1_555
B0 O19 1.356494 1_455
B0 O6 1.399274 1_555
B0 O20 1.404877 1_455
B1 O7 1.354554 1_555
B1 O2 1.398841 1_555
B1 O1 1.408717 1_555
B2 O13 1.348786 1_555
B2 O5 1.414319 1_555
B2 O14 1.422031 1_555
B3 O23 1.359674 1_455
B3 O15 1.409533 1_555
B3 O12 1.412896 1_555
B4 O10 1.349616 1_555
B4 O18 1.394730 1_555
B4 O9 1.427387 1_555
B5 O11 1.385512 1_555
B5 O8 1.387496 1_555
B5 O0 1.405363 1_655
B6 O4 1.391391 1_655
B6 O17 1.391826 1_555
B6 O3 1.397739 1_655
B7 O22 1.389608 1_555
B7 O16 1.392702 1_555
B7 O21 1.397771 1_555
