# generated using pymatgen
data_Li3Mn10O20
_symmetry_space_group_name_H-M   'P 1'
_cell_length_a   5.89207024
_cell_length_b   5.85817018
_cell_length_c   29.77496903
_cell_angle_alpha   60.53641310
_cell_angle_beta   60.08477295
_cell_angle_gamma   60.19014457
_symmetry_Int_Tables_number   1
_chemical_formula_structural   Li3Mn10O20
_chemical_formula_sum   'Li6 Mn20 O40'
_cell_volume   731.14209459
_cell_formula_units_Z   2
loop_
 _symmetry_equiv_pos_site_id
 _symmetry_equiv_pos_as_xyz
  1  'x, y, z'
loop_
 _atom_site_type_symbol
 _atom_site_label
 _atom_site_symmetry_multiplicity
 _atom_site_fract_x
 _atom_site_fract_y
 _atom_site_fract_z
 _atom_site_occupancy
  Li  Li0  1  0.13403400  0.14447100  0.61540500  1
  Li  Li1  1  0.87487600  0.85768500  0.18195100  1
  Li  Li2  1  0.85002300  0.87674100  0.37929900  1
  Li  Li3  1  0.86379800  0.89020100  0.57116000  1
  Li  Li4  1  0.89954400  0.89090400  0.76373000  1
  Li  Li5  1  0.88818100  0.89399400  0.96476600  1
  Mn  Mn0  1  0.13913200  0.09695600  0.23339100  1
  Mn  Mn1  1  0.01398700  0.47901400  0.10559700  1
  Mn  Mn2  1  0.51510800  0.48013800  0.10388600  1
  Mn  Mn3  1  0.50441900  0.48398600  0.20552200  1
  Mn  Mn4  1  0.15168200  0.11373200  0.42417100  1
  Mn  Mn5  1  0.51510800  0.98532400  0.10388600  1
  Mn  Mn6  1  0.50850400  0.48937200  0.30433600  1
  Mn  Mn7  1  0.50793500  0.49670800  0.39973000  1
  Mn  Mn8  1  0.50850400  0.98044400  0.30433600  1
  Mn  Mn9  1  0.50194400  0.50293400  0.49887100  1
  Mn  Mn10  1  0.01367100  0.51267000  0.69219800  1
  Mn  Mn11  1  0.50567000  0.51632500  0.59233600  1
  Mn  Mn12  1  0.50194400  0.00076600  0.49887100  1
  Mn  Mn13  1  0.51047000  0.51461200  0.69155500  1
  Mn  Mn14  1  0.02256900  0.52203600  0.88667200  1
  Mn  Mn15  1  0.51047000  0.01714400  0.69155500  1
  Mn  Mn16  1  0.52232300  0.01860300  0.88760600  1
  Mn  Mn17  1  0.52352100  0.51268000  0.79022400  1
  Mn  Mn18  1  0.52232300  0.52104600  0.88760600  1
  Mn  Mn19  1  0.51556300  0.50057000  0.99665900  1
  O  O0  1  0.26218900  0.23039000  0.06451100  1
  O  O1  1  0.27404800  0.24310500  0.14794800  1
  O  O2  1  0.26218900  0.68486600  0.06451100  1
  O  O3  1  0.71168300  0.24230500  0.06074100  1
  O  O4  1  0.30197600  0.23881700  0.25304300  1
  O  O5  1  0.30700100  0.71403200  0.15298700  1
  O  O6  1  0.74845100  0.27500500  0.15196500  1
  O  O7  1  0.75724700  0.71479100  0.06263400  1
  O  O8  1  0.28841800  0.24438300  0.34456300  1
  O  O9  1  0.30197600  0.69399200  0.25304300  1
  O  O10  1  0.72075700  0.24630300  0.25732700  1
  O  O11  1  0.74845100  0.71671800  0.15196500  1
  O  O12  1  0.28749600  0.25226200  0.45023400  1
  O  O13  1  0.28803200  0.73065200  0.35013300  1
  O  O14  1  0.70616500  0.74242300  0.26179800  1
  O  O15  1  0.70590600  0.28015500  0.35323100  1
  O  O16  1  0.29900300  0.25509500  0.53816100  1
  O  O17  1  0.28749600  0.70907300  0.45023400  1
  O  O18  1  0.72310900  0.26040500  0.45121600  1
  O  O19  1  0.70590600  0.74778300  0.35323100  1
  O  O20  1  0.28452100  0.74707100  0.54426800  1
  O  O21  1  0.25244500  0.28675600  0.64610100  1
  O  O22  1  0.69594900  0.29162500  0.54990400  1
  O  O23  1  0.70228100  0.75419800  0.45786500  1
  O  O24  1  0.25244500  0.73029200  0.64610100  1
  O  O25  1  0.27614000  0.28421300  0.73108700  1
  O  O26  1  0.69594900  0.76290600  0.54990400  1
  O  O27  1  0.71401400  0.28350000  0.64379700  1
  O  O28  1  0.29075600  0.28421000  0.84043400  1
  O  O29  1  0.31003500  0.74582500  0.73966300  1
  O  O30  1  0.76055900  0.29910700  0.73984000  1
  O  O31  1  0.74987800  0.74463500  0.65217000  1
  O  O32  1  0.28678700  0.29052300  0.92643300  1
  O  O33  1  0.29075600  0.72286400  0.84043400  1
  O  O34  1  0.72422800  0.28594200  0.84077800  1
  O  O35  1  0.76055900  0.74113500  0.73984000  1
  O  O36  1  0.31420100  0.76335600  0.93181800  1
  O  O37  1  0.77119600  0.30987800  0.92990100  1
  O  O38  1  0.75830700  0.75592800  0.84596700  1
  O  O39  1  0.77119600  0.76942300  0.92990100  1
loop_
_geom_bond_atom_site_label_1
_geom_bond_atom_site_label_2
_geom_bond_distance
_geom_bond_site_symmetry_2
Li0 O16 1.893331 1_555
Li0 O21 1.995131 1_555
Li0 O24 1.995145 1_545
Li0 O27 2.022159 1_455
Li1 O14 1.956323 1_555
Li1 O6 2.008546 1_565
Li1 O11 2.008555 1_555
Li1 O5 2.080405 1_655
Li2 O23 1.919269 1_555
Li2 O15 1.940678 1_565
Li2 O19 1.940682 1_555
Li2 O13 2.108721 1_655
Li3 O26 1.938191 1_555
Li3 O22 1.938191 1_565
Li3 O31 1.981556 1_555
Li3 O20 2.025673 1_655
Li4 O30 1.963588 1_565
Li4 O35 1.963593 1_555
Li4 O29 1.977948 1_655
Li4 O38 2.007617 1_555
Li5 O39 2.011069 1_555
Li5 O37 2.011083 1_565
Li5 O36 2.054583 1_655
Li5 O7 2.396301 1_556
Mn0 O9 1.945450 1_545
Mn0 O4 1.945455 1_555
Mn0 O10 2.016635 1_455
Mn0 O1 2.086618 1_555
Mn1 O0 1.899257 1_555
Mn1 O2 1.899257 1_555
Mn1 O11 1.965609 1_455
Mn1 O6 1.965613 1_455
Mn1 O7 1.986740 1_455
Mn1 O1 1.988828 1_555
Mn2 O3 1.898737 1_555
Mn2 O2 1.901597 1_555
Mn2 O7 1.993691 1_555
Mn2 O1 1.994212 1_555
Mn2 O6 2.002960 1_555
Mn2 O5 2.007601 1_555
Mn3 O9 1.873058 1_555
Mn3 O4 1.873062 1_555
Mn3 O5 1.948981 1_555
Mn3 O11 1.998112 1_555
Mn3 O6 1.998120 1_555
Mn3 O10 2.006617 1_555
Mn4 O8 1.943436 1_555
Mn4 O12 1.945704 1_555
Mn4 O17 1.945705 1_545
Mn4 O18 2.063607 1_455
Mn5 O3 1.898728 1_565
Mn5 O0 1.901597 1_565
Mn5 O7 1.993695 1_555
Mn5 O1 1.994204 1_565
Mn5 O11 2.002960 1_555
Mn5 O5 2.007601 1_555
Mn6 O15 1.868365 1_555
Mn6 O14 1.885815 1_555
Mn6 O8 1.945787 1_555
Mn6 O13 1.961744 1_555
Mn6 O9 1.962815 1_555
Mn6 O10 1.998727 1_555
Mn7 O19 1.879508 1_555
Mn7 O15 1.879517 1_555
Mn7 O17 1.944647 1_555
Mn7 O12 1.944647 1_555
Mn7 O13 1.972271 1_555
Mn7 O18 1.994928 1_555
Mn8 O19 1.868365 1_555
Mn8 O14 1.885811 1_555
Mn8 O8 1.945782 1_565
Mn8 O13 1.961740 1_555
Mn8 O4 1.962815 1_565
Mn8 O10 1.998718 1_565
Mn9 O16 1.888459 1_555
Mn9 O23 1.890162 1_555
Mn9 O22 1.903453 1_555
Mn9 O17 1.933831 1_555
Mn9 O20 1.966372 1_555
Mn9 O18 2.007037 1_555
Mn10 O24 1.903761 1_555
Mn10 O21 1.903773 1_555
Mn10 O25 1.930636 1_555
Mn10 O35 1.949541 1_455
Mn10 O30 1.949541 1_455
Mn10 O31 1.958920 1_455
Mn11 O22 1.828056 1_555
Mn11 O26 1.828056 1_555
Mn11 O20 1.944020 1_555
Mn11 O27 1.967378 1_555
Mn11 O24 2.022911 1_555
Mn11 O21 2.022919 1_555
Mn12 O16 1.888455 1_555
Mn12 O23 1.890148 1_545
Mn12 O26 1.903452 1_545
Mn12 O12 1.933832 1_555
Mn12 O20 1.966355 1_545
Mn12 O18 2.007037 1_555
Mn13 O25 1.944857 1_555
Mn13 O31 1.966266 1_555
Mn13 O27 1.967722 1_555
Mn13 O29 1.977893 1_555
Mn13 O24 2.049305 1_555
Mn13 O30 2.076061 1_555
Mn14 O37 1.936515 1_455
Mn14 O39 1.936519 1_455
Mn14 O32 1.955541 1_555
Mn14 O33 1.965083 1_555
Mn14 O28 1.965087 1_555
Mn14 O38 1.974387 1_455
Mn15 O25 1.944857 1_555
Mn15 O31 1.966280 1_545
Mn15 O27 1.967714 1_555
Mn15 O29 1.977898 1_545
Mn15 O21 2.049304 1_555
Mn15 O35 2.076061 1_545
Mn16 O36 1.936252 1_545
Mn16 O39 1.942246 1_545
Mn16 O32 1.952781 1_555
Mn16 O34 1.965156 1_555
Mn16 O38 1.966814 1_545
Mn16 O28 1.976411 1_555
Mn17 O34 1.917147 1_555
Mn17 O33 1.928429 1_555
Mn17 O28 1.928433 1_555
Mn17 O30 1.945702 1_555
Mn17 O35 1.945703 1_555
Mn17 O29 1.967746 1_555
Mn18 O36 1.936256 1_555
Mn18 O37 1.942246 1_555
Mn18 O32 1.952799 1_555
Mn18 O34 1.965156 1_555
Mn18 O38 1.966796 1_555
Mn18 O33 1.976412 1_555
Mn19 O3 2.210443 1_556
Mn19 O37 2.234467 1_555
Mn19 O39 2.234481 1_555
Mn19 O0 2.238471 1_556
Mn19 O2 2.238478 1_556
Mn19 O36 2.247192 1_555
