# generated using pymatgen
data_Li3Fe8(BO3)8
_symmetry_space_group_name_H-M   'P 1'
_cell_length_a   5.31237200
_cell_length_b   9.03637258
_cell_length_c   10.13637148
_cell_angle_alpha   89.44712684
_cell_angle_beta   88.89420177
_cell_angle_gamma   89.53189565
_symmetry_Int_Tables_number   1
_chemical_formula_structural   Li3Fe8(BO3)8
_chemical_formula_sum   'Li3 Fe8 B8 O24'
_cell_volume   486.46339984
_cell_formula_units_Z   1
loop_
 _symmetry_equiv_pos_site_id
 _symmetry_equiv_pos_as_xyz
  1  'x, y, z'
loop_
 _atom_site_type_symbol
 _atom_site_label
 _atom_site_symmetry_multiplicity
 _atom_site_fract_x
 _atom_site_fract_y
 _atom_site_fract_z
 _atom_site_occupancy
  Li  Li0  1  0.35045800  0.99342300  0.09320100  1
  Li  Li1  1  0.15160700  0.48634300  0.84517800  1
  Li  Li2  1  0.65632500  0.00932800  0.35383800  1
  Fe  Fe0  1  0.85113100  0.83208900  0.11878600  1
  Fe  Fe1  1  0.16012600  0.82882200  0.37273800  1
  Fe  Fe2  1  0.65877400  0.66994600  0.87635200  1
  Fe  Fe3  1  0.34949000  0.66801100  0.62211800  1
  Fe  Fe4  1  0.66474500  0.33847500  0.36047600  1
  Fe  Fe5  1  0.83835700  0.17142000  0.62744800  1
  Fe  Fe6  1  0.32837200  0.34451800  0.12145400  1
  Fe  Fe7  1  0.16416300  0.15117900  0.86998300  1
  B  B0  1  0.83379900  0.83549200  0.62040100  1
  B  B1  1  0.67303600  0.67087400  0.37636700  1
  B  B2  1  0.17277600  0.82200300  0.87541700  1
  B  B3  1  0.33374200  0.67284300  0.12102000  1
  B  B4  1  0.65570200  0.33873200  0.86529300  1
  B  B5  1  0.34081900  0.32902500  0.61851900  1
  B  B6  1  0.83577700  0.16370600  0.12982100  1
  B  B7  1  0.16950900  0.16578500  0.37095500  1
  O  O0  1  0.73628900  0.97286100  0.61065900  1
  O  O1  1  0.92287000  0.80845000  0.91034200  1
  O  O2  1  0.30059100  0.94795400  0.89533500  1
  O  O3  1  0.80050400  0.80049100  0.33978000  1
  O  O4  1  0.69478900  0.71673900  0.67143300  1
  O  O5  1  0.22460200  0.80354900  0.17805300  1
  O  O6  1  0.07903300  0.80474600  0.57284600  1
  O  O7  1  0.57301300  0.69128500  0.06576600  1
  O  O8  1  0.77255100  0.53558300  0.36604000  1
  O  O9  1  0.42675000  0.69209900  0.42827000  1
  O  O10  1  0.29377500  0.69255300  0.82455500  1
  O  O11  1  0.78133200  0.47220000  0.86644900  1
  O  O12  1  0.20264700  0.54810600  0.11602200  1
  O  O13  1  0.71143800  0.29460200  0.16828400  1
  O  O14  1  0.58191400  0.30774500  0.56354400  1
  O  O15  1  0.25615500  0.46922900  0.64638600  1
  O  O16  1  0.40537200  0.32895800  0.90444000  1
  O  O17  1  0.91262700  0.17710700  0.40780900  1
  O  O18  1  0.78934500  0.21449300  0.81973700  1
  O  O19  1  0.30583300  0.28950600  0.33823300  1
  O  O20  1  0.19458600  0.20784900  0.65059700  1
  O  O21  1  0.70439700  0.03348700  0.14282700  1
  O  O22  1  0.08517400  0.16572600  0.08574100  1
  O  O23  1  0.28110900  0.02704700  0.36607900  1
loop_
_geom_bond_atom_site_label_1
_geom_bond_atom_site_label_2
_geom_bond_distance
_geom_bond_site_symmetry_2
Li0 O21 1.992639 1_565
Li0 O5 2.024529 1_555
Li0 O2 2.073594 1_554
Li0 O22 2.093329 1_565
Li1 O11 1.979714 1_455
Li1 O10 2.023786 1_555
Li1 O16 2.045548 1_555
Li1 O15 2.086658 1_555
Li2 O23 1.999962 1_555
Li2 O3 2.036068 1_545
Li2 O17 2.128438 1_555
Li2 O21 2.158362 1_555
Fe0 O21 1.989252 1_565
Fe0 O7 2.040880 1_555
Fe0 O5 2.097234 1_655
Fe0 O1 2.152062 1_554
Fe0 O3 2.266598 1_555
Fe1 O23 1.908128 1_565
Fe1 O9 1.959138 1_555
Fe1 O3 1.965000 1_455
Fe1 O5 2.011246 1_555
Fe1 O6 2.075208 1_555
Fe2 O11 1.899720 1_555
Fe2 O1 1.925916 1_555
Fe2 O7 1.975597 1_556
Fe2 O10 2.026797 1_555
Fe2 O4 2.121066 1_555
Fe3 O15 1.879962 1_555
Fe3 O6 1.956323 1_555
Fe3 O4 1.965060 1_555
Fe3 O9 2.009678 1_555
Fe3 O10 2.081264 1_555
Fe4 O8 1.877096 1_555
Fe4 O19 1.978472 1_555
Fe4 O13 2.002139 1_555
Fe4 O17 2.017441 1_555
Fe4 O14 2.112733 1_555
Fe5 O0 1.888826 1_545
Fe5 O20 1.942547 1_655
Fe5 O14 1.945322 1_555
Fe5 O18 2.002929 1_555
Fe5 O17 2.253693 1_555
Fe6 O12 1.952688 1_555
Fe6 O22 2.115162 1_555
Fe6 O13 2.141989 1_555
Fe6 O16 2.235224 1_554
Fe6 O19 2.249344 1_555
Fe7 O2 1.984961 1_545
Fe7 O16 2.099157 1_555
Fe7 O18 2.136914 1_455
Fe7 O22 2.223863 1_556
Fe7 O20 2.280143 1_555
B0 O0 1.344640 1_555
B0 O4 1.397121 1_555
B0 O6 1.406841 1_655
B1 O8 1.332222 1_555
B1 O3 1.401010 1_555
B1 O9 1.413035 1_555
B2 O2 1.348896 1_555
B2 O1 1.373502 1_455
B2 O10 1.426140 1_555
B3 O12 1.331682 1_555
B3 O7 1.389721 1_555
B3 O5 1.433330 1_555
B4 O11 1.383429 1_555
B4 O16 1.383699 1_555
B4 O18 1.400712 1_555
B5 O15 1.371093 1_555
B5 O20 1.380397 1_555
B5 O14 1.399432 1_555
B6 O21 1.376958 1_555
B6 O22 1.390214 1_655
B6 O13 1.404841 1_555
B7 O19 1.371563 1_555
B7 O23 1.383322 1_555
B7 O17 1.411055 1_455
