# generated using pymatgen
data_H21OsC9NO7
_symmetry_space_group_name_H-M   'P 1'
_cell_length_a   12.75175300
_cell_length_b   9.37846800
_cell_length_c   14.88062235
_cell_angle_alpha   58.59004629
_cell_angle_beta   90.00000000
_cell_angle_gamma   90.00000000
_symmetry_Int_Tables_number   1
_chemical_formula_structural   H21OsC9NO7
_chemical_formula_sum   'H84 Os4 C36 N4 O28'
_cell_volume   1518.81961651
_cell_formula_units_Z   4
loop_
 _symmetry_equiv_pos_site_id
 _symmetry_equiv_pos_as_xyz
  1  'x, y, z'
loop_
 _atom_site_type_symbol
 _atom_site_label
 _atom_site_symmetry_multiplicity
 _atom_site_fract_x
 _atom_site_fract_y
 _atom_site_fract_z
 _atom_site_occupancy
  H  H0  1  0.71608900  0.77039500  0.92004200  1
  H  H1  1  0.78391100  0.77039500  0.42004200  1
  H  H2  1  0.28391100  0.22960500  0.07995800  1
  H  H3  1  0.21608900  0.22960500  0.57995800  1
  H  H4  1  0.64224700  0.92499200  0.92913000  1
  H  H5  1  0.85775300  0.92499200  0.42913000  1
  H  H6  1  0.35775300  0.07500800  0.07087000  1
  H  H7  1  0.14224700  0.07500800  0.57087000  1
  H  H8  1  0.57719600  0.74478000  0.94136700  1
  H  H9  1  0.92280400  0.74478000  0.44136700  1
  H  H10  1  0.42280400  0.25522000  0.05863300  1
  H  H11  1  0.07719600  0.25522000  0.55863300  1
  H  H12  1  0.81512000  0.43676100  0.57216000  1
  H  H13  1  0.68488000  0.43676100  0.07216000  1
  H  H14  1  0.18488000  0.56323900  0.42784000  1
  H  H15  1  0.31512000  0.56323900  0.92784000  1
  H  H16  1  0.90579300  0.28487100  0.57892700  1
  H  H17  1  0.59420700  0.28487100  0.07892700  1
  H  H18  1  0.09420700  0.71512900  0.42107300  1
  H  H19  1  0.40579300  0.71512900  0.92107300  1
  H  H20  1  0.84574200  0.43301300  0.45554100  1
  H  H21  1  0.65425800  0.43301300  0.95554100  1
  H  H22  1  0.15425800  0.56698700  0.54445900  1
  H  H23  1  0.34574200  0.56698700  0.04445900  1
  H  H24  1  0.58248800  0.18007000  0.25906400  1
  H  H25  1  0.91751200  0.18007000  0.75906400  1
  H  H26  1  0.41751200  0.81993000  0.74093600  1
  H  H27  1  0.08248800  0.81993000  0.24093600  1
  H  H28  1  0.69330800  0.18386200  0.33282500  1
  H  H29  1  0.80669200  0.18386200  0.83282500  1
  H  H30  1  0.30669200  0.81613800  0.66717500  1
  H  H31  1  0.19330800  0.81613800  0.16717500  1
  H  H32  1  0.63916400  0.98987200  0.36082500  1
  H  H33  1  0.86083600  0.98987200  0.86082500  1
  H  H34  1  0.36083600  0.01012800  0.63917500  1
  H  H35  1  0.13916400  0.01012800  0.13917500  1
  H  H36  1  0.55176800  0.41723700  0.41763100  1
  H  H37  1  0.94823200  0.41723700  0.91763100  1
  H  H38  1  0.44823200  0.58276300  0.58236900  1
  H  H39  1  0.05176800  0.58276300  0.08236900  1
  H  H40  1  0.55271400  0.61589200  0.40932300  1
  H  H41  1  0.94728600  0.61589200  0.90932300  1
  H  H42  1  0.44728600  0.38410800  0.59067700  1
  H  H43  1  0.05271400  0.38410800  0.09067700  1
  H  H44  1  0.65983200  0.56219300  0.35475400  1
  H  H45  1  0.84016800  0.56219300  0.85475400  1
  H  H46  1  0.34016800  0.43780700  0.64524600  1
  H  H47  1  0.15983200  0.43780700  0.14524600  1
  H  H48  1  0.38163100  0.48449800  0.33650700  1
  H  H49  1  0.11836900  0.48449800  0.83650700  1
  H  H50  1  0.61836900  0.51550200  0.66349300  1
  H  H51  1  0.88163100  0.51550200  0.16349300  1
  H  H52  1  0.36205700  0.67617700  0.21154300  1
  H  H53  1  0.13794300  0.67617700  0.71154300  1
  H  H54  1  0.63794300  0.32382300  0.78845700  1
  H  H55  1  0.86205700  0.32382300  0.28845700  1
  H  H56  1  0.38428400  0.68475400  0.32740100  1
  H  H57  1  0.11571600  0.68475400  0.82740100  1
  H  H58  1  0.61571600  0.31524600  0.67259900  1
  H  H59  1  0.88428400  0.31524600  0.17259900  1
  H  H60  1  0.63222200  0.82103100  0.18736000  1
  H  H61  1  0.86777800  0.82103100  0.68736000  1
  H  H62  1  0.36777800  0.17896900  0.81264000  1
  H  H63  1  0.13222200  0.17896900  0.31264000  1
  H  H64  1  0.52584000  0.86977600  0.24818900  1
  H  H65  1  0.97416000  0.86977600  0.74818900  1
  H  H66  1  0.47416000  0.13022400  0.75181100  1
  H  H67  1  0.02584000  0.13022400  0.25181100  1
  H  H68  1  0.50422000  0.86833800  0.12972700  1
  H  H69  1  0.99578000  0.86833800  0.62972700  1
  H  H70  1  0.49578000  0.13166200  0.87027300  1
  H  H71  1  0.00422000  0.13166200  0.37027300  1
  H  H72  1  0.63246500  0.55400400  0.19857600  1
  H  H73  1  0.86753500  0.55400400  0.69857600  1
  H  H74  1  0.36753500  0.44599600  0.80142400  1
  H  H75  1  0.13246500  0.44599600  0.30142400  1
  H  H76  1  0.51476300  0.42790600  0.23826000  1
  H  H77  1  0.98523700  0.42790600  0.73826000  1
  H  H78  1  0.48523700  0.57209400  0.76174000  1
  H  H79  1  0.01476300  0.57209400  0.26174000  1
  H  H80  1  0.51426500  0.63599700  0.12451400  1
  H  H81  1  0.98573500  0.63599700  0.62451400  1
  H  H82  1  0.48573500  0.36400300  0.87548600  1
  H  H83  1  0.01426500  0.36400300  0.37548600  1
  Os  Os0  1  0.60640100  0.99681900  0.57475200  1
  Os  Os1  1  0.89359900  0.99681900  0.07475200  1
  Os  Os2  1  0.39359900  0.00318100  0.42524800  1
  Os  Os3  1  0.10640100  0.00318100  0.92524800  1
  C  C0  1  0.64183900  0.85466800  0.73582300  1
  C  C1  1  0.85816100  0.85466800  0.23582300  1
  C  C2  1  0.35816100  0.14533200  0.26417700  1
  C  C3  1  0.14183900  0.14533200  0.76417700  1
  C  C4  1  0.74806700  0.12840900  0.54122000  1
  C  C5  1  0.75193300  0.12840900  0.04122000  1
  C  C6  1  0.25193300  0.87159100  0.45878000  1
  C  C7  1  0.24806700  0.87159100  0.95878000  1
  C  C8  1  0.64088900  0.83605700  0.90244600  1
  C  C9  1  0.85911100  0.83605700  0.40244600  1
  C  C10  1  0.35911100  0.16394300  0.09755400  1
  C  C11  1  0.14088900  0.16394300  0.59755400  1
  C  C12  1  0.83425700  0.35643100  0.54119200  1
  C  C13  1  0.66574300  0.35643100  0.04119200  1
  C  C14  1  0.16574300  0.64356900  0.45880800  1
  C  C15  1  0.33425700  0.64356900  0.95880800  1
  C  C16  1  0.61948700  0.11919700  0.33745400  1
  C  C17  1  0.88051300  0.11919700  0.83745400  1
  C  C18  1  0.38051300  0.88080300  0.66254600  1
  C  C19  1  0.11948700  0.88080300  0.16254600  1
  C  C20  1  0.57537700  0.54848100  0.37038100  1
  C  C21  1  0.92462300  0.54848100  0.87038100  1
  C  C22  1  0.42462300  0.45151900  0.62961900  1
  C  C23  1  0.07537700  0.45151900  0.12961900  1
  C  C24  1  0.40247700  0.61695700  0.28756900  1
  C  C25  1  0.09752300  0.61695700  0.78756900  1
  C  C26  1  0.59752300  0.38304300  0.71243100  1
  C  C27  1  0.90247700  0.38304300  0.21243100  1
  C  C28  1  0.54805400  0.81132000  0.20370700  1
  C  C29  1  0.95194600  0.81132000  0.70370700  1
  C  C30  1  0.45194600  0.18868000  0.79629300  1
  C  C31  1  0.04805400  0.18868000  0.29629300  1
  C  C32  1  0.54681500  0.55404400  0.20333100  1
  C  C33  1  0.95318500  0.55404400  0.70333100  1
  C  C34  1  0.45318500  0.44595600  0.79666900  1
  C  C35  1  0.04681500  0.44595600  0.29666900  1
  N  N0  1  0.51829600  0.63019800  0.26706600  1
  N  N1  1  0.98170400  0.63019800  0.76706600  1
  N  N2  1  0.48170400  0.36980200  0.73293400  1
  N  N3  1  0.01829600  0.36980200  0.23293400  1
  O  O0  1  0.53893100  0.15012400  0.58662100  1
  O  O1  1  0.96106900  0.15012400  0.08662100  1
  O  O2  1  0.46106900  0.84987600  0.41337900  1
  O  O3  1  0.03893100  0.84987600  0.91337900  1
  O  O4  1  0.66209900  0.84086700  0.55873100  1
  O  O5  1  0.83790100  0.84086700  0.05873100  1
  O  O6  1  0.33790100  0.15913300  0.44126900  1
  O  O7  1  0.16209900  0.15913300  0.94126900  1
  O  O8  1  0.54971700  0.12226100  0.41066800  1
  O  O9  1  0.95028300  0.12226100  0.91066800  1
  O  O10  1  0.45028300  0.87773900  0.58933200  1
  O  O11  1  0.04971700  0.87773900  0.08933200  1
  O  O12  1  0.62244100  0.93439600  0.78965100  1
  O  O13  1  0.87755900  0.93439600  0.28965100  1
  O  O14  1  0.37755900  0.06560400  0.21034900  1
  O  O15  1  0.12244100  0.06560400  0.71034900  1
  O  O16  1  0.67254200  0.70885900  0.78273200  1
  O  O17  1  0.82745800  0.70885900  0.28273200  1
  O  O18  1  0.32745800  0.29114100  0.21726800  1
  O  O19  1  0.17254200  0.29114100  0.71726800  1
  O  O20  1  0.82594700  0.11270000  0.49839300  1
  O  O21  1  0.67405300  0.11270000  0.99839300  1
  O  O22  1  0.17405300  0.88730000  0.50160700  1
  O  O23  1  0.32594700  0.88730000  0.00160700  1
  O  O24  1  0.74463700  0.24732600  0.56856500  1
  O  O25  1  0.75536300  0.24732600  0.06856500  1
  O  O26  1  0.25536300  0.75267400  0.43143500  1
  O  O27  1  0.24463700  0.75267400  0.93143500  1
loop_
_geom_bond_atom_site_label_1
_geom_bond_atom_site_label_2
_geom_bond_distance
_geom_bond_site_symmetry_2
C0 O16 1.231084 1_555
C0 O12 1.373369 1_555
C0 Os0 2.096609 1_555
C1 O17 1.231084 1_555
C1 O13 1.373369 1_555
C1 Os1 2.096609 1_555
C2 O18 1.231084 1_555
C2 O14 1.373369 1_555
C2 Os2 2.096609 1_555
C3 O19 1.231084 1_555
C3 O15 1.373369 1_555
C3 Os3 2.096609 1_555
C4 O20 1.229622 1_555
C4 O24 1.372701 1_555
C4 Os0 2.096083 1_545
C5 O21 1.229622 1_554
C5 O25 1.372701 1_555
C5 Os1 2.096083 1_545
C6 O22 1.229622 1_555
C6 O26 1.372701 1_555
C6 Os2 2.096083 1_565
C7 O23 1.229622 1_556
C7 O27 1.372701 1_555
C7 Os3 2.096083 1_565
C8 H4 1.094921 1_555
C8 H0 1.095109 1_555
C8 H8 1.100515 1_555
C8 O12 1.452464 1_555
C9 H5 1.094921 1_555
C9 H1 1.095109 1_555
C9 H9 1.100515 1_555
C9 O13 1.452464 1_555
C10 H6 1.094921 1_555
C10 H2 1.095109 1_555
C10 H10 1.100515 1_555
C10 O14 1.452464 1_555
C11 H7 1.094921 1_555
C11 H3 1.095109 1_555
C11 H11 1.100515 1_555
C11 O15 1.452464 1_555
C12 H12 1.096057 1_555
C12 H16 1.097744 1_555
C12 H20 1.098911 1_555
C12 O24 1.443787 1_555
C13 H13 1.096057 1_555
C13 H17 1.097744 1_555
C13 H21 1.098911 1_554
C13 O25 1.443787 1_555
C14 H14 1.096057 1_555
C14 H18 1.097744 1_555
C14 H22 1.098911 1_555
C14 O26 1.443787 1_555
C15 H15 1.096057 1_555
C15 H19 1.097744 1_555
C15 H23 1.098911 1_556
C15 O27 1.443787 1_555
C16 H24 1.102315 1_555
C16 H28 1.102329 1_555
C16 H32 1.102409 1_545
C16 O8 1.418432 1_555
C17 H25 1.102315 1_555
C17 H29 1.102329 1_555
C17 H33 1.102409 1_545
C17 O9 1.418432 1_555
C18 H26 1.102315 1_555
C18 H30 1.102329 1_555
C18 H34 1.102409 1_565
C18 O10 1.418432 1_555
C19 H27 1.102315 1_555
C19 H31 1.102329 1_555
C19 H35 1.102409 1_565
C19 O11 1.418432 1_555
C20 H36 1.094521 1_555
C20 H44 1.095108 1_555
C20 H40 1.095840 1_555
C20 N0 1.500880 1_555
C21 H37 1.094521 1_555
C21 H45 1.095108 1_555
C21 H41 1.095840 1_555
C21 N1 1.500880 1_555
C22 H38 1.094521 1_555
C22 H46 1.095108 1_555
C22 H42 1.095840 1_555
C22 N2 1.500880 1_555
C23 H39 1.094521 1_555
C23 H47 1.095108 1_555
C23 H43 1.095840 1_555
C23 N3 1.500880 1_555
C24 H52 1.095027 1_555
C24 H48 1.096021 1_555
C24 H56 1.096470 1_555
C24 N0 1.500078 1_555
C25 H53 1.095027 1_555
C25 H49 1.096021 1_555
C25 H57 1.096470 1_555
C25 N1 1.500078 1_455
C26 H54 1.095027 1_555
C26 H50 1.096021 1_555
C26 H58 1.096470 1_555
C26 N2 1.500078 1_555
C27 H55 1.095027 1_555
C27 H51 1.096021 1_555
C27 H59 1.096470 1_555
C27 N3 1.500078 1_655
C28 H60 1.093767 1_555
C28 H68 1.093941 1_555
C28 H64 1.094153 1_555
C28 N0 1.499673 1_555
C29 H61 1.093767 1_555
C29 H69 1.093941 1_555
C29 H65 1.094153 1_555
C29 N1 1.499673 1_555
C30 H62 1.093767 1_555
C30 H70 1.093941 1_555
C30 H66 1.094153 1_555
C30 N2 1.499673 1_555
C31 H63 1.093767 1_555
C31 H71 1.093941 1_555
C31 H67 1.094153 1_555
C31 N3 1.499673 1_555
C32 H76 1.093508 1_555
C32 H72 1.094490 1_555
C32 H80 1.094988 1_555
C32 N0 1.499290 1_555
C33 H77 1.093508 1_555
C33 H73 1.094490 1_555
C33 H81 1.094988 1_555
C33 N1 1.499290 1_555
C34 H78 1.093508 1_555
C34 H74 1.094490 1_555
C34 H82 1.094988 1_555
C34 N2 1.499290 1_555
C35 H79 1.093508 1_555
C35 H75 1.094490 1_555
C35 H83 1.094988 1_555
C35 N3 1.499290 1_555
O0 Os0 1.761609 1_545
O1 Os1 1.761609 1_545
O2 Os2 1.761609 1_565
O3 Os3 1.761609 1_565
O4 Os0 1.750400 1_555
O5 Os1 1.750400 1_555
O6 Os2 1.750400 1_555
O7 Os3 1.750400 1_555
O8 Os0 2.207761 1_545
O8 Os2 2.237171 1_555
O9 Os1 2.207761 1_546
O9 Os3 2.237171 1_655
O10 Os2 2.207761 1_565
O10 Os0 2.237171 1_555
O11 Os3 2.207761 1_564
O11 Os1 2.237171 1_455
