# generated using pymatgen
data_Li3BePCO7
_symmetry_space_group_name_H-M   'P 1'
_cell_length_a   6.15323485
_cell_length_b   4.69490886
_cell_length_c   8.12924223
_cell_angle_alpha   87.26340574
_cell_angle_beta   90.00000000
_cell_angle_gamma   90.00000000
_symmetry_Int_Tables_number   1
_chemical_formula_structural   Li3BePCO7
_chemical_formula_sum   'Li6 Be2 P2 C2 O14'
_cell_volume   234.57685676
_cell_formula_units_Z   2
loop_
 _symmetry_equiv_pos_site_id
 _symmetry_equiv_pos_as_xyz
  1  'x, y, z'
loop_
 _atom_site_type_symbol
 _atom_site_label
 _atom_site_symmetry_multiplicity
 _atom_site_fract_x
 _atom_site_fract_y
 _atom_site_fract_z
 _atom_site_occupancy
  Li  Li0  1  0.75000000  0.25025875  0.87675017  1
  Li  Li1  1  0.02095613  0.77454095  0.76192676  1
  Li  Li2  1  0.47904387  0.77454095  0.76192676  1
  Li  Li3  1  0.52095613  0.22545905  0.23807324  1
  Li  Li4  1  0.97904387  0.22545905  0.23807324  1
  Li  Li5  1  0.25000000  0.74974125  0.12324983  1
  Be  Be0  1  0.25000000  0.22256967  0.63558135  1
  Be  Be1  1  0.75000000  0.77743033  0.36441865  1
  P  P0  1  0.75000000  0.26784766  0.57263337  1
  P  P1  1  0.25000000  0.73215234  0.42736663  1
  C  C0  1  0.25000000  0.24762787  0.94640213  1
  C  C1  1  0.75000000  0.75237213  0.05359787  1
  O  O0  1  0.25000000  0.97647243  0.92873196  1
  O  O1  1  0.75000000  0.65260589  0.90775100  1
  O  O2  1  0.25000000  0.41854051  0.81686784  1
  O  O3  1  0.94484529  0.18268050  0.68109702  1
  O  O4  1  0.55515471  0.18268050  0.68109702  1
  O  O5  1  0.75000000  0.59235633  0.53571284  1
  O  O6  1  0.25000000  0.87274876  0.59364693  1
  O  O7  1  0.75000000  0.12725124  0.40635307  1
  O  O8  1  0.25000000  0.40764367  0.46428716  1
  O  O9  1  0.44484529  0.81731950  0.31890298  1
  O  O10  1  0.05515471  0.81731950  0.31890298  1
  O  O11  1  0.75000000  0.58145949  0.18313216  1
  O  O12  1  0.25000000  0.34739411  0.09224900  1
  O  O13  1  0.75000000  0.02352757  0.07126804  1
loop_
_geom_bond_atom_site_label_1
_geom_bond_atom_site_label_2
_geom_bond_distance
_geom_bond_site_symmetry_2
Li0 O13 1.863558 1_556
Li0 O1 1.917609 1_555
Li0 O4 2.028795 1_555
Li0 O3 2.028795 1_555
Li1 O6 2.002511 1_555
Li1 O3 2.050024 1_465
Li1 O1 2.109014 1_455
Li1 O0 2.201497 1_555
Li1 O2 2.215409 1_555
Li2 O6 2.002511 1_555
Li2 O4 2.050024 1_565
Li2 O1 2.109014 1_555
Li2 O0 2.201497 1_555
Li2 O2 2.215409 1_555
Li3 O7 2.002511 1_555
Li3 O9 2.050024 1_545
Li3 O12 2.109014 1_555
Li3 O13 2.201497 1_555
Li3 O11 2.215409 1_555
Li4 O7 2.002511 1_555
Li4 O10 2.050024 1_645
Li4 O12 2.109014 1_655
Li4 O13 2.201497 1_555
Li4 O11 2.215409 1_555
Li5 O0 1.863558 1_554
Li5 O12 1.917609 1_555
Li5 O9 2.028795 1_555
Li5 O10 2.028795 1_555
Be0 O8 1.605769 1_555
Be0 O6 1.693244 1_545
Be0 O2 1.774218 1_555
Be0 O3 1.921217 1_455
Be0 O4 1.921217 1_555
Be1 O5 1.605769 1_555
Be1 O7 1.693244 1_565
Be1 O11 1.774218 1_555
Be1 O9 1.921217 1_555
Be1 O10 1.921217 1_655
C0 O0 1.287926 1_545
C0 O2 1.293072 1_555
C0 O12 1.295425 1_556
C1 O13 1.287926 1_565
C1 O11 1.293072 1_555
C1 O1 1.295425 1_554
O3 P0 1.530062 1_555
O4 P0 1.530062 1_555
O5 P0 1.538697 1_555
O6 P1 1.532351 1_555
O7 P0 1.532351 1_555
O8 P1 1.538697 1_555
O9 P1 1.530062 1_555
O10 P1 1.530062 1_555
