# generated using pymatgen
data_LiVOF2
_symmetry_space_group_name_H-M   'P 1'
_cell_length_a   5.27548700
_cell_length_b   8.82417800
_cell_length_c   12.62204972
_cell_angle_alpha   49.14381485
_cell_angle_beta   90.00000000
_cell_angle_gamma   90.00000000
_symmetry_Int_Tables_number   1
_chemical_formula_structural   LiVOF2
_chemical_formula_sum   'Li8 V8 O8 F16'
_cell_volume   444.41813826
_cell_formula_units_Z   8
loop_
 _symmetry_equiv_pos_site_id
 _symmetry_equiv_pos_as_xyz
  1  'x, y, z'
loop_
 _atom_site_type_symbol
 _atom_site_label
 _atom_site_symmetry_multiplicity
 _atom_site_fract_x
 _atom_site_fract_y
 _atom_site_fract_z
 _atom_site_occupancy
  Li  Li0  1  0.07224500  0.83026800  0.00119900  1
  Li  Li1  1  0.09290900  0.95281700  0.21445100  1
  Li  Li2  1  0.90709100  0.95281700  0.71445100  1
  Li  Li3  1  0.92775500  0.83026800  0.50119900  1
  Li  Li4  1  0.57305300  0.63462300  0.00596000  1
  Li  Li5  1  0.58782900  0.15393800  0.19648000  1
  Li  Li6  1  0.41217100  0.15393800  0.69648000  1
  Li  Li7  1  0.42694700  0.63462300  0.50596000  1
  V  V0  1  0.07748800  0.32196300  0.19095700  1
  V  V1  1  0.04142900  0.43741100  0.42027000  1
  V  V2  1  0.95857100  0.43741100  0.92027000  1
  V  V3  1  0.92251200  0.32196300  0.69095700  1
  V  V4  1  0.60433200  0.79023000  0.19568900  1
  V  V5  1  0.61034400  0.23863100  0.43440800  1
  V  V6  1  0.38965600  0.23863100  0.93440800  1
  V  V7  1  0.39566800  0.79023000  0.69568900  1
  O  O0  1  0.20430700  0.41676600  0.56297900  1
  O  O1  1  0.23786100  0.25947300  0.06805600  1
  O  O2  1  0.07584900  0.33655300  0.82687900  1
  O  O3  1  0.09380000  0.69933600  0.79591600  1
  O  O4  1  0.90620000  0.69933600  0.29591600  1
  O  O5  1  0.92415100  0.33655300  0.32687900  1
  O  O6  1  0.76213900  0.25947300  0.56805600  1
  O  O7  1  0.79569300  0.41676600  0.06297900  1
  F  F0  1  0.24041400  0.59322600  0.07400300  1
  F  F1  1  0.08010800  0.03884400  0.80403400  1
  F  F2  1  0.91989200  0.03884400  0.30403400  1
  F  F3  1  0.75958600  0.59322600  0.57400300  1
  F  F4  1  0.72494700  0.77334800  0.05719200  1
  F  F5  1  0.72249500  0.93941600  0.56686100  1
  F  F6  1  0.71130600  0.09738600  0.06363700  1
  F  F7  1  0.57932800  0.51360400  0.82201300  1
  F  F8  1  0.57127400  0.85283300  0.80296700  1
  F  F9  1  0.57906400  0.20811400  0.80727100  1
  F  F10  1  0.42093600  0.20811400  0.30727100  1
  F  F11  1  0.42872600  0.85283300  0.30296700  1
  F  F12  1  0.42067200  0.51360400  0.32201300  1
  F  F13  1  0.28869400  0.09738600  0.56363700  1
  F  F14  1  0.27750500  0.93941600  0.06686100  1
  F  F15  1  0.27505300  0.77334800  0.55719200  1
loop_
_geom_bond_atom_site_label_1
_geom_bond_atom_site_label_2
_geom_bond_distance
_geom_bond_site_symmetry_2
Li1 O4 2.005368 1_455
Li1 O1 2.186252 1_565
Li2 O3 2.005368 1_655
Li2 O6 2.186252 1_565
Li4 O7 1.944998 1_555
Li5 O7 2.075521 1_555
Li5 O1 2.220015 1_555
Li6 O0 2.075521 1_555
Li6 O6 2.220015 1_555
Li7 O0 1.944998 1_555
O0 V1 1.893885 1_555
O0 V3 1.936798 1_455
O1 V6 1.981582 1_554
O1 V2 2.069754 1_454
O1 V0 2.131999 1_555
O2 V6 1.948076 1_555
O2 V3 1.975664 1_455
O2 V2 1.984182 1_455
O3 V7 1.858024 1_555
O3 V2 1.888983 1_455
O4 V4 1.858024 1_555
O4 V1 1.888983 1_655
O5 V5 1.948076 1_555
O5 V0 1.975664 1_655
O5 V1 1.984182 1_655
O6 V5 1.981582 1_555
O6 V1 2.069754 1_655
O6 V3 2.131999 1_555
O7 V2 1.893885 1_554
O7 V0 1.936798 1_655
F0 Li0 1.868676 1_555
F0 Li4 1.881496 1_555
F0 V0 2.006136 1_555
F1 Li0 1.894699 1_546
F1 Li2 1.952153 1_445
F1 Li6 2.034539 1_555
F1 V3 2.074763 1_455
F2 Li3 1.894699 1_545
F2 Li1 1.952153 1_645
F2 Li5 2.034539 1_555
F2 V0 2.074763 1_655
F3 Li3 1.868676 1_555
F3 Li7 1.881496 1_555
F3 V3 2.006136 1_555
F4 Li4 1.895897 1_555
F4 Li0 1.908972 1_655
F4 V4 1.955426 1_555
F5 Li3 1.957408 1_555
F5 V5 2.083557 1_565
F5 V7 2.132900 1_555
F5 Li2 2.172764 1_555
F6 V6 2.105600 1_554
F6 V4 2.128934 1_545
F6 Li5 2.139993 1_555
F6 Li1 2.475205 1_645
F6 V2 2.622059 1_554
F7 V7 2.085050 1_555
F7 V6 2.097071 1_555
F7 V2 2.214042 1_555
F8 Li4 1.953930 1_556
F8 Li2 1.968648 1_555
F8 V7 1.993877 1_555
F8 Li6 2.213232 1_565
F9 Li6 1.958038 1_555
F9 V6 2.052190 1_555
F9 V3 2.125513 1_555
F10 Li5 1.958038 1_555
F10 V5 2.052190 1_555
F10 V0 2.125513 1_555
F11 Li7 1.953930 1_555
F11 Li1 1.968648 1_555
F11 V4 1.993877 1_555
F11 Li5 2.213232 1_565
F12 V4 2.085050 1_555
F12 V5 2.097071 1_555
F12 V1 2.214042 1_555
F13 V5 2.105600 1_555
F13 V7 2.128934 1_545
F13 Li6 2.139993 1_555
F13 Li2 2.475205 1_445
F13 V1 2.622059 1_555
F14 Li0 1.957408 1_555
F14 V6 2.083557 1_564
F14 V4 2.132900 1_555
F14 Li1 2.172764 1_555
F15 Li7 1.895897 1_555
F15 Li3 1.908972 1_455
F15 V7 1.955426 1_555
