# generated using pymatgen
data_Fe2H11(SeO5)3
_symmetry_space_group_name_H-M   'P 1'
_cell_length_a   7.85309100
_cell_length_b   10.06378000
_cell_length_c   17.02187660
_cell_angle_alpha   82.53007485
_cell_angle_beta   90.00000000
_cell_angle_gamma   90.00000000
_symmetry_Int_Tables_number   1
_chemical_formula_structural   Fe2H11(SeO5)3
_chemical_formula_sum   'Fe8 H44 Se12 O60'
_cell_volume   1333.85223071
_cell_formula_units_Z   4
loop_
 _symmetry_equiv_pos_site_id
 _symmetry_equiv_pos_as_xyz
  1  'x, y, z'
loop_
 _atom_site_type_symbol
 _atom_site_label
 _atom_site_symmetry_multiplicity
 _atom_site_fract_x
 _atom_site_fract_y
 _atom_site_fract_z
 _atom_site_occupancy
  Fe  Fe0  1  0.23756500  0.04658300  0.09678500  1
  Fe  Fe1  1  0.26243500  0.54658300  0.09678500  1
  Fe  Fe2  1  0.25663700  0.09301600  0.39245200  1
  Fe  Fe3  1  0.24336300  0.59301600  0.39245200  1
  Fe  Fe4  1  0.75663700  0.40698400  0.60754800  1
  Fe  Fe5  1  0.74336300  0.90698400  0.60754800  1
  Fe  Fe6  1  0.73756500  0.45341700  0.90321500  1
  Fe  Fe7  1  0.76243500  0.95341700  0.90321500  1
  H  H0  1  0.54451100  0.40868900  0.07124200  1
  H  H1  1  0.95548900  0.90868900  0.07124200  1
  H  H2  1  0.59322200  0.50527300  0.13786700  1
  H  H3  1  0.65249900  0.09403000  0.14018400  1
  H  H4  1  0.90677800  0.00527300  0.13786700  1
  H  H5  1  0.77260300  0.15720100  0.20057500  1
  H  H6  1  0.84750100  0.59403000  0.14018400  1
  H  H7  1  0.72739700  0.65720100  0.20057500  1
  H  H8  1  0.79057100  0.39378900  0.22404500  1
  H  H9  1  0.37319100  0.99863000  0.27824100  1
  H  H10  1  0.89678100  0.28483200  0.27749600  1
  H  H11  1  0.70942900  0.89378900  0.22404500  1
  H  H12  1  0.12680900  0.49863000  0.27824100  1
  H  H13  1  0.60321900  0.78483200  0.27749600  1
  H  H14  1  0.65988900  0.06279800  0.33909700  1
  H  H15  1  0.95080600  0.00416300  0.35392500  1
  H  H16  1  0.84011100  0.56279800  0.33909700  1
  H  H17  1  0.54919400  0.50416300  0.35392500  1
  H  H18  1  0.73859100  0.06920300  0.42349300  1
  H  H19  1  0.43510300  0.38018400  0.39028700  1
  H  H20  1  0.76140900  0.56920300  0.42349300  1
  H  H21  1  0.06489700  0.88018400  0.39028700  1
  H  H22  1  0.93510300  0.11981600  0.60971300  1
  H  H23  1  0.23859100  0.43079700  0.57650700  1
  H  H24  1  0.56489700  0.61981600  0.60971300  1
  H  H25  1  0.26140900  0.93079700  0.57650700  1
  H  H26  1  0.45080600  0.49583700  0.64607500  1
  H  H27  1  0.15988900  0.43720200  0.66090300  1
  H  H28  1  0.04919400  0.99583700  0.64607500  1
  H  H29  1  0.34011100  0.93720200  0.66090300  1
  H  H30  1  0.39678100  0.21516800  0.72250400  1
  H  H31  1  0.87319100  0.50137000  0.72175900  1
  H  H32  1  0.29057100  0.10621100  0.77595500  1
  H  H33  1  0.10321900  0.71516800  0.72250400  1
  H  H34  1  0.62680900  0.00137000  0.72175900  1
  H  H35  1  0.20942900  0.60621100  0.77595500  1
  H  H36  1  0.27260300  0.34279900  0.79942500  1
  H  H37  1  0.15249900  0.40597000  0.85981600  1
  H  H38  1  0.22739700  0.84279900  0.79942500  1
  H  H39  1  0.09322200  0.99472700  0.86213300  1
  H  H40  1  0.34750100  0.90597000  0.85981600  1
  H  H41  1  0.40677800  0.49472700  0.86213300  1
  H  H42  1  0.04451100  0.09131100  0.92875800  1
  H  H43  1  0.45548900  0.59131100  0.92875800  1
  Se  Se0  1  0.03461700  0.31494700  0.01839900  1
  Se  Se1  1  0.46538300  0.81494700  0.01839900  1
  Se  Se2  1  0.27556800  0.27584900  0.22521500  1
  Se  Se3  1  0.22443200  0.77584900  0.22521500  1
  Se  Se4  1  0.01494500  0.31546000  0.46507700  1
  Se  Se5  1  0.48505500  0.81546000  0.46507700  1
  Se  Se6  1  0.51494500  0.18454000  0.53492300  1
  Se  Se7  1  0.98505500  0.68454000  0.53492300  1
  Se  Se8  1  0.77556800  0.22415100  0.77478500  1
  Se  Se9  1  0.72443200  0.72415100  0.77478500  1
  Se  Se10  1  0.53461700  0.18505300  0.98160100  1
  Se  Se11  1  0.96538300  0.68505300  0.98160100  1
  O  O0  1  0.13463500  0.16665600  0.00231000  1
  O  O1  1  0.21169400  0.41551400  0.02227100  1
  O  O2  1  0.36536500  0.66665600  0.00231000  1
  O  O3  1  0.47113700  0.13291800  0.07888300  1
  O  O4  1  0.28830600  0.91551400  0.02227100  1
  O  O5  1  0.02886300  0.63291800  0.07888300  1
  O  O6  1  0.49697900  0.45235400  0.11614400  1
  O  O7  1  0.16324700  0.17813300  0.16801400  1
  O  O8  1  0.74929100  0.07246800  0.17708900  1
  O  O9  1  0.00302100  0.95235400  0.11614400  1
  O  O10  1  0.33675300  0.67813300  0.16801400  1
  O  O11  1  0.75070900  0.57246800  0.17708900  1
  O  O12  1  0.17208600  0.42676200  0.19750300  1
  O  O13  1  0.32791400  0.92676200  0.19750300  1
  O  O14  1  0.79256100  0.29837800  0.24594300  1
  O  O15  1  0.41773000  0.05281500  0.31963800  1
  O  O16  1  0.70743900  0.79837800  0.24594300  1
  O  O17  1  0.16340600  0.23875300  0.31693800  1
  O  O18  1  0.08227000  0.55281500  0.31963800  1
  O  O19  1  0.76840300  0.05961800  0.36845300  1
  O  O20  1  0.33659400  0.73875300  0.31693800  1
  O  O21  1  0.42838800  0.46657900  0.35475100  1
  O  O22  1  0.73159700  0.55961800  0.36845300  1
  O  O23  1  0.07161200  0.96657900  0.35475100  1
  O  O24  1  0.45235800  0.20962500  0.43710800  1
  O  O25  1  0.04764200  0.70962500  0.43710800  1
  O  O26  1  0.11414500  0.15748100  0.47174300  1
  O  O27  1  0.18093100  0.43018500  0.47298200  1
  O  O28  1  0.68093100  0.06981500  0.52701800  1
  O  O29  1  0.38585500  0.65748100  0.47174300  1
  O  O30  1  0.61414500  0.34251900  0.52825700  1
  O  O31  1  0.31906900  0.93018500  0.47298200  1
  O  O32  1  0.81906900  0.56981500  0.52701800  1
  O  O33  1  0.88585500  0.84251900  0.52825700  1
  O  O34  1  0.95235800  0.29037500  0.56289200  1
  O  O35  1  0.54764200  0.79037500  0.56289200  1
  O  O36  1  0.92838800  0.03342100  0.64524900  1
  O  O37  1  0.26840300  0.44038200  0.63154700  1
  O  O38  1  0.57161200  0.53342100  0.64524900  1
  O  O39  1  0.66340600  0.26124700  0.68306200  1
  O  O40  1  0.23159700  0.94038200  0.63154700  1
  O  O41  1  0.91773000  0.44718500  0.68036200  1
  O  O42  1  0.83659400  0.76124700  0.68306200  1
  O  O43  1  0.29256100  0.20162200  0.75405700  1
  O  O44  1  0.58227000  0.94718500  0.68036200  1
  O  O45  1  0.20743900  0.70162200  0.75405700  1
  O  O46  1  0.67208600  0.07323800  0.80249700  1
  O  O47  1  0.82791400  0.57323800  0.80249700  1
  O  O48  1  0.24929100  0.42753200  0.82291100  1
  O  O49  1  0.66324700  0.32186700  0.83198600  1
  O  O50  1  0.99697900  0.04764600  0.88385600  1
  O  O51  1  0.25070900  0.92753200  0.82291100  1
  O  O52  1  0.83675300  0.82186700  0.83198600  1
  O  O53  1  0.50302100  0.54764600  0.88385600  1
  O  O54  1  0.97113700  0.36708200  0.92111700  1
  O  O55  1  0.71169400  0.08448600  0.97772900  1
  O  O56  1  0.52886300  0.86708200  0.92111700  1
  O  O57  1  0.63463500  0.33334400  0.99769000  1
  O  O58  1  0.78830600  0.58448600  0.97772900  1
  O  O59  1  0.86536500  0.83334400  0.99769000  1
loop_
_geom_bond_atom_site_label_1
_geom_bond_atom_site_label_2
_geom_bond_distance
_geom_bond_site_symmetry_2
Fe0 O4 1.985558 1_545
Fe0 O7 1.995169 1_555
Fe0 O3 2.035546 1_555
Fe0 O0 2.048031 1_555
Fe0 O9 2.078266 1_545
Fe0 O13 2.087862 1_545
Fe1 O1 1.985558 1_555
Fe1 O10 1.995169 1_555
Fe1 O5 2.035546 1_555
Fe1 O2 2.048031 1_555
Fe1 O6 2.078266 1_555
Fe1 O12 2.087862 1_555
Fe2 O15 1.852207 1_555
Fe2 O26 1.929345 1_555
Fe2 O17 1.961937 1_555
Fe2 O31 2.054424 1_545
Fe2 O23 2.086744 1_545
Fe2 O24 2.132912 1_555
Fe3 O18 1.852207 1_555
Fe3 O29 1.929345 1_555
Fe3 O20 1.961937 1_555
Fe3 O27 2.054424 1_555
Fe3 O21 2.086744 1_555
Fe3 O25 2.132912 1_555
Fe4 O41 1.852207 1_555
Fe4 O30 1.929345 1_555
Fe4 O39 1.961937 1_555
Fe4 O32 2.054424 1_555
Fe4 O38 2.086744 1_555
Fe4 O34 2.132912 1_555
Fe5 O44 1.852207 1_555
Fe5 O33 1.929345 1_555
Fe5 O42 1.961937 1_555
Fe5 O28 2.054424 1_565
Fe5 O36 2.086744 1_565
Fe5 O35 2.132912 1_555
Fe6 O58 1.985558 1_555
Fe6 O49 1.995169 1_555
Fe6 O54 2.035546 1_555
Fe6 O57 2.048031 1_555
Fe6 O53 2.078266 1_555
Fe6 O47 2.087862 1_555
Fe7 O55 1.985558 1_565
Fe7 O52 1.995169 1_555
Fe7 O56 2.035546 1_555
Fe7 O59 2.048031 1_555
Fe7 O50 2.078266 1_565
Fe7 O46 2.087862 1_565
H0 O6 1.001970 1_555
H0 O57 1.700055 1_554
H1 O9 1.001970 1_655
H1 O59 1.700055 1_554
H2 O6 1.021174 1_555
H2 O11 1.596869 1_555
H3 O8 0.991991 1_555
H4 O9 1.021174 1_645
H4 O8 1.596869 1_555
H5 O8 1.004555 1_555
H6 O11 0.991991 1_555
H7 O11 1.004555 1_555
H8 O14 0.983920 1_555
H9 O15 1.008040 1_565
H9 O13 1.672340 1_555
H10 O14 0.978710 1_555
H11 O16 0.983920 1_555
H12 O18 1.008040 1_555
H12 O12 1.672340 1_555
H13 O16 0.978710 1_555
H14 O19 0.986283 1_555
H15 O23 1.020740 1_645
H15 O19 1.568550 1_555
H16 O22 0.986283 1_555
H17 O21 1.020740 1_555
H17 O22 1.568550 1_555
H18 O19 0.982530 1_555
H19 O21 0.993925 1_555
H20 O22 0.982530 1_555
H21 O23 0.993925 1_555
H22 O36 0.993925 1_555
H23 O37 0.982530 1_555
H24 O38 0.993925 1_555
H25 O40 0.982530 1_555
H26 O38 1.020740 1_555
H26 O37 1.568550 1_555
H27 O37 0.986283 1_555
H28 O36 1.020740 1_465
H28 O40 1.568550 1_555
H29 O40 0.986283 1_555
H30 O43 0.978710 1_555
H31 O41 1.008040 1_555
H31 O47 1.672340 1_555
H32 O43 0.983920 1_555
H33 O45 0.978710 1_555
H34 O44 1.008040 1_545
H34 O46 1.672340 1_555
H35 O45 0.983920 1_555
H36 O48 1.004555 1_555
H37 O48 0.991991 1_555
H38 O51 1.004555 1_555
H39 O50 1.021174 1_465
H39 O51 1.596869 1_555
H40 O51 0.991991 1_555
H41 O53 1.021174 1_555
H41 O48 1.596869 1_555
H42 O50 1.001970 1_455
H42 O0 1.700055 1_556
H43 O53 1.001970 1_555
H43 O2 1.700055 1_556
O0 Se0 1.739358 1_555
O1 Se0 1.726203 1_555
O2 Se1 1.739358 1_555
O3 Se10 1.743552 1_554
O4 Se1 1.726203 1_555
O5 Se11 1.743552 1_454
O7 Se2 1.715253 1_555
O10 Se3 1.715253 1_555
O12 Se2 1.732991 1_555
O13 Se3 1.732991 1_555
O17 Se2 1.789220 1_555
O20 Se3 1.789220 1_555
O24 Se6 1.722853 1_555
O25 Se7 1.722853 1_455
O26 Se4 1.760831 1_555
O27 Se4 1.758023 1_555
O28 Se6 1.758023 1_555
O29 Se5 1.760831 1_555
O30 Se6 1.760831 1_555
O31 Se5 1.758023 1_555
O32 Se7 1.758023 1_555
O33 Se7 1.760831 1_555
O34 Se4 1.722853 1_655
O35 Se5 1.722853 1_555
O39 Se8 1.789220 1_555
O42 Se9 1.789220 1_555
O46 Se8 1.732991 1_555
O47 Se9 1.732991 1_555
O49 Se8 1.715253 1_555
O52 Se9 1.715253 1_555
O54 Se0 1.743552 1_656
O55 Se10 1.726203 1_555
O56 Se1 1.743552 1_556
O57 Se10 1.739358 1_555
O58 Se11 1.726203 1_555
O59 Se11 1.739358 1_555
