# generated using pymatgen
data_Li3V2F9
_symmetry_space_group_name_H-M   'P 1'
_cell_length_a   5.13143159
_cell_length_b   5.13143159
_cell_length_c   14.25495900
_cell_angle_alpha   90.00000000
_cell_angle_beta   90.00000000
_cell_angle_gamma   119.99999475
_symmetry_Int_Tables_number   1
_chemical_formula_structural   Li3V2F9
_chemical_formula_sum   'Li6 V4 F18'
_cell_volume   325.06762230
_cell_formula_units_Z   2
loop_
 _symmetry_equiv_pos_site_id
 _symmetry_equiv_pos_as_xyz
  1  'x, y, z'
loop_
 _atom_site_type_symbol
 _atom_site_label
 _atom_site_symmetry_multiplicity
 _atom_site_fract_x
 _atom_site_fract_y
 _atom_site_fract_z
 _atom_site_occupancy
  Li  Li0  1  0.33333300  0.66666700  0.18524000  1
  Li  Li1  1  0.33333300  0.66666700  0.48293000  1
  Li  Li2  1  0.33333300  0.66666700  0.98293000  1
  Li  Li3  1  0.33333300  0.66666700  0.68524000  1
  Li  Li4  1  0.66666700  0.33333300  0.00054700  1
  Li  Li5  1  0.66666700  0.33333300  0.50054700  1
  V  V0  1  0.00000000  0.00000000  0.35050900  1
  V  V1  1  0.00000000  0.00000000  0.14684400  1
  V  V2  1  0.00000000  0.00000000  0.64684400  1
  V  V3  1  0.00000000  0.00000000  0.85050900  1
  F  F0  1  0.01851100  0.67205200  0.58351700  1
  F  F1  1  0.32794800  0.98148900  0.08351700  1
  F  F2  1  0.01851100  0.34645800  0.08351700  1
  F  F3  1  0.32794800  0.34645800  0.58351700  1
  F  F4  1  0.27201800  0.29234900  0.24669400  1
  F  F5  1  0.65354200  0.98148900  0.58351700  1
  F  F6  1  0.32349900  0.31456000  0.92085300  1
  F  F7  1  0.65354200  0.67205200  0.08351700  1
  F  F8  1  0.27201800  0.97966900  0.74669400  1
  F  F9  1  0.32349900  0.00893900  0.42085300  1
  F  F10  1  0.70765100  0.72798200  0.74669400  1
  F  F11  1  0.68544000  0.67650100  0.42085300  1
  F  F12  1  0.99106100  0.67650100  0.92085300  1
  F  F13  1  0.02033100  0.72798200  0.24669400  1
  F  F14  1  0.68544000  0.00893900  0.92085300  1
  F  F15  1  0.70765100  0.97966900  0.24669400  1
  F  F16  1  0.99106100  0.31456000  0.42085300  1
  F  F17  1  0.02033100  0.29234900  0.74669400  1
loop_
_geom_bond_atom_site_label_1
_geom_bond_atom_site_label_2
_geom_bond_distance
_geom_bond_site_symmetry_2
F0 V2 1.953393 1_565
F0 Li5 2.131079 1_455
F0 Li1 2.170523 1_555
F0 Li3 2.181254 1_555
F1 V1 1.953393 1_565
F1 Li4 2.131079 1_565
F1 Li2 2.170523 1_554
F1 Li0 2.181254 1_555
F2 V1 1.953388 1_555
F2 Li4 2.131079 1_455
F2 Li2 2.170527 1_554
F2 Li0 2.181258 1_555
F3 V2 1.953390 1_555
F3 Li5 2.131079 1_555
F3 Li1 2.170530 1_555
F3 Li3 2.181262 1_555
F4 Li0 1.987836 1_555
F4 V1 2.032444 1_555
F4 V0 2.072420 1_555
F5 V2 1.953388 1_665
F5 Li5 2.131079 1_565
F5 Li1 2.170527 1_555
F5 Li3 2.181258 1_555
F6 V3 1.920185 1_555
F6 Li2 1.989724 1_555
F6 Li4 2.056973 1_556
F7 V1 1.953390 1_665
F7 Li4 2.131079 1_555
F7 Li2 2.170530 1_554
F7 Li0 2.181262 1_555
F8 Li3 1.987831 1_555
F8 V2 2.032444 1_565
F8 V3 2.072420 1_565
F9 V0 1.920185 1_555
F9 Li1 1.989719 1_545
F9 Li5 2.056972 1_555
F10 Li3 1.987836 1_555
F10 V2 2.032444 1_665
F10 V3 2.072420 1_665
F11 V0 1.920185 1_665
F11 Li1 1.989724 1_555
F11 Li5 2.056973 1_555
F12 V3 1.920185 1_665
F12 Li2 1.989719 1_655
F12 Li4 2.056972 1_556
F13 Li0 1.987831 1_555
F13 V1 2.032444 1_565
F13 V0 2.072420 1_565
F14 V3 1.920185 1_655
F14 Li2 1.989722 1_545
F14 Li4 2.056969 1_556
F15 Li0 1.987834 1_555
F15 V1 2.032444 1_665
F15 V0 2.072420 1_665
F16 V0 1.920185 1_655
F16 Li1 1.989722 1_655
F16 Li5 2.056969 1_555
F17 Li3 1.987834 1_555
F17 V2 2.032444 1_555
F17 V3 2.072420 1_555
