# generated using pymatgen
data_Li3Mn2C3O9F
_symmetry_space_group_name_H-M   'P 1'
_cell_length_a   8.59881573
_cell_length_b   8.59881573
_cell_length_c   6.48029344
_cell_angle_alpha   85.25981617
_cell_angle_beta   85.25981617
_cell_angle_gamma   127.54682933
_symmetry_Int_Tables_number   1
_chemical_formula_structural   Li3Mn2C3O9F
_chemical_formula_sum   'Li6 Mn4 C6 O18 F2'
_cell_volume   373.19603135
_cell_formula_units_Z   2
loop_
 _symmetry_equiv_pos_site_id
 _symmetry_equiv_pos_as_xyz
  1  'x, y, z'
loop_
 _atom_site_type_symbol
 _atom_site_label
 _atom_site_symmetry_multiplicity
 _atom_site_fract_x
 _atom_site_fract_y
 _atom_site_fract_z
 _atom_site_occupancy
  Li  Li0  1  0.57074600  0.24260300  0.47614600  1
  Li  Li1  1  0.94389600  0.17789400  0.32012400  1
  Li  Li2  1  0.94272200  0.16385000  0.82005800  1
  Li  Li3  1  0.24260300  0.57074600  0.97614600  1
  Li  Li4  1  0.16385000  0.94272200  0.32005800  1
  Li  Li5  1  0.17789400  0.94389600  0.82012400  1
  Mn  Mn0  1  0.62192000  0.24860600  0.97055100  1
  Mn  Mn1  1  0.70129400  0.68066100  0.15572600  1
  Mn  Mn2  1  0.68066100  0.70129400  0.65572600  1
  Mn  Mn3  1  0.24860600  0.62192000  0.47055100  1
  C  C0  1  0.32013400  0.31652900  0.00611100  1
  C  C1  1  0.94808600  0.55707500  0.19107600  1
  C  C2  1  0.94131200  0.55813900  0.69467200  1
  C  C3  1  0.31652900  0.32013400  0.50611100  1
  C  C4  1  0.55813900  0.94131200  0.19467200  1
  C  C5  1  0.55707500  0.94808600  0.69107600  1
  O  O0  1  0.32303800  0.16704700  0.03102700  1
  O  O1  1  0.29307900  0.15684000  0.52749400  1
  O  O2  1  0.47552100  0.02318300  0.76457800  1
  O  O3  1  0.73149300  0.08520500  0.08879800  1
  O  O4  1  0.74023900  0.05585500  0.60743700  1
  O  O5  1  0.49747600  0.49001900  0.45775500  1
  O  O6  1  0.75191600  0.44724500  0.20516200  1
  O  O7  1  0.15684000  0.29307900  0.02749400  1
  O  O8  1  0.75626400  0.48665500  0.69804600  1
  O  O9  1  0.02318300  0.47552100  0.26457800  1
  O  O10  1  0.97780700  0.45108900  0.79838900  1
  O  O11  1  0.16704700  0.32303800  0.53102700  1
  O  O12  1  0.05585500  0.74023900  0.10743700  1
  O  O13  1  0.08520500  0.73149300  0.58879800  1
  O  O14  1  0.49001900  0.49747600  0.95775500  1
  O  O15  1  0.48665500  0.75626400  0.19804600  1
  O  O16  1  0.44724500  0.75191600  0.70516200  1
  O  O17  1  0.45108900  0.97780700  0.29838900  1
  F  F0  1  0.87807600  0.87692400  0.86123800  1
  F  F1  1  0.87692400  0.87807600  0.36123800  1
loop_
_geom_bond_atom_site_label_1
_geom_bond_atom_site_label_2
_geom_bond_distance
_geom_bond_site_symmetry_2
Li0 O1 2.009308 1_555
Li0 O6 2.074385 1_555
Li0 O2 2.237220 1_555
Li0 O17 2.311702 1_545
Li0 O8 2.411253 1_555
Li1 O4 2.129059 1_555
Li1 O9 2.196509 1_655
Li1 O7 2.198891 1_655
Li1 O11 2.214494 1_655
Li1 O3 2.256982 1_555
Li2 O4 2.104663 1_555
Li2 O3 2.138856 1_556
Li2 O7 2.143359 1_656
Li2 O11 2.205361 1_655
Li2 O10 2.288819 1_555
Li3 O7 2.009308 1_556
Li3 O16 2.074385 1_555
Li3 O9 2.237220 1_556
Li3 O10 2.311702 1_455
Li3 O15 2.411253 1_556
Li4 O12 2.104663 1_555
Li4 O13 2.138856 1_555
Li4 O1 2.143359 1_565
Li4 O0 2.205361 1_565
Li4 O17 2.288819 1_555
Li5 O12 2.129059 1_556
Li5 O2 2.196509 1_565
Li5 O1 2.198891 1_565
Li5 O0 2.214494 1_566
Li5 O13 2.256982 1_555
Mn0 O8 2.196876 1_555
Mn0 O0 2.200410 1_556
Mn0 O2 2.203370 1_555
Mn0 O6 2.204864 1_556
Mn0 O3 2.236962 1_556
Mn0 O10 2.502328 1_555
Mn0 O17 2.567296 1_546
Mn1 O14 2.158437 1_554
Mn1 O5 2.233997 1_555
Mn1 O6 2.302647 1_555
Mn1 O15 2.304871 1_555
Mn2 O5 2.158437 1_555
Mn2 O14 2.233997 1_555
Mn2 O16 2.302647 1_555
Mn2 O8 2.304871 1_555
Mn3 O15 2.196876 1_555
Mn3 O11 2.200410 1_555
Mn3 O9 2.203370 1_555
Mn3 O16 2.204864 1_555
Mn3 O13 2.236962 1_555
Mn3 O17 2.502328 1_555
Mn3 O10 2.567296 1_455
C0 O7 1.284365 1_555
C0 O0 1.297825 1_555
C0 O14 1.313988 1_554
C1 O12 1.276763 1_655
C1 O9 1.297381 1_655
C1 O6 1.328266 1_555
C2 O13 1.290877 1_655
C2 O10 1.297008 1_555
C2 O8 1.307723 1_555
C3 O1 1.284365 1_555
C3 O11 1.297825 1_555
C3 O5 1.313988 1_555
C4 O3 1.290877 1_565
C4 O17 1.297008 1_555
C4 O15 1.307723 1_555
C5 O4 1.276763 1_565
C5 O2 1.297381 1_565
C5 O16 1.328266 1_555
F0 Mn2 2.125427 1_555
F0 Mn1 2.159219 1_556
F0 Li2 2.159280 1_565
F0 Li5 2.258473 1_655
F1 Mn1 2.125427 1_555
F1 Mn2 2.159219 1_555
F1 Li4 2.159280 1_655
F1 Li1 2.258473 1_565
