# generated using pymatgen
data_Zn2C4N16O
_symmetry_space_group_name_H-M   'P 1'
_cell_length_a   7.11568600
_cell_length_b   11.57717200
_cell_length_c   22.51136357
_cell_angle_alpha   82.36418529
_cell_angle_beta   90.00000000
_cell_angle_gamma   90.00000000
_symmetry_Int_Tables_number   1
_chemical_formula_structural   Zn2C4N16O
_chemical_formula_sum   'Zn8 C16 N64 O4'
_cell_volume   1838.03110667
_cell_formula_units_Z   4
loop_
 _symmetry_equiv_pos_site_id
 _symmetry_equiv_pos_as_xyz
  1  'x, y, z'
loop_
 _atom_site_type_symbol
 _atom_site_label
 _atom_site_symmetry_multiplicity
 _atom_site_fract_x
 _atom_site_fract_y
 _atom_site_fract_z
 _atom_site_occupancy
  Zn  Zn0  1  0.69101600  0.04989400  0.90516300  1
  Zn  Zn1  1  0.80898400  0.54989400  0.40516300  1
  Zn  Zn2  1  0.30898400  0.95010600  0.09483700  1
  Zn  Zn3  1  0.19101600  0.45010600  0.59483700  1
  Zn  Zn4  1  0.58942300  0.48022700  0.56201400  1
  Zn  Zn5  1  0.91057700  0.98022700  0.06201400  1
  Zn  Zn6  1  0.41057700  0.51977300  0.43798600  1
  Zn  Zn7  1  0.08942300  0.01977300  0.93798600  1
  C  C0  1  0.54859500  0.38920500  0.21214400  1
  C  C1  1  0.95140500  0.88920500  0.71214400  1
  C  C2  1  0.45140500  0.61079500  0.78785600  1
  C  C3  1  0.04859500  0.11079500  0.28785600  1
  C  C4  1  0.58856500  0.46486000  0.15993000  1
  C  C5  1  0.91143500  0.96486000  0.65993000  1
  C  C6  1  0.41143500  0.53514000  0.84007000  1
  C  C7  1  0.08856500  0.03514000  0.34007000  1
  C  C8  1  0.48261100  0.50211900  0.20508200  1
  C  C9  1  0.01738900  0.00211900  0.70508200  1
  C  C10  1  0.51738900  0.49788100  0.79491800  1
  C  C11  1  0.98261100  0.99788100  0.29491800  1
  C  C12  1  0.79188800  0.48940600  0.06841900  1
  C  C13  1  0.70811200  0.98940600  0.56841900  1
  C  C14  1  0.20811200  0.51059400  0.93158100  1
  C  C15  1  0.29188800  0.01059400  0.43158100  1
  N  N0  1  0.67858600  0.48034500  0.10816500  1
  N  N1  1  0.82141400  0.98034500  0.60816500  1
  N  N2  1  0.32141400  0.51965500  0.89183500  1
  N  N3  1  0.17858600  0.01965500  0.39183500  1
  N  N4  1  0.52319800  0.90208700  0.75204900  1
  N  N5  1  0.97680200  0.40208700  0.25204900  1
  N  N6  1  0.47680200  0.09791300  0.24795100  1
  N  N7  1  0.02319800  0.59791300  0.74795100  1
  N  N8  1  0.58977700  0.08038500  0.10928000  1
  N  N9  1  0.91022300  0.58038500  0.60928000  1
  N  N10  1  0.41022300  0.91961500  0.89072000  1
  N  N11  1  0.08977700  0.41961500  0.39072000  1
  N  N12  1  0.62333900  0.42693700  0.40194100  1
  N  N13  1  0.87666100  0.92693700  0.90194100  1
  N  N14  1  0.37666100  0.57306300  0.59805900  1
  N  N15  1  0.12333900  0.07306300  0.09805900  1
  N  N16  1  0.67020100  0.58646500  0.48602500  1
  N  N17  1  0.82979900  0.08646500  0.98602500  1
  N  N18  1  0.32979900  0.41353500  0.51397500  1
  N  N19  1  0.17020100  0.91353500  0.01397500  1
  N  N20  1  0.60225400  0.19157000  0.86402200  1
  N  N21  1  0.89774600  0.69157000  0.36402200  1
  N  N22  1  0.39774600  0.80843000  0.13597800  1
  N  N23  1  0.10225400  0.30843000  0.63597800  1
  N  N24  1  0.62065600  0.80083000  0.00436300  1
  N  N25  1  0.87934400  0.30083000  0.50436300  1
  N  N26  1  0.37934400  0.19917000  0.99563700  1
  N  N27  1  0.12065600  0.69917000  0.49563700  1
  N  N28  1  0.61536700  0.70760900  0.99718800  1
  N  N29  1  0.88463300  0.20760900  0.49718800  1
  N  N30  1  0.38463300  0.29239100  0.00281200  1
  N  N31  1  0.11536700  0.79239100  0.50281200  1
  N  N32  1  0.68051900  0.14934500  0.12421500  1
  N  N33  1  0.81948100  0.64934500  0.62421500  1
  N  N34  1  0.31948100  0.85065500  0.87578500  1
  N  N35  1  0.18051900  0.35065500  0.37578500  1
  N  N36  1  0.49866700  0.00304200  0.26268300  1
  N  N37  1  0.00133300  0.50304200  0.76268300  1
  N  N38  1  0.50133300  0.99695800  0.73731700  1
  N  N39  1  0.99866700  0.49695800  0.23731700  1
  N  N40  1  0.61991500  0.34351400  0.37331100  1
  N  N41  1  0.88008500  0.84351400  0.87331100  1
  N  N42  1  0.38008500  0.65648600  0.62668900  1
  N  N43  1  0.11991500  0.15648600  0.12668900  1
  N  N44  1  0.61445600  0.26336400  0.34823000  1
  N  N45  1  0.88554400  0.76336400  0.84823000  1
  N  N46  1  0.38554400  0.73663600  0.65177000  1
  N  N47  1  0.11445600  0.23663600  0.15177000  1
  N  N48  1  0.65242700  0.69360800  0.48636800  1
  N  N49  1  0.84757300  0.19360800  0.98636800  1
  N  N50  1  0.34757300  0.30639200  0.51363200  1
  N  N51  1  0.15242700  0.80639200  0.01363200  1
  N  N52  1  0.63602400  0.79238000  0.48482500  1
  N  N53  1  0.86397600  0.29238000  0.98482500  1
  N  N54  1  0.36397600  0.20762000  0.51517500  1
  N  N55  1  0.13602400  0.70762000  0.01517500  1
  N  N56  1  0.69315400  0.22221000  0.81803000  1
  N  N57  1  0.80684600  0.72221000  0.31803000  1
  N  N58  1  0.30684600  0.77779000  0.18197000  1
  N  N59  1  0.19315400  0.27779000  0.68197000  1
  N  N60  1  0.77369800  0.25711100  0.77475700  1
  N  N61  1  0.72630200  0.75711100  0.27475700  1
  N  N62  1  0.22630200  0.74288900  0.22524300  1
  N  N63  1  0.27369800  0.24288900  0.72524300  1
  O  O0  1  0.68287400  0.35843100  0.61364100  1
  O  O1  1  0.81712600  0.85843100  0.11364100  1
  O  O2  1  0.31712600  0.64156900  0.38635900  1
  O  O3  1  0.18287400  0.14156900  0.88635900  1
loop_
_geom_bond_atom_site_label_1
_geom_bond_atom_site_label_2
_geom_bond_distance
_geom_bond_site_symmetry_2
C0 C8 1.378163 1_555
C0 C4 1.398582 1_555
C1 C9 1.378163 1_665
C1 C5 1.398582 1_555
C2 C6 1.398582 1_555
C3 C7 1.398582 1_555
C4 N0 1.320934 1_555
C4 C8 1.379905 1_555
C5 N1 1.320934 1_555
C5 C9 1.379905 1_665
C6 N2 1.320934 1_555
C7 N3 1.320934 1_555
C10 C2 1.378163 1_555
C10 C6 1.379905 1_555
C11 C3 1.378163 1_665
C11 C7 1.379905 1_665
C12 N0 1.198586 1_555
C13 N1 1.198586 1_555
C14 N2 1.198586 1_555
C15 N3 1.198586 1_555
N8 Zn2 2.550104 1_545
N9 Zn3 2.550104 1_655
N10 N34 1.112954 1_555
N10 Zn0 2.550104 1_565
N11 N35 1.112954 1_555
N11 Zn1 2.550104 1_455
N12 N40 1.230516 1_555
N12 Zn1 1.950398 1_555
N12 Zn6 2.082631 1_555
N13 N41 1.230516 1_555
N13 Zn0 1.950398 1_565
N13 Zn7 2.082631 1_665
N14 N42 1.230516 1_555
N14 Zn3 1.950398 1_555
N14 Zn4 2.082631 1_555
N15 N43 1.230516 1_555
N15 Zn2 1.950398 1_545
N15 Zn5 2.082631 1_445
N16 N48 1.247888 1_555
N16 Zn4 2.051878 1_555
N16 Zn1 2.161676 1_555
N16 Zn6 2.323879 1_555
N17 N49 1.247888 1_555
N17 Zn5 2.051878 1_546
N17 Zn0 2.161676 1_555
N17 Zn7 2.323879 1_655
N18 N50 1.247888 1_555
N18 Zn6 2.051878 1_555
N18 Zn3 2.161676 1_555
N18 Zn4 2.323879 1_555
N19 N51 1.247888 1_555
N19 Zn7 2.051878 1_564
N19 Zn2 2.161676 1_555
N19 Zn5 2.323879 1_455
N20 N56 1.232288 1_555
N20 Zn0 1.882351 1_555
N21 N57 1.232288 1_555
N21 Zn1 1.882351 1_555
N22 N58 1.232288 1_555
N22 Zn2 1.882351 1_555
N23 N59 1.232288 1_555
N23 Zn3 1.882351 1_555
N24 N28 1.112915 1_554
N25 N29 1.112915 1_555
N26 N30 1.112915 1_556
N27 N31 1.112915 1_555
N32 N8 1.112954 1_555
N33 N9 1.112954 1_555
N36 N6 1.115229 1_555
N37 N7 1.115229 1_555
N38 N4 1.115229 1_555
N39 N5 1.115229 1_555
N40 N44 1.149146 1_555
N41 N45 1.149146 1_555
N42 N46 1.149146 1_555
N43 N47 1.149146 1_555
N48 N52 1.145368 1_555
N49 N53 1.145368 1_555
N50 N54 1.145368 1_555
N51 N55 1.145368 1_555
N56 N60 1.155885 1_555
N57 N61 1.155885 1_555
N58 N62 1.155885 1_555
N59 N63 1.155885 1_555
O0 Zn4 1.829105 1_555
O1 Zn5 1.829105 1_555
O2 Zn6 1.829105 1_555
O3 Zn7 1.829105 1_555
