# generated using pymatgen
data_Li2MnPCO7
_symmetry_space_group_name_H-M   'P 1'
_cell_length_a   5.02371100
_cell_length_b   6.54626770
_cell_length_c   16.73895543
_cell_angle_alpha   90.53747299
_cell_angle_beta   93.98125351
_cell_angle_gamma   90.19186248
_symmetry_Int_Tables_number   1
_chemical_formula_structural   Li2MnPCO7
_chemical_formula_sum   'Li8 Mn4 P4 C4 O28'
_cell_volume   549.12961338
_cell_formula_units_Z   4
loop_
 _symmetry_equiv_pos_site_id
 _symmetry_equiv_pos_as_xyz
  1  'x, y, z'
loop_
 _atom_site_type_symbol
 _atom_site_label
 _atom_site_symmetry_multiplicity
 _atom_site_fract_x
 _atom_site_fract_y
 _atom_site_fract_z
 _atom_site_occupancy
  Li  Li0  1  0.74377800  0.96652600  0.13071200  1
  Li  Li1  1  0.74643700  0.52771100  0.13100400  1
  Li  Li2  1  0.24756600  0.47173600  0.37319100  1
  Li  Li3  1  0.24670300  0.02942500  0.37202400  1
  Li  Li4  1  0.75946000  0.97156200  0.63112500  1
  Li  Li5  1  0.75391900  0.52827900  0.62935000  1
  Li  Li6  1  0.24613000  0.47094400  0.86371300  1
  Li  Li7  1  0.77065900  0.23747200  0.94392400  1
  Mn  Mn0  1  0.19338700  0.24662800  0.16862800  1
  Mn  Mn1  1  0.80259400  0.75005000  0.33377300  1
  Mn  Mn2  1  0.21241400  0.25368000  0.66795300  1
  Mn  Mn3  1  0.80303000  0.75451700  0.83629400  1
  P  P0  1  0.26686600  0.74870900  0.20792600  1
  P  P1  1  0.73016300  0.24937700  0.29384000  1
  P  P2  1  0.26777500  0.74679300  0.70885000  1
  P  P3  1  0.71498300  0.25373000  0.78945400  1
  C  C0  1  0.28759000  0.26203100  0.02043400  1
  C  C1  1  0.72568300  0.75084100  0.47736300  1
  C  C2  1  0.29415000  0.24778400  0.52572100  1
  C  C3  1  0.72163200  0.74196100  0.97850100  1
  O  O0  1  0.03866100  0.25289300  0.03433800  1
  O  O1  1  0.66358100  0.74330600  0.05087000  1
  O  O2  1  0.45907500  0.24780700  0.08561500  1
  O  O3  1  0.15764900  0.93770100  0.16167800  1
  O  O4  1  0.15817800  0.55678600  0.16192900  1
  O  O5  1  0.82447500  0.24762400  0.20557100  1
  O  O6  1  0.57764900  0.74980500  0.21798900  1
  O  O7  1  0.41907000  0.24954400  0.28552800  1
  O  O8  1  0.16679200  0.75090000  0.29461900  1
  O  O9  1  0.84175400  0.06149300  0.33861100  1
  O  O10  1  0.84363600  0.43929300  0.33866300  1
  O  O11  1  0.53811300  0.74931700  0.41549300  1
  O  O12  1  0.32384200  0.25011100  0.45189300  1
  O  O13  1  0.96533700  0.75197800  0.45421500  1
  O  O14  1  0.05858900  0.24244300  0.55574800  1
  O  O15  1  0.66132000  0.75108300  0.54848600  1
  O  O16  1  0.49176300  0.25090300  0.58104000  1
  O  O17  1  0.16746100  0.94031400  0.66529300  1
  O  O18  1  0.16457900  0.56457200  0.65609400  1
  O  O19  1  0.83339100  0.24852000  0.70691500  1
  O  O20  1  0.58022000  0.74494800  0.72104800  1
  O  O21  1  0.40584500  0.28413200  0.77199600  1
  O  O22  1  0.15509700  0.73131500  0.79307900  1
  O  O23  1  0.77478600  0.06535900  0.84077000  1
  O  O24  1  0.82478400  0.43120500  0.84416800  1
  O  O25  1  0.53640700  0.73550400  0.91825300  1
  O  O26  1  0.38047600  0.28497700  0.95291900  1
  O  O27  1  0.96221300  0.75022700  0.95528100  1
loop_
_geom_bond_atom_site_label_1
_geom_bond_atom_site_label_2
_geom_bond_distance
_geom_bond_site_symmetry_2
Li0 O1 1.992084 1_555
Li0 O3 2.117081 1_655
Li0 O5 2.236480 1_565
Li0 O6 2.245851 1_555
Li0 O2 2.428956 1_565
Li1 O1 1.981493 1_555
Li1 O4 2.104657 1_655
Li1 O5 2.247943 1_555
Li1 O6 2.256728 1_555
Li1 O2 2.413001 1_555
Li2 O12 1.989146 1_555
Li2 O10 2.080592 1_455
Li2 O7 2.270488 1_555
Li2 O8 2.282562 1_555
Li2 O11 2.397582 1_555
Li3 O12 1.978050 1_555
Li3 O9 2.083871 1_455
Li3 O8 2.245643 1_545
Li3 O7 2.264362 1_555
Li3 O11 2.435165 1_545
Li4 O15 2.025537 1_555
Li4 O17 2.100562 1_655
Li4 O19 2.218430 1_565
Li4 O20 2.344855 1_555
Li4 O16 2.396672 1_565
Li5 O15 2.032252 1_555
Li5 O18 2.092714 1_655
Li5 O19 2.275214 1_555
Li5 O20 2.298408 1_555
Li5 O16 2.343930 1_555
Li6 O26 2.016657 1_555
Li6 O22 2.116647 1_555
Li6 O24 2.133956 1_455
Li6 O21 2.153765 1_555
Li6 O25 2.393319 1_555
Li7 O0 1.956183 1_656
Li7 O26 2.001454 1_555
Li7 O23 2.054255 1_555
Li7 O24 2.138007 1_555
Mn0 O2 1.992515 1_555
Mn0 O5 1.994076 1_455
Mn0 O3 2.031205 1_545
Mn0 O4 2.042110 1_555
Mn0 O7 2.192232 1_555
Mn0 O0 2.327688 1_555
Mn1 O11 1.972063 1_555
Mn1 O8 1.985854 1_655
Mn1 O10 2.047235 1_555
Mn1 O9 2.047908 1_565
Mn1 O13 2.122195 1_555
Mn1 O6 2.174645 1_555
Mn2 O21 1.942750 1_555
Mn2 O14 1.981334 1_555
Mn2 O19 2.055361 1_455
Mn2 O18 2.059940 1_555
Mn2 O17 2.062746 1_545
Mn2 O16 2.090333 1_555
Mn3 O22 1.962645 1_655
Mn3 O25 1.987201 1_555
Mn3 O23 2.041306 1_565
Mn3 O27 2.094579 1_555
Mn3 O24 2.124527 1_555
Mn3 O20 2.162330 1_555
C0 O26 1.262319 1_554
C0 O0 1.289104 1_555
C0 O2 1.346542 1_555
C1 O15 1.255119 1_555
C1 O13 1.290141 1_555
C1 O11 1.350853 1_555
C2 O12 1.255240 1_555
C2 O16 1.309684 1_555
C2 O14 1.317918 1_555
C3 O1 1.265482 1_556
C3 O27 1.296119 1_555
C3 O25 1.324132 1_555
O3 P0 1.547424 1_555
O4 P0 1.545417 1_555
O5 P1 1.582605 1_555
O6 P0 1.558658 1_555
O7 P1 1.559376 1_555
O8 P0 1.568361 1_555
O9 P1 1.533697 1_555
O10 P1 1.533593 1_555
O17 P2 1.536560 1_555
O18 P2 1.544038 1_555
O19 P3 1.541832 1_555
O20 P2 1.568839 1_555
O21 P3 1.573855 1_555
O22 P2 1.559373 1_555
O23 P3 1.528143 1_555
O24 P3 1.548688 1_555
