# generated using pymatgen
data_Li9V3P8O29
_symmetry_space_group_name_H-M   'P 1'
_cell_length_a   9.95583235
_cell_length_b   9.89118423
_cell_length_c   13.78026864
_cell_angle_alpha   90.18448004
_cell_angle_beta   89.91630157
_cell_angle_gamma   60.15183877
_symmetry_Int_Tables_number   1
_chemical_formula_structural   Li9V3P8O29
_chemical_formula_sum   'Li18 V6 P16 O58'
_cell_volume   1176.98701912
_cell_formula_units_Z   2
loop_
 _symmetry_equiv_pos_site_id
 _symmetry_equiv_pos_as_xyz
  1  'x, y, z'
loop_
 _atom_site_type_symbol
 _atom_site_label
 _atom_site_symmetry_multiplicity
 _atom_site_fract_x
 _atom_site_fract_y
 _atom_site_fract_z
 _atom_site_occupancy
  Li  Li0  1  0.90482838  0.75985753  0.06202648  1
  Li  Li1  1  0.77104861  0.89758899  0.56248930  1
  Li  Li2  1  0.90249891  0.33348845  0.57305332  1
  Li  Li3  1  0.66250990  0.66602194  0.37839715  1
  Li  Li4  1  0.68715017  0.64913391  0.87794290  1
  Li  Li5  1  0.77102664  0.33395380  0.06455106  1
  Li  Li6  1  0.34631800  0.89432787  0.06538411  1
  Li  Li7  1  0.66904325  0.23468655  0.43593048  1
  Li  Li8  1  0.33246408  0.76773818  0.56525613  1
  Li  Li9  1  0.22968699  0.67356002  0.93055093  1
  Li  Li10  1  0.30352616  0.33903836  0.61910457  1
  Li  Li11  1  0.33529139  0.33263520  0.12254211  1
  Li  Li12  1  0.09576106  0.67060453  0.43818070  1
  Li  Li13  1  0.22926462  0.09981928  0.43844563  1
  Li  Li14  1  0.98752070  0.44386867  0.74319440  1
  Li  Li15  1  0.09434375  0.23008399  0.93049749  1
  Li  Li16  1  0.06755430  0.97074916  0.99920256  1
  Li  Li17  1  0.01311881  0.99119165  0.51239839  1
  V  V0  1  0.56520737  0.43584974  0.24910852  1
  V  V1  1  0.43309675  0.56936192  0.74664175  1
  V  V2  1  0.63934851  0.11662481  0.93791596  1
  V  V3  1  0.56633688  0.99299735  0.73885258  1
  V  V4  1  0.43143175  0.00053095  0.25340301  1
  V  V5  1  0.00150956  0.56219200  0.25023953  1
  P  P0  1  0.90989667  0.77608642  0.84755539  1
  P  P1  1  0.77280090  0.90832906  0.34258447  1
  P  P2  1  0.90984387  0.31561465  0.34424093  1
  P  P3  1  0.66744364  0.66759047  0.12277687  1
  P  P4  1  0.66006144  0.66442457  0.61926221  1
  P  P5  1  0.76845639  0.32079757  0.83971578  1
  P  P6  1  0.68001046  0.22816272  0.65271582  1
  P  P7  1  0.32001196  0.90945605  0.84324707  1
  P  P8  1  0.67397202  0.09299717  0.15777262  1
  P  P9  1  0.31484136  0.77340154  0.34576444  1
  P  P10  1  0.22682888  0.68434753  0.15613948  1
  P  P11  1  0.33345792  0.33349998  0.37669551  1
  P  P12  1  0.34939791  0.32744886  0.88126414  1
  P  P13  1  0.08762312  0.68619242  0.65631668  1
  P  P14  1  0.22189709  0.09161683  0.65535572  1
  P  P15  1  0.09072341  0.22238440  0.15406587  1
  O  O0  1  0.99763426  0.78500107  0.56823294  1
  O  O1  1  0.92161995  0.74974978  0.34382842  1
  O  O2  1  0.74654147  0.99839198  0.06360668  1
  O  O3  1  0.74592003  0.93342418  0.84737290  1
  O  O4  1  0.88534703  0.63829311  0.84397371  1
  O  O5  1  0.81350387  0.67136862  0.16131361  1
  O  O6  1  0.89105403  0.47974533  0.33371166  1
  O  O7  1  0.99971103  0.21861134  0.06574818  1
  O  O8  1  0.91761282  0.32063332  0.85268855  1
  O  O9  1  0.67409275  0.80946832  0.65797740  1
  O  O10  1  0.62996104  0.88788713  0.33197348  1
  O  O11  1  0.79836199  0.51540865  0.65522138  1
  O  O12  1  0.66348946  0.66976141  0.01331990  1
  O  O13  1  0.64263828  0.68109493  0.51016262  1
  O  O14  1  0.67323510  0.51528442  0.16110292  1
  O  O15  1  0.47985466  0.89638611  0.83474478  1
  O  O16  1  0.51728423  0.81251479  0.16304786  1
  O  O17  1  0.74946308  0.32923412  0.34210093  1
  O  O18  1  0.78110156  0.21232569  0.74940838  1
  O  O19  1  0.77205517  0.23181561  0.56545764  1
  O  O20  1  0.74231919  0.23782513  0.93085638  1
  O  O21  1  0.62878214  0.48425045  0.82902408  1
  O  O22  1  0.50361981  0.68437926  0.66227229  1
  O  O23  1  0.67430469  0.24712114  0.15304446  1
  O  O24  1  0.47755281  0.63100327  0.33282983  1
  O  O25  1  0.32463975  0.92305297  0.34611736  1
  O  O26  1  0.78615783  0.99256701  0.24384448  1
  O  O27  1  0.76773123  0.00615936  0.42891286  1
  O  O28  1  0.22654764  0.99498982  0.56691353  1
  O  O29  1  0.67138676  0.07786676  0.64985566  1
  O  O30  1  0.51828573  0.37234046  0.66538261  1
  O  O31  1  0.33287194  0.74831193  0.84479503  1
  O  O32  1  0.48324804  0.32745765  0.33534849  1
  O  O33  1  0.37121463  0.52127621  0.16463567  1
  O  O34  1  0.23047846  0.77562288  0.06776137  1
  O  O35  1  0.22570157  0.76913423  0.43413757  1
  O  O36  1  0.21232929  0.78598076  0.25085739  1
  O  O37  1  0.24396083  0.68305737  0.66027677  1
  O  O38  1  0.49070660  0.19356765  0.82207691  1
  O  O39  1  0.50978420  0.12121717  0.17405250  1
  O  O40  1  0.33316263  0.48439427  0.84956527  1
  O  O41  1  0.42823826  0.27801600  0.98622536  1
  O  O42  1  0.33686672  0.33258639  0.48590497  1
  O  O43  1  0.18795709  0.48474024  0.33770355  1
  O  O44  1  0.37019973  0.10576643  0.66458123  1
  O  O45  1  0.32304379  0.18889772  0.33899982  1
  O  O46  1  0.08141879  0.66801675  0.15362397  1
  O  O47  1  0.99157697  0.79145770  0.75126796  1
  O  O48  1  0.00079989  0.78709684  0.93449525  1
  O  O49  1  0.10736478  0.52516771  0.66335795  1
  O  O50  1  0.20204626  0.32227989  0.87550492  1
  O  O51  1  0.11008729  0.36756747  0.16115399  1
  O  O52  1  0.25070282  0.07448824  0.15562160  1
  O  O53  1  0.23041441  0.99814439  0.93442349  1
  O  O54  1  0.21539346  0.99835498  0.75108787  1
  O  O55  1  0.08061651  0.25099284  0.65633342  1
  O  O56  1  0.00074916  0.22571528  0.43258868  1
  O  O57  1  0.99980795  0.21447937  0.24878850  1
loop_
_geom_bond_atom_site_label_1
_geom_bond_atom_site_label_2
_geom_bond_distance
_geom_bond_site_symmetry_2
Li0 O46 1.983308 1_655
Li0 O5 2.064205 1_555
Li0 O48 2.080487 1_654
Li0 O2 2.085454 1_555
Li1 O29 1.958351 1_565
Li1 O0 1.958504 1_555
Li1 O9 2.064971 1_555
Li1 O27 2.126071 1_565
Li2 O55 1.923310 1_655
Li2 O11 1.929068 1_555
Li2 O19 2.002156 1_555
Li2 O56 2.187034 1_655
Li3 O13 1.823791 1_555
Li3 O24 2.131173 1_555
Li3 O10 2.152189 1_555
Li3 O6 2.183282 1_555
Li4 O12 1.877698 1_556
Li4 O4 1.977514 1_555
Li4 O21 2.095077 1_555
Li4 O15 2.362955 1_555
Li5 O7 1.974870 1_555
Li5 O23 1.994642 1_555
Li5 O14 2.043945 1_555
Li5 O20 2.154244 1_554
Li6 O52 1.980329 1_565
Li6 O16 2.001483 1_555
Li6 O34 2.014382 1_555
Li6 O53 2.116924 1_554
Li7 O27 1.967676 1_555
Li7 O17 1.984320 1_555
Li7 O19 2.053100 1_555
Li7 O32 2.123871 1_555
Li8 O28 1.950702 1_555
Li8 O37 1.982630 1_555
Li8 O22 1.996496 1_555
Li8 O35 2.094238 1_555
Li9 O31 1.938216 1_555
Li9 O40 1.967780 1_555
Li9 O48 1.977066 1_555
Li9 O34 2.142424 1_556
Li10 O42 1.860051 1_555
Li10 O49 1.996415 1_555
Li10 O44 2.154790 1_555
Li10 O30 2.406324 1_555
Li11 O41 2.041474 1_554
Li11 O39 2.071671 1_555
Li11 O33 2.145646 1_555
Li11 O51 2.157239 1_555
Li12 O35 1.970177 1_555
Li12 O1 1.992810 1_455
Li12 O0 2.080393 1_455
Li12 O43 2.107037 1_555
Li13 O25 1.976604 1_545
Li13 O56 1.978445 1_555
Li13 O28 2.061433 1_545
Li13 O45 2.085397 1_555
Li14 O55 2.037972 1_655
Li14 O11 2.050036 1_555
Li14 O49 2.058527 1_655
Li14 O4 2.166364 1_555
Li14 O8 2.258348 1_555
Li14 O50 2.607865 1_655
Li15 O8 1.868355 1_455
Li15 O50 1.879112 1_555
Li15 O53 2.002171 1_545
Li15 O7 2.115866 1_456
Li16 O53 1.983411 1_555
Li16 O34 2.036816 1_556
Li16 O7 2.375523 1_466
Li16 O48 2.393663 1_555
Li17 O0 2.257858 1_455
Li17 O28 2.272607 1_555
Li17 O35 2.411941 1_555
Li17 O19 2.501404 1_465
Li17 O56 2.517592 1_565
Li17 O27 2.638783 1_465
O0 P13 1.539620 1_655
O1 P1 1.530602 1_555
O1 V5 2.061642 1_655
O2 P8 1.548533 1_565
O2 V2 2.069465 1_564
O3 P0 1.599424 1_555
O3 V2 2.008456 1_565
O3 V3 2.178290 1_555
O4 P0 1.500322 1_555
O5 P3 1.566583 1_555
O5 V5 2.043160 1_655
O6 P2 1.546261 1_555
O6 V5 2.022979 1_655
O7 P15 1.529770 1_655
O8 P5 1.495156 1_555
O9 P4 1.599111 1_555
O9 V3 1.932176 1_555
O10 P1 1.539883 1_555
O10 V4 2.035256 1_565
O11 P4 1.516725 1_555
O12 P3 1.508861 1_555
O13 P4 1.513751 1_555
O14 P3 1.571787 1_555
O14 V0 2.021943 1_555
O15 P7 1.535404 1_555
O15 V3 2.055346 1_555
O16 P3 1.567492 1_555
O16 V4 2.034481 1_565
O17 P2 1.534470 1_555
O17 V0 2.051653 1_555
O18 P5 1.603798 1_555
O18 P6 1.631326 1_555
O19 P6 1.522151 1_555
O20 P5 1.592767 1_555
O20 V2 1.929083 1_555
O21 P5 1.527586 1_555
O21 V1 2.042812 1_555
O22 P4 1.583229 1_555
O22 V1 1.984989 1_555
O23 P8 1.527719 1_555
O23 V0 2.092492 1_555
O24 P9 1.538228 1_555
O24 V0 2.030906 1_555
O25 P9 1.531114 1_555
O25 V4 2.040442 1_565
O26 P8 1.596287 1_565
O26 P1 1.637192 1_555
O27 P1 1.515889 1_545
O28 P14 1.532732 1_565
O29 P6 1.531535 1_555
O29 V3 2.044353 1_545
O30 P6 1.539027 1_555
O30 V1 2.027040 1_555
O31 P7 1.534431 1_555
O31 V1 2.044675 1_555
O32 P11 1.568670 1_555
O32 V0 2.025775 1_555
O33 P10 1.541257 1_555
O33 V0 2.046366 1_555
O34 P10 1.529453 1_555
O35 P9 1.518841 1_555
O36 P10 1.606739 1_555
O36 P9 1.626682 1_555
O37 P13 1.542323 1_555
O37 V1 2.033251 1_555
O38 P12 1.591637 1_555
O38 V2 2.052065 1_555
O38 V3 2.076993 1_545
O39 P8 1.531207 1_555
O39 V4 2.040096 1_555
O40 P12 1.543248 1_555
O40 V1 2.131595 1_555
O41 P12 1.604081 1_555
O41 V2 2.014520 1_555
O42 P11 1.505323 1_555
O43 P11 1.573327 1_555
O43 V5 2.020442 1_555
O44 P14 1.556232 1_555
O44 V3 1.987422 1_545
O45 P11 1.571399 1_555
O45 V4 2.002001 1_555
O46 P10 1.534910 1_555
O46 V5 2.082297 1_555
O47 P0 1.601935 1_555
O47 P13 1.645306 1_655
O48 P0 1.538404 1_455
O49 P13 1.508067 1_555
O50 P12 1.495326 1_555
O51 P15 1.543897 1_555
O51 V5 2.071464 1_555
O52 P15 1.535669 1_555
O52 V4 2.071595 1_555
O53 P7 1.534464 1_555
O54 P7 1.603214 1_555
O54 P14 1.631721 1_565
O55 P14 1.502118 1_555
O56 P2 1.516940 1_455
O57 P15 1.611478 1_655
O57 P2 1.621515 1_555
