# generated using pymatgen
data_AlBMo
_symmetry_space_group_name_H-M   'P 1'
_cell_length_a   3.09649820
_cell_length_b   3.20572142
_cell_length_c   7.16629193
_cell_angle_alpha   102.92448568
_cell_angle_beta   90.00000000
_cell_angle_gamma   90.00000000
_symmetry_Int_Tables_number   1
_chemical_formula_structural   AlBMo
_chemical_formula_sum   'Al2 B2 Mo2'
_cell_volume   69.33408516
_cell_formula_units_Z   2
loop_
 _symmetry_equiv_pos_site_id
 _symmetry_equiv_pos_as_xyz
  1  'x, y, z'
loop_
 _atom_site_type_symbol
 _atom_site_label
 _atom_site_symmetry_multiplicity
 _atom_site_fract_x
 _atom_site_fract_y
 _atom_site_fract_z
 _atom_site_occupancy
  Al  Al0  1  0.75000000  0.30128461  0.60257022  1
  Al  Al1  1  0.25000000  0.69871539  0.39742978  1
  B  B0  1  0.25000000  0.53363877  0.06728054  1
  B  B1  1  0.75000000  0.46636123  0.93271946  1
  Mo  Mo0  1  0.25000000  0.91046872  0.82093743  1
  Mo  Mo1  1  0.75000000  0.08953128  0.17906257  1
loop_
_geom_bond_atom_site_label_1
_geom_bond_atom_site_label_2
_geom_bond_distance
_geom_bond_site_symmetry_2
Al0 B1 2.306006 1_555
Al0 Al1 2.649395 1_645
Al0 Al1 2.649395 1_545
Al0 Al1 2.649399 1_555
Al0 Al1 2.649399 1_655
Al0 Mo0 2.700478 1_645
Al0 Mo0 2.700478 1_545
Al0 Mo0 2.700480 1_555
Al0 Mo0 2.700480 1_655
Al0 Mo1 2.958090 1_555
Al1 B0 2.306006 1_555
Al1 Mo1 2.700478 1_565
Al1 Mo1 2.700478 1_465
Al1 Mo1 2.700480 1_555
Al1 Mo1 2.700480 1_455
Al1 Mo0 2.958090 1_555
B0 B1 1.811198 1_454
B0 B1 1.811198 1_554
B0 Mo0 2.351544 1_544
B0 Mo0 2.351550 1_554
B0 Mo1 2.361318 1_555
B0 Mo1 2.361318 1_455
B0 Mo1 2.361324 1_565
B0 Mo1 2.361324 1_465
B1 Mo1 2.351544 1_566
B1 Mo1 2.351550 1_556
B1 Mo0 2.361318 1_655
B1 Mo0 2.361318 1_555
B1 Mo0 2.361324 1_645
B1 Mo0 2.361324 1_545
