# generated using pymatgen
data_Ho2(SeO3)3
_symmetry_space_group_name_H-M   'P 1'
_cell_length_a   8.53378423
_cell_length_b   8.53378423
_cell_length_c   8.18910700
_cell_angle_alpha   90.00000000
_cell_angle_beta   90.00000000
_cell_angle_gamma   120.00000178
_symmetry_Int_Tables_number   1
_chemical_formula_structural   Ho2(SeO3)3
_chemical_formula_sum   'Ho4 Se6 O18'
_cell_volume   516.47640450
_cell_formula_units_Z   2
loop_
 _symmetry_equiv_pos_site_id
 _symmetry_equiv_pos_as_xyz
  1  'x, y, z'
loop_
 _atom_site_type_symbol
 _atom_site_label
 _atom_site_symmetry_multiplicity
 _atom_site_fract_x
 _atom_site_fract_y
 _atom_site_fract_z
 _atom_site_occupancy
  Ho  Ho0  1  0.33333300  0.66666700  0.03931900  1
  Ho  Ho1  1  0.33333300  0.66666700  0.46068100  1
  Ho  Ho2  1  0.66666700  0.33333300  0.53931900  1
  Ho  Ho3  1  0.66666700  0.33333300  0.96068100  1
  Se  Se0  1  0.02925000  0.73260200  0.75000000  1
  Se  Se1  1  0.26739800  0.29664800  0.75000000  1
  Se  Se2  1  0.70335200  0.97075000  0.75000000  1
  Se  Se3  1  0.29664800  0.02925000  0.25000000  1
  Se  Se4  1  0.73260200  0.70335200  0.25000000  1
  Se  Se5  1  0.97075000  0.26739800  0.25000000  1
  O  O0  1  0.16169500  0.75031800  0.91337500  1
  O  O1  1  0.16169500  0.75031800  0.58662500  1
  O  O2  1  0.12960600  0.50047000  0.25000000  1
  O  O3  1  0.37086400  0.87039400  0.25000000  1
  O  O4  1  0.24968200  0.41137600  0.58662500  1
  O  O5  1  0.24968200  0.41137600  0.91337500  1
  O  O6  1  0.58862400  0.83830500  0.58662500  1
  O  O7  1  0.58862400  0.83830500  0.91337500  1
  O  O8  1  0.49953000  0.62913600  0.25000000  1
  O  O9  1  0.50047000  0.37086400  0.75000000  1
  O  O10  1  0.41137600  0.16169500  0.41337500  1
  O  O11  1  0.41137600  0.16169500  0.08662500  1
  O  O12  1  0.75031800  0.58862400  0.08662500  1
  O  O13  1  0.75031800  0.58862400  0.41337500  1
  O  O14  1  0.62913600  0.12960600  0.75000000  1
  O  O15  1  0.87039400  0.49953000  0.75000000  1
  O  O16  1  0.83830500  0.24968200  0.08662500  1
  O  O17  1  0.83830500  0.24968200  0.41337500  1
loop_
_geom_bond_atom_site_label_1
_geom_bond_atom_site_label_2
_geom_bond_distance
_geom_bond_site_symmetry_2
Ho0 O0 2.182735 1_554
Ho0 O7 2.182746 1_554
Ho0 O5 2.182749 1_554
Ho0 O3 2.354777 1_555
Ho0 O2 2.354779 1_555
Ho0 O8 2.354782 1_555
Ho1 O1 2.182735 1_555
Ho1 O6 2.182746 1_555
Ho1 O4 2.182749 1_555
Ho1 O3 2.354777 1_555
Ho1 O2 2.354779 1_555
Ho1 O8 2.354782 1_555
Ho2 O17 2.182735 1_555
Ho2 O10 2.182746 1_555
Ho2 O13 2.182749 1_555
Ho2 O14 2.354777 1_555
Ho2 O15 2.354779 1_555
Ho2 O9 2.354782 1_555
Ho3 O16 2.182735 1_556
Ho3 O11 2.182746 1_556
Ho3 O12 2.182749 1_556
Ho3 O14 2.354777 1_555
Ho3 O15 2.354779 1_555
Ho3 O9 2.354782 1_555
O0 Se0 1.708632 1_555
O1 Se0 1.708632 1_555
O2 Se5 1.759965 1_455
O3 Se3 1.759966 1_565
O4 Se1 1.708627 1_555
O5 Se1 1.708627 1_555
O6 Se2 1.708630 1_555
O7 Se2 1.708630 1_555
O8 Se4 1.759965 1_555
O9 Se1 1.759965 1_555
O10 Se3 1.708630 1_555
O11 Se3 1.708630 1_555
O12 Se4 1.708627 1_555
O13 Se4 1.708627 1_555
O14 Se2 1.759966 1_545
O15 Se0 1.759965 1_655
O16 Se5 1.708632 1_555
O17 Se5 1.708632 1_555
