# generated using pymatgen
data_NiSn2H12(OF)6
_symmetry_space_group_name_H-M   'P 1'
_cell_length_a   6.87054121
_cell_length_b   14.27866699
_cell_length_c   14.05283080
_cell_angle_alpha   74.53085109
_cell_angle_beta   102.13305032
_cell_angle_gamma   78.79232293
_symmetry_Int_Tables_number   1
_chemical_formula_structural   NiSn2H12(OF)6
_chemical_formula_sum   'Ni4 Sn8 H48 O24 F24'
_cell_volume   1252.27394521
_cell_formula_units_Z   4
loop_
 _symmetry_equiv_pos_site_id
 _symmetry_equiv_pos_as_xyz
  1  'x, y, z'
loop_
 _atom_site_type_symbol
 _atom_site_label
 _atom_site_symmetry_multiplicity
 _atom_site_fract_x
 _atom_site_fract_y
 _atom_site_fract_z
 _atom_site_occupancy
  Ni  Ni0  1  0.00026300  0.99987600  0.50003800  1
  Ni  Ni1  1  0.99988300  0.49996700  0.24996700  1
  Ni  Ni2  1  0.99981000  0.49997800  0.75001200  1
  Ni  Ni3  1  0.00007800  0.00004300  0.00000700  1
  Sn  Sn0  1  0.66736200  0.83591400  0.26192200  1
  Sn  Sn1  1  0.66713800  0.33593400  0.01203300  1
  Sn  Sn2  1  0.66740100  0.83590600  0.76209800  1
  Sn  Sn3  1  0.66735100  0.33598700  0.51210800  1
  Sn  Sn4  1  0.33264000  0.66401800  0.48802100  1
  Sn  Sn5  1  0.33264900  0.16402800  0.23790900  1
  Sn  Sn6  1  0.33266200  0.66409500  0.98784800  1
  Sn  Sn7  1  0.33258200  0.16420800  0.73803300  1
  H  H0  1  0.90272500  0.62735300  0.55884900  1
  H  H1  1  0.90264000  0.12736500  0.30879500  1
  H  H2  1  0.90238500  0.62736700  0.05874600  1
  H  H3  1  0.90272000  0.12740600  0.80881600  1
  H  H4  1  0.09726700  0.87264000  0.19114500  1
  H  H5  1  0.09725500  0.37258300  0.94121400  1
  H  H6  1  0.09772600  0.87266700  0.69123800  1
  H  H7  1  0.09738700  0.37263500  0.44122300  1
  H  H8  1  0.74048800  0.54167100  0.35951200  1
  H  H9  1  0.74059700  0.04156500  0.10958400  1
  H  H10  1  0.74049400  0.54154100  0.85967700  1
  H  H11  1  0.74062900  0.04151500  0.60970000  1
  H  H12  1  0.25971300  0.95844100  0.39033000  1
  H  H13  1  0.25939200  0.45856500  0.14022600  1
  H  H14  1  0.25942200  0.95851000  0.89032600  1
  H  H15  1  0.25940500  0.45839500  0.64052200  1
  H  H16  1  0.75896700  0.87405200  0.53352800  1
  H  H17  1  0.75870800  0.37407000  0.28357700  1
  H  H18  1  0.75862700  0.87421200  0.03347900  1
  H  H19  1  0.75857200  0.37420000  0.78351200  1
  H  H20  1  0.24102400  0.62594400  0.21647800  1
  H  H21  1  0.24126400  0.12582800  0.96656900  1
  H  H22  1  0.24121500  0.62577900  0.71658000  1
  H  H23  1  0.24122800  0.12587000  0.46652300  1
  H  H24  1  0.78912800  0.68126400  0.62501200  1
  H  H25  1  0.78913900  0.18121100  0.37501300  1
  H  H26  1  0.78883000  0.68131700  0.12489000  1
  H  H27  1  0.78910200  0.18130900  0.87496900  1
  H  H28  1  0.21088400  0.81872300  0.12495200  1
  H  H29  1  0.21090100  0.31869700  0.87506600  1
  H  H30  1  0.21134500  0.81860700  0.62515600  1
  H  H31  1  0.21096700  0.31872100  0.37506800  1
  H  H32  1  0.91822600  0.59670900  0.37925000  1
  H  H33  1  0.91830600  0.09671300  0.12939300  1
  H  H34  1  0.91827400  0.59667300  0.87937600  1
  H  H35  1  0.91828900  0.09665000  0.62938200  1
  H  H36  1  0.08200200  0.90328900  0.37068300  1
  H  H37  1  0.08166400  0.40335300  0.12050500  1
  H  H38  1  0.08173800  0.90334500  0.87059200  1
  H  H39  1  0.08181100  0.40327200  0.62066900  1
  H  H40  1  0.64893800  0.96068800  0.42623000  1
  H  H41  1  0.64850900  0.46076100  0.17620100  1
  H  H42  1  0.64808200  0.96096600  0.92613400  1
  H  H43  1  0.64801200  0.46088600  0.67613700  1
  H  H44  1  0.35112200  0.53933900  0.32378700  1
  H  H45  1  0.35188400  0.03910900  0.07390100  1
  H  H46  1  0.35171700  0.53908000  0.82388700  1
  H  H47  1  0.35151800  0.03924700  0.57386200  1
  O  O0  1  0.82790100  0.61577500  0.61228600  1
  O  O1  1  0.82796600  0.11573500  0.36226100  1
  O  O2  1  0.82736900  0.61586200  0.11208800  1
  O  O3  1  0.82779600  0.11582100  0.86218600  1
  O  O4  1  0.17208800  0.88421000  0.13772600  1
  O  O5  1  0.17211600  0.38419300  0.88781900  1
  O  O6  1  0.17266000  0.88412300  0.63789700  1
  O  O7  1  0.17212100  0.38422700  0.38778600  1
  O  O8  1  0.83191200  0.57667500  0.32610000  1
  O  O9  1  0.83213100  0.07655800  0.07624300  1
  O  O10  1  0.83208300  0.57641900  0.82634500  1
  O  O11  1  0.83233900  0.07625500  0.57637300  1
  O  O12  1  0.16842800  0.92342400  0.42374300  1
  O  O13  1  0.16740500  0.42388300  0.17341900  1
  O  O14  1  0.16786600  0.92361900  0.92364500  1
  O  O15  1  0.16796800  0.42336600  0.67387000  1
  O  O16  1  0.78559500  0.91891900  0.47312000  1
  O  O17  1  0.78527100  0.41896300  0.22303700  1
  O  O18  1  0.78486800  0.91940500  0.97312000  1
  O  O19  1  0.78476900  0.41927400  0.72302200  1
  O  O20  1  0.21443100  0.58105200  0.27687300  1
  O  O21  1  0.21501800  0.08086500  0.02712000  1
  O  O22  1  0.21486000  0.58072900  0.77701300  1
  O  O23  1  0.21472200  0.08099500  0.52699800  1
  F  F0  1  0.71622000  0.79587900  0.13312500  1
  F  F1  1  0.71646700  0.29583700  0.88327200  1
  F  F2  1  0.71643300  0.79590800  0.63327500  1
  F  F3  1  0.71658300  0.29587000  0.38330300  1
  F  F4  1  0.28362000  0.70417500  0.61670500  1
  F  F5  1  0.28339900  0.20413100  0.36670600  1
  F  F6  1  0.28369100  0.70415100  0.11666900  1
  F  F7  1  0.28328800  0.20412000  0.86676100  1
  F  F8  1  0.57821100  0.98587300  0.16050100  1
  F  F9  1  0.57819800  0.48589800  0.91054600  1
  F  F10  1  0.57806400  0.98587100  0.66054700  1
  F  F11  1  0.57808800  0.48588000  0.41052800  1
  F  F12  1  0.42185900  0.51408300  0.58949800  1
  F  F13  1  0.42193300  0.01411200  0.33946300  1
  F  F14  1  0.42192300  0.51411200  0.08944300  1
  F  F15  1  0.42187700  0.01411200  0.83946100  1
  F  F16  1  0.97019100  0.85555500  0.28472800  1
  F  F17  1  0.97024400  0.35523900  0.03465600  1
  F  F18  1  0.96996600  0.85566000  0.78461400  1
  F  F19  1  0.97003600  0.35550600  0.53481400  1
  F  F20  1  0.03012000  0.64425000  0.46541900  1
  F  F21  1  0.03002800  0.14438500  0.21523700  1
  F  F22  1  0.02994400  0.64455000  0.96513200  1
  F  F23  1  0.02987700  0.14443800  0.71524900  1
loop_
_geom_bond_atom_site_label_1
_geom_bond_atom_site_label_2
_geom_bond_distance
_geom_bond_site_symmetry_2
Ni0 O16 2.077522 1_455
Ni0 O23 2.078230 1_565
Ni0 O11 2.080005 1_465
Ni0 O12 2.081078 1_555
Ni0 O1 2.110316 1_465
Ni0 O6 2.110495 1_555
Ni1 O17 2.077751 1_555
Ni1 O20 2.078207 1_655
Ni1 O13 2.078436 1_655
Ni1 O8 2.080602 1_555
Ni1 O7 2.109847 1_655
Ni1 O2 2.111705 1_555
Ni2 O19 2.077023 1_555
Ni2 O22 2.077597 1_655
Ni2 O10 2.079715 1_555
Ni2 O15 2.080659 1_655
Ni2 O0 2.108938 1_555
Ni2 O5 2.110124 1_655
Ni3 O18 2.076970 1_444
Ni3 O21 2.078046 1_555
Ni3 O9 2.080096 1_455
Ni3 O14 2.080130 1_544
Ni3 O4 2.109250 1_545
Ni3 O3 2.110162 1_454
H0 O0 0.992278 1_555
H1 O1 0.991931 1_555
H2 O2 0.992051 1_555
H3 O3 0.991999 1_555
H4 O4 0.992048 1_555
H5 O5 0.992004 1_555
H6 O6 0.991594 1_555
H7 O7 0.991853 1_555
H8 O8 0.992802 1_555
H9 O9 0.992880 1_555
H10 O10 0.992314 1_555
H11 O11 0.991990 1_555
H12 O12 0.992109 1_555
H13 O13 0.992273 1_555
H14 O14 0.992132 1_555
H15 O15 0.992631 1_555
H16 O16 0.992606 1_555
H17 O17 0.993896 1_555
H18 O18 0.992931 1_554
H19 O19 0.993334 1_555
H20 O20 0.992519 1_555
H21 O21 0.993397 1_556
H22 O22 0.993130 1_555
H23 O23 0.992928 1_555
H24 O0 0.994862 1_555
H25 O1 0.994912 1_555
H26 O2 0.994731 1_555
H27 O3 0.995172 1_555
H28 O4 0.995183 1_555
H29 O5 0.995150 1_555
H30 O6 0.995251 1_555
H31 O7 0.995096 1_555
H32 O8 0.992524 1_555
H33 O9 0.993097 1_555
H34 O10 0.992833 1_555
H35 O11 0.993021 1_555
H36 O12 0.992889 1_555
H37 O13 0.992549 1_555
H38 O14 0.993010 1_555
H39 O15 0.993013 1_555
H40 O16 0.991997 1_555
H41 O17 0.992363 1_555
H42 O18 0.992314 1_555
H43 O19 0.991914 1_555
H44 O20 0.992069 1_555
H45 O21 0.992478 1_555
H46 O22 0.992468 1_555
H47 O23 0.992473 1_555
F0 H26 1.657138 1_555
F0 H18 1.661166 1_555
F0 Sn0 2.109066 1_555
F1 H27 1.657079 1_555
F1 H19 1.661493 1_555
F1 Sn1 2.109924 1_556
F2 H24 1.658476 1_555
F2 H16 1.661283 1_555
F2 Sn2 2.109514 1_555
F3 H25 1.658711 1_555
F3 H17 1.660103 1_555
F3 Sn3 2.110462 1_555
F4 H30 1.656301 1_555
F4 H22 1.663848 1_555
F4 Sn4 2.108673 1_555
F5 H31 1.658074 1_555
F5 H23 1.661572 1_555
F5 Sn5 2.110295 1_555
F6 H28 1.657709 1_555
F6 H20 1.662769 1_555
F6 Sn6 2.109755 1_554
F7 H29 1.657542 1_555
F7 H21 1.661209 1_555
F7 Sn7 2.108170 1_555
F8 H45 1.651783 1_565
F8 H9 1.663133 1_565
F8 Sn0 2.118155 1_555
F9 H46 1.652804 1_555
F9 H10 1.661960 1_555
F9 Sn1 2.118599 1_556
F10 H47 1.653491 1_565
F10 H11 1.663409 1_565
F10 Sn2 2.118785 1_555
F11 H44 1.655926 1_555
F11 H8 1.664531 1_555
F11 Sn3 2.118154 1_555
F12 H43 1.651133 1_555
F12 H15 1.664172 1_555
F12 Sn4 2.118136 1_555
F13 H40 1.656224 1_545
F13 H12 1.661699 1_545
F13 Sn5 2.118275 1_555
F14 H41 1.654080 1_555
F14 H13 1.662128 1_555
F14 Sn6 2.119222 1_554
F15 H42 1.651523 1_545
F15 H14 1.662580 1_545
F15 Sn7 2.119657 1_555
F16 Sn0 2.122433 1_555
F17 Sn1 2.122606 1_555
F18 Sn2 2.121336 1_555
F19 Sn3 2.120866 1_555
F20 Sn4 2.121082 1_555
F21 Sn5 2.121089 1_555
F22 Sn6 2.121219 1_555
F23 Sn7 2.122279 1_555
