# generated using pymatgen
data_Li2CuSbO5
_symmetry_space_group_name_H-M   'P 1'
_cell_length_a   5.14207900
_cell_length_b   5.57080840
_cell_length_c   7.85229360
_cell_angle_alpha   103.68135106
_cell_angle_beta   100.97711199
_cell_angle_gamma   106.23197279
_symmetry_Int_Tables_number   1
_chemical_formula_structural   Li2CuSbO5
_chemical_formula_sum   'Li4 Cu2 Sb2 O10'
_cell_volume   201.74949825
_cell_formula_units_Z   2
loop_
 _symmetry_equiv_pos_site_id
 _symmetry_equiv_pos_as_xyz
  1  'x, y, z'
loop_
 _atom_site_type_symbol
 _atom_site_label
 _atom_site_symmetry_multiplicity
 _atom_site_fract_x
 _atom_site_fract_y
 _atom_site_fract_z
 _atom_site_occupancy
  Li  Li0  1  0.21084600  0.89952900  0.35266000  1
  Li  Li1  1  0.41160200  0.29767000  0.80985100  1
  Li  Li2  1  0.59352700  0.70689700  0.21713800  1
  Li  Li3  1  0.77076000  0.09582600  0.60554600  1
  Cu  Cu0  1  0.01648600  0.51178200  0.00617700  1
  Cu  Cu1  1  0.69753600  0.90744600  0.90981800  1
  Sb  Sb0  1  0.08984700  0.68595900  0.69201700  1
  Sb  Sb1  1  0.89045100  0.29740700  0.29926500  1
  O  O0  1  0.00845300  0.00993900  0.81188000  1
  O  O1  1  0.33562600  0.65508100  0.92021800  1
  O  O2  1  0.13518700  0.34512700  0.54898000  1
  O  O3  1  0.21204500  0.52369600  0.22925800  1
  O  O4  1  0.46292500  0.92423200  0.70227700  1
  O  O5  1  0.57997100  0.08125800  0.35783500  1
  O  O6  1  0.79534900  0.47499800  0.77879300  1
  O  O7  1  0.88915600  0.66895800  0.44512300  1
  O  O8  1  0.69608600  0.35157300  0.06858900  1
  O  O9  1  0.90728600  0.95289400  0.14571300  1
loop_
_geom_bond_atom_site_label_1
_geom_bond_atom_site_label_2
_geom_bond_distance
_geom_bond_site_symmetry_2
Li0 O5 1.872468 1_565
Li0 O3 2.091011 1_555
Li0 O7 2.150334 1_455
Li0 O9 2.165061 1_455
Li1 O6 2.033853 1_555
Li1 O1 2.148392 1_555
Li1 O4 2.161386 1_545
Li1 O8 2.166057 1_556
Li1 O0 2.243650 1_555
Li1 O2 2.375637 1_555
Li2 O3 1.973926 1_555
Li2 O9 2.065831 1_555
Li2 O5 2.143688 1_565
Li2 O7 2.209651 1_555
Li2 O8 2.298380 1_555
Li2 O1 2.359666 1_554
Li3 O5 1.976501 1_555
Li3 O4 1.987900 1_545
Li3 O0 2.070580 1_655
Li3 O6 2.180436 1_555
Li3 O2 2.188944 1_655
Cu0 O3 1.822335 1_555
Cu0 O8 1.855643 1_455
Cu0 O6 1.856452 1_454
Cu0 O1 1.931380 1_554
Cu1 O4 1.872533 1_555
Cu1 O9 1.876995 1_556
Cu1 O0 1.907637 1_665
Cu1 O1 2.023834 1_555
Cu1 O8 2.496093 1_566
Cu1 O6 2.610972 1_555
O0 Sb0 2.021682 1_545
O1 Sb0 2.059763 1_555
O2 Sb1 2.031227 1_455
O2 Sb0 2.063822 1_555
O3 Sb1 2.033350 1_455
O4 Sb0 1.978792 1_555
O5 Sb1 1.917590 1_555
O6 Sb0 1.978757 1_655
O7 Sb0 1.982173 1_655
O7 Sb1 2.117838 1_555
O8 Sb1 2.026965 1_555
O9 Sb1 2.045155 1_565
