# generated using pymatgen
data_PtO3
_symmetry_space_group_name_H-M   'P 1'
_cell_length_a   4.92863000
_cell_length_b   5.02747800
_cell_length_c   7.21006500
_cell_angle_alpha   90.00000000
_cell_angle_beta   90.00000000
_cell_angle_gamma   90.00000000
_symmetry_Int_Tables_number   1
_chemical_formula_structural   PtO3
_chemical_formula_sum   'Pt4 O12'
_cell_volume   178.65516444
_cell_formula_units_Z   4
loop_
 _symmetry_equiv_pos_site_id
 _symmetry_equiv_pos_as_xyz
  1  'x, y, z'
loop_
 _atom_site_type_symbol
 _atom_site_label
 _atom_site_symmetry_multiplicity
 _atom_site_fract_x
 _atom_site_fract_y
 _atom_site_fract_z
 _atom_site_occupancy
  Pt  Pt0  1  0.00000000  0.00000000  0.00000000  1
  Pt  Pt1  1  0.00000000  0.00000000  0.50000000  1
  Pt  Pt2  1  0.50000000  0.50000000  0.00000000  1
  Pt  Pt3  1  0.50000000  0.50000000  0.50000000  1
  O  O0  1  0.85080500  0.65228500  0.07858600  1
  O  O1  1  0.14919500  0.34771500  0.57858600  1
  O  O2  1  0.84088800  0.95531400  0.75000000  1
  O  O3  1  0.64919500  0.15228500  0.07858600  1
  O  O4  1  0.34088800  0.54468600  0.25000000  1
  O  O5  1  0.64919500  0.15228500  0.42141400  1
  O  O6  1  0.35080500  0.84771500  0.92141400  1
  O  O7  1  0.15911200  0.04468600  0.25000000  1
  O  O8  1  0.65911200  0.45531400  0.75000000  1
  O  O9  1  0.35080500  0.84771500  0.57858600  1
  O  O10  1  0.14919500  0.34771500  0.92141400  1
  O  O11  1  0.85080500  0.65228500  0.42141400  1
loop_
_geom_bond_atom_site_label_1
_geom_bond_atom_site_label_2
_geom_bond_distance
_geom_bond_site_symmetry_2
O0 Pt2 1.973982 1_555
O0 Pt0 1.979320 1_665
O1 Pt3 1.973982 1_555
O1 Pt1 1.979320 1_555
O2 Pt0 1.978513 1_666
O2 Pt1 1.978513 1_665
O3 Pt0 1.973982 1_655
O3 Pt2 1.979320 1_555
O4 Pt3 1.978513 1_555
O4 Pt2 1.978513 1_555
O5 Pt1 1.973982 1_655
O5 Pt3 1.979320 1_555
O6 Pt0 1.973982 1_566
O6 Pt2 1.979320 1_556
O7 Pt1 1.978513 1_555
O7 Pt0 1.978513 1_555
O8 Pt3 1.978513 1_555
O8 Pt2 1.978513 1_556
O9 Pt1 1.973982 1_565
O9 Pt3 1.979320 1_555
O10 Pt2 1.973982 1_556
O10 Pt0 1.979320 1_556
O11 Pt3 1.973982 1_555
O11 Pt1 1.979320 1_665
