# generated using pymatgen
data_Ca2Mn(PO5)2
_symmetry_space_group_name_H-M   'P 1'
_cell_length_a   5.23946600
_cell_length_b   6.09652198
_cell_length_c   6.74083586
_cell_angle_alpha   89.59943614
_cell_angle_beta   103.04292160
_cell_angle_gamma   109.34601854
_symmetry_Int_Tables_number   1
_chemical_formula_structural   Ca2Mn(PO5)2
_chemical_formula_sum   'Ca2 Mn1 P2 O10'
_cell_volume   197.38134653
_cell_formula_units_Z   1
loop_
 _symmetry_equiv_pos_site_id
 _symmetry_equiv_pos_as_xyz
  1  'x, y, z'
loop_
 _atom_site_type_symbol
 _atom_site_label
 _atom_site_symmetry_multiplicity
 _atom_site_fract_x
 _atom_site_fract_y
 _atom_site_fract_z
 _atom_site_occupancy
  Ca  Ca0  1  0.67102800  0.40004400  0.74792000  1
  Ca  Ca1  1  0.32897200  0.59995600  0.25208000  1
  Mn  Mn0  1  0.00000000  0.00000000  0.00000000  1
  P  P0  1  0.36836900  0.76281200  0.76866900  1
  P  P1  1  0.63163100  0.23718800  0.23133100  1
  O  O0  1  0.42969400  0.01037100  0.69715200  1
  O  O1  1  0.57030600  0.98962900  0.30284800  1
  O  O2  1  0.32548000  0.57509000  0.60162600  1
  O  O3  1  0.67452000  0.42491000  0.39837400  1
  O  O4  1  0.62484300  0.75236800  0.94196800  1
  O  O5  1  0.37515700  0.24763200  0.05803200  1
  O  O6  1  0.11627700  0.70605400  0.86979500  1
  O  O7  1  0.88372300  0.29394600  0.13020500  1
  O  O8  1  0.91373900  0.11776600  0.75999500  1
  O  O9  1  0.08626100  0.88223400  0.24000500  1
loop_
_geom_bond_atom_site_label_1
_geom_bond_atom_site_label_2
_geom_bond_distance
_geom_bond_site_symmetry_2
Ca0 O0 2.277172 1_555
Ca0 O3 2.363847 1_555
Ca0 O2 2.418414 1_555
Ca0 O6 2.422912 1_655
Ca0 O8 2.446752 1_555
Ca0 O4 2.628642 1_555
Ca0 O7 2.731098 1_556
Ca0 O5 2.849126 1_556
Ca1 O1 2.277172 1_555
Ca1 O2 2.363847 1_555
Ca1 O3 2.418414 1_555
Ca1 O7 2.422912 1_455
Ca1 O9 2.446752 1_555
Ca1 O5 2.628642 1_555
Ca1 O6 2.731098 1_554
Ca1 O4 2.849126 1_554
Mn0 O8 1.790487 1_454
Mn0 O9 1.790487 1_545
Mn0 O4 1.997742 1_444
Mn0 O5 1.997742 1_555
Mn0 O7 2.310763 1_455
Mn0 O6 2.310763 1_544
O0 P0 1.533599 1_545
O1 P1 1.533599 1_565
O2 P0 1.536744 1_555
O3 P1 1.536744 1_555
O4 P0 1.587945 1_555
O5 P1 1.587945 1_555
O6 P0 1.558616 1_555
O7 P1 1.558616 1_555
