# generated using pymatgen
data_Li5La3Nb2O12
_symmetry_space_group_name_H-M   'P 1'
_cell_length_a   11.12537800
_cell_length_b   11.14377133
_cell_length_c   11.16219310
_cell_angle_alpha   109.44411605
_cell_angle_beta   109.69358096
_cell_angle_gamma   109.07781051
_symmetry_Int_Tables_number   1
_chemical_formula_structural   Li5La3Nb2O12
_chemical_formula_sum   'Li20 La12 Nb8 O48'
_cell_volume   1067.88041642
_cell_formula_units_Z   4
loop_
 _symmetry_equiv_pos_site_id
 _symmetry_equiv_pos_as_xyz
  1  'x, y, z'
loop_
 _atom_site_type_symbol
 _atom_site_label
 _atom_site_symmetry_multiplicity
 _atom_site_fract_x
 _atom_site_fract_y
 _atom_site_fract_z
 _atom_site_occupancy
  Li  Li0  1  0.75063200  0.93226200  0.04224500  1
  Li  Li1  1  0.43253100  0.68407400  0.88716400  1
  Li  Li2  1  0.04549700  0.10850000  0.29655900  1
  Li  Li3  1  0.53686600  0.74842200  0.42795900  1
  Li  Li4  1  0.70416700  0.81917400  0.74986300  1
  Li  Li5  1  0.38716500  0.44377600  0.19242300  1
  Li  Li6  1  0.31949500  0.60893100  0.07105700  1
  Li  Li7  1  0.06920100  0.45072500  0.75144200  1
  Li  Li8  1  0.17939400  0.75465400  0.78841900  1
  Li  Li9  1  0.88932600  0.20642100  0.45520600  1
  Li  Li10  1  0.25080300  0.69747600  0.30855900  1
  Li  Li11  1  0.79702000  0.04801600  0.61665300  1
  Li  Li12  1  0.21487800  0.97055200  0.38855200  1
  Li  Li13  1  0.74391500  0.29466100  0.68507300  1
  Li  Li14  1  0.11412300  0.80620200  0.55482700  1
  Li  Li15  1  0.91373000  0.52744400  0.24169000  1
  Li  Li16  1  0.61297200  0.56133300  0.81613100  1
  Li  Li17  1  0.29354000  0.18031400  0.25075900  1
  Li  Li18  1  0.97405400  0.89031500  0.71584900  1
  Li  Li19  1  0.58149700  0.32586700  0.11367500  1
  La  La0  1  0.25658200  0.37144000  0.62315800  1
  La  La1  1  0.62829500  0.88002400  0.24907200  1
  La  La2  1  0.13014100  0.24565100  0.87878800  1
  La  La3  1  0.38047500  0.75323700  0.62953400  1
  La  La4  1  0.11826300  0.37312400  0.24871900  1
  La  La5  1  0.24923300  0.86738200  0.11482500  1
  La  La6  1  0.87007100  0.61995800  0.74923800  1
  La  La7  1  0.61973700  0.24801800  0.36809500  1
  La  La8  1  0.74858500  0.13809100  0.89160200  1
  La  La9  1  0.87985300  0.74643700  0.12948700  1
  La  La10  1  0.75024500  0.63502800  0.38520700  1
  La  La11  1  0.38398900  0.13353400  0.75555200  1
  Nb  Nb0  1  0.50570200  0.50242100  0.00276100  1
  Nb  Nb1  1  0.99971900  0.00122900  0.49992400  1
  Nb  Nb2  1  0.49788400  0.49445500  0.49935500  1
  Nb  Nb3  1  0.00495600  0.00054100  0.99966600  1
  Nb  Nb4  1  0.99676600  0.49792600  0.99604400  1
  Nb  Nb5  1  0.49875700  0.00349200  0.50070100  1
  Nb  Nb6  1  0.99843000  0.49586900  0.49658300  1
  Nb  Nb7  1  0.49685700  0.00279200  0.00301900  1
  O  O0  1  0.88472700  0.97294200  0.29593800  1
  O  O1  1  0.47623800  0.58840600  0.67698200  1
  O  O2  1  0.29617000  0.32569200  0.40953400  1
  O  O3  1  0.61886300  0.69943800  0.01972300  1
  O  O4  1  0.79690600  0.88974300  0.47421700  1
  O  O5  1  0.51765200  0.62036200  0.19897800  1
  O  O6  1  0.30368200  0.48254600  0.88704500  1
  O  O7  1  0.40772000  0.82004600  0.02069500  1
  O  O8  1  0.19816300  0.58304100  0.67808100  1
  O  O9  1  0.02925500  0.32546300  0.41568000  1
  O  O10  1  0.59491600  0.91560700  0.61463600  1
  O  O11  1  0.17450000  0.20217200  0.08794600  1
  O  O12  1  0.02284100  0.19940700  0.61742800  1
  O  O13  1  0.38316700  0.58552100  0.40849300  1
  O  O14  1  0.42249500  0.82002900  0.30423200  1
  O  O15  1  0.58960500  0.91330100  0.88693900  1
  O  O16  1  0.17794000  0.47474000  0.09062600  1
  O  O17  1  0.90996800  0.01989000  0.82233100  1
  O  O18  1  0.08976000  0.60951700  0.90984900  1
  O  O19  1  0.66942400  0.08062000  0.19987000  1
  O  O20  1  0.88454700  0.39972400  0.57875800  1
  O  O21  1  0.91342200  0.29898200  0.82415600  1
  O  O22  1  0.32072300  0.90666500  0.51752800  1
  O  O23  1  0.92108800  0.11043600  0.09615900  1
  O  O24  1  0.07342900  0.87267500  0.90016500  1
  O  O25  1  0.67834300  0.10063400  0.48340900  1
  O  O26  1  0.08989700  0.70077800  0.17416300  1
  O  O27  1  0.11047200  0.59247100  0.41524400  1
  O  O28  1  0.32627800  0.90780600  0.79175500  1
  O  O29  1  0.91634600  0.38959000  0.08755300  1
  O  O30  1  0.10180000  0.98163200  0.17929900  1
  O  O31  1  0.82947500  0.53163700  0.91159000  1
  O  O32  1  0.41313000  0.08573300  0.11612400  1
  O  O33  1  0.58487200  0.16900200  0.69970400  1
  O  O34  1  0.61720100  0.41526100  0.58610700  1
  O  O35  1  0.82257000  0.80572000  0.92206500  1
  O  O36  1  0.39965700  0.07032400  0.37324000  1
  O  O37  1  0.97316700  0.79910400  0.38831200  1
  O  O38  1  0.98443500  0.68075100  0.60234400  1
  O  O39  1  0.80229800  0.42904300  0.33030200  1
  O  O40  1  0.57930200  0.17145100  0.97165800  1
  O  O41  1  0.70212600  0.53065700  0.12984100  1
  O  O42  1  0.47531000  0.38933200  0.80525500  1
  O  O43  1  0.19086900  0.11307500  0.51560500  1
  O  O44  1  0.39259500  0.31209100  0.98691700  1
  O  O45  1  0.69774800  0.67676400  0.58758100  1
  O  O46  1  0.52212200  0.41172600  0.32318800  1
  O  O47  1  0.11604300  0.02008600  0.69292200  1
loop_
_geom_bond_atom_site_label_1
_geom_bond_atom_site_label_2
_geom_bond_distance
_geom_bond_site_symmetry_2
Li0 O15 1.916983 1_554
Li0 O23 1.968416 1_565
Li0 O35 2.151875 1_554
Li0 O3 2.403100 1_555
Li0 O0 2.511176 1_555
Li0 O19 2.599296 1_565
Li1 O7 1.908092 1_556
Li1 O3 2.011979 1_556
Li1 O6 2.233986 1_555
Li1 O8 2.396505 1_555
Li1 O1 2.513903 1_555
Li1 O15 2.582279 1_555
Li2 O0 1.923442 1_445
Li2 O30 2.000953 1_545
Li2 O23 2.210175 1_455
Li2 O43 2.407163 1_555
Li2 O9 2.439981 1_555
Li2 O2 2.532010 1_555
Li3 O13 1.929867 1_555
Li3 O10 1.987931 1_555
Li3 O14 2.091945 1_555
Li3 O5 2.370431 1_555
Li3 O4 2.567089 1_555
Li3 O45 2.597709 1_555
Li4 O45 1.931243 1_555
Li4 O35 2.016635 1_555
Li4 O17 2.258097 1_565
Li4 O10 2.368081 1_555
Li4 O15 2.487088 1_555
Li4 O1 2.580554 1_555
Li5 O46 1.932092 1_555
Li5 O5 1.987535 1_555
Li5 O44 2.308524 1_554
Li5 O16 2.414927 1_555
Li5 O13 2.428117 1_555
Li5 O11 2.468308 1_555
Li6 O16 1.916744 1_555
Li6 O6 1.975321 1_554
Li6 O5 2.118710 1_555
Li6 O14 2.402623 1_555
Li6 O7 2.560684 1_555
Li6 O18 2.586421 1_554
Li7 O18 1.920873 1_555
Li7 O20 2.024177 1_455
Li7 O8 2.261854 1_555
Li7 O6 2.366167 1_555
Li7 O12 2.468552 1_555
Li7 O21 2.543208 1_455
Li8 O28 1.917840 1_555
Li8 O8 2.020904 1_555
Li8 O38 2.086602 1_455
Li8 O24 2.363858 1_555
Li8 O18 2.600708 1_555
Li8 O7 2.607500 1_556
Li9 O12 1.961807 1_655
Li9 O9 1.969910 1_655
Li9 O20 2.165975 1_555
Li9 O25 2.436128 1_555
Li9 O19 2.544030 1_555
Li9 O0 2.589364 1_545
Li10 O26 1.930354 1_555
Li10 O14 1.979115 1_555
Li10 O22 2.334886 1_555
Li10 O13 2.447402 1_555
Li10 O16 2.464003 1_555
Li10 O27 2.492258 1_555
Li11 O4 1.941349 1_545
Li11 O25 2.015524 1_555
Li11 O10 2.237934 1_545
Li11 O17 2.395873 1_555
Li11 O21 2.482238 1_555
Li11 O12 2.522510 1_655
Li12 O43 1.907394 1_565
Li12 O22 2.013446 1_555
Li12 O36 2.088213 1_565
Li12 O30 2.316595 1_555
Li12 O26 2.633054 1_555
Li13 O33 1.961043 1_555
Li13 O21 1.971421 1_555
Li13 O25 2.212697 1_555
Li13 O34 2.488211 1_555
Li13 O20 2.491167 1_555
Li13 O31 2.561657 1_555
Li14 O37 1.943370 1_455
Li14 O38 2.002084 1_455
Li14 O27 2.350632 1_555
Li14 O47 2.357102 1_565
Li14 O28 2.428881 1_555
Li14 O22 2.446009 1_555
Li15 O29 1.903742 1_555
Li15 O27 2.059039 1_655
Li15 O39 2.092264 1_555
Li15 O41 2.281680 1_555
Li16 O42 1.958322 1_555
Li16 O1 1.958855 1_555
Li16 O3 2.245534 1_556
Li16 O31 2.464272 1_555
Li16 O35 2.469590 1_555
Li16 O34 2.567732 1_555
Li17 O2 1.946512 1_555
Li17 O11 1.999869 1_555
Li17 O30 2.163044 1_545
Li17 O36 2.395627 1_555
Li17 O32 2.519782 1_555
Li17 O46 2.590411 1_555
Li18 O47 1.917738 1_665
Li18 O17 2.026713 1_565
Li18 O24 2.090940 1_655
Li18 O38 2.318915 1_555
Li18 O45 2.673168 1_555
Li19 O40 1.898664 1_554
Li19 O44 2.020548 1_554
Li19 O41 2.145291 1_555
Li19 O39 2.345754 1_555
Li19 O46 2.604915 1_555
La0 O43 2.448782 1_555
La0 O42 2.484389 1_555
La0 O2 2.486974 1_555
La0 O1 2.521836 1_555
La0 O9 2.537246 1_555
La0 O6 2.567372 1_555
La0 O8 2.581959 1_555
La0 O12 2.643684 1_555
La1 O19 2.413727 1_565
La1 O0 2.487430 1_555
La1 O14 2.508363 1_555
La1 O5 2.516219 1_555
La1 O4 2.520909 1_555
La1 O7 2.558195 1_555
La1 O3 2.620216 1_555
La1 O25 2.652947 1_565
La2 O11 2.462081 1_556
La2 O44 2.479382 1_555
La2 O12 2.539936 1_555
La2 O17 2.569477 1_455
La2 O16 2.576325 1_556
La2 O47 2.588093 1_555
La2 O21 2.593342 1_455
La2 O6 2.662977 1_555
La3 O28 2.438760 1_555
La3 O15 2.493938 1_555
La3 O1 2.517185 1_555
La3 O22 2.556228 1_555
La3 O13 2.568631 1_555
La3 O10 2.576664 1_555
La3 O27 2.596293 1_555
La3 O8 2.629657 1_555
La4 O29 2.466134 1_455
La4 O23 2.499382 1_455
La4 O9 2.508960 1_555
La4 O2 2.517966 1_555
La4 O16 2.542777 1_555
La4 O11 2.549696 1_555
La4 O13 2.560420 1_555
La4 O27 2.580616 1_555
La5 O7 2.445165 1_555
La5 O36 2.482903 1_565
La5 O18 2.488810 1_554
La5 O32 2.510796 1_565
La5 O30 2.525871 1_555
La5 O26 2.546885 1_555
La5 O24 2.565363 1_554
La5 O14 2.669262 1_555
La6 O31 2.430086 1_555
La6 O24 2.448508 1_655
La6 O34 2.453683 1_555
La6 O38 2.519610 1_555
La6 O45 2.560182 1_555
La6 O18 2.563760 1_655
La6 O20 2.650654 1_555
La6 O35 2.651335 1_555
La7 O32 2.450201 1_555
La7 O46 2.509161 1_555
La7 O25 2.514219 1_555
La7 O19 2.520518 1_555
La7 O34 2.541113 1_555
La7 O20 2.548600 1_555
La7 O39 2.615019 1_555
La7 O36 2.630682 1_555
La8 O40 2.419602 1_555
La8 O29 2.422864 1_556
La8 O33 2.509211 1_555
La8 O15 2.522091 1_545
La8 O21 2.612329 1_555
La8 O23 2.625520 1_556
La8 O10 2.681655 1_545
La8 O17 2.712950 1_555
La9 O26 2.475697 1_655
La9 O37 2.494035 1_555
La9 O31 2.507512 1_554
La9 O3 2.527322 1_555
La9 O35 2.549946 1_554
La9 O0 2.558606 1_555
La9 O41 2.568127 1_555
La9 O30 2.673867 1_655
La10 O45 2.455101 1_555
La10 O41 2.474197 1_555
La10 O4 2.474907 1_555
La10 O39 2.480249 1_555
La10 O37 2.535891 1_555
La10 O46 2.579378 1_555
La10 O5 2.629805 1_555
La10 O38 2.641270 1_555
La11 O40 2.430525 1_555
La11 O33 2.462762 1_555
La11 O42 2.477837 1_555
La11 O47 2.552801 1_555
La11 O28 2.588231 1_545
La11 O44 2.631644 1_555
La11 O22 2.655256 1_545
La11 O43 2.690071 1_555
Nb0 O42 1.982952 1_554
Nb0 O44 1.992214 1_554
Nb0 O41 2.012649 1_555
Nb0 O3 2.048614 1_555
Nb0 O6 2.072780 1_554
Nb0 O5 2.077288 1_555
Nb1 O43 1.994440 1_655
Nb1 O47 2.000427 1_655
Nb1 O12 2.033831 1_655
Nb1 O37 2.039991 1_545
Nb1 O4 2.052029 1_545
Nb1 O0 2.053222 1_545
Nb2 O34 1.986722 1_555
Nb2 O2 2.011849 1_555
Nb2 O46 2.025424 1_555
Nb2 O1 2.046914 1_555
Nb2 O45 2.068952 1_555
Nb2 O13 2.084914 1_555
Nb3 O24 2.017527 1_545
Nb3 O23 2.019053 1_456
Nb3 O11 2.019955 1_556
Nb3 O17 2.026017 1_455
Nb3 O30 2.049231 1_546
Nb3 O35 2.065102 1_445
Nb4 O31 2.001024 1_555
Nb4 O29 2.008031 1_556
Nb4 O21 2.020203 1_555
Nb4 O18 2.041786 1_655
Nb4 O26 2.055419 1_656
Nb4 O16 2.081335 1_656
Nb5 O33 1.984136 1_555
Nb5 O36 1.994854 1_555
Nb5 O22 2.027630 1_545
Nb5 O25 2.046005 1_555
Nb5 O10 2.078030 1_545
Nb5 O14 2.082319 1_545
Nb6 O9 2.007961 1_655
Nb6 O39 2.012151 1_555
Nb6 O27 2.018236 1_655
Nb6 O20 2.035862 1_555
Nb6 O8 2.056765 1_655
Nb6 O38 2.092109 1_555
Nb7 O32 1.973424 1_555
Nb7 O40 2.005956 1_554
Nb7 O19 2.016371 1_555
Nb7 O7 2.061265 1_545
Nb7 O28 2.071630 1_544
Nb7 O15 2.109887 1_544
