# generated using pymatgen
data_Dy2SeO2
_symmetry_space_group_name_H-M   'P 1'
_cell_length_a   6.65907459
_cell_length_b   6.65907459
_cell_length_c   6.65907459
_cell_angle_alpha   146.50539920
_cell_angle_beta   146.50539920
_cell_angle_gamma   48.09668188
_symmetry_Int_Tables_number   1
_chemical_formula_structural   Dy2SeO2
_chemical_formula_sum   'Dy2 Se1 O2'
_cell_volume   89.55898876
_cell_formula_units_Z   1
loop_
 _symmetry_equiv_pos_site_id
 _symmetry_equiv_pos_as_xyz
  1  'x, y, z'
loop_
 _atom_site_type_symbol
 _atom_site_label
 _atom_site_symmetry_multiplicity
 _atom_site_fract_x
 _atom_site_fract_y
 _atom_site_fract_z
 _atom_site_occupancy
  Dy  Dy0  1  0.34338800  0.34338800  0.00000000  1
  Dy  Dy1  1  0.65661200  0.65661200  0.00000000  1
  Se  Se0  1  0.00000000  0.00000000  0.00000000  1
  O  O0  1  0.75000000  0.25000000  0.50000000  1
  O  O1  1  0.25000000  0.75000000  0.50000000  1
loop_
_geom_bond_atom_site_label_1
_geom_bond_atom_site_label_2
_geom_bond_distance
_geom_bond_site_symmetry_2
Dy0 O1 2.229778 1_544
Dy0 O0 2.229778 1_454
Dy0 O0 2.229778 1_555
Dy0 O1 2.229778 1_555
Dy0 Se0 3.315385 1_565
Dy0 Se0 3.315385 1_655
Dy0 Se0 3.315385 1_554
Dy0 Se0 3.315385 1_666
Dy1 O1 2.229778 1_655
Dy1 O0 2.229778 1_554
Dy1 O1 2.229778 1_554
Dy1 O0 2.229778 1_565
Dy1 Se0 3.315385 1_655
Dy1 Se0 3.315385 1_565
Dy1 Se0 3.315385 1_554
Dy1 Se0 3.315385 1_666
