# generated using pymatgen
data_Cd13I28
_symmetry_space_group_name_H-M   'P 1'
_cell_length_a   4.33877133
_cell_length_b   4.33877133
_cell_length_c   102.42968500
_cell_angle_alpha   90.00000000
_cell_angle_beta   90.00000000
_cell_angle_gamma   119.99998979
_symmetry_Int_Tables_number   1
_chemical_formula_structural   Cd13I28
_chemical_formula_sum   'Cd13 I28'
_cell_volume   1669.89835568
_cell_formula_units_Z   1
loop_
 _symmetry_equiv_pos_site_id
 _symmetry_equiv_pos_as_xyz
  1  'x, y, z'
loop_
 _atom_site_type_symbol
 _atom_site_label
 _atom_site_symmetry_multiplicity
 _atom_site_fract_x
 _atom_site_fract_y
 _atom_site_fract_z
 _atom_site_occupancy
  Cd  Cd0  1  0.33333300  0.66666700  0.01788200  1
  Cd  Cd1  1  0.00000000  0.00000000  0.08968700  1
  Cd  Cd2  1  0.00000000  0.00000000  0.23169200  1
  Cd  Cd3  1  0.33333300  0.66666700  0.30358600  1
  Cd  Cd4  1  0.00000000  0.00000000  0.37500100  1
  Cd  Cd5  1  0.33333300  0.66666700  0.44637200  1
  Cd  Cd6  1  0.00000000  0.00000000  0.51783600  1
  Cd  Cd7  1  0.33333300  0.66666700  0.58930500  1
  Cd  Cd8  1  0.00000000  0.00000000  0.66073700  1
  Cd  Cd9  1  0.33333300  0.66666700  0.73213300  1
  Cd  Cd10  1  0.00000000  0.00000000  0.80357900  1
  Cd  Cd11  1  0.33333300  0.66666700  0.87498300  1
  Cd  Cd12  1  0.33333300  0.66666700  0.94637500  1
  I  I0  1  0.00000000  0.00000000  0.00100700  1
  I  I1  1  0.66666700  0.33333300  0.03470100  1
  I  I2  1  0.33333300  0.66666700  0.07278000  1
  I  I3  1  0.66666700  0.33333300  0.10651000  1
  I  I4  1  0.00000000  0.00000000  0.14909900  1
  I  I5  1  0.66666700  0.33333300  0.17249500  1
  I  I6  1  0.33333300  0.66666700  0.21484000  1
  I  I7  1  0.66666700  0.33333300  0.24857700  1
  I  I8  1  0.00000000  0.00000000  0.28674200  1
  I  I9  1  0.66666700  0.33333300  0.32040600  1
  I  I10  1  0.33333300  0.66666700  0.35815400  1
  I  I11  1  0.66666700  0.33333300  0.39184000  1
  I  I12  1  0.00000000  0.00000000  0.42960800  1
  I  I13  1  0.66666700  0.33333300  0.46327200  1
  I  I14  1  0.33333300  0.66666700  0.50102100  1
  I  I15  1  0.66666700  0.33333300  0.53470200  1
  I  I16  1  0.00000000  0.00000000  0.57243900  1
  I  I17  1  0.66666700  0.33333300  0.60610600  1
  I  I18  1  0.33333300  0.66666700  0.64385100  1
  I  I19  1  0.66666700  0.33333300  0.67754000  1
  I  I20  1  0.00000000  0.00000000  0.71531000  1
  I  I21  1  0.66666700  0.33333300  0.74899200  1
  I  I22  1  0.33333300  0.66666700  0.78673400  1
  I  I23  1  0.66666700  0.33333300  0.82041700  1
  I  I24  1  0.00000000  0.00000000  0.85822200  1
  I  I25  1  0.66666700  0.33333300  0.89188600  1
  I  I26  1  0.00000000  0.00000000  0.92960700  1
  I  I27  1  0.66666700  0.33333300  0.96326500  1
loop_
_geom_bond_atom_site_label_1
_geom_bond_atom_site_label_2
_geom_bond_distance
_geom_bond_site_symmetry_2
Cd0 I1 3.040212 1_455
Cd0 I1 3.040212 1_565
Cd0 I1 3.040217 1_555
Cd0 I0 3.043465 1_565
Cd0 I0 3.043469 1_555
Cd0 I0 3.043469 1_665
Cd1 I3 3.040443 1_455
Cd1 I3 3.040447 1_555
Cd1 I3 3.040447 1_445
Cd1 I2 3.045328 1_545
Cd1 I2 3.045331 1_555
Cd1 I2 3.045331 1_445
Cd2 I6 3.042128 1_545
Cd2 I6 3.042131 1_555
Cd2 I6 3.042131 1_445
Cd2 I7 3.044047 1_455
Cd2 I7 3.044051 1_445
Cd2 I7 3.044051 1_555
Cd3 I9 3.040270 1_455
Cd3 I9 3.040270 1_565
Cd3 I9 3.040275 1_555
Cd3 I8 3.041663 1_565
Cd3 I8 3.041666 1_665
Cd3 I8 3.041666 1_555
Cd4 I11 3.041373 1_455
Cd4 I11 3.041376 1_445
Cd4 I11 3.041376 1_555
Cd4 I10 3.041837 1_545
Cd4 I10 3.041841 1_555
Cd4 I10 3.041841 1_445
Cd5 I12 3.037022 1_565
Cd5 I12 3.037026 1_555
Cd5 I12 3.037026 1_665
Cd5 I13 3.044921 1_455
Cd5 I13 3.044921 1_565
Cd5 I13 3.044927 1_555
Cd6 I14 3.039979 1_545
Cd6 I14 3.039983 1_555
Cd6 I14 3.039983 1_445
Cd6 I15 3.042942 1_455
Cd6 I15 3.042945 1_445
Cd6 I15 3.042945 1_555
Cd7 I17 3.039167 1_455
Cd7 I17 3.039167 1_565
Cd7 I17 3.039173 1_555
Cd7 I16 3.042942 1_565
Cd7 I16 3.042945 1_555
Cd7 I16 3.042945 1_665
Cd8 I19 3.039283 1_455
Cd8 I19 3.039286 1_445
Cd8 I19 3.039286 1_555
Cd8 I18 3.044105 1_545
Cd8 I18 3.044109 1_445
Cd8 I18 3.044109 1_555
Cd9 I20 3.040443 1_565
Cd9 I20 3.040447 1_665
Cd9 I20 3.040447 1_555
Cd9 I21 3.042535 1_455
Cd9 I21 3.042535 1_565
Cd9 I21 3.042541 1_555
Cd10 I23 3.041314 1_455
Cd10 I23 3.041318 1_445
Cd10 I23 3.041318 1_555
Cd10 I22 3.041721 1_545
Cd10 I22 3.041725 1_555
Cd10 I22 3.041725 1_445
Cd11 I24 3.036849 1_565
Cd11 I24 3.036852 1_665
Cd11 I24 3.036852 1_555
Cd11 I25 3.045095 1_455
Cd11 I25 3.045095 1_565
Cd11 I25 3.045101 1_555
Cd12 I26 3.037254 1_565
Cd12 I26 3.037258 1_555
Cd12 I26 3.037258 1_665
Cd12 I27 3.044339 1_455
Cd12 I27 3.044339 1_565
Cd12 I27 3.044344 1_555
I4 I5 3.466686 1_455
I4 I5 3.466689 1_555
I4 I5 3.466689 1_445
