# generated using pymatgen
data_Na5H7(Se2O9)2
_symmetry_space_group_name_H-M   'P 1'
_cell_length_a   6.12147100
_cell_length_b   7.37897619
_cell_length_c   10.09850180
_cell_angle_alpha   102.19120668
_cell_angle_beta   99.60586084
_cell_angle_gamma   100.74783904
_symmetry_Int_Tables_number   1
_chemical_formula_structural   Na5H7(Se2O9)2
_chemical_formula_sum   'Na5 H7 Se4 O18'
_cell_volume   427.82006792
_cell_formula_units_Z   1
loop_
 _symmetry_equiv_pos_site_id
 _symmetry_equiv_pos_as_xyz
  1  'x, y, z'
loop_
 _atom_site_type_symbol
 _atom_site_label
 _atom_site_symmetry_multiplicity
 _atom_site_fract_x
 _atom_site_fract_y
 _atom_site_fract_z
 _atom_site_occupancy
  Na  Na0  1  0.00000000  0.00000000  0.00000000  1
  Na  Na1  1  0.13353900  0.17069800  0.39638000  1
  Na  Na2  1  0.86646100  0.82930200  0.60362000  1
  Na  Na3  1  0.64607400  0.74364800  0.19526800  1
  Na  Na4  1  0.35392600  0.25635200  0.80473200  1
  H  H0  1  0.50000000  0.00000000  0.50000000  1
  H  H1  1  0.27176500  0.55676900  0.61875500  1
  H  H2  1  0.72823500  0.44323100  0.38124500  1
  H  H3  1  0.97611100  0.33956700  0.90436000  1
  H  H4  1  0.02388900  0.66043300  0.09564000  1
  H  H5  1  0.15990700  0.40086500  0.04507900  1
  H  H6  1  0.84009300  0.59913500  0.95492100  1
  Se  Se0  1  0.24642900  0.69085400  0.37332600  1
  Se  Se1  1  0.75357100  0.30914600  0.62667400  1
  Se  Se2  1  0.41210400  0.79697700  0.82351900  1
  Se  Se3  1  0.58789600  0.20302300  0.17648100  1
  O  O0  1  0.51299000  0.83970300  0.44434000  1
  O  O1  1  0.48701000  0.16029700  0.55566000  1
  O  O2  1  0.05423600  0.82030300  0.39656300  1
  O  O3  1  0.94576400  0.17969700  0.60343700  1
  O  O4  1  0.22344200  0.51473000  0.45337700  1
  O  O5  1  0.77655800  0.48527000  0.54662300  1
  O  O6  1  0.24969400  0.61081000  0.20703000  1
  O  O7  1  0.75030600  0.38919000  0.79297000  1
  O  O8  1  0.30295700  0.55871800  0.72173800  1
  O  O9  1  0.69704300  0.44128200  0.27826200  1
  O  O10  1  0.22205200  0.91724300  0.77339700  1
  O  O11  1  0.77794800  0.08275700  0.22660300  1
  O  O12  1  0.41485900  0.77075000  0.98057400  1
  O  O13  1  0.58514100  0.22925000  0.01942600  1
  O  O14  1  0.66662100  0.87607500  0.79411200  1
  O  O15  1  0.33337900  0.12392500  0.20588800  1
  O  O16  1  0.10771600  0.30521900  0.95600700  1
  O  O17  1  0.89228400  0.69478100  0.04399300  1
loop_
_geom_bond_atom_site_label_1
_geom_bond_atom_site_label_2
_geom_bond_distance
_geom_bond_site_symmetry_2
Na0 O16 2.381395 1_554
Na0 O17 2.381395 1_445
Na0 O15 2.531548 1_555
Na0 O14 2.531548 1_444
Na0 O11 2.866115 1_455
Na0 O10 2.866115 1_544
Na1 O4 2.415524 1_555
Na1 O11 2.420028 1_455
Na1 O15 2.445121 1_555
Na1 O1 2.495502 1_555
Na1 O2 2.540658 1_545
Na1 O3 2.543573 1_455
Na2 O5 2.415524 1_555
Na2 O10 2.420028 1_655
Na2 O14 2.445121 1_555
Na2 O0 2.495502 1_555
Na2 O3 2.540658 1_565
Na2 O2 2.543573 1_655
Na3 O17 2.339605 1_555
Na3 O11 2.416633 1_565
Na3 O12 2.451214 1_554
Na3 O6 2.474015 1_555
Na3 O9 2.596144 1_555
Na3 O0 2.763846 1_555
Na3 O2 2.826145 1_655
Na4 O16 2.339605 1_555
Na4 O10 2.416633 1_545
Na4 O13 2.451214 1_556
Na4 O7 2.474015 1_555
Na4 O8 2.596144 1_555
Na4 O1 2.763846 1_555
Na4 O3 2.826145 1_455
H0 O1 1.220877 1_555
H0 O0 1.220877 1_545
H1 O8 1.022056 1_555
H1 O4 1.598425 1_555
H2 O9 1.022056 1_555
H2 O5 1.598425 1_555
H3 O16 0.988451 1_655
H3 O7 1.775915 1_555
H4 O17 0.988451 1_455
H4 O6 1.775915 1_555
H5 O16 0.980378 1_554
H6 O17 0.980378 1_556
O0 Se0 1.729622 1_555
O1 Se1 1.729622 1_555
O2 Se0 1.663807 1_555
O3 Se1 1.663807 1_555
O4 Se0 1.666067 1_555
O5 Se1 1.666067 1_555
O6 Se0 1.663167 1_555
O7 Se1 1.663167 1_555
O8 Se2 1.778562 1_555
O9 Se3 1.778562 1_555
O10 Se2 1.665983 1_555
O11 Se3 1.665983 1_555
O12 Se2 1.635581 1_555
O13 Se3 1.635581 1_555
O14 Se2 1.656721 1_555
O15 Se3 1.656721 1_555
