# generated using pymatgen
data_Li7V3P8O29
_symmetry_space_group_name_H-M   'P 1'
_cell_length_a   9.85674409
_cell_length_b   9.85674409
_cell_length_c   13.90191804
_cell_angle_alpha   89.40270695
_cell_angle_beta   89.40270695
_cell_angle_gamma   59.88657040
_symmetry_Int_Tables_number   1
_chemical_formula_structural   Li7V3P8O29
_chemical_formula_sum   'Li14 V6 P16 O58'
_cell_volume   1168.27035807
_cell_formula_units_Z   2
loop_
 _symmetry_equiv_pos_site_id
 _symmetry_equiv_pos_as_xyz
  1  'x, y, z'
loop_
 _atom_site_type_symbol
 _atom_site_label
 _atom_site_symmetry_multiplicity
 _atom_site_fract_x
 _atom_site_fract_y
 _atom_site_fract_z
 _atom_site_occupancy
  Li  Li0  1  0.08900300  0.67897800  0.43737700  1
  Li  Li1  1  0.34758600  0.33397600  0.61175200  1
  Li  Li2  1  0.33397600  0.34758600  0.11175200  1
  Li  Li3  1  0.67897800  0.08900300  0.93737700  1
  Li  Li4  1  0.09218100  0.23387400  0.93770200  1
  Li  Li5  1  0.76338600  0.89629500  0.55964300  1
  Li  Li6  1  0.23387400  0.09218100  0.43770200  1
  Li  Li7  1  0.89629500  0.76338600  0.05964300  1
  Li  Li8  1  0.33590000  0.89861800  0.05728800  1
  Li  Li9  1  0.32996700  0.76829600  0.56352600  1
  Li  Li10  1  0.89861800  0.33590000  0.55728800  1
  Li  Li11  1  0.76829600  0.32996700  0.06352600  1
  Li  Li12  1  0.04245400  0.94137100  0.98968000  1
  Li  Li13  1  0.94137100  0.04245400  0.48968000  1
  V  V0  1  0.56425400  0.00021600  0.75073100  1
  V  V1  1  0.43754100  0.99779600  0.25165600  1
  V  V2  1  0.00021600  0.56425400  0.25073100  1
  V  V3  1  0.99779600  0.43754000  0.75165600  1
  V  V4  1  0.43705000  0.56256800  0.75242100  1
  V  V5  1  0.56256800  0.43705000  0.25242100  1
  P  P0  1  0.21822800  0.69443200  0.15956000  1
  P  P1  1  0.09016800  0.68471100  0.65835600  1
  P  P2  1  0.69443200  0.21822800  0.65956000  1
  P  P3  1  0.33099300  0.33011600  0.87092800  1
  P  P4  1  0.33011600  0.33099300  0.37092800  1
  P  P5  1  0.68471100  0.09016800  0.15835600  1
  P  P6  1  0.77430400  0.91381500  0.34419200  1
  P  P7  1  0.09486100  0.22469800  0.15578300  1
  P  P8  1  0.91381500  0.77430400  0.84419200  1
  P  P9  1  0.22469800  0.09486100  0.65578300  1
  P  P10  1  0.31024700  0.91443800  0.84097700  1
  P  P11  1  0.67018800  0.66787500  0.62756100  1
  P  P12  1  0.66787500  0.67018800  0.12756100  1
  P  P13  1  0.30971500  0.77304400  0.34685900  1
  P  P14  1  0.91443800  0.31024700  0.34097700  1
  P  P15  1  0.77304400  0.30971500  0.84685900  1
  O  O0  1  0.22098700  0.77816300  0.43816400  1
  O  O1  1  0.25355500  0.66676600  0.65470300  1
  O  O2  1  0.98778800  0.78964800  0.93460300  1
  O  O3  1  0.07657200  0.66514400  0.15702600  1
  O  O4  1  0.36892300  0.53310900  0.16249000  1
  O  O5  1  0.32444300  0.47790900  0.82958600  1
  O  O6  1  0.53310900  0.36892300  0.66249000  1
  O  O7  1  0.77816300  0.22098700  0.93816400  1
  O  O8  1  0.66676600  0.25355500  0.15470300  1
  O  O9  1  0.18343500  0.48763900  0.33318500  1
  O  O10  1  0.10860900  0.51946200  0.67306900  1
  O  O11  1  0.47790900  0.32444300  0.32958600  1
  O  O12  1  0.32651300  0.31926300  0.97898400  1
  O  O13  1  0.31926300  0.32651300  0.47898400  1
  O  O14  1  0.48763900  0.18343500  0.83318500  1
  O  O15  1  0.11297000  0.37097500  0.16993300  1
  O  O16  1  0.18531200  0.32134700  0.82956200  1
  O  O17  1  0.66514400  0.07657200  0.65702600  1
  O  O18  1  0.79158800  0.00369000  0.25103200  1
  O  O19  1  0.78964800  0.98778800  0.43460300  1
  O  O20  1  0.76722200  0.99482900  0.07001500  1
  O  O21  1  0.51946200  0.10860900  0.17306900  1
  O  O22  1  0.32134700  0.18531200  0.32956200  1
  O  O23  1  0.74531200  0.91777800  0.83786200  1
  O  O24  1  0.37097500  0.11297000  0.66993300  1
  O  O25  1  0.07790500  0.25925400  0.65280900  1
  O  O26  1  0.00369000  0.79158800  0.75103200  1
  O  O27  1  0.99482900  0.76722200  0.57001500  1
  O  O28  1  0.00201200  0.22260100  0.43133800  1
  O  O29  1  0.91777800  0.74531200  0.33786200  1
  O  O30  1  0.61825000  0.91537600  0.33562400  1
  O  O31  1  0.25925400  0.07790500  0.15280900  1
  O  O32  1  0.67183700  0.81495900  0.66826100  1
  O  O33  1  0.46530200  0.91807400  0.82688000  1
  O  O34  1  0.22260100  0.00201200  0.93133800  1
  O  O35  1  0.23622500  0.99993500  0.56817100  1
  O  O36  1  0.20252800  0.01036300  0.74964400  1
  O  O37  1  0.32664100  0.92050200  0.34084300  1
  O  O38  1  0.81495900  0.67183700  0.16826100  1
  O  O39  1  0.91537600  0.61825000  0.83562400  1
  O  O40  1  0.51795600  0.81657200  0.17727900  1
  O  O41  1  0.65590300  0.69749600  0.02129300  1
  O  O42  1  0.69749600  0.65590300  0.52129300  1
  O  O43  1  0.51892000  0.67063900  0.66200800  1
  O  O44  1  0.91807400  0.46530200  0.32688000  1
  O  O45  1  0.81657200  0.51795600  0.67727900  1
  O  O46  1  0.33621400  0.75070200  0.83919500  1
  O  O47  1  0.19629400  0.78610900  0.25900000  1
  O  O48  1  0.20560100  0.80418000  0.07959700  1
  O  O49  1  0.46710300  0.62491200  0.33429000  1
  O  O50  1  0.67063900  0.51892000  0.16200800  1
  O  O51  1  0.62491200  0.46710300  0.83429000  1
  O  O52  1  0.92050200  0.32664100  0.84084300  1
  O  O53  1  0.99993500  0.23622500  0.06817100  1
  O  O54  1  0.01036300  0.20252800  0.24964400  1
  O  O55  1  0.75070200  0.33621400  0.33919500  1
  O  O56  1  0.80418000  0.20560100  0.57959700  1
  O  O57  1  0.78610900  0.19629400  0.75900000  1
loop_
_geom_bond_atom_site_label_1
_geom_bond_atom_site_label_2
_geom_bond_distance
_geom_bond_site_symmetry_2
Li0 O0 1.981174 1_555
Li0 O29 2.027901 1_455
Li0 O27 2.050815 1_455
Li0 O9 2.188317 1_555
Li1 O13 1.877298 1_555
Li1 O6 2.150389 1_555
Li1 O24 2.217205 1_555
Li1 O10 2.299366 1_555
Li2 O12 1.877298 1_554
Li2 O4 2.150389 1_555
Li2 O15 2.217205 1_555
Li2 O21 2.299366 1_555
Li3 O7 1.981174 1_555
Li3 O23 2.027901 1_545
Li3 O20 2.050815 1_546
Li3 O14 2.188317 1_555
Li4 O34 1.984264 1_555
Li4 O52 1.995488 1_455
Li4 O53 2.015533 1_456
Li4 O16 2.141147 1_555
Li5 O27 1.983521 1_555
Li5 O19 2.023399 1_555
Li5 O17 2.055300 1_565
Li5 O32 2.099854 1_555
Li6 O28 1.984264 1_555
Li6 O37 1.995488 1_545
Li6 O35 2.015533 1_545
Li6 O22 2.141147 1_555
Li7 O20 1.983521 1_555
Li7 O2 2.023399 1_554
Li7 O3 2.055300 1_655
Li7 O38 2.099854 1_555
Li8 O48 1.948703 1_555
Li8 O31 2.036036 1_565
Li8 O34 2.052591 1_564
Li8 O40 2.287977 1_555
Li9 O1 1.971142 1_555
Li9 O35 1.988944 1_555
Li9 O0 2.032550 1_555
Li9 O43 2.120495 1_555
Li10 O56 1.948703 1_555
Li10 O25 2.036036 1_655
Li10 O28 2.052591 1_655
Li10 O45 2.287977 1_555
Li11 O8 1.971142 1_555
Li11 O53 1.988944 1_555
Li11 O7 2.032550 1_554
Li11 O50 2.120495 1_555
Li12 O48 1.949815 1_556
Li12 O2 1.988505 1_455
Li12 O34 2.278802 1_565
Li13 O56 1.949815 1_555
Li13 O19 1.988505 1_545
Li13 O28 2.278802 1_655
O0 P13 1.520687 1_555
O1 P1 1.529741 1_555
O1 V4 2.080796 1_555
O2 P8 1.505987 1_555
O3 P0 1.561999 1_555
O3 V2 1.988943 1_555
O4 P0 1.538296 1_555
O4 V5 2.077101 1_555
O5 P3 1.531527 1_555
O5 V4 1.991219 1_555
O6 P2 1.538296 1_555
O6 V4 2.077101 1_555
O7 P15 1.520687 1_555
O8 P5 1.529741 1_555
O8 V5 2.080796 1_555
O9 P4 1.583847 1_555
O9 V2 1.949945 1_555
O10 P1 1.557135 1_555
O10 V3 1.969863 1_455
O11 P4 1.531527 1_555
O11 V5 1.991219 1_555
O12 P3 1.506639 1_555
O13 P4 1.506639 1_555
O14 P3 1.583847 1_555
O14 V0 1.949945 1_555
O15 P7 1.553793 1_555
O15 V2 2.005070 1_555
O16 P3 1.594644 1_555
O16 V3 1.947474 1_455
O17 P2 1.561999 1_555
O17 V0 1.988943 1_555
O18 P5 1.612644 1_555
O18 P6 1.616789 1_545
O19 P6 1.505987 1_555
O20 P5 1.512988 1_565
O21 P5 1.557135 1_555
O21 V1 1.969856 1_545
O22 P4 1.594644 1_555
O22 V1 1.947475 1_545
O23 P8 1.552359 1_555
O23 V0 1.970246 1_565
O24 P9 1.553793 1_555
O24 V0 2.005070 1_555
O25 P9 1.538879 1_555
O25 V3 2.057997 1_455
O26 P1 1.612644 1_555
O26 P8 1.616789 1_455
O27 P1 1.512988 1_655
O28 P14 1.523535 1_455
O29 P6 1.552359 1_555
O29 V2 1.970246 1_655
O30 P6 1.536382 1_555
O30 V1 1.940844 1_555
O31 P7 1.538879 1_555
O31 V1 2.058003 1_545
O32 P11 1.569450 1_555
O32 V0 1.961791 1_565
O33 P10 1.556945 1_555
O33 V0 1.865611 1_565
O34 P10 1.523535 1_545
O35 P9 1.511964 1_565
O36 P9 1.611858 1_555
O36 P10 1.621481 1_545
O37 P13 1.545269 1_555
O37 V1 2.024926 1_555
O38 P12 1.569450 1_555
O38 V2 1.961791 1_655
O39 P8 1.536382 1_555
O39 V3 1.940851 1_555
O40 P12 1.613467 1_555
O40 V1 1.867856 1_555
O41 P12 1.494105 1_555
O42 P11 1.494105 1_555
O43 P11 1.548484 1_555
O43 V4 2.044319 1_555
O44 P14 1.556945 1_555
O44 V2 1.865611 1_655
O45 P11 1.613467 1_555
O45 V3 1.867855 1_555
O46 P10 1.502337 1_555
O46 V4 2.013471 1_555
O47 P0 1.611871 1_555
O47 P13 1.624496 1_555
O48 P0 1.504708 1_555
O49 P13 1.515210 1_555
O49 V5 1.970492 1_555
O50 P12 1.548484 1_555
O50 V5 2.044319 1_555
O51 P15 1.515210 1_555
O51 V4 1.970492 1_555
O52 P15 1.545269 1_555
O52 V3 2.024919 1_555
O53 P7 1.511964 1_655
O54 P7 1.611858 1_555
O54 P14 1.621481 1_455
O55 P14 1.502337 1_555
O55 V5 2.013471 1_555
O56 P2 1.504708 1_555
O57 P2 1.611871 1_555
O57 P15 1.624496 1_555
