# generated using pymatgen
data_FePO4
_symmetry_space_group_name_H-M   'P 1'
_cell_length_a   8.42728559
_cell_length_b   8.42728559
_cell_length_c   8.42728538
_cell_angle_alpha   61.85860287
_cell_angle_beta   61.85860287
_cell_angle_gamma   61.85859829
_symmetry_Int_Tables_number   1
_chemical_formula_structural   FePO4
_chemical_formula_sum   'Fe6 P6 O24'
_cell_volume   440.81390073
_cell_formula_units_Z   6
loop_
 _symmetry_equiv_pos_site_id
 _symmetry_equiv_pos_as_xyz
  1  'x, y, z'
loop_
 _atom_site_type_symbol
 _atom_site_label
 _atom_site_symmetry_multiplicity
 _atom_site_fract_x
 _atom_site_fract_y
 _atom_site_fract_z
 _atom_site_occupancy
  Fe  Fe0  1  0.00000000  0.00000000  0.00000000  1
  Fe  Fe1  1  0.35359600  0.35359600  0.35359600  1
  Fe  Fe2  1  0.85359600  0.85359600  0.85359600  1
  Fe  Fe3  1  0.50000000  0.50000000  0.50000000  1
  Fe  Fe4  1  0.14640400  0.14640400  0.14640400  1
  Fe  Fe5  1  0.64640400  0.64640400  0.64640400  1
  P  P0  1  0.75000000  0.04813400  0.45186600  1
  P  P1  1  0.04813400  0.45186600  0.75000000  1
  P  P2  1  0.45186600  0.75000000  0.04813400  1
  P  P3  1  0.54813400  0.25000000  0.95186600  1
  P  P4  1  0.95186600  0.54813400  0.25000000  1
  P  P5  1  0.25000000  0.95186600  0.54813400  1
  O  O0  1  0.89290800  0.49521600  0.67657200  1
  O  O1  1  0.49521600  0.67657200  0.89290800  1
  O  O2  1  0.67657200  0.89290800  0.49521600  1
  O  O3  1  0.90465000  0.06173800  0.24947800  1
  O  O4  1  0.82342800  0.00478400  0.60709200  1
  O  O5  1  0.59535000  0.25052200  0.43826200  1
  O  O6  1  0.06173800  0.24947800  0.90465000  1
  O  O7  1  0.25052200  0.43826200  0.59535000  1
  O  O8  1  0.39290800  0.17657200  0.99521600  1
  O  O9  1  0.43826200  0.59535000  0.25052200  1
  O  O10  1  0.75052200  0.09535000  0.93826200  1
  O  O11  1  0.99521600  0.39290800  0.17657200  1
  O  O12  1  0.00478400  0.60709200  0.82342800  1
  O  O13  1  0.24947800  0.90465000  0.06173800  1
  O  O14  1  0.56173800  0.40465000  0.74947800  1
  O  O15  1  0.60709200  0.82342800  0.00478400  1
  O  O16  1  0.74947800  0.56173800  0.40465000  1
  O  O17  1  0.93826200  0.75052200  0.09535000  1
  O  O18  1  0.40465000  0.74947800  0.56173800  1
  O  O19  1  0.17657200  0.99521600  0.39290800  1
  O  O20  1  0.09535000  0.93826200  0.75052200  1
  O  O21  1  0.32342800  0.10709200  0.50478400  1
  O  O22  1  0.50478400  0.32342800  0.10709200  1
  O  O23  1  0.10709200  0.50478400  0.32342800  1
loop_
_geom_bond_atom_site_label_1
_geom_bond_atom_site_label_2
_geom_bond_distance
_geom_bond_site_symmetry_2
Fe0 O10 2.092947 1_454
Fe0 O13 2.092947 1_545
Fe0 O20 2.092947 1_544
Fe0 O3 2.092947 1_455
Fe0 O17 2.092948 1_445
Fe0 O6 2.092948 1_554
Fe1 O23 1.923367 1_555
Fe1 O22 1.923367 1_555
Fe1 O21 1.923367 1_555
Fe1 O5 2.128747 1_555
Fe1 O7 2.128747 1_555
Fe1 O9 2.128748 1_555
Fe2 O12 1.923367 1_655
Fe2 O4 1.923367 1_565
Fe2 O15 1.923367 1_556
Fe2 O10 2.128747 1_565
Fe2 O17 2.128747 1_556
Fe2 O20 2.128748 1_655
Fe3 O5 2.092947 1_555
Fe3 O18 2.092947 1_555
Fe3 O9 2.092947 1_555
Fe3 O14 2.092947 1_555
Fe3 O16 2.092948 1_555
Fe3 O7 2.092948 1_555
Fe4 O11 1.923367 1_455
Fe4 O19 1.923367 1_545
Fe4 O8 1.923367 1_554
Fe4 O13 2.128747 1_545
Fe4 O6 2.128747 1_554
Fe4 O3 2.128748 1_455
Fe5 O0 1.923367 1_555
Fe5 O1 1.923367 1_555
Fe5 O2 1.923367 1_555
Fe5 O18 2.128747 1_555
Fe5 O16 2.128747 1_555
Fe5 O14 2.128748 1_555
O0 P1 1.525491 1_655
O1 P2 1.525491 1_556
O2 P0 1.525491 1_565
O3 P0 1.574920 1_555
O4 P0 1.525491 1_555
O5 P0 1.574920 1_555
O6 P1 1.574920 1_555
O7 P1 1.574920 1_555
O8 P3 1.525491 1_555
O9 P2 1.574920 1_555
O10 P3 1.574920 1_555
O11 P4 1.525491 1_555
O12 P1 1.525491 1_555
O13 P2 1.574920 1_555
O14 P3 1.574920 1_555
O15 P2 1.525491 1_555
O16 P4 1.574920 1_555
O17 P4 1.574920 1_555
O18 P5 1.574920 1_555
O19 P5 1.525491 1_555
O20 P5 1.574920 1_555
O21 P5 1.525491 1_545
O22 P3 1.525491 1_554
O23 P4 1.525491 1_455
