# generated using pymatgen
data_Sr(CdAs)2
_symmetry_space_group_name_H-M   'P 1'
_cell_length_a   4.48296996
_cell_length_b   4.48296889
_cell_length_c   7.45633266
_cell_angle_alpha   90.00000000
_cell_angle_beta   90.00000000
_cell_angle_gamma   119.99999273
_symmetry_Int_Tables_number   1
_chemical_formula_structural   Sr(CdAs)2
_chemical_formula_sum   'Sr1 Cd2 As2'
_cell_volume   129.77394070
_cell_formula_units_Z   1
loop_
 _symmetry_equiv_pos_site_id
 _symmetry_equiv_pos_as_xyz
  1  'x, y, z'
loop_
 _atom_site_type_symbol
 _atom_site_label
 _atom_site_symmetry_multiplicity
 _atom_site_fract_x
 _atom_site_fract_y
 _atom_site_fract_z
 _atom_site_occupancy
  Sr  Sr0  1  0.00000000  0.00000000  0.00000000  1
  Cd  Cd0  1  0.33333300  0.66666700  0.63181685  1
  Cd  Cd1  1  0.66666700  0.33333300  0.36818315  1
  As  As0  1  0.66666700  0.33333300  0.74913533  1
  As  As1  1  0.33333300  0.66666700  0.25086467  1
loop_
_geom_bond_atom_site_label_1
_geom_bond_atom_site_label_2
_geom_bond_distance
_geom_bond_site_symmetry_2
As0 Cd0 2.732070 1_545
As0 Cd0 2.732070 1_655
As0 Cd0 2.732077 1_555
As0 Cd1 2.840506 1_555
As0 Sr0 3.193411 1_656
As0 Sr0 3.193414 1_666
As0 Sr0 3.193415 1_556
As1 Cd1 2.732070 1_565
As1 Cd1 2.732070 1_455
As1 Cd1 2.732077 1_555
As1 Cd0 2.840506 1_555
As1 Sr0 3.193411 1_565
As1 Sr0 3.193414 1_555
As1 Sr0 3.193415 1_665
