# generated using pymatgen
data_Li5FeO4
_symmetry_space_group_name_H-M   'P 1'
_cell_length_a   5.60540400
_cell_length_b   6.77921355
_cell_length_c   11.01692836
_cell_angle_alpha   89.89365535
_cell_angle_beta   78.17565140
_cell_angle_gamma   89.75784159
_symmetry_Int_Tables_number   1
_chemical_formula_structural   Li5FeO4
_chemical_formula_sum   'Li20 Fe4 O16'
_cell_volume   409.75845233
_cell_formula_units_Z   4
loop_
 _symmetry_equiv_pos_site_id
 _symmetry_equiv_pos_as_xyz
  1  'x, y, z'
loop_
 _atom_site_type_symbol
 _atom_site_label
 _atom_site_symmetry_multiplicity
 _atom_site_fract_x
 _atom_site_fract_y
 _atom_site_fract_z
 _atom_site_occupancy
  Li  Li0  1  0.09760600  0.21267700  0.28919800  1
  Li  Li1  1  0.00752200  0.25405300  0.65882700  1
  Li  Li2  1  0.09662300  0.98006300  0.80142000  1
  Li  Li3  1  0.10882000  0.52861600  0.79763000  1
  Li  Li4  1  0.27722100  0.96730500  0.07978900  1
  Li  Li5  1  0.22156900  0.47332900  0.42430700  1
  Li  Li6  1  0.31416500  0.53393900  0.05921700  1
  Li  Li7  1  0.18003500  0.02533400  0.44743700  1
  Li  Li8  1  0.40491700  0.71332900  0.21783400  1
  Li  Li9  1  0.50666400  0.25726200  0.17131000  1
  Li  Li10  1  0.58725200  0.96677400  0.30771100  1
  Li  Li11  1  0.49196800  0.75473100  0.82411400  1
  Li  Li12  1  0.54456000  0.26193400  0.76594500  1
  Li  Li13  1  0.77199600  0.98318200  0.57100300  1
  Li  Li14  1  0.67769600  0.04158700  0.93637200  1
  Li  Li15  1  0.91128100  0.47142800  0.19607600  1
  Li  Li16  1  0.79979900  0.53025000  0.56222600  1
  Li  Li17  1  0.69749600  0.46910900  0.92912700  1
  Li  Li18  1  0.98762600  0.75541100  0.33508000  1
  Li  Li19  1  0.88988600  0.75316600  0.70140000  1
  Fe  Fe0  1  0.17081800  0.25292000  0.94801000  1
  Fe  Fe1  1  0.68007900  0.26093400  0.43249600  1
  Fe  Fe2  1  0.82606900  0.75934900  0.06027800  1
  Fe  Fe3  1  0.32490900  0.75147800  0.56834800  1
  O  O0  1  0.09514100  0.73100500  0.14202500  1
  O  O1  1  0.16672700  0.26710100  0.11830500  1
  O  O2  1  0.10264200  0.96827400  0.62624600  1
  O  O3  1  0.11011200  0.53464100  0.62242300  1
  O  O4  1  0.33780500  0.76262900  0.39160000  1
  O  O5  1  0.39994500  0.22817900  0.35869600  1
  O  O6  1  0.36298700  0.02658500  0.88856900  1
  O  O7  1  0.37391300  0.47423300  0.88193600  1
  O  O8  1  0.63449600  0.52526800  0.11053700  1
  O  O9  1  0.60009100  0.96341800  0.12300700  1
  O  O10  1  0.60207700  0.75132700  0.64025600  1
  O  O11  1  0.68732400  0.26042300  0.60184800  1
  O  O12  1  0.90496300  0.46648500  0.37137600  1
  O  O13  1  0.86772600  0.02250500  0.38399400  1
  O  O14  1  0.85792700  0.75612800  0.88100000  1
  O  O15  1  0.90965700  0.25184400  0.85862300  1
loop_
_geom_bond_atom_site_label_1
_geom_bond_atom_site_label_2
_geom_bond_distance
_geom_bond_site_symmetry_2
Li0 O1 1.878974 1_555
Li0 O13 1.967413 1_455
Li0 O5 2.000743 1_555
Li0 O12 2.129710 1_455
Li1 O3 2.005411 1_555
Li1 O11 2.019492 1_455
Li1 O2 2.020370 1_545
Li1 O15 2.156677 1_455
Li2 O2 1.925052 1_555
Li2 O6 1.960399 1_565
Li2 O14 2.096422 1_455
Li2 O15 2.146504 1_465
Li3 O3 1.929129 1_555
Li3 O7 1.940708 1_555
Li3 O14 2.158205 1_455
Li3 O15 2.218993 1_455
Li4 O0 1.949597 1_555
Li4 O9 1.963550 1_555
Li4 O6 2.100966 1_564
Li4 O1 2.139881 1_565
Li5 O12 1.979065 1_455
Li5 O5 1.994601 1_555
Li5 O4 2.076711 1_555
Li5 O3 2.183870 1_555
Li6 O0 1.912061 1_555
Li6 O7 1.955577 1_554
Li6 O8 1.990548 1_555
Li6 O1 2.041291 1_555
Li7 O2 1.966417 1_545
Li7 O5 1.970214 1_555
Li7 O13 2.013790 1_455
Li7 O4 2.024855 1_545
Li8 O4 1.903731 1_555
Li8 O8 2.011734 1_555
Li8 O0 2.078280 1_555
Li8 O9 2.168734 1_555
Li9 O8 2.018070 1_555
Li9 O5 2.037626 1_555
Li9 O9 2.099175 1_545
Li9 O1 2.105022 1_555
Li10 O13 1.966831 1_565
Li10 O9 2.021519 1_555
Li10 O4 2.050989 1_555
Li10 O5 2.074740 1_565
Li11 O10 1.992995 1_555
Li11 O6 2.051008 1_565
Li11 O7 2.071955 1_555
Li11 O14 2.264495 1_555
Li12 O11 1.820962 1_555
Li12 O7 2.028181 1_555
Li12 O6 2.201982 1_555
Li12 O15 2.467855 1_555
Li13 O10 1.915781 1_555
Li13 O11 1.949847 1_565
Li13 O13 2.037103 1_565
Li13 O2 2.067896 1_655
Li14 O6 1.944762 1_555
Li14 O15 2.002674 1_555
Li14 O9 2.080654 1_546
Li14 O14 2.207490 1_545
Li15 O12 1.924555 1_555
Li15 O8 2.005382 1_555
Li15 O1 2.046447 1_655
Li15 O0 2.067201 1_655
Li16 O10 1.952900 1_555
Li16 O11 1.956542 1_555
Li16 O3 1.984839 1_655
Li16 O12 2.109140 1_555
Li17 O15 1.948819 1_555
Li17 O7 1.986778 1_555
Li17 O8 1.994096 1_556
Li17 O14 2.165959 1_555
Li18 O13 1.966111 1_565
Li18 O12 2.034674 1_555
Li18 O0 2.095071 1_655
Li18 O4 2.178281 1_655
Li19 O10 1.871412 1_555
Li19 O14 1.949965 1_555
Li19 O2 1.959557 1_655
Li19 O3 2.006165 1_655
Fe0 O1 1.874205 1_556
Fe0 O6 1.908962 1_555
Fe0 O15 1.924524 1_455
Fe0 O7 1.935886 1_555
Fe1 O11 1.874479 1_555
Fe1 O12 1.909897 1_555
Fe1 O5 1.924299 1_555
Fe1 O13 1.939846 1_555
Fe2 O9 1.904197 1_555
Fe2 O0 1.917402 1_655
Fe2 O8 1.935302 1_555
Fe2 O14 1.946519 1_554
Fe3 O10 1.883024 1_555
Fe3 O3 1.919162 1_555
Fe3 O4 1.935050 1_555
Fe3 O2 1.944600 1_555
