# generated using pymatgen
data_Ti2Cu
_symmetry_space_group_name_H-M   'P 1'
_cell_length_a   5.85710380
_cell_length_b   5.85710226
_cell_length_c   11.42479772
_cell_angle_alpha   104.85257209
_cell_angle_beta   104.85257058
_cell_angle_gamma   90.00001967
_symmetry_Int_Tables_number   1
_chemical_formula_structural   Ti2Cu
_chemical_formula_sum   'Ti16 Cu8'
_cell_volume   365.27580676
_cell_formula_units_Z   8
loop_
 _symmetry_equiv_pos_site_id
 _symmetry_equiv_pos_as_xyz
  1  'x, y, z'
loop_
 _atom_site_type_symbol
 _atom_site_label
 _atom_site_symmetry_multiplicity
 _atom_site_fract_x
 _atom_site_fract_y
 _atom_site_fract_z
 _atom_site_occupancy
  Ti  Ti0_0  1  0.33067815  0.33067815  0.16135630  1
  Ti  Ti0_1  1  0.33067815  0.33067815  0.66135630  1
  Ti  Ti0_2  1  0.33067815  0.83067815  0.16135630  1
  Ti  Ti0_3  1  0.33067815  0.83067815  0.66135630  1
  Ti  Ti0_4  1  0.83067815  0.33067815  0.16135630  1
  Ti  Ti0_5  1  0.83067815  0.33067815  0.66135630  1
  Ti  Ti0_6  1  0.83067815  0.83067815  0.16135629  1
  Ti  Ti0_7  1  0.83067815  0.83067815  0.66135629  1
  Ti  Ti1_0  1  0.16932185  0.16932185  0.33864371  1
  Ti  Ti1_1  1  0.16932185  0.16932185  0.83864371  1
  Ti  Ti1_2  1  0.16932185  0.66932185  0.33864371  1
  Ti  Ti1_3  1  0.16932185  0.66932185  0.83864371  1
  Ti  Ti1_4  1  0.66932185  0.16932185  0.33864371  1
  Ti  Ti1_5  1  0.66932185  0.16932185  0.83864371  1
  Ti  Ti1_6  1  0.66932185  0.66932185  0.33864371  1
  Ti  Ti1_7  1  0.66932185  0.66932185  0.83864370  1
  Cu  Cu0_0  1  0.00000000  0.00000000  0.00000000  1
  Cu  Cu0_1  1  0.00000000  0.00000000  0.50000000  1
  Cu  Cu0_2  1  0.00000000  0.50000000  0.00000000  1
  Cu  Cu0_3  1  0.00000000  0.50000000  0.50000000  1
  Cu  Cu0_4  1  0.50000000  0.00000000  0.00000000  1
  Cu  Cu0_5  1  0.50000000  0.00000000  0.50000000  1
  Cu  Cu0_6  1  0.50000000  0.50000000  0.00000000  1
  Cu  Cu0_7  1  0.50000000  0.50000000  0.50000000  1
loop_
_geom_bond_atom_site_label_1
_geom_bond_atom_site_label_2
_geom_bond_distance
_geom_bond_site_symmetry_2
Ti0_0 Ti1_0 2.802074 1_555
Ti0_0 Ti1_6 2.802074 1_555
Ti0_0 Ti1_2 2.802074 1_555
Ti0_0 Ti1_4 2.802075 1_555
Ti0_0 Ti0_2 2.928551 1_555
Ti0_0 Ti0_2 2.928551 1_545
Ti0_0 Ti0_4 2.928552 1_455
Ti0_0 Ti0_4 2.928552 1_555
Ti0_1 Ti1_1 2.802074 1_555
Ti0_1 Ti1_7 2.802074 1_555
Ti0_1 Ti1_3 2.802074 1_555
Ti0_1 Ti1_5 2.802075 1_555
Ti0_1 Ti0_3 2.928551 1_555
Ti0_1 Ti0_3 2.928551 1_545
Ti0_1 Ti0_5 2.928552 1_455
Ti0_1 Ti0_5 2.928552 1_555
Ti0_2 Ti1_2 2.802074 1_555
Ti0_2 Ti1_4 2.802074 1_565
Ti0_2 Ti1_0 2.802074 1_565
Ti0_2 Ti1_6 2.802075 1_555
Ti0_2 Ti0_6 2.928552 1_555
Ti0_2 Ti0_6 2.928552 1_455
Ti0_3 Ti1_3 2.802074 1_555
Ti0_3 Ti1_5 2.802074 1_565
Ti0_3 Ti1_1 2.802074 1_565
Ti0_3 Ti1_7 2.802075 1_555
Ti0_3 Ti0_7 2.928552 1_455
Ti0_3 Ti0_7 2.928552 1_555
Ti0_4 Ti1_4 2.802074 1_555
Ti0_4 Ti1_2 2.802074 1_655
Ti0_4 Ti1_6 2.802074 1_555
Ti0_4 Ti1_0 2.802075 1_655
Ti0_4 Ti0_6 2.928551 1_555
Ti0_4 Ti0_6 2.928551 1_545
Ti0_5 Ti1_5 2.802074 1_555
Ti0_5 Ti1_3 2.802074 1_655
Ti0_5 Ti1_7 2.802074 1_555
Ti0_5 Ti1_1 2.802075 1_655
Ti0_5 Ti0_7 2.928551 1_555
Ti0_5 Ti0_7 2.928551 1_545
Ti0_6 Ti1_6 2.802074 1_555
Ti0_6 Ti1_0 2.802074 1_665
Ti0_6 Ti1_4 2.802074 1_565
Ti0_6 Ti1_2 2.802075 1_655
Ti0_7 Ti1_7 2.802074 1_555
Ti0_7 Ti1_1 2.802074 1_665
Ti0_7 Ti1_5 2.802074 1_565
Ti0_7 Ti1_3 2.802075 1_655
Ti1_0 Ti1_2 2.928551 1_555
Ti1_0 Ti1_2 2.928551 1_545
Ti1_0 Ti1_4 2.928552 1_555
Ti1_0 Ti1_4 2.928552 1_455
Ti1_1 Ti1_3 2.928551 1_555
Ti1_1 Ti1_3 2.928551 1_545
Ti1_1 Ti1_5 2.928552 1_455
Ti1_1 Ti1_5 2.928552 1_555
Ti1_2 Ti1_6 2.928552 1_555
Ti1_2 Ti1_6 2.928552 1_455
Ti1_3 Ti1_7 2.928552 1_455
Ti1_3 Ti1_7 2.928552 1_555
Ti1_4 Ti1_6 2.928551 1_545
Ti1_4 Ti1_6 2.928551 1_555
Ti1_5 Ti1_7 2.928551 1_545
Ti1_5 Ti1_7 2.928551 1_555
Cu0_0 Ti1_1 2.690720 1_554
Cu0_0 Ti0_6 2.690720 1_445
Cu0_0 Ti0_0 2.690720 1_555
Cu0_0 Ti1_7 2.690720 1_444
Cu0_0 Ti1_3 2.690720 1_544
Cu0_0 Ti0_4 2.690720 1_455
Cu0_0 Ti1_5 2.690720 1_454
Cu0_0 Ti0_2 2.690720 1_545
Cu0_0 Cu0_2 2.928551 1_545
Cu0_0 Cu0_2 2.928551 1_555
Cu0_0 Cu0_4 2.928552 1_555
Cu0_0 Cu0_4 2.928552 1_455
Cu0_1 Ti1_0 2.690720 1_555
Cu0_1 Ti0_7 2.690720 1_445
Cu0_1 Ti0_1 2.690720 1_555
Cu0_1 Ti1_6 2.690720 1_445
Cu0_1 Ti1_2 2.690720 1_545
Cu0_1 Ti0_5 2.690720 1_455
Cu0_1 Ti1_4 2.690720 1_455
Cu0_1 Ti0_3 2.690720 1_545
Cu0_1 Cu0_3 2.928551 1_555
Cu0_1 Cu0_3 2.928551 1_545
Cu0_1 Cu0_5 2.928552 1_555
Cu0_1 Cu0_5 2.928552 1_455
Cu0_2 Ti1_3 2.690720 1_554
Cu0_2 Ti0_4 2.690720 1_455
Cu0_2 Ti1_5 2.690720 1_454
Cu0_2 Ti0_2 2.690720 1_555
Cu0_2 Ti1_1 2.690720 1_554
Cu0_2 Ti0_6 2.690720 1_455
Cu0_2 Ti0_0 2.690720 1_555
Cu0_2 Ti1_7 2.690720 1_454
Cu0_2 Cu0_6 2.928552 1_555
Cu0_2 Cu0_6 2.928552 1_455
Cu0_3 Ti1_2 2.690720 1_555
Cu0_3 Ti0_5 2.690720 1_455
Cu0_3 Ti0_3 2.690720 1_555
Cu0_3 Ti1_4 2.690720 1_455
Cu0_3 Ti0_7 2.690720 1_455
Cu0_3 Ti1_0 2.690720 1_555
Cu0_3 Ti0_1 2.690720 1_555
Cu0_3 Ti1_6 2.690720 1_455
Cu0_3 Cu0_7 2.928552 1_555
Cu0_3 Cu0_7 2.928552 1_455
Cu0_4 Ti1_5 2.690720 1_554
Cu0_4 Ti0_2 2.690720 1_545
Cu0_4 Ti1_3 2.690720 1_544
Cu0_4 Ti0_4 2.690720 1_555
Cu0_4 Ti0_0 2.690720 1_555
Cu0_4 Ti1_7 2.690720 1_544
Cu0_4 Ti1_1 2.690720 1_554
Cu0_4 Ti0_6 2.690720 1_545
Cu0_4 Cu0_6 2.928551 1_555
Cu0_4 Cu0_6 2.928551 1_545
Cu0_5 Ti1_4 2.690720 1_555
Cu0_5 Ti0_3 2.690720 1_545
Cu0_5 Ti0_5 2.690720 1_555
Cu0_5 Ti1_2 2.690720 1_545
Cu0_5 Ti1_6 2.690720 1_545
Cu0_5 Ti0_1 2.690720 1_555
Cu0_5 Ti1_0 2.690720 1_555
Cu0_5 Ti0_7 2.690720 1_545
Cu0_5 Cu0_7 2.928551 1_545
Cu0_5 Cu0_7 2.928551 1_555
Cu0_6 Ti1_7 2.690720 1_554
Cu0_6 Ti0_0 2.690720 1_555
Cu0_6 Ti0_6 2.690720 1_555
Cu0_6 Ti1_1 2.690720 1_554
Cu0_6 Ti1_5 2.690720 1_554
Cu0_6 Ti0_2 2.690720 1_555
Cu0_6 Ti1_3 2.690720 1_554
Cu0_6 Ti0_4 2.690720 1_555
Cu0_7 Ti1_6 2.690720 1_555
Cu0_7 Ti0_1 2.690720 1_555
Cu0_7 Ti0_7 2.690720 1_555
Cu0_7 Ti1_0 2.690720 1_555
Cu0_7 Ti1_4 2.690720 1_555
Cu0_7 Ti0_3 2.690720 1_555
Cu0_7 Ti1_2 2.690720 1_555
Cu0_7 Ti0_5 2.690720 1_555
