# generated using pymatgen
data_Ba3(ClO)2
_symmetry_space_group_name_H-M   'P 1'
_cell_length_a   6.27849600
_cell_length_b   7.39168300
_cell_length_c   19.21390500
_cell_angle_alpha   90.00000000
_cell_angle_beta   90.00000000
_cell_angle_gamma   90.00000000
_symmetry_Int_Tables_number   1
_chemical_formula_structural   Ba3(ClO)2
_chemical_formula_sum   'Ba12 Cl8 O8'
_cell_volume   891.69143356
_cell_formula_units_Z   4
loop_
 _symmetry_equiv_pos_site_id
 _symmetry_equiv_pos_as_xyz
  1  'x, y, z'
loop_
 _atom_site_type_symbol
 _atom_site_label
 _atom_site_symmetry_multiplicity
 _atom_site_fract_x
 _atom_site_fract_y
 _atom_site_fract_z
 _atom_site_occupancy
  Ba  Ba0  1  0.25000000  0.15714700  0.02337300  1
  Ba  Ba1  1  0.25000000  0.68063400  0.10653200  1
  Ba  Ba2  1  0.75000000  0.04470200  0.16394200  1
  Ba  Ba3  1  0.25000000  0.54470200  0.33605800  1
  Ba  Ba4  1  0.75000000  0.18063400  0.39346800  1
  Ba  Ba5  1  0.75000000  0.65714700  0.47662700  1
  Ba  Ba6  1  0.25000000  0.34285300  0.52337300  1
  Ba  Ba7  1  0.25000000  0.81936600  0.60653200  1
  Ba  Ba8  1  0.75000000  0.45529800  0.66394200  1
  Ba  Ba9  1  0.25000000  0.95529800  0.83605800  1
  Ba  Ba10  1  0.75000000  0.31936600  0.89346800  1
  Ba  Ba11  1  0.75000000  0.84285300  0.97662700  1
  Cl  Cl0  1  0.75000000  0.40792100  0.05840300  1
  Cl  Cl1  1  0.25000000  0.21063300  0.23185100  1
  Cl  Cl2  1  0.75000000  0.71063300  0.26814900  1
  Cl  Cl3  1  0.25000000  0.90792100  0.44159700  1
  Cl  Cl4  1  0.75000000  0.09207900  0.55840300  1
  Cl  Cl5  1  0.25000000  0.28936700  0.73185100  1
  Cl  Cl6  1  0.75000000  0.78936700  0.76814900  1
  Cl  Cl7  1  0.25000000  0.59207900  0.94159700  1
  O  O0  1  0.49972300  0.91579400  0.08065200  1
  O  O1  1  0.00027700  0.91579400  0.08065200  1
  O  O2  1  0.99972300  0.41579400  0.41934800  1
  O  O3  1  0.50027700  0.41579400  0.41934800  1
  O  O4  1  0.49972300  0.58420600  0.58065200  1
  O  O5  1  0.00027700  0.58420600  0.58065200  1
  O  O6  1  0.99972300  0.08420600  0.91934800  1
  O  O7  1  0.50027700  0.08420600  0.91934800  1
loop_
_geom_bond_atom_site_label_1
_geom_bond_atom_site_label_2
_geom_bond_distance
_geom_bond_site_symmetry_2
Ba0 O7 2.598996 1_554
Ba0 O6 2.598996 1_454
Ba0 O1 2.617662 1_545
Ba0 O0 2.617662 1_545
Ba0 Cl7 3.578300 1_554
Ba0 Cl0 3.707274 1_555
Ba0 Cl0 3.707274 1_455
Ba1 O1 2.393107 1_555
Ba1 O0 2.393107 1_555
Ba1 Cl7 3.235941 1_554
Ba1 Cl0 3.843633 1_555
Ba1 Cl0 3.843633 1_455
Ba2 O0 2.436831 1_545
Ba2 O1 2.436831 1_645
Ba2 Cl2 3.179072 1_545
Ba2 Cl0 3.364549 1_555
Ba2 Cl1 3.614097 1_555
Ba2 Cl1 3.614097 1_655
Ba3 O2 2.436831 1_455
Ba3 O3 2.436831 1_555
Ba3 Cl1 3.179072 1_555
Ba3 Cl3 3.364549 1_555
Ba3 Cl2 3.614097 1_555
Ba3 Cl2 3.614097 1_455
Ba4 O2 2.393107 1_555
Ba4 O3 2.393107 1_555
Ba4 Cl4 3.235941 1_555
Ba4 Cl3 3.843633 1_645
Ba4 Cl3 3.843633 1_545
Ba5 O5 2.598996 1_655
Ba5 O4 2.598996 1_555
Ba5 O3 2.617662 1_555
Ba5 O2 2.617662 1_555
Ba5 Cl4 3.578300 1_565
Ba5 Cl3 3.707274 1_555
Ba5 Cl3 3.707274 1_655
Ba6 O2 2.598996 1_455
Ba6 O3 2.598996 1_555
Ba6 O4 2.617662 1_555
Ba6 O5 2.617662 1_555
Ba6 Cl3 3.578300 1_545
Ba6 Cl4 3.707274 1_455
Ba6 Cl4 3.707274 1_555
Ba7 O4 2.393107 1_555
Ba7 O5 2.393107 1_555
Ba7 Cl3 3.235941 1_555
Ba7 Cl4 3.843633 1_565
Ba7 Cl4 3.843633 1_465
Ba8 O4 2.436831 1_555
Ba8 O5 2.436831 1_655
Ba8 Cl6 3.179072 1_555
Ba8 Cl4 3.364549 1_555
Ba8 Cl5 3.614097 1_555
Ba8 Cl5 3.614097 1_655
Ba9 O6 2.436831 1_465
Ba9 O7 2.436831 1_565
Ba9 Cl5 3.179072 1_565
Ba9 Cl7 3.364549 1_555
Ba9 Cl6 3.614097 1_455
Ba9 Cl6 3.614097 1_555
Ba10 O6 2.393107 1_555
Ba10 O7 2.393107 1_555
Ba10 Cl0 3.235941 1_556
Ba10 Cl7 3.843633 1_655
Ba10 Cl7 3.843633 1_555
Ba11 O0 2.598996 1_556
Ba11 O1 2.598996 1_656
Ba11 O6 2.617662 1_565
Ba11 O7 2.617662 1_565
Ba11 Cl0 3.578300 1_556
Ba11 Cl7 3.707274 1_555
Ba11 Cl7 3.707274 1_655
