# generated using pymatgen
data_Li6Mn(OF)3
_symmetry_space_group_name_H-M   'P 1'
_cell_length_a   6.74995795
_cell_length_b   9.86160565
_cell_length_c   9.90694769
_cell_angle_alpha   66.22579430
_cell_angle_beta   81.60463409
_cell_angle_gamma   98.76681312
_symmetry_Int_Tables_number   1
_chemical_formula_structural   Li6Mn(OF)3
_chemical_formula_sum   'Li24 Mn4 O12 F12'
_cell_volume   580.54787535
_cell_formula_units_Z   4
loop_
 _symmetry_equiv_pos_site_id
 _symmetry_equiv_pos_as_xyz
  1  'x, y, z'
loop_
 _atom_site_type_symbol
 _atom_site_label
 _atom_site_symmetry_multiplicity
 _atom_site_fract_x
 _atom_site_fract_y
 _atom_site_fract_z
 _atom_site_occupancy
  Li  Li0  1  0.01043500  0.80403900  0.84879700  1
  Li  Li1  1  0.01048100  0.30407200  0.34878500  1
  Li  Li2  1  0.17859200  0.72982200  0.13986700  1
  Li  Li3  1  0.17861200  0.22985500  0.63984500  1
  Li  Li4  1  0.31779400  0.50374600  0.17271400  1
  Li  Li5  1  0.31773100  0.00377700  0.67266200  1
  Li  Li6  1  0.17149200  0.46195200  0.75106600  1
  Li  Li7  1  0.17149100  0.96193600  0.25107000  1
  Li  Li8  1  0.66950200  0.64450700  0.02552700  1
  Li  Li9  1  0.66949500  0.14454500  0.52550000  1
  Li  Li10  1  0.50822300  0.56575400  0.58494200  1
  Li  Li11  1  0.50831700  0.06573200  0.08490300  1
  Li  Li12  1  0.46816800  0.43133900  0.41688600  1
  Li  Li13  1  0.46822700  0.93132700  0.91693000  1
  Li  Li14  1  0.33435400  0.35222500  0.96737900  1
  Li  Li15  1  0.33437200  0.85221800  0.46737600  1
  Li  Li16  1  0.83152600  0.53088600  0.24484000  1
  Li  Li17  1  0.83155600  0.03089700  0.74487700  1
  Li  Li18  1  0.68639200  0.50240900  0.82857800  1
  Li  Li19  1  0.68647400  0.00236500  0.32858400  1
  Li  Li20  1  0.82340000  0.27575800  0.85951300  1
  Li  Li21  1  0.82339500  0.77577600  0.35949700  1
  Li  Li22  1  0.97026400  0.19560400  0.15434700  1
  Li  Li23  1  0.97020000  0.69560800  0.65434000  1
  Mn  Mn0  1  0.02177200  0.99860700  0.00333900  1
  Mn  Mn1  1  0.52245500  0.74852800  0.75294300  1
  Mn  Mn2  1  0.02171000  0.49877700  0.50321700  1
  Mn  Mn3  1  0.52220400  0.24870000  0.25286100  1
  O  O0  1  0.09323900  0.51918600  0.30081300  1
  O  O1  1  0.09326000  0.01914500  0.80086100  1
  O  O2  1  0.26616000  0.45228700  0.56042000  1
  O  O3  1  0.26629300  0.95222700  0.06050000  1
  O  O4  1  0.77285600  0.71088700  0.80697400  1
  O  O5  1  0.77295600  0.21091800  0.30696100  1
  O  O6  1  0.42411200  0.54247600  0.79098300  1
  O  O7  1  0.42413700  0.04253000  0.29098800  1
  O  O8  1  0.57329400  0.45809600  0.21190700  1
  O  O9  1  0.57336100  0.95807600  0.71191100  1
  O  O10  1  0.90680900  0.48038300  0.69940700  1
  O  O11  1  0.90686600  0.98041200  0.19939700  1
  F  F0  1  0.40581600  0.70568800  0.01247700  1
  F  F1  1  0.40582400  0.20569800  0.51245200  1
  F  F2  1  0.91913800  0.72689000  0.06729600  1
  F  F3  1  0.91912600  0.22688500  0.56728200  1
  F  F4  1  0.07398700  0.26979400  0.93760900  1
  F  F5  1  0.07397300  0.76979100  0.43759500  1
  F  F6  1  0.22817500  0.29658400  0.18581900  1
  F  F7  1  0.22817900  0.79659400  0.68580900  1
  F  F8  1  0.73148900  0.55200700  0.43742300  1
  F  F9  1  0.73147900  0.05199100  0.93746400  1
  F  F10  1  0.59041300  0.29034900  0.98823500  1
  F  F11  1  0.59042300  0.79034500  0.48823000  1
loop_
_geom_bond_atom_site_label_1
_geom_bond_atom_site_label_2
_geom_bond_distance
_geom_bond_site_symmetry_2
Li0 O4 1.907640 1_455
Li0 O1 1.945942 1_565
Li1 O5 1.907363 1_455
Li1 O0 1.945894 1_555
Li2 O3 1.963921 1_555
Li2 O0 1.971203 1_555
Li3 O2 1.964035 1_555
Li3 O1 1.971938 1_555
Li4 O0 1.896216 1_555
Li4 O8 1.902365 1_555
Li5 O1 1.896056 1_555
Li5 O9 1.903499 1_545
Li6 O6 1.931821 1_555
Li6 O10 1.943676 1_455
Li6 O2 1.948323 1_555
Li7 O7 1.932223 1_565
Li7 O11 1.943402 1_455
Li7 O3 1.948002 1_555
Li8 O8 1.938997 1_555
Li8 O4 1.969826 1_554
Li9 O9 1.939425 1_545
Li9 O5 1.969814 1_555
Li10 O2 1.938699 1_555
Li10 O6 1.945699 1_555
Li11 O3 1.938116 1_545
Li11 O7 1.946435 1_555
Li12 O2 1.918462 1_555
Li12 O8 1.946042 1_555
Li13 O3 1.918152 1_556
Li13 O9 1.946450 1_555
Li14 O6 1.908365 1_555
Li15 O7 1.908669 1_565
Li16 O8 1.906162 1_555
Li16 O0 1.933418 1_655
Li17 O9 1.906185 1_545
Li17 O1 1.933445 1_655
Li18 O10 1.914424 1_555
Li18 O6 1.927747 1_555
Li18 O4 1.963734 1_555
Li19 O11 1.914040 1_545
Li19 O7 1.928384 1_555
Li19 O5 1.964390 1_555
Li20 O10 1.927998 1_555
Li21 O11 1.928055 1_555
Li22 O5 1.933890 1_555
Li22 O11 1.946679 1_545
Li23 O4 1.934001 1_555
Li23 O10 1.946951 1_555
Mn0 O3 1.883685 1_555
Mn0 O11 1.908694 1_455
Mn0 O1 1.912499 1_564
Mn1 O4 1.891114 1_555
Mn1 O6 1.900017 1_555
Mn1 O9 1.902401 1_555
Mn2 O2 1.883641 1_555
Mn2 O10 1.909148 1_455
Mn2 O0 1.912264 1_555
Mn3 O5 1.893933 1_555
Mn3 O7 1.900570 1_555
Mn3 O8 1.901118 1_555
F0 Li4 1.911541 1_555
F0 Li2 1.946798 1_555
F0 Li8 1.969853 1_555
F0 Li13 1.981013 1_554
F0 Mn1 2.416824 1_554
F1 Li5 1.911321 1_555
F1 Li3 1.946872 1_555
F1 Li9 1.969639 1_555
F1 Li12 1.981042 1_555
F1 Mn3 2.416623 1_555
F2 Li8 1.930796 1_555
F2 Li0 1.945266 1_654
F2 Li16 1.945847 1_555
F2 Li2 1.988415 1_655
F2 Mn0 2.449193 1_655
F3 Li9 1.930675 1_555
F3 Li1 1.945245 1_655
F3 Li17 1.945981 1_555
F3 Li3 1.988586 1_655
F3 Mn2 2.450561 1_655
F4 Li14 1.935368 1_555
F4 Li22 1.942740 1_456
F4 Li20 1.959297 1_455
F4 Li6 1.969913 1_555
F4 Mn0 2.437603 1_546
F5 Li15 1.935591 1_555
F5 Li23 1.942859 1_455
F5 Li21 1.959251 1_455
F5 Li7 1.969760 1_555
F5 Mn2 2.436143 1_555
F6 Li4 1.985682 1_555
F6 Li14 1.991930 1_554
F6 Li22 1.999989 1_455
F6 Li1 2.051270 1_555
F6 Mn3 2.240718 1_555
F7 Li5 1.985654 1_565
F7 Li15 1.991917 1_555
F7 Li23 2.000375 1_455
F7 Li0 2.051431 1_555
F7 Mn1 2.243038 1_555
F8 Li21 1.979838 1_555
F8 Li10 2.001073 1_555
F8 Li16 2.031389 1_555
F8 Li12 2.067049 1_555
F8 Mn2 2.224517 1_655
F9 Li20 1.979803 1_555
F9 Li11 2.000071 1_556
F9 Li17 2.031342 1_555
F9 Li13 2.066650 1_545
F9 Mn0 2.225628 1_646
F10 Li14 1.930407 1_555
F10 Li20 1.936875 1_555
F10 Li11 1.972644 1_556
F10 Li18 1.978817 1_555
F10 Mn3 2.444459 1_556
F11 Li15 1.930341 1_555
F11 Li21 1.936763 1_555
F11 Li10 1.972441 1_555
F11 Li19 1.978536 1_565
F11 Mn1 2.444807 1_555
