# generated using pymatgen
data_Li6Te2O9
_symmetry_space_group_name_H-M   'P 1'
_cell_length_a   6.02968100
_cell_length_b   8.73946891
_cell_length_c   16.25152921
_cell_angle_alpha   85.56676098
_cell_angle_beta   79.60081425
_cell_angle_gamma   70.33270815
_symmetry_Int_Tables_number   1
_chemical_formula_structural   Li6Te2O9
_chemical_formula_sum   'Li24 Te8 O36'
_cell_volume   793.06132897
_cell_formula_units_Z   4
loop_
 _symmetry_equiv_pos_site_id
 _symmetry_equiv_pos_as_xyz
  1  'x, y, z'
loop_
 _atom_site_type_symbol
 _atom_site_label
 _atom_site_symmetry_multiplicity
 _atom_site_fract_x
 _atom_site_fract_y
 _atom_site_fract_z
 _atom_site_occupancy
  Li  Li0  1  0.03533900  0.14520900  0.01213000  1
  Li  Li1  1  0.54538100  0.13188800  0.03002300  1
  Li  Li2  1  0.60196900  0.47564500  0.08518200  1
  Li  Li3  1  0.86028600  0.83920800  0.14792900  1
  Li  Li4  1  0.17978100  0.62900900  0.23133000  1
  Li  Li5  1  0.41159600  0.11893000  0.26826600  1
  Li  Li6  1  0.70538800  0.62506300  0.23009500  1
  Li  Li7  1  0.94954200  0.11436400  0.26945900  1
  Li  Li8  1  0.53378900  0.31872500  0.36315800  1
  Li  Li9  1  0.17216800  0.96898200  0.42075600  1
  Li  Li10  1  0.07153900  0.63596200  0.47093000  1
  Li  Li11  1  0.56455900  0.63177300  0.48400000  1
  Li  Li12  1  0.43544100  0.36822700  0.51600000  1
  Li  Li13  1  0.92846100  0.36403800  0.52907000  1
  Li  Li14  1  0.82783200  0.03101800  0.57924400  1
  Li  Li15  1  0.46621100  0.68127500  0.63684200  1
  Li  Li16  1  0.05045800  0.88563600  0.73054100  1
  Li  Li17  1  0.29461200  0.37493700  0.76990500  1
  Li  Li18  1  0.58840400  0.88107000  0.73173400  1
  Li  Li19  1  0.82021900  0.37099100  0.76867000  1
  Li  Li20  1  0.13971400  0.16079200  0.85207100  1
  Li  Li21  1  0.39803100  0.52435500  0.91481800  1
  Li  Li22  1  0.45461900  0.86811200  0.96997700  1
  Li  Li23  1  0.96466100  0.85479100  0.98787000  1
  Te  Te0  1  0.11712200  0.36984200  0.14710500  1
  Te  Te1  1  0.33248900  0.88715400  0.14660200  1
  Te  Te2  1  0.00359800  0.38549900  0.35216500  1
  Te  Te3  1  0.73528800  0.86748700  0.35182500  1
  Te  Te4  1  0.26471200  0.13251300  0.64817500  1
  Te  Te5  1  0.99640200  0.61450100  0.64783500  1
  Te  Te6  1  0.66751100  0.11284600  0.85339800  1
  Te  Te7  1  0.88287800  0.63015800  0.85289500  1
  O  O0  1  0.40564100  0.34342700  0.07358100  1
  O  O1  1  0.15760700  0.91441700  0.05717300  1
  O  O2  1  0.60925900  0.91019800  0.07420600  1
  O  O3  1  0.92160800  0.32782500  0.08124500  1
  O  O4  1  0.23685800  0.12026700  0.17861500  1
  O  O5  1  0.46261100  0.66001800  0.16048200  1
  O  O6  1  0.99957800  0.59645900  0.14726900  1
  O  O7  1  0.05944300  0.88496100  0.22862500  1
  O  O8  1  0.27272300  0.37586400  0.25302000  1
  O  O9  1  0.60243900  0.86691500  0.24955600  1
  O  O10  1  0.84074600  0.37432900  0.25583000  1
  O  O11  1  0.11568700  0.15780000  0.35629400  1
  O  O12  1  0.65631900  0.09477700  0.33561800  1
  O  O13  1  0.89997600  0.62672500  0.32347500  1
  O  O14  1  0.19520100  0.41389600  0.42826500  1
  O  O15  1  0.48792200  0.83452100  0.42877100  1
  O  O16  1  0.71724100  0.41214200  0.43360900  1
  O  O17  1  0.96877000  0.84342000  0.41855000  1
  O  O18  1  0.03123000  0.15658000  0.58145000  1
  O  O19  1  0.28275900  0.58785800  0.56639100  1
  O  O20  1  0.51207800  0.16547900  0.57122900  1
  O  O21  1  0.80479900  0.58610400  0.57173500  1
  O  O22  1  0.10002400  0.37327500  0.67652500  1
  O  O23  1  0.34368100  0.90522300  0.66438200  1
  O  O24  1  0.88431300  0.84220000  0.64370600  1
  O  O25  1  0.15925400  0.62567100  0.74417000  1
  O  O26  1  0.39756100  0.13308500  0.75044400  1
  O  O27  1  0.72727700  0.62413600  0.74698000  1
  O  O28  1  0.94055700  0.11503900  0.77137500  1
  O  O29  1  0.53738900  0.33998200  0.83951800  1
  O  O30  1  0.76314200  0.87973300  0.82138500  1
  O  O31  1  0.00042200  0.40354100  0.85273100  1
  O  O32  1  0.07839200  0.67217500  0.91875500  1
  O  O33  1  0.39074100  0.08980200  0.92579400  1
  O  O34  1  0.84239300  0.08558300  0.94282700  1
  O  O35  1  0.59435900  0.65657300  0.92641900  1
loop_
_geom_bond_atom_site_label_1
_geom_bond_atom_site_label_2
_geom_bond_distance
_geom_bond_site_symmetry_2
Li0 O3 1.881855 1_455
Li0 O34 1.966063 1_454
Li0 O1 2.028127 1_545
Li0 O33 2.261969 1_554
Li1 O0 1.888743 1_555
Li1 O2 1.949392 1_545
Li1 O34 2.015880 1_554
Li1 O33 2.184329 1_554
Li2 O3 1.918304 1_555
Li2 O0 1.951188 1_555
Li2 O5 1.955048 1_555
Li3 O6 2.001792 1_555
Li3 O2 2.004764 1_555
Li3 O9 2.021143 1_555
Li3 O7 2.072342 1_655
Li3 O1 2.347361 1_655
Li4 O5 1.965052 1_555
Li4 O6 1.982888 1_455
Li4 O13 2.048239 1_455
Li4 O7 2.106151 1_555
Li4 O8 2.109272 1_555
Li5 O12 1.938493 1_555
Li5 O4 1.943258 1_555
Li5 O11 2.022659 1_555
Li5 O8 2.127895 1_555
Li5 O9 2.130439 1_545
Li6 O5 1.938953 1_555
Li6 O6 1.978005 1_555
Li6 O9 2.025392 1_555
Li6 O13 2.082678 1_555
Li6 O10 2.102493 1_555
Li7 O12 1.949434 1_555
Li7 O11 1.997091 1_655
Li7 O7 2.012867 1_645
Li7 O4 2.075720 1_655
Li7 O10 2.147702 1_555
Li8 O12 1.902489 1_555
Li8 O14 2.047584 1_555
Li8 O16 2.100142 1_555
Li8 O10 2.452163 1_555
Li8 O8 2.506183 1_555
Li9 O11 1.849266 1_565
Li9 O15 1.892773 1_555
Li9 O17 1.907200 1_455
Li10 O17 1.895109 1_455
Li10 O14 1.962278 1_555
Li10 O19 2.111312 1_555
Li10 O21 2.206955 1_455
Li11 O15 1.873907 1_555
Li11 O16 1.995968 1_555
Li11 O19 2.089374 1_555
Li11 O21 2.135212 1_555
Li12 O20 1.873907 1_555
Li12 O19 1.995968 1_555
Li12 O16 2.089374 1_555
Li12 O14 2.135212 1_555
Li13 O18 1.895109 1_655
Li13 O21 1.962278 1_555
Li13 O16 2.111312 1_555
Li13 O14 2.206955 1_655
Li14 O24 1.849266 1_545
Li14 O20 1.892773 1_555
Li14 O18 1.907200 1_655
Li15 O23 1.902489 1_555
Li15 O21 2.047584 1_555
Li15 O19 2.100142 1_555
Li15 O25 2.452163 1_555
Li15 O27 2.506183 1_555
Li16 O23 1.949434 1_555
Li16 O24 1.997091 1_455
Li16 O28 2.012867 1_465
Li16 O30 2.075720 1_455
Li16 O25 2.147702 1_555
Li17 O29 1.938953 1_555
Li17 O31 1.978005 1_555
Li17 O26 2.025392 1_555
Li17 O22 2.082678 1_555
Li17 O25 2.102493 1_555
Li18 O23 1.938493 1_555
Li18 O30 1.943258 1_555
Li18 O24 2.022659 1_555
Li18 O27 2.127895 1_555
Li18 O26 2.130439 1_565
Li19 O29 1.965052 1_555
Li19 O31 1.982888 1_655
Li19 O22 2.048239 1_655
Li19 O28 2.106151 1_555
Li19 O27 2.109272 1_555
Li20 O31 2.001792 1_555
Li20 O33 2.004764 1_555
Li20 O26 2.021143 1_555
Li20 O28 2.072342 1_455
Li20 O34 2.347361 1_455
Li21 O32 1.918304 1_555
Li21 O35 1.951188 1_555
Li21 O29 1.955048 1_555
Li22 O35 1.888743 1_555
Li22 O33 1.949392 1_565
Li22 O1 2.015880 1_556
Li22 O2 2.184329 1_556
Li23 O32 1.881855 1_655
Li23 O1 1.966063 1_656
Li23 O34 2.028127 1_565
Li23 O2 2.261969 1_556
O0 Te0 1.878666 1_555
O1 Te1 1.900412 1_555
O2 Te1 1.921092 1_555
O3 Te0 1.864908 1_655
O4 Te1 2.004622 1_545
O4 Te0 2.107540 1_555
O5 Te1 1.884995 1_555
O6 Te0 1.865490 1_655
O7 Te1 1.926871 1_555
O8 Te2 2.054654 1_555
O8 Te0 2.115679 1_555
O9 Te3 1.971961 1_555
O9 Te1 2.494762 1_555
O10 Te2 2.016919 1_655
O10 Te0 2.191903 1_655
O11 Te2 1.873951 1_555
O12 Te3 1.889337 1_545
O13 Te2 2.029484 1_655
O13 Te3 2.050365 1_555
O14 Te2 1.918882 1_555
O15 Te3 1.852466 1_555
O16 Te2 1.933748 1_655
O17 Te3 1.875803 1_555
O18 Te4 1.875803 1_555
O19 Te5 1.933748 1_455
O20 Te4 1.852466 1_555
O21 Te5 1.918882 1_555
O22 Te5 2.029484 1_455
O22 Te4 2.050365 1_555
O23 Te4 1.889337 1_565
O24 Te5 1.873951 1_555
O25 Te5 2.016919 1_455
O25 Te7 2.191903 1_455
O26 Te4 1.971961 1_555
O26 Te6 2.494762 1_555
O27 Te5 2.054654 1_555
O27 Te7 2.115679 1_555
O28 Te6 1.926871 1_555
O29 Te6 1.884995 1_555
O30 Te6 2.004622 1_565
O30 Te7 2.107540 1_555
O31 Te7 1.865490 1_455
O32 Te7 1.864908 1_455
O33 Te6 1.921092 1_555
O34 Te6 1.900412 1_555
O35 Te7 1.878666 1_555
