# generated using pymatgen
data_LiV6F13
_symmetry_space_group_name_H-M   'P 1'
_cell_length_a   8.06771000
_cell_length_b   8.11694138
_cell_length_c   10.23420133
_cell_angle_alpha   75.88533596
_cell_angle_beta   75.53344648
_cell_angle_gamma   62.43597098
_symmetry_Int_Tables_number   1
_chemical_formula_structural   LiV6F13
_chemical_formula_sum   'Li2 V12 F26'
_cell_volume   568.82190281
_cell_formula_units_Z   2
loop_
 _symmetry_equiv_pos_site_id
 _symmetry_equiv_pos_as_xyz
  1  'x, y, z'
loop_
 _atom_site_type_symbol
 _atom_site_label
 _atom_site_symmetry_multiplicity
 _atom_site_fract_x
 _atom_site_fract_y
 _atom_site_fract_z
 _atom_site_occupancy
  Li  Li0  1  0.21922700  0.65947200  0.05549800  1
  Li  Li1  1  0.78077300  0.34052800  0.94450200  1
  V  V0  1  0.06186000  0.05731900  0.23954300  1
  V  V1  1  0.27923500  0.13186200  0.50227200  1
  V  V2  1  0.42183700  0.21515900  0.02152700  1
  V  V3  1  0.15378700  0.58264600  0.50201800  1
  V  V4  1  0.50798600  0.24120400  0.72659000  1
  V  V5  1  0.61252200  0.33251300  0.25481600  1
  V  V6  1  0.38747800  0.66748700  0.74518400  1
  V  V7  1  0.49201400  0.75879600  0.27341000  1
  V  V8  1  0.84621300  0.41735400  0.49798200  1
  V  V9  1  0.57816300  0.78484100  0.97847300  1
  V  V10  1  0.72076500  0.86813800  0.49772800  1
  V  V11  1  0.93814000  0.94268100  0.76045700  1
  F  F0  1  0.01131600  0.16136100  0.62183700  1
  F  F1  1  0.15666000  0.24949000  0.11980100  1
  F  F2  1  0.11846200  0.39987800  0.39936900  1
  F  F3  1  0.29354700  0.31301300  0.61518400  1
  F  F4  1  0.40945800  0.41413500  0.12679200  1
  F  F5  1  0.16231500  0.74164500  0.63653400  1
  F  F6  1  0.54437300  0.11643700  0.38474000  1
  F  F7  1  0.29774300  0.82433500  0.13195500  1
  F  F8  1  0.42782400  0.05450500  0.87858000  1
  F  F9  1  0.41740100  0.54056300  0.38045700  1
  F  F10  1  0.32345800  0.44164800  0.86088900  1
  F  F11  1  0.15950200  0.82801400  0.88431800  1
  F  F12  1  0.26623300  0.97495600  0.37059600  1
  F  F13  1  0.73376700  0.02504400  0.62940400  1
  F  F14  1  0.84049800  0.17198600  0.11568200  1
  F  F15  1  0.67654200  0.55835200  0.13911100  1
  F  F16  1  0.58259900  0.45943700  0.61954300  1
  F  F17  1  0.57217600  0.94549500  0.12142000  1
  F  F18  1  0.70225700  0.17566500  0.86804500  1
  F  F19  1  0.45562700  0.88356300  0.61526000  1
  F  F20  1  0.83768500  0.25835500  0.36346600  1
  F  F21  1  0.59054200  0.58586500  0.87320800  1
  F  F22  1  0.70645300  0.68698700  0.38481600  1
  F  F23  1  0.88153800  0.60012200  0.60063100  1
  F  F24  1  0.84334000  0.75051000  0.88019900  1
  F  F25  1  0.98868400  0.83863900  0.37816300  1
loop_
_geom_bond_atom_site_label_1
_geom_bond_atom_site_label_2
_geom_bond_distance
_geom_bond_site_symmetry_2
F0 V1 2.137556 1_555
F0 V8 2.167028 1_455
F0 V11 2.198863 1_445
F1 V2 2.043531 1_555
F1 V0 2.055072 1_555
F2 V1 2.116073 1_555
F2 V8 2.129999 1_455
F2 V3 2.164865 1_555
F3 V4 2.088265 1_555
F3 V3 2.129554 1_555
F3 V1 2.136169 1_555
F4 Li0 1.968684 1_555
F4 V2 2.103474 1_555
F4 V5 2.117569 1_555
F5 V3 2.135789 1_555
F5 V6 2.137616 1_555
F5 V11 2.161996 1_455
F6 V10 2.110774 1_545
F6 V5 2.129823 1_555
F6 V1 2.139660 1_555
F7 Li0 2.084968 1_555
F7 V7 2.195829 1_555
F7 V0 2.246826 1_565
F7 V9 2.342475 1_554
F8 V9 2.092473 1_545
F8 V4 2.095007 1_555
F8 V2 2.163299 1_556
F9 V3 2.097739 1_555
F9 V7 2.100289 1_555
F9 V5 2.137921 1_555
F10 V2 2.130697 1_556
F10 V6 2.131026 1_555
F10 V4 2.139902 1_555
F11 Li0 1.953361 1_556
F11 V6 2.118169 1_555
F11 V11 2.163291 1_455
F12 V7 2.091377 1_555
F12 V1 2.116701 1_565
F12 V0 2.147524 1_565
F13 V4 2.091377 1_555
F13 V10 2.116701 1_545
F13 V11 2.147524 1_545
F14 Li1 1.953361 1_554
F14 V5 2.118169 1_555
F14 V0 2.163291 1_655
F15 V9 2.130697 1_554
F15 V5 2.131026 1_555
F15 V7 2.139902 1_555
F16 V8 2.097739 1_555
F16 V4 2.100289 1_555
F16 V6 2.137921 1_555
F17 V2 2.092473 1_565
F17 V7 2.095007 1_555
F17 V9 2.163299 1_554
F18 Li1 2.084968 1_555
F18 V4 2.195829 1_555
F18 V11 2.246826 1_545
F18 V2 2.342475 1_556
F19 V1 2.110774 1_565
F19 V6 2.129823 1_555
F19 V10 2.139660 1_555
F20 V8 2.135789 1_555
F20 V5 2.137616 1_555
F20 V0 2.161996 1_655
F21 Li1 1.968684 1_555
F21 V9 2.103474 1_555
F21 V6 2.117569 1_555
F22 V7 2.088265 1_555
F22 V8 2.129554 1_555
F22 V10 2.136169 1_555
F23 V10 2.116073 1_555
F23 V3 2.129999 1_655
F23 V8 2.164865 1_555
F24 V9 2.043531 1_555
F24 V11 2.055072 1_555
F25 V10 2.137556 1_555
F25 V3 2.167028 1_655
F25 V0 2.198863 1_665
