# generated using pymatgen
data_Ti3Cu3(TeO8)2
_symmetry_space_group_name_H-M   'P 1'
_cell_length_a   5.97420291
_cell_length_b   5.97420291
_cell_length_c   9.30170470
_cell_angle_alpha   88.70763065
_cell_angle_beta   88.70763065
_cell_angle_gamma   60.36586467
_symmetry_Int_Tables_number   1
_chemical_formula_structural   Ti3Cu3(TeO8)2
_chemical_formula_sum   'Ti3 Cu3 Te2 O16'
_cell_volume   288.46596150
_cell_formula_units_Z   1
loop_
 _symmetry_equiv_pos_site_id
 _symmetry_equiv_pos_as_xyz
  1  'x, y, z'
loop_
 _atom_site_type_symbol
 _atom_site_label
 _atom_site_symmetry_multiplicity
 _atom_site_fract_x
 _atom_site_fract_y
 _atom_site_fract_z
 _atom_site_occupancy
  Ti  Ti0  1  0.16449700  0.66226900  0.21070400  1
  Ti  Ti1  1  0.66226900  0.16449700  0.21070400  1
  Ti  Ti2  1  0.83895200  0.83895200  0.70695800  1
  Cu  Cu0  1  0.16999500  0.16999500  0.20389300  1
  Cu  Cu1  1  0.34123800  0.83281100  0.70954200  1
  Cu  Cu2  1  0.83281100  0.34123800  0.70954200  1
  Te  Te0  1  0.32990800  0.32990800  0.48918500  1
  Te  Te1  1  0.66175400  0.66175400  0.98328100  1
  O  O0  1  0.16972700  0.64774200  0.59981800  1
  O  O1  1  0.47751000  0.47751000  0.34412000  1
  O  O2  1  0.34112600  0.34112600  0.10585900  1
  O  O3  1  0.99792900  0.99792900  0.29533200  1
  O  O4  1  0.99837100  0.99837100  0.80103600  1
  O  O5  1  0.64774200  0.16972700  0.59981800  1
  O  O6  1  0.04526400  0.49320200  0.35055700  1
  O  O7  1  0.49320200  0.04526400  0.35055700  1
  O  O8  1  0.82000400  0.82000400  0.10399600  1
  O  O9  1  0.16767600  0.16767600  0.59553400  1
  O  O10  1  0.52929800  0.95854100  0.84810900  1
  O  O11  1  0.95854100  0.52929800  0.84810900  1
  O  O12  1  0.67070600  0.67070600  0.60920200  1
  O  O13  1  0.34967700  0.81221200  0.09820600  1
  O  O14  1  0.51960300  0.51960300  0.84343600  1
  O  O15  1  0.81221200  0.34967700  0.09820600  1
loop_
_geom_bond_atom_site_label_1
_geom_bond_atom_site_label_2
_geom_bond_distance
_geom_bond_site_symmetry_2
Cu0 O3 1.950107 1_445
Cu0 O2 1.967631 1_555
Cu0 O15 2.113204 1_455
Cu0 O13 2.113204 1_545
Cu0 O7 2.189712 1_555
Cu0 O6 2.189712 1_555
Cu1 O12 1.938056 1_555
Cu1 O4 1.963193 1_455
Cu1 O9 2.025951 1_565
Cu1 O14 2.042258 1_555
Cu1 O10 2.105069 1_555
Cu1 O0 2.128944 1_555
Cu2 O12 1.938056 1_555
Cu2 O4 1.963193 1_545
Cu2 O9 2.025951 1_655
Cu2 O14 2.042258 1_555
Cu2 O11 2.105069 1_555
Cu2 O5 2.128944 1_555
O0 Te0 1.956273 1_555
O0 Ti2 1.983252 1_455
O1 Te0 2.009359 1_555
O1 Ti0 2.063252 1_555
O1 Ti1 2.063252 1_555
O2 Ti1 1.944581 1_555
O2 Ti0 1.944581 1_555
O3 Ti1 1.921880 1_565
O3 Ti0 1.921880 1_655
O4 Ti2 1.884707 1_555
O5 Te0 1.956273 1_555
O5 Ti2 1.983252 1_545
O6 Ti0 1.957111 1_555
O6 Te0 1.976823 1_555
O7 Ti1 1.957111 1_555
O7 Te0 1.976823 1_555
O8 Te1 2.007016 1_554
O8 Ti1 2.059342 1_565
O8 Ti0 2.059342 1_655
O9 Te0 1.923474 1_555
O10 Te1 1.976773 1_555
O10 Ti2 2.069356 1_555
O11 Te1 1.976773 1_555
O11 Ti2 2.069356 1_555
O12 Ti2 1.982164 1_555
O13 Te1 1.929482 1_554
O13 Ti0 2.001719 1_555
O14 Te1 1.986797 1_555
O15 Te1 1.929482 1_554
O15 Ti1 2.001719 1_555
