# generated using pymatgen
data_K5YO4
_symmetry_space_group_name_H-M   'P 1'
_cell_length_a   6.97483600
_cell_length_b   12.12347000
_cell_length_c   21.24204000
_cell_angle_alpha   90.00000000
_cell_angle_beta   90.00000000
_cell_angle_gamma   90.00000000
_symmetry_Int_Tables_number   1
_chemical_formula_structural   K5YO4
_chemical_formula_sum   'K40 Y8 O32'
_cell_volume   1796.21022742
_cell_formula_units_Z   8
loop_
 _symmetry_equiv_pos_site_id
 _symmetry_equiv_pos_as_xyz
  1  'x, y, z'
loop_
 _atom_site_type_symbol
 _atom_site_label
 _atom_site_symmetry_multiplicity
 _atom_site_fract_x
 _atom_site_fract_y
 _atom_site_fract_z
 _atom_site_occupancy
  K  K0  1  0.90036900  0.92881300  0.43562400  1
  K  K1  1  0.59963100  0.92881300  0.93562400  1
  K  K2  1  0.39231200  0.91476900  0.74923200  1
  K  K3  1  0.10768800  0.91476900  0.24923200  1
  K  K4  1  0.09500600  0.83382100  0.00258800  1
  K  K5  1  0.40499400  0.83382100  0.50258800  1
  K  K6  1  0.60801600  0.82456200  0.32616100  1
  K  K7  1  0.89198400  0.82456200  0.82616100  1
  K  K8  1  0.41595200  0.80418800  0.13755700  1
  K  K9  1  0.08404800  0.80418800  0.63755700  1
  K  K10  1  0.91595200  0.69581200  0.13755700  1
  K  K11  1  0.58404800  0.69581200  0.63755700  1
  K  K12  1  0.10801600  0.67543800  0.32616100  1
  K  K13  1  0.39198400  0.67543800  0.82616100  1
  K  K14  1  0.59500600  0.66617900  0.00258800  1
  K  K15  1  0.90499400  0.66617900  0.50258800  1
  K  K16  1  0.60768800  0.58523100  0.24923200  1
  K  K17  1  0.89231200  0.58523100  0.74923200  1
  K  K18  1  0.09963100  0.57118700  0.93562400  1
  K  K19  1  0.40036900  0.57118700  0.43562400  1
  K  K20  1  0.90036900  0.42881300  0.06437600  1
  K  K21  1  0.59963100  0.42881300  0.56437600  1
  K  K22  1  0.10768800  0.41476900  0.25076800  1
  K  K23  1  0.39231200  0.41476900  0.75076800  1
  K  K24  1  0.40499400  0.33382100  0.99741200  1
  K  K25  1  0.09500600  0.33382100  0.49741200  1
  K  K26  1  0.89198400  0.32456200  0.67383900  1
  K  K27  1  0.60801600  0.32456200  0.17383900  1
  K  K28  1  0.41595200  0.30418800  0.36244300  1
  K  K29  1  0.08404800  0.30418800  0.86244300  1
  K  K30  1  0.91595200  0.19581200  0.36244300  1
  K  K31  1  0.58404800  0.19581200  0.86244300  1
  K  K32  1  0.39198400  0.17543800  0.67383900  1
  K  K33  1  0.10801600  0.17543800  0.17383900  1
  K  K34  1  0.59500600  0.16617900  0.49741200  1
  K  K35  1  0.90499400  0.16617900  0.99741200  1
  K  K36  1  0.60768800  0.08523100  0.25076800  1
  K  K37  1  0.89231200  0.08523100  0.75076800  1
  K  K38  1  0.09963100  0.07118700  0.56437600  1
  K  K39  1  0.40036900  0.07118700  0.06437600  1
  Y  Y0  1  0.82313200  0.96259300  0.12283700  1
  Y  Y1  1  0.67686800  0.96259300  0.62283700  1
  Y  Y2  1  0.32313200  0.53740700  0.12283700  1
  Y  Y3  1  0.17686800  0.53740700  0.62283700  1
  Y  Y4  1  0.67686800  0.46259300  0.87716300  1
  Y  Y5  1  0.82313200  0.46259300  0.37716300  1
  Y  Y6  1  0.32313200  0.03740700  0.37716300  1
  Y  Y7  1  0.17686800  0.03740700  0.87716300  1
  O  O0  1  0.13170800  0.95292000  0.12001300  1
  O  O1  1  0.36829200  0.95292000  0.62001300  1
  O  O2  1  0.76556700  0.88095700  0.70918100  1
  O  O3  1  0.73443300  0.88095700  0.20918100  1
  O  O4  1  0.70141500  0.86601800  0.04703300  1
  O  O5  1  0.79858500  0.86601800  0.54703300  1
  O  O6  1  0.23835600  0.86500200  0.37561800  1
  O  O7  1  0.26164400  0.86500200  0.87561800  1
  O  O8  1  0.76164400  0.63499800  0.87561800  1
  O  O9  1  0.73835600  0.63499800  0.37561800  1
  O  O10  1  0.20141500  0.63398200  0.04703300  1
  O  O11  1  0.29858500  0.63398200  0.54703300  1
  O  O12  1  0.23443300  0.61904300  0.20918100  1
  O  O13  1  0.26556700  0.61904300  0.70918100  1
  O  O14  1  0.63170800  0.54708000  0.12001300  1
  O  O15  1  0.86829200  0.54708000  0.62001300  1
  O  O16  1  0.36829200  0.45292000  0.87998700  1
  O  O17  1  0.13170800  0.45292000  0.37998700  1
  O  O18  1  0.73443300  0.38095700  0.29081900  1
  O  O19  1  0.76556700  0.38095700  0.79081900  1
  O  O20  1  0.79858500  0.36601800  0.95296700  1
  O  O21  1  0.70141500  0.36601800  0.45296700  1
  O  O22  1  0.26164400  0.36500200  0.62438200  1
  O  O23  1  0.23835600  0.36500200  0.12438200  1
  O  O24  1  0.76164400  0.13499800  0.62438200  1
  O  O25  1  0.73835600  0.13499800  0.12438200  1
  O  O26  1  0.20141500  0.13398200  0.45296700  1
  O  O27  1  0.29858500  0.13398200  0.95296700  1
  O  O28  1  0.23443300  0.11904300  0.29081900  1
  O  O29  1  0.26556700  0.11904300  0.79081900  1
  O  O30  1  0.63170800  0.04708000  0.37998700  1
  O  O31  1  0.86829200  0.04708000  0.87998700  1
loop_
_geom_bond_atom_site_label_1
_geom_bond_atom_site_label_2
_geom_bond_distance
_geom_bond_site_symmetry_2
K0 O5 2.585371 1_555
K0 O30 2.638926 1_565
K0 O6 2.789365 1_655
K0 O26 3.275914 1_665
K1 O4 2.585371 1_556
K1 O31 2.638926 1_565
K1 O7 2.789365 1_555
K1 O27 3.275914 1_565
K2 O2 2.769384 1_555
K2 O29 2.773983 1_565
K2 O1 2.788608 1_555
K2 O7 2.898664 1_555
K3 O3 2.769384 1_455
K3 O28 2.773983 1_565
K3 O0 2.788608 1_555
K3 O6 2.898664 1_555
K4 O10 2.704043 1_555
K4 O0 2.893462 1_555
K4 O4 2.929163 1_455
K4 O7 2.961104 1_554
K5 O11 2.704043 1_555
K5 O1 2.893462 1_555
K5 O5 2.929163 1_555
K5 O6 2.961104 1_555
K6 O9 2.685471 1_555
K6 O3 2.723896 1_555
K6 O6 2.826974 1_555
K6 O30 2.934645 1_565
K7 O8 2.685471 1_555
K7 O2 2.723896 1_555
K7 O7 2.826974 1_655
K7 O31 2.934645 1_565
K8 O0 2.705689 1_555
K8 O3 2.848755 1_555
K8 O4 2.867717 1_555
K8 O12 2.992646 1_555
K8 O10 3.192910 1_555
K9 O1 2.705689 1_555
K9 O2 2.848755 1_455
K9 O5 2.867717 1_455
K9 O13 2.992646 1_555
K9 O11 3.192910 1_555
K10 O14 2.705689 1_555
K10 O12 2.848755 1_655
K10 O10 2.867717 1_655
K10 O3 2.992646 1_555
K10 O4 3.192910 1_555
K11 O15 2.705689 1_555
K11 O13 2.848755 1_555
K11 O11 2.867717 1_555
K11 O2 2.992646 1_555
K11 O5 3.192910 1_555
K12 O6 2.685471 1_555
K12 O12 2.723896 1_555
K12 O9 2.826974 1_455
K12 O17 2.934645 1_555
K13 O7 2.685471 1_555
K13 O13 2.723896 1_555
K13 O8 2.826974 1_555
K13 O16 2.934645 1_555
K14 O4 2.704043 1_555
K14 O14 2.893462 1_555
K14 O10 2.929163 1_555
K14 O8 2.961104 1_554
K15 O5 2.704043 1_555
K15 O15 2.893462 1_555
K15 O11 2.929163 1_655
K15 O9 2.961104 1_555
K16 O12 2.769384 1_555
K16 O18 2.773983 1_555
K16 O14 2.788608 1_555
K16 O9 2.898664 1_555
K17 O13 2.769384 1_655
K17 O19 2.773983 1_555
K17 O15 2.788608 1_555
K17 O8 2.898664 1_555
K18 O10 2.585371 1_556
K18 O16 2.638926 1_555
K18 O8 2.789365 1_455
K18 O20 3.275914 1_455
K19 O11 2.585371 1_555
K19 O17 2.638926 1_555
K19 O9 2.789365 1_555
K19 O21 3.275914 1_555
K20 O20 2.585371 1_554
K20 O14 2.638926 1_555
K20 O23 2.789365 1_655
K20 O10 3.275914 1_655
K21 O21 2.585371 1_555
K21 O15 2.638926 1_555
K21 O22 2.789365 1_555
K21 O11 3.275914 1_555
K22 O18 2.769384 1_455
K22 O12 2.773983 1_555
K22 O17 2.788608 1_555
K22 O23 2.898664 1_555
K23 O19 2.769384 1_555
K23 O13 2.773983 1_555
K23 O16 2.788608 1_555
K23 O22 2.898664 1_555
K24 O27 2.704043 1_555
K24 O16 2.893462 1_555
K24 O20 2.929163 1_555
K24 O23 2.961104 1_556
K25 O26 2.704043 1_555
K25 O17 2.893462 1_555
K25 O21 2.929163 1_455
K25 O22 2.961104 1_555
K26 O24 2.685471 1_555
K26 O19 2.723896 1_555
K26 O22 2.826974 1_655
K26 O15 2.934645 1_555
K27 O25 2.685471 1_555
K27 O18 2.723896 1_555
K27 O23 2.826974 1_555
K27 O14 2.934645 1_555
K28 O17 2.705689 1_555
K28 O18 2.848755 1_555
K28 O21 2.867717 1_555
K28 O28 2.992646 1_555
K28 O26 3.192910 1_555
K29 O16 2.705689 1_555
K29 O19 2.848755 1_455
K29 O20 2.867717 1_455
K29 O29 2.992646 1_555
K29 O27 3.192910 1_555
K30 O30 2.705689 1_555
K30 O28 2.848755 1_655
K30 O26 2.867717 1_655
K30 O18 2.992646 1_555
K30 O21 3.192910 1_555
K31 O31 2.705689 1_555
K31 O29 2.848755 1_555
K31 O27 2.867717 1_555
K31 O19 2.992646 1_555
K31 O20 3.192910 1_555
K32 O22 2.685471 1_555
K32 O29 2.723896 1_555
K32 O24 2.826974 1_555
K32 O1 2.934645 1_545
K33 O23 2.685471 1_555
K33 O28 2.723896 1_555
K33 O25 2.826974 1_455
K33 O0 2.934645 1_545
K34 O21 2.704043 1_555
K34 O30 2.893462 1_555
K34 O26 2.929163 1_555
K34 O24 2.961104 1_555
K35 O20 2.704043 1_555
K35 O31 2.893462 1_555
K35 O27 2.929163 1_655
K35 O25 2.961104 1_556
K36 O28 2.769384 1_555
K36 O3 2.773983 1_545
K36 O30 2.788608 1_555
K36 O25 2.898664 1_555
K37 O29 2.769384 1_655
K37 O2 2.773983 1_545
K37 O31 2.788608 1_555
K37 O24 2.898664 1_555
K38 O26 2.585371 1_555
K38 O1 2.638926 1_545
K38 O24 2.789365 1_455
K38 O5 3.275914 1_445
K39 O27 2.585371 1_554
K39 O0 2.638926 1_545
K39 O25 2.789365 1_555
K39 O4 3.275914 1_545
O0 Y0 2.156294 1_455
O1 Y1 2.156294 1_555
O2 Y1 2.174000 1_555
O3 Y0 2.174000 1_555
O4 Y0 2.164348 1_555
O5 Y1 2.164348 1_555
O6 Y6 2.172424 1_565
O7 Y7 2.172424 1_565
O8 Y4 2.172424 1_555
O9 Y5 2.172424 1_555
O10 Y2 2.164348 1_555
O11 Y3 2.164348 1_555
O12 Y2 2.174000 1_555
O13 Y3 2.174000 1_555
O14 Y2 2.156294 1_555
O15 Y3 2.156294 1_655
O16 Y4 2.156294 1_555
O17 Y5 2.156294 1_455
O18 Y5 2.174000 1_555
O19 Y4 2.174000 1_555
O20 Y4 2.164348 1_555
O21 Y5 2.164348 1_555
O22 Y3 2.172424 1_555
O23 Y2 2.172424 1_555
O24 Y1 2.172424 1_545
O25 Y0 2.172424 1_545
O26 Y6 2.164348 1_555
O27 Y7 2.164348 1_555
O28 Y6 2.174000 1_555
O29 Y7 2.174000 1_555
O30 Y6 2.156294 1_555
O31 Y7 2.156294 1_655
