# generated using pymatgen
data_ZnInH14O7F5
_symmetry_space_group_name_H-M   'P 1'
_cell_length_a   6.59136069
_cell_length_b   8.91878860
_cell_length_c   8.94645465
_cell_angle_alpha   103.34377763
_cell_angle_beta   97.92590028
_cell_angle_gamma   96.65369257
_symmetry_Int_Tables_number   1
_chemical_formula_structural   ZnInH14O7F5
_chemical_formula_sum   'Zn2 In2 H28 O14 F10'
_cell_volume   500.86003224
_cell_formula_units_Z   2
loop_
 _symmetry_equiv_pos_site_id
 _symmetry_equiv_pos_as_xyz
  1  'x, y, z'
loop_
 _atom_site_type_symbol
 _atom_site_label
 _atom_site_symmetry_multiplicity
 _atom_site_fract_x
 _atom_site_fract_y
 _atom_site_fract_z
 _atom_site_occupancy
  Zn  Zn0  1  0.50000000  0.50000000  -0.00000000  1
  Zn  Zn1  1  0.50000000  0.00000000  0.50000000  1
  In  In0  1  0.00000000  0.50000000  0.50000000  1
  In  In1  1  0.00000000  0.00000000  -0.00000000  1
  H  H0  1  0.55848696  0.53776239  0.31483927  1
  H  H1  1  0.44151304  0.46223761  0.68516073  1
  H  H2  1  0.31914553  0.52206732  0.25324224  1
  H  H3  1  0.68085447  0.47793268  0.74675776  1
  H  H4  1  0.24391940  0.06289969  0.69653219  1
  H  H5  1  0.75608060  0.93710031  0.30346781  1
  H  H6  1  0.45056687  0.17528014  0.77827882  1
  H  H7  1  0.54943313  0.82471986  0.22172118  1
  H  H8  1  0.47326286  0.20100324  0.01928450  1
  H  H9  1  0.52673714  0.79899676  0.98071550  1
  H  H10  1  0.70102087  0.25148117  0.98752843  1
  H  H11  1  0.29897913  0.74851883  0.01247157  1
  H  H12  1  0.90117142  0.55660414  0.15994169  1
  H  H13  1  0.09882858  0.44339586  0.84005831  1
  H  H14  1  0.10354027  0.35345679  0.97051387  1
  H  H15  1  0.89645973  0.64654321  0.02948613  1
  H  H16  1  0.88639729  0.06059910  0.66349966  1
  H  H17  1  0.11360271  0.93940090  0.33650034  1
  H  H18  1  0.16199639  0.77418906  0.35833633  1
  H  H19  1  0.83800361  0.22581094  0.64166367  1
  H  H20  1  0.61021143  0.85467058  0.73004539  1
  H  H21  1  0.38978857  0.14532942  0.26995461  1
  H  H22  1  0.62341838  0.73865080  0.56736260  1
  H  H23  1  0.37658162  0.26134920  0.43263740  1
  H  H24  1  0.11150899  0.79636865  0.69811652  1
  H  H25  1  0.88849101  0.20363135  0.30188348  1
  H  H26  1  0.31628786  0.74014560  0.64161385  1
  H  H27  1  0.68371214  0.25985440  0.35838615  1
  O  O0  1  0.36854101  0.11884170  0.67520917  1
  O  O1  1  0.63145899  0.88115830  0.32479083  1
  O  O2  1  0.20230827  0.88722743  0.39831810  1
  O  O3  1  0.79769173  0.11277257  0.60168190  1
  O  O4  1  0.54393128  0.81751705  0.61878682  1
  O  O5  1  0.45606872  0.18248295  0.38121318  1
  O  O6  1  0.55378051  0.26385826  0.96385994  1
  O  O7  1  0.44621949  0.73614174  0.03614006  1
  O  O8  1  0.44953894  0.49356171  0.22342400  1
  O  O9  1  0.55046106  0.50643829  0.77657600  1
  O  O10  1  0.18782350  0.42889156  0.93067012  1
  O  O11  1  0.81217650  0.57110844  0.06932988  1
  O  O12  1  0.17738236  0.70328611  0.66427805  1
  O  O13  1  0.82261764  0.29671389  0.33572195  1
  F  F0  1  0.73513160  0.60264307  0.47842479  1
  F  F1  1  0.26486840  0.39735693  0.52157521  1
  F  F2  1  0.09920865  0.57974448  0.31426618  1
  F  F3  1  0.90079135  0.42025552  0.68573382  1
  F  F4  1  0.93917139  0.22328216  0.00791943  1
  F  F5  1  0.06082861  0.77671784  0.99208057  1
  F  F6  1  0.31191192  0.08777274  0.08565134  1
  F  F7  1  0.68808808  0.91222726  0.91434866  1
  F  F8  1  0.04324269  0.96754107  0.76479577  1
  F  F9  1  0.95675731  0.03245893  0.23520423  1
loop_
_geom_bond_atom_site_label_1
_geom_bond_atom_site_label_2
_geom_bond_distance
_geom_bond_site_symmetry_2
In0 O13 2.149218 1_455
In0 O12 2.149218 1_555
H0 O8 0.981617 1_555
H1 O9 0.981617 1_555
H2 O8 0.978290 1_555
H3 O9 0.978290 1_555
H4 O0 0.975829 1_555
H5 O1 0.975829 1_555
H6 O0 0.990538 1_555
H7 O1 0.990538 1_555
H8 O6 0.986780 1_554
H9 O7 0.986780 1_556
H10 O6 0.988869 1_555
H11 O7 0.988869 1_555
H12 O11 0.976134 1_555
H13 O10 0.976134 1_555
H14 O10 0.983377 1_555
H15 O11 0.983377 1_555
H16 O3 0.978219 1_555
H17 O2 0.978219 1_555
H18 O2 0.979898 1_555
H19 O3 0.979898 1_555
H20 O4 0.992827 1_555
H21 O5 0.992827 1_555
H22 O4 0.991677 1_555
H23 O5 0.991677 1_555
H24 O12 0.986485 1_555
H25 O13 0.986485 1_555
H26 O12 0.999841 1_555
H26 O4 1.636747 1_555
H27 O13 0.999841 1_555
H27 O5 1.636747 1_555
O0 Zn1 2.037602 1_555
O1 Zn1 2.037602 1_565
O2 Zn1 2.077838 1_565
O3 Zn1 2.077838 1_555
O4 Zn1 2.164434 1_565
O5 Zn1 2.164434 1_555
O6 Zn0 2.134514 1_556
O7 Zn0 2.134514 1_555
O8 Zn0 2.083565 1_555
O9 Zn0 2.083565 1_556
O10 Zn0 2.045719 1_556
O11 Zn0 2.045719 1_555
F0 H22 1.603055 1_555
F0 H0 1.677913 1_555
F0 In0 2.069366 1_655
F1 H23 1.603055 1_555
F1 H1 1.677913 1_555
F1 In0 2.069366 1_555
F2 In0 2.105222 1_555
F3 In0 2.105222 1_655
F4 H10 1.610681 1_554
F4 H14 1.619116 1_654
F4 In1 2.063785 1_655
F5 H11 1.610681 1_556
F5 H15 1.619116 1_456
F5 In1 2.063785 1_566
F6 H21 1.600178 1_555
F6 H8 1.644841 1_555
F6 In1 2.083866 1_555
F7 H20 1.600178 1_555
F7 H9 1.644841 1_555
F7 In1 2.083866 1_666
F8 In1 2.120433 1_566
F9 In1 2.120433 1_655
