# generated using pymatgen
data_TiFe5(PO4)6
_symmetry_space_group_name_H-M   'P 1'
_cell_length_a   8.47175355
_cell_length_b   8.65061705
_cell_length_c   8.65061684
_cell_angle_alpha   59.99999890
_cell_angle_beta   59.29909625
_cell_angle_gamma   59.29909962
_symmetry_Int_Tables_number   1
_chemical_formula_structural   TiFe5(PO4)6
_chemical_formula_sum   'Ti1 Fe5 P6 O24'
_cell_volume   443.47519069
_cell_formula_units_Z   1
loop_
 _symmetry_equiv_pos_site_id
 _symmetry_equiv_pos_as_xyz
  1  'x, y, z'
loop_
 _atom_site_type_symbol
 _atom_site_label
 _atom_site_symmetry_multiplicity
 _atom_site_fract_x
 _atom_site_fract_y
 _atom_site_fract_z
 _atom_site_occupancy
  Ti  Ti0  1  0.57104600  0.14298400  0.14298400  1
  Fe  Fe0  1  0.00393800  0.99868700  0.99868700  1
  Fe  Fe1  1  0.06017600  0.64660800  0.64660800  1
  Fe  Fe2  1  0.50255300  0.49914900  0.49914900  1
  Fe  Fe3  1  0.43262900  0.85579000  0.85579000  1
  Fe  Fe4  1  0.93896300  0.35367900  0.35367900  1
  P  P0  1  0.25116200  0.25145500  0.54452600  1
  P  P1  1  0.25116200  0.95285700  0.25145500  1
  P  P2  1  0.25116200  0.54452600  0.95285700  1
  P  P3  1  0.74648700  0.45620300  0.04749900  1
  P  P4  1  0.74648700  0.04749900  0.74981200  1
  P  P5  1  0.74648700  0.74981200  0.45620300  1
  O  O0  1  0.06783400  0.10605900  0.32516600  1
  O  O1  1  0.06783400  0.50094100  0.10605900  1
  O  O2  1  0.06783400  0.32516600  0.50094100  1
  O  O3  1  0.22684800  0.09494600  0.74107500  1
  O  O4  1  0.43234300  0.18045600  0.38198000  1
  O  O5  1  0.28788700  0.40860300  0.55102300  1
  O  O6  1  0.22684800  0.93713100  0.09494600  1
  O  O7  1  0.28788700  0.75248600  0.40860300  1
  O  O8  1  0.56335200  0.61112000  0.00562100  1
  O  O9  1  0.28788700  0.55102300  0.75248600  1
  O  O10  1  0.77051300  0.25646000  0.06573700  1
  O  O11  1  0.56335200  0.00562100  0.81990600  1
  O  O12  1  0.43234300  0.00522100  0.18045600  1
  O  O13  1  0.22684800  0.74107500  0.93713100  1
  O  O14  1  0.71810700  0.44141000  0.24896700  1
  O  O15  1  0.43234300  0.38198000  0.00522100  1
  O  O16  1  0.71810700  0.24896700  0.59151600  1
  O  O17  1  0.77051300  0.06573700  0.90729000  1
  O  O18  1  0.71810700  0.59151600  0.44141000  1
  O  O19  1  0.56335200  0.81990600  0.61112000  1
  O  O20  1  0.77051300  0.90729000  0.25646000  1
  O  O21  1  0.93236500  0.68117600  0.49470000  1
  O  O22  1  0.93236500  0.49470000  0.89175900  1
  O  O23  1  0.93236500  0.89175900  0.68117600  1
loop_
_geom_bond_atom_site_label_1
_geom_bond_atom_site_label_2
_geom_bond_distance
_geom_bond_site_symmetry_2
Fe0 O13 2.163005 1_555
Fe0 O3 2.163007 1_565
Fe0 O6 2.163011 1_556
Fe0 O17 2.199733 1_465
Fe0 O20 2.199736 1_456
Fe0 O10 2.199739 1_466
Fe1 O22 1.928220 1_455
Fe1 O21 1.928220 1_455
Fe1 O23 1.928220 1_455
Fe1 O9 2.159197 1_555
Fe1 O7 2.159200 1_555
Fe1 O5 2.159203 1_555
Fe2 O14 2.093351 1_555
Fe2 O18 2.093351 1_555
Fe2 O16 2.093351 1_555
Fe2 O9 2.095688 1_555
Fe2 O7 2.095691 1_555
Fe2 O5 2.095694 1_555
Fe3 O19 1.927460 1_555
Fe3 O11 1.927460 1_565
Fe3 O8 1.927460 1_556
Fe3 O13 2.082004 1_555
Fe3 O3 2.082007 1_565
Fe3 O6 2.082011 1_556
Fe4 O1 1.925254 1_655
Fe4 O2 1.925254 1_655
Fe4 O0 1.925254 1_655
Fe4 O16 2.119072 1_555
Fe4 O14 2.119072 1_555
Fe4 O18 2.119072 1_555
O0 P1 1.518942 1_545
O1 P2 1.518941 1_554
O2 P0 1.518942 1_555
O3 P0 1.546462 1_555
O4 P0 1.551619 1_555
O4 Ti0 1.887007 1_555
O5 P0 1.572940 1_555
O6 P1 1.546462 1_555
O7 P1 1.572945 1_555
O8 P3 1.516448 1_555
O9 P2 1.572949 1_555
O10 P3 1.566210 1_555
O10 Ti0 2.037280 1_555
O11 P4 1.516452 1_555
O12 P1 1.551619 1_545
O12 Ti0 1.886993 1_555
O13 P2 1.546462 1_555
O14 P3 1.578649 1_555
O15 P2 1.551619 1_554
O15 Ti0 1.887001 1_555
O16 P4 1.578652 1_555
O17 P4 1.566201 1_555
O17 Ti0 2.037267 1_556
O18 P5 1.578657 1_555
O19 P5 1.516443 1_555
O20 P5 1.566207 1_555
O20 Ti0 2.037274 1_565
O21 P5 1.525187 1_555
O22 P3 1.525190 1_556
O23 P4 1.525192 1_565
