# generated using pymatgen
data_LiMnP2HO7
_symmetry_space_group_name_H-M   'P 1'
_cell_length_a   12.91549900
_cell_length_b   5.23237900
_cell_length_c   8.98202707
_cell_angle_alpha   64.50829208
_cell_angle_beta   90.00000000
_cell_angle_gamma   90.00000000
_symmetry_Int_Tables_number   1
_chemical_formula_structural   LiMnP2HO7
_chemical_formula_sum   'Li4 Mn4 P8 H4 O28'
_cell_volume   547.90210118
_cell_formula_units_Z   4
loop_
 _symmetry_equiv_pos_site_id
 _symmetry_equiv_pos_as_xyz
  1  'x, y, z'
loop_
 _atom_site_type_symbol
 _atom_site_label
 _atom_site_symmetry_multiplicity
 _atom_site_fract_x
 _atom_site_fract_y
 _atom_site_fract_z
 _atom_site_occupancy
  Li  Li0  1  0.51452100  0.68702500  0.12304500  1
  Li  Li1  1  0.01452100  0.31297500  0.37695500  1
  Li  Li2  1  0.98547900  0.68702500  0.62304500  1
  Li  Li3  1  0.48547900  0.31297500  0.87695500  1
  Mn  Mn0  1  0.87410300  0.37886100  0.01371700  1
  Mn  Mn1  1  0.37410300  0.62113900  0.48628300  1
  Mn  Mn2  1  0.62589700  0.37886100  0.51371700  1
  Mn  Mn3  1  0.12589700  0.62113900  0.98628300  1
  P  P0  1  0.54427000  0.09292000  0.24931500  1
  P  P1  1  0.04427000  0.90708000  0.25068500  1
  P  P2  1  0.83185800  0.69688000  0.27223200  1
  P  P3  1  0.33185800  0.30312000  0.22776800  1
  P  P4  1  0.66814200  0.69688000  0.77223200  1
  P  P5  1  0.16814200  0.30312000  0.72776800  1
  P  P6  1  0.95573000  0.09292000  0.74931500  1
  P  P7  1  0.45573000  0.90708000  0.75068500  1
  H  H0  1  0.68100100  0.01297200  0.11197900  1
  H  H1  1  0.18100100  0.98702800  0.38802100  1
  H  H2  1  0.81899900  0.01297200  0.61197900  1
  H  H3  1  0.31899900  0.98702800  0.88802100  1
  O  O0  1  0.02621000  0.18676800  0.10052000  1
  O  O1  1  0.59894700  0.03309200  0.10813400  1
  O  O2  1  0.79502000  0.96721900  0.12374700  1
  O  O3  1  0.43530000  0.20126800  0.15063100  1
  O  O4  1  0.25759200  0.40029500  0.08539800  1
  O  O5  1  0.09223000  0.66427000  0.22641200  1
  O  O6  1  0.87795600  0.46662300  0.23072600  1
  O  O7  1  0.37795600  0.53337700  0.26927400  1
  O  O8  1  0.93530000  0.79873200  0.34936900  1
  O  O9  1  0.29502000  0.03278100  0.37625300  1
  O  O10  1  0.59223000  0.33573000  0.27358800  1
  O  O11  1  0.09894700  0.96690800  0.39186600  1
  O  O12  1  0.52621000  0.81323200  0.39948000  1
  O  O13  1  0.75759200  0.59970500  0.41460200  1
  O  O14  1  0.24240800  0.40029500  0.58539800  1
  O  O15  1  0.47379000  0.18676800  0.60052000  1
  O  O16  1  0.90105300  0.03309200  0.60813400  1
  O  O17  1  0.40777000  0.66427000  0.72641200  1
  O  O18  1  0.70498000  0.96721900  0.62374700  1
  O  O19  1  0.06470000  0.20126800  0.65063100  1
  O  O20  1  0.62204400  0.46662300  0.73072600  1
  O  O21  1  0.12204400  0.53337700  0.76927400  1
  O  O22  1  0.90777000  0.33573000  0.77358800  1
  O  O23  1  0.74240800  0.59970500  0.91460200  1
  O  O24  1  0.56470000  0.79873200  0.84936900  1
  O  O25  1  0.20498000  0.03278100  0.87625300  1
  O  O26  1  0.40105300  0.96690800  0.89186600  1
  O  O27  1  0.97379000  0.81323200  0.89948000  1
loop_
_geom_bond_atom_site_label_1
_geom_bond_atom_site_label_2
_geom_bond_distance
_geom_bond_site_symmetry_2
Li0 O10 2.018655 1_555
Li0 O1 2.068091 1_565
Li0 O7 2.138584 1_555
Li0 O24 2.359555 1_554
Li0 O26 2.446734 1_554
Li1 O5 2.018655 1_555
Li1 O11 2.068091 1_545
Li1 O6 2.138584 1_455
Li1 O19 2.359555 1_555
Li1 O16 2.446734 1_455
Li2 O22 2.018655 1_555
Li2 O16 2.068091 1_565
Li2 O21 2.138584 1_655
Li2 O8 2.359555 1_555
Li2 O11 2.446734 1_655
Li3 O17 2.018655 1_555
Li3 O26 2.068091 1_545
Li3 O20 2.138584 1_555
Li3 O3 2.359555 1_556
Li3 O1 2.446734 1_556
Mn0 O23 2.033574 1_554
Mn0 O6 2.187028 1_555
Mn0 O0 2.191573 1_655
Mn0 O2 2.197011 1_545
Mn0 O22 2.304553 1_554
Mn0 O27 2.422551 1_554
Mn1 O14 2.033574 1_555
Mn1 O7 2.187028 1_555
Mn1 O12 2.191573 1_555
Mn1 O9 2.197011 1_565
Mn1 O17 2.304553 1_555
Mn1 O15 2.422551 1_555
Mn2 O13 2.033574 1_555
Mn2 O20 2.187028 1_555
Mn2 O15 2.191573 1_555
Mn2 O18 2.197011 1_545
Mn2 O10 2.304553 1_555
Mn2 O12 2.422551 1_555
Mn3 O4 2.033574 1_556
Mn3 O21 2.187028 1_555
Mn3 O27 2.191573 1_455
Mn3 O25 2.197011 1_565
Mn3 O5 2.304553 1_556
Mn3 O0 2.422551 1_556
H0 O1 1.064075 1_555
H0 O2 1.488385 1_545
H1 O11 1.064075 1_555
H1 O9 1.488385 1_565
H2 O16 1.064075 1_555
H2 O18 1.488385 1_545
H3 O26 1.064075 1_555
H3 O25 1.488385 1_565
O0 P1 1.521923 1_545
O1 P0 1.595756 1_555
O2 P2 1.543410 1_555
O3 P0 1.629513 1_555
O3 P3 1.693158 1_555
O4 P3 1.501382 1_555
O5 P1 1.511208 1_555
O6 P2 1.526958 1_555
O7 P3 1.526958 1_555
O8 P1 1.629513 1_655
O8 P2 1.693158 1_555
O9 P3 1.543410 1_555
O10 P0 1.511208 1_555
O11 P1 1.595756 1_555
O12 P0 1.521923 1_565
O13 P2 1.501382 1_555
O14 P5 1.501382 1_555
O15 P7 1.521923 1_545
O16 P6 1.595756 1_555
O17 P7 1.511208 1_555
O18 P4 1.543410 1_555
O19 P6 1.629513 1_455
O19 P5 1.693158 1_555
O20 P4 1.526958 1_555
O21 P5 1.526958 1_555
O22 P6 1.511208 1_555
O23 P4 1.501382 1_555
O24 P7 1.629513 1_555
O24 P4 1.693158 1_555
O25 P5 1.543410 1_555
O26 P7 1.595756 1_555
O27 P6 1.521923 1_565
