# generated using pymatgen
data_CdAs
_symmetry_space_group_name_H-M   'P 1'
_cell_length_a   6.03383359
_cell_length_b   7.87324139
_cell_length_c   8.09276315
_cell_angle_alpha   90.00000000
_cell_angle_beta   90.00000000
_cell_angle_gamma   90.00000000
_symmetry_Int_Tables_number   1
_chemical_formula_structural   CdAs
_chemical_formula_sum   'Cd8 As8'
_cell_volume   384.45341717
_cell_formula_units_Z   8
loop_
 _symmetry_equiv_pos_site_id
 _symmetry_equiv_pos_as_xyz
  1  'x, y, z'
loop_
 _atom_site_type_symbol
 _atom_site_label
 _atom_site_symmetry_multiplicity
 _atom_site_fract_x
 _atom_site_fract_y
 _atom_site_fract_z
 _atom_site_occupancy
  Cd  Cd0  1  0.04660686  0.63003710  0.86199275  1
  Cd  Cd1  1  0.54660686  0.86996290  0.13800725  1
  Cd  Cd2  1  0.95339314  0.13003710  0.63800725  1
  Cd  Cd3  1  0.45339314  0.36996290  0.36199275  1
  Cd  Cd4  1  0.95339314  0.36996290  0.13800725  1
  Cd  Cd5  1  0.45339314  0.13003710  0.86199275  1
  Cd  Cd6  1  0.04660686  0.86996290  0.36199275  1
  Cd  Cd7  1  0.54660686  0.63003710  0.63800725  1
  As  As0  1  0.63248535  0.06515367  0.40461464  1
  As  As1  1  0.13248535  0.43484633  0.59538536  1
  As  As2  1  0.36751465  0.56515367  0.09538536  1
  As  As3  1  0.86751465  0.93484633  0.90461464  1
  As  As4  1  0.36751465  0.93484633  0.59538536  1
  As  As5  1  0.86751465  0.56515367  0.40461464  1
  As  As6  1  0.63248535  0.43484633  0.90461464  1
  As  As7  1  0.13248535  0.06515367  0.09538536  1
loop_
_geom_bond_atom_site_label_1
_geom_bond_atom_site_label_2
_geom_bond_distance
_geom_bond_site_symmetry_2
As0 As4 2.447896 1_545
As0 Cd3 2.654414 1_555
As0 Cd1 2.699150 1_545
As0 Cd2 2.752774 1_555
As0 Cd6 2.953707 1_645
As1 As5 2.447896 1_455
As1 Cd2 2.654414 1_455
As1 Cd0 2.699150 1_555
As1 Cd3 2.752774 1_555
As1 Cd7 2.953707 1_555
As2 As6 2.447896 1_554
As2 Cd1 2.654414 1_555
As2 Cd3 2.699150 1_555
As2 Cd0 2.752774 1_554
As2 Cd4 2.953707 1_455
As3 As7 2.447896 1_666
As3 Cd0 2.654414 1_655
As3 Cd2 2.699150 1_565
As3 Cd1 2.752774 1_556
As3 Cd5 2.953707 1_565
As4 Cd7 2.654414 1_555
As4 Cd5 2.699150 1_565
As4 Cd6 2.752774 1_555
As4 Cd2 2.953707 1_465
As5 Cd6 2.654414 1_655
As5 Cd4 2.699150 1_555
As5 Cd7 2.752774 1_555
As5 Cd3 2.953707 1_555
As6 Cd5 2.654414 1_555
As6 Cd7 2.699150 1_555
As6 Cd4 2.752774 1_556
As6 Cd0 2.953707 1_655
As7 Cd4 2.654414 1_455
As7 Cd6 2.699150 1_545
As7 Cd5 2.752774 1_554
As7 Cd1 2.953707 1_545
