# generated using pymatgen
data_LiSbP2O7
_symmetry_space_group_name_H-M   'P 1'
_cell_length_a   8.30004200
_cell_length_b   8.38308800
_cell_length_c   17.22302200
_cell_angle_alpha   90.00000000
_cell_angle_beta   90.00000000
_cell_angle_gamma   90.00000000
_symmetry_Int_Tables_number   1
_chemical_formula_structural   LiSbP2O7
_chemical_formula_sum   'Li8 Sb8 P16 O56'
_cell_volume   1198.37756918
_cell_formula_units_Z   8
loop_
 _symmetry_equiv_pos_site_id
 _symmetry_equiv_pos_as_xyz
  1  'x, y, z'
loop_
 _atom_site_type_symbol
 _atom_site_label
 _atom_site_symmetry_multiplicity
 _atom_site_fract_x
 _atom_site_fract_y
 _atom_site_fract_z
 _atom_site_occupancy
  Li  Li0  1  0.18283300  0.62970400  0.25613500  1
  Li  Li1  1  0.19995500  0.07446500  0.24688700  1
  Li  Li2  1  0.30004500  0.57446500  0.74688700  1
  Li  Li3  1  0.31716700  0.12970400  0.75613500  1
  Li  Li4  1  0.68283300  0.62970400  0.24386500  1
  Li  Li5  1  0.69995500  0.07446500  0.25311300  1
  Li  Li6  1  0.80004500  0.57446500  0.75311300  1
  Li  Li7  1  0.81716700  0.12970400  0.74386500  1
  Sb  Sb0  1  0.01276000  0.76671200  0.61197700  1
  Sb  Sb1  1  0.01420800  0.26531000  0.88238300  1
  Sb  Sb2  1  0.48579200  0.76531000  0.38238300  1
  Sb  Sb3  1  0.48724000  0.26671200  0.11197700  1
  Sb  Sb4  1  0.51276000  0.76671200  0.88802300  1
  Sb  Sb5  1  0.51420800  0.26531000  0.61761700  1
  Sb  Sb6  1  0.98579200  0.76531000  0.11761700  1
  Sb  Sb7  1  0.98724000  0.26671200  0.38802300  1
  P  P0  1  0.09297300  0.66471900  0.42432900  1
  P  P1  1  0.08381000  0.37133300  0.18130200  1
  P  P2  1  0.09215200  0.35980100  0.69171800  1
  P  P3  1  0.12117700  0.65812300  0.91916400  1
  P  P4  1  0.37882300  0.15812300  0.41916400  1
  P  P5  1  0.40784800  0.85980100  0.19171800  1
  P  P6  1  0.41619000  0.87133300  0.68130200  1
  P  P7  1  0.40702700  0.16471900  0.92432900  1
  P  P8  1  0.59297300  0.66471900  0.07567100  1
  P  P9  1  0.58381000  0.37133300  0.31869800  1
  P  P10  1  0.59215200  0.35980100  0.80828200  1
  P  P11  1  0.62117700  0.65812300  0.58083600  1
  P  P12  1  0.87882300  0.15812300  0.08083600  1
  P  P13  1  0.90784800  0.85980100  0.30828200  1
  P  P14  1  0.91619000  0.87133300  0.81869800  1
  P  P15  1  0.90702700  0.16471900  0.57567100  1
  O  O0  1  0.00349600  0.51668400  0.70079200  1
  O  O1  1  0.99807300  0.64070200  0.98343300  1
  O  O2  1  0.98357700  0.99994100  0.57116000  1
  O  O3  1  0.07679600  0.81115600  0.86225800  1
  O  O4  1  0.04430500  0.27958900  0.61051800  1
  O  O5  1  0.04744600  0.23519500  0.75593800  1
  O  O6  1  0.04920900  0.39488000  0.26811100  1
  O  O7  1  0.13770600  0.73425200  0.50245900  1
  O  O8  1  0.12447200  0.53919800  0.14775900  1
  O  O9  1  0.13306900  0.51242600  0.86343800  1
  O  O10  1  0.21000300  0.20749200  0.44797700  1
  O  O11  1  0.22493400  0.87645700  0.18825900  1
  O  O12  1  0.23844700  0.67006800  0.36711000  1
  O  O13  1  0.28381300  0.74757700  0.66832500  1
  O  O14  1  0.21618700  0.24757700  0.16832500  1
  O  O15  1  0.26155300  0.17006800  0.86711000  1
  O  O16  1  0.27506600  0.37645700  0.68825900  1
  O  O17  1  0.28999700  0.70749200  0.94797700  1
  O  O18  1  0.36693100  0.01242600  0.36343800  1
  O  O19  1  0.37552800  0.03919800  0.64775900  1
  O  O20  1  0.36229400  0.23425200  0.00245900  1
  O  O21  1  0.45079100  0.89488000  0.76811100  1
  O  O22  1  0.45255400  0.73519500  0.25593800  1
  O  O23  1  0.45569500  0.77958900  0.11051800  1
  O  O24  1  0.42320400  0.31115600  0.36225800  1
  O  O25  1  0.51642300  0.49994100  0.07116000  1
  O  O26  1  0.50192700  0.14070200  0.48343300  1
  O  O27  1  0.49650400  0.01668400  0.20079200  1
  O  O28  1  0.50349600  0.51668400  0.79920800  1
  O  O29  1  0.49807300  0.64070200  0.51656700  1
  O  O30  1  0.48357700  0.99994100  0.92884000  1
  O  O31  1  0.57679600  0.81115600  0.63774200  1
  O  O32  1  0.54430500  0.27958900  0.88948200  1
  O  O33  1  0.54744600  0.23519500  0.74406200  1
  O  O34  1  0.54920900  0.39488000  0.23188900  1
  O  O35  1  0.63770600  0.73425200  0.99754100  1
  O  O36  1  0.62447200  0.53919800  0.35224100  1
  O  O37  1  0.63306900  0.51242600  0.63656200  1
  O  O38  1  0.71000300  0.20749200  0.05202300  1
  O  O39  1  0.72493400  0.87645700  0.31174100  1
  O  O40  1  0.73844700  0.67006800  0.13289000  1
  O  O41  1  0.78381300  0.74757700  0.83167500  1
  O  O42  1  0.71618700  0.24757700  0.33167500  1
  O  O43  1  0.76155300  0.17006800  0.63289000  1
  O  O44  1  0.77506600  0.37645700  0.81174100  1
  O  O45  1  0.78999700  0.70749200  0.55202300  1
  O  O46  1  0.86693100  0.01242600  0.13656200  1
  O  O47  1  0.87552800  0.03919800  0.85224100  1
  O  O48  1  0.86229400  0.23425200  0.49754100  1
  O  O49  1  0.95079100  0.89488000  0.73188900  1
  O  O50  1  0.95255400  0.73519500  0.24406200  1
  O  O51  1  0.95569500  0.77958900  0.38948200  1
  O  O52  1  0.92320400  0.31115600  0.13774200  1
  O  O53  1  0.01642300  0.49994100  0.42884000  1
  O  O54  1  0.00192700  0.14070200  0.01656700  1
  O  O55  1  0.99650400  0.01668400  0.29920800  1
loop_
_geom_bond_atom_site_label_1
_geom_bond_atom_site_label_2
_geom_bond_distance
_geom_bond_site_symmetry_2
Li0 O12 1.995178 1_555
Li0 O8 2.072282 1_555
Li0 O50 2.116237 1_455
Li0 O6 2.268877 1_555
Li0 O11 2.401593 1_555
Li0 O22 2.407037 1_555
Li1 O11 1.953948 1_545
Li1 O55 1.974386 1_455
Li1 O14 1.988714 1_555
Li1 O18 2.494137 1_555
Li2 O16 1.953948 1_555
Li2 O28 1.974386 1_555
Li2 O13 1.988714 1_555
Li2 O9 2.494137 1_555
Li3 O15 1.995178 1_555
Li3 O19 2.072282 1_555
Li3 O33 2.116237 1_555
Li3 O21 2.268877 1_545
Li3 O16 2.401593 1_555
Li3 O5 2.407037 1_555
Li4 O40 1.995178 1_555
Li4 O36 2.072282 1_555
Li4 O22 2.116237 1_555
Li4 O34 2.268877 1_555
Li4 O39 2.401593 1_555
Li4 O50 2.407037 1_555
Li5 O39 1.953948 1_545
Li5 O27 1.974386 1_555
Li5 O42 1.988714 1_555
Li5 O46 2.494137 1_555
Li6 O44 1.953948 1_555
Li6 O0 1.974386 1_655
Li6 O41 1.988714 1_555
Li6 O37 2.494137 1_555
Li7 O43 1.995178 1_555
Li7 O47 2.072282 1_555
Li7 O5 2.116237 1_655
Li7 O49 2.268877 1_545
Li7 O44 2.401593 1_555
Li7 O33 2.407037 1_555
O0 P2 1.515108 1_555
O0 Sb0 2.595963 1_555
O1 P3 1.513466 1_655
O1 Sb6 2.538218 1_556
O2 P15 1.522450 1_565
O2 Sb0 2.091792 1_655
O3 P14 1.610692 1_455
O3 P3 1.655923 1_555
O4 P2 1.601779 1_555
O4 P15 1.608033 1_455
O5 P2 1.565955 1_555
O5 Sb1 2.209639 1_555
O6 P1 1.535190 1_555
O6 Sb7 2.384161 1_455
O7 P0 1.512733 1_555
O7 Sb0 2.169655 1_555
O8 P1 1.558186 1_555
O8 Sb6 2.277587 1_455
O9 P3 1.556501 1_555
O9 Sb1 2.317597 1_555
O10 P4 1.543030 1_555
O10 Sb7 2.175152 1_455
O11 P5 1.525765 1_555
O11 Sb6 2.507635 1_455
O12 P0 1.559199 1_555
O12 Sb2 2.218417 1_555
O13 P6 1.527576 1_555
O13 Sb0 2.455392 1_555
O14 P1 1.527576 1_555
O14 Sb3 2.455392 1_555
O15 P7 1.559199 1_555
O15 Sb1 2.218417 1_555
O16 P2 1.525765 1_555
O16 Sb5 2.507635 1_555
O17 P3 1.543030 1_555
O17 Sb4 2.175152 1_555
O18 P4 1.556501 1_555
O18 Sb2 2.317597 1_545
O19 P6 1.558186 1_545
O19 Sb5 2.277587 1_555
O20 P7 1.512733 1_554
O20 Sb3 2.169655 1_555
O21 P6 1.535190 1_555
O21 Sb4 2.384161 1_555
O22 P5 1.565955 1_555
O22 Sb2 2.209639 1_555
O23 P5 1.601779 1_555
O23 P8 1.608033 1_555
O24 P9 1.610692 1_555
O24 P4 1.655923 1_555
O25 P8 1.522450 1_555
O25 Sb3 2.091792 1_555
O26 P4 1.513466 1_555
O26 Sb5 2.538218 1_555
O27 P5 1.515108 1_545
O27 Sb3 2.595963 1_555
O28 P10 1.515108 1_555
O28 Sb4 2.595963 1_555
O29 P11 1.513466 1_555
O29 Sb2 2.538218 1_555
O30 P7 1.522450 1_565
O30 Sb4 2.091792 1_555
O31 P6 1.610692 1_555
O31 P11 1.655923 1_555
O32 P10 1.601779 1_555
O32 P7 1.608033 1_555
O33 P10 1.565955 1_555
O33 Sb5 2.209639 1_555
O34 P9 1.535190 1_555
O34 Sb3 2.384161 1_555
O35 P8 1.512733 1_556
O35 Sb4 2.169655 1_555
O36 P9 1.558186 1_555
O36 Sb2 2.277587 1_555
O37 P11 1.556501 1_555
O37 Sb5 2.317597 1_555
O38 P12 1.543030 1_555
O38 Sb3 2.175152 1_555
O39 P13 1.525765 1_555
O39 Sb2 2.507635 1_555
O40 P8 1.559199 1_555
O40 Sb6 2.218417 1_555
O41 P14 1.527576 1_555
O41 Sb4 2.455392 1_555
O42 P9 1.527576 1_555
O42 Sb7 2.455392 1_555
O43 P15 1.559199 1_555
O43 Sb5 2.218417 1_555
O44 P10 1.525765 1_555
O44 Sb1 2.507635 1_655
O45 P11 1.543030 1_555
O45 Sb0 2.175152 1_655
O46 P12 1.556501 1_555
O46 Sb6 2.317597 1_545
O47 P14 1.558186 1_545
O47 Sb1 2.277587 1_655
O48 P15 1.512733 1_555
O48 Sb7 2.169655 1_555
O49 P14 1.535190 1_555
O49 Sb0 2.384161 1_655
O50 P13 1.565955 1_555
O50 Sb6 2.209639 1_555
O51 P13 1.601779 1_555
O51 P0 1.608033 1_655
O52 P1 1.610692 1_655
O52 P12 1.655923 1_555
O53 P0 1.522450 1_555
O53 Sb7 2.091792 1_455
O54 P12 1.513466 1_455
O54 Sb1 2.538218 1_554
O55 P13 1.515108 1_545
O55 Sb7 2.595963 1_555
