# generated using pymatgen
data_BaSr2I6
_symmetry_space_group_name_H-M   'P 1'
_cell_length_a   7.58702811
_cell_length_b   8.49804339
_cell_length_c   28.13823187
_cell_angle_alpha   90.00000000
_cell_angle_beta   90.00000000
_cell_angle_gamma   90.00000000
_symmetry_Int_Tables_number   1
_chemical_formula_structural   BaSr2I6
_chemical_formula_sum   'Ba4 Sr8 I24'
_cell_volume   1814.20951941
_cell_formula_units_Z   4
loop_
 _symmetry_equiv_pos_site_id
 _symmetry_equiv_pos_as_xyz
  1  'x, y, z'
loop_
 _atom_site_type_symbol
 _atom_site_label
 _atom_site_symmetry_multiplicity
 _atom_site_fract_x
 _atom_site_fract_y
 _atom_site_fract_z
 _atom_site_occupancy
  Ba  Ba0  1  0.00000000  0.25000000  0.38138885  1
  Ba  Ba1  1  0.00000000  0.75000000  0.61861115  1
  Ba  Ba2  1  0.50000000  0.25000000  0.88138885  1
  Ba  Ba3  1  0.50000000  0.75000000  0.11861115  1
  Sr  Sr0  1  0.00000000  0.25000000  0.04804850  1
  Sr  Sr1  1  0.00000000  0.75000000  0.28491402  1
  Sr  Sr2  1  0.00000000  0.25000000  0.71508598  1
  Sr  Sr3  1  0.00000000  0.75000000  0.95195150  1
  Sr  Sr4  1  0.50000000  0.25000000  0.21508598  1
  Sr  Sr5  1  0.50000000  0.25000000  0.54804850  1
  Sr  Sr6  1  0.50000000  0.75000000  0.78491402  1
  Sr  Sr7  1  0.50000000  0.75000000  0.45195150  1
  I  I0  1  0.23753466  0.57061664  0.03434537  1
  I  I1  1  0.23753466  0.07061664  0.96565463  1
  I  I2  1  0.24957582  0.56610758  0.20629306  1
  I  I3  1  0.24957582  0.06610758  0.79370694  1
  I  I4  1  0.24308888  0.59100060  0.37049950  1
  I  I5  1  0.24308888  0.09100060  0.62950050  1
  I  I6  1  0.25691112  0.59100060  0.87049950  1
  I  I7  1  0.25691112  0.09100060  0.12950050  1
  I  I8  1  0.25042418  0.06610758  0.29370694  1
  I  I9  1  0.25042418  0.56610758  0.70629306  1
  I  I10  1  0.26246534  0.07061664  0.46565463  1
  I  I11  1  0.26246534  0.57061664  0.53434537  1
  I  I12  1  0.73753466  0.42938336  0.46565463  1
  I  I13  1  0.73753466  0.92938336  0.53434537  1
  I  I14  1  0.74957582  0.43389242  0.29370694  1
  I  I15  1  0.74957582  0.93389242  0.70629306  1
  I  I16  1  0.74308888  0.40899940  0.12950050  1
  I  I17  1  0.74308888  0.90899940  0.87049950  1
  I  I18  1  0.75691112  0.90899940  0.37049950  1
  I  I19  1  0.75691112  0.40899940  0.62950050  1
  I  I20  1  0.75042418  0.43389242  0.79370694  1
  I  I21  1  0.75042418  0.93389242  0.20629306  1
  I  I22  1  0.76246534  0.92938336  0.03434537  1
  I  I23  1  0.76246534  0.42938336  0.96565463  1
loop_
_geom_bond_atom_site_label_1
_geom_bond_atom_site_label_2
_geom_bond_distance
_geom_bond_site_symmetry_2
Ba0 I4 3.448605 1_555
Ba0 I18 3.448605 1_445
Ba0 I12 3.451274 1_455
Ba0 I10 3.451274 1_555
Ba0 I14 3.484130 1_455
Ba0 I8 3.484130 1_555
Ba1 I5 3.448605 1_565
Ba1 I19 3.448605 1_455
Ba1 I11 3.451274 1_555
Ba1 I13 3.451274 1_455
Ba1 I9 3.484130 1_555
Ba1 I15 3.484130 1_455
Ba2 I6 3.448605 1_555
Ba2 I17 3.448605 1_545
Ba2 I23 3.451274 1_555
Ba2 I1 3.451274 1_555
Ba2 I3 3.484130 1_555
Ba2 I20 3.484130 1_555
Ba3 I7 3.448605 1_565
Ba3 I16 3.448605 1_555
Ba3 I22 3.451274 1_555
Ba3 I0 3.451274 1_555
Ba3 I21 3.484130 1_555
Ba3 I2 3.484130 1_555
I0 Sr0 3.289385 1_555
I0 Sr3 3.308586 1_554
I1 Sr3 3.289385 1_545
I1 Sr0 3.308586 1_556
I2 Sr4 3.299592 1_555
I2 Sr1 3.304795 1_555
I3 Sr6 3.299592 1_545
I3 Sr2 3.304795 1_555
I4 Sr7 3.298170 1_555
I4 Sr1 3.320657 1_555
I5 Sr5 3.298170 1_555
I5 Sr2 3.320657 1_555
I6 Sr3 3.298170 1_555
I6 Sr6 3.320657 1_555
I7 Sr0 3.298170 1_555
I7 Sr4 3.320657 1_555
I8 Sr1 3.299592 1_545
I8 Sr4 3.304795 1_555
I9 Sr2 3.299592 1_555
I9 Sr6 3.304795 1_555
I10 Sr7 3.289385 1_545
I10 Sr5 3.308586 1_555
I11 Sr5 3.289385 1_555
I11 Sr7 3.308586 1_555
I12 Sr7 3.289385 1_555
I12 Sr5 3.308586 1_555
I13 Sr5 3.289385 1_565
I13 Sr7 3.308586 1_555
I14 Sr1 3.299592 1_655
I14 Sr4 3.304795 1_555
I15 Sr2 3.299592 1_665
I15 Sr6 3.304795 1_555
I16 Sr0 3.298170 1_655
I16 Sr4 3.320657 1_555
I17 Sr3 3.298170 1_655
I17 Sr6 3.320657 1_555
I18 Sr7 3.298170 1_555
I18 Sr1 3.320657 1_655
I19 Sr5 3.298170 1_555
I19 Sr2 3.320657 1_655
I20 Sr6 3.299592 1_555
I20 Sr2 3.304795 1_655
I21 Sr4 3.299592 1_565
I21 Sr1 3.304795 1_655
I22 Sr0 3.289385 1_665
I22 Sr3 3.308586 1_654
I23 Sr3 3.289385 1_655
I23 Sr0 3.308586 1_656
