# generated using pymatgen
data_Na2VPCO7
_symmetry_space_group_name_H-M   'P 1'
_cell_length_a   8.40660403
_cell_length_b   8.40740703
_cell_length_c   10.25369813
_cell_angle_alpha   72.23827326
_cell_angle_beta   107.76061391
_cell_angle_gamma   78.68630835
_symmetry_Int_Tables_number   1
_chemical_formula_structural   Na2VPCO7
_chemical_formula_sum   'Na8 V4 P4 C4 O28'
_cell_volume   622.95023768
_cell_formula_units_Z   4
loop_
 _symmetry_equiv_pos_site_id
 _symmetry_equiv_pos_as_xyz
  1  'x, y, z'
loop_
 _atom_site_type_symbol
 _atom_site_label
 _atom_site_symmetry_multiplicity
 _atom_site_fract_x
 _atom_site_fract_y
 _atom_site_fract_z
 _atom_site_occupancy
  Na  Na0  1  0.54701100  0.68557000  0.08312000  1
  Na  Na1  1  0.04714900  0.18489900  0.08345700  1
  Na  Na2  1  0.93552800  0.79683900  0.91683000  1
  Na  Na3  1  0.43500200  0.29725500  0.91662800  1
  Na  Na4  1  0.49960000  0.96537900  0.27544800  1
  Na  Na5  1  0.99972400  0.46474200  0.27546000  1
  Na  Na6  1  0.21507800  0.74985600  0.72456500  1
  Na  Na7  1  0.71498500  0.24951500  0.72451300  1
  V  V0  1  0.43923300  0.31961500  0.33795400  1
  V  V1  1  0.06974300  0.18922400  0.66221700  1
  V  V2  1  0.93954400  0.81946100  0.33776300  1
  V  V3  1  0.56951200  0.68942300  0.66209300  1
  P  P0  1  0.70166200  0.55165000  0.42533500  1
  P  P1  1  0.20162000  0.05163300  0.42544700  1
  P  P2  1  0.80171100  0.95160100  0.57467000  1
  P  P3  1  0.30148700  0.45171500  0.57459400  1
  C  C0  1  0.76039400  0.98939900  0.06655000  1
  C  C1  1  0.26053000  0.48915800  0.06662100  1
  C  C2  1  0.73938900  0.51033800  0.93332000  1
  C  C3  1  0.23925200  0.01050700  0.93346300  1
  O  O0  1  0.33737600  0.92850800  0.07005900  1
  O  O1  1  0.83775100  0.42799700  0.06982400  1
  O  O2  1  0.17865800  0.58735800  0.93002200  1
  O  O3  1  0.67795800  0.08787600  0.93008500  1
  O  O4  1  0.90326600  0.85323500  0.11646300  1
  O  O5  1  0.40316500  0.35263300  0.11690800  1
  O  O6  1  0.60322900  0.65321900  0.88333800  1
  O  O7  1  0.10284700  0.15325400  0.88318400  1
  O  O8  1  0.71395900  0.01595700  0.17167900  1
  O  O9  1  0.21381700  0.51636500  0.17145900  1
  O  O10  1  0.76606600  0.46383000  0.82828600  1
  O  O11  1  0.26643200  0.96379800  0.82861600  1
  O  O12  1  0.57871400  0.48608800  0.32084400  1
  O  O13  1  0.07912600  0.98562500  0.32105000  1
  O  O14  1  0.73590000  0.82884800  0.67902400  1
  O  O15  1  0.23553000  0.32912000  0.67896400  1
  O  O16  1  0.78137700  0.65962600  0.32372300  1
  O  O17  1  0.28110000  0.16005100  0.32384900  1
  O  O18  1  0.91005000  0.03101900  0.67634700  1
  O  O19  1  0.40947200  0.53143900  0.67620900  1
  O  O20  1  0.64711300  0.09491800  0.43623400  1
  O  O21  1  0.14709400  0.59489600  0.43578100  1
  O  O22  1  0.84476500  0.39699400  0.56387800  1
  O  O23  1  0.34498700  0.89723200  0.56409700  1
  O  O24  1  0.59127400  0.67812700  0.47127200  1
  O  O25  1  0.09106700  0.17785200  0.47147100  1
  O  O26  1  0.92787300  0.84131400  0.52849500  1
  O  O27  1  0.42790700  0.34106400  0.52879500  1
loop_
_geom_bond_atom_site_label_1
_geom_bond_atom_site_label_2
_geom_bond_distance
_geom_bond_site_symmetry_2
Na0 O6 2.318155 1_554
Na0 O0 2.360559 1_555
Na0 O12 2.399898 1_555
Na0 O16 2.559970 1_555
Na1 O7 2.319077 1_554
Na1 O1 2.357845 1_455
Na1 O13 2.397451 1_545
Na1 O17 2.560177 1_555
Na2 O4 2.317085 1_556
Na2 O2 2.360342 1_655
Na2 O14 2.400091 1_555
Na2 O18 2.559862 1_565
Na3 O5 2.318512 1_556
Na3 O3 2.357656 1_555
Na3 O15 2.398896 1_555
Na3 O19 2.559258 1_555
Na4 O0 2.281036 1_555
Na4 O8 2.398883 1_565
Na4 O20 2.412482 1_565
Na4 O24 2.413543 1_555
Na4 O17 2.484191 1_565
Na5 O1 2.281731 1_555
Na5 O9 2.399971 1_655
Na5 O25 2.412653 1_655
Na5 O21 2.412780 1_655
Na5 O16 2.483467 1_555
Na6 O2 2.280347 1_555
Na6 O11 2.398854 1_555
Na6 O23 2.412168 1_555
Na6 O26 2.414454 1_455
Na6 O19 2.482120 1_555
Na7 O3 2.281527 1_555
Na7 O10 2.399541 1_555
Na7 O27 2.412071 1_555
Na7 O22 2.412821 1_555
Na7 O18 2.484589 1_555
C0 O3 1.264969 1_564
C0 O8 1.316665 1_565
C0 O4 1.320253 1_555
C1 O2 1.265121 1_554
C1 O9 1.316977 1_555
C1 O5 1.320165 1_555
C2 O1 1.264989 1_556
C2 O10 1.316420 1_555
C2 O6 1.320181 1_555
C3 O0 1.265041 1_546
C3 O11 1.316979 1_545
C3 O7 1.320192 1_555
O4 V2 2.115032 1_555
O5 V0 2.114243 1_555
O6 V3 2.114711 1_555
O7 V1 2.113453 1_555
O8 V2 2.075974 1_545
O9 V0 2.077300 1_555
O10 V3 2.076551 1_555
O11 V1 2.076889 1_565
O12 P0 1.558300 1_555
O12 V0 1.996041 1_555
O13 P1 1.558339 1_565
O13 V2 1.994415 1_455
O14 P2 1.558057 1_555
O14 V3 1.995009 1_555
O15 P3 1.558314 1_555
O15 V1 1.993902 1_555
O16 P0 1.564069 1_555
O16 V2 2.072870 1_555
O17 P1 1.564227 1_555
O17 V0 2.070893 1_555
O18 P2 1.564059 1_545
O18 V1 2.072215 1_655
O19 P3 1.564207 1_555
O19 V3 2.073137 1_555
O20 P2 1.540260 1_545
O20 V0 2.026587 1_555
O21 P3 1.540824 1_555
O21 V2 2.024580 1_455
O22 P0 1.540335 1_555
O22 V1 2.027493 1_655
O23 P1 1.540670 1_565
O23 V3 2.025515 1_555
O24 P0 1.548809 1_555
O24 V3 2.048363 1_555
O25 P1 1.548770 1_555
O25 V1 2.046436 1_555
O26 P2 1.548267 1_555
O26 V2 2.048754 1_555
O27 P3 1.548722 1_555
O27 V0 2.047677 1_555
