# generated using pymatgen
data_Na2Ga11O17
_symmetry_space_group_name_H-M   'P 1'
_cell_length_a   22.98938100
_cell_length_b   5.96015700
_cell_length_c   5.97368041
_cell_angle_alpha   60.17662709
_cell_angle_beta   90.00000000
_cell_angle_gamma   90.00000000
_symmetry_Int_Tables_number   1
_chemical_formula_structural   Na2Ga11O17
_chemical_formula_sum   'Na4 Ga22 O34'
_cell_volume   710.11356373
_cell_formula_units_Z   2
loop_
 _symmetry_equiv_pos_site_id
 _symmetry_equiv_pos_as_xyz
  1  'x, y, z'
loop_
 _atom_site_type_symbol
 _atom_site_label
 _atom_site_symmetry_multiplicity
 _atom_site_fract_x
 _atom_site_fract_y
 _atom_site_fract_z
 _atom_site_occupancy
  Na  Na0  1  0.25000000  0.29262400  0.13908900  1
  Na  Na1  1  0.25000000  0.61974300  0.50258600  1
  Na  Na2  1  0.75000000  0.38025700  0.49741400  1
  Na  Na3  1  0.75000000  0.70737600  0.86091100  1
  Ga  Ga0  1  0.10901800  0.33505100  0.33209100  1
  Ga  Ga1  1  0.39098200  0.33505100  0.33209100  1
  Ga  Ga2  1  0.97433500  0.16637800  0.16703300  1
  Ga  Ga3  1  0.82476100  0.16422900  0.17203600  1
  Ga  Ga4  1  0.00000000  0.50000000  0.50000000  1
  Ga  Ga5  1  0.50000000  0.50000000  0.50000000  1
  Ga  Ga6  1  0.67523900  0.16422900  0.17203600  1
  Ga  Ga7  1  0.38993100  0.83764500  0.32941500  1
  Ga  Ga8  1  0.52566500  0.16637800  0.16703300  1
  Ga  Ga9  1  0.11006900  0.83764500  0.32941500  1
  Ga  Ga10  1  0.38942000  0.33325800  0.83342100  1
  Ga  Ga11  1  0.11058000  0.33325800  0.83342100  1
  Ga  Ga12  1  0.88942000  0.66674200  0.16657900  1
  Ga  Ga13  1  0.61058000  0.66674200  0.16657900  1
  Ga  Ga14  1  0.88993100  0.16235500  0.67058500  1
  Ga  Ga15  1  0.61006900  0.16235500  0.67058500  1
  Ga  Ga16  1  0.32476100  0.83577100  0.82796400  1
  Ga  Ga17  1  0.17523900  0.83577100  0.82796400  1
  Ga  Ga18  1  0.02566500  0.83362200  0.83296700  1
  Ga  Ga19  1  0.47433500  0.83362200  0.83296700  1
  Ga  Ga20  1  0.89098200  0.66494900  0.66790900  1
  Ga  Ga21  1  0.60901800  0.66494900  0.66790900  1
  O  O0  1  0.55351000  0.34322400  0.34564800  1
  O  O1  1  0.94649000  0.34322400  0.34564800  1
  O  O2  1  0.34721400  0.01371800  0.48016600  1
  O  O3  1  0.15278600  0.01371800  0.48016600  1
  O  O4  1  0.75000000  0.24980800  0.19654200  1
  O  O5  1  0.84920500  0.49655900  0.50170000  1
  O  O6  1  0.65079500  0.49655900  0.50170000  1
  O  O7  1  0.94592400  0.81067500  0.34414400  1
  O  O8  1  0.34920500  0.50344100  0.49830000  1
  O  O9  1  0.15079500  0.50344100  0.49830000  1
  O  O10  1  0.55407600  0.81067500  0.34414400  1
  O  O11  1  0.44181700  0.16531300  0.16396700  1
  O  O12  1  0.05818300  0.16531300  0.16396700  1
  O  O13  1  0.34883100  0.48591300  0.00981500  1
  O  O14  1  0.15116900  0.48591300  0.00981500  1
  O  O15  1  0.44644000  0.65744700  0.18831700  1
  O  O16  1  0.05356000  0.65744700  0.18831700  1
  O  O17  1  0.34358500  0.00936400  0.00614000  1
  O  O18  1  0.15641500  0.00936400  0.00614000  1
  O  O19  1  0.84358500  0.99063600  0.99386000  1
  O  O20  1  0.65641500  0.99063600  0.99386000  1
  O  O21  1  0.94644000  0.34255300  0.81168300  1
  O  O22  1  0.55356000  0.34255300  0.81168300  1
  O  O23  1  0.65116900  0.51408700  0.99018500  1
  O  O24  1  0.84883100  0.51408700  0.99018500  1
  O  O25  1  0.55818300  0.83468700  0.83603300  1
  O  O26  1  0.44592400  0.18932500  0.65585600  1
  O  O27  1  0.05407600  0.18932500  0.65585600  1
  O  O28  1  0.94181700  0.83468700  0.83603300  1
  O  O29  1  0.25000000  0.75019200  0.80345800  1
  O  O30  1  0.84721400  0.98628200  0.51983400  1
  O  O31  1  0.65278600  0.98628200  0.51983400  1
  O  O32  1  0.44649000  0.65677600  0.65435200  1
  O  O33  1  0.05351000  0.65677600  0.65435200  1
loop_
_geom_bond_atom_site_label_1
_geom_bond_atom_site_label_2
_geom_bond_distance
_geom_bond_site_symmetry_2
Na0 O29 2.453302 1_554
Na0 O13 2.490164 1_555
Na0 O14 2.490164 1_555
Na0 O3 2.922420 1_555
Na0 O2 2.922420 1_555
Na1 O29 2.285776 1_555
Na1 O9 2.387514 1_555
Na1 O8 2.387514 1_555
Na2 O4 2.285776 1_555
Na2 O6 2.387514 1_555
Na2 O5 2.387514 1_555
Na3 O4 2.453302 1_556
Na3 O23 2.490164 1_555
Na3 O24 2.490164 1_555
Na3 O30 2.922420 1_555
Na3 O31 2.922420 1_555
Ga0 O14 1.931840 1_555
Ga0 O3 1.943658 1_555
Ga0 O9 1.976528 1_555
Ga0 O12 2.099644 1_555
Ga0 O16 2.100928 1_555
Ga0 O27 2.102266 1_555
Ga1 O13 1.931840 1_555
Ga1 O2 1.943658 1_555
Ga1 O8 1.976528 1_555
Ga1 O11 2.099644 1_555
Ga1 O15 2.100928 1_555
Ga1 O26 2.102266 1_555
Ga2 O12 1.927741 1_655
Ga2 O1 1.943669 1_555
Ga2 O21 1.950086 1_554
Ga2 O7 1.951805 1_545
Ga3 O4 1.819293 1_555
Ga3 O19 1.867080 1_544
Ga3 O30 1.875131 1_545
Ga3 O24 1.892429 1_554
Ga4 O1 2.023255 1_455
Ga4 O33 2.023255 1_555
Ga4 O16 2.031135 1_555
Ga4 O21 2.031135 1_455
Ga4 O7 2.031314 1_455
Ga4 O27 2.031314 1_555
Ga5 O0 2.023255 1_555
Ga5 O32 2.023255 1_555
Ga5 O15 2.031135 1_555
Ga5 O22 2.031135 1_555
Ga5 O10 2.031314 1_555
Ga5 O26 2.031314 1_555
Ga6 O4 1.819293 1_555
Ga6 O20 1.867080 1_544
Ga6 O31 1.875131 1_545
Ga6 O23 1.892429 1_554
Ga7 O2 1.953625 1_565
Ga7 O8 1.965521 1_555
Ga7 O17 1.986483 1_565
Ga7 O11 2.072151 1_565
Ga7 O15 2.109983 1_555
Ga7 O32 2.130543 1_555
Ga8 O11 1.927741 1_555
Ga8 O0 1.943669 1_555
Ga8 O22 1.950086 1_554
Ga8 O10 1.951805 1_545
Ga9 O3 1.953625 1_565
Ga9 O9 1.965521 1_555
Ga9 O18 1.986483 1_565
Ga9 O12 2.072151 1_565
Ga9 O16 2.109983 1_555
Ga9 O33 2.130543 1_555
Ga10 O13 1.939706 1_556
Ga10 O8 1.967609 1_555
Ga10 O17 1.980000 1_556
Ga10 O11 2.094269 1_556
Ga10 O26 2.110336 1_555
Ga10 O32 2.128860 1_555
Ga11 O14 1.939706 1_556
Ga11 O9 1.967609 1_555
Ga11 O18 1.980000 1_556
Ga11 O12 2.094269 1_556
Ga11 O27 2.110336 1_555
Ga11 O33 2.128860 1_555
Ga12 O24 1.939706 1_554
Ga12 O5 1.967609 1_555
Ga12 O19 1.980000 1_554
Ga12 O28 2.094269 1_554
Ga12 O7 2.110336 1_555
Ga12 O1 2.128860 1_555
Ga13 O23 1.939706 1_554
Ga13 O6 1.967609 1_555
Ga13 O20 1.980000 1_554
Ga13 O25 2.094269 1_554
Ga13 O10 2.110336 1_555
Ga13 O0 2.128860 1_555
Ga14 O30 1.953625 1_545
Ga14 O5 1.965521 1_555
Ga14 O19 1.986483 1_545
Ga14 O28 2.072151 1_545
Ga14 O21 2.109983 1_555
Ga14 O1 2.130543 1_555
Ga15 O31 1.953625 1_545
Ga15 O6 1.965521 1_555
Ga15 O20 1.986483 1_545
Ga15 O25 2.072151 1_545
Ga15 O22 2.109983 1_555
Ga15 O0 2.130543 1_555
Ga16 O29 1.819293 1_555
Ga16 O17 1.867080 1_566
Ga16 O2 1.875131 1_565
Ga16 O13 1.892429 1_556
Ga17 O29 1.819293 1_555
Ga17 O18 1.867080 1_566
Ga17 O3 1.875131 1_565
Ga17 O14 1.892429 1_556
Ga18 O28 1.927741 1_455
Ga18 O33 1.943669 1_555
Ga18 O16 1.950086 1_556
Ga18 O27 1.951805 1_565
Ga19 O25 1.927741 1_555
Ga19 O32 1.943669 1_555
Ga19 O15 1.950086 1_556
Ga19 O26 1.951805 1_565
Ga20 O24 1.931840 1_555
Ga20 O30 1.943658 1_555
Ga20 O5 1.976528 1_555
Ga20 O28 2.099644 1_555
Ga20 O21 2.100928 1_555
Ga20 O7 2.102266 1_555
Ga21 O23 1.931840 1_555
Ga21 O31 1.943658 1_555
Ga21 O6 1.976528 1_555
Ga21 O25 2.099644 1_555
Ga21 O22 2.100928 1_555
Ga21 O10 2.102266 1_555
