# generated using pymatgen
data_Li3MnV3O8
_symmetry_space_group_name_H-M   'P 1'
_cell_length_a   5.94354260
_cell_length_b   5.91450643
_cell_length_c   5.97001555
_cell_angle_alpha   60.46353687
_cell_angle_beta   60.14687164
_cell_angle_gamma   90.00029055
_symmetry_Int_Tables_number   1
_chemical_formula_structural   Li3MnV3O8
_chemical_formula_sum   'Li3 Mn1 V3 O8'
_cell_volume   149.75392722
_cell_formula_units_Z   1
loop_
 _symmetry_equiv_pos_site_id
 _symmetry_equiv_pos_as_xyz
  1  'x, y, z'
loop_
 _atom_site_type_symbol
 _atom_site_label
 _atom_site_symmetry_multiplicity
 _atom_site_fract_x
 _atom_site_fract_y
 _atom_site_fract_z
 _atom_site_occupancy
  Li  Li0  1  0.49999300  0.49999400  0.50000600  1
  Li  Li1  1  0.00000200  0.49999400  0.50000700  1
  Li  Li2  1  0.99999600  0.50000200  0.00000800  1
  Mn  Mn0  1  0.50002500  0.50001900  0.99994200  1
  V  V0  1  0.49999400  0.00001400  0.49999600  1
  V  V1  1  0.00000700  0.00001000  0.50000400  1
  V  V2  1  0.49998700  0.99998300  0.00003600  1
  O  O0  1  0.74609700  0.23035700  0.50780000  1
  O  O1  1  0.25389200  0.76962900  0.49222500  1
  O  O2  1  0.27212700  0.25896800  0.45580500  1
  O  O3  1  0.26951500  0.25519400  0.01197500  1
  O  O4  1  0.71852100  0.25523700  0.01191000  1
  O  O5  1  0.28147900  0.74475100  0.98809100  1
  O  O6  1  0.73048000  0.74479400  0.98802400  1
  O  O7  1  0.72787600  0.74102900  0.54418700  1
loop_
_geom_bond_atom_site_label_1
_geom_bond_atom_site_label_2
_geom_bond_distance
_geom_bond_site_symmetry_2
Li0 O2 2.159330 1_555
Li0 O7 2.159347 1_555
Li0 O1 2.163230 1_555
Li0 O0 2.163251 1_555
Li0 O3 2.187067 1_556
Li0 O6 2.187122 1_554
Li1 O2 2.159579 1_555
Li1 O7 2.159611 1_455
Li1 O1 2.163248 1_555
Li1 O0 2.163272 1_455
Li1 O4 2.186799 1_456
Li1 O5 2.186851 1_554
Li2 O6 2.163174 1_554
Li2 O5 2.163194 1_654
Li2 O3 2.163242 1_655
Li2 O4 2.163281 1_555
Li2 O1 2.165501 1_654
Li2 O0 2.165543 1_555
Mn0 O7 1.943359 1_555
Mn0 O5 1.943695 1_555
Mn0 O4 1.943708 1_556
Mn0 O3 1.943806 1_556
Mn0 O2 1.943815 1_556
Mn0 O6 1.943834 1_555
O0 V0 2.031791 1_555
O0 V1 2.031832 1_655
O0 V2 2.098717 1_546
O1 V0 2.031816 1_565
O1 V1 2.031862 1_565
O1 V2 2.098516 1_555
O2 V0 2.051080 1_555
O2 V1 2.051324 1_555
O3 V2 2.041767 1_545
O3 V1 2.085818 1_555
O4 V2 2.041675 1_545
O4 V0 2.086071 1_555
O5 V2 2.041779 1_556
O5 V0 2.086123 1_565
O6 V2 2.041779 1_556
O6 V1 2.085797 1_665
O7 V0 2.051270 1_565
O7 V1 2.051524 1_665
