# generated using pymatgen
data_LiV(SiO3)2
_symmetry_space_group_name_H-M   'P 1'
_cell_length_a   5.35778900
_cell_length_b   8.78766100
_cell_length_c   18.28882800
_cell_angle_alpha   90.00000000
_cell_angle_beta   90.00000000
_cell_angle_gamma   90.00000000
_symmetry_Int_Tables_number   1
_chemical_formula_structural   LiV(SiO3)2
_chemical_formula_sum   'Li8 V8 Si16 O48'
_cell_volume   861.08252703
_cell_formula_units_Z   8
loop_
 _symmetry_equiv_pos_site_id
 _symmetry_equiv_pos_as_xyz
  1  'x, y, z'
loop_
 _atom_site_type_symbol
 _atom_site_label
 _atom_site_symmetry_multiplicity
 _atom_site_fract_x
 _atom_site_fract_y
 _atom_site_fract_z
 _atom_site_occupancy
  Li  Li0  1  0.12036600  0.50353000  0.62636400  1
  Li  Li1  1  0.62036600  0.99647000  0.62636400  1
  Li  Li2  1  0.62036600  0.49647000  0.87363600  1
  Li  Li3  1  0.12036600  0.00353000  0.87363600  1
  Li  Li4  1  0.87963400  0.99647000  0.12636400  1
  Li  Li5  1  0.37963400  0.50353000  0.12636400  1
  Li  Li6  1  0.87963400  0.49647000  0.37363600  1
  Li  Li7  1  0.37963400  0.00353000  0.37363600  1
  V  V0  1  0.11935800  0.15268100  0.62475200  1
  V  V1  1  0.61935800  0.34731900  0.62475200  1
  V  V2  1  0.61935800  0.84731900  0.87524800  1
  V  V3  1  0.11935800  0.65268100  0.87524800  1
  V  V4  1  0.88064200  0.34731900  0.12475200  1
  V  V5  1  0.38064200  0.15268100  0.12475200  1
  V  V6  1  0.88064200  0.84731900  0.37524800  1
  V  V7  1  0.38064200  0.65268100  0.37524800  1
  Si  Si0  1  0.22665700  0.83805600  0.52496200  1
  Si  Si1  1  0.72665700  0.66194400  0.52496200  1
  Si  Si2  1  0.95352100  0.83882800  0.72554600  1
  Si  Si3  1  0.45352100  0.66117200  0.72554600  1
  Si  Si4  1  0.95352100  0.33882800  0.77445400  1
  Si  Si5  1  0.45352100  0.16117200  0.77445400  1
  Si  Si6  1  0.22665700  0.33805600  0.97503800  1
  Si  Si7  1  0.72665700  0.16194400  0.97503800  1
  Si  Si8  1  0.27334300  0.83805600  0.02496200  1
  Si  Si9  1  0.77334300  0.66194400  0.02496200  1
  Si  Si10  1  0.54647900  0.83882800  0.22554600  1
  Si  Si11  1  0.04647900  0.66117200  0.22554600  1
  Si  Si12  1  0.54647900  0.33882800  0.27445400  1
  Si  Si13  1  0.04647900  0.16117200  0.27445400  1
  Si  Si14  1  0.27334300  0.33805600  0.47503800  1
  Si  Si15  1  0.77334300  0.16194400  0.47503800  1
  O  O0  1  0.94878400  0.77970200  0.55187100  1
  O  O1  1  0.44878400  0.72029800  0.55187100  1
  O  O2  1  0.28010300  0.33401800  0.56576000  1
  O  O3  1  0.78010300  0.16598200  0.56576000  1
  O  O4  1  0.28828900  0.99962800  0.56366800  1
  O  O5  1  0.78828900  0.50037200  0.56366800  1
  O  O6  1  0.95402300  0.33294400  0.68416200  1
  O  O7  1  0.45402300  0.16705600  0.68416200  1
  O  O8  1  0.45440100  0.49334900  0.68990300  1
  O  O9  1  0.95440100  0.00665100  0.68990300  1
  O  O10  1  0.68821900  0.76470600  0.69585000  1
  O  O11  1  0.18821900  0.73529400  0.69585000  1
  O  O12  1  0.68821900  0.26470600  0.80415000  1
  O  O13  1  0.18821900  0.23529400  0.80415000  1
  O  O14  1  0.45440100  0.99334900  0.81009700  1
  O  O15  1  0.95440100  0.50665100  0.81009700  1
  O  O16  1  0.95402300  0.83294400  0.81583800  1
  O  O17  1  0.45402300  0.66705600  0.81583800  1
  O  O18  1  0.28828900  0.49962800  0.93633200  1
  O  O19  1  0.78828900  0.00037200  0.93633200  1
  O  O20  1  0.28010300  0.83401800  0.93424000  1
  O  O21  1  0.78010300  0.66598200  0.93424000  1
  O  O22  1  0.94878400  0.27970200  0.94812900  1
  O  O23  1  0.44878400  0.22029800  0.94812900  1
  O  O24  1  0.55121600  0.77970200  0.05187100  1
  O  O25  1  0.05121600  0.72029800  0.05187100  1
  O  O26  1  0.21989700  0.33401800  0.06576000  1
  O  O27  1  0.71989700  0.16598200  0.06576000  1
  O  O28  1  0.21171100  0.99962800  0.06366800  1
  O  O29  1  0.71171100  0.50037200  0.06366800  1
  O  O30  1  0.54597700  0.33294400  0.18416200  1
  O  O31  1  0.04597700  0.16705600  0.18416200  1
  O  O32  1  0.04559900  0.49334900  0.18990300  1
  O  O33  1  0.54559900  0.00665100  0.18990300  1
  O  O34  1  0.81178100  0.76470600  0.19585000  1
  O  O35  1  0.31178100  0.73529400  0.19585000  1
  O  O36  1  0.81178100  0.26470600  0.30415000  1
  O  O37  1  0.31178100  0.23529400  0.30415000  1
  O  O38  1  0.04559900  0.99334900  0.31009700  1
  O  O39  1  0.54559900  0.50665100  0.31009700  1
  O  O40  1  0.54597700  0.83294400  0.31583800  1
  O  O41  1  0.04597700  0.66705600  0.31583800  1
  O  O42  1  0.21171100  0.49962800  0.43633200  1
  O  O43  1  0.71171100  0.00037200  0.43633200  1
  O  O44  1  0.21989700  0.83401800  0.43424000  1
  O  O45  1  0.71989700  0.66598200  0.43424000  1
  O  O46  1  0.55121600  0.27970200  0.44812900  1
  O  O47  1  0.05121600  0.22029800  0.44812900  1
loop_
_geom_bond_atom_site_label_1
_geom_bond_atom_site_label_2
_geom_bond_distance
_geom_bond_site_symmetry_2
Li0 O6 2.039318 1_455
Li0 O2 2.044482 1_555
Li0 O5 2.116859 1_455
Li0 O8 2.135734 1_555
Li0 O11 2.427991 1_555
Li1 O7 2.039318 1_565
Li1 O3 2.044482 1_565
Li1 O4 2.116859 1_555
Li1 O9 2.135734 1_565
Li1 O10 2.427991 1_555
Li2 O17 2.039318 1_555
Li2 O21 2.044482 1_555
Li2 O18 2.116859 1_555
Li2 O15 2.135734 1_555
Li2 O12 2.427991 1_555
Li3 O16 2.039318 1_445
Li3 O20 2.044482 1_545
Li3 O19 2.116859 1_455
Li3 O14 2.135734 1_545
Li3 O13 2.427991 1_555
Li4 O31 2.039318 1_665
Li4 O27 2.044482 1_565
Li4 O28 2.116859 1_655
Li4 O33 2.135734 1_565
Li4 O34 2.427991 1_555
Li5 O30 2.039318 1_555
Li5 O26 2.044482 1_555
Li5 O29 2.116859 1_555
Li5 O32 2.135734 1_555
Li5 O35 2.427991 1_555
Li6 O41 2.039318 1_655
Li6 O45 2.044482 1_555
Li6 O42 2.116859 1_655
Li6 O39 2.135734 1_555
Li6 O36 2.427991 1_555
Li7 O40 2.039318 1_545
Li7 O44 2.044482 1_545
Li7 O43 2.116859 1_555
Li7 O38 2.135734 1_545
Li7 O37 2.427991 1_555
O0 Si0 1.649738 1_655
O0 Si1 1.652091 1_555
O1 Si1 1.649738 1_555
O1 Si0 1.652091 1_555
O2 Si14 1.659974 1_555
O2 V0 2.108335 1_555
O2 V1 2.116967 1_555
O3 Si15 1.659974 1_555
O3 V1 2.108335 1_555
O3 V0 2.116967 1_655
O4 Si0 1.620521 1_555
O4 V0 1.968807 1_565
O5 Si1 1.620521 1_555
O5 V1 1.968807 1_555
O6 Si4 1.652146 1_555
O6 V1 2.100382 1_555
O6 V0 2.115326 1_655
O7 Si5 1.652146 1_555
O7 V0 2.100382 1_555
O7 V1 2.115326 1_555
O8 Si3 1.612423 1_555
O8 V1 1.961537 1_555
O9 Si2 1.612423 1_545
O9 V0 1.961537 1_655
O10 Si3 1.644369 1_555
O10 Si2 1.655204 1_555
O11 Si2 1.644369 1_455
O11 Si3 1.655204 1_555
O12 Si5 1.644369 1_555
O12 Si4 1.655204 1_555
O13 Si4 1.644369 1_455
O13 Si5 1.655204 1_555
O14 Si5 1.612423 1_565
O14 V2 1.961537 1_555
O15 Si4 1.612423 1_555
O15 V3 1.961537 1_655
O16 Si2 1.652146 1_555
O16 V2 2.100382 1_555
O16 V3 2.115326 1_655
O17 Si3 1.652146 1_555
O17 V3 2.100382 1_555
O17 V2 2.115326 1_555
O18 Si6 1.620521 1_555
O18 V3 1.968807 1_555
O19 Si7 1.620521 1_555
O19 V2 1.968807 1_545
O20 Si8 1.659974 1_556
O20 V3 2.108335 1_555
O20 V2 2.116967 1_555
O21 Si9 1.659974 1_556
O21 V2 2.108335 1_555
O21 V3 2.116967 1_655
O22 Si6 1.649738 1_655
O22 Si7 1.652091 1_555
O23 Si7 1.649738 1_555
O23 Si6 1.652091 1_555
O24 Si8 1.649738 1_555
O24 Si9 1.652091 1_555
O25 Si9 1.649738 1_455
O25 Si8 1.652091 1_555
O26 Si6 1.659974 1_554
O26 V5 2.108335 1_555
O26 V4 2.116967 1_455
O27 Si7 1.659974 1_554
O27 V4 2.108335 1_555
O27 V5 2.116967 1_555
O28 Si8 1.620521 1_555
O28 V5 1.968807 1_565
O29 Si9 1.620521 1_555
O29 V4 1.968807 1_555
O30 Si12 1.652146 1_555
O30 V4 2.100382 1_555
O30 V5 2.115326 1_555
O31 Si13 1.652146 1_555
O31 V5 2.100382 1_555
O31 V4 2.115326 1_455
O32 Si11 1.612423 1_555
O32 V4 1.961537 1_455
O33 Si10 1.612423 1_545
O33 V5 1.961537 1_555
O34 Si11 1.644369 1_655
O34 Si10 1.655204 1_555
O35 Si10 1.644369 1_555
O35 Si11 1.655204 1_555
O36 Si13 1.644369 1_655
O36 Si12 1.655204 1_555
O37 Si12 1.644369 1_555
O37 Si13 1.655204 1_555
O38 Si13 1.612423 1_565
O38 V6 1.961537 1_455
O39 Si12 1.612423 1_555
O39 V7 1.961537 1_555
O40 Si10 1.652146 1_555
O40 V6 2.100382 1_555
O40 V7 2.115326 1_555
O41 Si11 1.652146 1_555
O41 V7 2.100382 1_555
O41 V6 2.115326 1_455
O42 Si14 1.620521 1_555
O42 V7 1.968807 1_555
O43 Si15 1.620521 1_555
O43 V6 1.968807 1_545
O44 Si0 1.659974 1_555
O44 V7 2.108335 1_555
O44 V6 2.116967 1_455
O45 Si1 1.659974 1_555
O45 V6 2.108335 1_555
O45 V7 2.116967 1_555
O46 Si14 1.649738 1_555
O46 Si15 1.652091 1_555
O47 Si15 1.649738 1_455
O47 Si14 1.652091 1_555
