# generated using pymatgen
data_Cs5YO4
_symmetry_space_group_name_H-M   'P 1'
_cell_length_a   6.96213046
_cell_length_b   8.46138923
_cell_length_c   9.83405653
_cell_angle_alpha   90.00000000
_cell_angle_beta   90.00000000
_cell_angle_gamma   90.00000000
_symmetry_Int_Tables_number   1
_chemical_formula_structural   Cs5YO4
_chemical_formula_sum   'Cs10 Y2 O8'
_cell_volume   579.31734398
_cell_formula_units_Z   2
loop_
 _symmetry_equiv_pos_site_id
 _symmetry_equiv_pos_as_xyz
  1  'x, y, z'
loop_
 _atom_site_type_symbol
 _atom_site_label
 _atom_site_symmetry_multiplicity
 _atom_site_fract_x
 _atom_site_fract_y
 _atom_site_fract_z
 _atom_site_occupancy
  Cs  Cs0  1  0.25795415  0.76270865  0.81310173  1
  Cs  Cs1  1  0.25795415  0.23729135  0.81310173  1
  Cs  Cs2  1  0.84013445  0.50000000  0.00000000  1
  Cs  Cs3  1  0.25795415  0.76270865  0.18689827  1
  Cs  Cs4  1  0.25795415  0.23729135  0.18689827  1
  Cs  Cs5  1  0.74204585  0.73729135  0.31310173  1
  Cs  Cs6  1  0.74204585  0.26270865  0.31310173  1
  Cs  Cs7  1  0.15986555  -0.00000000  0.50000000  1
  Cs  Cs8  1  0.74204585  0.73729135  0.68689827  1
  Cs  Cs9  1  0.74204585  0.26270865  0.68689827  1
  Y  Y0  1  0.78093280  -0.00000000  0.00000000  1
  Y  Y1  1  0.21906720  0.50000000  0.50000000  1
  O  O0  1  0.95174638  -0.00000000  0.81480475  1
  O  O1  1  0.61779122  0.78211345  0.00000000  1
  O  O2  1  0.61779122  0.21788655  0.00000000  1
  O  O3  1  0.95174638  -0.00000000  0.18519525  1
  O  O4  1  0.04825362  0.50000000  0.31480475  1
  O  O5  1  0.38220878  0.71788655  0.50000000  1
  O  O6  1  0.38220878  0.28211345  0.50000000  1
  O  O7  1  0.04825362  0.50000000  0.68519525  1
loop_
_geom_bond_atom_site_label_1
_geom_bond_atom_site_label_2
_geom_bond_distance
_geom_bond_site_symmetry_2
Cs0 O0 2.928553 1_465
Cs0 O7 2.941912 1_555
Cs0 O1 3.111475 1_556
Cs0 O5 3.220684 1_555
Cs1 O0 2.928553 1_455
Cs1 O7 2.941912 1_555
Cs1 O2 3.111475 1_556
Cs1 O6 3.220684 1_555
Cs2 O2 2.845059 1_555
Cs2 O1 2.845059 1_555
Cs2 O7 3.418112 1_654
Cs2 O4 3.418112 1_655
Cs3 O3 2.928553 1_465
Cs3 O4 2.941912 1_555
Cs3 O1 3.111475 1_555
Cs3 O5 3.220684 1_555
Cs4 O3 2.928553 1_455
Cs4 O4 2.941912 1_555
Cs4 O2 3.111475 1_555
Cs4 O6 3.220684 1_555
Cs5 O4 2.928553 1_655
Cs5 O3 2.941912 1_565
Cs5 O5 3.111475 1_555
Cs5 O1 3.220684 1_555
Cs6 O4 2.928553 1_655
Cs6 O3 2.941912 1_555
Cs6 O6 3.111475 1_555
Cs6 O2 3.220684 1_555
Cs7 O6 2.845059 1_555
Cs7 O5 2.845059 1_545
Cs7 O3 3.418112 1_455
Cs7 O0 3.418112 1_455
Cs8 O7 2.928553 1_655
Cs8 O0 2.941912 1_565
Cs8 O5 3.111475 1_555
Cs8 O1 3.220684 1_556
Cs9 O7 2.928553 1_655
Cs9 O0 2.941912 1_555
Cs9 O6 3.111475 1_555
Cs9 O2 3.220684 1_556
O0 Y0 2.175110 1_556
O1 Y0 2.165414 1_565
O2 Y0 2.165414 1_555
O3 Y0 2.175110 1_555
O4 Y1 2.175110 1_555
O5 Y1 2.165414 1_555
O6 Y1 2.165414 1_555
O7 Y1 2.175110 1_555
