# generated using pymatgen
data_K2TiO3F4
_symmetry_space_group_name_H-M   'P 1'
_cell_length_a   9.34679828
_cell_length_b   9.34679828
_cell_length_c   12.40178659
_cell_angle_alpha   65.62333871
_cell_angle_beta   65.62333871
_cell_angle_gamma   41.85195864
_symmetry_Int_Tables_number   1
_chemical_formula_structural   K2TiO3F4
_chemical_formula_sum   'K8 Ti4 O12 F16'
_cell_volume   648.48521104
_cell_formula_units_Z   4
loop_
 _symmetry_equiv_pos_site_id
 _symmetry_equiv_pos_as_xyz
  1  'x, y, z'
loop_
 _atom_site_type_symbol
 _atom_site_label
 _atom_site_symmetry_multiplicity
 _atom_site_fract_x
 _atom_site_fract_y
 _atom_site_fract_z
 _atom_site_occupancy
  K  K0  1  0.42335500  0.95889100  0.66310000  1
  K  K1  1  0.04110900  0.57664500  0.83690000  1
  K  K2  1  0.57664500  0.04110900  0.33690000  1
  K  K3  1  0.95889100  0.42335500  0.16310000  1
  K  K4  1  0.67812600  0.19195500  0.63623200  1
  K  K5  1  0.80804500  0.32187400  0.86376800  1
  K  K6  1  0.32187400  0.80804500  0.36376800  1
  K  K7  1  0.19195500  0.67812600  0.13623200  1
  Ti  Ti0  1  0.34012400  0.99988400  0.96617100  1
  Ti  Ti1  1  0.00011600  0.65987600  0.53382900  1
  Ti  Ti2  1  0.65987600  0.00011600  0.03382900  1
  Ti  Ti3  1  0.99988400  0.34012400  0.46617100  1
  O  O0  1  0.23899900  0.92225300  0.91614800  1
  O  O1  1  0.07774700  0.76100100  0.58385200  1
  O  O2  1  0.76100100  0.07774700  0.08385200  1
  O  O3  1  0.92225300  0.23899900  0.41614800  1
  O  O4  1  0.47124200  0.74378100  0.92297700  1
  O  O5  1  0.25621900  0.52875800  0.57702300  1
  O  O6  1  0.52875800  0.25621900  0.07702300  1
  O  O7  1  0.74378100  0.47124200  0.42297700  1
  O  O8  1  0.38602400  0.66606700  0.69594300  1
  O  O9  1  0.33393300  0.61397600  0.80405700  1
  O  O10  1  0.61397600  0.33393300  0.30405700  1
  O  O11  1  0.66606700  0.38602400  0.19594300  1
  F  F0  1  0.72922300  0.07713200  0.86539500  1
  F  F1  1  0.92286800  0.27077700  0.63460500  1
  F  F2  1  0.27077700  0.92286800  0.13460500  1
  F  F3  1  0.07713200  0.72922300  0.36539500  1
  F  F4  1  0.65148600  0.81062100  0.98408900  1
  F  F5  1  0.18937900  0.34851400  0.51591100  1
  F  F6  1  0.34851400  0.18937900  0.01591100  1
  F  F7  1  0.81062100  0.65148600  0.48408900  1
  F  F8  1  0.39878300  0.12316900  0.80760800  1
  F  F9  1  0.87683100  0.60121700  0.69239200  1
  F  F10  1  0.60121700  0.87683100  0.19239200  1
  F  F11  1  0.12316900  0.39878300  0.30760800  1
  F  F12  1  0.72061600  0.96557700  0.52718400  1
  F  F13  1  0.03442300  0.27938400  0.97281600  1
  F  F14  1  0.27938400  0.03442300  0.47281600  1
  F  F15  1  0.96557700  0.72061600  0.02718400  1
loop_
_geom_bond_atom_site_label_1
_geom_bond_atom_site_label_2
_geom_bond_distance
_geom_bond_site_symmetry_2
K0 O8 2.857235 1_555
K0 O0 2.909159 1_555
K0 O4 3.021795 1_555
K1 O9 2.857235 1_555
K1 O1 2.909159 1_555
K1 O5 3.021795 1_555
K2 O10 2.857235 1_555
K2 O2 2.909159 1_555
K2 O6 3.021795 1_555
K3 O11 2.857235 1_555
K3 O3 2.909159 1_555
K3 O7 3.021795 1_555
K4 O5 2.826397 1_555
K4 O3 2.865794 1_555
K4 O1 2.888226 1_645
K4 O7 3.087623 1_555
K4 O8 3.264336 1_555
K5 O4 2.826397 1_555
K5 O2 2.865794 1_556
K5 O0 2.888226 1_645
K5 O6 3.087623 1_556
K5 O9 3.264336 1_555
K6 O7 2.826397 1_555
K6 O1 2.865794 1_555
K6 O3 2.888226 1_465
K6 O5 3.087623 1_555
K6 O10 3.264336 1_555
K7 O6 2.826397 1_555
K7 O0 2.865794 1_554
K7 O2 2.888226 1_465
K7 O4 3.087623 1_554
K7 O11 3.264336 1_555
O0 O4 1.463758 1_555
O0 Ti0 1.918876 1_555
O1 O5 1.463758 1_555
O1 Ti1 1.918876 1_555
O2 O6 1.463758 1_555
O2 Ti2 1.918876 1_555
O3 O7 1.463758 1_555
O3 Ti3 1.918876 1_555
O4 Ti0 1.914455 1_555
O5 Ti1 1.914455 1_555
O6 Ti2 1.914455 1_555
O7 Ti3 1.914455 1_555
O8 O9 1.243893 1_555
O10 O11 1.243893 1_555
F0 Ti2 1.907342 1_556
F0 K4 2.701129 1_555
F0 K5 2.869913 1_555
F0 K1 3.271841 1_645
F1 Ti3 1.907342 1_555
F1 K5 2.701129 1_555
F1 K4 2.869913 1_555
F1 K0 3.271841 1_645
F2 Ti0 1.907342 1_554
F2 K6 2.701129 1_555
F2 K7 2.869913 1_555
F2 K3 3.271841 1_465
F3 Ti1 1.907342 1_555
F3 K7 2.701129 1_555
F3 K6 2.869913 1_555
F3 K2 3.271841 1_465
F4 Ti0 2.046473 1_555
F4 Ti2 2.161586 1_566
F4 K1 2.705592 1_655
F4 K3 3.069974 1_556
F5 Ti1 2.046473 1_555
F5 Ti3 2.161586 1_455
F5 K0 2.705592 1_545
F5 K2 3.069974 1_555
F6 Ti2 2.046473 1_555
F6 Ti0 2.161586 1_544
F6 K3 2.705592 1_455
F6 K1 3.069974 1_554
F7 Ti3 2.046473 1_555
F7 Ti1 2.161586 1_655
F7 K2 2.705592 1_565
F7 K0 3.069974 1_555
F8 Ti0 1.917325 1_545
F8 K0 2.651161 1_545
F8 K1 2.903895 1_555
F8 K4 2.922286 1_555
F9 Ti1 1.917325 1_655
F9 K1 2.651161 1_655
F9 K0 2.903895 1_555
F9 K5 2.922286 1_555
F10 Ti2 1.917325 1_565
F10 K2 2.651161 1_565
F10 K3 2.903895 1_555
F10 K6 2.922286 1_555
F11 Ti3 1.917325 1_455
F11 K3 2.651161 1_455
F11 K2 2.903895 1_555
F11 K7 2.922286 1_555
F12 Ti1 1.964422 1_655
F12 K0 2.621193 1_555
F12 K4 2.670325 1_565
F12 K2 2.776508 1_565
F13 Ti0 1.964422 1_545
F13 K1 2.621193 1_555
F13 K5 2.670325 1_455
F13 K3 2.776508 1_456
F14 Ti3 1.964422 1_455
F14 K2 2.621193 1_555
F14 K6 2.670325 1_545
F14 K0 2.776508 1_545
F15 Ti2 1.964422 1_565
F15 K3 2.621193 1_555
F15 K7 2.670325 1_655
F15 K1 2.776508 1_654
