# generated using pymatgen
data_Li2Mn7(P2O7)4
_symmetry_space_group_name_H-M   'P 1'
_cell_length_a   6.67202827
_cell_length_b   6.67202827
_cell_length_c   24.49121000
_cell_angle_alpha   90.00000000
_cell_angle_beta   90.00000000
_cell_angle_gamma   97.39535416
_symmetry_Int_Tables_number   1
_chemical_formula_structural   Li2Mn7(P2O7)4
_chemical_formula_sum   'Li4 Mn14 P16 O56'
_cell_volume   1081.18062355
_cell_formula_units_Z   2
loop_
 _symmetry_equiv_pos_site_id
 _symmetry_equiv_pos_as_xyz
  1  'x, y, z'
loop_
 _atom_site_type_symbol
 _atom_site_label
 _atom_site_symmetry_multiplicity
 _atom_site_fract_x
 _atom_site_fract_y
 _atom_site_fract_z
 _atom_site_occupancy
  Li  Li0  1  0.66286300  0.03337400  0.20145400  1
  Li  Li1  1  0.96662600  0.33713700  0.29854600  1
  Li  Li2  1  0.03337400  0.66286300  0.79854600  1
  Li  Li3  1  0.33713700  0.96662600  0.70145400  1
  Mn  Mn0  1  0.33008400  0.03242500  0.36626300  1
  Mn  Mn1  1  0.07239500  0.07239500  0.50000000  1
  Mn  Mn2  1  0.71801300  0.28198700  0.75000000  1
  Mn  Mn3  1  0.57618300  0.29525400  0.11855600  1
  Mn  Mn4  1  0.30515400  0.30515400  0.00000000  1
  Mn  Mn5  1  0.03242500  0.33008400  0.63373700  1
  Mn  Mn6  1  0.70474600  0.42381700  0.38144400  1
  Mn  Mn7  1  0.29525400  0.57618300  0.88144400  1
  Mn  Mn8  1  0.96757500  0.66991600  0.13373700  1
  Mn  Mn9  1  0.69484600  0.69484600  0.50000000  1
  Mn  Mn10  1  0.42381700  0.70474600  0.61855600  1
  Mn  Mn11  1  0.28198700  0.71801300  0.25000000  1
  Mn  Mn12  1  0.92760500  0.92760500  0.00000000  1
  Mn  Mn13  1  0.66991600  0.96757500  0.86626300  1
  P  P0  1  0.17969700  0.07463500  0.87641600  1
  P  P1  1  0.59422700  0.18804500  0.49741500  1
  P  P2  1  0.51989200  0.23932600  0.62087400  1
  P  P3  1  0.07463500  0.17969700  0.12358400  1
  P  P4  1  0.29633700  0.21211600  0.23287200  1
  P  P5  1  0.21211600  0.29633700  0.76712800  1
  P  P6  1  0.81195500  0.40577300  0.00258500  1
  P  P7  1  0.76067400  0.48010800  0.87912600  1
  P  P8  1  0.23932600  0.51989200  0.37912600  1
  P  P9  1  0.18804500  0.59422700  0.50258500  1
  P  P10  1  0.78788400  0.70366300  0.26712800  1
  P  P11  1  0.70366300  0.78788400  0.73287200  1
  P  P12  1  0.92536500  0.82030300  0.62358400  1
  P  P13  1  0.48010800  0.76067400  0.12087400  1
  P  P14  1  0.40577300  0.81195500  0.99741500  1
  P  P15  1  0.82030300  0.92536500  0.37641600  1
  O  O0  1  0.74244400  0.02924500  0.49693700  1
  O  O1  1  0.42667700  0.02198400  0.62850400  1
  O  O2  1  0.67167300  0.08364800  0.36882200  1
  O  O3  1  0.28349600  0.03981700  0.27519800  1
  O  O4  1  0.02594800  0.01076100  0.40077200  1
  O  O5  1  0.01076100  0.02594800  0.59922800  1
  O  O6  1  0.38405700  0.10003000  0.47819900  1
  O  O7  1  0.13663400  0.12094400  0.18549500  1
  O  O8  1  0.12094400  0.13663400  0.81450500  1
  O  O9  1  0.97075500  0.25755600  0.00306300  1
  O  O10  1  0.39559800  0.20910900  0.74376700  1
  O  O11  1  0.70164900  0.28742400  0.84494300  1
  O  O12  1  0.71257600  0.29835100  0.65505700  1
  O  O13  1  0.50388600  0.25553300  0.20667300  1
  O  O14  1  0.91635200  0.32832700  0.13117800  1
  O  O15  1  0.59231700  0.27361800  0.55897200  1
  O  O16  1  0.61511200  0.32081400  0.03206000  1
  O  O17  1  0.28011800  0.26326100  0.90632700  1
  O  O18  1  0.26326100  0.28011800  0.09367300  1
  O  O19  1  0.67918600  0.38488800  0.46794000  1
  O  O20  1  0.03981700  0.28349600  0.72480200  1
  O  O21  1  0.72638200  0.40768300  0.94102800  1
  O  O22  1  0.38359300  0.36022600  0.37019300  1
  O  O23  1  0.36022600  0.38359300  0.62980700  1
  O  O24  1  0.10003000  0.38405700  0.52180100  1
  O  O25  1  0.20910900  0.39559800  0.25623300  1
  O  O26  1  0.74446700  0.49611400  0.29332700  1
  O  O27  1  0.02198400  0.42667700  0.37149600  1
  O  O28  1  0.97801600  0.57332300  0.87149600  1
  O  O29  1  0.25553300  0.50388600  0.79332700  1
  O  O30  1  0.79089100  0.60440200  0.75623300  1
  O  O31  1  0.89997000  0.61594300  0.02180100  1
  O  O32  1  0.63977400  0.61640700  0.12980700  1
  O  O33  1  0.61640700  0.63977400  0.87019300  1
  O  O34  1  0.27361800  0.59231700  0.44102800  1
  O  O35  1  0.96018300  0.71650400  0.22480200  1
  O  O36  1  0.32081400  0.61511200  0.96794000  1
  O  O37  1  0.73673900  0.71988200  0.59367300  1
  O  O38  1  0.71988200  0.73673900  0.40632700  1
  O  O39  1  0.38488800  0.67918600  0.53206000  1
  O  O40  1  0.40768300  0.72638200  0.05897200  1
  O  O41  1  0.08364800  0.67167300  0.63117800  1
  O  O42  1  0.49611400  0.74446700  0.70667300  1
  O  O43  1  0.28742400  0.70164900  0.15505700  1
  O  O44  1  0.29835100  0.71257600  0.34494300  1
  O  O45  1  0.60440200  0.79089100  0.24376700  1
  O  O46  1  0.02924500  0.74244400  0.50306300  1
  O  O47  1  0.87905600  0.86336600  0.31450500  1
  O  O48  1  0.86336600  0.87905600  0.68549500  1
  O  O49  1  0.61594300  0.89997000  0.97819900  1
  O  O50  1  0.98923900  0.97405200  0.09922800  1
  O  O51  1  0.97405200  0.98923900  0.90077200  1
  O  O52  1  0.71650400  0.96018300  0.77519800  1
  O  O53  1  0.32832700  0.91635200  0.86882200  1
  O  O54  1  0.57332300  0.97801600  0.12850400  1
  O  O55  1  0.25755600  0.97075500  0.99693700  1
loop_
_geom_bond_atom_site_label_1
_geom_bond_atom_site_label_2
_geom_bond_distance
_geom_bond_site_symmetry_2
Li0 O54 1.904883 1_545
Li0 O45 1.918606 1_545
Li0 O13 1.934742 1_555
Li1 O27 1.904883 1_655
Li1 O25 1.918606 1_655
Li1 O26 1.934742 1_555
Li2 O28 1.904883 1_455
Li2 O30 1.918606 1_455
Li2 O29 1.934742 1_555
Li3 O1 1.904883 1_565
Li3 O10 1.918606 1_565
Li3 O42 1.934742 1_555
Mn0 O22 2.172351 1_555
Mn0 O44 2.180663 1_545
Mn0 O4 2.185718 1_555
Mn0 O3 2.253264 1_555
Mn0 O2 2.261520 1_555
Mn1 O24 2.131750 1_555
Mn1 O6 2.131750 1_555
Mn1 O46 2.184423 1_545
Mn1 O0 2.184423 1_455
Mn1 O5 2.477554 1_555
Mn1 O4 2.477554 1_555
Mn2 O30 2.148945 1_555
Mn2 O10 2.148945 1_555
Mn2 O52 2.232792 1_545
Mn2 O20 2.232792 1_655
Mn2 O12 2.328332 1_555
Mn2 O11 2.328332 1_555
Mn3 O54 2.128241 1_545
Mn3 O16 2.138393 1_555
Mn3 O32 2.147848 1_555
Mn3 O18 2.164790 1_555
Mn3 O13 2.219767 1_555
Mn3 O14 2.272991 1_555
Mn4 O36 2.201962 1_554
Mn4 O16 2.201962 1_555
Mn4 O9 2.214040 1_455
Mn4 O55 2.214040 1_544
Mn4 O18 2.314563 1_555
Mn4 O17 2.314563 1_554
Mn5 O23 2.172351 1_555
Mn5 O12 2.180663 1_455
Mn5 O5 2.185718 1_555
Mn5 O20 2.253264 1_555
Mn5 O41 2.261520 1_555
Mn6 O27 2.128241 1_655
Mn6 O19 2.138393 1_555
Mn6 O22 2.147848 1_555
Mn6 O38 2.164790 1_555
Mn6 O26 2.219767 1_555
Mn6 O2 2.272991 1_555
Mn7 O28 2.128241 1_455
Mn7 O36 2.138393 1_555
Mn7 O33 2.147848 1_555
Mn7 O17 2.164790 1_555
Mn7 O29 2.219767 1_555
Mn7 O53 2.272991 1_555
Mn8 O32 2.172351 1_555
Mn8 O43 2.180663 1_655
Mn8 O50 2.185718 1_555
Mn8 O35 2.253264 1_555
Mn8 O14 2.261520 1_555
Mn9 O19 2.201962 1_555
Mn9 O39 2.201962 1_555
Mn9 O46 2.214040 1_655
Mn9 O0 2.214040 1_565
Mn9 O38 2.314563 1_555
Mn9 O37 2.314563 1_555
Mn10 O1 2.128241 1_565
Mn10 O39 2.138393 1_555
Mn10 O23 2.147848 1_555
Mn10 O37 2.164790 1_555
Mn10 O42 2.219767 1_555
Mn10 O41 2.272991 1_555
Mn11 O25 2.148945 1_555
Mn11 O45 2.148945 1_555
Mn11 O35 2.232792 1_455
Mn11 O3 2.232792 1_565
Mn11 O44 2.328332 1_555
Mn11 O43 2.328332 1_555
Mn12 O31 2.131750 1_555
Mn12 O49 2.131750 1_554
Mn12 O9 2.184423 1_565
Mn12 O55 2.184423 1_654
Mn12 O50 2.477554 1_555
Mn12 O51 2.477554 1_554
Mn13 O33 2.172351 1_555
Mn13 O11 2.180663 1_565
Mn13 O51 2.185718 1_555
Mn13 O52 2.253264 1_555
Mn13 O53 2.261520 1_555
O0 P1 1.539604 1_555
O1 P2 1.514059 1_555
O2 P15 1.550118 1_545
O3 P4 1.542109 1_555
O4 P15 1.536808 1_445
O5 P12 1.536808 1_445
O6 P1 1.523379 1_555
O7 P3 1.632671 1_555
O7 P4 1.638565 1_555
O8 P0 1.632671 1_555
O8 P5 1.638565 1_555
O9 P6 1.539604 1_555
O10 P5 1.532358 1_555
O11 P7 1.542201 1_555
O12 P2 1.542201 1_555
O13 P4 1.519853 1_555
O14 P3 1.550118 1_655
O15 P2 1.598691 1_555
O15 P1 1.612727 1_555
O16 P6 1.541313 1_555
O17 P0 1.533738 1_555
O18 P3 1.533738 1_555
O19 P1 1.541313 1_555
O20 P5 1.542109 1_555
O21 P7 1.598691 1_555
O21 P6 1.612727 1_556
O22 P8 1.540519 1_555
O23 P2 1.540519 1_555
O24 P9 1.523379 1_555
O25 P4 1.532358 1_555
O26 P10 1.519853 1_555
O27 P8 1.514059 1_555
O28 P7 1.514059 1_555
O29 P5 1.519853 1_555
O30 P11 1.532358 1_555
O31 P6 1.523379 1_555
O32 P13 1.540519 1_555
O33 P7 1.540519 1_555
O34 P8 1.598691 1_555
O34 P9 1.612727 1_555
O35 P10 1.542109 1_555
O36 P14 1.541313 1_555
O37 P12 1.533738 1_555
O38 P15 1.533738 1_555
O39 P9 1.541313 1_555
O40 P13 1.598691 1_555
O40 P14 1.612727 1_554
O41 P12 1.550118 1_455
O42 P11 1.519853 1_555
O43 P13 1.542201 1_555
O44 P8 1.542201 1_555
O45 P10 1.532358 1_555
O46 P9 1.539604 1_555
O47 P15 1.632671 1_555
O47 P10 1.638565 1_555
O48 P12 1.632671 1_555
O48 P11 1.638565 1_555
O49 P14 1.523379 1_555
O50 P3 1.536808 1_665
O51 P0 1.536808 1_665
O52 P11 1.542109 1_555
O53 P0 1.550118 1_565
O54 P13 1.514059 1_555
O55 P14 1.539604 1_555
