# generated using pymatgen
data_LiVCrP2(O4F)2
_symmetry_space_group_name_H-M   'P 1'
_cell_length_a   6.87950600
_cell_length_b   7.32622674
_cell_length_c   7.93949474
_cell_angle_alpha   87.31985265
_cell_angle_beta   87.96919781
_cell_angle_gamma   62.23224987
_symmetry_Int_Tables_number   1
_chemical_formula_structural   LiVCrP2(O4F)2
_chemical_formula_sum   'Li2 V2 Cr2 P4 O16 F4'
_cell_volume   353.64680509
_cell_formula_units_Z   2
loop_
 _symmetry_equiv_pos_site_id
 _symmetry_equiv_pos_as_xyz
  1  'x, y, z'
loop_
 _atom_site_type_symbol
 _atom_site_label
 _atom_site_symmetry_multiplicity
 _atom_site_fract_x
 _atom_site_fract_y
 _atom_site_fract_z
 _atom_site_occupancy
  Li  Li0  1  0.24893800  0.81926300  0.32043100  1
  Li  Li1  1  0.75106200  0.18073700  0.67956900  1
  V  V0  1  0.00000000  0.00000000  0.00000000  1
  V  V1  1  0.50000000  0.00000000  0.50000000  1
  Cr  Cr0  1  0.50000000  0.50000000  0.00000000  1
  Cr  Cr1  1  0.00000000  0.50000000  0.50000000  1
  P  P0  1  0.27510500  0.24438900  0.83962200  1
  P  P1  1  0.77819700  0.24120500  0.33800600  1
  P  P2  1  0.22180300  0.75879500  0.66199400  1
  P  P3  1  0.72489500  0.75561100  0.16037800  1
  O  O0  1  0.41305200  0.60252500  0.76510000  1
  O  O1  1  0.29306800  0.91138900  0.56308600  1
  O  O2  1  0.20372700  0.08643300  0.92979600  1
  O  O3  1  0.33780600  0.33879000  0.98103000  1
  O  O4  1  0.08048100  0.39634600  0.73483700  1
  O  O5  1  0.83615400  0.33418900  0.48657300  1
  O  O6  1  0.01463400  0.89598700  0.76834900  1
  O  O7  1  0.48137500  0.11860300  0.72435500  1
  O  O8  1  0.51862500  0.88139700  0.27564500  1
  O  O9  1  0.98536600  0.10401300  0.23165100  1
  O  O10  1  0.16384600  0.66581100  0.51342700  1
  O  O11  1  0.91951900  0.60365400  0.26516300  1
  O  O12  1  0.66219400  0.66121000  0.01897000  1
  O  O13  1  0.79627300  0.91356700  0.07020400  1
  O  O14  1  0.70693200  0.08861100  0.43691400  1
  O  O15  1  0.58694800  0.39747500  0.23490000  1
  F  F0  1  0.76567800  0.26291800  0.90582300  1
  F  F1  1  0.73112600  0.73859600  0.58419800  1
  F  F2  1  0.26887400  0.26140400  0.41580200  1
  F  F3  1  0.23432200  0.73708200  0.09417700  1
loop_
_geom_bond_atom_site_label_1
_geom_bond_atom_site_label_2
_geom_bond_distance
_geom_bond_site_symmetry_2
Li0 O10 2.083990 1_555
Li0 O8 2.121528 1_555
Li0 O9 2.136617 1_465
Li0 O1 2.147864 1_555
Li1 O5 2.083990 1_555
Li1 O7 2.121528 1_555
Li1 O6 2.136617 1_645
Li1 O14 2.147864 1_555
Cr0 O12 1.979676 1_555
Cr0 O3 1.979676 1_554
Cr0 O0 1.982315 1_554
Cr0 O15 1.982315 1_555
Cr0 F0 1.995778 1_554
Cr0 F3 1.995778 1_555
Cr1 O4 1.976998 1_555
Cr1 O11 1.976998 1_455
Cr1 F1 1.983124 1_455
Cr1 F2 1.983124 1_555
Cr1 O10 2.013464 1_555
Cr1 O5 2.013464 1_455
O0 P2 1.515605 1_555
O1 P2 1.583705 1_555
O1 V1 1.865234 1_565
O2 P0 1.587430 1_555
O2 V0 1.847849 1_556
O3 P0 1.519791 1_555
O4 P0 1.525660 1_555
O5 P1 1.541405 1_555
O6 P2 1.553646 1_555
O6 V0 2.004970 1_566
O7 P0 1.571231 1_555
O7 V1 1.992277 1_555
O8 P3 1.571231 1_555
O8 V1 1.992277 1_565
O9 P1 1.553646 1_555
O9 V0 2.004970 1_655
O10 P2 1.541405 1_555
O11 P3 1.525660 1_555
O12 P3 1.519791 1_555
O13 P3 1.587430 1_555
O13 V0 1.847849 1_665
O14 P1 1.583705 1_555
O14 V1 1.865234 1_555
O15 P1 1.515605 1_555
F0 Li1 1.941600 1_555
F0 V0 1.981269 1_656
F1 V1 1.939324 1_565
F2 V1 1.939324 1_555
F3 Li0 1.941600 1_555
F3 V0 1.981269 1_565
