# generated using pymatgen
data_Li5Fe8(BO3)8
_symmetry_space_group_name_H-M   'P 1'
_cell_length_a   5.25138200
_cell_length_b   9.12913787
_cell_length_c   10.14163181
_cell_angle_alpha   88.09942862
_cell_angle_beta   89.24572777
_cell_angle_gamma   89.14734188
_symmetry_Int_Tables_number   1
_chemical_formula_structural   Li5Fe8(BO3)8
_chemical_formula_sum   'Li5 Fe8 B8 O24'
_cell_volume   485.83548986
_cell_formula_units_Z   1
loop_
 _symmetry_equiv_pos_site_id
 _symmetry_equiv_pos_as_xyz
  1  'x, y, z'
loop_
 _atom_site_type_symbol
 _atom_site_label
 _atom_site_symmetry_multiplicity
 _atom_site_fract_x
 _atom_site_fract_y
 _atom_site_fract_z
 _atom_site_occupancy
  Li  Li0  1  0.17634200  0.16698400  0.15457200  1
  Li  Li1  1  0.32072800  0.33076100  0.42136300  1
  Li  Li2  1  0.33564600  0.32449900  0.90473800  1
  Li  Li3  1  0.65756600  0.67197800  0.65370800  1
  Li  Li4  1  0.83361600  0.82978500  0.39143800  1
  Fe  Fe0  1  0.16094200  0.84163300  0.63427200  1
  Fe  Fe1  1  0.17229600  0.50502800  0.13538600  1
  Fe  Fe2  1  0.31386700  0.99457900  0.87835900  1
  Fe  Fe3  1  0.34606900  0.66242700  0.37574900  1
  Fe  Fe4  1  0.67373300  0.33713200  0.63001800  1
  Fe  Fe5  1  0.66690400  0.99781000  0.12583700  1
  Fe  Fe6  1  0.83377600  0.15846500  0.38297600  1
  Fe  Fe7  1  0.83260500  0.49881700  0.88132500  1
  B  B0  1  0.16930600  0.50896500  0.63182100  1
  B  B1  1  0.16929500  0.83684200  0.13630900  1
  B  B2  1  0.33309500  0.99883600  0.37486200  1
  B  B3  1  0.32466900  0.65859500  0.86790800  1
  B  B4  1  0.66042500  0.99469900  0.62461900  1
  B  B5  1  0.66795800  0.32400100  0.11859200  1
  B  B6  1  0.83747100  0.49845800  0.38268600  1
  B  B7  1  0.83015900  0.17305000  0.88741600  1
  O  O0  1  0.09679400  0.48769600  0.34760600  1
  O  O1  1  0.08914900  0.17239500  0.88980000  1
  O  O2  1  0.19033200  0.78634700  0.83260800  1
  O  O3  1  0.20595100  0.87667900  0.42837700  1
  O  O4  1  0.21306000  0.13341100  0.35772200  1
  O  O5  1  0.19396200  0.53426300  0.91335400  1
  O  O6  1  0.29973300  0.38146900  0.61850800  1
  O  O7  1  0.30470700  0.96358500  0.09466800  1
  O  O8  1  0.28671600  0.64333500  0.59653600  1
  O  O9  1  0.29707500  0.70968100  0.16849300  1
  O  O10  1  0.40743700  0.32633200  0.11093900  1
  O  O11  1  0.40883800  0.98822800  0.66921100  1
  O  O12  1  0.58724900  0.98270600  0.33341500  1
  O  O13  1  0.58438100  0.64985200  0.85274300  1
  O  O14  1  0.69602900  0.30216700  0.84450600  1
  O  O15  1  0.70124900  0.37057600  0.41340500  1
  O  O16  1  0.72192400  0.63361900  0.39208600  1
  O  O17  1  0.68379000  0.05496400  0.93109500  1
  O  O18  1  0.81420300  0.44215600  0.07535800  1
  O  O19  1  0.79756000  0.86287600  0.61333800  1
  O  O20  1  0.76792500  0.12492500  0.58781700  1
  O  O21  1  0.79813500  0.19588900  0.16469500  1
  O  O22  1  0.90968100  0.84866900  0.14789700  1
  O  O23  1  0.91476600  0.51320400  0.67744000  1
loop_
_geom_bond_atom_site_label_1
_geom_bond_atom_site_label_2
_geom_bond_distance
_geom_bond_site_symmetry_2
Li0 O10 1.944337 1_555
Li0 O21 2.001408 1_455
Li0 O7 2.073210 1_545
Li0 O4 2.083904 1_555
Li1 O0 1.974063 1_555
Li1 O4 2.024648 1_555
Li1 O15 2.036443 1_555
Li1 O6 2.068335 1_555
Li2 O1 1.923360 1_555
Li2 O14 1.990636 1_555
Li2 O5 2.048242 1_555
Li2 O10 2.130459 1_556
Li3 O19 1.930826 1_555
Li3 O23 1.977451 1_555
Li3 O13 2.053740 1_555
Li3 O8 2.062078 1_555
Li4 O16 1.892487 1_555
Li4 O12 1.969980 1_555
Li4 O3 2.049766 1_655
Li4 O19 2.285544 1_555
Li4 O22 2.497505 1_555
Fe0 O11 1.925276 1_555
Fe0 O19 1.929003 1_455
Fe0 O8 1.965596 1_555
Fe0 O2 2.064705 1_555
Fe0 O3 2.112671 1_555
Fe1 O9 2.028917 1_555
Fe1 O10 2.050933 1_555
Fe1 O18 2.078873 1_455
Fe1 O0 2.184322 1_555
Fe1 O5 2.260293 1_554
Fe2 O1 1.998262 1_565
Fe2 O2 2.086382 1_555
Fe2 O17 2.107709 1_565
Fe2 O11 2.174997 1_555
Fe2 O7 2.202558 1_556
Fe3 O16 1.995647 1_555
Fe3 O0 2.107536 1_555
Fe3 O9 2.149680 1_555
Fe3 O3 2.160567 1_555
Fe3 O8 2.258015 1_555
Fe4 O6 2.003512 1_555
Fe4 O20 2.049816 1_555
Fe4 O23 2.131897 1_555
Fe4 O14 2.192461 1_555
Fe4 O15 2.211003 1_555
Fe5 O22 1.861414 1_555
Fe5 O7 1.963504 1_555
Fe5 O21 1.997910 1_565
Fe5 O17 2.027104 1_564
Fe5 O12 2.141272 1_555
Fe6 O4 2.015424 1_655
Fe6 O15 2.079198 1_555
Fe6 O20 2.114489 1_555
Fe6 O12 2.153045 1_545
Fe6 O21 2.238565 1_555
Fe7 O13 1.901124 1_555
Fe7 O5 1.962823 1_655
Fe7 O14 1.991624 1_555
Fe7 O18 2.019443 1_556
Fe7 O23 2.106914 1_555
B0 O6 1.351421 1_555
B0 O23 1.409128 1_455
B0 O8 1.414405 1_555
B1 O9 1.364505 1_555
B1 O22 1.369812 1_455
B1 O7 1.416669 1_555
B2 O4 1.379338 1_565
B2 O3 1.398740 1_555
B2 O12 1.401132 1_555
B3 O13 1.371916 1_555
B3 O2 1.393009 1_555
B3 O5 1.397155 1_555
B4 O20 1.362480 1_565
B4 O11 1.392244 1_555
B4 O19 1.400399 1_555
B5 O10 1.371124 1_555
B5 O18 1.389233 1_555
B5 O21 1.414968 1_555
B6 O16 1.372511 1_555
B6 O15 1.402354 1_555
B6 O0 1.405815 1_655
B7 O1 1.360509 1_655
B7 O17 1.390392 1_555
B7 O14 1.422760 1_555
