# generated using pymatgen
data_Li19(CoO4)4
_symmetry_space_group_name_H-M   'P 1'
_cell_length_a   6.72528800
_cell_length_b   7.18369700
_cell_length_c   7.86916250
_cell_angle_alpha   89.85996339
_cell_angle_beta   90.00000000
_cell_angle_gamma   90.00000000
_symmetry_Int_Tables_number   1
_chemical_formula_structural   Li19(CoO4)4
_chemical_formula_sum   'Li19 Co4 O16'
_cell_volume   380.17723677
_cell_formula_units_Z   1
loop_
 _symmetry_equiv_pos_site_id
 _symmetry_equiv_pos_as_xyz
  1  'x, y, z'
loop_
 _atom_site_type_symbol
 _atom_site_label
 _atom_site_symmetry_multiplicity
 _atom_site_fract_x
 _atom_site_fract_y
 _atom_site_fract_z
 _atom_site_occupancy
  Li  Li0  1  0.76278200  0.50224000  0.01967500  1
  Li  Li1  1  0.23721800  0.50224000  0.01967500  1
  Li  Li2  1  0.50000000  0.75438100  0.91552100  1
  Li  Li3  1  0.73911600  0.99820800  0.84207900  1
  Li  Li4  1  0.26088400  0.99820800  0.84207900  1
  Li  Li5  1  0.00000000  0.74025800  0.73720900  1
  Li  Li6  1  0.74633700  0.46269400  0.65996400  1
  Li  Li7  1  0.25366300  0.46269400  0.65996400  1
  Li  Li8  1  0.00000000  0.24732900  0.58594000  1
  Li  Li9  1  0.24613100  0.99758200  0.48774500  1
  Li  Li10  1  0.75386900  0.99758200  0.48774500  1
  Li  Li11  1  0.00000000  0.74353400  0.41831700  1
  Li  Li12  1  0.75400500  0.51527900  0.34150500  1
  Li  Li13  1  0.24599500  0.51527900  0.34150500  1
  Li  Li14  1  0.00000000  0.25743700  0.27022900  1
  Li  Li15  1  0.50000000  0.75689100  0.22350400  1
  Li  Li16  1  0.25716500  0.02152400  0.16375200  1
  Li  Li17  1  0.74283500  0.02152400  0.16375200  1
  Li  Li18  1  0.50000000  0.26448300  0.06104800  1
  Co  Co0  1  0.00000000  0.23619800  0.89679400  1
  Co  Co1  1  0.50000000  0.72968100  0.60228700  1
  Co  Co2  1  0.50000000  0.26344300  0.38249200  1
  Co  Co3  1  0.00000000  0.77638100  0.10934900  1
  O  O0  1  0.75677900  0.21940500  0.99778800  1
  O  O1  1  0.24322100  0.21940500  0.99778800  1
  O  O2  1  0.00000000  0.46611200  0.77583800  1
  O  O3  1  0.50000000  0.55244100  0.75756300  1
  O  O4  1  0.00000000  0.02825700  0.73274900  1
  O  O5  1  0.50000000  0.94030300  0.71189200  1
  O  O6  1  0.74926800  0.71216400  0.52383300  1
  O  O7  1  0.25073200  0.71216400  0.52383300  1
  O  O8  1  0.75612500  0.28183000  0.46641300  1
  O  O9  1  0.24387500  0.28183000  0.46641300  1
  O  O10  1  0.50000000  0.01844700  0.29482700  1
  O  O11  1  0.00000000  0.96908000  0.28209300  1
  O  O12  1  0.50000000  0.47566900  0.22256700  1
  O  O13  1  0.00000000  0.53777400  0.21652600  1
  O  O14  1  0.74629500  0.78972200  0.02356400  1
  O  O15  1  0.25370500  0.78972200  0.02356400  1
loop_
_geom_bond_atom_site_label_1
_geom_bond_atom_site_label_2
_geom_bond_distance
_geom_bond_site_symmetry_2
Li0 O0 2.039907 1_554
Li0 O14 2.068459 1_555
Li0 O13 2.238711 1_655
Li0 O12 2.389004 1_555
Li0 O2 2.509328 1_654
Li1 O1 2.039907 1_554
Li1 O15 2.068459 1_555
Li1 O13 2.238711 1_555
Li1 O12 2.389004 1_555
Li1 O2 2.509328 1_554
Li2 O15 1.879372 1_556
Li2 O14 1.879372 1_556
Li2 O3 1.912673 1_555
Li2 O5 2.083516 1_555
Li3 O5 1.952102 1_555
Li3 O4 1.965759 1_665
Li3 O0 2.012448 1_565
Li3 O14 2.067499 1_556
Li4 O5 1.952102 1_555
Li4 O4 1.965759 1_565
Li4 O1 2.012448 1_565
Li4 O15 2.067499 1_556
Li5 O2 1.991969 1_555
Li5 O4 2.069109 1_565
Li5 O6 2.388546 1_455
Li5 O7 2.388546 1_555
Li6 O2 1.934538 1_655
Li6 O3 1.937150 1_555
Li6 O8 2.005468 1_555
Li6 O6 2.085722 1_555
Li7 O2 1.934538 1_555
Li7 O3 1.937150 1_555
Li7 O9 2.005468 1_555
Li7 O7 2.085722 1_555
Li8 O8 1.906567 1_455
Li8 O9 1.906567 1_555
Li8 O4 1.949981 1_555
Li8 O2 2.171331 1_555
Li9 O9 2.048487 1_565
Li9 O7 2.069473 1_555
Li9 O10 2.289325 1_565
Li9 O11 2.324326 1_555
Li9 O5 2.488362 1_555
Li9 O4 2.551030 1_565
Li10 O8 2.048487 1_565
Li10 O6 2.069473 1_555
Li10 O10 2.289325 1_565
Li10 O11 2.324326 1_655
Li10 O5 2.488362 1_555
Li10 O4 2.551030 1_665
Li11 O6 1.892809 1_455
Li11 O7 1.892809 1_555
Li11 O11 1.940580 1_555
Li11 O13 2.172053 1_555
Li12 O13 1.931209 1_655
Li12 O8 1.941829 1_555
Li12 O12 1.968857 1_555
Li12 O6 2.017403 1_555
Li13 O13 1.931209 1_555
Li13 O9 1.941829 1_555
Li13 O12 1.968857 1_555
Li13 O7 2.017403 1_555
Li14 O13 2.056707 1_555
Li14 O11 2.073344 1_545
Li14 O8 2.259510 1_455
Li14 O9 2.259510 1_555
Li15 O10 1.962287 1_565
Li15 O12 2.020245 1_555
Li15 O14 2.296290 1_555
Li15 O15 2.296290 1_555
Li16 O1 1.930301 1_554
Li16 O10 1.931683 1_555
Li16 O11 1.999659 1_545
Li16 O15 1.999841 1_545
Li17 O0 1.930301 1_554
Li17 O10 1.931683 1_555
Li17 O11 1.999659 1_645
Li17 O14 1.999841 1_545
Li18 O1 1.826386 1_554
Li18 O0 1.826386 1_554
Li18 O12 1.981539 1_555
Co0 O1 1.822446 1_555
Co0 O0 1.822446 1_455
Co0 O2 1.904251 1_555
Co0 O4 1.976673 1_555
Co1 O5 1.743442 1_555
Co1 O3 1.762541 1_555
Co1 O7 1.790997 1_555
Co1 O6 1.790997 1_555
Co2 O9 1.849606 1_555
Co2 O8 1.849606 1_555
Co2 O10 1.891916 1_555
Co2 O12 1.974510 1_555
Co3 O14 1.837341 1_455
Co3 O15 1.837341 1_555
Co3 O13 1.908486 1_555
Co3 O11 1.942497 1_555
