# generated using pymatgen
data_LiMnPO4
_symmetry_space_group_name_H-M   'P 1'
_cell_length_a   8.22952000
_cell_length_b   5.10752100
_cell_length_c   10.67378391
_cell_angle_alpha   62.60525436
_cell_angle_beta   90.00000000
_cell_angle_gamma   90.00000000
_symmetry_Int_Tables_number   1
_chemical_formula_structural   LiMnPO4
_chemical_formula_sum   'Li4 Mn4 P4 O16'
_cell_volume   398.33308634
_cell_formula_units_Z   4
loop_
 _symmetry_equiv_pos_site_id
 _symmetry_equiv_pos_as_xyz
  1  'x, y, z'
loop_
 _atom_site_type_symbol
 _atom_site_label
 _atom_site_symmetry_multiplicity
 _atom_site_fract_x
 _atom_site_fract_y
 _atom_site_fract_z
 _atom_site_occupancy
  Li  Li0  1  0.04642300  0.05710800  0.62451000  1
  Li  Li1  1  0.54642300  0.94289200  0.87549000  1
  Li  Li2  1  0.45357700  0.05710800  0.12451000  1
  Li  Li3  1  0.95357700  0.94289200  0.37549000  1
  Mn  Mn0  1  0.32722200  0.33221000  0.40879600  1
  Mn  Mn1  1  0.82722200  0.66779000  0.09120400  1
  Mn  Mn2  1  0.17277800  0.33221000  0.90879600  1
  Mn  Mn3  1  0.67277800  0.66779000  0.59120400  1
  P  P0  1  0.25584600  0.68377500  0.06962700  1
  P  P1  1  0.75584600  0.31622500  0.43037300  1
  P  P2  1  0.24415400  0.68377500  0.56962700  1
  P  P3  1  0.74415400  0.31622500  0.93037300  1
  O  O0  1  0.18666000  0.40694300  0.55707900  1
  O  O1  1  0.32852800  0.97073500  0.94490200  1
  O  O2  1  0.32117600  0.68046400  0.20722300  1
  O  O3  1  0.57033700  0.29372900  0.44062800  1
  O  O4  1  0.07033700  0.70627100  0.05937200  1
  O  O5  1  0.82117600  0.31953600  0.29277700  1
  O  O6  1  0.82852800  0.02926500  0.55509800  1
  O  O7  1  0.68666000  0.59305700  0.94292100  1
  O  O8  1  0.31334000  0.40694300  0.05707900  1
  O  O9  1  0.17147200  0.97073500  0.44490200  1
  O  O10  1  0.17882400  0.68046400  0.70722300  1
  O  O11  1  0.92966300  0.29372900  0.94062800  1
  O  O12  1  0.42966300  0.70627100  0.55937200  1
  O  O13  1  0.67882400  0.31953600  0.79277700  1
  O  O14  1  0.67147200  0.02926500  0.05509800  1
  O  O15  1  0.81334000  0.59305700  0.44292100  1
loop_
_geom_bond_atom_site_label_1
_geom_bond_atom_site_label_2
_geom_bond_distance
_geom_bond_site_symmetry_2
Li0 O0 1.964460 1_555
Li0 O6 1.970167 1_455
Li0 O10 2.025943 1_545
Li0 O9 2.388971 1_545
Li1 O7 1.964460 1_555
Li1 O1 1.970167 1_555
Li1 O13 2.025943 1_565
Li1 O14 2.388971 1_566
Li2 O8 1.964460 1_555
Li2 O14 1.970167 1_555
Li2 O2 2.025943 1_545
Li2 O1 2.388971 1_544
Li3 O15 1.964460 1_555
Li3 O9 1.970167 1_655
Li3 O5 2.025943 1_565
Li3 O6 2.388971 1_565
Mn0 O3 2.023734 1_555
Mn0 O2 2.067298 1_555
Mn0 O0 2.131853 1_555
Mn0 O9 2.131957 1_545
Mn1 O4 2.023734 1_655
Mn1 O5 2.067298 1_555
Mn1 O7 2.131853 1_554
Mn1 O14 2.131957 1_565
Mn2 O11 2.023734 1_455
Mn2 O10 2.067298 1_555
Mn2 O8 2.131853 1_556
Mn2 O1 2.131957 1_545
Mn3 O12 2.023734 1_555
Mn3 O13 2.067298 1_555
Mn3 O15 2.131853 1_555
Mn3 O6 2.131957 1_565
O0 P2 1.554111 1_555
O1 P0 1.575648 1_556
O2 P0 1.556751 1_555
O3 P1 1.531101 1_555
O4 P0 1.531101 1_555
O5 P1 1.556751 1_555
O6 P1 1.575648 1_555
O7 P3 1.554111 1_555
O8 P0 1.554111 1_555
O9 P2 1.575648 1_555
O10 P2 1.556751 1_555
O11 P3 1.531101 1_555
O12 P2 1.531101 1_555
O13 P3 1.556751 1_555
O14 P3 1.575648 1_554
O15 P1 1.554111 1_555
