# generated using pymatgen
data_Li9Fe4(BO3)8
_symmetry_space_group_name_H-M   'P 1'
_cell_length_a   8.30593200
_cell_length_b   8.35491832
_cell_length_c   8.83675813
_cell_angle_alpha   68.24712049
_cell_angle_beta   68.18926459
_cell_angle_gamma   74.48215663
_symmetry_Int_Tables_number   1
_chemical_formula_structural   Li9Fe4(BO3)8
_chemical_formula_sum   'Li9 Fe4 B8 O24'
_cell_volume   522.76206415
_cell_formula_units_Z   1
loop_
 _symmetry_equiv_pos_site_id
 _symmetry_equiv_pos_as_xyz
  1  'x, y, z'
loop_
 _atom_site_type_symbol
 _atom_site_label
 _atom_site_symmetry_multiplicity
 _atom_site_fract_x
 _atom_site_fract_y
 _atom_site_fract_z
 _atom_site_occupancy
  Li  Li0  1  0.60011900  0.76292000  0.89382600  1
  Li  Li1  1  0.24623100  0.92999700  0.41687900  1
  Li  Li2  1  0.89594600  0.73738300  0.10267600  1
  Li  Li3  1  0.24329900  0.57874700  0.58086300  1
  Li  Li4  1  0.74973400  0.43006800  0.41858800  1
  Li  Li5  1  0.44477100  0.27271600  0.76053900  1
  Li  Li6  1  0.09416300  0.26528600  0.90053700  1
  Li  Li7  1  0.76009200  0.06976200  0.57747100  1
  Li  Li8  1  0.40028700  0.23327300  0.12473000  1
  Fe  Fe0  1  0.25424800  0.90574100  0.77931600  1
  Fe  Fe1  1  0.75861600  0.40869400  0.77599700  1
  Fe  Fe2  1  0.24172000  0.58924600  0.22403600  1
  Fe  Fe3  1  0.74367900  0.09097700  0.22351000  1
  B  B0  1  0.96586900  0.80020600  0.39837400  1
  B  B1  1  0.52964900  0.69931200  0.59965900  1
  B  B2  1  0.30500400  0.95528300  0.05899800  1
  B  B3  1  0.21010800  0.54076800  0.93077000  1
  B  B4  1  0.79557200  0.45249700  0.06632100  1
  B  B5  1  0.69588600  0.05144000  0.93082300  1
  B  B6  1  0.46596700  0.30089900  0.41425700  1
  B  B7  1  0.03347200  0.20103400  0.60165500  1
  O  O0  1  0.70834000  0.96279200  0.82691200  1
  O  O1  1  0.82402600  0.93419600  0.40627500  1
  O  O2  1  0.48970200  0.79214900  0.71457500  1
  O  O3  1  0.76107700  0.97394800  0.07009200  1
  O  O4  1  0.12780900  0.71566700  0.90527200  1
  O  O5  1  0.73698800  0.53393800  0.92310600  1
  O  O6  1  0.42583200  0.74050700  0.49917400  1
  O  O7  1  0.07105900  0.76630000  0.49569700  1
  O  O8  1  0.66716800  0.56115700  0.59740500  1
  O  O9  1  0.37013600  0.77789700  0.08563600  1
  O  O10  1  0.23841300  0.44958800  0.82205300  1
  O  O11  1  0.00522500  0.70657400  0.28422300  1
  O  O12  1  0.99397000  0.29277100  0.71846700  1
  O  O13  1  0.78082600  0.53797600  0.17364000  1
  O  O14  1  0.61277700  0.22793900  0.90064800  1
  O  O15  1  0.92754500  0.24110800  0.50345700  1
  O  O16  1  0.32518200  0.43790100  0.40821600  1
  O  O17  1  0.55526500  0.26301200  0.52766500  1
  O  O18  1  0.26250400  0.46157700  0.07849100  1
  O  O19  1  0.87508800  0.27757100  0.09080300  1
  O  O20  1  0.25804800  0.04633700  0.90828800  1
  O  O21  1  0.51405300  0.20965700  0.29487500  1
  O  O22  1  0.17269100  0.06448600  0.59627400  1
  O  O23  1  0.29224100  0.03821900  0.16784700  1
loop_
_geom_bond_atom_site_label_1
_geom_bond_atom_site_label_2
_geom_bond_distance
_geom_bond_site_symmetry_2
Li0 O0 1.903303 1_555
Li0 O5 1.925437 1_555
Li0 O2 2.020574 1_555
Li0 O9 2.039834 1_556
Li1 O23 1.972693 1_565
Li1 O6 1.987380 1_555
Li1 O7 2.019467 1_555
Li1 O22 2.093388 1_565
Li2 O13 1.927595 1_555
Li2 O3 1.969116 1_555
Li2 O11 2.028495 1_655
Li2 O4 2.082310 1_654
Li3 O7 1.948060 1_555
Li3 O10 1.990765 1_555
Li3 O6 2.050904 1_555
Li3 O16 2.075167 1_555
Li4 O13 1.956406 1_555
Li4 O15 1.983415 1_555
Li4 O8 2.059708 1_555
Li4 O17 2.130354 1_555
Li5 O17 1.940119 1_555
Li5 O10 1.991182 1_555
Li5 O14 2.069136 1_555
Li5 O20 2.433479 1_555
Li6 O20 1.961626 1_555
Li6 O10 1.966145 1_555
Li6 O19 1.975611 1_456
Li6 O12 1.988141 1_455
Li7 O0 1.970672 1_545
Li7 O15 2.026599 1_555
Li7 O1 2.050548 1_545
Li7 O17 2.062730 1_555
Li8 O23 1.916915 1_555
Li8 O18 1.927900 1_555
Li8 O21 1.982046 1_555
Li8 O14 2.112901 1_554
Fe0 O4 1.891383 1_555
Fe0 O22 1.891457 1_565
Fe0 O2 1.905402 1_555
Fe0 O20 1.928371 1_565
Fe1 O5 1.884487 1_555
Fe1 O8 1.890280 1_555
Fe1 O12 1.905593 1_555
Fe1 O14 1.927610 1_555
Fe2 O16 1.890067 1_555
Fe2 O18 1.890789 1_555
Fe2 O9 1.902399 1_555
Fe2 O11 1.918883 1_555
Fe3 O1 1.880073 1_545
Fe3 O3 1.891092 1_545
Fe3 O21 1.891118 1_555
Fe3 O19 1.897688 1_555
B0 O7 1.352249 1_655
B0 O1 1.391836 1_555
B0 O11 1.392623 1_655
B1 O6 1.354301 1_555
B1 O8 1.389996 1_555
B1 O2 1.392360 1_555
B2 O23 1.339971 1_565
B2 O9 1.396987 1_555
B2 O20 1.407394 1_564
B3 O10 1.355496 1_555
B3 O18 1.399666 1_556
B3 O4 1.410414 1_555
B4 O13 1.339143 1_555
B4 O5 1.394117 1_554
B4 O19 1.405098 1_555
B5 O0 1.339749 1_545
B5 O3 1.394261 1_546
B5 O14 1.422256 1_555
B6 O17 1.358759 1_555
B6 O16 1.401904 1_555
B6 O21 1.404865 1_555
B7 O15 1.354080 1_455
B7 O22 1.390825 1_555
B7 O12 1.400291 1_455
