# generated using pymatgen
data_Dy2Ge2O7
_symmetry_space_group_name_H-M   'P 1'
_cell_length_a   8.11062500
_cell_length_b   5.37250700
_cell_length_c   7.64319289
_cell_angle_alpha   71.08478068
_cell_angle_beta   90.00000000
_cell_angle_gamma   90.00000000
_symmetry_Int_Tables_number   1
_chemical_formula_structural   Dy2Ge2O7
_chemical_formula_sum   'Dy4 Ge4 O14'
_cell_volume   315.06266306
_cell_formula_units_Z   2
loop_
 _symmetry_equiv_pos_site_id
 _symmetry_equiv_pos_as_xyz
  1  'x, y, z'
loop_
 _atom_site_type_symbol
 _atom_site_label
 _atom_site_symmetry_multiplicity
 _atom_site_fract_x
 _atom_site_fract_y
 _atom_site_fract_z
 _atom_site_occupancy
  Dy  Dy0  1  0.50000000  0.00000000  0.00000000  1
  Dy  Dy1  1  0.00000000  0.00000000  0.00000000  1
  Dy  Dy2  1  0.50000000  0.50000000  0.50000000  1
  Dy  Dy3  1  0.00000000  0.50000000  0.50000000  1
  Ge  Ge0  1  0.25000000  0.46287800  0.11322900  1
  Ge  Ge1  1  0.75000000  0.09826800  0.32409200  1
  Ge  Ge2  1  0.25000000  0.90173200  0.67590800  1
  Ge  Ge3  1  0.75000000  0.53712200  0.88677100  1
  O  O0  1  0.75000000  0.23216800  0.07422800  1
  O  O1  1  0.43513100  0.52837400  0.20775500  1
  O  O2  1  0.06486900  0.52837400  0.20775500  1
  O  O3  1  0.25000000  0.17561300  0.05303900  1
  O  O4  1  0.93009200  0.91411400  0.32939400  1
  O  O5  1  0.56990800  0.91411400  0.32939400  1
  O  O6  1  0.75000000  0.32584000  0.44439700  1
  O  O7  1  0.25000000  0.67416000  0.55560300  1
  O  O8  1  0.43009200  0.08588600  0.67060600  1
  O  O9  1  0.06990800  0.08588600  0.67060600  1
  O  O10  1  0.75000000  0.82438700  0.94696100  1
  O  O11  1  0.93513100  0.47162600  0.79224500  1
  O  O12  1  0.56486900  0.47162600  0.79224500  1
  O  O13  1  0.25000000  0.76783200  0.92577200  1
loop_
_geom_bond_atom_site_label_1
_geom_bond_atom_site_label_2
_geom_bond_distance
_geom_bond_site_symmetry_2
Dy0 O3 2.326770 1_555
Dy0 O10 2.326770 1_544
Dy0 O5 2.473793 1_545
Dy0 O8 2.473793 1_554
Dy0 O0 2.539268 1_555
Dy0 O13 2.539268 1_544
Dy0 O12 2.570976 1_554
Dy0 O1 2.570976 1_545
Dy1 O3 2.326770 1_555
Dy1 O10 2.326770 1_444
Dy1 O4 2.473793 1_445
Dy1 O9 2.473793 1_554
Dy1 O0 2.539268 1_455
Dy1 O13 2.539268 1_544
Dy1 O2 2.570976 1_545
Dy1 O11 2.570976 1_454
Dy2 O12 2.251363 1_555
Dy2 O1 2.251363 1_555
Dy2 O5 2.256280 1_555
Dy2 O8 2.256280 1_555
Dy2 O6 2.329228 1_555
Dy2 O7 2.329228 1_555
Dy3 O2 2.251363 1_555
Dy3 O11 2.251363 1_455
Dy3 O9 2.256280 1_555
Dy3 O4 2.256280 1_455
Dy3 O7 2.329228 1_555
Dy3 O6 2.329228 1_455
Ge0 O3 1.747523 1_555
Ge0 O1 1.750773 1_555
Ge0 O2 1.750773 1_555
Ge0 O13 1.793089 1_554
Ge1 O6 1.751918 1_555
Ge1 O4 1.757277 1_545
Ge1 O5 1.757277 1_545
Ge1 O0 1.809412 1_555
Ge2 O7 1.751918 1_555
Ge2 O9 1.757277 1_565
Ge2 O8 1.757277 1_565
Ge2 O13 1.809412 1_555
Ge3 O10 1.747523 1_555
Ge3 O11 1.750773 1_555
Ge3 O12 1.750773 1_555
Ge3 O0 1.793089 1_556
