# generated using pymatgen
data_Fe2O3
_symmetry_space_group_name_H-M   'P 1'
_cell_length_a   5.38752790
_cell_length_b   5.38752790
_cell_length_c   14.81011300
_cell_angle_alpha   90.00000000
_cell_angle_beta   90.00000000
_cell_angle_gamma   119.99999881
_symmetry_Int_Tables_number   1
_chemical_formula_structural   Fe2O3
_chemical_formula_sum   'Fe12 O18'
_cell_volume   372.27860173
_cell_formula_units_Z   6
loop_
 _symmetry_equiv_pos_site_id
 _symmetry_equiv_pos_as_xyz
  1  'x, y, z'
loop_
 _atom_site_type_symbol
 _atom_site_label
 _atom_site_symmetry_multiplicity
 _atom_site_fract_x
 _atom_site_fract_y
 _atom_site_fract_z
 _atom_site_occupancy
  Fe  Fe0  1  0.02529700  0.64767700  0.23354300  1
  Fe  Fe1  1  0.62238000  0.97470300  0.23354300  1
  Fe  Fe2  1  0.35232300  0.37762000  0.23354300  1
  Fe  Fe3  1  0.38744300  0.99999600  0.73057100  1
  Fe  Fe4  1  0.61255300  0.61255700  0.73057100  1
  Fe  Fe5  1  0.00000400  0.38744700  0.73057100  1
  Fe  Fe6  1  0.00000000  0.00000000  0.91380900  1
  Fe  Fe7  1  0.00000000  0.00000000  0.07933900  1
  Fe  Fe8  1  0.00000000  0.00000000  0.58419000  1
  Fe  Fe9  1  0.33333300  0.66666700  0.93972600  1
  Fe  Fe10  1  0.66666700  0.33333300  0.94082900  1
  Fe  Fe11  1  0.00000000  0.00000000  0.41466400  1
  O  O0  1  0.30991500  0.01668600  0.17653100  1
  O  O1  1  0.70677100  0.69008500  0.17653100  1
  O  O2  1  0.98331400  0.29322900  0.17653100  1
  O  O3  1  0.64101800  0.63712900  0.86001200  1
  O  O4  1  0.99611100  0.35898200  0.86001200  1
  O  O5  1  0.36287100  0.00388900  0.86001200  1
  O  O6  1  0.00593900  0.69225200  0.00093600  1
  O  O7  1  0.30774800  0.31368600  0.00093600  1
  O  O8  1  0.68631400  0.99406100  0.00093600  1
  O  O9  1  0.99813000  0.25904900  0.50815000  1
  O  O10  1  0.74095100  0.73908100  0.50815000  1
  O  O11  1  0.26091900  0.00187000  0.50815000  1
  O  O12  1  0.00017700  0.71479200  0.68063500  1
  O  O13  1  0.28520800  0.28538500  0.68063500  1
  O  O14  1  0.71461500  0.99982300  0.68063500  1
  O  O15  1  0.70216000  0.00041400  0.35207000  1
  O  O16  1  0.29825300  0.29784000  0.35207000  1
  O  O17  1  0.99958600  0.70174700  0.35207000  1
loop_
_geom_bond_atom_site_label_1
_geom_bond_atom_site_label_2
_geom_bond_distance
_geom_bond_site_symmetry_2
Fe0 O17 1.796057 1_455
Fe0 O0 1.992008 1_565
Fe0 O2 1.994677 1_455
Fe0 O1 2.025364 1_455
Fe1 O15 1.796056 1_565
Fe1 O1 1.992007 1_555
Fe1 O0 1.994677 1_565
Fe1 O2 2.025364 1_565
Fe2 O16 1.796056 1_555
Fe2 O2 1.992007 1_455
Fe2 O1 1.994677 1_555
Fe2 O0 2.025364 1_555
Fe3 O14 1.911941 1_555
Fe3 O5 1.922438 1_565
Fe3 O12 2.013740 1_555
Fe3 O13 2.015247 1_565
Fe4 O13 1.911941 1_555
Fe4 O3 1.922438 1_555
Fe4 O14 2.013740 1_555
Fe4 O12 2.015247 1_655
Fe5 O12 1.911941 1_555
Fe5 O4 1.922438 1_455
Fe5 O13 2.013740 1_555
Fe5 O14 2.015247 1_445
Fe6 O4 2.101478 1_455
Fe6 O5 2.101478 1_555
Fe6 O3 2.101478 1_445
Fe6 O8 2.113777 1_446
Fe6 O7 2.113779 1_556
Fe6 O6 2.113781 1_546
Fe7 O8 2.037476 1_445
Fe7 O7 2.037478 1_555
Fe7 O6 2.037481 1_545
Fe7 O2 2.172037 1_455
Fe7 O0 2.172037 1_555
Fe7 O1 2.172037 1_445
Fe8 O9 1.797274 1_455
Fe8 O11 1.797274 1_555
Fe8 O10 1.797274 1_445
Fe8 O12 2.098265 1_545
Fe8 O14 2.098265 1_445
Fe8 O13 2.098265 1_555
Fe9 O6 2.048186 1_556
Fe9 O8 2.048191 1_556
Fe9 O7 2.048196 1_556
Fe9 O5 2.104922 1_565
Fe9 O4 2.104924 1_455
Fe9 O3 2.104926 1_555
Fe10 O8 2.082813 1_546
Fe10 O7 2.082813 1_556
Fe10 O6 2.082813 1_656
Fe10 O4 2.087260 1_555
Fe10 O5 2.087262 1_555
Fe10 O3 2.087264 1_555
Fe11 O17 1.854117 1_445
Fe11 O16 1.854119 1_555
Fe11 O15 1.854122 1_455
Fe11 O9 1.969493 1_455
Fe11 O11 1.969493 1_555
Fe11 O10 1.969493 1_445
