# generated using pymatgen
data_Na(Fe2O3)4
_symmetry_space_group_name_H-M   'P 1'
_cell_length_a   6.08191448
_cell_length_b   6.08191448
_cell_length_c   14.80035389
_cell_angle_alpha   89.50542306
_cell_angle_beta   89.50542306
_cell_angle_gamma   59.82365257
_symmetry_Int_Tables_number   1
_chemical_formula_structural   Na(Fe2O3)4
_chemical_formula_sum   'Na2 Fe16 O24'
_cell_volume   473.24641187
_cell_formula_units_Z   2
loop_
 _symmetry_equiv_pos_site_id
 _symmetry_equiv_pos_as_xyz
  1  'x, y, z'
loop_
 _atom_site_type_symbol
 _atom_site_label
 _atom_site_symmetry_multiplicity
 _atom_site_fract_x
 _atom_site_fract_y
 _atom_site_fract_z
 _atom_site_occupancy
  Na  Na0  1  0.50000000  0.50000000  0.00000000  1
  Na  Na1  1  0.00000000  0.00000000  0.50000000  1
  Fe  Fe0  1  0.32946600  0.32946600  0.16458300  1
  Fe  Fe1  1  0.67008800  0.67008800  0.20714900  1
  Fe  Fe2  1  0.00000000  0.50000000  0.00000000  1
  Fe  Fe3  1  0.50000000  0.00000000  0.00000000  1
  Fe  Fe4  1  0.32991200  0.32991200  0.79285100  1
  Fe  Fe5  1  0.99137300  0.99137300  0.12025600  1
  Fe  Fe6  1  0.67053400  0.67053400  0.83541700  1
  Fe  Fe7  1  0.33241400  0.33241400  0.54795200  1
  Fe  Fe8  1  0.00862700  0.00862700  0.87974400  1
  Fe  Fe9  1  0.16947900  0.66758300  0.33081100  1
  Fe  Fe10  1  0.33241700  0.83052100  0.66918900  1
  Fe  Fe11  1  0.83052100  0.33241700  0.66918900  1
  Fe  Fe12  1  0.66758600  0.66758600  0.45204800  1
  Fe  Fe13  1  0.16759400  0.16759400  0.33212900  1
  Fe  Fe14  1  0.83240600  0.83240600  0.66787100  1
  Fe  Fe15  1  0.66758300  0.16947900  0.33081100  1
  O  O0  1  0.64793400  0.14962400  0.08667200  1
  O  O1  1  0.14962400  0.64793400  0.08667200  1
  O  O2  1  0.50646400  0.50646400  0.74640300  1
  O  O3  1  0.16718000  0.16718000  0.07632700  1
  O  O4  1  0.32392100  0.32392100  0.91985300  1
  O  O5  1  0.67607900  0.67607900  0.08014700  1
  O  O6  1  0.35206600  0.85037600  0.91332800  1
  O  O7  1  0.85037600  0.35206600  0.91332800  1
  O  O8  1  0.97875500  0.50990000  0.74570200  1
  O  O9  1  0.50990000  0.97875500  0.74570200  1
  O  O10  1  0.66599100  0.66599100  0.58951200  1
  O  O11  1  0.33400900  0.33400900  0.41048800  1
  O  O12  1  0.99840900  0.99840900  0.74248700  1
  O  O13  1  0.49353600  0.49353600  0.25359700  1
  O  O14  1  0.16365500  0.16365500  0.59651600  1
  O  O15  1  0.83282000  0.83282000  0.92367300  1
  O  O16  1  0.66956100  0.16466200  0.59610000  1
  O  O17  1  0.49010000  0.02124500  0.25429800  1
  O  O18  1  0.16466200  0.66956100  0.59610000  1
  O  O19  1  0.02124500  0.49010000  0.25429800  1
  O  O20  1  0.33043900  0.83533800  0.40390000  1
  O  O21  1  0.83533800  0.33043900  0.40390000  1
  O  O22  1  0.83634500  0.83634500  0.40348400  1
  O  O23  1  0.00159100  0.00159100  0.25751300  1
loop_
_geom_bond_atom_site_label_1
_geom_bond_atom_site_label_2
_geom_bond_distance
_geom_bond_site_symmetry_2
Na0 O4 2.213032 1_554
Na0 O5 2.213032 1_555
Na0 O1 2.245272 1_555
Na0 O0 2.245272 1_555
Na0 O6 2.245272 1_554
Na0 O7 2.245272 1_554
Na1 O18 2.239796 1_545
Na1 O20 2.239796 1_545
Na1 O16 2.239796 1_455
Na1 O21 2.239796 1_455
Na1 O22 2.250995 1_445
Na1 O14 2.250995 1_555
Fe0 O1 2.032481 1_555
Fe0 O0 2.032481 1_555
Fe0 O19 2.090419 1_555
Fe0 O17 2.090419 1_555
Fe0 O3 2.162979 1_555
Fe0 O13 2.184837 1_555
Fe1 O5 1.880107 1_555
Fe1 O19 1.977042 1_655
Fe1 O17 1.977042 1_565
Fe1 O13 1.977931 1_555
Fe2 O7 2.036247 1_454
Fe2 O1 2.036247 1_555
Fe2 O5 2.072596 1_455
Fe2 O4 2.072596 1_554
Fe2 O3 2.078111 1_555
Fe2 O15 2.078111 1_454
Fe3 O6 2.036247 1_544
Fe3 O0 2.036247 1_555
Fe3 O5 2.072596 1_545
Fe3 O4 2.072596 1_554
Fe3 O3 2.078111 1_555
Fe3 O15 2.078111 1_544
Fe4 O4 1.880107 1_555
Fe4 O9 1.977042 1_545
Fe4 O8 1.977042 1_455
Fe4 O2 1.977931 1_555
Fe5 O1 1.877482 1_655
Fe5 O0 1.877482 1_565
Fe5 O3 1.958225 1_665
Fe5 O23 2.035378 1_665
Fe6 O6 2.032481 1_555
Fe6 O7 2.032481 1_555
Fe6 O8 2.090419 1_555
Fe6 O9 2.090419 1_555
Fe6 O15 2.162979 1_555
Fe6 O2 2.184837 1_555
Fe7 O14 1.912359 1_555
Fe7 O16 1.913838 1_555
Fe7 O18 1.913838 1_555
Fe7 O11 2.034418 1_555
Fe8 O7 1.877482 1_455
Fe8 O6 1.877482 1_545
Fe8 O15 1.958225 1_445
Fe8 O12 2.035378 1_445
Fe9 O13 2.048294 1_555
Fe9 O22 2.050905 1_455
Fe9 O20 2.052048 1_555
Fe9 O23 2.059586 1_565
Fe9 O19 2.068192 1_555
Fe9 O11 2.108553 1_555
Fe10 O2 2.048294 1_555
Fe10 O14 2.050905 1_565
Fe10 O18 2.052048 1_555
Fe10 O12 2.059586 1_455
Fe10 O9 2.068192 1_555
Fe10 O10 2.108553 1_555
Fe11 O2 2.048294 1_555
Fe11 O14 2.050905 1_655
Fe11 O16 2.052048 1_555
Fe11 O12 2.059586 1_545
Fe11 O8 2.068192 1_555
Fe11 O10 2.108553 1_555
Fe12 O22 1.912359 1_555
Fe12 O21 1.913838 1_555
Fe12 O20 1.913838 1_555
Fe12 O10 2.034418 1_555
Fe13 O21 2.040042 1_455
Fe13 O20 2.040042 1_545
Fe13 O17 2.046954 1_555
Fe13 O19 2.046954 1_555
Fe13 O23 2.078815 1_555
Fe13 O11 2.112855 1_555
Fe14 O16 2.040042 1_565
Fe14 O18 2.040042 1_655
Fe14 O8 2.046954 1_555
Fe14 O9 2.046954 1_555
Fe14 O12 2.078815 1_555
Fe14 O10 2.112855 1_555
Fe15 O13 2.048294 1_555
Fe15 O22 2.050905 1_545
Fe15 O21 2.052048 1_555
Fe15 O23 2.059586 1_655
Fe15 O17 2.068192 1_555
Fe15 O11 2.108553 1_555
