# generated using pymatgen
data_Na13Ti24O54
_symmetry_space_group_name_H-M   'P 1'
_cell_length_a   8.85964900
_cell_length_b   11.13339179
_cell_length_c   11.73492211
_cell_angle_alpha   75.98463123
_cell_angle_beta   82.70144858
_cell_angle_gamma   74.60521671
_symmetry_Int_Tables_number   1
_chemical_formula_structural   Na13Ti24O54
_chemical_formula_sum   'Na13 Ti24 O54'
_cell_volume   1080.31615895
_cell_formula_units_Z   1
loop_
 _symmetry_equiv_pos_site_id
 _symmetry_equiv_pos_as_xyz
  1  'x, y, z'
loop_
 _atom_site_type_symbol
 _atom_site_label
 _atom_site_symmetry_multiplicity
 _atom_site_fract_x
 _atom_site_fract_y
 _atom_site_fract_z
 _atom_site_occupancy
  Na  Na0  1  0.57240300  0.30542400  0.85944300  1
  Na  Na1  1  0.93796700  0.30290900  0.85683900  1
  Na  Na2  1  0.18035500  0.59534200  0.72722500  1
  Na  Na3  1  0.84358700  0.60424000  0.72536400  1
  Na  Na4  1  0.51206600  0.60293500  0.72734500  1
  Na  Na5  1  0.53055200  0.09895600  0.71613800  1
  Na  Na6  1  0.16570300  0.09914800  0.71694500  1
  Na  Na7  1  0.15989900  0.90036000  0.28293000  1
  Na  Na8  1  0.48584700  0.40512900  0.27352200  1
  Na  Na9  1  0.15495000  0.39784900  0.27155800  1
  Na  Na10  1  0.82216100  0.39757600  0.27509900  1
  Na  Na11  1  0.09254900  0.69482700  0.14159400  1
  Na  Na12  1  0.71717600  0.70571000  0.14659100  1
  Ti  Ti0  1  0.99935800  0.00248800  0.99901200  1
  Ti  Ti1  1  0.66723900  0.99868600  0.00196200  1
  Ti  Ti2  1  0.33419500  0.99783900  0.00114500  1
  Ti  Ti3  1  0.49587800  0.50819700  0.00907600  1
  Ti  Ti4  1  0.17160700  0.49177500  0.99058700  1
  Ti  Ti5  1  0.83285600  0.50244600  0.00037600  1
  Ti  Ti6  1  0.91611600  0.81444500  0.87620700  1
  Ti  Ti7  1  0.58343100  0.81155500  0.87795000  1
  Ti  Ti8  1  0.24975100  0.80803100  0.87963500  1
  Ti  Ti9  1  0.94415400  0.88307200  0.57277900  1
  Ti  Ti10  1  0.61434500  0.87539400  0.56637300  1
  Ti  Ti11  1  0.28005900  0.87721600  0.56966700  1
  Ti  Ti12  1  0.44826800  0.37410500  0.55422200  1
  Ti  Ti13  1  0.11647400  0.37661300  0.55456300  1
  Ti  Ti14  1  0.78272700  0.37337300  0.55790500  1
  Ti  Ti15  1  0.21838200  0.62437000  0.44733400  1
  Ti  Ti16  1  0.88391900  0.62741800  0.44374800  1
  Ti  Ti17  1  0.54963000  0.62582100  0.44238500  1
  Ti  Ti18  1  0.72153800  0.11954600  0.42815800  1
  Ti  Ti19  1  0.38918100  0.11794000  0.42653100  1
  Ti  Ti20  1  0.05206700  0.12555300  0.43171700  1
  Ti  Ti21  1  0.74911700  0.18733400  0.12375100  1
  Ti  Ti22  1  0.41868500  0.18784900  0.12166400  1
  Ti  Ti23  1  0.08223600  0.19214100  0.12036300  1
  O  O0  1  0.11165400  0.69404500  0.93903900  1
  O  O1  1  0.77756800  0.69538800  0.94020900  1
  O  O2  1  0.44605600  0.69428300  0.93954000  1
  O  O3  1  0.04683500  0.94231700  0.85015800  1
  O  O4  1  0.70920000  0.94394900  0.84928400  1
  O  O5  1  0.37527300  0.94525900  0.84865700  1
  O  O6  1  0.35728500  0.48901100  0.89041600  1
  O  O7  1  0.02082900  0.48701500  0.88821100  1
  O  O8  1  0.69116100  0.48300600  0.89301400  1
  O  O9  1  0.79896200  0.12667100  0.95578800  1
  O  O10  1  0.13069700  0.12360000  0.95096700  1
  O  O11  1  0.46856300  0.12309300  0.95462300  1
  O  O12  1  0.95336700  0.78052700  0.72611000  1
  O  O13  1  0.61748700  0.78372200  0.72551900  1
  O  O14  1  0.28432500  0.78143100  0.72647700  1
  O  O15  1  0.73582000  0.99100200  0.59294300  1
  O  O16  1  0.40291200  0.99119100  0.59418700  1
  O  O17  1  0.07262300  0.99169000  0.59525200  1
  O  O18  1  0.61521800  0.31932400  0.65737100  1
  O  O19  1  0.28724400  0.31206700  0.65308900  1
  O  O20  1  0.95252900  0.31892800  0.65731600  1
  O  O21  1  0.38588500  0.55226700  0.57044500  1
  O  O22  1  0.72137500  0.55191500  0.56975000  1
  O  O23  1  0.05536800  0.55269800  0.57104100  1
  O  O24  1  0.15260400  0.78367300  0.51274000  1
  O  O25  1  0.82160100  0.77848100  0.51842200  1
  O  O26  1  0.48770900  0.77812700  0.51740800  1
  O  O27  1  0.51420000  0.21712100  0.48612800  1
  O  O28  1  0.17986800  0.21751700  0.48706100  1
  O  O29  1  0.84487700  0.22232600  0.48227200  1
  O  O30  1  0.27932300  0.44601300  0.43071300  1
  O  O31  1  0.61142000  0.44629400  0.43160700  1
  O  O32  1  0.94791500  0.44606400  0.43238100  1
  O  O33  1  0.05171100  0.67893100  0.34432200  1
  O  O34  1  0.71965800  0.67201800  0.34410300  1
  O  O35  1  0.37989100  0.68028600  0.34675000  1
  O  O36  1  0.93162500  0.01002600  0.40844800  1
  O  O37  1  0.59530600  0.00915600  0.40740600  1
  O  O38  1  0.26043300  0.00929700  0.40652500  1
  O  O39  1  0.71413200  0.22028700  0.27375300  1
  O  O40  1  0.38105000  0.21978400  0.27300900  1
  O  O41  1  0.04867900  0.21895300  0.27319400  1
  O  O42  1  0.86792800  0.87358700  0.04284000  1
  O  O43  1  0.53469200  0.87608200  0.04146500  1
  O  O44  1  0.19852500  0.87628400  0.04684800  1
  O  O45  1  0.30930900  0.51111900  0.10920900  1
  O  O46  1  0.97530300  0.51643400  0.10732100  1
  O  O47  1  0.64560600  0.51321100  0.11209200  1
  O  O48  1  0.62201600  0.06004900  0.14839300  1
  O  O49  1  0.28545800  0.05962700  0.14717800  1
  O  O50  1  0.95889700  0.05866700  0.14932500  1
  O  O51  1  0.55427500  0.30575300  0.06165500  1
  O  O52  1  0.22175400  0.30557000  0.05975500  1
  O  O53  1  0.88842900  0.30540300  0.05912900  1
loop_
_geom_bond_atom_site_label_1
_geom_bond_atom_site_label_2
_geom_bond_distance
_geom_bond_site_symmetry_2
Na0 O18 2.327182 1_555
Na0 O51 2.358755 1_556
Na0 O11 2.418037 1_555
Na0 O6 2.461246 1_555
Na0 O9 2.575598 1_555
Na0 O8 2.599643 1_555
Na1 O20 2.294287 1_555
Na1 O53 2.364177 1_556
Na1 O10 2.392139 1_655
Na1 O7 2.471629 1_655
Na1 O9 2.555582 1_555
Na1 O8 2.613522 1_555
Na2 O23 2.455009 1_555
Na2 O21 2.458279 1_555
Na2 O12 2.467271 1_455
Na2 O14 2.478572 1_555
Na2 O7 2.478718 1_555
Na2 O6 2.491053 1_555
Na3 O12 2.412910 1_555
Na3 O13 2.425129 1_555
Na3 O23 2.489532 1_655
Na3 O22 2.489775 1_555
Na3 O7 2.507464 1_655
Na3 O8 2.553926 1_555
Na3 O25 2.708551 1_555
Na3 O1 2.877102 1_555
Na4 O14 2.426309 1_555
Na4 O13 2.428208 1_555
Na4 O6 2.496450 1_555
Na4 O22 2.501963 1_555
Na4 O21 2.513740 1_555
Na4 O8 2.545910 1_555
Na4 O26 2.739412 1_555
Na4 O2 2.849163 1_555
Na5 O4 2.407631 1_545
Na5 O15 2.419704 1_545
Na5 O5 2.580004 1_545
Na5 O16 2.594131 1_545
Na5 O18 2.661539 1_555
Na5 O27 2.704691 1_555
Na5 O19 2.768219 1_555
Na5 O11 2.846297 1_555
Na6 O17 2.408585 1_545
Na6 O3 2.416086 1_545
Na6 O5 2.555250 1_545
Na6 O16 2.581631 1_545
Na6 O20 2.663973 1_455
Na6 O28 2.703649 1_555
Na6 O19 2.762285 1_555
Na6 O10 2.795168 1_555
Na7 O38 2.474213 1_565
Na7 O49 2.479559 1_565
Na7 O50 2.537776 1_465
Na7 O36 2.560013 1_465
Na7 O24 2.695918 1_555
Na7 O35 2.703628 1_555
Na7 O33 2.781029 1_555
Na7 O44 2.816771 1_555
Na8 O30 2.462656 1_555
Na8 O31 2.469036 1_555
Na8 O39 2.472746 1_555
Na8 O40 2.478881 1_555
Na8 O47 2.481711 1_555
Na8 O45 2.498194 1_555
Na9 O41 2.413774 1_555
Na9 O40 2.413917 1_555
Na9 O45 2.485987 1_555
Na9 O32 2.510522 1_455
Na9 O30 2.512294 1_555
Na9 O46 2.534176 1_455
Na9 O28 2.814653 1_555
Na9 O52 2.850212 1_555
Na10 O39 2.415418 1_555
Na10 O41 2.423640 1_655
Na10 O31 2.495379 1_555
Na10 O47 2.502301 1_555
Na10 O32 2.502742 1_555
Na10 O46 2.545773 1_555
Na10 O29 2.715913 1_555
Na10 O53 2.895290 1_555
Na11 O33 2.330928 1_555
Na11 O0 2.363412 1_554
Na11 O44 2.419289 1_555
Na11 O45 2.474124 1_555
Na11 O42 2.574924 1_455
Na11 O46 2.602668 1_455
Na12 O34 2.258492 1_555
Na12 O43 2.340684 1_555
Na12 O1 2.436779 1_554
Na12 O47 2.523118 1_555
Na12 O42 2.563105 1_555
Na12 O46 2.743521 1_555
O0 Ti8 1.942303 1_555
O0 Ti6 1.988609 1_455
O0 Ti4 2.122752 1_555
O1 Ti7 1.960961 1_555
O1 Ti6 1.993791 1_555
O1 Ti5 2.036510 1_556
O2 Ti8 1.957750 1_555
O2 Ti7 1.967613 1_555
O2 Ti3 1.984956 1_556
O3 Ti0 1.976736 1_465
O3 Ti6 2.009010 1_455
O3 Ti8 2.016752 1_555
O4 Ti1 1.989719 1_556
O4 Ti6 2.015556 1_555
O4 Ti7 2.015945 1_555
O5 Ti2 1.976364 1_556
O5 Ti7 2.047145 1_555
O5 Ti8 2.057534 1_555
O6 Ti4 1.894262 1_555
O6 Ti3 2.051837 1_556
O7 Ti4 1.925295 1_555
O7 Ti5 1.983977 1_456
O8 Ti5 1.971875 1_556
O8 Ti3 2.062934 1_556
O9 Ti0 1.976573 1_555
O9 Ti1 2.008519 1_546
O9 Ti21 2.191212 1_556
O10 Ti0 1.946319 1_455
O10 Ti2 2.021828 1_546
O10 Ti23 2.249918 1_556
O11 Ti1 1.976528 1_546
O11 Ti2 2.001845 1_546
O11 Ti22 2.202899 1_556
O12 Ti6 1.860717 1_555
O12 Ti9 1.881621 1_555
O13 Ti7 1.862378 1_555
O13 Ti10 1.898719 1_555
O14 Ti8 1.865898 1_555
O14 Ti11 1.889603 1_555
O15 Ti9 1.938021 1_555
O15 Ti10 1.981726 1_555
O15 Ti18 2.104536 1_565
O16 Ti11 1.966568 1_555
O16 Ti10 2.010929 1_555
O16 Ti19 2.121750 1_565
O17 Ti9 1.946513 1_455
O17 Ti11 1.973209 1_555
O17 Ti20 2.120497 1_565
O18 Ti14 1.902839 1_555
O18 Ti12 1.908743 1_555
O19 Ti12 1.890192 1_555
O19 Ti13 1.899213 1_555
O20 Ti14 1.900198 1_555
O20 Ti13 1.910847 1_655
O21 Ti12 1.962213 1_555
O21 Ti15 2.069872 1_555
O21 Ti17 2.124687 1_555
O22 Ti14 1.951156 1_555
O22 Ti16 2.113397 1_555
O22 Ti17 2.131574 1_555
O23 Ti13 1.940943 1_555
O23 Ti15 2.085205 1_555
O23 Ti16 2.129413 1_455
O24 Ti11 1.989732 1_555
O24 Ti15 2.017737 1_555
O24 Ti9 2.023281 1_455
O25 Ti10 1.957586 1_555
O25 Ti16 1.999808 1_555
O25 Ti9 2.036854 1_555
O26 Ti10 1.967714 1_555
O26 Ti11 1.985224 1_555
O26 Ti17 2.014412 1_555
O27 Ti18 1.999550 1_555
O27 Ti12 2.012520 1_555
O27 Ti19 2.038502 1_555
O28 Ti20 1.968905 1_555
O28 Ti13 2.029462 1_555
O28 Ti19 2.031687 1_555
O29 Ti20 1.966003 1_655
O29 Ti14 2.006507 1_555
O29 Ti18 2.024574 1_555
O30 Ti15 1.965768 1_555
O30 Ti13 2.075112 1_555
O30 Ti12 2.082052 1_555
O31 Ti17 1.958207 1_555
O31 Ti12 2.081807 1_555
O31 Ti14 2.119837 1_555
O32 Ti16 1.979746 1_555
O32 Ti13 2.068279 1_655
O32 Ti14 2.114305 1_555
O33 Ti16 1.894204 1_455
O33 Ti15 1.905883 1_555
O34 Ti16 1.870624 1_555
O34 Ti17 1.883222 1_555
O35 Ti17 1.871822 1_555
O35 Ti15 1.875149 1_555
O36 Ti18 1.956254 1_555
O36 Ti20 1.959690 1_655
O36 Ti9 2.092783 1_545
O37 Ti19 1.924946 1_555
O37 Ti18 1.940224 1_555
O37 Ti10 2.080185 1_545
O38 Ti19 1.938400 1_555
O38 Ti20 1.987116 1_555
O38 Ti11 2.107845 1_545
O39 Ti21 1.855531 1_555
O39 Ti18 1.884715 1_555
O40 Ti22 1.866626 1_555
O40 Ti19 1.880605 1_555
O41 Ti23 1.862984 1_555
O41 Ti20 1.898267 1_555
O42 Ti1 1.977278 1_555
O42 Ti0 2.014322 1_564
O42 Ti6 2.168362 1_554
O43 Ti2 1.959902 1_555
O43 Ti1 1.965553 1_555
O43 Ti7 2.162629 1_554
O44 Ti2 1.977928 1_555
O44 Ti0 1.989036 1_464
O44 Ti8 2.224097 1_554
O45 Ti3 1.900125 1_555
O45 Ti4 2.046626 1_554
O46 Ti5 1.947669 1_555
O46 Ti4 2.073640 1_654
O47 Ti3 1.924493 1_555
O47 Ti5 1.975641 1_555
O48 Ti1 1.956622 1_545
O48 Ti21 1.981387 1_555
O48 Ti22 1.983578 1_555
O49 Ti2 1.954909 1_545
O49 Ti23 2.006512 1_555
O49 Ti22 2.029422 1_555
O50 Ti0 1.971236 1_554
O50 Ti23 2.010225 1_655
O50 Ti21 2.028878 1_555
O51 Ti22 1.958732 1_555
O51 Ti21 1.973572 1_555
O51 Ti3 2.125272 1_555
O52 Ti23 1.949077 1_555
O52 Ti22 1.984045 1_555
O52 Ti4 1.985322 1_554
O53 Ti23 1.944163 1_655
O53 Ti21 1.991772 1_555
O53 Ti5 2.076178 1_555
