# generated using pymatgen
data_Li3V3(BO5)2
_symmetry_space_group_name_H-M   'P 1'
_cell_length_a   12.09988900
_cell_length_b   2.99452300
_cell_length_c   9.40369097
_cell_angle_alpha   88.69931543
_cell_angle_beta   90.00000000
_cell_angle_gamma   90.00000000
_symmetry_Int_Tables_number   1
_chemical_formula_structural   Li3V3(BO5)2
_chemical_formula_sum   'Li6 V6 B4 O20'
_cell_volume   340.63986548
_cell_formula_units_Z   2
loop_
 _symmetry_equiv_pos_site_id
 _symmetry_equiv_pos_as_xyz
  1  'x, y, z'
loop_
 _atom_site_type_symbol
 _atom_site_label
 _atom_site_symmetry_multiplicity
 _atom_site_fract_x
 _atom_site_fract_y
 _atom_site_fract_z
 _atom_site_occupancy
  Li  Li0  1  0.99979900  0.00248600  0.75684500  1
  Li  Li1  1  0.50999100  0.49944200  0.73815100  1
  Li  Li2  1  0.49979900  0.99751400  0.24315500  1
  Li  Li3  1  0.00999100  0.50055800  0.26184900  1
  Li  Li4  1  0.21352400  0.99966900  0.25854400  1
  Li  Li5  1  0.71352400  0.00033100  0.74145600  1
  V  V0  1  0.28523000  0.00041700  0.74958900  1
  V  V1  1  0.11041700  0.47843400  0.99979700  1
  V  V2  1  0.61041700  0.52156600  0.00020300  1
  V  V3  1  0.78523000  0.99958300  0.25041100  1
  V  V4  1  0.39120100  0.51716200  0.48137100  1
  V  V5  1  0.89120100  0.48283800  0.51862900  1
  B  B0  1  0.85871100  0.50248000  0.98025600  1
  B  B1  1  0.35871100  0.49752000  0.01974400  1
  B  B2  1  0.63606700  0.49922400  0.48257900  1
  B  B3  1  0.13606700  0.50077600  0.51742100  1
  O  O0  1  0.15060600  0.99262200  0.86447100  1
  O  O1  1  0.57363900  0.98892000  0.88301500  1
  O  O2  1  0.35622200  0.49953600  0.86734400  1
  O  O3  1  0.76015900  0.49583700  0.90939000  1
  O  O4  1  0.95817600  0.50326100  0.90979600  1
  O  O5  1  0.45817600  0.49673900  0.09020400  1
  O  O6  1  0.26015900  0.50416300  0.09061000  1
  O  O7  1  0.85622200  0.50046400  0.13265600  1
  O  O8  1  0.07363900  0.01108000  0.11698500  1
  O  O9  1  0.65060600  0.00737800  0.13552900  1
  O  O10  1  0.35507300  0.98591100  0.36933400  1
  O  O11  1  0.92078900  0.98884800  0.37562800  1
  O  O12  1  0.14309400  0.49207200  0.37682400  1
  O  O13  1  0.73746800  0.49755500  0.39727800  1
  O  O14  1  0.53987600  0.48386800  0.40140500  1
  O  O15  1  0.03987600  0.51613200  0.59859500  1
  O  O16  1  0.23746800  0.50244500  0.60272200  1
  O  O17  1  0.64309400  0.50792800  0.62317600  1
  O  O18  1  0.42078900  0.01115200  0.62437200  1
  O  O19  1  0.85507300  0.01408900  0.63066600  1
loop_
_geom_bond_atom_site_label_1
_geom_bond_atom_site_label_2
_geom_bond_distance
_geom_bond_site_symmetry_2
Li0 O0 2.086511 1_645
Li0 O4 2.111776 1_545
Li0 O19 2.115142 1_555
Li0 O4 2.160794 1_555
Li0 O15 2.160830 1_645
Li0 O15 2.170625 1_655
Li1 O17 1.939634 1_555
Li1 O18 2.125742 1_555
Li1 O18 2.140873 1_565
Li1 O1 2.165163 1_555
Li1 O1 2.165973 1_545
Li1 O2 2.222108 1_555
Li2 O9 2.086511 1_565
Li2 O5 2.111776 1_565
Li2 O10 2.115142 1_555
Li2 O5 2.160794 1_555
Li2 O14 2.160830 1_565
Li2 O14 2.170625 1_555
Li3 O12 1.939634 1_555
Li3 O11 2.125742 1_455
Li3 O11 2.140873 1_445
Li3 O8 2.165163 1_555
Li3 O8 2.165973 1_565
Li3 O7 2.222108 1_455
Li4 O10 2.004645 1_555
Li4 O12 2.048672 1_555
Li4 O12 2.052321 1_565
Li4 O8 2.153139 1_565
Li4 O6 2.232990 1_565
Li4 O6 2.262816 1_555
Li5 O19 2.004645 1_555
Li5 O17 2.048672 1_555
Li5 O17 2.052321 1_545
Li5 O1 2.153139 1_545
Li5 O3 2.232990 1_545
Li5 O3 2.262816 1_555
B0 O3 1.366408 1_555
B0 O4 1.373828 1_555
B0 O7 1.433315 1_556
B1 O6 1.366408 1_555
B1 O5 1.373828 1_555
B1 O2 1.433315 1_554
B2 O17 1.325708 1_555
B2 O14 1.393217 1_555
B2 O13 1.465956 1_555
B3 O12 1.325708 1_555
B3 O15 1.393217 1_555
B3 O16 1.465956 1_555
O0 V0 1.954459 1_565
O0 V1 2.014027 1_565
O0 V1 2.034148 1_555
O1 V2 1.816873 1_556
O1 V2 2.009061 1_566
O2 V0 2.034294 1_565
O2 V0 2.067146 1_555
O3 V2 2.005254 1_556
O4 V1 2.027879 1_655
O5 V2 2.027879 1_555
O6 V1 2.005254 1_554
O7 V3 2.034294 1_545
O7 V3 2.067146 1_555
O8 V1 1.816873 1_554
O8 V1 2.009061 1_544
O9 V3 1.954459 1_545
O9 V2 2.014027 1_545
O9 V2 2.034148 1_555
O10 V4 1.790046 1_555
O10 V4 1.976856 1_565
O11 V3 2.018971 1_555
O11 V5 2.034697 1_555
O11 V5 2.053052 1_565
O13 V3 2.099323 1_555
O13 V3 2.135074 1_545
O13 V5 2.182210 1_555
O14 V4 1.953212 1_555
O15 V5 1.953212 1_455
O16 V0 2.099323 1_555
O16 V0 2.135074 1_565
O16 V4 2.182210 1_555
O18 V0 2.018971 1_555
O18 V4 2.034697 1_555
O18 V4 2.053052 1_545
O19 V5 1.790046 1_555
O19 V5 1.976856 1_545
