# generated using pymatgen
data_LiFeF4
_symmetry_space_group_name_H-M   'P 1'
_cell_length_a   4.95119600
_cell_length_b   5.69387200
_cell_length_c   11.11822800
_cell_angle_alpha   90.00000000
_cell_angle_beta   90.00000000
_cell_angle_gamma   90.00000000
_symmetry_Int_Tables_number   1
_chemical_formula_structural   LiFeF4
_chemical_formula_sum   'Li4 Fe4 F16'
_cell_volume   313.43926084
_cell_formula_units_Z   4
loop_
 _symmetry_equiv_pos_site_id
 _symmetry_equiv_pos_as_xyz
  1  'x, y, z'
loop_
 _atom_site_type_symbol
 _atom_site_label
 _atom_site_symmetry_multiplicity
 _atom_site_fract_x
 _atom_site_fract_y
 _atom_site_fract_z
 _atom_site_occupancy
  Li  Li0  1  0.40195900  0.25000000  0.07172000  1
  Li  Li1  1  0.90195900  0.75000000  0.42828000  1
  Li  Li2  1  0.09804100  0.25000000  0.57172000  1
  Li  Li3  1  0.59804100  0.75000000  0.92828000  1
  Fe  Fe0  1  0.45737100  0.75000000  0.24294600  1
  Fe  Fe1  1  0.95737100  0.25000000  0.25705400  1
  Fe  Fe2  1  0.04262900  0.75000000  0.74294600  1
  Fe  Fe3  1  0.54262900  0.25000000  0.75705400  1
  F  F0  1  0.63046700  0.75000000  0.09242700  1
  F  F1  1  0.76539900  0.25000000  0.11262900  1
  F  F2  1  0.22983200  0.02034500  0.18358100  1
  F  F3  1  0.22983200  0.47965500  0.18358100  1
  F  F4  1  0.72983200  0.97965500  0.31641900  1
  F  F5  1  0.72983200  0.52034500  0.31641900  1
  F  F6  1  0.26539900  0.75000000  0.38737100  1
  F  F7  1  0.13046700  0.25000000  0.40757300  1
  F  F8  1  0.86953300  0.75000000  0.59242700  1
  F  F9  1  0.73460100  0.25000000  0.61262900  1
  F  F10  1  0.27016800  0.02034500  0.68358100  1
  F  F11  1  0.27016800  0.47965500  0.68358100  1
  F  F12  1  0.77016800  0.52034500  0.81641900  1
  F  F13  1  0.77016800  0.97965500  0.81641900  1
  F  F14  1  0.23460100  0.75000000  0.88737100  1
  F  F15  1  0.36953300  0.25000000  0.90757300  1
loop_
_geom_bond_atom_site_label_1
_geom_bond_atom_site_label_2
_geom_bond_distance
_geom_bond_site_symmetry_2
F0 Li3 1.832072 1_554
F0 Fe0 1.880192 1_555
F1 Li0 1.856055 1_555
F1 Fe1 1.865976 1_555
F2 Li0 1.995738 1_555
F2 Fe0 2.018496 1_545
F2 Fe1 2.048662 1_455
F3 Li0 1.995738 1_555
F3 Fe0 2.018496 1_555
F3 Fe1 2.048662 1_455
F4 Li1 1.995738 1_555
F4 Fe1 2.018496 1_565
F4 Fe0 2.048662 1_555
F5 Li1 1.995738 1_555
F5 Fe1 2.018496 1_555
F5 Fe0 2.048662 1_555
F6 Li1 1.856055 1_455
F6 Fe0 1.865976 1_555
F7 Li2 1.832072 1_555
F7 Fe1 1.880192 1_455
F8 Li1 1.832072 1_555
F8 Fe2 1.880192 1_655
F9 Li2 1.856055 1_655
F9 Fe3 1.865976 1_555
F10 Li2 1.995738 1_555
F10 Fe2 2.018496 1_545
F10 Fe3 2.048662 1_555
F11 Li2 1.995738 1_555
F11 Fe2 2.018496 1_555
F11 Fe3 2.048662 1_555
F12 Li3 1.995738 1_555
F12 Fe3 2.018496 1_555
F12 Fe2 2.048662 1_655
F13 Li3 1.995738 1_555
F13 Fe3 2.018496 1_565
F13 Fe2 2.048662 1_655
F14 Li3 1.856055 1_555
F14 Fe2 1.865976 1_555
F15 Li0 1.832072 1_556
F15 Fe3 1.880192 1_555
