# generated using pymatgen
data_Li2VO2F
_symmetry_space_group_name_H-M   'P 1'
_cell_length_a   4.11472700
_cell_length_b   7.97877900
_cell_length_c   6.88197488
_cell_angle_alpha   89.99999785
_cell_angle_beta   72.60158763
_cell_angle_gamma   89.99999282
_symmetry_Int_Tables_number   1
_chemical_formula_structural   Li2VO2F
_chemical_formula_sum   'Li8 V4 O8 F4'
_cell_volume   215.60165154
_cell_formula_units_Z   4
loop_
 _symmetry_equiv_pos_site_id
 _symmetry_equiv_pos_as_xyz
  1  'x, y, z'
loop_
 _atom_site_type_symbol
 _atom_site_label
 _atom_site_symmetry_multiplicity
 _atom_site_fract_x
 _atom_site_fract_y
 _atom_site_fract_z
 _atom_site_occupancy
  Li  Li0  1  0.66666600  0.99999800  0.66667600  1
  Li  Li1  1  0.66666600  0.50000200  0.66667600  1
  Li  Li2  1  0.16665300  0.25000000  0.66668800  1
  Li  Li3  1  0.16666100  0.75000000  0.66666700  1
  Li  Li4  1  0.00330200  0.00000000  0.99328800  1
  Li  Li5  1  0.00330200  0.50000000  0.99328800  1
  Li  Li6  1  0.32982800  0.00000000  0.34014500  1
  Li  Li7  1  0.32982800  0.50000000  0.34014500  1
  V  V0  1  0.49671500  0.75000000  0.00660200  1
  V  V1  1  0.83665900  0.25000000  0.32667500  1
  V  V2  1  0.49676500  0.25000000  0.00656900  1
  V  V3  1  0.83657100  0.75000000  0.32677400  1
  O  O0  1  0.50656300  0.00001100  0.98683300  1
  O  O1  1  0.50656300  0.49998900  0.98683300  1
  O  O2  1  0.82662600  0.99999000  0.34656000  1
  O  O3  1  0.82662600  0.50001000  0.34656000  1
  O  O4  1  0.99595700  0.25000000  0.00819700  1
  O  O5  1  0.99593600  0.75000000  0.00820300  1
  O  O6  1  0.33743900  0.25000000  0.32509900  1
  O  O7  1  0.33741700  0.75000000  0.32511200  1
  F  F0  1  0.16681200  0.99999800  0.66659800  1
  F  F1  1  0.16681200  0.50000200  0.66659800  1
  F  F2  1  0.66681300  0.25000000  0.66662700  1
  F  F3  1  0.66682200  0.75000000  0.66659300  1
loop_
_geom_bond_atom_site_label_1
_geom_bond_atom_site_label_2
_geom_bond_distance
_geom_bond_site_symmetry_2
Li0 O2 2.102239 1_555
Li0 O0 2.102508 1_565
Li1 O3 2.102239 1_555
Li1 O1 2.102508 1_555
Li2 O4 2.242729 1_456
Li2 O6 2.243254 1_555
Li3 O5 2.242906 1_456
Li3 O7 2.243031 1_555
Li4 O4 1.997096 1_456
Li4 O5 1.997098 1_446
Li4 O0 2.057665 1_455
Li4 O0 2.057935 1_555
Li4 O2 2.319978 1_446
Li5 O4 1.997096 1_456
Li5 O5 1.997098 1_456
Li5 O1 2.057665 1_455
Li5 O1 2.057935 1_555
Li5 O3 2.319978 1_456
Li6 O7 1.997136 1_545
Li6 O6 1.997141 1_555
Li6 O2 2.057769 1_445
Li6 O2 2.057820 1_545
Li6 O0 2.320241 1_554
Li7 O7 1.997136 1_555
Li7 O6 1.997141 1_555
Li7 O3 2.057769 1_455
Li7 O3 2.057820 1_555
Li7 O1 2.320241 1_554
O0 V2 1.998814 1_556
O0 V0 1.999003 1_546
O1 V2 1.998814 1_556
O1 V0 1.999003 1_556
O2 V3 1.998843 1_555
O2 V1 1.999044 1_565
O3 V3 1.998843 1_555
O3 V1 1.999044 1_555
O4 V2 2.057366 1_655
O4 V2 2.057417 1_555
O4 V1 2.091482 1_555
O5 V0 2.057301 1_655
O5 V0 2.057480 1_555
O5 V3 2.092092 1_555
O6 V1 2.057356 1_455
O6 V1 2.057423 1_555
O6 V2 2.091823 1_555
O7 V3 2.057331 1_555
O7 V3 2.057453 1_455
O7 V0 2.091692 1_555
F0 Li3 1.994679 1_555
F0 Li2 1.994711 1_565
F0 Li0 2.056923 1_555
F0 Li0 2.057804 1_455
F0 Li6 2.143855 1_565
F0 Li4 2.145411 1_565
F1 Li3 1.994679 1_555
F1 Li2 1.994711 1_555
F1 Li1 2.056923 1_555
F1 Li1 2.057804 1_455
F1 Li7 2.143855 1_555
F1 Li5 2.145411 1_555
F2 Li1 1.994711 1_555
F2 Li0 1.994711 1_545
F2 Li2 2.056831 1_655
F2 Li2 2.057896 1_555
F2 V2 2.232438 1_556
F2 V1 2.232504 1_555
F3 Li0 1.994679 1_555
F3 Li1 1.994679 1_555
F3 Li3 2.056853 1_655
F3 Li3 2.057874 1_555
F3 V3 2.231631 1_555
F3 V0 2.232878 1_556
