# generated using pymatgen
data_Li2Cr3CuO8
_symmetry_space_group_name_H-M   'P 1'
_cell_length_a   8.35802100
_cell_length_b   8.31477300
_cell_length_c   8.34729647
_cell_angle_alpha   89.96603696
_cell_angle_beta   90.00000000
_cell_angle_gamma   90.00000000
_symmetry_Int_Tables_number   1
_chemical_formula_structural   Li2Cr3CuO8
_chemical_formula_sum   'Li8 Cr12 Cu4 O32'
_cell_volume   580.09566122
_cell_formula_units_Z   4
loop_
 _symmetry_equiv_pos_site_id
 _symmetry_equiv_pos_as_xyz
  1  'x, y, z'
loop_
 _atom_site_type_symbol
 _atom_site_label
 _atom_site_symmetry_multiplicity
 _atom_site_fract_x
 _atom_site_fract_y
 _atom_site_fract_z
 _atom_site_occupancy
  Li  Li0  1  0.00107900  0.25290500  0.49892800  1
  Li  Li1  1  0.24893000  0.49782500  0.25333700  1
  Li  Li2  1  0.74893000  0.50217500  0.74666300  1
  Li  Li3  1  0.50107900  0.74709500  0.50107200  1
  Li  Li4  1  0.99899100  0.75199800  0.00347700  1
  Li  Li5  1  0.75116200  0.99789200  0.25090000  1
  Li  Li6  1  0.25116200  0.00210800  0.74910000  1
  Li  Li7  1  0.49899100  0.24800200  0.99652300  1
  Cr  Cr0  1  0.62701400  0.37293300  0.37516200  1
  Cr  Cr1  1  0.87434200  0.37137400  0.12533800  1
  Cr  Cr2  1  0.12381100  0.37602300  0.87860500  1
  Cr  Cr3  1  0.62381100  0.62397700  0.12139500  1
  Cr  Cr4  1  0.37434200  0.62862600  0.87466200  1
  Cr  Cr5  1  0.12701400  0.62706700  0.62483800  1
  Cr  Cr6  1  0.37700600  0.87463900  0.12838500  1
  Cr  Cr7  1  0.12580900  0.87860600  0.37679600  1
  Cr  Cr8  1  0.87595800  0.87930900  0.62560200  1
  Cr  Cr9  1  0.37595800  0.12069100  0.37439800  1
  Cr  Cr10  1  0.62580900  0.12139400  0.62320400  1
  Cr  Cr11  1  0.87700600  0.12536100  0.87161500  1
  Cu  Cu0  1  0.37442900  0.37546800  0.62525800  1
  Cu  Cu1  1  0.87442900  0.62453200  0.37474200  1
  Cu  Cu2  1  0.62493600  0.87356600  0.87513100  1
  Cu  Cu3  1  0.12493600  0.12643400  0.12486900  1
  O  O0  1  0.38782800  0.35225100  0.38218600  1
  O  O1  1  0.61543300  0.35559500  0.61506400  1
  O  O2  1  0.88589500  0.36454100  0.88814300  1
  O  O3  1  0.86271400  0.38413100  0.36084900  1
  O  O4  1  0.10348200  0.37327500  0.11482100  1
  O  O5  1  0.64151900  0.38345500  0.13564400  1
  O  O6  1  0.36441900  0.39581800  0.86589600  1
  O  O7  1  0.12839700  0.39890600  0.63907700  1
  O  O8  1  0.62839700  0.60109400  0.36092300  1
  O  O9  1  0.86441900  0.60418200  0.13410400  1
  O  O10  1  0.14151900  0.61654500  0.86435600  1
  O  O11  1  0.60348200  0.62672500  0.88517900  1
  O  O12  1  0.36271400  0.61586900  0.63915100  1
  O  O13  1  0.38589500  0.63545900  0.11185700  1
  O  O14  1  0.11543300  0.64440500  0.38493600  1
  O  O15  1  0.88782800  0.64774900  0.61781400  1
  O  O16  1  0.61386000  0.85903800  0.11714800  1
  O  O17  1  0.38086200  0.85475800  0.89193600  1
  O  O18  1  0.11562500  0.86148700  0.61226800  1
  O  O19  1  0.13739300  0.87984000  0.14895900  1
  O  O20  1  0.89068700  0.86866400  0.39667100  1
  O  O21  1  0.36318400  0.89154700  0.37056700  1
  O  O22  1  0.64239300  0.89367400  0.62891500  1
  O  O23  1  0.86641900  0.88459700  0.85457700  1
  O  O24  1  0.36641900  0.11540300  0.14542300  1
  O  O25  1  0.14239300  0.10632600  0.37108500  1
  O  O26  1  0.86318400  0.10845300  0.62943300  1
  O  O27  1  0.39068700  0.13133600  0.60332900  1
  O  O28  1  0.63739300  0.12016000  0.85104100  1
  O  O29  1  0.61562500  0.13851300  0.38773200  1
  O  O30  1  0.88086200  0.14524200  0.10806400  1
  O  O31  1  0.11386000  0.14096200  0.88285200  1
loop_
_geom_bond_atom_site_label_1
_geom_bond_atom_site_label_2
_geom_bond_distance
_geom_bond_site_symmetry_2
Li0 O3 1.963387 1_455
Li0 O26 1.988993 1_455
Li0 O7 1.994077 1_555
Li0 O25 2.005181 1_555
Li1 O4 1.971953 1_555
Li1 O14 1.984603 1_555
Li1 O0 1.992001 1_555
Li1 O13 2.003300 1_555
Li2 O11 1.971953 1_555
Li2 O1 1.984603 1_555
Li2 O15 1.992001 1_555
Li2 O2 2.003300 1_555
Li3 O12 1.963387 1_555
Li3 O21 1.988993 1_555
Li3 O8 1.994077 1_555
Li3 O22 2.005181 1_555
Li4 O19 1.986022 1_655
Li4 O9 1.990728 1_555
Li4 O23 1.996630 1_554
Li4 O10 2.009397 1_654
Li5 O16 1.974313 1_555
Li5 O29 1.989105 1_565
Li5 O20 1.998375 1_555
Li5 O30 2.023867 1_565
Li6 O31 1.974313 1_555
Li6 O18 1.989105 1_545
Li6 O27 1.998375 1_555
Li6 O17 2.023867 1_545
Li7 O28 1.986022 1_555
Li7 O6 1.990728 1_555
Li7 O24 1.996630 1_556
Li7 O5 2.009397 1_556
Cr0 O8 1.900791 1_555
Cr0 O29 1.954229 1_555
Cr0 O3 1.975797 1_555
Cr0 O5 2.004858 1_555
Cr0 O0 2.007358 1_555
Cr0 O1 2.009962 1_555
Cr1 O30 1.886629 1_555
Cr1 O4 1.917233 1_655
Cr1 O9 1.938946 1_555
Cr1 O5 1.950431 1_555
Cr1 O3 1.971200 1_555
Cr1 O2 1.983138 1_554
Cr2 O31 1.956548 1_555
Cr2 O4 1.979191 1_556
Cr2 O2 1.992387 1_455
Cr2 O7 2.008697 1_555
Cr2 O10 2.008809 1_555
Cr2 O6 2.020513 1_555
Cr3 O16 1.956548 1_555
Cr3 O11 1.979191 1_554
Cr3 O13 1.992387 1_555
Cr3 O8 2.008697 1_555
Cr3 O5 2.008809 1_555
Cr3 O9 2.020513 1_555
Cr4 O17 1.886629 1_555
Cr4 O11 1.917233 1_555
Cr4 O6 1.938946 1_555
Cr4 O10 1.950431 1_555
Cr4 O12 1.971200 1_555
Cr4 O13 1.983138 1_556
Cr5 O7 1.900791 1_555
Cr5 O18 1.954229 1_555
Cr5 O12 1.975797 1_555
Cr5 O10 2.004858 1_555
Cr5 O15 2.007358 1_455
Cr5 O14 2.009962 1_555
Cr6 O17 1.980980 1_554
Cr6 O16 1.986096 1_555
Cr6 O13 1.994973 1_555
Cr6 O24 2.008977 1_565
Cr6 O19 2.010508 1_555
Cr6 O21 2.029821 1_555
Cr7 O25 1.899077 1_565
Cr7 O19 1.904307 1_555
Cr7 O14 1.950402 1_555
Cr7 O18 1.972455 1_555
Cr7 O20 1.973873 1_455
Cr7 O21 1.987580 1_555
Cr8 O26 1.908556 1_565
Cr8 O23 1.913516 1_555
Cr8 O20 1.917013 1_555
Cr8 O15 1.929057 1_555
Cr8 O22 1.955988 1_555
Cr8 O18 2.011702 1_655
Cr9 O21 1.908556 1_545
Cr9 O24 1.913516 1_555
Cr9 O27 1.917013 1_555
Cr9 O0 1.929057 1_555
Cr9 O25 1.955988 1_555
Cr9 O29 2.011702 1_555
Cr10 O22 1.899077 1_545
Cr10 O28 1.904307 1_555
Cr10 O1 1.950402 1_555
Cr10 O29 1.972455 1_555
Cr10 O27 1.973873 1_555
Cr10 O26 1.987580 1_555
Cr11 O30 1.980980 1_556
Cr11 O31 1.986096 1_655
Cr11 O2 1.994973 1_555
Cr11 O23 2.008977 1_545
Cr11 O28 2.010508 1_555
Cr11 O26 2.029821 1_555
Cu0 O12 2.004702 1_555
Cu0 O6 2.017626 1_555
Cu0 O1 2.022877 1_555
Cu0 O0 2.041345 1_555
Cu0 O27 2.042771 1_555
Cu0 O7 2.068779 1_555
Cu1 O3 2.004702 1_555
Cu1 O9 2.017626 1_555
Cu1 O14 2.022877 1_655
Cu1 O15 2.041345 1_555
Cu1 O20 2.042771 1_555
Cu1 O8 2.068779 1_555
Cu2 O16 2.025841 1_556
Cu2 O23 2.027670 1_555
Cu2 O17 2.050758 1_555
Cu2 O11 2.061902 1_555
Cu2 O28 2.062721 1_565
Cu2 O22 2.067084 1_555
Cu3 O31 2.025841 1_554
Cu3 O24 2.027670 1_555
Cu3 O30 2.050758 1_455
Cu3 O4 2.061902 1_555
Cu3 O19 2.062721 1_545
Cu3 O25 2.067084 1_555
