# generated using pymatgen
data_LiTi(SiO3)2
_symmetry_space_group_name_H-M   'P 1'
_cell_length_a   7.05185700
_cell_length_b   7.38217408
_cell_length_c   7.46008769
_cell_angle_alpha   81.40882271
_cell_angle_beta   62.29267349
_cell_angle_gamma   76.96921008
_symmetry_Int_Tables_number   1
_chemical_formula_structural   LiTi(SiO3)2
_chemical_formula_sum   'Li3 Ti3 Si6 O18'
_cell_volume   334.52527052
_cell_formula_units_Z   3
loop_
 _symmetry_equiv_pos_site_id
 _symmetry_equiv_pos_as_xyz
  1  'x, y, z'
loop_
 _atom_site_type_symbol
 _atom_site_label
 _atom_site_symmetry_multiplicity
 _atom_site_fract_x
 _atom_site_fract_y
 _atom_site_fract_z
 _atom_site_occupancy
  Li  Li0  1  0.57829100  0.79313200  0.74402400  1
  Li  Li1  1  0.50000000  0.50000000  0.50000000  1
  Li  Li2  1  0.42170900  0.20686800  0.25597600  1
  Ti  Ti0  1  0.05194600  0.77245200  0.74031900  1
  Ti  Ti1  1  0.00000000  0.50000000  0.50000000  1
  Ti  Ti2  1  0.94805400  0.22754800  0.25968100  1
  Si  Si0  1  0.75652100  0.83852600  0.28343000  1
  Si  Si1  1  0.32313100  0.83131100  0.24466000  1
  Si  Si2  1  0.79463800  0.39504700  0.97602900  1
  Si  Si3  1  0.20536200  0.60495300  0.02397100  1
  Si  Si4  1  0.67686900  0.16868900  0.75534000  1
  Si  Si5  1  0.24347900  0.16147400  0.71657000  1
  O  O0  1  0.79867700  0.95566300  0.75962800  1
  O  O1  1  0.24896900  0.94937500  0.68415100  1
  O  O2  1  0.55619900  0.83923800  0.23099100  1
  O  O3  1  0.97671300  0.76192200  0.07030100  1
  O  O4  1  0.74926100  0.69202500  0.47227300  1
  O  O5  1  0.85101300  0.56738100  0.80659300  1
  O  O6  1  0.18802900  0.70199400  0.44561400  1
  O  O7  1  0.28794100  0.57314000  0.78770500  1
  O  O8  1  0.37312600  0.71798600  0.04499900  1
  O  O9  1  0.62687400  0.28201400  0.95500100  1
  O  O10  1  0.71205900  0.42686000  0.21229500  1
  O  O11  1  0.81197100  0.29800600  0.55438600  1
  O  O12  1  0.14898700  0.43261900  0.19340700  1
  O  O13  1  0.25073900  0.30797500  0.52772700  1
  O  O14  1  0.02328700  0.23807800  0.92969900  1
  O  O15  1  0.44380100  0.16076200  0.76900900  1
  O  O16  1  0.75103100  0.05062500  0.31584900  1
  O  O17  1  0.20132300  0.04433700  0.24037200  1
loop_
_geom_bond_atom_site_label_1
_geom_bond_atom_site_label_2
_geom_bond_distance
_geom_bond_site_symmetry_2
Li0 O4 1.973314 1_555
Li0 O8 2.100314 1_556
Li0 O0 2.217952 1_555
Li0 O5 2.418870 1_555
Li0 O1 2.554572 1_555
Li1 O7 2.032702 1_555
Li1 O10 2.032702 1_555
Li1 O4 2.416588 1_555
Li1 O13 2.416588 1_555
Li1 O11 2.529422 1_555
Li1 O6 2.529422 1_555
Li2 O13 1.973314 1_555
Li2 O9 2.100314 1_554
Li2 O17 2.217952 1_555
Li2 O12 2.418870 1_555
Li2 O16 2.554572 1_555
O0 Si4 1.616566 1_565
O0 Ti0 1.941524 1_655
O1 Si5 1.608932 1_565
O1 Ti0 1.981215 1_555
O2 Si1 1.612718 1_555
O2 Si0 1.630507 1_555
O3 Si3 1.679559 1_655
O3 Si0 1.683955 1_555
O3 Ti0 2.257078 1_654
O4 Si0 1.630837 1_555
O4 Ti1 2.073864 1_655
O5 Si2 1.629295 1_555
O5 Ti1 2.110031 1_655
O5 Ti0 2.153194 1_655
O6 Si1 1.649495 1_555
O6 Ti0 2.044408 1_555
O6 Ti1 2.087321 1_555
O7 Si3 1.615066 1_556
O7 Ti0 2.084919 1_555
O8 Si3 1.666533 1_555
O8 Si1 1.671438 1_555
O9 Si2 1.666533 1_555
O9 Si4 1.671438 1_555
O10 Si2 1.615066 1_554
O10 Ti2 2.084919 1_555
O11 Si4 1.649495 1_555
O11 Ti2 2.044408 1_555
O11 Ti1 2.087321 1_655
O12 Si3 1.629295 1_555
O12 Ti1 2.110031 1_555
O12 Ti2 2.153194 1_455
O13 Si5 1.630837 1_555
O13 Ti1 2.073864 1_555
O14 Si2 1.679559 1_455
O14 Si5 1.683955 1_555
O14 Ti2 2.257078 1_456
O15 Si4 1.612718 1_555
O15 Si5 1.630507 1_555
O16 Si0 1.608932 1_545
O16 Ti2 1.981215 1_555
O17 Si1 1.616566 1_545
O17 Ti2 1.941524 1_455
