# generated using pymatgen
data_Mn12O7F17
_symmetry_space_group_name_H-M   'P 1'
_cell_length_a   4.79136100
_cell_length_b   5.81226785
_cell_length_c   15.86842575
_cell_angle_alpha   89.46092476
_cell_angle_beta   89.90579014
_cell_angle_gamma   85.84861943
_symmetry_Int_Tables_number   1
_chemical_formula_structural   Mn12O7F17
_chemical_formula_sum   'Mn12 O7 F17'
_cell_volume   440.73542712
_cell_formula_units_Z   1
loop_
 _symmetry_equiv_pos_site_id
 _symmetry_equiv_pos_as_xyz
  1  'x, y, z'
loop_
 _atom_site_type_symbol
 _atom_site_label
 _atom_site_symmetry_multiplicity
 _atom_site_fract_x
 _atom_site_fract_y
 _atom_site_fract_z
 _atom_site_occupancy
  Mn  Mn0  1  0.00543600  0.85131500  0.41697800  1
  Mn  Mn1  1  0.97425000  0.16300400  0.23722000  1
  Mn  Mn2  1  0.98596700  0.84737000  0.07623400  1
  Mn  Mn3  1  0.98056800  0.85013800  0.75326900  1
  Mn  Mn4  1  0.96149400  0.16546900  0.57988600  1
  Mn  Mn5  1  0.99229200  0.14925500  0.91279800  1
  Mn  Mn6  1  0.50516300  0.64373500  0.58719700  1
  Mn  Mn7  1  0.51502000  0.68918300  0.93036400  1
  Mn  Mn8  1  0.47944000  0.66609900  0.25847500  1
  Mn  Mn9  1  0.50063800  0.35076700  0.08275700  1
  Mn  Mn10  1  0.49473500  0.34501400  0.41816800  1
  Mn  Mn11  1  0.51704200  0.33123800  0.75120500  1
  O  O0  1  0.80540500  0.89608800  0.96888700  1
  O  O1  1  0.76249400  0.11102600  0.12707100  1
  O  O2  1  0.77291200  0.11725100  0.46957900  1
  O  O3  1  0.78113200  0.11425900  0.80576700  1
  O  O4  1  0.70836200  0.37497700  0.64349100  1
  O  O5  1  0.28440000  0.62011200  0.03323200  1
  O  O6  1  0.27580400  0.61546600  0.36935700  1
  F  F0  1  0.77892400  0.88465800  0.30606400  1
  F  F1  1  0.76074800  0.87504100  0.64270800  1
  F  F2  1  0.73651400  0.60330000  0.14977600  1
  F  F3  1  0.72702100  0.38215700  0.31261700  1
  F  F4  1  0.74612700  0.61509700  0.47623600  1
  F  F5  1  0.72797100  0.61449200  0.81436700  1
  F  F6  1  0.74388300  0.39373400  0.97909100  1
  F  F7  1  0.28529700  0.37789400  0.19328100  1
  F  F8  1  0.26981300  0.38622800  0.52546100  1
  F  F9  1  0.27499000  0.36601300  0.85742300  1
  F  F10  1  0.25682300  0.60881600  0.70092900  1
  F  F11  1  0.21261600  0.87616500  0.18391600  1
  F  F12  1  0.22590800  0.88818200  0.53133200  1
  F  F13  1  0.23725700  0.10764800  0.35322200  1
  F  F14  1  0.25002700  0.12756200  0.01550800  1
  F  F15  1  0.24987400  0.87901700  0.85122600  1
  F  F16  1  0.21365200  0.11222700  0.68490300  1
loop_
_geom_bond_atom_site_label_1
_geom_bond_atom_site_label_2
_geom_bond_distance
_geom_bond_site_symmetry_2
Mn0 O6 1.971671 1_555
Mn0 O2 2.024599 1_465
Mn1 O1 2.058143 1_555
Mn2 O0 1.921097 1_554
Mn2 O1 1.982039 1_565
Mn2 O5 1.998819 1_655
Mn3 O3 1.942376 1_565
Mn4 O4 1.943659 1_555
Mn4 O2 2.002489 1_555
Mn5 O0 1.980591 1_545
Mn5 O3 1.997888 1_555
Mn6 O4 1.985553 1_555
Mn7 O0 2.003650 1_555
Mn7 O5 2.023042 1_556
Mn8 O6 2.039777 1_555
Mn9 O1 1.934330 1_555
Mn9 O5 1.971436 1_555
Mn10 O6 1.977954 1_555
Mn10 O2 1.980484 1_555
Mn11 O3 1.921778 1_555
Mn11 O4 1.961349 1_555
F0 Mn0 2.069433 1_655
F0 Mn8 2.128042 1_555
F0 Mn1 2.206637 1_565
F1 Mn3 2.046340 1_555
F1 Mn6 2.085000 1_555
F1 Mn4 2.229055 1_565
F2 Mn8 2.136676 1_555
F2 Mn9 2.199133 1_555
F2 Mn2 2.238884 1_555
F3 Mn10 2.027939 1_555
F3 Mn1 2.064631 1_555
F3 Mn8 2.135929 1_555
F4 Mn6 2.105237 1_555
F4 Mn0 2.128792 1_655
F4 Mn10 2.251399 1_555
F5 Mn3 2.119395 1_555
F5 Mn7 2.135976 1_555
F5 Mn11 2.238682 1_555
F6 Mn9 2.038353 1_556
F6 Mn5 2.078838 1_555
F6 Mn7 2.110537 1_555
F7 Mn9 2.034965 1_555
F7 Mn1 2.125313 1_455
F7 Mn8 2.236728 1_555
F8 Mn10 2.020345 1_555
F8 Mn6 2.178761 1_555
F8 Mn4 2.196350 1_455
F9 Mn11 2.047654 1_555
F9 Mn5 2.101521 1_455
F9 Mn7 2.559029 1_555
F10 Mn3 2.039290 1_455
F10 Mn11 2.117012 1_555
F10 Mn6 2.176039 1_555
F11 Mn2 2.040813 1_455
F11 Mn8 2.068037 1_555
F11 Mn1 2.132377 1_465
F12 Mn6 2.073583 1_555
F12 Mn0 2.121567 1_555
F12 Mn4 2.126188 1_465
F13 Mn0 2.164384 1_545
F13 Mn10 2.182845 1_555
F13 Mn1 2.240031 1_455
F14 Mn5 2.043890 1_454
F14 Mn9 2.125909 1_555
F14 Mn2 2.333727 1_445
F15 Mn3 2.037708 1_455
F15 Mn7 2.045631 1_555
F15 Mn5 2.165441 1_465
F16 Mn4 2.067684 1_455
F16 Mn3 2.226188 1_445
F16 Mn11 2.266843 1_555
