# generated using pymatgen
data_CaLaI5
_symmetry_space_group_name_H-M   'P 1'
_cell_length_a   4.49717700
_cell_length_b   15.19999000
_cell_length_c   18.29752600
_cell_angle_alpha   90.00000000
_cell_angle_beta   90.00000000
_cell_angle_gamma   90.00000000
_symmetry_Int_Tables_number   1
_chemical_formula_structural   CaLaI5
_chemical_formula_sum   'Ca4 La4 I20'
_cell_volume   1250.76481601
_cell_formula_units_Z   4
loop_
 _symmetry_equiv_pos_site_id
 _symmetry_equiv_pos_as_xyz
  1  'x, y, z'
loop_
 _atom_site_type_symbol
 _atom_site_label
 _atom_site_symmetry_multiplicity
 _atom_site_fract_x
 _atom_site_fract_y
 _atom_site_fract_z
 _atom_site_occupancy
  Ca  Ca0  1  0.75000000  0.23896500  0.09194200  1
  Ca  Ca1  1  0.25000000  0.73896500  0.40805800  1
  Ca  Ca2  1  0.75000000  0.26103500  0.59194200  1
  Ca  Ca3  1  0.25000000  0.76103500  0.90805800  1
  La  La0  1  0.75000000  0.74258300  0.15678900  1
  La  La1  1  0.25000000  0.24258300  0.34321100  1
  La  La2  1  0.75000000  0.75741700  0.65678900  1
  La  La3  1  0.25000000  0.25741700  0.84321100  1
  I  I0  1  0.25000000  0.34962600  0.01705100  1
  I  I1  1  0.25000000  0.86146800  0.05917000  1
  I  I2  1  0.25000000  0.59612900  0.15440400  1
  I  I3  1  0.25000000  0.13282600  0.16996500  1
  I  I4  1  0.75000000  0.34924900  0.23859800  1
  I  I5  1  0.25000000  0.84924900  0.26140200  1
  I  I6  1  0.75000000  0.63282600  0.33003500  1
  I  I7  1  0.75000000  0.09612900  0.34559600  1
  I  I8  1  0.75000000  0.36146800  0.44083000  1
  I  I9  1  0.75000000  0.84962600  0.48294900  1
  I  I10  1  0.25000000  0.15037400  0.51705100  1
  I  I11  1  0.25000000  0.63853200  0.55917000  1
  I  I12  1  0.25000000  0.90387100  0.65440400  1
  I  I13  1  0.25000000  0.36717400  0.66996500  1
  I  I14  1  0.75000000  0.15075100  0.73859800  1
  I  I15  1  0.25000000  0.65075100  0.76140200  1
  I  I16  1  0.75000000  0.86717400  0.83003500  1
  I  I17  1  0.75000000  0.40387100  0.84559600  1
  I  I18  1  0.75000000  0.13853200  0.94083000  1
  I  I19  1  0.75000000  0.65037400  0.98294900  1
loop_
_geom_bond_atom_site_label_1
_geom_bond_atom_site_label_2
_geom_bond_distance
_geom_bond_site_symmetry_2
Ca0 I3 3.114008 1_655
Ca0 I3 3.114008 1_555
Ca0 I0 3.124613 1_555
Ca0 I0 3.124613 1_655
Ca0 I18 3.158408 1_554
Ca0 I4 3.164000 1_555
Ca1 I6 3.114008 1_555
Ca1 I6 3.114008 1_455
Ca1 I9 3.124613 1_555
Ca1 I9 3.124613 1_455
Ca1 I11 3.158408 1_555
Ca1 I5 3.164000 1_555
Ca2 I13 3.114008 1_655
Ca2 I13 3.114008 1_555
Ca2 I10 3.124613 1_555
Ca2 I10 3.124613 1_655
Ca2 I8 3.158408 1_555
Ca2 I14 3.164000 1_555
Ca3 I16 3.114008 1_455
Ca3 I16 3.114008 1_555
Ca3 I19 3.124613 1_455
Ca3 I19 3.124613 1_555
Ca3 I1 3.158408 1_556
Ca3 I15 3.164000 1_555
I0 La3 3.475942 1_554
I1 La0 3.392940 1_455
I1 La0 3.392940 1_555
I2 La0 3.164423 1_455
I2 La0 3.164423 1_555
I3 La1 3.582174 1_555
I4 La1 3.368804 1_555
I4 La1 3.368804 1_655
I5 La0 3.368804 1_555
I5 La0 3.368804 1_455
I6 La0 3.582174 1_555
I7 La1 3.164423 1_655
I7 La1 3.164423 1_555
I8 La1 3.392940 1_555
I8 La1 3.392940 1_655
I9 La2 3.475942 1_555
I10 La1 3.475942 1_555
I11 La2 3.392940 1_455
I11 La2 3.392940 1_555
I12 La2 3.164423 1_555
I12 La2 3.164423 1_455
I13 La3 3.582174 1_555
I14 La3 3.368804 1_555
I14 La3 3.368804 1_655
I15 La2 3.368804 1_455
I15 La2 3.368804 1_555
I16 La2 3.582174 1_555
I17 La3 3.164423 1_555
I17 La3 3.164423 1_655
I18 La3 3.392940 1_555
I18 La3 3.392940 1_655
I19 La0 3.475942 1_556
