# generated using pymatgen
data_Li2VF5
_symmetry_space_group_name_H-M   'P 1'
_cell_length_a   6.70457800
_cell_length_b   7.45598900
_cell_length_c   8.10121900
_cell_angle_alpha   90.00000000
_cell_angle_beta   90.00000000
_cell_angle_gamma   90.00000000
_symmetry_Int_Tables_number   1
_chemical_formula_structural   Li2VF5
_chemical_formula_sum   'Li8 V4 F20'
_cell_volume   404.97394143
_cell_formula_units_Z   4
loop_
 _symmetry_equiv_pos_site_id
 _symmetry_equiv_pos_as_xyz
  1  'x, y, z'
loop_
 _atom_site_type_symbol
 _atom_site_label
 _atom_site_symmetry_multiplicity
 _atom_site_fract_x
 _atom_site_fract_y
 _atom_site_fract_z
 _atom_site_occupancy
  Li  Li0  1  0.15124100  0.76636200  0.87697200  1
  Li  Li1  1  0.73604400  0.05357800  0.87621700  1
  Li  Li2  1  0.23604400  0.55357800  0.62378300  1
  Li  Li3  1  0.65124100  0.26636200  0.62302800  1
  Li  Li4  1  0.34875900  0.76636200  0.37697200  1
  Li  Li5  1  0.76395600  0.05357800  0.37621700  1
  Li  Li6  1  0.26395600  0.55357800  0.12378300  1
  Li  Li7  1  0.84875900  0.26636200  0.12302800  1
  V  V0  1  0.25128400  0.24090700  0.87471100  1
  V  V1  1  0.75128400  0.74090700  0.62528900  1
  V  V2  1  0.24871600  0.24090700  0.37471100  1
  V  V3  1  0.74871600  0.74090700  0.12528900  1
  F  F0  1  0.96273200  0.22695000  0.90812000  1
  F  F1  1  0.26375300  0.98851900  0.87659900  1
  F  F2  1  0.25427100  0.51153700  0.87467400  1
  F  F3  1  0.72237300  0.77939300  0.87518100  1
  F  F4  1  0.53974000  0.23774100  0.83946100  1
  F  F5  1  0.03974000  0.73774100  0.66053900  1
  F  F6  1  0.22237300  0.27939300  0.62481900  1
  F  F7  1  0.76375300  0.48851900  0.62340100  1
  F  F8  1  0.75427100  0.01153700  0.62532600  1
  F  F9  1  0.46273200  0.72695000  0.59188000  1
  F  F10  1  0.53726800  0.22695000  0.40812000  1
  F  F11  1  0.23624700  0.98851900  0.37659900  1
  F  F12  1  0.24572900  0.51153700  0.37467400  1
  F  F13  1  0.77762700  0.77939300  0.37518100  1
  F  F14  1  0.96026000  0.23774100  0.33946100  1
  F  F15  1  0.46026000  0.73774100  0.16053900  1
  F  F16  1  0.27762700  0.27939300  0.12481900  1
  F  F17  1  0.73624700  0.48851900  0.12340100  1
  F  F18  1  0.74572900  0.01153700  0.12532600  1
  F  F19  1  0.03726800  0.72695000  0.09188000  1
loop_
_geom_bond_atom_site_label_1
_geom_bond_atom_site_label_2
_geom_bond_distance
_geom_bond_site_symmetry_2
F0 Li7 1.923903 1_556
F0 V0 1.956230 1_655
F0 Li1 2.011890 1_555
F1 Li0 1.820085 1_555
F1 V0 1.883720 1_565
F2 V0 2.017914 1_555
F2 Li0 2.021734 1_555
F2 Li6 2.043317 1_556
F2 Li2 2.060179 1_555
F3 Li1 2.046391 1_565
F3 V1 2.053833 1_555
F3 V3 2.054006 1_556
F4 Li3 1.917995 1_555
F4 Li1 1.925183 1_555
F4 V0 1.955088 1_555
F5 Li0 1.917995 1_555
F5 Li2 1.925183 1_555
F5 V1 1.955088 1_455
F6 Li2 2.046391 1_555
F6 V0 2.053833 1_555
F6 V2 2.054006 1_555
F7 Li3 1.820085 1_555
F7 V1 1.883720 1_555
F8 V1 2.017914 1_545
F8 Li3 2.021734 1_555
F8 Li5 2.043317 1_555
F8 Li1 2.060179 1_555
F9 Li4 1.923903 1_555
F9 V1 1.956230 1_555
F9 Li2 2.011890 1_555
F10 Li3 1.923903 1_555
F10 V2 1.956230 1_555
F10 Li5 2.011890 1_555
F11 Li4 1.820085 1_555
F11 V2 1.883720 1_565
F12 V2 2.017914 1_555
F12 Li4 2.021734 1_555
F12 Li2 2.043317 1_555
F12 Li6 2.060179 1_555
F13 Li5 2.046391 1_565
F13 V3 2.053833 1_555
F13 V1 2.054006 1_555
F14 Li7 1.917995 1_555
F14 Li5 1.925183 1_555
F14 V2 1.955088 1_655
F15 Li4 1.917995 1_555
F15 Li6 1.925183 1_555
F15 V3 1.955088 1_555
F16 Li6 2.046391 1_555
F16 V2 2.053833 1_555
F16 V0 2.054006 1_554
F17 Li7 1.820085 1_555
F17 V3 1.883720 1_555
F18 V3 2.017914 1_545
F18 Li7 2.021734 1_555
F18 Li1 2.043317 1_554
F18 Li5 2.060179 1_555
F19 Li0 1.923903 1_554
F19 V3 1.956230 1_455
F19 Li6 2.011890 1_555
