# generated using pymatgen
data_Li3Mn2V3O12
_symmetry_space_group_name_H-M   'P 1'
_cell_length_a   9.19689400
_cell_length_b   8.82642100
_cell_length_c   15.08404303
_cell_angle_alpha   56.99579524
_cell_angle_beta   90.00000000
_cell_angle_gamma   90.00000000
_symmetry_Int_Tables_number   1
_chemical_formula_structural   Li3Mn2V3O12
_chemical_formula_sum   'Li12 Mn8 V12 O48'
_cell_volume   1026.86720742
_cell_formula_units_Z   4
loop_
 _symmetry_equiv_pos_site_id
 _symmetry_equiv_pos_as_xyz
  1  'x, y, z'
loop_
 _atom_site_type_symbol
 _atom_site_label
 _atom_site_symmetry_multiplicity
 _atom_site_fract_x
 _atom_site_fract_y
 _atom_site_fract_z
 _atom_site_occupancy
  Li  Li0  1  0.91046100  0.37748700  0.69672500  1
  Li  Li1  1  0.48755300  0.71678000  0.34225500  1
  Li  Li2  1  0.22359500  0.99805900  0.18035500  1
  Li  Li3  1  0.72359500  0.00194100  0.31964500  1
  Li  Li4  1  0.41046100  0.62251300  0.80327500  1
  Li  Li5  1  0.98755300  0.28322000  0.15774500  1
  Li  Li6  1  0.01244700  0.71678000  0.84225500  1
  Li  Li7  1  0.58953900  0.37748700  0.19672500  1
  Li  Li8  1  0.27640500  0.99805900  0.68035500  1
  Li  Li9  1  0.77640500  0.00194100  0.81964500  1
  Li  Li10  1  0.51244700  0.28322000  0.65774500  1
  Li  Li11  1  0.08953900  0.62251300  0.30327500  1
  Mn  Mn0  1  0.97224000  0.35448700  0.89391800  1
  Mn  Mn1  1  0.47224000  0.64551300  0.60608200  1
  Mn  Mn2  1  0.03325200  0.87128500  0.38216300  1
  Mn  Mn3  1  0.53325200  0.12871500  0.11783700  1
  Mn  Mn4  1  0.46674800  0.87128500  0.88216300  1
  Mn  Mn5  1  0.96674800  0.12871500  0.61783700  1
  Mn  Mn6  1  0.52776000  0.35448700  0.39391800  1
  Mn  Mn7  1  0.02776000  0.64551300  0.10608200  1
  V  V0  1  0.75013800  0.55458400  0.48930800  1
  V  V1  1  0.62207500  0.26128400  0.85728600  1
  V  V2  1  0.88557500  0.96446800  0.14776000  1
  V  V3  1  0.12207500  0.73871600  0.64271400  1
  V  V4  1  0.38557500  0.03553200  0.35224000  1
  V  V5  1  0.25013800  0.44541600  0.01069200  1
  V  V6  1  0.74986200  0.55458400  0.98930800  1
  V  V7  1  0.61442500  0.96446800  0.64776000  1
  V  V8  1  0.87792500  0.26128400  0.35728600  1
  V  V9  1  0.11442500  0.03553200  0.85224000  1
  V  V10  1  0.37792500  0.73871600  0.14271400  1
  V  V11  1  0.24986200  0.44541600  0.51069200  1
  O  O0  1  0.12393600  0.61024800  0.44125400  1
  O  O1  1  0.10375100  0.16708500  0.90419600  1
  O  O2  1  0.34546700  0.46219900  0.60642300  1
  O  O3  1  0.41791700  0.87083600  0.19418600  1
  O  O4  1  0.63037800  0.51771400  0.59006100  1
  O  O5  1  0.81494100  0.28248700  0.84027300  1
  O  O6  1  0.58102600  0.14819800  0.99011600  1
  O  O7  1  0.01298200  0.87059900  0.25364400  1
  O  O8  1  0.71233800  0.98122600  0.19080400  1
  O  O9  1  0.82995300  0.76899000  0.42692000  1
  O  O10  1  0.53106500  0.46201900  0.78542500  1
  O  O11  1  0.03106500  0.53798100  0.71457500  1
  O  O12  1  0.94778200  0.18269700  0.06428100  1
  O  O13  1  0.44778200  0.81730300  0.43571900  1
  O  O14  1  0.32995300  0.23101000  0.07308000  1
  O  O15  1  0.21233800  0.01877400  0.30919600  1
  O  O16  1  0.08102600  0.85180200  0.50988400  1
  O  O17  1  0.51298200  0.12940100  0.24635600  1
  O  O18  1  0.31494100  0.71751300  0.65972700  1
  O  O19  1  0.13037800  0.48228600  0.90993900  1
  O  O20  1  0.84546700  0.53780100  0.89357700  1
  O  O21  1  0.60375100  0.83291500  0.59580400  1
  O  O22  1  0.91791700  0.12916400  0.30581400  1
  O  O23  1  0.62393600  0.38975200  0.05874600  1
  O  O24  1  0.37606400  0.61024800  0.94125400  1
  O  O25  1  0.08208300  0.87083600  0.69418600  1
  O  O26  1  0.39624900  0.16708500  0.40419600  1
  O  O27  1  0.15453300  0.46219900  0.10642300  1
  O  O28  1  0.86962200  0.51771400  0.09006100  1
  O  O29  1  0.68505900  0.28248700  0.34027300  1
  O  O30  1  0.48701800  0.87059900  0.75364400  1
  O  O31  1  0.91897400  0.14819800  0.49011600  1
  O  O32  1  0.78766200  0.98122600  0.69080400  1
  O  O33  1  0.67004700  0.76899000  0.92692000  1
  O  O34  1  0.55221800  0.18269700  0.56428100  1
  O  O35  1  0.05221800  0.81730300  0.93571900  1
  O  O36  1  0.96893500  0.46201900  0.28542500  1
  O  O37  1  0.46893500  0.53798100  0.21457500  1
  O  O38  1  0.17004700  0.23101000  0.57308000  1
  O  O39  1  0.28766200  0.01877400  0.80919600  1
  O  O40  1  0.98701800  0.12940100  0.74635600  1
  O  O41  1  0.41897400  0.85180200  0.00988400  1
  O  O42  1  0.18505900  0.71751300  0.15972700  1
  O  O43  1  0.36962200  0.48228600  0.40993900  1
  O  O44  1  0.58208300  0.12916400  0.80581400  1
  O  O45  1  0.65453300  0.53780100  0.39357700  1
  O  O46  1  0.89624900  0.83291500  0.09580400  1
  O  O47  1  0.87606400  0.38975200  0.55874600  1
loop_
_geom_bond_atom_site_label_1
_geom_bond_atom_site_label_2
_geom_bond_distance
_geom_bond_site_symmetry_2
Li0 O11 1.930030 1_655
Li0 O40 2.016229 1_555
Li0 O5 2.045816 1_555
Li0 O47 2.048919 1_555
Li1 O3 1.984698 1_555
Li1 O45 2.030018 1_555
Li1 O43 2.049515 1_555
Li1 O13 2.066711 1_555
Li2 O14 2.044085 1_565
Li2 O15 2.051396 1_565
Li2 O3 2.059904 1_555
Li2 O7 2.210159 1_555
Li3 O9 2.044085 1_545
Li3 O8 2.051396 1_545
Li3 O22 2.059904 1_555
Li3 O17 2.210159 1_555
Li4 O10 1.930030 1_555
Li4 O30 2.016229 1_555
Li4 O18 2.045816 1_555
Li4 O24 2.048919 1_555
Li5 O22 1.984698 1_555
Li5 O27 2.030018 1_655
Li5 O28 2.049515 1_555
Li5 O12 2.066711 1_555
Li6 O25 1.984698 1_555
Li6 O20 2.030018 1_455
Li6 O19 2.049515 1_555
Li6 O35 2.066711 1_555
Li7 O37 1.930030 1_555
Li7 O17 2.016229 1_555
Li7 O29 2.045816 1_555
Li7 O23 2.048919 1_555
Li8 O38 2.044085 1_565
Li8 O39 2.051396 1_565
Li8 O25 2.059904 1_555
Li8 O30 2.210159 1_555
Li9 O33 2.044085 1_545
Li9 O32 2.051396 1_545
Li9 O44 2.059904 1_555
Li9 O40 2.210159 1_555
Li10 O44 1.984698 1_555
Li10 O2 2.030018 1_555
Li10 O4 2.049515 1_555
Li10 O34 2.066711 1_555
Li11 O36 1.930030 1_455
Li11 O7 2.016229 1_555
Li11 O42 2.045816 1_555
Li11 O0 2.048919 1_555
Mn0 O5 1.926573 1_555
Mn0 O19 1.934680 1_655
Mn0 O1 1.985838 1_655
Mn0 O20 1.992052 1_555
Mn0 O12 2.169921 1_556
Mn0 O11 2.336862 1_655
Mn1 O18 1.926573 1_555
Mn1 O4 1.934680 1_555
Mn1 O21 1.985838 1_555
Mn1 O2 1.992052 1_555
Mn1 O13 2.169921 1_555
Mn1 O10 2.336862 1_555
Mn2 O16 1.890316 1_555
Mn2 O7 1.950819 1_555
Mn2 O15 2.014424 1_565
Mn2 O9 2.025537 1_455
Mn2 O0 2.135725 1_555
Mn2 O22 2.185545 1_465
Mn3 O6 1.890316 1_554
Mn3 O17 1.950819 1_555
Mn3 O8 2.014424 1_545
Mn3 O14 2.025537 1_555
Mn3 O23 2.135725 1_555
Mn3 O3 2.185545 1_545
Mn4 O41 1.890316 1_556
Mn4 O30 1.950819 1_555
Mn4 O39 2.014424 1_565
Mn4 O33 2.025537 1_555
Mn4 O24 2.135725 1_555
Mn4 O44 2.185545 1_565
Mn5 O31 1.890316 1_555
Mn5 O40 1.950819 1_555
Mn5 O32 2.014424 1_545
Mn5 O38 2.025537 1_655
Mn5 O47 2.135725 1_555
Mn5 O25 2.185545 1_645
Mn6 O29 1.926573 1_555
Mn6 O43 1.934680 1_555
Mn6 O26 1.985838 1_555
Mn6 O45 1.992052 1_555
Mn6 O34 2.169921 1_555
Mn6 O37 2.336862 1_555
Mn7 O42 1.926573 1_555
Mn7 O28 1.934680 1_455
Mn7 O46 1.985838 1_455
Mn7 O27 1.992052 1_555
Mn7 O35 2.169921 1_554
Mn7 O36 2.336862 1_455
O0 V11 1.701442 1_555
O1 V9 1.721463 1_555
O2 V11 1.764442 1_555
O3 V10 1.756226 1_555
O4 V0 1.757816 1_555
O5 V1 1.787404 1_555
O6 V1 1.724701 1_555
O7 V2 1.780105 1_455
O8 V2 1.756839 1_555
O9 V0 1.750894 1_555
O10 V1 1.709532 1_555
O11 V3 1.709532 1_555
O12 V2 1.726495 1_545
O13 V4 1.726495 1_565
O14 V5 1.750894 1_555
O15 V4 1.756839 1_555
O16 V3 1.724701 1_555
O17 V4 1.780105 1_555
O18 V3 1.787404 1_555
O19 V5 1.757816 1_556
O20 V6 1.764442 1_555
O21 V7 1.721463 1_555
O22 V8 1.756226 1_555
O23 V6 1.701442 1_554
O24 V5 1.701442 1_556
O25 V3 1.756226 1_555
O26 V4 1.721463 1_555
O27 V5 1.764442 1_555
O28 V6 1.757816 1_554
O29 V8 1.787404 1_555
O30 V7 1.780105 1_555
O31 V8 1.724701 1_555
O32 V7 1.756839 1_555
O33 V6 1.750894 1_555
O34 V7 1.726495 1_545
O35 V9 1.726495 1_565
O36 V8 1.709532 1_555
O37 V10 1.709532 1_555
O38 V11 1.750894 1_555
O39 V9 1.756839 1_555
O40 V9 1.780105 1_655
O41 V10 1.724701 1_555
O42 V10 1.787404 1_555
O43 V11 1.757816 1_555
O44 V1 1.756226 1_555
O45 V0 1.764442 1_555
O46 V2 1.721463 1_555
O47 V0 1.701442 1_555
