# generated using pymatgen
data_Li2NiP2O7
_symmetry_space_group_name_H-M   'P 1'
_cell_length_a   17.90801000
_cell_length_b   7.69774000
_cell_length_c   8.19208015
_cell_angle_alpha   87.77339585
_cell_angle_beta   90.00000000
_cell_angle_gamma   90.00000000
_symmetry_Int_Tables_number   1
_chemical_formula_structural   Li2NiP2O7
_chemical_formula_sum   'Li16 Ni8 P16 O56'
_cell_volume   1128.43548891
_cell_formula_units_Z   8
loop_
 _symmetry_equiv_pos_site_id
 _symmetry_equiv_pos_as_xyz
  1  'x, y, z'
loop_
 _atom_site_type_symbol
 _atom_site_label
 _atom_site_symmetry_multiplicity
 _atom_site_fract_x
 _atom_site_fract_y
 _atom_site_fract_z
 _atom_site_occupancy
  Li  Li0  1  0.54154700  0.30456200  0.00158800  1
  Li  Li1  1  0.29267700  0.83606600  0.01555200  1
  Li  Li2  1  0.78862700  0.65567700  0.07160800  1
  Li  Li3  1  0.09864800  0.31648100  0.11844000  1
  Li  Li4  1  0.55731600  0.84042000  0.16865900  1
  Li  Li5  1  0.36405800  0.58097600  0.24755700  1
  Li  Li6  1  0.94500200  0.90130100  0.27447000  1
  Li  Li7  1  0.18626500  0.23908100  0.49591900  1
  Li  Li8  1  0.68626500  0.76091900  0.50408100  1
  Li  Li9  1  0.44500200  0.09869900  0.72553000  1
  Li  Li10  1  0.86405800  0.41902400  0.75244300  1
  Li  Li11  1  0.05731600  0.15958000  0.83134100  1
  Li  Li12  1  0.59864800  0.68351900  0.88156000  1
  Li  Li13  1  0.28862700  0.34432300  0.92839200  1
  Li  Li14  1  0.79267700  0.16393400  0.98444800  1
  Li  Li15  1  0.04154700  0.69543800  0.99841200  1
  Ni  Ni0  1  0.53941100  0.11072600  0.41028200  1
  Ni  Ni1  1  0.79023700  0.41116100  0.40929200  1
  Ni  Ni2  1  0.29047200  0.90475800  0.40445400  1
  Ni  Ni3  1  0.04351300  0.58713900  0.40227600  1
  Ni  Ni4  1  0.54351300  0.41286100  0.59772400  1
  Ni  Ni5  1  0.79047200  0.09524200  0.59554600  1
  Ni  Ni6  1  0.29023700  0.58883900  0.59070800  1
  Ni  Ni7  1  0.03941100  0.88927400  0.58971800  1
  P  P0  1  0.40770900  0.07131900  0.13349600  1
  P  P1  1  0.92553300  0.44631500  0.13500800  1
  P  P2  1  0.63290800  0.44584700  0.24173000  1
  P  P3  1  0.20173700  0.59256000  0.22286000  1
  P  P4  1  0.69644800  0.08999200  0.24375900  1
  P  P5  1  0.13110700  0.93882400  0.24000600  1
  P  P6  1  0.37389100  0.25417300  0.43634300  1
  P  P7  1  0.95499300  0.24169500  0.43691800  1
  P  P8  1  0.45499300  0.75830500  0.56308200  1
  P  P9  1  0.87389100  0.74582700  0.56365700  1
  P  P10  1  0.63110700  0.06117600  0.75999400  1
  P  P11  1  0.19644800  0.91000800  0.75624100  1
  P  P12  1  0.70173700  0.40744000  0.77714000  1
  P  P13  1  0.13290800  0.55415300  0.75827000  1
  P  P14  1  0.42553300  0.55368500  0.86499200  1
  P  P15  1  0.90770900  0.92868100  0.86650400  1
  O  O0  1  0.40184000  0.13124500  0.95592500  1
  O  O1  1  0.92169900  0.39956700  0.95825700  1
  O  O2  1  0.59531000  0.55356100  0.10387700  1
  O  O3  1  0.24901100  0.51595900  0.09050100  1
  O  O4  1  0.09026000  0.05449400  0.11505600  1
  O  O5  1  0.66168500  0.26961800  0.15543500  1
  O  O6  1  0.73913100  0.99880800  0.11400300  1
  O  O7  1  0.16348000  0.77105500  0.14166800  1
  O  O8  1  0.48953500  0.03806800  0.18799200  1
  O  O9  1  0.84996400  0.50157100  0.20602800  1
  O  O10  1  0.99094200  0.57103100  0.17335700  1
  O  O11  1  0.35227900  0.92561900  0.18433100  1
  O  O12  1  0.38257600  0.23726000  0.23936000  1
  O  O13  1  0.94847500  0.26756500  0.23821700  1
  O  O14  1  0.19462700  0.03568400  0.32360300  1
  O  O15  1  0.13999500  0.46948600  0.29049900  1
  O  O16  1  0.63159000  0.97660500  0.31564300  1
  O  O17  1  0.69740000  0.54587800  0.31986500  1
  O  O18  1  0.57797900  0.36265000  0.36517700  1
  O  O19  1  0.24928100  0.66940400  0.35668900  1
  O  O20  1  0.74489400  0.16933900  0.37494100  1
  O  O21  1  0.07969700  0.83777300  0.36139400  1
  O  O22  1  0.32979200  0.41998700  0.43813000  1
  O  O23  1  0.98219800  0.05746200  0.45225900  1
  O  O24  1  0.51093500  0.63285200  0.49553700  1
  O  O25  1  0.45214900  0.26601900  0.51078300  1
  O  O26  1  0.37670000  0.73586300  0.49166800  1
  O  O27  1  0.33084200  0.10386700  0.51476100  1
  O  O28  1  0.83084200  0.89613300  0.48523900  1
  O  O29  1  0.87670000  0.26413700  0.50833200  1
  O  O30  1  0.95214900  0.73398100  0.48921700  1
  O  O31  1  0.01093500  0.36714800  0.50446300  1
  O  O32  1  0.48219800  0.94253800  0.54774100  1
  O  O33  1  0.82979200  0.58001300  0.56187000  1
  O  O34  1  0.57969700  0.16222700  0.63860600  1
  O  O35  1  0.24489400  0.83066100  0.62505900  1
  O  O36  1  0.74928100  0.33059600  0.64331100  1
  O  O37  1  0.07797900  0.63735000  0.63482300  1
  O  O38  1  0.19740000  0.45412200  0.68013500  1
  O  O39  1  0.13159000  0.02339500  0.68435700  1
  O  O40  1  0.63999500  0.53051400  0.70950100  1
  O  O41  1  0.69462700  0.96431600  0.67639700  1
  O  O42  1  0.44847500  0.73243500  0.76178300  1
  O  O43  1  0.88257600  0.76274000  0.76064000  1
  O  O44  1  0.85227900  0.07438100  0.81566900  1
  O  O45  1  0.49094200  0.42896900  0.82664300  1
  O  O46  1  0.34996400  0.49842900  0.79397200  1
  O  O47  1  0.98953500  0.96193200  0.81200800  1
  O  O48  1  0.66348000  0.22894500  0.85833200  1
  O  O49  1  0.23913100  0.00119200  0.88599700  1
  O  O50  1  0.16168500  0.73038200  0.84456500  1
  O  O51  1  0.59026000  0.94550600  0.88494400  1
  O  O52  1  0.74901100  0.48404100  0.90949900  1
  O  O53  1  0.09531000  0.44643900  0.89612300  1
  O  O54  1  0.42169900  0.60043300  0.04174300  1
  O  O55  1  0.90184000  0.86875500  0.04407500  1
loop_
_geom_bond_atom_site_label_1
_geom_bond_atom_site_label_2
_geom_bond_distance
_geom_bond_site_symmetry_2
Li0 O45 1.919810 1_554
Li0 O2 2.329762 1_555
Li0 O5 2.502618 1_555
Li1 O49 1.885939 1_564
Li1 O11 1.897430 1_555
Li2 O9 1.929989 1_555
Li2 O52 2.036873 1_554
Li3 O15 2.012759 1_555
Li3 O4 2.023558 1_555
Li3 O53 2.044426 1_554
Li4 O8 1.957540 1_565
Li4 O16 2.101448 1_555
Li4 O2 2.389903 1_555
Li4 O51 2.501660 1_554
Li5 O54 1.977642 1_555
Li5 O22 2.049212 1_555
Li5 O19 2.352591 1_555
Li5 O26 2.378479 1_555
Li5 O3 2.490097 1_555
Li6 O23 2.036181 1_565
Li6 O55 2.063804 1_555
Li6 O30 2.143384 1_555
Li6 O21 2.556848 1_655
Li7 O14 2.153662 1_555
Li7 O38 2.291595 1_555
Li7 O39 2.428808 1_555
Li7 O15 2.536176 1_555
Li8 O41 2.153662 1_555
Li8 O17 2.291595 1_555
Li8 O16 2.428808 1_555
Li8 O40 2.536176 1_555
Li9 O32 2.036181 1_545
Li9 O0 2.063804 1_555
Li9 O25 2.143384 1_555
Li9 O34 2.556848 1_555
Li10 O1 1.977642 1_555
Li10 O33 2.049212 1_555
Li10 O36 2.352591 1_555
Li10 O29 2.378479 1_555
Li10 O52 2.490097 1_555
Li11 O47 1.957540 1_445
Li11 O39 2.101448 1_555
Li11 O53 2.389903 1_555
Li11 O4 2.501660 1_556
Li12 O40 2.012759 1_555
Li12 O51 2.023558 1_555
Li12 O2 2.044426 1_556
Li13 O46 1.929989 1_555
Li13 O3 2.036873 1_556
Li14 O6 1.885939 1_546
Li14 O44 1.897430 1_555
Li15 O10 1.919810 1_456
Li15 O53 2.329762 1_555
Li15 O50 2.502618 1_555
Ni0 O32 1.969942 1_545
Ni0 O34 2.057630 1_555
Ni0 O18 2.078115 1_555
Ni0 O16 2.110481 1_545
Ni0 O8 2.122695 1_555
Ni0 O25 2.150653 1_555
Ni1 O33 1.969709 1_555
Ni1 O20 2.060185 1_555
Ni1 O29 2.065254 1_555
Ni1 O9 2.076311 1_555
Ni1 O17 2.077753 1_555
Ni1 O36 2.122603 1_555
Ni2 O27 1.948327 1_565
Ni2 O19 2.008621 1_555
Ni2 O35 2.043883 1_555
Ni2 O14 2.085320 1_565
Ni2 O11 2.116636 1_555
Ni2 O26 2.124390 1_555
Ni3 O31 1.949026 1_555
Ni3 O21 2.050389 1_555
Ni3 O37 2.053474 1_555
Ni3 O10 2.106322 1_455
Ni3 O30 2.127087 1_455
Ni3 O15 2.169894 1_555
Ni4 O24 1.949026 1_555
Ni4 O34 2.050389 1_555
Ni4 O18 2.053474 1_555
Ni4 O45 2.106322 1_555
Ni4 O25 2.127087 1_555
Ni4 O40 2.169894 1_555
Ni5 O28 1.948327 1_545
Ni5 O36 2.008621 1_555
Ni5 O20 2.043883 1_555
Ni5 O41 2.085320 1_545
Ni5 O44 2.116636 1_555
Ni5 O29 2.124390 1_555
Ni6 O22 1.969709 1_555
Ni6 O35 2.060185 1_555
Ni6 O26 2.065254 1_555
Ni6 O46 2.076311 1_555
Ni6 O38 2.077753 1_555
Ni6 O19 2.122603 1_555
Ni7 O23 1.969942 1_465
Ni7 O21 2.057630 1_555
Ni7 O37 2.078115 1_555
Ni7 O39 2.110481 1_565
Ni7 O47 2.122695 1_455
Ni7 O30 2.150653 1_455
O0 P0 1.512541 1_556
O1 P1 1.507077 1_556
O2 P2 1.530818 1_555
O3 P3 1.513200 1_555
O4 P5 1.518164 1_545
O5 P2 1.637107 1_555
O5 P4 1.656878 1_555
O6 P4 1.504932 1_565
O7 P3 1.651864 1_555
O7 P5 1.653402 1_555
O8 P0 1.550214 1_555
O9 P1 1.539492 1_555
O10 P1 1.554297 1_555
O11 P0 1.542844 1_565
O12 P6 1.631409 1_555
O12 P0 1.634762 1_555
O13 P7 1.636381 1_555
O13 P1 1.639072 1_555
O14 P5 1.535754 1_545
O15 P3 1.544769 1_555
O16 P4 1.554893 1_565
O17 P2 1.541032 1_555
O18 P2 1.533014 1_555
O19 P3 1.525504 1_555
O20 P4 1.526968 1_555
O21 P5 1.543190 1_555
O22 P6 1.501503 1_555
O23 P7 1.500175 1_555
O24 P8 1.511261 1_555
O25 P6 1.532502 1_555
O26 P8 1.531588 1_555
O27 P6 1.512593 1_555
O28 P9 1.512593 1_555
O29 P7 1.531588 1_555
O30 P9 1.532502 1_555
O31 P7 1.511261 1_455
O32 P8 1.500175 1_555
O33 P9 1.501503 1_555
O34 P10 1.543190 1_555
O35 P11 1.526968 1_555
O36 P12 1.525504 1_555
O37 P13 1.533014 1_555
O38 P13 1.541032 1_555
O39 P11 1.554893 1_545
O40 P12 1.544769 1_555
O41 P10 1.535754 1_565
O42 P8 1.636381 1_555
O42 P14 1.639072 1_555
O43 P9 1.631409 1_555
O43 P15 1.634762 1_555
O44 P15 1.542844 1_545
O45 P14 1.554297 1_555
O46 P14 1.539492 1_555
O47 P15 1.550214 1_555
O48 P12 1.651864 1_555
O48 P10 1.653402 1_555
O49 P11 1.504932 1_545
O50 P13 1.637107 1_555
O50 P11 1.656878 1_555
O51 P10 1.518164 1_565
O52 P12 1.513200 1_555
O53 P13 1.530818 1_555
O54 P14 1.507077 1_554
O55 P15 1.512541 1_554
