# generated using pymatgen
data_SrLiVPO6
_symmetry_space_group_name_H-M   'P 1'
_cell_length_a   10.84009200
_cell_length_b   5.42075400
_cell_length_c   8.36719532
_cell_angle_alpha   89.76177578
_cell_angle_beta   90.00000000
_cell_angle_gamma   90.00000000
_symmetry_Int_Tables_number   1
_chemical_formula_structural   SrLiVPO6
_chemical_formula_sum   'Sr4 Li4 V4 P4 O24'
_cell_volume   491.66446447
_cell_formula_units_Z   4
loop_
 _symmetry_equiv_pos_site_id
 _symmetry_equiv_pos_as_xyz
  1  'x, y, z'
loop_
 _atom_site_type_symbol
 _atom_site_label
 _atom_site_symmetry_multiplicity
 _atom_site_fract_x
 _atom_site_fract_y
 _atom_site_fract_z
 _atom_site_occupancy
  Sr  Sr0  1  0.27233800  0.31904700  0.11295800  1
  Sr  Sr1  1  0.22766200  0.31904700  0.61295800  1
  Sr  Sr2  1  0.77233800  0.68095300  0.38704200  1
  Sr  Sr3  1  0.72766200  0.68095300  0.88704200  1
  Li  Li0  1  0.98328100  0.31363200  0.37369400  1
  Li  Li1  1  0.51671900  0.31363200  0.87369400  1
  Li  Li2  1  0.48328100  0.68636800  0.12630600  1
  Li  Li3  1  0.01671900  0.68636800  0.62630600  1
  V  V0  1  0.91017200  0.14005300  0.08184400  1
  V  V1  1  0.58982800  0.14005300  0.58184400  1
  V  V2  1  0.41017200  0.85994700  0.41815600  1
  V  V3  1  0.08982800  0.85994700  0.91815600  1
  P  P0  1  0.60893300  0.17573300  0.19809300  1
  P  P1  1  0.89106700  0.17573300  0.69809300  1
  P  P2  1  0.10893300  0.82426700  0.30190700  1
  P  P3  1  0.39106700  0.82426700  0.80190700  1
  O  O0  1  0.87367300  0.39434300  0.19802300  1
  O  O1  1  0.62632700  0.39434300  0.69802300  1
  O  O2  1  0.59652000  0.39669400  0.08052100  1
  O  O3  1  0.90348000  0.39669400  0.58052100  1
  O  O4  1  0.64500800  0.27830900  0.36494800  1
  O  O5  1  0.85499200  0.27830900  0.86494800  1
  O  O6  1  0.07743100  0.17295500  0.02097200  1
  O  O7  1  0.42256900  0.17295500  0.52097200  1
  O  O8  1  0.48073000  0.03797700  0.20113300  1
  O  O9  1  0.01927000  0.03797700  0.70113300  1
  O  O10  1  0.20910600  0.01256900  0.36055900  1
  O  O11  1  0.70910600  0.98743100  0.13944100  1
  O  O12  1  0.29089400  0.01256900  0.86055900  1
  O  O13  1  0.79089400  0.98743100  0.63944100  1
  O  O14  1  0.98073000  0.96202300  0.29886700  1
  O  O15  1  0.51927000  0.96202300  0.79886700  1
  O  O16  1  0.57743100  0.82704500  0.47902800  1
  O  O17  1  0.92256900  0.82704500  0.97902800  1
  O  O18  1  0.14500800  0.72169100  0.13505200  1
  O  O19  1  0.35499200  0.72169100  0.63505200  1
  O  O20  1  0.09652000  0.60330600  0.41947900  1
  O  O21  1  0.40348000  0.60330600  0.91947900  1
  O  O22  1  0.37367300  0.60565700  0.30197700  1
  O  O23  1  0.12632700  0.60565700  0.80197700  1
loop_
_geom_bond_atom_site_label_1
_geom_bond_atom_site_label_2
_geom_bond_distance
_geom_bond_site_symmetry_2
Li0 O0 1.938640 1_555
Li0 O3 1.988057 1_555
Li0 O14 2.008846 1_545
Li0 O20 2.030827 1_655
Li1 O1 1.938640 1_555
Li1 O2 1.988057 1_556
Li1 O15 2.008846 1_545
Li1 O21 2.030827 1_555
Li2 O22 1.938640 1_555
Li2 O21 1.988057 1_554
Li2 O8 2.008846 1_565
Li2 O2 2.030827 1_555
Li3 O23 1.938640 1_555
Li3 O20 1.988057 1_555
Li3 O9 2.008846 1_565
Li3 O3 2.030827 1_455
O0 V0 1.735729 1_555
O0 Sr2 2.478351 1_555
O1 V1 1.735729 1_555
O1 Sr3 2.478351 1_555
O2 P0 1.552654 1_555
O2 Sr3 2.644864 1_554
O3 P1 1.552654 1_555
O3 Sr2 2.644864 1_555
O4 P0 1.554889 1_555
O4 V1 2.049804 1_555
O4 Sr2 2.589703 1_555
O5 P1 1.554889 1_555
O5 V0 2.049804 1_556
O5 Sr3 2.589703 1_555
O6 V0 1.891510 1_455
O6 V3 1.910290 1_544
O6 Sr0 2.385072 1_555
O7 V1 1.891510 1_555
O7 V2 1.910290 1_545
O7 Sr1 2.385072 1_555
O8 P0 1.577805 1_555
O8 V2 2.190699 1_545
O8 Sr0 2.821239 1_555
O9 P1 1.577805 1_455
O9 V3 2.190699 1_545
O9 Sr1 2.821239 1_555
O10 P2 1.570368 1_545
O10 V2 2.379905 1_545
O10 Sr1 2.699944 1_555
O10 Sr0 2.737392 1_555
O11 P0 1.570368 1_565
O11 V0 2.379905 1_565
O11 Sr3 2.699944 1_554
O11 Sr2 2.737392 1_555
O12 P3 1.570368 1_545
O12 V3 2.379905 1_545
O12 Sr0 2.699944 1_556
O12 Sr1 2.737392 1_555
O13 P1 1.570368 1_565
O13 V1 2.379905 1_565
O13 Sr2 2.699944 1_555
O13 Sr3 2.737392 1_555
O14 P2 1.577805 1_655
O14 V0 2.190699 1_565
O14 Sr2 2.821239 1_555
O15 P3 1.577805 1_555
O15 V1 2.190699 1_565
O15 Sr3 2.821239 1_555
O16 V2 1.891510 1_555
O16 V1 1.910290 1_565
O16 Sr2 2.385072 1_555
O17 V3 1.891510 1_655
O17 V0 1.910290 1_566
O17 Sr3 2.385072 1_555
O18 P2 1.554889 1_555
O18 V3 2.049804 1_554
O18 Sr0 2.589703 1_555
O19 P3 1.554889 1_555
O19 V2 2.049804 1_555
O19 Sr1 2.589703 1_555
O20 P2 1.552654 1_555
O20 Sr1 2.644864 1_555
O21 P3 1.552654 1_555
O21 Sr0 2.644864 1_556
O22 V2 1.735729 1_555
O22 Sr0 2.478351 1_555
O23 V3 1.735729 1_555
O23 Sr1 2.478351 1_555
