# generated using pymatgen
data_Rb3ClO
_symmetry_space_group_name_H-M   'P 1'
_cell_length_a   8.71371812
_cell_length_b   4.32145197
_cell_length_c   15.72080491
_cell_angle_alpha   90.00000000
_cell_angle_beta   90.00000000
_cell_angle_gamma   90.00000000
_symmetry_Int_Tables_number   1
_chemical_formula_structural   Rb3ClO
_chemical_formula_sum   'Rb12 Cl4 O4'
_cell_volume   591.98128298
_cell_formula_units_Z   4
loop_
 _symmetry_equiv_pos_site_id
 _symmetry_equiv_pos_as_xyz
  1  'x, y, z'
loop_
 _atom_site_type_symbol
 _atom_site_label
 _atom_site_symmetry_multiplicity
 _atom_site_fract_x
 _atom_site_fract_y
 _atom_site_fract_z
 _atom_site_occupancy
  Rb  Rb0  1  0.02397393  0.25000000  0.59563502  1
  Rb  Rb1  1  0.16896683  0.25000000  0.00185707  1
  Rb  Rb2  1  0.19946635  0.75000000  0.79003380  1
  Rb  Rb3  1  0.30053365  0.25000000  0.29003380  1
  Rb  Rb4  1  0.33103317  0.75000000  0.50185707  1
  Rb  Rb5  1  0.47602607  0.75000000  0.09563502  1
  Rb  Rb6  1  0.52397393  0.25000000  0.90436498  1
  Rb  Rb7  1  0.66896683  0.25000000  0.49814293  1
  Rb  Rb8  1  0.69946635  0.75000000  0.70996620  1
  Rb  Rb9  1  0.80053365  0.25000000  0.20996620  1
  Rb  Rb10  1  0.83103317  0.75000000  0.99814293  1
  Rb  Rb11  1  0.97602607  0.75000000  0.40436498  1
  Cl  Cl0  1  0.08935573  0.75000000  0.17390030  1
  Cl  Cl1  1  0.41064427  0.25000000  0.67390030  1
  Cl  Cl2  1  0.58935573  0.75000000  0.32609970  1
  Cl  Cl3  1  0.91064427  0.25000000  0.82609970  1
  O  O0  1  0.17233118  0.25000000  0.43836330  1
  O  O1  1  0.32766882  0.75000000  0.93836330  1
  O  O2  1  0.67233118  0.25000000  0.06163670  1
  O  O3  1  0.82766882  0.75000000  0.56163670  1
loop_
_geom_bond_atom_site_label_1
_geom_bond_atom_site_label_2
_geom_bond_distance
_geom_bond_site_symmetry_2
Cl0 Rb9 3.365124 1_465
Cl0 Rb9 3.365124 1_455
Cl0 Rb3 3.374625 1_555
Cl0 Rb3 3.374625 1_565
Cl0 Rb1 3.530601 1_565
Cl0 Rb1 3.530601 1_555
Cl0 Rb10 3.563875 1_454
Cl0 Rb5 3.586962 1_555
Cl0 Rb11 3.755261 1_455
Cl1 Rb8 3.365124 1_545
Cl1 Rb8 3.365124 1_555
Cl1 Rb2 3.374625 1_545
Cl1 Rb2 3.374625 1_555
Cl1 Rb4 3.530601 1_555
Cl1 Rb4 3.530601 1_545
Cl1 Rb7 3.563875 1_555
Cl1 Rb0 3.586962 1_555
Cl1 Rb6 3.755261 1_555
Cl2 Rb3 3.365124 1_565
Cl2 Rb3 3.365124 1_555
Cl2 Rb9 3.374625 1_555
Cl2 Rb9 3.374625 1_565
Cl2 Rb7 3.530601 1_555
Cl2 Rb7 3.530601 1_565
Cl2 Rb4 3.563875 1_555
Cl2 Rb11 3.586962 1_555
Cl2 Rb5 3.755261 1_555
Cl3 Rb2 3.365124 1_655
Cl3 Rb2 3.365124 1_645
Cl3 Rb8 3.374625 1_555
Cl3 Rb8 3.374625 1_545
Cl3 Rb10 3.530601 1_555
Cl3 Rb10 3.530601 1_545
Cl3 Rb1 3.563875 1_656
Cl3 Rb6 3.586962 1_555
Cl3 Rb0 3.755261 1_655
O0 Rb3 2.585638 1_555
O0 Rb4 2.752718 1_555
O0 Rb4 2.752718 1_545
O0 Rb0 2.790006 1_555
O0 Rb11 2.807201 1_445
O0 Rb11 2.807201 1_455
O1 Rb2 2.585638 1_555
O1 Rb1 2.752718 1_566
O1 Rb1 2.752718 1_556
O1 Rb5 2.790006 1_556
O1 Rb6 2.807201 1_565
O1 Rb6 2.807201 1_555
O2 Rb9 2.585638 1_555
O2 Rb10 2.752718 1_554
O2 Rb10 2.752718 1_544
O2 Rb6 2.790006 1_554
O2 Rb5 2.807201 1_545
O2 Rb5 2.807201 1_555
O3 Rb8 2.585638 1_555
O3 Rb7 2.752718 1_555
O3 Rb7 2.752718 1_565
O3 Rb11 2.790006 1_555
O3 Rb0 2.807201 1_655
O3 Rb0 2.807201 1_665
