# generated using pymatgen
data_Ca2V3Co2AgO12
_symmetry_space_group_name_H-M   'P 1'
_cell_length_a   10.94507554
_cell_length_b   10.94507554
_cell_length_c   10.94507554
_cell_angle_alpha   109.39469350
_cell_angle_beta   109.39469350
_cell_angle_gamma   109.62438356
_symmetry_Int_Tables_number   1
_chemical_formula_structural   Ca2V3Co2AgO12
_chemical_formula_sum   'Ca8 V12 Co8 Ag4 O48'
_cell_volume   1009.32741881
_cell_formula_units_Z   4
loop_
 _symmetry_equiv_pos_site_id
 _symmetry_equiv_pos_as_xyz
  1  'x, y, z'
loop_
 _atom_site_type_symbol
 _atom_site_label
 _atom_site_symmetry_multiplicity
 _atom_site_fract_x
 _atom_site_fract_y
 _atom_site_fract_z
 _atom_site_occupancy
  Ca  Ca0  1  0.37500000  0.24831600  0.37331600  1
  Ca  Ca1  1  0.75168400  0.12500000  0.12668400  1
  Ca  Ca2  1  0.99831600  0.62500000  0.87331600  1
  Ca  Ca3  1  0.37500000  0.74831600  0.87331600  1
  Ca  Ca4  1  0.87500000  0.00168400  0.62668400  1
  Ca  Ca5  1  0.25168400  0.12500000  0.62668400  1
  Ca  Ca6  1  0.49831600  0.62500000  0.37331600  1
  Ca  Ca7  1  0.87500000  0.50168400  0.12668400  1
  V  V0  1  0.74870100  0.62500000  0.62370100  1
  V  V1  1  0.00000000  0.00000000  0.00000000  1
  V  V2  1  0.75000000  0.25000000  0.50000000  1
  V  V3  1  0.37500000  0.99870100  0.12370100  1
  V  V4  1  0.37500000  0.49870100  0.62370100  1
  V  V5  1  0.00129900  0.12500000  0.37629900  1
  V  V6  1  0.24870100  0.62500000  0.12370100  1
  V  V7  1  0.87500000  0.75129900  0.37629900  1
  V  V8  1  0.87500000  0.25129900  0.87629900  1
  V  V9  1  0.50000000  0.50000000  0.00000000  1
  V  V10  1  0.25000000  0.75000000  0.50000000  1
  V  V11  1  0.50129900  0.12500000  0.87629900  1
  Co  Co0  1  0.12500000  0.87500000  0.25000000  1
  Co  Co1  1  0.62500000  0.87500000  0.75000000  1
  Co  Co2  1  0.62500000  0.87500000  0.25000000  1
  Co  Co3  1  0.12500000  0.37500000  0.75000000  1
  Co  Co4  1  0.12500000  0.37500000  0.25000000  1
  Co  Co5  1  0.62500000  0.37500000  0.75000000  1
  Co  Co6  1  0.62500000  0.37500000  0.25000000  1
  Co  Co7  1  0.12500000  0.87500000  0.75000000  1
  Ag  Ag0  1  0.00000000  0.50000000  0.50000000  1
  Ag  Ag1  1  0.50000000  0.00000000  0.50000000  1
  Ag  Ag2  1  0.75000000  0.75000000  0.00000000  1
  Ag  Ag3  1  0.25000000  0.25000000  0.00000000  1
  O  O0  1  0.33108100  0.46032700  0.43984800  1
  O  O1  1  0.22289700  0.76749900  0.65348800  1
  O  O2  1  0.93263500  0.67328400  0.66470800  1
  O  O3  1  0.60876700  0.47952100  0.43984800  1
  O  O4  1  0.13598900  0.18059100  0.15348800  1
  O  O5  1  0.42328400  0.18263500  0.16470800  1
  O  O6  1  0.73250100  0.27710300  0.34651200  1
  O  O7  1  0.61401100  0.26749900  0.54460200  1
  O  O8  1  0.23207300  0.49142400  0.66470800  1
  O  O9  1  0.93059100  0.38598900  0.65348800  1
  O  O10  1  0.01749900  0.86401100  0.04460200  1
  O  O11  1  0.53967300  0.97952100  0.87075400  1
  O  O12  1  0.00857600  0.26792700  0.33529200  1
  O  O13  1  0.22952100  0.85876700  0.93984800  1
  O  O14  1  0.32671600  0.99142400  0.25935100  1
  O  O15  1  0.74142400  0.57671600  0.75935100  1
  O  O16  1  0.52047900  0.96032700  0.12924600  1
  O  O17  1  0.81940900  0.97289700  0.95539800  1
  O  O18  1  0.72289700  0.06940900  0.45539800  1
  O  O19  1  0.41891900  0.35876700  0.62924600  1
  O  O20  1  0.03967300  0.16891900  0.56015200  1
  O  O21  1  0.81736500  0.98207300  0.24064900  1
  O  O22  1  0.10876700  0.66891900  0.12924600  1
  O  O23  1  0.51792700  0.68263500  0.75935100  1
  O  O24  1  0.73207300  0.06736500  0.74064900  1
  O  O25  1  0.14123300  0.08108100  0.37075400  1
  O  O26  1  0.43263500  0.76792700  0.25935100  1
  O  O27  1  0.21032700  0.58108100  0.93984800  1
  O  O28  1  0.83108100  0.39123300  0.87075400  1
  O  O29  1  0.52710300  0.68059100  0.04460200  1
  O  O30  1  0.43059100  0.77710300  0.54460200  1
  O  O31  1  0.72952100  0.78967300  0.37075400  1
  O  O32  1  0.50857600  0.17328400  0.74064900  1
  O  O33  1  0.92328400  0.75857600  0.24064900  1
  O  O34  1  0.02047900  0.89123300  0.56015200  1
  O  O35  1  0.24142400  0.48207300  0.16470800  1
  O  O36  1  0.71032700  0.77047900  0.62924600  1
  O  O37  1  0.23250100  0.88598900  0.45539800  1
  O  O38  1  0.31940900  0.36401100  0.84651200  1
  O  O39  1  0.01792700  0.25857600  0.83529200  1
  O  O40  1  0.63598900  0.48250100  0.95539800  1
  O  O41  1  0.51749900  0.47289700  0.15348800  1
  O  O42  1  0.82671600  0.56736500  0.33529200  1
  O  O43  1  0.11401100  0.56940900  0.34651200  1
  O  O44  1  0.64123300  0.27047900  0.06015200  1
  O  O45  1  0.31736500  0.07671600  0.83529200  1
  O  O46  1  0.02710300  0.98250100  0.84651200  1
  O  O47  1  0.91891900  0.28967300  0.06015200  1
loop_
_geom_bond_atom_site_label_1
_geom_bond_atom_site_label_2
_geom_bond_distance
_geom_bond_site_symmetry_2
Ca0 O5 2.444517 1_555
Ca0 O14 2.444517 1_545
Ca0 O0 2.450598 1_555
Ca0 O19 2.450598 1_555
Ca0 O4 2.552374 1_555
Ca0 O7 2.552374 1_555
Ca0 O3 2.582647 1_555
Ca0 O25 2.582647 1_555
Ca1 O12 2.444517 1_655
Ca1 O21 2.444517 1_545
Ca1 O44 2.450598 1_555
Ca1 O11 2.450598 1_544
Ca1 O17 2.552374 1_544
Ca1 O6 2.552374 1_555
Ca1 O16 2.582647 1_545
Ca1 O47 2.582647 1_555
Ca2 O15 2.444517 1_555
Ca2 O2 2.444517 1_555
Ca2 O27 2.450598 1_655
Ca2 O22 2.450598 1_656
Ca2 O9 2.552374 1_555
Ca2 O10 2.552374 1_656
Ca2 O13 2.582647 1_655
Ca2 O28 2.582647 1_555
Ca3 O8 2.444517 1_555
Ca3 O23 2.444517 1_555
Ca3 O13 2.450598 1_555
Ca3 O16 2.450598 1_556
Ca3 O1 2.552374 1_555
Ca3 O29 2.552374 1_556
Ca3 O11 2.582647 1_555
Ca3 O27 2.582647 1_555
Ca4 O39 2.444517 1_655
Ca4 O24 2.444517 1_555
Ca4 O34 2.450598 1_645
Ca4 O31 2.450598 1_545
Ca4 O18 2.552374 1_555
Ca4 O46 2.552374 1_645
Ca4 O36 2.582647 1_545
Ca4 O20 2.582647 1_655
Ca5 O45 2.444517 1_555
Ca5 O32 2.444517 1_555
Ca5 O20 2.450598 1_555
Ca5 O25 2.450598 1_555
Ca5 O37 2.552374 1_545
Ca5 O38 2.552374 1_555
Ca5 O34 2.582647 1_545
Ca5 O19 2.582647 1_555
Ca6 O35 2.444517 1_555
Ca6 O26 2.444517 1_555
Ca6 O36 2.450598 1_555
Ca6 O3 2.450598 1_555
Ca6 O41 2.552374 1_555
Ca6 O30 2.552374 1_555
Ca6 O31 2.582647 1_555
Ca6 O0 2.582647 1_555
Ca7 O42 2.444517 1_555
Ca7 O33 2.444517 1_555
Ca7 O28 2.450598 1_554
Ca7 O47 2.450598 1_555
Ca7 O40 2.552374 1_554
Ca7 O43 2.552374 1_655
Ca7 O44 2.582647 1_555
Ca7 O22 2.582647 1_655
Co0 O14 2.093368 1_555
Co0 O33 2.093368 1_455
Co0 O10 2.102717 1_555
Co0 O37 2.102717 1_555
Co0 O25 2.112091 1_565
Co0 O22 2.112091 1_555
Co1 O24 2.093368 1_565
Co1 O23 2.093368 1_555
Co1 O30 2.102717 1_555
Co1 O17 2.102717 1_555
Co1 O36 2.112091 1_555
Co1 O11 2.112091 1_555
Co2 O26 2.093368 1_555
Co2 O21 2.093368 1_555
Co2 O18 2.102717 1_565
Co2 O29 2.102717 1_555
Co2 O31 2.112091 1_555
Co2 O16 2.112091 1_555
Co3 O39 2.093368 1_555
Co3 O8 2.093368 1_555
Co3 O38 2.102717 1_555
Co3 O9 2.102717 1_455
Co3 O27 2.112091 1_555
Co3 O20 2.112091 1_555
Co4 O12 2.093368 1_555
Co4 O35 2.093368 1_555
Co4 O4 2.102717 1_555
Co4 O43 2.102717 1_555
Co4 O0 2.112091 1_555
Co4 O47 2.112091 1_455
Co5 O15 2.093368 1_555
Co5 O32 2.093368 1_555
Co5 O40 2.102717 1_555
Co5 O7 2.102717 1_555
Co5 O28 2.112091 1_555
Co5 O19 2.112091 1_555
Co6 O42 2.093368 1_555
Co6 O5 2.093368 1_555
Co6 O6 2.102717 1_555
Co6 O41 2.102717 1_555
Co6 O3 2.112091 1_555
Co6 O44 2.112091 1_555
Co7 O45 2.093368 1_565
Co7 O2 2.093368 1_455
Co7 O46 2.102717 1_555
Co7 O1 2.102717 1_555
Co7 O34 2.112091 1_555
Co7 O13 2.112091 1_555
Ag0 O9 2.561167 1_455
Ag0 O43 2.561167 1_555
Ag0 O6 2.561167 1_455
Ag0 O1 2.561167 1_555
Ag0 O2 2.634755 1_455
Ag0 O8 2.634755 1_555
Ag0 O42 2.634755 1_455
Ag0 O12 2.634755 1_555
Ag1 O18 2.561167 1_555
Ag1 O30 2.561167 1_545
Ag1 O37 2.561167 1_545
Ag1 O7 2.561167 1_555
Ag1 O24 2.634755 1_555
Ag1 O14 2.634755 1_545
Ag1 O32 2.634755 1_555
Ag1 O26 2.634755 1_545
Ag2 O10 2.561167 1_655
Ag2 O29 2.561167 1_555
Ag2 O17 2.561167 1_554
Ag2 O40 2.561167 1_554
Ag2 O23 2.634755 1_554
Ag2 O33 2.634755 1_555
Ag2 O15 2.634755 1_554
Ag2 O21 2.634755 1_555
Ag3 O38 2.561167 1_554
Ag3 O4 2.561167 1_555
Ag3 O41 2.561167 1_555
Ag3 O46 2.561167 1_544
Ag3 O35 2.634755 1_555
Ag3 O45 2.634755 1_554
Ag3 O5 2.634755 1_555
Ag3 O39 2.634755 1_554
O0 V4 1.765617 1_555
O1 V10 1.761339 1_555
O2 V0 1.749665 1_555
O3 V0 1.765617 1_555
O4 V1 1.761339 1_555
O5 V3 1.749665 1_545
O6 V2 1.761339 1_555
O7 V2 1.761339 1_555
O8 V4 1.749665 1_555
O9 V2 1.761339 1_555
O10 V1 1.761339 1_565
O11 V11 1.765617 1_565
O12 V5 1.749665 1_555
O13 V3 1.765617 1_556
O14 V3 1.749665 1_555
O15 V0 1.749665 1_555
O16 V3 1.765617 1_555
O17 V1 1.761339 1_666
O18 V2 1.761339 1_555
O19 V4 1.765617 1_555
O20 V5 1.765617 1_555
O21 V5 1.749665 1_665
O22 V6 1.765617 1_555
O23 V4 1.749665 1_555
O24 V8 1.749665 1_555
O25 V5 1.765617 1_555
O26 V6 1.749665 1_555
O27 V6 1.765617 1_556
O28 V8 1.765617 1_555
O29 V9 1.761339 1_555
O30 V10 1.761339 1_555
O31 V7 1.765617 1_555
O32 V11 1.749665 1_555
O33 V7 1.749665 1_555
O34 V7 1.765617 1_455
O35 V6 1.749665 1_555
O36 V0 1.765617 1_555
O37 V10 1.761339 1_555
O38 V9 1.761339 1_556
O39 V8 1.749665 1_455
O40 V9 1.761339 1_556
O41 V9 1.761339 1_555
O42 V7 1.749665 1_555
O43 V10 1.761339 1_555
O44 V11 1.765617 1_554
O45 V11 1.749665 1_555
O46 V1 1.761339 1_566
O47 V8 1.765617 1_554
