# generated using pymatgen
data_BPd2
_symmetry_space_group_name_H-M   'P 1'
_cell_length_a   3.15134992
_cell_length_b   4.71785566
_cell_length_c   5.14027676
_cell_angle_alpha   90.00000000
_cell_angle_beta   90.00000000
_cell_angle_gamma   90.00000000
_symmetry_Int_Tables_number   1
_chemical_formula_structural   BPd2
_chemical_formula_sum   'B2 Pd4'
_cell_volume   76.42365101
_cell_formula_units_Z   2
loop_
 _symmetry_equiv_pos_site_id
 _symmetry_equiv_pos_as_xyz
  1  'x, y, z'
loop_
 _atom_site_type_symbol
 _atom_site_label
 _atom_site_symmetry_multiplicity
 _atom_site_fract_x
 _atom_site_fract_y
 _atom_site_fract_z
 _atom_site_occupancy
  B  B0  1  0.50000000  0.50000000  0.50000000  1
  B  B1  1  -0.00000000  0.00000000  -0.00000000  1
  Pd  Pd0  1  0.50000000  0.75476279  0.15577763  1
  Pd  Pd1  1  0.50000000  0.24523721  0.84422237  1
  Pd  Pd2  1  0.00000000  0.74523721  0.65577763  1
  Pd  Pd3  1  -0.00000000  0.25476279  0.34422237  1
loop_
_geom_bond_atom_site_label_1
_geom_bond_atom_site_label_2
_geom_bond_distance
_geom_bond_site_symmetry_2
B0 Pd3 2.112480 1_655
B0 Pd3 2.112480 1_555
B0 Pd2 2.112480 1_655
B0 Pd2 2.112480 1_555
B0 Pd0 2.139022 1_555
B0 Pd1 2.139022 1_555
B1 Pd0 2.112480 1_445
B1 Pd0 2.112480 1_545
B1 Pd1 2.112480 1_554
B1 Pd1 2.112480 1_454
B1 Pd2 2.139022 1_544
B1 Pd3 2.139022 1_555
