# generated using pymatgen
data_Na6Bi2As(CO4)4
_symmetry_space_group_name_H-M   'P 1'
_cell_length_a   10.37262574
_cell_length_b   10.37262574
_cell_length_c   10.37262574
_cell_angle_alpha   60.00000000
_cell_angle_beta   60.00000000
_cell_angle_gamma   60.00000000
_symmetry_Int_Tables_number   1
_chemical_formula_structural   Na6Bi2As(CO4)4
_chemical_formula_sum   'Na12 Bi4 As2 C8 O32'
_cell_volume   789.13467475
_cell_formula_units_Z   2
loop_
 _symmetry_equiv_pos_site_id
 _symmetry_equiv_pos_as_xyz
  1  'x, y, z'
loop_
 _atom_site_type_symbol
 _atom_site_label
 _atom_site_symmetry_multiplicity
 _atom_site_fract_x
 _atom_site_fract_y
 _atom_site_fract_z
 _atom_site_occupancy
  Na  Na0  1  0.30074200  0.30074200  0.69925800  1
  Na  Na1  1  0.94925800  0.55074200  0.55074200  1
  Na  Na2  1  0.69925800  0.30074200  0.69925800  1
  Na  Na3  1  0.30074200  0.69925800  0.30074200  1
  Na  Na4  1  0.55074200  0.94925800  0.94925800  1
  Na  Na5  1  0.55074200  0.55074200  0.94925800  1
  Na  Na6  1  0.69925800  0.30074200  0.30074200  1
  Na  Na7  1  0.69925800  0.69925800  0.30074200  1
  Na  Na8  1  0.55074200  0.94925800  0.55074200  1
  Na  Na9  1  0.94925800  0.55074200  0.94925800  1
  Na  Na10  1  0.30074200  0.69925800  0.69925800  1
  Na  Na11  1  0.94925800  0.94925800  0.55074200  1
  Bi  Bi0  1  0.62500000  0.12500000  0.12500000  1
  Bi  Bi1  1  0.12500000  0.12500000  0.12500000  1
  Bi  Bi2  1  0.12500000  0.12500000  0.62500000  1
  Bi  Bi3  1  0.12500000  0.62500000  0.12500000  1
  As  As0  1  0.50000000  0.50000000  0.50000000  1
  As  As1  1  0.75000000  0.75000000  0.75000000  1
  C  C0  1  0.30552600  0.89815800  0.89815800  1
  C  C1  1  0.89815800  0.30552600  0.89815800  1
  C  C2  1  0.89815800  0.89815800  0.89815800  1
  C  C3  1  0.89815800  0.89815800  0.30552600  1
  C  C4  1  0.35184200  0.35184200  0.94447400  1
  C  C5  1  0.35184200  0.35184200  0.35184200  1
  C  C6  1  0.35184200  0.94447400  0.35184200  1
  C  C7  1  0.94447400  0.35184200  0.35184200  1
  O  O0  1  0.22968600  0.48065300  0.34391700  1
  O  O1  1  0.94574400  0.34391700  0.48065300  1
  O  O2  1  0.30425600  0.02031400  0.90608300  1
  O  O3  1  0.02031400  0.30425600  0.76934700  1
  O  O4  1  0.30425600  0.76934700  0.02031400  1
  O  O5  1  0.56794600  0.56794600  0.29616100  1
  O  O6  1  0.90608300  0.02031400  0.76934700  1
  O  O7  1  0.56794600  0.29616100  0.56794600  1
  O  O8  1  0.56794600  0.56794600  0.56794600  1
  O  O9  1  0.90608300  0.30425600  0.02031400  1
  O  O10  1  0.76934700  0.30425600  0.90608300  1
  O  O11  1  0.29616100  0.56794600  0.56794600  1
  O  O12  1  0.02031400  0.90608300  0.30425600  1
  O  O13  1  0.76934700  0.90608300  0.02031400  1
  O  O14  1  0.90608300  0.76934700  0.30425600  1
  O  O15  1  0.48065300  0.22968600  0.94574400  1
  O  O16  1  0.76934700  0.02031400  0.30425600  1
  O  O17  1  0.34391700  0.48065300  0.94574400  1
  O  O18  1  0.48065300  0.34391700  0.22968600  1
  O  O19  1  0.22968600  0.34391700  0.94574400  1
  O  O20  1  0.95383900  0.68205400  0.68205400  1
  O  O21  1  0.48065300  0.94574400  0.34391700  1
  O  O22  1  0.34391700  0.94574400  0.22968600  1
  O  O23  1  0.68205400  0.95383900  0.68205400  1
  O  O24  1  0.68205400  0.68205400  0.68205400  1
  O  O25  1  0.34391700  0.22968600  0.48065300  1
  O  O26  1  0.68205400  0.68205400  0.95383900  1
  O  O27  1  0.94574400  0.48065300  0.22968600  1
  O  O28  1  0.22968600  0.94574400  0.48065300  1
  O  O29  1  0.94574400  0.22968600  0.34391700  1
  O  O30  1  0.30425600  0.90608300  0.76934700  1
  O  O31  1  0.02031400  0.76934700  0.90608300  1
loop_
_geom_bond_atom_site_label_1
_geom_bond_atom_site_label_2
_geom_bond_distance
_geom_bond_site_symmetry_2
Na0 O7 2.386881 1_555
Na0 O11 2.386881 1_555
Na0 O19 2.492200 1_555
Na0 O25 2.492200 1_555
Na0 O2 2.607032 1_555
Na0 O3 2.607032 1_555
Na1 O24 2.386883 1_555
Na1 O20 2.386889 1_555
Na1 O3 2.492200 1_655
Na1 O14 2.492200 1_555
Na1 O1 2.607032 1_555
Na1 O0 2.607032 1_655
Na2 O8 2.386883 1_555
Na2 O7 2.386889 1_555
Na2 O1 2.492200 1_555
Na2 O15 2.492200 1_555
Na2 O10 2.607032 1_555
Na2 O6 2.607032 1_555
Na3 O11 2.386881 1_555
Na3 O5 2.386881 1_555
Na3 O22 2.492200 1_555
Na3 O0 2.492200 1_555
Na3 O12 2.607032 1_555
Na3 O4 2.607032 1_555
Na4 O23 2.386881 1_555
Na4 O26 2.386881 1_555
Na4 O13 2.492200 1_556
Na4 O2 2.492200 1_565
Na4 O22 2.607032 1_556
Na4 O15 2.607032 1_565
Na5 O24 2.386883 1_555
Na5 O26 2.386889 1_555
Na5 O10 2.492200 1_555
Na5 O4 2.492200 1_556
Na5 O17 2.607032 1_555
Na5 O18 2.607032 1_556
Na6 O7 2.386881 1_555
Na6 O5 2.386881 1_555
Na6 O29 2.492200 1_555
Na6 O18 2.492200 1_555
Na6 O9 2.607032 1_555
Na6 O16 2.607032 1_555
Na7 O8 2.386883 1_555
Na7 O5 2.386889 1_555
Na7 O21 2.492200 1_555
Na7 O27 2.492200 1_555
Na7 O14 2.607032 1_555
Na7 O13 2.607032 1_555
Na8 O24 2.386883 1_555
Na8 O23 2.386889 1_555
Na8 O16 2.492200 1_565
Na8 O30 2.492200 1_555
Na8 O21 2.607032 1_555
Na8 O25 2.607032 1_565
Na9 O20 2.386881 1_555
Na9 O26 2.386881 1_555
Na9 O31 2.492200 1_655
Na9 O9 2.492200 1_556
Na9 O27 2.607032 1_556
Na9 O19 2.607032 1_655
Na10 O8 2.386883 1_555
Na10 O11 2.386889 1_555
Na10 O17 2.492200 1_555
Na10 O28 2.492200 1_555
Na10 O30 2.607032 1_555
Na10 O31 2.607032 1_555
Na11 O23 2.386881 1_555
Na11 O20 2.386881 1_555
Na11 O6 2.492200 1_565
Na11 O12 2.492200 1_655
Na11 O29 2.607032 1_565
Na11 O28 2.607032 1_655
Bi0 O15 2.452995 1_554
Bi0 O21 2.452995 1_545
Bi0 O18 2.452995 1_555
Bi0 O10 2.452995 1_554
Bi0 O13 2.452995 1_545
Bi0 O16 2.452995 1_555
Bi1 O22 2.452995 1_545
Bi1 O29 2.452995 1_455
Bi1 O19 2.452995 1_554
Bi1 O12 2.452995 1_545
Bi1 O9 2.452995 1_455
Bi1 O2 2.452995 1_554
Bi2 O28 2.452995 1_545
Bi2 O1 2.452995 1_455
Bi2 O25 2.452995 1_555
Bi2 O6 2.452995 1_455
Bi2 O30 2.452995 1_545
Bi2 O3 2.452995 1_555
Bi3 O0 2.452995 1_555
Bi3 O17 2.452995 1_554
Bi3 O27 2.452995 1_455
Bi3 O4 2.452995 1_555
Bi3 O31 2.452995 1_554
Bi3 O14 2.452995 1_455
As0 O8 1.726348 1_555
As0 O7 1.726356 1_555
As0 O5 1.726356 1_555
As0 O11 1.726356 1_555
As1 O24 1.726348 1_555
As1 O23 1.726356 1_555
As1 O26 1.726356 1_555
As1 O20 1.726356 1_555
C0 O2 1.303381 1_565
C0 O4 1.303381 1_556
C0 O30 1.303381 1_555
C1 O9 1.303381 1_556
C1 O3 1.303381 1_655
C1 O10 1.303381 1_555
C2 O31 1.303381 1_655
C2 O6 1.303381 1_565
C2 O13 1.303381 1_556
C3 O12 1.303381 1_655
C3 O16 1.303381 1_565
C3 O14 1.303381 1_555
C4 O15 1.303381 1_555
C4 O17 1.303381 1_555
C4 O19 1.303381 1_555
C5 O18 1.303381 1_555
C5 O25 1.303381 1_555
C5 O0 1.303381 1_555
C6 O28 1.303381 1_555
C6 O22 1.303381 1_555
C6 O21 1.303381 1_555
C7 O27 1.303381 1_555
C7 O29 1.303381 1_555
C7 O1 1.303381 1_555
