# generated using pymatgen
data_Na5CuHO4
_symmetry_space_group_name_H-M   'P 1'
_cell_length_a   9.94330100
_cell_length_b   9.99159900
_cell_length_c   12.13696200
_cell_angle_alpha   90.00000000
_cell_angle_beta   90.00000000
_cell_angle_gamma   90.00000000
_symmetry_Int_Tables_number   1
_chemical_formula_structural   Na5CuHO4
_chemical_formula_sum   'Na40 Cu8 H8 O32'
_cell_volume   1205.80081892
_cell_formula_units_Z   8
loop_
 _symmetry_equiv_pos_site_id
 _symmetry_equiv_pos_as_xyz
  1  'x, y, z'
loop_
 _atom_site_type_symbol
 _atom_site_label
 _atom_site_symmetry_multiplicity
 _atom_site_fract_x
 _atom_site_fract_y
 _atom_site_fract_z
 _atom_site_occupancy
  Na  Na0  1  0.59083100  0.97675300  0.20856600  1
  Na  Na1  1  0.90916900  0.97675300  0.20856600  1
  Na  Na2  1  0.07030200  0.07232700  0.41526300  1
  Na  Na3  1  0.42969800  0.07232700  0.41526300  1
  Na  Na4  1  0.75000000  0.08302400  0.44999500  1
  Na  Na5  1  0.25000000  0.11734700  0.98508300  1
  Na  Na6  1  0.56876200  0.12944100  0.99099900  1
  Na  Na7  1  0.93123800  0.12944100  0.99099900  1
  Na  Na8  1  0.57588200  0.21911700  0.67970700  1
  Na  Na9  1  0.92411800  0.21911700  0.67970700  1
  Na  Na10  1  0.07588200  0.28088300  0.17970700  1
  Na  Na11  1  0.42411800  0.28088300  0.17970700  1
  Na  Na12  1  0.06876200  0.37055900  0.49099900  1
  Na  Na13  1  0.43123800  0.37055900  0.49099900  1
  Na  Na14  1  0.75000000  0.38265300  0.48508300  1
  Na  Na15  1  0.25000000  0.41697600  0.94999500  1
  Na  Na16  1  0.57030200  0.42767300  0.91526300  1
  Na  Na17  1  0.92969800  0.42767300  0.91526300  1
  Na  Na18  1  0.09083100  0.52324700  0.70856600  1
  Na  Na19  1  0.40916900  0.52324700  0.70856600  1
  Na  Na20  1  0.59083100  0.47675300  0.29143400  1
  Na  Na21  1  0.90916900  0.47675300  0.29143400  1
  Na  Na22  1  0.07030200  0.57232700  0.08473700  1
  Na  Na23  1  0.42969800  0.57232700  0.08473700  1
  Na  Na24  1  0.75000000  0.58302400  0.05000500  1
  Na  Na25  1  0.25000000  0.61734700  0.51491700  1
  Na  Na26  1  0.56876200  0.62944100  0.50900100  1
  Na  Na27  1  0.93123800  0.62944100  0.50900100  1
  Na  Na28  1  0.57588200  0.71911700  0.82029300  1
  Na  Na29  1  0.92411800  0.71911700  0.82029300  1
  Na  Na30  1  0.07588200  0.78088300  0.32029300  1
  Na  Na31  1  0.42411800  0.78088300  0.32029300  1
  Na  Na32  1  0.06876200  0.87055900  0.00900100  1
  Na  Na33  1  0.43123800  0.87055900  0.00900100  1
  Na  Na34  1  0.75000000  0.88265300  0.01491700  1
  Na  Na35  1  0.25000000  0.91697600  0.55000500  1
  Na  Na36  1  0.92969800  0.92767300  0.58473700  1
  Na  Na37  1  0.57030200  0.92767300  0.58473700  1
  Na  Na38  1  0.09083100  0.02324700  0.79143400  1
  Na  Na39  1  0.40916900  0.02324700  0.79143400  1
  Cu  Cu0  1  0.25000000  0.01188800  0.21050300  1
  Cu  Cu1  1  0.25000000  0.20752800  0.61834500  1
  Cu  Cu2  1  0.75000000  0.29247200  0.11834500  1
  Cu  Cu3  1  0.75000000  0.48811200  0.71050300  1
  Cu  Cu4  1  0.25000000  0.51188800  0.28949700  1
  Cu  Cu5  1  0.25000000  0.70752800  0.88165500  1
  Cu  Cu6  1  0.75000000  0.79247200  0.38165500  1
  Cu  Cu7  1  0.75000000  0.98811200  0.78949700  1
  H  H0  1  0.61746700  0.21028900  0.31480500  1
  H  H1  1  0.88253300  0.21028900  0.31480500  1
  H  H2  1  0.11746700  0.28971100  0.81480500  1
  H  H3  1  0.38253300  0.28971100  0.81480500  1
  H  H4  1  0.61746700  0.71028900  0.18519500  1
  H  H5  1  0.88253300  0.71028900  0.18519500  1
  H  H6  1  0.11746700  0.78971100  0.68519500  1
  H  H7  1  0.38253300  0.78971100  0.68519500  1
  O  O0  1  0.75000000  0.06229000  0.64786000  1
  O  O1  1  0.40121100  0.06187200  0.12183300  1
  O  O2  1  0.09878900  0.06187200  0.12183300  1
  O  O3  1  0.39923200  0.08730000  0.60703900  1
  O  O4  1  0.10076800  0.08730000  0.60703900  1
  O  O5  1  0.75000000  0.10504500  0.11691800  1
  O  O6  1  0.07258800  0.24454200  0.87549100  1
  O  O7  1  0.42741200  0.24454200  0.87549100  1
  O  O8  1  0.57258800  0.25545800  0.37549100  1
  O  O9  1  0.92741200  0.25545800  0.37549100  1
  O  O10  1  0.25000000  0.39495500  0.61691800  1
  O  O11  1  0.60076800  0.41270000  0.10703900  1
  O  O12  1  0.89923200  0.41270000  0.10703900  1
  O  O13  1  0.59878900  0.43812800  0.62183300  1
  O  O14  1  0.90121100  0.43812800  0.62183300  1
  O  O15  1  0.25000000  0.43771000  0.14786000  1
  O  O16  1  0.75000000  0.56229000  0.85214000  1
  O  O17  1  0.09878900  0.56187200  0.37816700  1
  O  O18  1  0.40121100  0.56187200  0.37816700  1
  O  O19  1  0.10076800  0.58730000  0.89296100  1
  O  O20  1  0.39923200  0.58730000  0.89296100  1
  O  O21  1  0.75000000  0.60504500  0.38308200  1
  O  O22  1  0.07258800  0.74454200  0.62450900  1
  O  O23  1  0.42741200  0.74454200  0.62450900  1
  O  O24  1  0.57258800  0.75545800  0.12450900  1
  O  O25  1  0.92741200  0.75545800  0.12450900  1
  O  O26  1  0.25000000  0.89495500  0.88308200  1
  O  O27  1  0.89923200  0.91270000  0.39296100  1
  O  O28  1  0.60076800  0.91270000  0.39296100  1
  O  O29  1  0.90121100  0.93812800  0.87816700  1
  O  O30  1  0.59878900  0.93812800  0.87816700  1
  O  O31  1  0.25000000  0.93771000  0.35214000  1
loop_
_geom_bond_atom_site_label_1
_geom_bond_atom_site_label_2
_geom_bond_distance
_geom_bond_site_symmetry_2
Na0 O5 2.320608 1_565
Na0 O1 2.320851 1_565
Na0 O28 2.329801 1_555
Na0 O24 2.441849 1_555
Na1 O5 2.320608 1_565
Na1 O2 2.320851 1_665
Na1 O27 2.329801 1_555
Na1 O25 2.441849 1_555
Na2 O27 2.347439 1_445
Na2 O4 2.351971 1_555
Na2 O31 2.364042 1_545
Na2 O9 2.366377 1_455
Na3 O28 2.347439 1_545
Na3 O3 2.351971 1_555
Na3 O31 2.364042 1_545
Na3 O8 2.366377 1_555
Na4 O27 2.361601 1_545
Na4 O28 2.361601 1_545
Na4 O0 2.410399 1_555
Na4 O9 2.626393 1_555
Na4 O8 2.626393 1_555
Na5 O2 2.307066 1_556
Na5 O1 2.307066 1_556
Na5 O26 2.543642 1_545
Na5 O7 2.548775 1_555
Na5 O6 2.548775 1_555
Na6 O7 2.294201 1_555
Na6 O30 2.370321 1_545
Na6 O5 2.375419 1_556
Na6 O1 2.398519 1_556
Na7 O6 2.294201 1_655
Na7 O29 2.370321 1_545
Na7 O5 2.375419 1_556
Na7 O2 2.398519 1_656
Na8 O13 2.309500 1_555
Na8 O3 2.365958 1_555
Na8 O0 2.366890 1_555
Na9 O14 2.309500 1_555
Na9 O4 2.365958 1_655
Na9 O0 2.366890 1_555
Na10 O2 2.309500 1_555
Na10 O12 2.365958 1_455
Na10 O15 2.366890 1_555
Na11 O1 2.309500 1_555
Na11 O11 2.365958 1_555
Na11 O15 2.366890 1_555
Na12 O9 2.294201 1_455
Na12 O17 2.370321 1_555
Na12 O10 2.375419 1_555
Na12 O14 2.398519 1_455
Na13 O8 2.294201 1_555
Na13 O18 2.370321 1_555
Na13 O10 2.375419 1_555
Na13 O13 2.398519 1_555
Na14 O14 2.307066 1_555
Na14 O13 2.307066 1_555
Na14 O21 2.543642 1_555
Na14 O9 2.548775 1_555
Na14 O8 2.548775 1_555
Na15 O20 2.361601 1_555
Na15 O19 2.361601 1_555
Na15 O15 2.410399 1_556
Na15 O7 2.626393 1_555
Na15 O6 2.626393 1_555
Na16 O20 2.347439 1_555
Na16 O11 2.351971 1_556
Na16 O16 2.364042 1_555
Na16 O7 2.366377 1_555
Na17 O19 2.347439 1_655
Na17 O12 2.351971 1_556
Na17 O16 2.364042 1_555
Na17 O6 2.366377 1_655
Na18 O10 2.320608 1_555
Na18 O14 2.320851 1_455
Na18 O19 2.329801 1_555
Na18 O22 2.441849 1_555
Na19 O10 2.320608 1_555
Na19 O13 2.320851 1_555
Na19 O20 2.329801 1_555
Na19 O23 2.441849 1_555
Na20 O21 2.320608 1_555
Na20 O18 2.320851 1_555
Na20 O11 2.329801 1_555
Na20 O8 2.441849 1_555
Na21 O21 2.320608 1_555
Na21 O17 2.320851 1_655
Na21 O12 2.329801 1_555
Na21 O9 2.441849 1_555
Na22 O12 2.347439 1_455
Na22 O19 2.351971 1_554
Na22 O15 2.364042 1_555
Na22 O25 2.366377 1_455
Na23 O11 2.347439 1_555
Na23 O20 2.351971 1_554
Na23 O15 2.364042 1_555
Na23 O24 2.366377 1_555
Na24 O12 2.361601 1_555
Na24 O11 2.361601 1_555
Na24 O16 2.410399 1_554
Na24 O25 2.626393 1_555
Na24 O24 2.626393 1_555
Na25 O17 2.307066 1_555
Na25 O18 2.307066 1_555
Na25 O10 2.543642 1_555
Na25 O23 2.548775 1_555
Na25 O22 2.548775 1_555
Na26 O23 2.294201 1_555
Na26 O13 2.370321 1_555
Na26 O21 2.375419 1_555
Na26 O18 2.398519 1_555
Na27 O22 2.294201 1_655
Na27 O14 2.370321 1_555
Na27 O21 2.375419 1_555
Na27 O17 2.398519 1_655
Na28 O30 2.309500 1_555
Na28 O20 2.365958 1_555
Na28 O16 2.366890 1_555
Na29 O29 2.309500 1_555
Na29 O19 2.365958 1_655
Na29 O16 2.366890 1_555
Na30 O17 2.309500 1_555
Na30 O27 2.365958 1_455
Na30 O31 2.366890 1_555
Na31 O18 2.309500 1_555
Na31 O28 2.365958 1_555
Na31 O31 2.366890 1_555
Na32 O25 2.294201 1_455
Na32 O2 2.370321 1_565
Na32 O26 2.375419 1_554
Na32 O29 2.398519 1_454
Na33 O24 2.294201 1_555
Na33 O1 2.370321 1_565
Na33 O26 2.375419 1_554
Na33 O30 2.398519 1_554
Na34 O29 2.307066 1_554
Na34 O30 2.307066 1_554
Na34 O5 2.543642 1_565
Na34 O25 2.548775 1_555
Na34 O24 2.548775 1_555
Na35 O4 2.361601 1_565
Na35 O3 2.361601 1_565
Na35 O31 2.410399 1_555
Na35 O23 2.626393 1_555
Na35 O22 2.626393 1_555
Na36 O4 2.347439 1_665
Na36 O27 2.351971 1_555
Na36 O0 2.364042 1_565
Na36 O22 2.366377 1_655
Na37 O3 2.347439 1_565
Na37 O28 2.351971 1_555
Na37 O0 2.364042 1_565
Na37 O23 2.366377 1_555
Na38 O26 2.320608 1_545
Na38 O29 2.320851 1_445
Na38 O4 2.329801 1_555
Na38 O6 2.441849 1_555
Na39 O26 2.320608 1_545
Na39 O30 2.320851 1_545
Na39 O3 2.329801 1_555
Na39 O7 2.441849 1_555
Cu0 O31 1.872010 1_545
Cu0 O1 1.915259 1_555
Cu0 O2 1.915259 1_555
Cu1 O10 1.872776 1_555
Cu1 O3 1.914083 1_555
Cu1 O4 1.914083 1_555
Cu2 O5 1.872776 1_555
Cu2 O12 1.914083 1_555
Cu2 O11 1.914083 1_555
Cu3 O16 1.872010 1_555
Cu3 O13 1.915259 1_555
Cu3 O14 1.915259 1_555
Cu4 O15 1.872010 1_555
Cu4 O18 1.915259 1_555
Cu4 O17 1.915259 1_555
Cu5 O26 1.872776 1_555
Cu5 O20 1.914083 1_555
Cu5 O19 1.914083 1_555
Cu6 O21 1.872776 1_555
Cu6 O27 1.914083 1_555
Cu6 O28 1.914083 1_555
Cu7 O0 1.872010 1_565
Cu7 O30 1.915259 1_555
Cu7 O29 1.915259 1_555
H0 O8 0.972272 1_555
H0 Na4 2.458814 1_555
H1 O9 0.972272 1_555
H1 Na4 2.458814 1_555
H2 O6 0.972272 1_555
H2 Na15 2.458814 1_555
H3 O7 0.972272 1_555
H3 Na15 2.458814 1_555
H4 O24 0.972272 1_555
H4 Na24 2.458814 1_555
H5 O25 0.972272 1_555
H5 Na24 2.458814 1_555
H6 O22 0.972272 1_555
H6 Na35 2.458814 1_555
H7 O23 0.972272 1_555
H7 Na35 2.458814 1_555
