# generated using pymatgen
data_Li5V3P8O29
_symmetry_space_group_name_H-M   'P 1'
_cell_length_a   9.78414900
_cell_length_b   9.78757970
_cell_length_c   13.99000593
_cell_angle_alpha   90.01422147
_cell_angle_beta   90.16546578
_cell_angle_gamma   119.94206168
_symmetry_Int_Tables_number   1
_chemical_formula_structural   Li5V3P8O29
_chemical_formula_sum   'Li10 V6 P16 O58'
_cell_volume   1160.90723875
_cell_formula_units_Z   2
loop_
 _symmetry_equiv_pos_site_id
 _symmetry_equiv_pos_as_xyz
  1  'x, y, z'
loop_
 _atom_site_type_symbol
 _atom_site_label
 _atom_site_symmetry_multiplicity
 _atom_site_fract_x
 _atom_site_fract_y
 _atom_site_fract_z
 _atom_site_occupancy
  Li  Li0  1  0.76953400  0.66348200  0.56099800  1
  Li  Li1  1  0.90493400  0.23890900  0.56148700  1
  Li  Li2  1  0.77204300  0.09031300  0.05804400  1
  Li  Li3  1  0.32015300  0.22634900  0.06006300  1
  Li  Li4  1  0.66701100  0.90261000  0.44121100  1
  Li  Li5  1  0.33716200  0.10221800  0.56127100  1
  Li  Li6  1  0.68481700  0.77145200  0.93792800  1
  Li  Li7  1  0.22446400  0.90302300  0.94089300  1
  Li  Li8  1  0.09595500  0.32456700  0.93817300  1
  Li  Li9  1  0.04005500  0.01181800  0.50159600  1
  V  V0  1  0.56624800  0.00034200  0.24911400  1
  V  V1  1  0.43003600  0.99933600  0.74935700  1
  V  V2  1  0.56784100  0.56551100  0.74887700  1
  V  V3  1  0.43157600  0.43740300  0.25403600  1
  V  V4  1  0.99965100  0.56817800  0.25102200  1
  V  V5  1  0.99988800  0.43563700  0.74925400  1
  P  P0  1  0.91597000  0.68495400  0.84319000  1
  P  P1  1  0.77424600  0.68767200  0.33920900  1
  P  P2  1  0.91337100  0.22732800  0.34391400  1
  P  P3  1  0.66603100  0.33388800  0.13041400  1
  P  P4  1  0.66547600  0.33150200  0.62636300  1
  P  P5  1  0.76792600  0.08831600  0.84050300  1
  P  P6  1  0.68368000  0.91207900  0.65763500  1
  P  P7  1  0.32023700  0.23331000  0.84380800  1
  P  P8  1  0.68070400  0.76892800  0.15482200  1
  P  P9  1  0.31504300  0.08968700  0.34279700  1
  P  P10  1  0.22773100  0.90960400  0.16076700  1
  P  P11  1  0.33319400  0.66782600  0.37150500  1
  P  P12  1  0.33528500  0.66745200  0.87090500  1
  P  P13  1  0.08255400  0.77491000  0.65619900  1
  P  P14  1  0.22436900  0.30917500  0.65930600  1
  P  P15  1  0.08687600  0.31735900  0.15925100  1
  O  O0  1  0.99729600  0.79293000  0.57221200  1
  O  O1  1  0.91502200  0.65860700  0.33605700  1
  O  O2  1  0.75052100  0.75559800  0.06432700  1
  O  O3  1  0.74694200  0.66148800  0.84031700  1
  O  O4  1  0.90652900  0.52384600  0.82225500  1
  O  O5  1  0.81532200  0.47850000  0.17865400  1
  O  O6  1  0.91208400  0.38280400  0.32782800  1
  O  O7  1  0.99889900  0.23870600  0.06900200  1
  O  O8  1  0.91671300  0.25320000  0.84154600  1
  O  O9  1  0.67964200  0.48868200  0.66717800  1
  O  O10  1  0.61744900  0.52884600  0.32726200  1
  O  O11  1  0.80920000  0.31915900  0.66701700  1
  O  O12  1  0.66792200  0.33481700  0.02420300  1
  O  O13  1  0.66373100  0.33121900  0.51935500  1
  O  O14  1  0.67009300  0.18447400  0.16927800  1
  O  O15  1  0.48088700  0.38084200  0.82302700  1
  O  O16  1  0.51595900  0.33375800  0.17144300  1
  O  O17  1  0.74293100  0.08303400  0.33737600  1
  O  O18  1  0.79177900  0.99881900  0.75051100  1
  O  O19  1  0.77346700  0.99810200  0.56882600  1
  O  O20  1  0.75312000  0.99792100  0.93049100  1
  O  O21  1  0.61831200  0.09874400  0.82053100  1
  O  O22  1  0.50908700  0.18899100  0.66698300  1
  O  O23  1  0.66213300  0.91732700  0.15908700  1
  O  O24  1  0.46962500  0.08897900  0.33071400  1
  O  O25  1  0.34370900  0.26038200  0.33003000  1
  O  O26  1  0.79347400  0.79262800  0.24675500  1
  O  O27  1  0.77414100  0.77338200  0.42874900  1
  O  O28  1  0.20837500  0.20245400  0.57838100  1
  O  O29  1  0.66275700  0.74412900  0.65929500  1
  O  O30  1  0.52696600  0.90785500  0.67008400  1
  O  O31  1  0.33551600  0.08360700  0.84266700  1
  O  O32  1  0.48735100  0.81288700  0.33367100  1
  O  O33  1  0.37994400  0.90164700  0.17864400  1
  O  O34  1  0.24021700  0.99806500  0.07089400  1
  O  O35  1  0.22797800  0.02097600  0.43329600  1
  O  O36  1  0.20490500  0.99821800  0.25130700  1
  O  O37  1  0.25472900  0.91766800  0.66070400  1
  O  O38  1  0.48842500  0.67430500  0.82879200  1
  O  O39  1  0.52163500  0.61909900  0.17930500  1
  O  O40  1  0.32668700  0.81398000  0.83082800  1
  O  O41  1  0.33722500  0.66811900  0.97764700  1
  O  O42  1  0.33119300  0.65772800  0.47713200  1
  O  O43  1  0.18624600  0.66747600  0.32493300  1
  O  O44  1  0.38100000  0.46423900  0.66820900  1
  O  O45  1  0.33055000  0.51660200  0.32435000  1
  O  O46  1  0.08342500  0.74194400  0.16510100  1
  O  O47  1  0.00042700  0.79409900  0.75115600  1
  O  O48  1  0.00617200  0.76475600  0.93024300  1
  O  O49  1  0.08318400  0.61954600  0.66605700  1
  O  O50  1  0.18767000  0.51342300  0.83060800  1
  O  O51  1  0.09421000  0.47629600  0.17697500  1
  O  O52  1  0.25476800  0.33825300  0.15930600  1
  O  O53  1  0.24745000  0.24805500  0.93507300  1
  O  O54  1  0.20303400  0.21194400  0.75770400  1
  O  O55  1  0.08248700  0.33928200  0.66120700  1
  O  O56  1  0.98944900  0.21941300  0.43453200  1
  O  O57  1  0.00108500  0.20746700  0.25086700  1
loop_
_geom_bond_atom_site_label_1
_geom_bond_atom_site_label_2
_geom_bond_distance
_geom_bond_site_symmetry_2
Li0 O0 1.943011 1_555
Li0 O9 2.100932 1_555
Li0 O29 2.106315 1_555
Li0 O27 2.129611 1_555
Li1 O56 2.010112 1_555
Li1 O19 2.048087 1_545
Li1 O55 2.052056 1_655
Li1 O11 2.101378 1_555
Li2 O7 1.959439 1_555
Li2 O20 1.966344 1_544
Li2 O23 2.052739 1_545
Li2 O14 2.278584 1_555
Li3 O53 1.937171 1_554
Li3 O34 1.970629 1_545
Li3 O52 2.059221 1_555
Li3 O16 2.274842 1_555
Li4 O27 2.013268 1_555
Li4 O19 2.040219 1_555
Li4 O17 2.116243 1_565
Li4 O32 2.137218 1_555
Li5 O28 1.960420 1_555
Li5 O35 2.029582 1_555
Li5 O22 2.072909 1_555
Li5 O37 2.098027 1_545
Li6 O2 1.912448 1_556
Li6 O20 1.972935 1_555
Li6 O3 2.012407 1_555
Li6 O38 2.255215 1_555
Li7 O48 1.878301 1_555
Li7 O34 2.012766 1_556
Li7 O31 2.070192 1_565
Li7 O40 2.238134 1_555
Li8 O53 1.966765 1_555
Li8 O8 2.038104 1_455
Li8 O7 2.042585 1_456
Li8 O50 2.199976 1_555
Li9 O35 2.036520 1_555
Li9 O28 2.066136 1_555
Li9 O0 2.202166 1_445
Li9 O56 2.501279 1_455
O0 P13 1.499614 1_655
O1 P1 1.539973 1_555
O1 V4 1.902888 1_555
O2 P8 1.476600 1_555
O3 P0 1.552368 1_555
O3 V2 1.983143 1_555
O4 P0 1.560450 1_555
O4 V5 1.847960 1_555
O5 P3 1.588213 1_555
O5 V4 1.859258 1_555
O6 P2 1.544590 1_555
O6 V4 1.906586 1_555
O7 P15 1.503144 1_655
O8 P5 1.542237 1_555
O8 V5 2.018522 1_555
O9 P4 1.580575 1_555
O9 V2 1.973911 1_555
O10 P1 1.554269 1_555
O10 V3 1.876648 1_555
O11 P4 1.574966 1_555
O11 V5 1.991965 1_555
O12 P3 1.486035 1_555
O13 P4 1.497077 1_555
O14 P3 1.579273 1_555
O14 V0 1.925464 1_555
O15 P7 1.541873 1_555
O15 V2 1.880912 1_555
O16 P3 1.577485 1_555
O16 V3 1.971506 1_555
O17 P2 1.559450 1_555
O17 V0 1.938719 1_555
O18 P5 1.616183 1_565
O18 P6 1.619516 1_555
O19 P6 1.514185 1_555
O20 P5 1.504107 1_565
O21 P5 1.542118 1_555
O21 V1 1.879171 1_545
O22 P4 1.576288 1_555
O22 V1 1.986201 1_545
O23 P8 1.552324 1_555
O23 V0 1.973283 1_565
O24 P9 1.525804 1_555
O24 V0 1.942687 1_555
O25 P9 1.560273 1_555
O25 V3 1.841357 1_555
O26 P1 1.603988 1_555
O26 P8 1.631421 1_555
O27 P1 1.507733 1_555
O28 P14 1.494160 1_555
O29 P6 1.552007 1_555
O29 V2 1.968889 1_555
O30 P6 1.523600 1_555
O30 V1 1.945332 1_555
O31 P7 1.545367 1_555
O31 V1 2.001882 1_545
O32 P11 1.561472 1_555
O32 V0 1.988476 1_565
O33 P10 1.549256 1_555
O33 V0 1.859888 1_565
O34 P10 1.497087 1_555
O35 P9 1.488512 1_555
O36 P10 1.612756 1_555
O36 P9 1.621544 1_565
O37 P13 1.563264 1_555
O37 V1 1.933330 1_555
O38 P12 1.581594 1_555
O38 V2 1.953954 1_555
O39 P8 1.554047 1_555
O39 V3 1.863875 1_555
O40 P12 1.580759 1_555
O40 V1 1.946608 1_555
O41 P12 1.493358 1_555
O42 P11 1.480582 1_555
O43 P11 1.575230 1_555
O43 V4 1.887907 1_455
O44 P14 1.531173 1_555
O44 V2 1.943369 1_555
O45 P11 1.608668 1_555
O45 V3 1.820903 1_555
O46 P10 1.541973 1_555
O46 V4 1.903783 1_455
O47 P13 1.613204 1_555
O47 P0 1.614761 1_455
O48 P0 1.475591 1_455
O49 P13 1.529985 1_555
O49 V5 1.949643 1_455
O50 P12 1.580468 1_555
O50 V5 1.960045 1_455
O51 P15 1.541047 1_555
O51 V4 1.890360 1_455
O52 P15 1.550764 1_555
O52 V3 2.000248 1_555
O53 P7 1.505313 1_555
O54 P7 1.600714 1_555
O54 P14 1.627337 1_555
O55 P14 1.556658 1_555
O55 V5 1.955967 1_455
O56 P2 1.489770 1_555
O57 P15 1.615509 1_555
O57 P2 1.625320 1_455
