# generated using pymatgen
data_La2Ti3O9
_symmetry_space_group_name_H-M   'P 1'
_cell_length_a   5.50920900
_cell_length_b   8.71065446
_cell_length_c   8.77490729
_cell_angle_alpha   101.46001142
_cell_angle_beta   108.29364072
_cell_angle_gamma   108.43510275
_symmetry_Int_Tables_number   1
_chemical_formula_structural   La2Ti3O9
_chemical_formula_sum   'La4 Ti6 O18'
_cell_volume   357.94642031
_cell_formula_units_Z   2
loop_
 _symmetry_equiv_pos_site_id
 _symmetry_equiv_pos_as_xyz
  1  'x, y, z'
loop_
 _atom_site_type_symbol
 _atom_site_label
 _atom_site_symmetry_multiplicity
 _atom_site_fract_x
 _atom_site_fract_y
 _atom_site_fract_z
 _atom_site_occupancy
  La  La0  1  0.00943800  0.99999600  0.00096700  1
  La  La1  1  0.65740700  0.33263500  0.99519900  1
  La  La2  1  0.99693300  0.49765200  0.49370700  1
  La  La3  1  0.33590700  0.66955400  0.00694500  1
  Ti  Ti0  1  0.66287300  0.57719200  0.74885000  1
  Ti  Ti1  1  0.00630800  0.75627000  0.26204300  1
  Ti  Ti2  1  0.33553700  0.91698700  0.73838200  1
  Ti  Ti3  1  0.67758600  0.08096800  0.25871000  1
  Ti  Ti4  1  0.99069500  0.23745200  0.74045300  1
  Ti  Ti5  1  0.32892600  0.42047000  0.25180900  1
  O  O0  1  0.50666300  0.50581400  0.50418600  1
  O  O1  1  0.82090700  0.66103700  0.99646300  1
  O  O2  1  0.14867800  0.80525400  0.50169600  1
  O  O3  1  0.02601700  0.74826900  0.76822700  1
  O  O4  1  0.67617800  0.57524800  0.24290400  1
  O  O5  1  0.50920800  0.99983000  0.00303600  1
  O  O6  1  0.30914800  0.91079100  0.22616300  1
  O  O7  1  0.17822500  0.09095800  0.78008900  1
  O  O8  1  0.50171300  0.25290800  0.22952000  1
  O  O9  1  0.85664700  0.42691500  0.75823400  1
  O  O10  1  0.14278300  0.56712300  0.23566100  1
  O  O11  1  0.50175900  0.74474200  0.76478600  1
  O  O12  1  0.82372800  0.90565100  0.22673500  1
  O  O13  1  0.84114600  0.19519300  0.49712000  1
  O  O14  1  0.16435400  0.33198500  0.00303200  1
  O  O15  1  0.69168000  0.09091800  0.77319000  1
  O  O16  1  0.98530000  0.25165100  0.23050400  1
  O  O17  1  0.33974300  0.43240700  0.76197600  1
loop_
_geom_bond_atom_site_label_1
_geom_bond_atom_site_label_2
_geom_bond_distance
_geom_bond_site_symmetry_2
La0 O7 2.554353 1_564
La0 O6 2.570658 1_555
La0 O15 2.645008 1_464
La0 O12 2.652255 1_455
La0 O8 2.698467 1_565
La0 O3 2.729743 1_554
La0 O16 2.734559 1_465
La0 O14 2.738609 1_565
La0 O5 2.748153 1_555
La0 O5 2.761170 1_455
La0 O11 2.767381 1_454
La0 O1 2.790385 1_454
La1 O7 2.596479 1_555
La1 O8 2.596847 1_556
La1 O10 2.658123 1_656
La1 O16 2.658446 1_556
La1 O4 2.663956 1_556
La1 O15 2.667660 1_555
La1 O1 2.710342 1_555
La1 O17 2.725172 1_555
La1 O14 2.736942 1_556
La1 O5 2.773581 1_546
La1 O14 2.773908 1_656
La1 O9 2.782846 1_555
La2 O13 2.509201 1_555
La2 O2 2.520900 1_655
La2 O4 2.707032 1_555
La2 O10 2.741929 1_655
La2 O0 2.753848 1_555
La2 O0 2.758364 1_655
La2 O8 2.783799 1_555
La2 O9 2.785374 1_555
La2 O16 2.789915 1_555
La2 O17 2.801930 1_655
La2 O3 2.835648 1_655
La2 O11 2.837649 1_655
La3 O3 2.615097 1_554
La3 O12 2.616516 1_555
La3 O6 2.627805 1_555
La3 O11 2.678155 1_554
La3 O17 2.679541 1_554
La3 O9 2.687310 1_454
La3 O10 2.721703 1_555
La3 O1 2.725860 1_554
La3 O5 2.740796 1_555
La3 O4 2.772944 1_555
La3 O14 2.778941 1_555
La3 O1 2.786439 1_454
O0 Ti0 1.925532 1_555
O0 Ti5 1.984926 1_555
O1 Ti0 1.947330 1_555
O1 Ti1 2.089014 1_656
O2 Ti2 1.881858 1_555
O2 Ti1 1.901552 1_555
O3 Ti2 1.996118 1_555
O3 Ti0 2.013037 1_455
O4 Ti1 1.926565 1_655
O4 Ti5 1.997028 1_555
O5 Ti3 2.010510 1_565
O5 Ti2 2.081307 1_554
O6 Ti1 1.942228 1_555
O6 Ti3 1.990950 1_565
O7 Ti4 1.897698 1_455
O7 Ti2 1.997714 1_545
O8 Ti5 1.989207 1_555
O8 Ti3 2.040096 1_555
O9 Ti0 1.931683 1_555
O9 Ti4 2.008535 1_555
O10 Ti5 1.874255 1_555
O10 Ti1 2.018576 1_555
O11 Ti0 1.937420 1_555
O11 Ti2 2.004320 1_555
O12 Ti1 1.895588 1_655
O12 Ti3 1.951473 1_565
O13 Ti3 1.897610 1_555
O13 Ti4 1.940353 1_555
O14 Ti5 1.956652 1_555
O14 Ti4 2.065488 1_454
O15 Ti4 1.881056 1_555
O15 Ti2 1.948899 1_545
O16 Ti5 1.920714 1_655
O16 Ti3 1.990269 1_555
O17 Ti0 1.881326 1_555
O17 Ti4 2.048551 1_455
