# generated using pymatgen
data_Y6O5F8
_symmetry_space_group_name_H-M   'P 1'
_cell_length_a   9.18152013
_cell_length_b   9.18152013
_cell_length_c   5.52527134
_cell_angle_alpha   89.96833353
_cell_angle_beta   89.96833353
_cell_angle_gamma   145.02414809
_symmetry_Int_Tables_number   1
_chemical_formula_structural   Y6O5F8
_chemical_formula_sum   'Y6 O5 F8'
_cell_volume   267.00035218
_cell_formula_units_Z   1
loop_
 _symmetry_equiv_pos_site_id
 _symmetry_equiv_pos_as_xyz
  1  'x, y, z'
loop_
 _atom_site_type_symbol
 _atom_site_label
 _atom_site_symmetry_multiplicity
 _atom_site_fract_x
 _atom_site_fract_y
 _atom_site_fract_z
 _atom_site_occupancy
  Y  Y0  1  0.77083300  0.76318500  0.71156800  1
  Y  Y1  1  0.41710800  0.08496500  0.70194100  1
  Y  Y2  1  0.05838500  0.40159400  0.71282000  1
  Y  Y3  1  0.91503500  0.58289200  0.29805900  1
  Y  Y4  1  0.59840600  0.94161500  0.28718000  1
  Y  Y5  1  0.23681500  0.22916700  0.28843200  1
  O  O0  1  0.25578300  0.74421700  0.50000000  1
  O  O1  1  0.74581100  0.25418900  0.50000000  1
  O  O2  1  0.08690300  0.91309700  0.50000000  1
  O  O3  1  0.57648600  0.42351400  0.50000000  1
  O  O4  1  0.91657700  0.08342300  0.50000000  1
  F  F0  1  0.20111900  0.79888100  0.00000000  1
  F  F1  1  0.91209500  0.08790500  0.00000000  1
  F  F2  1  0.76638500  0.23361500  0.00000000  1
  F  F3  1  0.34311600  0.65688400  0.00000000  1
  F  F4  1  0.05869100  0.94130900  0.00000000  1
  F  F5  1  0.62349100  0.37650900  0.00000000  1
  F  F6  1  0.48178200  0.51821800  0.00000000  1
  F  F7  1  0.41608900  0.58391100  0.50000000  1
loop_
_geom_bond_atom_site_label_1
_geom_bond_atom_site_label_2
_geom_bond_distance
_geom_bond_site_symmetry_2
O0 Y4 2.283339 1_555
O0 Y2 2.283339 1_555
O0 Y3 2.374529 1_455
O0 Y1 2.374529 1_565
O1 Y3 2.253256 1_555
O1 Y1 2.253256 1_555
O1 Y2 2.256320 1_655
O1 Y4 2.256320 1_545
O2 Y1 2.256594 1_565
O2 Y3 2.256594 1_455
O2 Y5 2.265212 1_565
O2 Y0 2.265212 1_455
O3 Y0 2.272294 1_555
O3 Y5 2.272294 1_555
O3 Y1 2.364016 1_555
O3 Y3 2.364016 1_555
O4 Y5 2.312781 1_655
O4 Y0 2.312781 1_545
O4 Y4 2.320381 1_545
O4 Y2 2.320381 1_655
F0 Y3 2.235955 1_455
F0 Y1 2.235955 1_564
F1 Y4 2.503999 1_545
F1 Y2 2.503999 1_654
F1 Y5 2.604105 1_655
F1 Y0 2.604105 1_544
F2 Y2 2.302300 1_654
F2 Y4 2.302300 1_545
F2 Y3 2.773920 1_555
F2 Y1 2.773920 1_554
F3 Y4 2.193841 1_555
F3 Y2 2.193841 1_554
F4 Y5 2.263567 1_565
F4 Y0 2.263567 1_454
F4 Y1 2.856522 1_564
F4 Y3 2.856522 1_455
F5 Y1 2.272450 1_554
F5 Y3 2.272450 1_555
F6 Y5 2.202518 1_555
F6 Y0 2.202518 1_554
F7 Y0 2.430009 1_555
F7 Y5 2.430009 1_555
F7 Y2 2.440334 1_555
F7 Y4 2.440334 1_555
