# generated using pymatgen
data_Al2O3
_symmetry_space_group_name_H-M   'P 1'
_cell_length_a   5.55723394
_cell_length_b   5.56572822
_cell_length_c   10.02479923
_cell_angle_alpha   108.01284511
_cell_angle_beta   84.15452545
_cell_angle_gamma   59.82769564
_symmetry_Int_Tables_number   1
_chemical_formula_structural   Al2O3
_chemical_formula_sum   'Al10 O15'
_cell_volume   242.11840645
_cell_formula_units_Z   5
loop_
 _symmetry_equiv_pos_site_id
 _symmetry_equiv_pos_as_xyz
  1  'x, y, z'
loop_
 _atom_site_type_symbol
 _atom_site_label
 _atom_site_symmetry_multiplicity
 _atom_site_fract_x
 _atom_site_fract_y
 _atom_site_fract_z
 _atom_site_occupancy
  Al  Al0  1  0.46205880  0.79162615  0.12290487  1
  Al  Al1  1  0.89088076  0.09736596  0.01472315  1
  Al  Al2  1  0.63794251  0.32377555  0.31016049  1
  Al  Al3  1  0.15238297  0.32767252  0.33032472  1
  Al  Al4  1  0.12466699  0.74811759  0.63085858  1
  Al  Al5  1  0.50474635  0.92306126  0.82354916  1
  Al  Al6  1  0.84085627  0.33582979  0.55734630  1
  Al  Al7  1  0.53692513  0.98325431  0.49527181  1
  Al  Al8  1  0.01162424  0.41968313  0.82530017  1
  Al  Al9  1  0.50160579  0.41006875  0.82114309  1
  O  O0  1  0.61620724  0.48345325  0.17001062  1
  O  O1  1  0.75422722  0.57295230  0.43130128  1
  O  O2  1  0.06945918  0.07614416  0.18648395  1
  O  O3  1  0.52551778  0.08083587  0.20108982  1
  O  O4  1  0.24272265  0.58339371  0.43489524  1
  O  O5  1  0.44699416  0.62478293  0.69074430  1
  O  O6  1  0.90551866  0.62107344  0.69089982  1
  O  O7  1  0.72736018  0.12304915  0.43707187  1
  O  O8  1  0.22040017  0.11598758  0.44301308  1
  O  O9  1  0.10832736  0.67715112  0.92435613  1
  O  O10  1  0.41626594  0.14372093  0.69636826  1
  O  O11  1  0.90948749  0.15689894  0.68952415  1
  O  O12  1  0.60592944  0.66634426  0.92655074  1
  O  O13  1  0.62115893  0.15993827  0.91540606  1
  O  O14  1  0.11673276  0.17381908  0.92070236  1
loop_
_geom_bond_atom_site_label_1
_geom_bond_atom_site_label_2
_geom_bond_distance
_geom_bond_site_symmetry_2
Al0 O0 1.733532 1_555
Al0 O3 1.782231 1_565
Al0 O12 1.808385 1_554
Al0 O2 1.814826 1_565
Al1 O14 1.785688 1_654
Al1 O13 1.831119 1_554
Al1 O9 1.837563 1_644
Al1 O0 1.876416 1_555
Al1 O2 2.078379 1_655
Al2 O0 1.864742 1_555
Al2 O3 1.867651 1_555
Al2 O7 1.887716 1_555
Al2 O4 1.899573 1_555
Al2 O1 1.958281 1_555
Al2 O2 2.050029 1_655
Al3 O8 1.808211 1_555
Al3 O4 1.810908 1_555
Al3 O3 1.831418 1_555
Al3 O1 1.853896 1_455
Al3 O2 1.945983 1_555
Al4 O4 1.774588 1_555
Al4 O11 1.801835 1_465
Al4 O5 1.810554 1_555
Al4 O6 1.823450 1_455
Al5 O13 1.797915 1_565
Al5 O14 1.803453 1_565
Al5 O12 1.909715 1_555
Al5 O6 1.950702 1_555
Al5 O10 1.965880 1_565
Al5 O5 1.971602 1_555
Al6 O7 1.810177 1_555
Al6 O8 1.818141 1_655
Al6 O11 1.852100 1_555
Al6 O5 1.923751 1_555
Al6 O6 1.949095 1_555
Al6 O1 2.021572 1_555
Al7 O8 1.742163 1_565
Al7 O7 1.745980 1_565
Al7 O1 1.802496 1_555
Al7 O10 1.822219 1_565
Al8 O14 1.802260 1_555
Al8 O9 1.825131 1_555
Al8 O12 1.886464 1_455
Al8 O10 1.947993 1_555
Al8 O6 1.962357 1_455
Al8 O11 2.018571 1_455
Al9 O13 1.812244 1_555
Al9 O9 1.838284 1_555
Al9 O12 1.873786 1_555
Al9 O10 1.915158 1_555
Al9 O11 1.973510 1_555
Al9 O5 1.977738 1_555
