# generated using pymatgen
data_LiLa7(CuO7)2
_symmetry_space_group_name_H-M   'P 1'
_cell_length_a   11.61559929
_cell_length_b   11.61559929
_cell_length_c   11.87668611
_cell_angle_alpha   65.81788813
_cell_angle_beta   65.81788813
_cell_angle_gamma   68.90476628
_symmetry_Int_Tables_number   1
_chemical_formula_structural   LiLa7(CuO7)2
_chemical_formula_sum   'Li4 La28 Cu8 O56'
_cell_volume   1297.51413710
_cell_formula_units_Z   4
loop_
 _symmetry_equiv_pos_site_id
 _symmetry_equiv_pos_as_xyz
  1  'x, y, z'
loop_
 _atom_site_type_symbol
 _atom_site_label
 _atom_site_symmetry_multiplicity
 _atom_site_fract_x
 _atom_site_fract_y
 _atom_site_fract_z
 _atom_site_occupancy
  Li  Li0  1  0.78573100  0.78573100  0.57081600  1
  Li  Li1  1  0.21426900  0.21426900  0.42918400  1
  Li  Li2  1  0.07143800  0.07143800  0.14245200  1
  Li  Li3  1  0.92856200  0.92856200  0.85754800  1
  La  La0  1  0.57533000  0.85004100  0.42579300  1
  La  La1  1  0.85004100  0.57533000  0.42579300  1
  La  La2  1  0.78555900  0.50510700  0.78195200  1
  La  La3  1  0.06638800  0.79031400  0.35753800  1
  La  La4  1  0.50510700  0.78555900  0.78195200  1
  La  La5  1  0.36595500  0.63404500  0.50000000  1
  La  La6  1  0.63404500  0.36595500  0.50000000  1
  La  La7  1  0.79031400  0.06638800  0.35753800  1
  La  La8  1  0.43384100  0.71468700  0.14825300  1
  La  La9  1  0.28531300  0.56615900  0.85174700  1
  La  La10  1  0.71932200  0.99594400  0.71400500  1
  La  La11  1  0.14995900  0.42467000  0.57420700  1
  La  La12  1  0.00405600  0.28067800  0.28599500  1
  La  La13  1  0.71468700  0.43384100  0.14825300  1
  La  La14  1  0.99594400  0.71932200  0.71400500  1
  La  La15  1  0.56615900  0.28531300  0.85174700  1
  La  La16  1  0.42467000  0.14995900  0.57420700  1
  La  La17  1  0.28067800  0.00405600  0.28599500  1
  La  La18  1  0.64749600  0.91927300  0.07520800  1
  La  La19  1  0.08072700  0.35250400  0.92479200  1
  La  La20  1  0.20968600  0.93361200  0.64246200  1
  La  La21  1  0.35250400  0.08072700  0.92479200  1
  La  La22  1  0.91927300  0.64749600  0.07520800  1
  La  La23  1  0.93361200  0.20968600  0.64246200  1
  La  La24  1  0.21444100  0.49489300  0.21804800  1
  La  La25  1  0.49489300  0.21444100  0.21804800  1
  La  La26  1  0.86025400  0.13974600  0.00000000  1
  La  La27  1  0.13974600  0.86025400  0.00000000  1
  Cu  Cu0  1  0.71448300  0.71448300  0.92802200  1
  Cu  Cu1  1  0.57167500  0.57167500  0.64322000  1
  Cu  Cu2  1  0.42832500  0.42832500  0.35678000  1
  Cu  Cu3  1  0.50000000  0.50000000  0.00000000  1
  Cu  Cu4  1  0.85751700  0.85751700  0.21426000  1
  Cu  Cu5  1  0.28551700  0.28551700  0.07197800  1
  Cu  Cu6  1  0.14248300  0.14248300  0.78574000  1
  Cu  Cu7  1  0.00000000  0.00000000  0.50000000  1
  O  O0  1  0.82199000  0.82199000  0.38896500  1
  O  O1  1  0.75310400  0.75310400  0.24956300  1
  O  O2  1  0.45786600  0.82874600  0.28380500  1
  O  O3  1  0.82874600  0.45786600  0.28380500  1
  O  O4  1  0.81965500  0.81965500  0.89415100  1
  O  O5  1  0.53254900  0.53254900  0.32240600  1
  O  O6  1  0.74925300  0.74925300  0.75284200  1
  O  O7  1  0.67684800  0.67684800  0.60720400  1
  O  O8  1  0.60641300  0.60641300  0.46838600  1
  O  O9  1  0.75551700  0.38724300  0.64408300  1
  O  O10  1  0.38724300  0.75551700  0.64408300  1
  O  O11  1  0.18604700  0.81395300  0.50000000  1
  O  O12  1  0.81395300  0.18604700  0.50000000  1
  O  O13  1  0.24448300  0.61275700  0.35591700  1
  O  O14  1  0.61275700  0.24448300  0.35591700  1
  O  O15  1  0.39358700  0.39358700  0.53161400  1
  O  O16  1  0.25074700  0.25074700  0.24715800  1
  O  O17  1  0.32315200  0.32315200  0.39279600  1
  O  O18  1  0.67938100  0.67938100  0.10216000  1
  O  O19  1  0.53544800  0.53544800  0.82105000  1
  O  O20  1  0.60796600  0.60796600  0.96465200  1
  O  O21  1  0.46745100  0.46745100  0.67759400  1
  O  O22  1  0.96566100  0.60545800  0.57245400  1
  O  O23  1  0.67912300  0.32087700  0.00000000  1
  O  O24  1  0.17125400  0.54213400  0.71619500  1
  O  O25  1  0.74955300  0.10876900  0.85628600  1
  O  O26  1  0.32087700  0.67912300  0.00000000  1
  O  O27  1  0.60545800  0.96566100  0.57245400  1
  O  O28  1  0.54213400  0.17125400  0.71619500  1
  O  O29  1  0.39454200  0.03433900  0.42754600  1
  O  O30  1  0.10876900  0.74955300  0.85628600  1
  O  O31  1  0.03433900  0.39454200  0.42754600  1
  O  O32  1  0.17801000  0.17801000  0.61103500  1
  O  O33  1  0.03480000  0.03480000  0.32562400  1
  O  O34  1  0.39203400  0.39203400  0.03534800  1
  O  O35  1  0.24689600  0.24689600  0.75043700  1
  O  O36  1  0.10451900  0.10451900  0.46566900  1
  O  O37  1  0.46455200  0.46455200  0.17895000  1
  O  O38  1  0.32061900  0.32061900  0.89784000  1
  O  O39  1  0.67210200  0.04220300  0.21427500  1
  O  O40  1  0.95779700  0.32789800  0.78572500  1
  O  O41  1  0.10223500  0.47098000  0.07067700  1
  O  O42  1  0.52902000  0.89776500  0.92932300  1
  O  O43  1  0.04220300  0.67210200  0.21427500  1
  O  O44  1  0.47098000  0.10223500  0.07067700  1
  O  O45  1  0.32789800  0.95779700  0.78572500  1
  O  O46  1  0.89776500  0.52902000  0.92932300  1
  O  O47  1  0.10786200  0.10786200  0.96012100  1
  O  O48  1  0.03732700  0.03732700  0.82156400  1
  O  O49  1  0.89548100  0.89548100  0.53433100  1
  O  O50  1  0.18034500  0.18034500  0.10584900  1
  O  O51  1  0.96520000  0.96520000  0.67437600  1
  O  O52  1  0.25044700  0.89123100  0.14371400  1
  O  O53  1  0.89123100  0.25044700  0.14371400  1
  O  O54  1  0.89213800  0.89213800  0.03987900  1
  O  O55  1  0.96267300  0.96267300  0.17843600  1
loop_
_geom_bond_atom_site_label_1
_geom_bond_atom_site_label_2
_geom_bond_distance
_geom_bond_site_symmetry_2
Li0 O7 1.908334 1_555
Li0 O0 1.912236 1_555
Li0 O6 1.913382 1_555
Li0 O49 1.924256 1_555
Li0 O22 2.367031 1_555
Li0 O27 2.367031 1_555
Li1 O17 1.908334 1_555
Li1 O32 1.912236 1_555
Li1 O16 1.913382 1_555
Li1 O36 1.924256 1_555
Li1 O29 2.367031 1_555
Li1 O31 2.367031 1_555
Li2 O55 1.907641 1_445
Li2 O50 1.907978 1_555
Li2 O47 1.917022 1_554
Li2 O33 1.925690 1_555
Li2 O53 2.360516 1_455
Li2 O52 2.360516 1_545
Li3 O48 1.907641 1_665
Li3 O4 1.907978 1_555
Li3 O54 1.917022 1_556
Li3 O51 1.925690 1_555
Li3 O30 2.360516 1_655
Li3 O25 2.360516 1_565
La0 O29 2.399520 1_565
La0 O1 2.574649 1_555
La0 O8 2.576012 1_555
La0 O7 2.627263 1_555
La0 O0 2.631418 1_555
La0 O2 2.690040 1_555
La0 O10 2.730231 1_555
La0 O39 2.730420 1_565
La0 O27 2.777478 1_555
La1 O31 2.399520 1_655
La1 O1 2.574649 1_555
La1 O8 2.576012 1_555
La1 O7 2.627263 1_555
La1 O0 2.631418 1_555
La1 O3 2.690040 1_555
La1 O9 2.730231 1_555
La1 O43 2.730420 1_655
La1 O22 2.777478 1_555
La2 O40 2.296752 1_555
La2 O6 2.606724 1_555
La2 O7 2.612141 1_555
La2 O22 2.653436 1_555
La2 O19 2.659281 1_555
La2 O20 2.659665 1_555
La2 O9 2.706638 1_555
La2 O46 2.714252 1_555
La2 O23 2.748717 1_556
La3 O13 2.337121 1_555
La3 O49 2.604376 1_455
La3 O33 2.612482 1_565
La3 O0 2.612696 1_455
La3 O55 2.618883 1_455
La3 O52 2.703901 1_555
La3 O22 2.714057 1_455
La3 O43 2.728143 1_555
La3 O11 2.729847 1_555
La4 O45 2.296752 1_555
La4 O6 2.606724 1_555
La4 O7 2.612141 1_555
La4 O27 2.653436 1_555
La4 O19 2.659281 1_555
La4 O20 2.659665 1_555
La4 O10 2.706638 1_555
La4 O42 2.714252 1_555
La4 O26 2.748717 1_556
La5 O11 2.364419 1_555
La5 O21 2.575741 1_555
La5 O5 2.575741 1_555
La5 O8 2.576710 1_555
La5 O15 2.576710 1_555
La5 O10 2.748861 1_555
La5 O13 2.748861 1_555
La5 O24 2.753559 1_555
La5 O2 2.753559 1_555
La6 O12 2.364419 1_555
La6 O21 2.575741 1_555
La6 O5 2.575741 1_555
La6 O8 2.576710 1_555
La6 O15 2.576710 1_555
La6 O9 2.748861 1_555
La6 O14 2.748861 1_555
La6 O28 2.753559 1_555
La6 O3 2.753559 1_555
La7 O14 2.337121 1_555
La7 O49 2.604376 1_545
La7 O33 2.612482 1_655
La7 O0 2.612696 1_545
La7 O55 2.618883 1_545
La7 O53 2.703901 1_555
La7 O27 2.714057 1_545
La7 O39 2.728143 1_555
La7 O12 2.729847 1_555
La8 O52 2.367487 1_555
La8 O18 2.581689 1_555
La8 O5 2.584638 1_555
La8 O2 2.608947 1_555
La8 O20 2.679334 1_554
La8 O37 2.682265 1_555
La8 O42 2.704165 1_554
La8 O13 2.713001 1_555
La8 O26 2.805628 1_555
La9 O30 2.367487 1_555
La9 O38 2.581689 1_555
La9 O21 2.584638 1_555
La9 O24 2.608947 1_555
La9 O34 2.679334 1_556
La9 O19 2.682265 1_555
La9 O41 2.704165 1_556
La9 O10 2.713001 1_555
La9 O26 2.805628 1_556
La10 O28 2.316447 1_565
La10 O51 2.609242 1_555
La10 O49 2.616546 1_555
La10 O4 2.620030 1_555
La10 O6 2.622199 1_555
La10 O25 2.707040 1_565
La10 O27 2.709302 1_555
La10 O12 2.721116 1_565
La10 O42 2.742346 1_555
La11 O22 2.399520 1_455
La11 O35 2.574649 1_555
La11 O15 2.576012 1_555
La11 O17 2.627263 1_555
La11 O32 2.631418 1_555
La11 O24 2.690040 1_555
La11 O13 2.730231 1_555
La11 O40 2.730420 1_455
La11 O31 2.777478 1_555
La12 O3 2.316447 1_455
La12 O33 2.609242 1_555
La12 O36 2.616546 1_555
La12 O50 2.620030 1_555
La12 O16 2.622199 1_555
La12 O53 2.707040 1_455
La12 O31 2.709302 1_555
La12 O12 2.721116 1_455
La12 O41 2.742346 1_555
La13 O53 2.367487 1_555
La13 O18 2.581689 1_555
La13 O5 2.584638 1_555
La13 O3 2.608947 1_555
La13 O20 2.679334 1_554
La13 O37 2.682265 1_555
La13 O46 2.704165 1_554
La13 O14 2.713001 1_555
La13 O23 2.805628 1_555
La14 O24 2.316447 1_655
La14 O51 2.609242 1_555
La14 O49 2.616546 1_555
La14 O4 2.620030 1_555
La14 O6 2.622199 1_555
La14 O30 2.707040 1_655
La14 O22 2.709302 1_555
La14 O11 2.721116 1_655
La14 O46 2.742346 1_555
La15 O25 2.367487 1_555
La15 O38 2.581689 1_555
La15 O21 2.584638 1_555
La15 O28 2.608947 1_555
La15 O34 2.679334 1_556
La15 O19 2.682265 1_555
La15 O44 2.704165 1_556
La15 O9 2.713001 1_555
La15 O23 2.805628 1_556
La16 O27 2.399520 1_545
La16 O35 2.574649 1_555
La16 O15 2.576012 1_555
La16 O17 2.627263 1_555
La16 O32 2.631418 1_555
La16 O28 2.690040 1_555
La16 O14 2.730231 1_555
La16 O45 2.730420 1_545
La16 O29 2.777478 1_555
La17 O2 2.316447 1_545
La17 O33 2.609242 1_555
La17 O36 2.616546 1_555
La17 O50 2.620030 1_555
La17 O16 2.622199 1_555
La17 O52 2.707040 1_545
La17 O29 2.709302 1_555
La17 O11 2.721116 1_545
La17 O44 2.742346 1_555
La18 O44 2.362919 1_565
La18 O1 2.573039 1_555
La18 O18 2.574421 1_555
La18 O4 2.609938 1_554
La18 O54 2.614807 1_555
La18 O2 2.675323 1_555
La18 O39 2.731535 1_565
La18 O42 2.741142 1_554
La18 O25 2.770352 1_564
La19 O46 2.362919 1_455
La19 O35 2.573039 1_555
La19 O38 2.574421 1_555
La19 O50 2.609938 1_556
La19 O47 2.614807 1_555
La19 O24 2.675323 1_555
La19 O40 2.731535 1_455
La19 O41 2.741142 1_556
La19 O53 2.770352 1_456
La20 O10 2.337121 1_555
La20 O36 2.604376 1_565
La20 O51 2.612482 1_455
La20 O32 2.612696 1_565
La20 O48 2.618883 1_565
La20 O30 2.703901 1_555
La20 O29 2.714057 1_565
La20 O45 2.728143 1_555
La20 O11 2.729847 1_555
La21 O42 2.362919 1_545
La21 O35 2.573039 1_555
La21 O38 2.574421 1_555
La21 O50 2.609938 1_556
La21 O47 2.614807 1_555
La21 O28 2.675323 1_555
La21 O45 2.731535 1_545
La21 O44 2.741142 1_556
La21 O52 2.770352 1_546
La22 O41 2.362919 1_655
La22 O1 2.573039 1_555
La22 O18 2.574421 1_555
La22 O4 2.609938 1_554
La22 O54 2.614807 1_555
La22 O3 2.675323 1_555
La22 O43 2.731535 1_655
La22 O46 2.741142 1_554
La22 O30 2.770352 1_654
La23 O9 2.337121 1_555
La23 O36 2.604376 1_655
La23 O51 2.612482 1_545
La23 O32 2.612696 1_655
La23 O48 2.618883 1_655
La23 O25 2.703901 1_555
La23 O31 2.714057 1_655
La23 O40 2.728143 1_555
La23 O12 2.729847 1_555
La24 O43 2.296752 1_555
La24 O16 2.606724 1_555
La24 O17 2.612141 1_555
La24 O31 2.653436 1_555
La24 O37 2.659281 1_555
La24 O34 2.659665 1_555
La24 O13 2.706638 1_555
La24 O41 2.714252 1_555
La24 O26 2.748717 1_555
La25 O39 2.296752 1_555
La25 O16 2.606724 1_555
La25 O17 2.612141 1_555
La25 O29 2.653436 1_555
La25 O37 2.659281 1_555
La25 O34 2.659665 1_555
La25 O14 2.706638 1_555
La25 O44 2.714252 1_555
La25 O23 2.748717 1_555
La26 O23 2.380492 1_555
La26 O55 2.621055 1_545
La26 O48 2.621055 1_654
La26 O54 2.625728 1_545
La26 O47 2.625728 1_654
La26 O53 2.707499 1_555
La26 O25 2.707499 1_554
La26 O39 2.720301 1_555
La26 O40 2.720301 1_554
La27 O26 2.380492 1_555
La27 O55 2.621055 1_455
La27 O48 2.621055 1_564
La27 O54 2.625728 1_455
La27 O47 2.625728 1_564
La27 O52 2.707499 1_555
La27 O30 2.707499 1_554
La27 O43 2.720301 1_555
La27 O45 2.720301 1_554
Cu0 O18 1.829701 1_556
Cu0 O6 1.842693 1_555
Cu0 O4 1.848149 1_555
Cu0 O20 1.863021 1_555
Cu0 O42 2.423167 1_555
Cu0 O46 2.423167 1_555
Cu1 O21 1.828404 1_555
Cu1 O8 1.838913 1_555
Cu1 O7 1.840075 1_555
Cu1 O19 1.867092 1_555
Cu1 O9 2.420015 1_555
Cu1 O10 2.420015 1_555
Cu2 O5 1.828404 1_555
Cu2 O15 1.838913 1_555
Cu2 O17 1.840075 1_555
Cu2 O37 1.867092 1_555
Cu2 O14 2.420015 1_555
Cu2 O13 2.420015 1_555
Cu3 O37 1.882618 1_555
Cu3 O19 1.882618 1_554
Cu3 O20 1.895038 1_554
Cu3 O34 1.895038 1_555
Cu3 O26 2.354103 1_555
Cu3 O23 2.354103 1_555
Cu4 O1 1.828460 1_555
Cu4 O54 1.834251 1_555
Cu4 O0 1.834514 1_555
Cu4 O55 1.840467 1_555
Cu4 O39 2.432014 1_565
Cu4 O43 2.432014 1_655
Cu5 O38 1.829701 1_554
Cu5 O16 1.842693 1_555
Cu5 O50 1.848149 1_555
Cu5 O34 1.863021 1_555
Cu5 O44 2.423167 1_555
Cu5 O41 2.423167 1_555
Cu6 O35 1.828460 1_555
Cu6 O47 1.834251 1_555
Cu6 O32 1.834514 1_555
Cu6 O48 1.840467 1_555
Cu6 O45 2.432014 1_545
Cu6 O40 2.432014 1_455
Cu7 O51 1.833515 1_445
Cu7 O33 1.833515 1_555
Cu7 O36 1.834111 1_555
Cu7 O49 1.834111 1_445
Cu7 O11 2.445100 1_545
Cu7 O12 2.445100 1_455
