# generated using pymatgen
data_Li5Cr6P5O24
_symmetry_space_group_name_H-M   'P 1'
_cell_length_a   6.50830200
_cell_length_b   6.78492310
_cell_length_c   10.55214033
_cell_angle_alpha   107.92619690
_cell_angle_beta   107.92743554
_cell_angle_gamma   89.74141785
_symmetry_Int_Tables_number   1
_chemical_formula_structural   Li5Cr6P5O24
_chemical_formula_sum   'Li5 Cr6 P5 O24'
_cell_volume   419.71790076
_cell_formula_units_Z   1
loop_
 _symmetry_equiv_pos_site_id
 _symmetry_equiv_pos_as_xyz
  1  'x, y, z'
loop_
 _atom_site_type_symbol
 _atom_site_label
 _atom_site_symmetry_multiplicity
 _atom_site_fract_x
 _atom_site_fract_y
 _atom_site_fract_z
 _atom_site_occupancy
  Li  Li0  1  0.23546100  0.23360000  0.47622400  1
  Li  Li1  1  0.27907800  0.77096600  0.52254200  1
  Li  Li2  1  0.50504200  0.48491000  0.98361600  1
  Li  Li3  1  0.98119100  0.49121900  0.96191700  1
  Li  Li4  1  0.51019000  0.01633700  0.02826900  1
  Cr  Cr0  1  0.64061500  0.62349700  0.75230900  1
  Cr  Cr1  1  0.56066800  0.12960200  0.75702300  1
  Cr  Cr2  1  0.87472400  0.36432900  0.24953300  1
  Cr  Cr3  1  0.12845100  0.13232700  0.75356800  1
  Cr  Cr4  1  0.76967500  0.76800300  0.53642200  1
  Cr  Cr5  1  0.36824600  0.88164200  0.24468400  1
  P  P0  1  0.99500600  0.00395700  0.00126500  1
  P  P1  1  0.23393000  0.62399600  0.75081000  1
  P  P2  1  0.87242600  0.76083700  0.24840400  1
  P  P3  1  0.74295000  0.24269500  0.49400400  1
  P  P4  1  0.36951100  0.48592500  0.24504800  1
  O  O0  1  0.90039000  0.77472200  0.91966600  1
  O  O1  1  0.61635000  0.85787100  0.67970300  1
  O  O2  1  0.68470200  0.38709400  0.81799300  1
  O  O3  1  0.19653200  0.38088600  0.28038600  1
  O  O4  1  0.32263100  0.52640000  0.62430200  1
  O  O5  1  0.44741800  0.72396700  0.87718500  1
  O  O6  1  0.42054300  0.16309800  0.88594200  1
  O  O7  1  0.29113500  0.08974800  0.62121300  1
  O  O8  1  0.08006700  0.89703900  0.28020500  1
  O  O9  1  0.84554600  0.10276800  0.09043400  1
  O  O10  1  0.83838300  0.54880800  0.12602000  1
  O  O11  1  0.09256000  0.79651400  0.71227400  1
  O  O12  1  0.12875800  0.45519100  0.78831600  1
  O  O13  1  0.91161000  0.67544500  0.37951900  1
  O  O14  1  0.89934500  0.25214600  0.41023600  1
  O  O15  1  0.98895000  0.14203800  0.90597000  1
  O  O16  1  0.84000400  0.10747200  0.59144000  1
  O  O17  1  0.66401800  0.86794200  0.21781200  1
  O  O18  1  0.55136900  0.35123700  0.21975000  1
  O  O19  1  0.73064800  0.47118700  0.57999700  1
  O  O20  1  0.50658600  0.14289200  0.40884000  1
  O  O21  1  0.45684500  0.69948900  0.37159500  1
  O  O22  1  0.28196900  0.57430300  0.11865700  1
  O  O23  1  0.23647400  0.99789900  0.08690300  1
loop_
_geom_bond_atom_site_label_1
_geom_bond_atom_site_label_2
_geom_bond_distance
_geom_bond_site_symmetry_2
Li0 O7 1.999850 1_555
Li0 O4 2.064856 1_555
Li0 O14 2.097561 1_455
Li0 O20 2.119262 1_555
Li0 O3 2.505982 1_555
Li0 O8 2.518169 1_545
Li1 O7 2.081672 1_565
Li1 O21 2.182823 1_555
Li1 O4 2.211801 1_555
Li1 O1 2.254980 1_555
Li1 O13 2.367971 1_455
Li1 O11 2.606264 1_555
Li2 O6 2.099720 1_555
Li2 O10 2.180170 1_556
Li2 O5 2.211186 1_555
Li2 O22 2.289070 1_556
Li2 O2 2.323594 1_555
Li3 O2 2.019107 1_555
Li3 O22 2.080419 1_656
Li3 O0 2.133026 1_555
Li3 O10 2.141524 1_556
Li3 O15 2.262809 1_555
Li3 O12 2.267858 1_655
Li4 O6 1.990837 1_554
Li4 O23 2.073676 1_545
Li4 O5 2.074416 1_544
Li4 O9 2.105060 1_555
Li4 O17 2.452392 1_545
Li4 O18 2.482632 1_555
Cr0 O2 1.921781 1_555
Cr0 O1 1.952927 1_555
Cr0 O0 2.022880 1_555
Cr0 O19 2.052100 1_555
Cr0 O5 2.059461 1_555
Cr0 O4 2.070048 1_555
Cr1 O2 1.766038 1_555
Cr1 O6 1.818112 1_555
Cr1 O7 1.849914 1_555
Cr1 O1 1.856382 1_545
Cr2 O9 1.994173 1_555
Cr2 O3 2.016198 1_655
Cr2 O14 2.026525 1_555
Cr2 O18 2.028024 1_555
Cr2 O10 2.032997 1_555
Cr2 O13 2.101050 1_555
Cr3 O6 1.948830 1_555
Cr3 O7 1.953023 1_555
Cr3 O15 2.061054 1_455
Cr3 O16 2.080286 1_455
Cr3 O12 2.106739 1_555
Cr3 O11 2.183304 1_545
Cr4 O1 2.002321 1_555
Cr4 O13 2.070069 1_555
Cr4 O21 2.171924 1_555
Cr4 O16 2.207802 1_565
Cr4 O19 2.231182 1_555
Cr4 O11 2.297575 1_655
Cr5 O23 2.013202 1_555
Cr5 O8 2.018917 1_555
Cr5 O17 2.027994 1_555
Cr5 O20 2.029113 1_565
Cr5 O21 2.047038 1_555
Cr5 O22 2.067838 1_555
O0 P0 1.548389 1_566
O3 P4 1.530903 1_555
O4 P1 1.574996 1_555
O5 P1 1.574790 1_555
O8 P2 1.527763 1_455
O9 P0 1.565332 1_555
O10 P2 1.571461 1_555
O11 P1 1.560440 1_555
O12 P1 1.545905 1_555
O13 P2 1.609289 1_555
O14 P3 1.552698 1_555
O15 P0 1.563854 1_556
O16 P3 1.572739 1_555
O17 P2 1.529061 1_555
O18 P4 1.530305 1_555
O19 P3 1.552696 1_555
O20 P3 1.554453 1_555
O21 P4 1.598411 1_555
O22 P4 1.576181 1_555
O23 P0 1.560788 1_465
