# generated using pymatgen
data_Li10Cr3Fe3(NiO8)2
_symmetry_space_group_name_H-M   'P 1'
_cell_length_a   5.97838531
_cell_length_b   5.97838531
_cell_length_c   9.83837766
_cell_angle_alpha   89.77426072
_cell_angle_beta   89.77426072
_cell_angle_gamma   59.85084371
_symmetry_Int_Tables_number   1
_chemical_formula_structural   Li10Cr3Fe3(NiO8)2
_chemical_formula_sum   'Li10 Cr3 Fe3 Ni2 O16'
_cell_volume   304.06240768
_cell_formula_units_Z   1
loop_
 _symmetry_equiv_pos_site_id
 _symmetry_equiv_pos_as_xyz
  1  'x, y, z'
loop_
 _atom_site_type_symbol
 _atom_site_label
 _atom_site_symmetry_multiplicity
 _atom_site_fract_x
 _atom_site_fract_y
 _atom_site_fract_z
 _atom_site_occupancy
  Li  Li0  1  0.81678200  0.40629200  0.94126100  1
  Li  Li1  1  0.01501600  0.01501600  0.01644400  1
  Li  Li2  1  0.01725200  0.01725200  0.51528100  1
  Li  Li3  1  0.40629200  0.81678200  0.94126100  1
  Li  Li4  1  0.68362500  0.68362500  0.71664800  1
  Li  Li5  1  0.81796600  0.81796600  0.94232900  1
  Li  Li6  1  0.61980500  0.20610100  0.44171300  1
  Li  Li7  1  0.34662200  0.34662200  0.21677800  1
  Li  Li8  1  0.21068600  0.21068600  0.44260400  1
  Li  Li9  1  0.20610100  0.61980500  0.44171300  1
  Cr  Cr0  1  0.84798500  0.34823400  0.21456800  1
  Cr  Cr1  1  0.34823400  0.84798500  0.21456800  1
  Cr  Cr2  1  0.18517000  0.18517000  0.71435100  1
  Fe  Fe0  1  0.84502600  0.84502600  0.21502800  1
  Fe  Fe1  1  0.67304600  0.19120200  0.71465500  1
  Fe  Fe2  1  0.19120200  0.67304600  0.71465500  1
  Ni  Ni0  1  0.68176700  0.68176700  0.47014500  1
  Ni  Ni1  1  0.34952300  0.34952300  0.97046400  1
  O  O0  1  0.85163700  0.34555400  0.59786000  1
  O  O1  1  0.52268900  0.52268900  0.33292300  1
  O  O2  1  0.67956900  0.67956900  0.09757400  1
  O  O3  1  0.99974800  0.51846500  0.33216800  1
  O  O4  1  0.01566700  0.01566700  0.32594400  1
  O  O5  1  0.01860100  0.01860100  0.82710300  1
  O  O6  1  0.34555400  0.85163700  0.59786000  1
  O  O7  1  0.51846500  0.99974800  0.33216800  1
  O  O8  1  0.17602800  0.17602800  0.09786900  1
  O  O9  1  0.85540000  0.85540000  0.59427100  1
  O  O10  1  0.50240800  0.03775500  0.83277800  1
  O  O11  1  0.03775500  0.50240800  0.83277800  1
  O  O12  1  0.34852700  0.34852700  0.59573400  1
  O  O13  1  0.69343900  0.17495100  0.09648500  1
  O  O14  1  0.50855600  0.50855600  0.83313500  1
  O  O15  1  0.17495100  0.69343900  0.09648500  1
loop_
_geom_bond_atom_site_label_1
_geom_bond_atom_site_label_2
_geom_bond_distance
_geom_bond_site_symmetry_2
Li0 O14 1.944121 1_555
Li0 O11 1.990250 1_655
Li0 O2 2.090629 1_556
Li0 O5 2.299991 1_655
Li0 O13 2.405760 1_556
Li0 O8 2.433344 1_656
Li1 O13 1.837906 1_455
Li1 O15 1.837906 1_545
Li1 O8 1.854136 1_555
Li1 O5 1.863010 1_554
Li2 O9 1.845300 1_445
Li2 O4 1.862916 1_555
Li2 O6 1.883295 1_545
Li2 O0 1.883295 1_455
Li3 O14 1.944121 1_555
Li3 O10 1.990250 1_565
Li3 O2 2.090629 1_556
Li3 O5 2.299991 1_565
Li3 O15 2.405760 1_556
Li3 O8 2.433344 1_566
Li4 O0 2.104699 1_555
Li4 O6 2.104699 1_555
Li4 O14 2.141436 1_555
Li4 O9 2.144449 1_555
Li4 O11 2.160239 1_655
Li4 O10 2.160239 1_565
Li5 O11 1.990484 1_655
Li5 O10 1.990484 1_565
Li5 O2 2.090387 1_556
Li5 O5 2.363555 1_665
Li5 O15 2.414506 1_656
Li5 O13 2.414506 1_566
Li6 O7 1.953689 1_545
Li6 O1 1.987467 1_555
Li6 O12 2.062789 1_555
Li6 O4 2.340250 1_655
Li6 O9 2.378639 1_545
Li6 O0 2.482658 1_555
Li7 O7 2.120199 1_545
Li7 O3 2.120199 1_455
Li7 O8 2.124273 1_555
Li7 O15 2.146080 1_555
Li7 O13 2.146080 1_555
Li7 O1 2.157206 1_555
Li8 O3 1.954655 1_455
Li8 O7 1.954655 1_545
Li8 O12 2.080764 1_555
Li8 O4 2.328624 1_555
Li8 O0 2.415824 1_455
Li8 O6 2.415824 1_545
Li9 O3 1.953689 1_455
Li9 O1 1.987467 1_555
Li9 O12 2.062789 1_555
Li9 O4 2.340250 1_565
Li9 O9 2.378639 1_455
Li9 O6 2.482658 1_555
Cr0 O3 2.035343 1_555
Cr0 O4 2.036667 1_655
Cr0 O1 2.044498 1_555
Cr0 O8 2.046387 1_655
Cr0 O2 2.061587 1_555
Cr0 O13 2.062987 1_555
Cr1 O7 2.035343 1_555
Cr1 O4 2.036667 1_565
Cr1 O1 2.044498 1_555
Cr1 O8 2.046387 1_565
Cr1 O2 2.061587 1_555
Cr1 O15 2.062987 1_555
Cr2 O10 2.015326 1_555
Cr2 O11 2.015326 1_555
Cr2 O5 2.047568 1_555
Cr2 O12 2.051714 1_555
Cr2 O0 2.073087 1_455
Cr2 O6 2.073087 1_545
Fe0 O7 2.042538 1_555
Fe0 O3 2.042538 1_555
Fe0 O15 2.065565 1_655
Fe0 O13 2.065565 1_565
Fe0 O2 2.071975 1_555
Fe0 O4 2.082112 1_665
Fe1 O14 2.014857 1_555
Fe1 O10 2.038412 1_555
Fe1 O12 2.047860 1_555
Fe1 O0 2.069659 1_555
Fe1 O5 2.103368 1_655
Fe1 O9 2.105145 1_545
Fe2 O14 2.014857 1_555
Fe2 O11 2.038412 1_555
Fe2 O12 2.047860 1_555
Fe2 O6 2.069659 1_555
Fe2 O5 2.103368 1_565
Fe2 O9 2.105145 1_455
Ni0 O3 2.129677 1_555
Ni0 O7 2.129677 1_555
Ni0 O1 2.135485 1_555
Ni0 O6 2.142426 1_555
Ni0 O0 2.142426 1_555
Ni0 O9 2.179167 1_555
Ni1 O11 2.107902 1_555
Ni1 O10 2.107902 1_555
Ni1 O14 2.126293 1_555
Ni1 O15 2.169843 1_556
Ni1 O13 2.169843 1_556
Ni1 O8 2.187005 1_556
