# generated using pymatgen
data_Na4B4Sb2SO16
_symmetry_space_group_name_H-M   'P 1'
_cell_length_a   10.05034743
_cell_length_b   10.01864628
_cell_length_c   9.85391963
_cell_angle_alpha   60.75423193
_cell_angle_beta   60.43307541
_cell_angle_gamma   58.81269266
_symmetry_Int_Tables_number   1
_chemical_formula_structural   Na4B4Sb2SO16
_chemical_formula_sum   'Na8 B8 Sb4 S2 O32'
_cell_volume   701.13318169
_cell_formula_units_Z   2
loop_
 _symmetry_equiv_pos_site_id
 _symmetry_equiv_pos_as_xyz
  1  'x, y, z'
loop_
 _atom_site_type_symbol
 _atom_site_label
 _atom_site_symmetry_multiplicity
 _atom_site_fract_x
 _atom_site_fract_y
 _atom_site_fract_z
 _atom_site_occupancy
  Na  Na0  1  0.54383600  0.95616400  0.54383600  1
  Na  Na1  1  0.95665900  0.54334100  0.54334100  1
  Na  Na2  1  0.70665900  0.29334100  0.29334100  1
  Na  Na3  1  0.29383600  0.70616400  0.29383600  1
  Na  Na4  1  0.95616400  0.54383600  0.95616400  1
  Na  Na5  1  0.54334100  0.95665900  0.95665900  1
  Na  Na6  1  0.29334100  0.70665900  0.70665900  1
  Na  Na7  1  0.70616400  0.29383600  0.70616400  1
  B  B0  1  0.91415300  0.91736800  0.26294300  1
  B  B1  1  0.33263200  0.33584700  0.34446400  1
  B  B2  1  0.26294300  0.90553600  0.91415300  1
  B  B3  1  0.90553600  0.26294300  0.91736800  1
  B  B4  1  0.34446400  0.98705700  0.33263200  1
  B  B5  1  0.98705700  0.34446400  0.33584700  1
  B  B6  1  0.91736800  0.91415300  0.90553600  1
  B  B7  1  0.33584700  0.33263200  0.98705700  1
  Sb  Sb0  1  0.12500000  0.12500000  0.62500000  1
  Sb  Sb1  1  0.12500000  0.12500000  0.12500000  1
  Sb  Sb2  1  0.62500000  0.12500000  0.12500000  1
  Sb  Sb3  1  0.12500000  0.62500000  0.12500000  1
  S  S0  1  0.50000000  0.50000000  0.50000000  1
  S  S1  1  0.75000000  0.75000000  0.75000000  1
  O  O0  1  0.76243600  0.94457400  0.26799700  1
  O  O1  1  0.56747700  0.31605800  0.55793900  1
  O  O2  1  0.94110500  0.04035400  0.26028200  1
  O  O3  1  0.20964600  0.30889500  0.49174100  1
  O  O4  1  0.26028200  0.75825900  0.94110500  1
  O  O5  1  0.48795000  0.21314100  0.31750200  1
  O  O6  1  0.55793900  0.55852500  0.56747700  1
  O  O7  1  0.31605800  0.56747800  0.55852500  1
  O  O8  1  0.98140600  0.31750200  0.21314100  1
  O  O9  1  0.75825900  0.26028200  0.04035400  1
  O  O10  1  0.30542600  0.48756400  0.22500700  1
  O  O11  1  0.55852500  0.55793900  0.31605800  1
  O  O12  1  0.26799700  0.02499300  0.76243600  1
  O  O13  1  0.02499300  0.26799700  0.94457400  1
  O  O14  1  0.03685900  0.76205000  0.26859400  1
  O  O15  1  0.31750200  0.98140600  0.48795000  1
  O  O16  1  0.93249800  0.26859400  0.76205000  1
  O  O17  1  0.21314100  0.48795000  0.98140600  1
  O  O18  1  0.22500700  0.98200300  0.30542600  1
  O  O19  1  0.98200300  0.22500700  0.48756400  1
  O  O20  1  0.69147500  0.69206100  0.93394200  1
  O  O21  1  0.94457400  0.76243600  0.02499300  1
  O  O22  1  0.49174100  0.98971800  0.20964600  1
  O  O23  1  0.26859400  0.93249800  0.03685900  1
  O  O24  1  0.93394200  0.68252300  0.69147500  1
  O  O25  1  0.69206100  0.69147500  0.68252200  1
  O  O26  1  0.76205000  0.03685900  0.93249800  1
  O  O27  1  0.98971800  0.49174100  0.30889500  1
  O  O28  1  0.04035400  0.94110500  0.75825900  1
  O  O29  1  0.30889500  0.20964600  0.98971800  1
  O  O30  1  0.68252200  0.93394200  0.69206100  1
  O  O31  1  0.48756400  0.30542600  0.98200300  1
loop_
_geom_bond_atom_site_label_1
_geom_bond_atom_site_label_2
_geom_bond_distance
_geom_bond_site_symmetry_2
Na0 O30 2.344294 1_555
Na0 O25 2.344294 1_555
Na0 O5 2.458863 1_565
Na0 O15 2.458868 1_555
Na0 O12 2.525712 1_565
Na0 O0 2.525712 1_555
Na1 O25 2.336115 1_555
Na1 O24 2.336123 1_555
Na1 O27 2.438500 1_555
Na1 O3 2.438500 1_655
Na1 O16 2.580639 1_555
Na1 O14 2.580641 1_655
Na2 O1 2.336115 1_555
Na2 O11 2.336115 1_555
Na2 O9 2.438500 1_555
Na2 O2 2.438500 1_555
Na2 O8 2.580636 1_555
Na2 O5 2.580646 1_555
Na3 O7 2.344294 1_555
Na3 O11 2.344294 1_555
Na3 O14 2.458858 1_555
Na3 O23 2.458862 1_555
Na3 O18 2.525712 1_555
Na3 O10 2.525712 1_555
Na4 O24 2.344294 1_555
Na4 O20 2.344294 1_555
Na4 O17 2.458858 1_655
Na4 O8 2.458862 1_556
Na4 O21 2.525712 1_556
Na4 O13 2.525712 1_655
Na5 O20 2.336115 1_555
Na5 O30 2.336115 1_555
Na5 O29 2.438500 1_565
Na5 O22 2.438500 1_556
Na5 O23 2.580636 1_556
Na5 O26 2.580646 1_565
Na6 O7 2.336115 1_555
Na6 O6 2.336118 1_555
Na6 O28 2.438500 1_555
Na6 O4 2.438500 1_555
Na6 O15 2.580639 1_555
Na6 O17 2.580641 1_555
Na7 O6 2.344297 1_555
Na7 O1 2.344303 1_555
Na7 O26 2.458863 1_555
Na7 O16 2.458868 1_555
Na7 O31 2.525712 1_555
Na7 O19 2.525712 1_555
B0 O2 1.378170 1_565
B0 O0 1.381918 1_555
B0 O14 1.393191 1_655
B1 O3 1.378170 1_555
B1 O10 1.381918 1_555
B1 O5 1.393192 1_555
B2 O4 1.378170 1_555
B2 O12 1.381918 1_565
B2 O23 1.393198 1_556
B3 O9 1.378170 1_556
B3 O13 1.381918 1_655
B3 O16 1.393188 1_555
B4 O22 1.378170 1_555
B4 O18 1.381918 1_555
B4 O15 1.393188 1_555
B5 O27 1.378170 1_555
B5 O19 1.381918 1_555
B5 O8 1.393198 1_555
B6 O28 1.378170 1_655
B6 O21 1.381918 1_556
B6 O26 1.393192 1_565
B7 O29 1.378170 1_555
B7 O31 1.381918 1_555
B7 O17 1.393191 1_555
O0 Sb2 2.001760 1_565
O1 S0 1.497220 1_555
O2 Sb1 1.999825 1_655
O3 Sb0 1.999825 1_555
O4 Sb3 1.999825 1_556
O5 Sb2 2.018353 1_555
O6 S0 1.497212 1_555
O7 S0 1.497221 1_555
O8 Sb1 2.018353 1_655
O9 Sb2 1.999825 1_555
O10 Sb3 2.001760 1_555
O11 S0 1.497221 1_555
O12 Sb0 2.001760 1_555
O13 Sb1 2.001760 1_556
O14 Sb3 2.018361 1_555
O15 Sb0 2.018359 1_565
O16 Sb0 2.018359 1_655
O17 Sb3 2.018361 1_556
O18 Sb1 2.001760 1_565
O19 Sb0 2.001760 1_655
O20 S1 1.497221 1_555
O21 Sb3 2.001760 1_655
O22 Sb2 1.999825 1_565
O23 Sb1 2.018353 1_565
O24 S1 1.497221 1_555
O25 S1 1.497221 1_555
O26 Sb2 2.018353 1_556
O27 Sb3 1.999825 1_655
O28 Sb0 1.999825 1_565
O29 Sb1 1.999825 1_556
O30 S1 1.497221 1_555
O31 Sb2 2.001760 1_556
