# generated using pymatgen
data_Li8Co(O2F)2
_symmetry_space_group_name_H-M   'P 1'
_cell_length_a   5.61543372
_cell_length_b   5.61543372
_cell_length_c   10.84689200
_cell_angle_alpha   90.00000000
_cell_angle_beta   90.00000000
_cell_angle_gamma   119.32563974
_symmetry_Int_Tables_number   1
_chemical_formula_structural   Li8Co(O2F)2
_chemical_formula_sum   'Li16 Co2 O8 F4'
_cell_volume   298.20422531
_cell_formula_units_Z   2
loop_
 _symmetry_equiv_pos_site_id
 _symmetry_equiv_pos_as_xyz
  1  'x, y, z'
loop_
 _atom_site_type_symbol
 _atom_site_label
 _atom_site_symmetry_multiplicity
 _atom_site_fract_x
 _atom_site_fract_y
 _atom_site_fract_z
 _atom_site_occupancy
  Li  Li0  1  0.18842400  0.18842400  0.27323900  1
  Li  Li1  1  0.09769100  0.09769100  0.62809300  1
  Li  Li2  1  0.90230900  0.90230900  0.12809300  1
  Li  Li3  1  0.81157600  0.81157600  0.77323900  1
  Li  Li4  1  0.82986600  0.15470500  0.90348300  1
  Li  Li5  1  0.84529500  0.17013400  0.40348300  1
  Li  Li6  1  0.50251400  0.80686100  0.26389300  1
  Li  Li7  1  0.50564000  0.87834700  0.63750600  1
  Li  Li8  1  0.49436000  0.12165300  0.13750600  1
  Li  Li9  1  0.19313900  0.49748600  0.76389300  1
  Li  Li10  1  0.49748600  0.19313900  0.76389300  1
  Li  Li11  1  0.12165300  0.49436000  0.13750600  1
  Li  Li12  1  0.17013400  0.84529500  0.40348300  1
  Li  Li13  1  0.15470500  0.82986600  0.90348300  1
  Li  Li14  1  0.87834700  0.50564000  0.63750600  1
  Li  Li15  1  0.80686100  0.50251400  0.26389300  1
  Co  Co0  1  0.52831700  0.52831700  0.00386300  1
  Co  Co1  1  0.47168300  0.47168300  0.50386300  1
  O  O0  1  0.16283800  0.16283800  0.45148600  1
  O  O1  1  0.83716200  0.83716200  0.95148600  1
  O  O2  1  0.83357200  0.17167100  0.71913000  1
  O  O3  1  0.51360900  0.51360900  0.68127600  1
  O  O4  1  0.48639100  0.48639100  0.18127600  1
  O  O5  1  0.82832900  0.16642800  0.21913000  1
  O  O6  1  0.16642800  0.82832900  0.21913000  1
  O  O7  1  0.17167100  0.83357200  0.71913000  1
  F  F0  1  0.50789400  0.84362600  0.44986700  1
  F  F1  1  0.15637400  0.49210600  0.94986700  1
  F  F2  1  0.49210600  0.15637400  0.94986700  1
  F  F3  1  0.84362600  0.50789400  0.44986700  1
loop_
_geom_bond_atom_site_label_1
_geom_bond_atom_site_label_2
_geom_bond_distance
_geom_bond_site_symmetry_2
Li0 O0 1.938866 1_555
Li0 O4 1.962637 1_555
Li0 O6 2.050346 1_545
Li0 O5 2.050346 1_455
Li1 O0 1.950957 1_555
Li1 O2 1.987694 1_455
Li1 O7 1.987694 1_545
Li1 O3 2.428826 1_555
Li2 O1 1.950957 1_554
Li2 O5 1.987694 1_565
Li2 O6 1.987694 1_655
Li2 O4 2.428826 1_555
Li3 O1 1.938866 1_555
Li3 O3 1.962637 1_555
Li3 O2 2.050346 1_565
Li3 O7 2.050346 1_655
Li4 O1 1.877217 1_545
Li4 O2 2.001548 1_555
Li5 O0 1.877217 1_655
Li5 O5 2.001548 1_555
Li6 O4 1.972345 1_555
Li6 O6 2.008712 1_555
Li6 O5 2.010326 1_565
Li7 O7 1.975414 1_555
Li7 O2 1.979107 1_565
Li7 O3 2.124183 1_555
Li8 O5 1.975414 1_555
Li8 O6 1.979107 1_545
Li8 O4 2.124183 1_555
Li9 O3 1.972345 1_555
Li9 O7 2.008712 1_555
Li9 O2 2.010326 1_455
Li10 O3 1.972345 1_555
Li10 O2 2.008712 1_555
Li10 O7 2.010326 1_545
Li11 O6 1.975414 1_555
Li11 O5 1.979107 1_455
Li11 O4 2.124183 1_555
Li12 O0 1.877217 1_565
Li12 O6 2.001548 1_555
Li13 O1 1.877217 1_455
Li13 O7 2.001548 1_555
Li14 O2 1.975414 1_555
Li14 O7 1.979107 1_655
Li14 O3 2.124183 1_555
Li15 O4 1.972345 1_555
Li15 O5 2.008712 1_555
Li15 O6 2.010326 1_655
Co0 O1 1.841761 1_554
Co0 O4 1.939020 1_555
Co0 F2 2.081034 1_554
Co0 F1 2.081034 1_554
Co1 O0 1.841761 1_555
Co1 O3 1.939020 1_555
Co1 F0 2.081034 1_555
Co1 F3 2.081034 1_555
F0 Li5 1.949807 1_565
F0 Li12 1.966719 1_555
F0 Li6 2.026495 1_555
F0 Li7 2.045248 1_555
F1 Li4 1.949807 1_455
F1 Li13 1.966719 1_555
F1 Li9 2.026495 1_555
F1 Li11 2.045248 1_556
F2 Li13 1.949807 1_545
F2 Li4 1.966719 1_555
F2 Li10 2.026495 1_555
F2 Li8 2.045248 1_556
F3 Li12 1.949807 1_655
F3 Li5 1.966719 1_555
F3 Li15 2.026495 1_555
F3 Li14 2.045248 1_555
