# generated using pymatgen
data_LiVCrP2(HO5)2
_symmetry_space_group_name_H-M   'P 1'
_cell_length_a   5.20819800
_cell_length_b   7.36767179
_cell_length_c   10.47123529
_cell_angle_alpha   104.86732358
_cell_angle_beta   96.63281394
_cell_angle_gamma   109.77003440
_symmetry_Int_Tables_number   1
_chemical_formula_structural   LiVCrP2(HO5)2
_chemical_formula_sum   'Li2 V2 Cr2 P4 H4 O20'
_cell_volume   356.30979947
_cell_formula_units_Z   2
loop_
 _symmetry_equiv_pos_site_id
 _symmetry_equiv_pos_as_xyz
  1  'x, y, z'
loop_
 _atom_site_type_symbol
 _atom_site_label
 _atom_site_symmetry_multiplicity
 _atom_site_fract_x
 _atom_site_fract_y
 _atom_site_fract_z
 _atom_site_occupancy
  Li  Li0  1  0.57561900  0.64765100  0.79240400  1
  Li  Li1  1  0.42438100  0.35234900  0.20759600  1
  V  V0  1  0.00000000  0.50000000  0.00000000  1
  V  V1  1  0.50000000  0.00000000  0.50000000  1
  Cr  Cr0  1  0.00000000  0.00000000  0.00000000  1
  Cr  Cr1  1  0.50000000  0.50000000  0.50000000  1
  P  P0  1  0.49875500  0.04642300  0.82347500  1
  P  P1  1  0.99722100  0.44590200  0.67527700  1
  P  P2  1  0.00277900  0.55409800  0.32472300  1
  P  P3  1  0.50124500  0.95357700  0.17652500  1
  H  H0  1  0.32323200  0.31483500  0.96809100  1
  H  H1  1  0.16432200  0.17557300  0.51322200  1
  H  H2  1  0.83567800  0.82442700  0.48677800  1
  H  H3  1  0.67676800  0.68516500  0.03190900  1
  O  O0  1  0.82287800  0.69639500  0.97835400  1
  O  O1  1  0.63791700  0.28208100  0.90393400  1
  O  O2  1  0.11670700  0.48218900  0.82839500  1
  O  O3  1  0.24708400  0.95054200  0.87878200  1
  O  O4  1  0.71125600  0.94532500  0.83704300  1
  O  O5  1  0.77580200  0.53950900  0.66625000  1
  O  O6  1  0.25671400  0.55519400  0.62635000  1
  O  O7  1  0.39965600  0.02046400  0.67246800  1
  O  O8  1  0.87742500  0.21522500  0.59409200  1
  O  O9  1  0.34418600  0.20354600  0.48469900  1
  O  O10  1  0.65581400  0.79645400  0.51530100  1
  O  O11  1  0.12257500  0.78477500  0.40590800  1
  O  O12  1  0.60034400  0.97953600  0.32753200  1
  O  O13  1  0.74328600  0.44480600  0.37365000  1
  O  O14  1  0.22419800  0.46049100  0.33375000  1
  O  O15  1  0.28874400  0.05467500  0.16295700  1
  O  O16  1  0.75291600  0.04945800  0.12121800  1
  O  O17  1  0.88329300  0.51781100  0.17160500  1
  O  O18  1  0.36208300  0.71791900  0.09606600  1
  O  O19  1  0.17712200  0.30360500  0.02164600  1
loop_
_geom_bond_atom_site_label_1
_geom_bond_atom_site_label_2
_geom_bond_distance
_geom_bond_site_symmetry_2
Li0 O5 1.951112 1_555
Li0 O4 1.969024 1_555
Li0 O6 2.050782 1_555
Li0 O0 2.080308 1_555
Li0 O2 2.411123 1_555
Li1 O14 1.951112 1_555
Li1 O15 1.969024 1_555
Li1 O13 2.050782 1_555
Li1 O19 2.080308 1_555
Li1 O17 2.411123 1_555
Cr0 O16 1.963959 1_455
Cr0 O3 1.963959 1_544
Cr0 O15 1.995024 1_555
Cr0 O4 1.995024 1_444
Cr0 O19 2.049757 1_555
Cr0 O0 2.049757 1_444
Cr1 O6 1.995256 1_555
Cr1 O13 1.995256 1_555
Cr1 O10 2.011506 1_555
Cr1 O9 2.011506 1_555
Cr1 O14 2.014455 1_555
Cr1 O5 2.014455 1_555
H0 O19 0.990052 1_556
H1 O9 0.987334 1_555
H2 O10 0.987334 1_555
H3 O0 0.990052 1_554
O0 V0 2.004764 1_656
O1 P0 1.583248 1_555
O1 V0 1.957210 1_656
O2 P1 1.570480 1_455
O2 V0 1.949580 1_556
O3 P0 1.520331 1_565
O4 P0 1.541280 1_565
O5 P1 1.536466 1_555
O6 P1 1.540407 1_455
O7 P0 1.546852 1_555
O7 V1 1.920659 1_555
O8 P1 1.555361 1_555
O8 V1 1.997852 1_555
O9 V1 1.962077 1_555
O10 V1 1.962077 1_565
O11 P2 1.555361 1_555
O11 V1 1.997852 1_565
O12 P3 1.546852 1_555
O12 V1 1.920659 1_565
O13 P2 1.540407 1_655
O14 P2 1.536466 1_555
O15 P3 1.541280 1_545
O16 P3 1.520331 1_545
O17 P2 1.570480 1_655
O17 V0 1.949580 1_655
O18 P3 1.583248 1_555
O18 V0 1.957210 1_555
O19 V0 2.004764 1_555
