# generated using pymatgen
data_Li3FeF6
_symmetry_space_group_name_H-M   'P 1'
_cell_length_a   5.13397048
_cell_length_b   5.13397048
_cell_length_c   9.52792200
_cell_angle_alpha   90.00000000
_cell_angle_beta   90.00000000
_cell_angle_gamma   120.00000622
_symmetry_Int_Tables_number   1
_chemical_formula_structural   Li3FeF6
_chemical_formula_sum   'Li6 Fe2 F12'
_cell_volume   217.48811664
_cell_formula_units_Z   2
loop_
 _symmetry_equiv_pos_site_id
 _symmetry_equiv_pos_as_xyz
  1  'x, y, z'
loop_
 _atom_site_type_symbol
 _atom_site_label
 _atom_site_symmetry_multiplicity
 _atom_site_fract_x
 _atom_site_fract_y
 _atom_site_fract_z
 _atom_site_occupancy
  Li  Li0  1  0.66666700  0.33333300  0.46283400  1
  Li  Li1  1  0.66666700  0.33333300  0.75000000  1
  Li  Li2  1  0.33333300  0.66666700  0.25000000  1
  Li  Li3  1  0.33333300  0.66666700  0.53716600  1
  Li  Li4  1  0.33333300  0.66666700  0.96283400  1
  Li  Li5  1  0.66666700  0.33333300  0.03716600  1
  Fe  Fe0  1  0.00000000  0.00000000  0.50000000  1
  Fe  Fe1  1  0.00000000  0.00000000  0.00000000  1
  F  F0  1  0.30898500  0.97068100  0.39034600  1
  F  F1  1  0.33830300  0.02931900  0.89034600  1
  F  F2  1  0.33830300  0.30898500  0.60965400  1
  F  F3  1  0.30898500  0.33830300  0.10965400  1
  F  F4  1  0.69101500  0.02931900  0.60965400  1
  F  F5  1  0.66169700  0.97068100  0.10965400  1
  F  F6  1  0.97068100  0.30898500  0.89034600  1
  F  F7  1  0.02931900  0.33830300  0.39034600  1
  F  F8  1  0.69101500  0.66169700  0.89034600  1
  F  F9  1  0.66169700  0.69101500  0.39034600  1
  F  F10  1  0.02931900  0.69101500  0.10965400  1
  F  F11  1  0.97068100  0.66169700  0.60965400  1
loop_
_geom_bond_atom_site_label_1
_geom_bond_atom_site_label_2
_geom_bond_distance
_geom_bond_site_symmetry_2
F0 Fe0 1.967079 1_565
F0 Li0 1.973986 1_565
F0 Li2 2.105930 1_555
F0 Li3 2.145627 1_555
F1 Fe1 1.967075 1_556
F1 Li4 1.973986 1_545
F1 Li1 2.105934 1_555
F1 Li5 2.145631 1_556
F2 Fe0 1.967076 1_555
F2 Li3 1.973986 1_555
F2 Li1 2.105938 1_555
F2 Li0 2.145634 1_555
F3 Fe1 1.967076 1_555
F3 Li5 1.973986 1_555
F3 Li2 2.105938 1_555
F3 Li4 2.145634 1_554
F4 Fe0 1.967079 1_655
F4 Li3 1.973986 1_545
F4 Li1 2.105930 1_555
F4 Li0 2.145627 1_555
F5 Fe1 1.967075 1_665
F5 Li5 1.973986 1_565
F5 Li2 2.105934 1_555
F5 Li4 2.145631 1_554
F6 Fe1 1.967079 1_656
F6 Li4 1.973986 1_655
F6 Li1 2.105930 1_555
F6 Li5 2.145627 1_556
F7 Fe0 1.967075 1_555
F7 Li0 1.973986 1_455
F7 Li2 2.105934 1_555
F7 Li3 2.145631 1_555
F8 Fe1 1.967076 1_666
F8 Li4 1.973986 1_555
F8 Li1 2.105938 1_555
F8 Li5 2.145634 1_556
F9 Fe0 1.967076 1_665
F9 Li0 1.973986 1_555
F9 Li2 2.105938 1_555
F9 Li3 2.145634 1_555
F10 Fe1 1.967079 1_565
F10 Li5 1.973986 1_455
F10 Li2 2.105930 1_555
F10 Li4 2.145627 1_554
F11 Fe0 1.967075 1_665
F11 Li3 1.973986 1_655
F11 Li1 2.105934 1_555
F11 Li0 2.145631 1_555
