# generated using pymatgen
data_Na2Co2(B4O7)3
_symmetry_space_group_name_H-M   'P 1'
_cell_length_a   11.74046481
_cell_length_b   11.74046481
_cell_length_c   17.27614494
_cell_angle_alpha   56.85758051
_cell_angle_beta   56.85758051
_cell_angle_gamma   22.59750361
_symmetry_Int_Tables_number   1
_chemical_formula_structural   Na2Co2(B4O7)3
_chemical_formula_sum   'Na4 Co4 B24 O42'
_cell_volume   759.62292054
_cell_formula_units_Z   2
loop_
 _symmetry_equiv_pos_site_id
 _symmetry_equiv_pos_as_xyz
  1  'x, y, z'
loop_
 _atom_site_type_symbol
 _atom_site_label
 _atom_site_symmetry_multiplicity
 _atom_site_fract_x
 _atom_site_fract_y
 _atom_site_fract_z
 _atom_site_occupancy
  Na  Na0  1  0.69535000  0.59111400  0.50924100  1
  Na  Na1  1  0.40888600  0.30465000  0.99075900  1
  Na  Na2  1  0.30465000  0.40888600  0.49075900  1
  Na  Na3  1  0.59111400  0.69535000  0.00924100  1
  Co  Co0  1  0.54274200  0.55284100  0.39505800  1
  Co  Co1  1  0.55284100  0.54274200  0.89505800  1
  Co  Co2  1  0.44715900  0.45725800  0.10494200  1
  Co  Co3  1  0.45725800  0.44715900  0.60494200  1
  B  B0  1  0.12974300  0.19274300  0.84450400  1
  B  B1  1  0.19274300  0.12974300  0.34450400  1
  B  B2  1  0.11660000  0.37390800  0.18244600  1
  B  B3  1  0.91440500  0.41546700  0.70636100  1
  B  B4  1  0.73143800  0.44441800  0.20281000  1
  B  B5  1  0.88340000  0.62609200  0.81755400  1
  B  B6  1  0.26856200  0.55558200  0.79719000  1
  B  B7  1  0.03749300  0.93297000  0.82726900  1
  B  B8  1  0.44441800  0.73143800  0.70281000  1
  B  B9  1  0.92715600  0.95927900  0.49244200  1
  B  B10  1  0.08559500  0.58453300  0.29363900  1
  B  B11  1  0.96250700  0.06703000  0.17273100  1
  B  B12  1  0.87025700  0.80725700  0.15549600  1
  B  B13  1  0.06703000  0.96250700  0.67273100  1
  B  B14  1  0.93297000  0.03749300  0.32726900  1
  B  B15  1  0.80725700  0.87025700  0.65549600  1
  B  B16  1  0.04072100  0.07284400  0.00755800  1
  B  B17  1  0.55558200  0.26856200  0.29719000  1
  B  B18  1  0.07284400  0.04072100  0.50755800  1
  B  B19  1  0.37390800  0.11660000  0.68244600  1
  B  B20  1  0.95927900  0.92715600  0.99244200  1
  B  B21  1  0.62609200  0.88340000  0.31755400  1
  B  B22  1  0.58453300  0.08559500  0.79363900  1
  B  B23  1  0.41546700  0.91440500  0.20636100  1
  O  O0  1  0.96962400  0.23983300  0.42561500  1
  O  O1  1  0.58645600  0.02309700  0.62116300  1
  O  O2  1  0.68026400  0.16565200  0.36109100  1
  O  O3  1  0.09881100  0.84471200  0.40684700  1
  O  O4  1  0.74513400  0.33549100  0.00392900  1
  O  O5  1  0.96952600  0.61399900  0.72395700  1
  O  O6  1  0.03037600  0.76016700  0.57438500  1
  O  O7  1  0.29127100  0.14996300  0.14515400  1
  O  O8  1  0.84471200  0.09881100  0.90684700  1
  O  O9  1  0.30216800  0.41146000  0.33287500  1
  O  O10  1  0.41354400  0.97690300  0.37883700  1
  O  O11  1  0.58854000  0.69783200  0.16712500  1
  O  O12  1  0.78050900  0.31632300  0.29500900  1
  O  O13  1  0.31973600  0.83434800  0.63890900  1
  O  O14  1  0.12101500  0.87898500  0.25000000  1
  O  O15  1  0.16565200  0.68026400  0.86109100  1
  O  O16  1  0.33549100  0.74513400  0.50392900  1
  O  O17  1  0.15528800  0.90118900  0.09315300  1
  O  O18  1  0.02309700  0.58645600  0.12116300  1
  O  O19  1  0.38600100  0.03047400  0.77604300  1
  O  O20  1  0.21949100  0.68367700  0.70499100  1
  O  O21  1  0.23983300  0.96962400  0.92561500  1
  O  O22  1  0.63616900  0.09818200  0.69826200  1
  O  O23  1  0.36383100  0.90181800  0.30173800  1
  O  O24  1  0.14996300  0.29127100  0.64515400  1
  O  O25  1  0.76016700  0.03037600  0.07438500  1
  O  O26  1  0.90181800  0.36383100  0.80173800  1
  O  O27  1  0.41146000  0.30216800  0.83287500  1
  O  O28  1  0.61399900  0.96952600  0.22395700  1
  O  O29  1  0.90118900  0.15528800  0.59315300  1
  O  O30  1  0.97690300  0.41354400  0.87883700  1
  O  O31  1  0.66450900  0.25486600  0.49607100  1
  O  O32  1  0.69783200  0.58854000  0.66712500  1
  O  O33  1  0.03047400  0.38600100  0.27604300  1
  O  O34  1  0.31632300  0.78050900  0.79500900  1
  O  O35  1  0.68367700  0.21949100  0.20499100  1
  O  O36  1  0.70872900  0.85003700  0.85484600  1
  O  O37  1  0.85003700  0.70872900  0.35484600  1
  O  O38  1  0.83434800  0.31973600  0.13890900  1
  O  O39  1  0.87898500  0.12101500  0.75000000  1
  O  O40  1  0.09818200  0.63616900  0.19826200  1
  O  O41  1  0.25486600  0.66450900  0.99607100  1
loop_
_geom_bond_atom_site_label_1
_geom_bond_atom_site_label_2
_geom_bond_distance
_geom_bond_site_symmetry_2
Na0 O13 2.358073 1_555
Na0 O10 2.420632 1_555
Na0 O0 2.524289 1_555
Na0 O29 2.647819 1_555
Na0 O16 2.695210 1_555
Na0 O32 2.727061 1_555
Na0 O37 2.761517 1_555
Na1 O15 2.358073 1_555
Na1 O18 2.420632 1_556
Na1 O25 2.524289 1_556
Na1 O8 2.647819 1_555
Na1 O41 2.695210 1_555
Na1 O27 2.727061 1_555
Na1 O7 2.761517 1_556
Na2 O2 2.358073 1_555
Na2 O1 2.420632 1_555
Na2 O6 2.524289 1_555
Na2 O3 2.647819 1_555
Na2 O31 2.695210 1_555
Na2 O9 2.727061 1_555
Na2 O24 2.761517 1_555
Na3 O38 2.358073 1_555
Na3 O30 2.420632 1_554
Na3 O21 2.524289 1_554
Na3 O17 2.647819 1_555
Na3 O4 2.695210 1_555
Na3 O11 2.727061 1_555
Na3 O36 2.761517 1_554
Co0 O16 2.012663 1_555
Co0 O31 2.036062 1_555
Co0 O12 2.037227 1_555
Co0 O23 2.094624 1_555
Co0 O3 2.360793 1_555
Co0 O0 2.380286 1_555
Co1 O4 2.012663 1_556
Co1 O41 2.036062 1_555
Co1 O34 2.037227 1_555
Co1 O26 2.094624 1_555
Co1 O8 2.360793 1_555
Co1 O21 2.380286 1_555
Co2 O41 2.012663 1_554
Co2 O4 2.036062 1_555
Co2 O35 2.037227 1_555
Co2 O40 2.094624 1_555
Co2 O17 2.360793 1_555
Co2 O25 2.380286 1_555
Co3 O31 2.012663 1_555
Co3 O16 2.036062 1_555
Co3 O20 2.037227 1_555
Co3 O22 2.094624 1_555
Co3 O29 2.360793 1_555
Co3 O6 2.380286 1_555
B0 O19 1.438587 1_555
B0 O21 1.486993 1_545
B0 O30 1.490028 1_455
B0 O26 1.534782 1_455
B1 O33 1.438587 1_555
B1 O0 1.486993 1_455
B1 O10 1.490028 1_545
B1 O23 1.534782 1_545
B2 O33 1.362130 1_555
B2 O18 1.370015 1_555
B2 O7 1.408956 1_555
B3 O32 1.375552 1_555
B3 O26 1.382509 1_555
B3 O24 1.391048 1_655
B4 O38 1.365354 1_555
B4 O12 1.383857 1_555
B4 O11 1.398342 1_555
B5 O5 1.362130 1_555
B5 O30 1.370015 1_555
B5 O36 1.408956 1_555
B6 O15 1.365354 1_555
B6 O20 1.383857 1_555
B6 O27 1.398342 1_555
B7 O39 1.423696 1_465
B7 O8 1.480305 1_465
B7 O15 1.493576 1_555
B7 O34 1.583465 1_555
B8 O13 1.365354 1_555
B8 O34 1.383857 1_555
B8 O32 1.398342 1_555
B9 O31 1.350228 1_565
B9 O6 1.401369 1_655
B9 O3 1.403003 1_655
B10 O9 1.375552 1_555
B10 O40 1.382509 1_555
B10 O37 1.391048 1_455
B11 O14 1.423696 1_645
B11 O17 1.480305 1_645
B11 O38 1.493576 1_555
B11 O35 1.583465 1_555
B12 O28 1.438587 1_555
B12 O25 1.486993 1_565
B12 O18 1.490028 1_655
B12 O40 1.534782 1_655
B13 O39 1.423696 1_465
B13 O29 1.480305 1_465
B13 O13 1.493576 1_555
B13 O20 1.583465 1_555
B14 O14 1.423696 1_645
B14 O3 1.480305 1_645
B14 O2 1.493576 1_555
B14 O12 1.583465 1_555
B15 O5 1.438587 1_555
B15 O6 1.486993 1_655
B15 O1 1.490028 1_565
B15 O22 1.534782 1_565
B16 O4 1.350228 1_455
B16 O21 1.401369 1_544
B16 O17 1.403003 1_545
B17 O2 1.365354 1_555
B17 O35 1.383857 1_555
B17 O9 1.398342 1_555
B18 O16 1.350228 1_545
B18 O0 1.401369 1_455
B18 O29 1.403003 1_455
B19 O19 1.362130 1_555
B19 O1 1.370015 1_555
B19 O24 1.408956 1_555
B20 O41 1.350228 1_655
B20 O25 1.401369 1_566
B20 O8 1.403003 1_565
B21 O28 1.362130 1_555
B21 O10 1.370015 1_555
B21 O37 1.408956 1_555
B22 O27 1.375552 1_555
B22 O22 1.382509 1_555
B22 O36 1.391048 1_545
B23 O11 1.375552 1_555
B23 O23 1.382509 1_555
B23 O7 1.391048 1_565
