# generated using pymatgen
data_Li2Cr3CuO8
_symmetry_space_group_name_H-M   'P 1'
_cell_length_a   5.91756034
_cell_length_b   5.91756034
_cell_length_c   5.91755988
_cell_angle_alpha   59.85601799
_cell_angle_beta   59.85601799
_cell_angle_gamma   59.85602514
_symmetry_Int_Tables_number   1
_chemical_formula_structural   Li2Cr3CuO8
_chemical_formula_sum   'Li2 Cr3 Cu1 O8'
_cell_volume   146.04670060
_cell_formula_units_Z   1
loop_
 _symmetry_equiv_pos_site_id
 _symmetry_equiv_pos_as_xyz
  1  'x, y, z'
loop_
 _atom_site_type_symbol
 _atom_site_label
 _atom_site_symmetry_multiplicity
 _atom_site_fract_x
 _atom_site_fract_y
 _atom_site_fract_z
 _atom_site_occupancy
  Li  Li0  1  0.12681500  0.12681500  0.12681500  1
  Li  Li1  1  0.87318500  0.87318500  0.87318500  1
  Cr  Cr0  1  0.00000000  0.50000000  0.50000000  1
  Cr  Cr1  1  0.50000000  0.50000000  0.00000000  1
  Cr  Cr2  1  0.50000000  0.00000000  0.50000000  1
  Cu  Cu0  1  0.50000000  0.50000000  0.50000000  1
  O  O0  1  0.26086300  0.26086300  0.26086300  1
  O  O1  1  0.25556300  0.70742800  0.25556300  1
  O  O2  1  0.25556300  0.25556300  0.70742800  1
  O  O3  1  0.70742800  0.25556300  0.25556300  1
  O  O4  1  0.29257200  0.74443700  0.74443700  1
  O  O5  1  0.74443700  0.74443700  0.29257200  1
  O  O6  1  0.74443700  0.29257200  0.74443700  1
  O  O7  1  0.73913700  0.73913700  0.73913700  1
loop_
_geom_bond_atom_site_label_1
_geom_bond_atom_site_label_2
_geom_bond_distance
_geom_bond_site_symmetry_2
Li0 O0 1.945138 1_555
Li0 O2 2.026067 1_554
Li0 O3 2.026067 1_455
Li0 O1 2.026067 1_545
Li1 O7 1.945138 1_555
Li1 O5 2.026067 1_556
Li1 O6 2.026067 1_565
Li1 O4 2.026067 1_655
Cr0 O1 1.941694 1_555
Cr0 O6 1.941694 1_455
Cr0 O2 1.941694 1_555
Cr0 O5 1.941694 1_455
Cr0 O0 2.002822 1_555
Cr0 O7 2.002822 1_455
Cr1 O1 1.941694 1_555
Cr1 O3 1.941694 1_555
Cr1 O4 1.941694 1_554
Cr1 O6 1.941694 1_554
Cr1 O7 2.002822 1_554
Cr1 O0 2.002822 1_555
Cr2 O3 1.941694 1_555
Cr2 O4 1.941694 1_545
Cr2 O2 1.941694 1_555
Cr2 O5 1.941694 1_545
Cr2 O0 2.002822 1_555
Cr2 O7 2.002822 1_545
Cu0 O5 2.055766 1_555
Cu0 O2 2.055766 1_555
Cu0 O4 2.055766 1_555
Cu0 O6 2.055766 1_555
Cu0 O3 2.055766 1_555
Cu0 O1 2.055766 1_555
