# generated using pymatgen
data_Li4Cr3GaO8
_symmetry_space_group_name_H-M   'P 1'
_cell_length_a   5.13889000
_cell_length_b   7.84203606
_cell_length_c   7.84337966
_cell_angle_alpha   81.78007113
_cell_angle_beta   83.75558666
_cell_angle_gamma   70.94471955
_symmetry_Int_Tables_number   1
_chemical_formula_structural   Li4Cr3GaO8
_chemical_formula_sum   'Li8 Cr6 Ga2 O16'
_cell_volume   295.04172267
_cell_formula_units_Z   2
loop_
 _symmetry_equiv_pos_site_id
 _symmetry_equiv_pos_as_xyz
  1  'x, y, z'
loop_
 _atom_site_type_symbol
 _atom_site_label
 _atom_site_symmetry_multiplicity
 _atom_site_fract_x
 _atom_site_fract_y
 _atom_site_fract_z
 _atom_site_occupancy
  Li  Li0  1  0.00034700  0.56235300  0.81260800  1
  Li  Li1  1  0.00001100  0.31236700  0.56248300  1
  Li  Li2  1  0.99965300  0.43764700  0.18739200  1
  Li  Li3  1  0.00008200  0.93751100  0.68734400  1
  Li  Li4  1  0.99991800  0.06248900  0.31265600  1
  Li  Li5  1  0.99969000  0.18777200  0.93733100  1
  Li  Li6  1  0.99998900  0.68763300  0.43751700  1
  Li  Li7  1  0.00031000  0.81222800  0.06266900  1
  Cr  Cr0  1  0.49979800  0.24974900  0.75026000  1
  Cr  Cr1  1  0.50000500  0.37481600  0.37483900  1
  Cr  Cr2  1  0.50000000  0.50000000  0.00000000  1
  Cr  Cr3  1  0.50000000  0.00000000  0.50000000  1
  Cr  Cr4  1  0.49999500  0.62518400  0.62516100  1
  Cr  Cr5  1  0.50020200  0.75025100  0.24974000  1
  Ga  Ga0  1  0.50003100  0.12487600  0.12486600  1
  Ga  Ga1  1  0.49996900  0.87512400  0.87513400  1
  O  O0  1  0.72427500  0.41157200  0.78235200  1
  O  O1  1  0.27578500  0.46327000  0.59259500  1
  O  O2  1  0.72421500  0.53673000  0.40740500  1
  O  O3  1  0.27418100  0.08848700  0.71771000  1
  O  O4  1  0.72428400  0.16160200  0.53248400  1
  O  O5  1  0.72556900  0.28614200  0.15716300  1
  O  O6  1  0.27415100  0.21347200  0.34244900  1
  O  O7  1  0.72584900  0.78652800  0.65755100  1
  O  O8  1  0.72581900  0.91151300  0.28229000  1
  O  O9  1  0.27425300  0.33852000  0.96782100  1
  O  O10  1  0.27571600  0.83839800  0.46751600  1
  O  O11  1  0.72644200  0.03573200  0.90771200  1
  O  O12  1  0.27355800  0.96426800  0.09228800  1
  O  O13  1  0.72574700  0.66148000  0.03217900  1
  O  O14  1  0.27572500  0.58842800  0.21764800  1
  O  O15  1  0.27443100  0.71385800  0.84283700  1
loop_
_geom_bond_atom_site_label_1
_geom_bond_atom_site_label_2
_geom_bond_distance
_geom_bond_site_symmetry_2
Li0 O9 2.166301 1_555
Li0 O15 2.167380 1_555
Li0 O13 2.167802 1_456
Li0 O7 2.168417 1_455
Li0 O0 2.171637 1_455
Li0 O1 2.172327 1_555
Li1 O3 2.167154 1_555
Li1 O6 2.169090 1_555
Li1 O4 2.169526 1_455
Li1 O1 2.170795 1_555
Li1 O2 2.172252 1_455
Li1 O0 2.172387 1_455
Li2 O13 2.166301 1_555
Li2 O5 2.167380 1_555
Li2 O9 2.167802 1_654
Li2 O6 2.168417 1_655
Li2 O14 2.171637 1_655
Li2 O2 2.172327 1_555
Li3 O7 2.163968 1_455
Li3 O3 2.164506 1_565
Li3 O15 2.167724 1_555
Li3 O11 2.168613 1_465
Li3 O4 2.170274 1_465
Li3 O10 2.171716 1_555
Li4 O6 2.163968 1_655
Li4 O8 2.164506 1_545
Li4 O5 2.167724 1_555
Li4 O12 2.168613 1_645
Li4 O10 2.170274 1_645
Li4 O4 2.171716 1_555
Li5 O12 2.163841 1_646
Li5 O9 2.165379 1_655
Li5 O11 2.165797 1_555
Li5 O5 2.166753 1_556
Li5 O3 2.168177 1_655
Li5 O0 2.168692 1_555
Li6 O8 2.167154 1_555
Li6 O7 2.169090 1_555
Li6 O10 2.169526 1_655
Li6 O2 2.170795 1_555
Li6 O1 2.172252 1_655
Li6 O14 2.172387 1_655
Li7 O11 2.163841 1_464
Li7 O13 2.165379 1_455
Li7 O12 2.165797 1_555
Li7 O15 2.166753 1_554
Li7 O8 2.168177 1_455
Li7 O14 2.168692 1_555
Cr0 O4 2.028428 1_555
Cr0 O0 2.028510 1_555
Cr0 O1 2.029078 1_555
Cr0 O9 2.030378 1_555
Cr0 O3 2.030470 1_555
Cr0 O11 2.035260 1_555
Cr1 O14 2.027920 1_555
Cr1 O4 2.028161 1_555
Cr1 O1 2.028464 1_555
Cr1 O2 2.029050 1_555
Cr1 O5 2.030950 1_555
Cr1 O6 2.031615 1_555
Cr2 O0 2.027808 1_554
Cr2 O14 2.027808 1_555
Cr2 O5 2.031289 1_555
Cr2 O15 2.031289 1_554
Cr2 O13 2.031607 1_555
Cr2 O9 2.031607 1_554
Cr3 O10 2.027142 1_545
Cr3 O4 2.027142 1_555
Cr3 O3 2.031249 1_555
Cr3 O8 2.031249 1_545
Cr3 O7 2.031828 1_545
Cr3 O6 2.031828 1_555
Cr4 O0 2.027920 1_555
Cr4 O10 2.028161 1_555
Cr4 O2 2.028464 1_555
Cr4 O1 2.029050 1_555
Cr4 O15 2.030950 1_555
Cr4 O7 2.031615 1_555
Cr5 O10 2.028428 1_555
Cr5 O14 2.028510 1_555
Cr5 O2 2.029078 1_555
Cr5 O13 2.030378 1_555
Cr5 O8 2.030470 1_555
Cr5 O12 2.035260 1_555
Ga0 O5 2.029628 1_555
Ga0 O12 2.029762 1_545
Ga0 O11 2.030189 1_554
Ga0 O9 2.030248 1_554
Ga0 O8 2.030692 1_545
Ga0 O6 2.030776 1_555
Ga1 O15 2.029628 1_555
Ga1 O11 2.029762 1_565
Ga1 O12 2.030189 1_556
Ga1 O13 2.030248 1_556
Ga1 O3 2.030692 1_565
Ga1 O7 2.030776 1_555
