# generated using pymatgen
data_Li4Ti3V4Cr2O18
_symmetry_space_group_name_H-M   'P 1'
_cell_length_a   2.95211300
_cell_length_b   9.08065600
_cell_length_c   25.58861800
_cell_angle_alpha   90.00000000
_cell_angle_beta   90.00000000
_cell_angle_gamma   90.00000000
_symmetry_Int_Tables_number   1
_chemical_formula_structural   Li4Ti3V4Cr2O18
_chemical_formula_sum   'Li8 Ti6 V8 Cr4 O36'
_cell_volume   685.95722056
_cell_formula_units_Z   2
loop_
 _symmetry_equiv_pos_site_id
 _symmetry_equiv_pos_as_xyz
  1  'x, y, z'
loop_
 _atom_site_type_symbol
 _atom_site_label
 _atom_site_symmetry_multiplicity
 _atom_site_fract_x
 _atom_site_fract_y
 _atom_site_fract_z
 _atom_site_occupancy
  Li  Li0  1  0.00000000  0.94680800  0.98836400  1
  Li  Li1  1  0.00000000  0.91986500  0.20841800  1
  Li  Li2  1  0.00000000  0.08013500  0.70841800  1
  Li  Li3  1  0.00000000  0.05319200  0.48836400  1
  Li  Li4  1  0.00000000  0.44343800  0.50674100  1
  Li  Li5  1  0.00000000  0.42998600  0.30320000  1
  Li  Li6  1  0.00000000  0.57001400  0.80320000  1
  Li  Li7  1  0.00000000  0.55656200  0.00674100  1
  Ti  Ti0  1  0.00000000  0.74597500  0.10453600  1
  Ti  Ti1  1  0.00000000  0.25402500  0.60453600  1
  Ti  Ti2  1  0.00000000  0.23558700  0.39390800  1
  Ti  Ti3  1  0.50000000  0.40570400  0.69607100  1
  Ti  Ti4  1  0.50000000  0.59429600  0.19607100  1
  Ti  Ti5  1  0.00000000  0.76441300  0.89390800  1
  V  V0  1  0.00000000  0.77278000  0.30822100  1
  V  V1  1  0.50000000  0.89719400  0.58635400  1
  V  V2  1  0.50000000  0.10280600  0.08635400  1
  V  V3  1  0.00000000  0.22722000  0.80822100  1
  V  V4  1  0.00000000  0.25325300  0.19428200  1
  V  V5  1  0.50000000  0.39993900  0.91303600  1
  V  V6  1  0.50000000  0.60006100  0.41303600  1
  V  V7  1  0.00000000  0.74674700  0.69428200  1
  Cr  Cr0  1  0.00000000  0.74943700  0.49973800  1
  Cr  Cr1  1  0.50000000  0.90083200  0.80461100  1
  Cr  Cr2  1  0.50000000  0.09916800  0.30461100  1
  Cr  Cr3  1  0.00000000  0.25056300  0.99973800  1
  O  O0  1  0.00000000  0.73880200  0.42212700  1
  O  O1  1  0.00000000  0.75989200  0.57781900  1
  O  O2  1  0.50000000  0.81213500  0.93884700  1
  O  O3  1  0.50000000  0.79500600  0.15949900  1
  O  O4  1  0.50000000  0.85695400  0.65990200  1
  O  O5  1  0.00000000  0.85364100  0.75578200  1
  O  O6  1  0.50000000  0.90009000  0.50690100  1
  O  O7  1  0.50000000  0.89214800  0.27731600  1
  O  O8  1  0.00000000  0.94474700  0.85511400  1
  O  O9  1  0.00000000  0.95297100  0.08419600  1
  O  O10  1  0.00000000  0.04702900  0.58419600  1
  O  O11  1  0.00000000  0.05525300  0.35511400  1
  O  O12  1  0.50000000  0.10785200  0.77731600  1
  O  O13  1  0.50000000  0.09991000  0.00690100  1
  O  O14  1  0.00000000  0.14635900  0.25578200  1
  O  O15  1  0.50000000  0.14304600  0.15990200  1
  O  O16  1  0.50000000  0.20499400  0.65949900  1
  O  O17  1  0.50000000  0.18786500  0.43884700  1
  O  O18  1  0.00000000  0.24010800  0.07781900  1
  O  O19  1  0.00000000  0.26119800  0.92212700  1
  O  O20  1  0.50000000  0.31007200  0.56127200  1
  O  O21  1  0.50000000  0.29949000  0.34055800  1
  O  O22  1  0.50000000  0.34908000  0.83969900  1
  O  O23  1  0.00000000  0.35594700  0.74408200  1
  O  O24  1  0.50000000  0.40170600  0.99214500  1
  O  O25  1  0.50000000  0.39236000  0.21603100  1
  O  O26  1  0.00000000  0.43945900  0.64656400  1
  O  O27  1  0.00000000  0.45300500  0.41468800  1
  O  O28  1  0.00000000  0.54699500  0.91468800  1
  O  O29  1  0.00000000  0.56054100  0.14656400  1
  O  O30  1  0.50000000  0.60764000  0.71603100  1
  O  O31  1  0.50000000  0.59829400  0.49214500  1
  O  O32  1  0.00000000  0.64405300  0.24408200  1
  O  O33  1  0.50000000  0.65092000  0.33969900  1
  O  O34  1  0.50000000  0.70051000  0.84055800  1
  O  O35  1  0.50000000  0.68992800  0.06127200  1
loop_
_geom_bond_atom_site_label_1
_geom_bond_atom_site_label_2
_geom_bond_distance
_geom_bond_site_symmetry_2
Li0 O13 2.082445 1_466
Li0 O13 2.082445 1_566
Li0 O2 2.297769 1_555
Li0 O2 2.297769 1_455
Li0 O9 2.452847 1_556
Li1 O3 2.243028 1_455
Li1 O3 2.243028 1_555
Li1 O7 2.313066 1_455
Li1 O7 2.313066 1_555
Li1 O14 2.387251 1_565
Li2 O16 2.243028 1_455
Li2 O16 2.243028 1_555
Li2 O12 2.313066 1_455
Li2 O12 2.313066 1_555
Li2 O5 2.387251 1_545
Li3 O6 2.082445 1_545
Li3 O6 2.082445 1_445
Li3 O17 2.297769 1_455
Li3 O17 2.297769 1_555
Li3 O10 2.452847 1_555
Li4 O31 2.072588 1_455
Li4 O31 2.072588 1_555
Li4 O27 2.357111 1_555
Li4 O20 2.364837 1_555
Li4 O20 2.364837 1_455
Li5 O21 2.120557 1_555
Li5 O21 2.120557 1_455
Li5 O32 2.463135 1_555
Li6 O34 2.120557 1_555
Li6 O34 2.120557 1_455
Li6 O23 2.463135 1_555
Li7 O24 2.072588 1_454
Li7 O24 2.072588 1_554
Li7 O28 2.357111 1_554
Li7 O35 2.364837 1_455
Li7 O35 2.364837 1_555
Cr0 O0 1.988305 1_555
Cr0 O1 2.000239 1_555
Cr0 O6 2.020851 1_555
Cr0 O6 2.020851 1_455
Cr0 O31 2.024892 1_455
Cr0 O31 2.024892 1_555
Cr1 O5 1.980794 1_655
Cr1 O5 1.980794 1_555
Cr1 O8 2.001952 1_555
Cr1 O8 2.001952 1_655
Cr1 O12 2.005432 1_565
Cr1 O34 2.038396 1_555
Cr2 O14 1.980794 1_555
Cr2 O14 1.980794 1_655
Cr2 O11 2.001952 1_555
Cr2 O11 2.001952 1_655
Cr2 O7 2.005432 1_545
Cr2 O21 2.038396 1_555
Cr3 O19 1.988305 1_555
Cr3 O18 2.000239 1_556
Cr3 O13 2.020851 1_556
Cr3 O13 2.020851 1_456
Cr3 O24 2.024892 1_455
Cr3 O24 2.024892 1_555
O0 V6 1.954508 1_455
O0 V6 1.954508 1_555
O1 V1 1.944462 1_555
O1 V1 1.944462 1_455
O2 Ti5 1.920642 1_555
O2 Ti5 1.920642 1_655
O3 Ti4 2.048796 1_555
O3 Ti0 2.086867 1_555
O3 Ti0 2.086867 1_655
O4 V1 1.917137 1_555
O4 V7 1.988513 1_555
O4 V7 1.988513 1_655
O5 V7 1.848980 1_555
O6 V1 2.033263 1_555
O7 V0 1.994758 1_655
O7 V0 1.994758 1_555
O8 Ti5 1.914940 1_555
O9 Ti0 1.950387 1_555
O9 V2 2.008239 1_565
O9 V2 2.008239 1_465
O10 Ti1 1.950387 1_555
O10 V1 2.008239 1_445
O10 V1 2.008239 1_545
O11 Ti2 1.914940 1_555
O12 V3 1.994758 1_555
O12 V3 1.994758 1_655
O13 V2 2.033263 1_555
O14 V4 1.848980 1_555
O15 V2 1.917137 1_555
O15 V4 1.988513 1_655
O15 V4 1.988513 1_555
O16 Ti3 2.048796 1_555
O16 Ti1 2.086867 1_655
O16 Ti1 2.086867 1_555
O17 Ti2 1.920642 1_555
O17 Ti2 1.920642 1_655
O18 V2 1.944462 1_555
O18 V2 1.944462 1_455
O19 V5 1.954508 1_555
O19 V5 1.954508 1_455
O20 Ti1 1.913991 1_555
O20 Ti1 1.913991 1_655
O21 Ti2 2.092633 1_655
O21 Ti2 2.092633 1_555
O22 V5 1.932586 1_555
O22 V3 2.012966 1_555
O22 V3 2.012966 1_655
O23 Ti3 1.972863 1_455
O23 Ti3 1.972863 1_555
O23 V3 2.014949 1_555
O24 V5 2.024354 1_555
O25 Ti4 1.903513 1_555
O25 V4 2.020915 1_555
O25 V4 2.020915 1_655
O26 Ti3 1.969141 1_555
O26 Ti3 1.969141 1_455
O26 Ti1 1.997989 1_555
O27 V6 1.990912 1_555
O27 V6 1.990912 1_455
O27 Ti2 2.044649 1_555
O28 V5 1.990912 1_455
O28 V5 1.990912 1_555
O28 Ti5 2.044649 1_555
O29 Ti4 1.969141 1_555
O29 Ti4 1.969141 1_455
O29 Ti0 1.997989 1_555
O30 Ti3 1.903513 1_555
O30 V7 2.020915 1_555
O30 V7 2.020915 1_655
O31 V6 2.024354 1_555
O32 Ti4 1.972863 1_555
O32 Ti4 1.972863 1_455
O32 V0 2.014949 1_555
O33 V6 1.932586 1_555
O33 V0 2.012966 1_555
O33 V0 2.012966 1_655
O34 Ti5 2.092633 1_655
O34 Ti5 2.092633 1_555
O35 Ti0 1.913991 1_555
O35 Ti0 1.913991 1_655
