# generated using pymatgen
data_Hf2N2O
_symmetry_space_group_name_H-M   'P 1'
_cell_length_a   8.66074018
_cell_length_b   8.66428492
_cell_length_c   8.68052157
_cell_angle_alpha   109.46646677
_cell_angle_beta   109.54351248
_cell_angle_gamma   109.30201909
_symmetry_Int_Tables_number   1
_chemical_formula_structural   Hf2N2O
_chemical_formula_sum   'Hf16 N16 O8'
_cell_volume   502.05795849
_cell_formula_units_Z   8
loop_
 _symmetry_equiv_pos_site_id
 _symmetry_equiv_pos_as_xyz
  1  'x, y, z'
loop_
 _atom_site_type_symbol
 _atom_site_label
 _atom_site_symmetry_multiplicity
 _atom_site_fract_x
 _atom_site_fract_y
 _atom_site_fract_z
 _atom_site_occupancy
  Hf  Hf0  1  0.00394186  0.00804743  0.51201346  1
  Hf  Hf1  1  0.78115031  0.03102074  0.74085947  1
  Hf  Hf2  1  0.24643267  0.27828527  0.02756471  1
  Hf  Hf3  1  0.75552471  0.21789459  0.46040717  1
  Hf  Hf4  1  0.96901177  0.74702348  0.71877886  1
  Hf  Hf5  1  0.46083741  0.74723021  0.21629412  1
  Hf  Hf6  1  0.71459606  0.45601812  0.24657225  1
  Hf  Hf7  1  0.01130980  0.51538096  0.00871917  1
  Hf  Hf8  1  0.49748294  0.00338295  0.98900400  1
  Hf  Hf9  1  0.28025170  0.53148589  0.74558300  1
  Hf  Hf10  1  0.49203981  0.48850082  0.49870655  1
  Hf  Hf11  1  0.53209392  0.25092075  0.78706438  1
  Hf  Hf12  1  0.03999113  0.25855205  0.29199492  1
  Hf  Hf13  1  0.74920589  0.70493118  0.96501197  1
  Hf  Hf14  1  0.25632277  0.78931410  0.53876051  1
  Hf  Hf15  1  0.21376907  0.96750721  0.25305081  1
  N  N0  1  0.72347247  0.95247873  0.46447546  1
  N  N1  1  0.73968568  0.46673444  0.51363921  1
  N  N2  1  0.77089823  0.23401040  0.22403654  1
  N  N3  1  0.23014664  0.48770900  0.95648089  1
  N  N4  1  0.53767497  0.98937117  0.76284705  1
  N  N5  1  0.77741094  0.51412089  0.05046719  1
  N  N6  1  0.27192766  0.22534183  0.25859580  1
  N  N7  1  0.03383598  0.27072754  0.54325997  1
  N  N8  1  0.22776888  0.76206440  0.77334630  1
  N  N9  1  0.00626661  0.73970876  0.96635720  1
  N  N10  1  0.45523827  0.22943289  0.99097266  1
  N  N11  1  0.25954486  0.53307466  0.48234686  1
  N  N12  1  0.24223462  0.72919444  0.27249584  1
  N  N13  1  0.04179113  0.03079866  0.77246330  1
  N  N14  1  0.49329008  0.46113422  0.73015425  1
  N  N15  1  0.26945788  0.04707297  0.53317432  1
  O  O0  1  0.51455821  0.54913211  0.27619248  1
  O  O1  1  0.94992204  0.96241177  0.22619895  1
  O  O2  1  0.76512245  0.27247994  0.72950385  1
  O  O3  1  0.55211761  0.77921557  0.01861514  1
  O  O4  1  0.98296685  0.25994063  0.03051196  1
  O  O5  1  0.72375601  0.77420824  0.73722290  1
  O  O6  1  0.96382068  0.72747863  0.45206544  1
  O  O7  1  0.46313145  0.00666638  0.23419209  1
loop_
_geom_bond_atom_site_label_1
_geom_bond_atom_site_label_2
_geom_bond_distance
_geom_bond_site_symmetry_2
Hf0 N13 2.102883 1_555
Hf0 N7 2.114829 1_555
Hf0 N15 2.144303 1_555
Hf0 N0 2.174000 1_445
Hf0 O6 2.185957 1_445
Hf0 O1 2.231132 1_445
Hf1 N0 2.086588 1_545
Hf1 O5 2.100148 1_545
Hf1 N4 2.103637 1_545
Hf1 O2 2.173943 1_555
Hf1 O4 2.180571 1_556
Hf1 N13 2.181688 1_655
Hf2 N13 2.083208 1_554
Hf2 N10 2.085939 1_554
Hf2 N3 2.133140 1_554
Hf2 N6 2.159846 1_555
Hf2 O4 2.243785 1_455
Hf2 O0 2.286047 1_555
Hf3 N7 2.104292 1_655
Hf3 N1 2.110610 1_555
Hf3 N2 2.146773 1_555
Hf3 O2 2.189701 1_555
Hf3 O7 2.198191 1_555
Hf3 N0 2.237255 1_545
Hf4 N8 2.078254 1_655
Hf4 N9 2.089776 1_655
Hf4 N1 2.139178 1_555
Hf4 N13 2.162168 1_665
Hf4 O6 2.248314 1_555
Hf4 O5 2.264075 1_555
Hf5 N12 2.078474 1_555
Hf5 O0 2.096106 1_555
Hf5 N0 2.114562 1_555
Hf5 O3 2.173936 1_555
Hf5 N3 2.183934 1_554
Hf5 O7 2.193835 1_565
Hf6 N2 2.099794 1_555
Hf6 N5 2.111141 1_555
Hf6 O6 2.155065 1_555
Hf6 N10 2.160929 1_554
Hf6 O0 2.191401 1_555
Hf6 N1 2.221807 1_555
Hf7 N12 2.081882 1_555
Hf7 N9 2.106327 1_554
Hf7 N3 2.158279 1_554
Hf7 N5 2.171229 1_455
Hf7 O4 2.223802 1_455
Hf7 O2 2.241872 1_454
Hf8 N4 2.077545 1_545
Hf8 N10 2.103739 1_555
Hf8 N8 2.137606 1_545
Hf8 N2 2.164493 1_556
Hf8 O3 2.218387 1_546
Hf8 O7 2.237884 1_556
Hf9 N7 2.098459 1_555
Hf9 N3 2.137559 1_555
Hf9 N8 2.146764 1_555
Hf9 N14 2.155966 1_555
Hf9 N11 2.236544 1_555
Hf9 O3 2.302811 1_556
Hf10 N14 2.097003 1_555
Hf10 N6 2.116079 1_555
Hf10 N11 2.140830 1_555
Hf10 N1 2.179498 1_555
Hf10 O0 2.214823 1_555
Hf10 O5 2.227514 1_555
Hf11 N10 2.129953 1_555
Hf11 N15 2.132198 1_555
Hf11 N14 2.137191 1_555
Hf11 O2 2.201210 1_555
Hf11 N4 2.223424 1_545
Hf11 N5 2.239173 1_556
Hf12 N11 2.071669 1_555
Hf12 N2 2.119815 1_455
Hf12 O4 2.160606 1_455
Hf12 N7 2.167803 1_555
Hf12 N6 2.217666 1_555
Hf12 O1 2.218160 1_445
Hf13 N5 2.075150 1_556
Hf13 N14 2.131241 1_555
Hf13 O1 2.137116 1_556
Hf13 N9 2.141091 1_655
Hf13 O3 2.145328 1_556
Hf13 O5 2.214864 1_555
Hf14 N11 2.120151 1_555
Hf14 N4 2.124886 1_555
Hf14 N12 2.143656 1_555
Hf14 O6 2.197595 1_455
Hf14 N8 2.209590 1_555
Hf14 N15 2.216037 1_565
Hf15 N6 2.101141 1_565
Hf15 N15 2.121061 1_565
Hf15 O7 2.143642 1_565
Hf15 N9 2.169700 1_554
Hf15 O1 2.201841 1_455
Hf15 N12 2.212169 1_555
