# generated using pymatgen
data_Sn2Ge2O7
_symmetry_space_group_name_H-M   'P 1'
_cell_length_a   6.90785500
_cell_length_b   6.97796300
_cell_length_c   13.26423998
_cell_angle_alpha   80.91648261
_cell_angle_beta   84.63336139
_cell_angle_gamma   81.53032326
_symmetry_Int_Tables_number   1
_chemical_formula_structural   Sn2Ge2O7
_chemical_formula_sum   'Sn8 Ge8 O28'
_cell_volume   622.85051987
_cell_formula_units_Z   4
loop_
 _symmetry_equiv_pos_site_id
 _symmetry_equiv_pos_as_xyz
  1  'x, y, z'
loop_
 _atom_site_type_symbol
 _atom_site_label
 _atom_site_symmetry_multiplicity
 _atom_site_fract_x
 _atom_site_fract_y
 _atom_site_fract_z
 _atom_site_occupancy
  Sn  Sn0  1  0.41820700  0.22506800  0.13176000  1
  Sn  Sn1  1  0.06276700  0.66910900  0.13719800  1
  Sn  Sn2  1  0.65583500  0.22899700  0.35967700  1
  Sn  Sn3  1  0.13186600  0.89393100  0.34556300  1
  Sn  Sn4  1  0.86813400  0.10606900  0.65443700  1
  Sn  Sn5  1  0.34416500  0.77100300  0.64032300  1
  Sn  Sn6  1  0.93723300  0.33089100  0.86280200  1
  Sn  Sn7  1  0.58179300  0.77493200  0.86824000  1
  Ge  Ge0  1  0.92280600  0.19367000  0.12656100  1
  Ge  Ge1  1  0.54987200  0.68326400  0.19601500  1
  Ge  Ge2  1  0.13918400  0.37670900  0.37077400  1
  Ge  Ge3  1  0.63995900  0.71960200  0.42340500  1
  Ge  Ge4  1  0.36004100  0.28039800  0.57659500  1
  Ge  Ge5  1  0.86081600  0.62329100  0.62922600  1
  Ge  Ge6  1  0.45012800  0.31673600  0.80398500  1
  Ge  Ge7  1  0.07719400  0.80633000  0.87343900  1
  O  O0  1  0.15031200  0.79571000  0.99616600  1
  O  O1  1  0.08749400  0.36162500  0.13753800  1
  O  O2  1  0.76730300  0.69377000  0.11707300  1
  O  O3  1  0.37838300  0.56435000  0.14432700  1
  O  O4  1  0.69987900  0.25675900  0.20224200  1
  O  O5  1  0.03260500  0.95725000  0.18203500  1
  O  O6  1  0.42492900  0.89857000  0.23579300  1
  O  O7  1  0.61446800  0.55571700  0.33030800  1
  O  O8  1  0.36076600  0.24533300  0.31888500  1
  O  O9  1  0.06586300  0.60877700  0.29814200  1
  O  O10  1  0.74535000  0.93028500  0.37102600  1
  O  O11  1  0.95610200  0.22446700  0.37174900  1
  O  O12  1  0.40887400  0.76909000  0.48868300  1
  O  O13  1  0.19073400  0.42541400  0.49271500  1
  O  O14  1  0.80926600  0.57458600  0.50728500  1
  O  O15  1  0.59112600  0.23091000  0.51131700  1
  O  O16  1  0.04389800  0.77553300  0.62825100  1
  O  O17  1  0.25465000  0.06971500  0.62897400  1
  O  O18  1  0.93413700  0.39122300  0.70185800  1
  O  O19  1  0.63923400  0.75466700  0.68111500  1
  O  O20  1  0.38553200  0.44428300  0.66969200  1
  O  O21  1  0.57507100  0.10143000  0.76420700  1
  O  O22  1  0.96739500  0.04275000  0.81796500  1
  O  O23  1  0.30012100  0.74324100  0.79775800  1
  O  O24  1  0.62161700  0.43565000  0.85567300  1
  O  O25  1  0.23269700  0.30623000  0.88292700  1
  O  O26  1  0.91250600  0.63837500  0.86246200  1
  O  O27  1  0.84968800  0.20429000  0.00383400  1
loop_
_geom_bond_atom_site_label_1
_geom_bond_atom_site_label_2
_geom_bond_distance
_geom_bond_site_symmetry_2
Ge0 O27 1.736458 1_555
Ge0 O1 1.779491 1_655
Ge0 O5 1.786293 1_645
Ge0 O4 1.795447 1_555
Ge1 O6 1.750327 1_555
Ge1 O2 1.752644 1_555
Ge1 O3 1.784101 1_555
Ge1 O7 1.922334 1_555
Ge2 O11 1.765384 1_455
Ge2 O9 1.778789 1_555
Ge2 O13 1.781975 1_555
Ge2 O8 1.801622 1_555
Ge3 O10 1.752766 1_555
Ge3 O12 1.758019 1_555
Ge3 O14 1.780169 1_555
Ge3 O7 1.846498 1_555
Ge4 O17 1.752766 1_555
Ge4 O15 1.758019 1_555
Ge4 O13 1.780169 1_555
Ge4 O20 1.846498 1_555
Ge5 O16 1.765384 1_655
Ge5 O18 1.778789 1_555
Ge5 O14 1.781975 1_555
Ge5 O19 1.801622 1_555
Ge6 O21 1.750327 1_555
Ge6 O25 1.752644 1_555
Ge6 O24 1.784101 1_555
Ge6 O20 1.922334 1_555
Ge7 O0 1.736458 1_555
Ge7 O26 1.779491 1_455
Ge7 O22 1.786293 1_465
Ge7 O23 1.795447 1_555
O0 Sn1 2.017313 1_556
O1 Sn1 2.126494 1_555
O1 Sn0 2.341356 1_555
O2 Sn1 2.061697 1_655
O3 Sn1 2.200903 1_555
O3 Sn0 2.373328 1_555
O4 Sn2 2.064386 1_555
O4 Sn0 2.289357 1_555
O5 Sn1 2.161194 1_555
O5 Sn3 2.292733 1_555
O6 Sn3 2.381685 1_555
O6 Sn0 2.466799 1_565
O7 Sn2 2.231496 1_555
O8 Sn2 2.139808 1_555
O8 Sn0 2.499637 1_555
O9 Sn1 2.111203 1_555
O9 Sn3 2.297582 1_555
O10 Sn2 2.070849 1_565
O10 Sn3 2.639348 1_655
O11 Sn2 2.090494 1_555
O11 Sn3 2.502749 1_645
O12 Sn5 2.020944 1_555
O12 Sn3 2.773197 1_555
O15 Sn2 2.020944 1_555
O15 Sn4 2.773197 1_555
O16 Sn5 2.090494 1_555
O16 Sn4 2.502749 1_465
O17 Sn5 2.070849 1_545
O17 Sn4 2.639348 1_455
O18 Sn6 2.111203 1_555
O18 Sn4 2.297582 1_555
O19 Sn5 2.139808 1_555
O19 Sn7 2.499637 1_555
O20 Sn5 2.231496 1_555
O21 Sn4 2.381685 1_555
O21 Sn7 2.466799 1_545
O22 Sn6 2.161194 1_555
O22 Sn4 2.292733 1_555
O23 Sn5 2.064386 1_555
O23 Sn7 2.289357 1_555
O24 Sn6 2.200903 1_555
O24 Sn7 2.373328 1_555
O25 Sn6 2.061697 1_455
O26 Sn6 2.126494 1_555
O26 Sn7 2.341356 1_555
O27 Sn6 2.017313 1_554
