# generated using pymatgen
data_Mn3V2O10
_symmetry_space_group_name_H-M   'P 1'
_cell_length_a   5.01438527
_cell_length_b   5.57451910
_cell_length_c   14.32182080
_cell_angle_alpha   96.05497174
_cell_angle_beta   82.80335351
_cell_angle_gamma   103.15074595
_symmetry_Int_Tables_number   1
_chemical_formula_structural   Mn3V2O10
_chemical_formula_sum   'Mn6 V4 O20'
_cell_volume   385.53506848
_cell_formula_units_Z   2
loop_
 _symmetry_equiv_pos_site_id
 _symmetry_equiv_pos_as_xyz
  1  'x, y, z'
loop_
 _atom_site_type_symbol
 _atom_site_label
 _atom_site_symmetry_multiplicity
 _atom_site_fract_x
 _atom_site_fract_y
 _atom_site_fract_z
 _atom_site_occupancy
  Mn  Mn0  1  0.50013100  0.00026300  0.49997700  1
  Mn  Mn1  1  0.24527500  0.43539100  0.45024400  1
  Mn  Mn2  1  0.75470600  0.56457800  0.54976000  1
  Mn  Mn3  1  0.99999400  0.49999600  0.99999600  1
  Mn  Mn4  1  0.74530700  0.93543200  0.95024700  1
  Mn  Mn5  1  0.25468400  0.06454900  0.04974900  1
  V  V0  1  0.76110200  0.38038100  0.33775100  1
  V  V1  1  0.26112000  0.88031700  0.83777900  1
  V  V2  1  0.73887600  0.11962700  0.16221500  1
  V  V3  1  0.23887400  0.61965100  0.66224000  1
  O  O0  1  0.62820400  0.62845500  0.42752700  1
  O  O1  1  0.12817400  0.12846300  0.92753400  1
  O  O2  1  0.87180600  0.87148400  0.07247000  1
  O  O3  1  0.37180800  0.37149300  0.57248600  1
  O  O4  1  0.86290900  0.27421100  0.47726300  1
  O  O5  1  0.36290700  0.77420000  0.97724100  1
  O  O6  1  0.63708500  0.22578600  0.02275800  1
  O  O7  1  0.13712500  0.72575200  0.52276400  1
  O  O8  1  0.80748800  0.06065500  0.27165500  1
  O  O9  1  0.30749900  0.56064600  0.77168400  1
  O  O10  1  0.69249200  0.43938400  0.22832200  1
  O  O11  1  0.19248400  0.93935900  0.72835200  1
  O  O12  1  0.08907700  0.32056000  0.10816300  1
  O  O13  1  0.58905800  0.82057900  0.60817000  1
  O  O14  1  0.41095300  0.17941900  0.39181700  1
  O  O15  1  0.91088900  0.67940500  0.89183500  1
  O  O16  1  0.11477400  0.50794000  0.34032500  1
  O  O17  1  0.61477000  0.00807900  0.84035300  1
  O  O18  1  0.38522500  0.99191500  0.15964200  1
  O  O19  1  0.88520100  0.49203100  0.65968200  1
loop_
_geom_bond_atom_site_label_1
_geom_bond_atom_site_label_2
_geom_bond_distance
_geom_bond_site_symmetry_2
Mn0 O14 2.073662 1_555
Mn0 O13 2.075320 1_545
Mn0 O4 2.107028 1_555
Mn0 O7 2.109643 1_545
Mn0 O3 2.400021 1_555
Mn0 O0 2.402076 1_545
Mn1 O14 1.881443 1_555
Mn1 O16 1.892842 1_555
Mn1 O4 1.933073 1_455
Mn1 O7 1.973930 1_555
Mn1 O0 1.981954 1_555
Mn1 O3 2.026626 1_555
Mn2 O13 1.881415 1_555
Mn2 O19 1.892861 1_555
Mn2 O7 1.933252 1_655
Mn2 O4 1.973929 1_555
Mn2 O3 1.981879 1_555
Mn2 O0 2.026395 1_555
Mn3 O15 2.074380 1_555
Mn3 O12 2.074497 1_656
Mn3 O5 2.108337 1_655
Mn3 O6 2.108354 1_556
Mn3 O2 2.400852 1_556
Mn3 O1 2.401003 1_655
Mn4 O15 1.881357 1_555
Mn4 O17 1.892818 1_565
Mn4 O5 1.933250 1_555
Mn4 O6 1.973988 1_566
Mn4 O1 1.981630 1_665
Mn4 O2 2.026390 1_556
Mn5 O12 1.881363 1_555
Mn5 O18 1.892788 1_545
Mn5 O6 1.933257 1_555
Mn5 O5 1.973950 1_544
Mn5 O2 1.981751 1_445
Mn5 O1 2.026246 1_554
O0 V0 1.959388 1_555
O1 V1 1.959613 1_545
O2 V2 1.959490 1_565
O3 V3 1.959628 1_555
O4 V0 2.290345 1_555
O5 V1 2.289523 1_555
O6 V2 2.289559 1_555
O7 V3 2.289599 1_555
O8 V2 1.725803 1_555
O8 V0 1.975950 1_555
O9 V3 1.725942 1_555
O9 V1 1.975666 1_555
O10 V0 1.725706 1_555
O10 V2 1.976157 1_555
O11 V1 1.725798 1_555
O11 V3 1.975952 1_555
O12 V2 1.971015 1_455
O13 V3 1.971031 1_555
O14 V0 1.970964 1_555
O15 V1 1.971094 1_655
O16 V0 1.757595 1_455
O17 V1 1.757690 1_545
O18 V2 1.757645 1_565
O19 V3 1.757635 1_655
