# generated using pymatgen
data_Li15Mn2O12
_symmetry_space_group_name_H-M   'P 1'
_cell_length_a   5.46979500
_cell_length_b   5.78851637
_cell_length_c   7.97355927
_cell_angle_alpha   85.95427581
_cell_angle_beta   89.72116415
_cell_angle_gamma   89.97942168
_symmetry_Int_Tables_number   1
_chemical_formula_structural   Li15Mn2O12
_chemical_formula_sum   'Li15 Mn2 O12'
_cell_volume   251.82672374
_cell_formula_units_Z   1
loop_
 _symmetry_equiv_pos_site_id
 _symmetry_equiv_pos_as_xyz
  1  'x, y, z'
loop_
 _atom_site_type_symbol
 _atom_site_label
 _atom_site_symmetry_multiplicity
 _atom_site_fract_x
 _atom_site_fract_y
 _atom_site_fract_z
 _atom_site_occupancy
  Li  Li0  1  0.00824900  0.32340700  0.64598600  1
  Li  Li1  1  0.87660500  0.73834600  0.62897100  1
  Li  Li2  1  0.79043500  0.38020900  0.91122400  1
  Li  Li3  1  0.80421800  0.05492900  0.30418900  1
  Li  Li4  1  0.69601800  0.43699800  0.20431800  1
  Li  Li5  1  0.66020900  0.10748900  0.59567700  1
  Li  Li6  1  0.62585100  0.80483100  0.87589100  1
  Li  Li7  1  0.48998300  0.80591000  0.16138600  1
  Li  Li8  1  0.37092500  0.20457400  0.09912500  1
  Li  Li9  1  0.33894700  0.93087800  0.43260200  1
  Li  Li10  1  0.31475200  0.52346000  0.79303700  1
  Li  Li11  1  0.22222500  0.96469300  0.72129500  1
  Li  Li12  1  0.15097200  0.56624300  0.06787800  1
  Li  Li13  1  0.14318100  0.27799800  0.36184800  1
  Li  Li14  1  0.00751200  0.68452600  0.34561500  1
  Mn  Mn0  1  0.50324800  0.50986700  0.49628900  1
  Mn  Mn1  1  0.99647900  0.99228500  0.00447000  1
  O  O0  1  0.87452200  0.00003400  0.77173900  1
  O  O1  1  0.83101000  0.69598900  0.06910600  1
  O  O2  1  0.80463000  0.34284500  0.42746400  1
  O  O3  1  0.70386500  0.14536900  0.08309800  1
  O  O4  1  0.66357000  0.80534700  0.43141000  1
  O  O5  1  0.64787600  0.51650600  0.71835300  1
  O  O6  1  0.36066000  0.50250700  0.26538400  1
  O  O7  1  0.33548600  0.21179500  0.56061200  1
  O  O8  1  0.29034300  0.82458000  0.93876200  1
  O  O9  1  0.20872000  0.66912100  0.57231400  1
  O  O10  1  0.13412000  0.29716400  0.93365900  1
  O  O11  1  0.14314300  0.99918700  0.23178700  1
loop_
_geom_bond_atom_site_label_1
_geom_bond_atom_site_label_2
_geom_bond_distance
_geom_bond_site_symmetry_2
Li0 O7 2.033220 1_555
Li0 O2 2.068863 1_455
Li0 O0 2.184780 1_455
Li0 O9 2.319823 1_555
Li0 O5 2.355035 1_455
Li0 O10 2.392621 1_555
Li1 O5 1.893541 1_555
Li1 O9 1.918782 1_655
Li1 O0 1.958001 1_565
Li1 O4 1.980160 1_555
Li2 O5 1.853526 1_555
Li2 O3 1.918729 1_556
Li2 O10 1.946161 1_655
Li2 O1 2.302815 1_556
Li3 O4 1.869347 1_545
Li3 O3 1.887355 1_555
Li3 O11 1.972204 1_645
Li3 O2 1.993724 1_555
Li4 O2 1.920674 1_555
Li4 O1 1.928743 1_555
Li4 O6 1.939727 1_555
Li4 O3 2.003878 1_555
Li5 O7 1.891490 1_555
Li5 O0 1.903709 1_555
Li5 O2 2.002910 1_555
Li5 O4 2.257812 1_545
Li6 O8 1.905563 1_555
Li6 O0 1.916823 1_565
Li6 O1 1.977136 1_556
Li6 O5 2.161499 1_555
Li7 O6 2.015468 1_555
Li7 O8 2.084906 1_554
Li7 O1 2.116040 1_555
Li7 O11 2.289689 1_555
Li7 O3 2.332565 1_565
Li7 O4 2.357132 1_555
Li8 O3 1.858414 1_555
Li8 O10 1.903165 1_554
Li8 O11 1.973694 1_545
Li8 O6 2.248686 1_555
Li9 O4 1.918543 1_555
Li9 O11 1.947904 1_555
Li9 O9 1.949117 1_555
Li9 O7 1.979986 1_565
Li10 O5 1.915497 1_555
Li10 O10 1.931887 1_555
Li10 O9 1.986178 1_555
Li10 O8 2.165695 1_555
Li11 O8 1.900252 1_555
Li11 O7 1.950781 1_565
Li11 O0 1.955659 1_465
Li11 O9 2.152109 1_555
Li12 O1 1.904474 1_455
Li12 O8 1.911329 1_554
Li12 O10 1.953490 1_554
Li12 O6 1.966464 1_555
Li13 O6 1.883276 1_555
Li13 O7 1.922314 1_555
Li13 O2 1.965094 1_455
Li13 O11 1.978969 1_545
Li14 O11 2.110181 1_555
Li14 O9 2.117347 1_555
Li14 O4 2.133168 1_455
Li14 O6 2.309166 1_555
Li14 O2 2.319827 1_455
Li14 O1 2.407791 1_455
Mn0 O5 1.945692 1_555
Mn0 O4 1.958026 1_555
Mn0 O9 1.969997 1_555
Mn0 O7 1.988406 1_555
Mn0 O2 2.004580 1_555
Mn0 O6 2.006227 1_555
Mn1 O3 1.951311 1_565
Mn1 O10 1.963753 1_664
Mn1 O8 1.965448 1_654
Mn1 O0 1.972534 1_564
Mn1 O1 1.974399 1_555
Mn1 O11 1.988668 1_655
