# generated using pymatgen
data_RbLi2Cr2(BO3)3
_symmetry_space_group_name_H-M   'P 1'
_cell_length_a   5.29532400
_cell_length_b   5.67268200
_cell_length_c   12.93151334
_cell_angle_alpha   87.62775399
_cell_angle_beta   90.00000000
_cell_angle_gamma   90.00000000
_symmetry_Int_Tables_number   1
_chemical_formula_structural   RbLi2Cr2(BO3)3
_chemical_formula_sum   'Rb2 Li4 Cr4 B6 O18'
_cell_volume   388.11281035
_cell_formula_units_Z   2
loop_
 _symmetry_equiv_pos_site_id
 _symmetry_equiv_pos_as_xyz
  1  'x, y, z'
loop_
 _atom_site_type_symbol
 _atom_site_label
 _atom_site_symmetry_multiplicity
 _atom_site_fract_x
 _atom_site_fract_y
 _atom_site_fract_z
 _atom_site_occupancy
  Rb  Rb0  1  0.75279700  0.00000000  0.75000000  1
  Rb  Rb1  1  0.24720300  0.00000000  0.25000000  1
  Li  Li0  1  0.90057800  0.51175000  0.85416500  1
  Li  Li1  1  0.90057800  0.48825000  0.64583500  1
  Li  Li2  1  0.09942200  0.51175000  0.35416500  1
  Li  Li3  1  0.09942200  0.48825000  0.14583500  1
  Cr  Cr0  1  0.35445400  0.73318200  0.52906600  1
  Cr  Cr1  1  0.64554600  0.73318200  0.02906600  1
  Cr  Cr2  1  0.35445400  0.26681800  0.97093400  1
  Cr  Cr3  1  0.64554600  0.26681800  0.47093400  1
  B  B0  1  0.19653300  0.78443100  0.96019900  1
  B  B1  1  0.80346700  0.78443100  0.46019900  1
  B  B2  1  0.39255300  0.50000000  0.75000000  1
  B  B3  1  0.60744700  0.50000000  0.25000000  1
  B  B4  1  0.19653300  0.21556900  0.53980100  1
  B  B5  1  0.80346700  0.21556900  0.03980100  1
  O  O0  1  0.38695800  0.92921300  0.91965700  1
  O  O1  1  0.61304200  0.92921300  0.41965700  1
  O  O2  1  0.94721100  0.80661700  0.94001400  1
  O  O3  1  0.05278900  0.80661700  0.44001400  1
  O  O4  1  0.70829700  0.60894000  0.53086600  1
  O  O5  1  0.29170300  0.60894000  0.03086600  1
  O  O6  1  0.24557600  0.59235200  0.66595500  1
  O  O7  1  0.75442400  0.59235200  0.16595500  1
  O  O8  1  0.64925400  0.50000000  0.75000000  1
  O  O9  1  0.35074600  0.50000000  0.25000000  1
  O  O10  1  0.24557600  0.40764800  0.83404500  1
  O  O11  1  0.75442400  0.40764800  0.33404500  1
  O  O12  1  0.70829700  0.39106000  0.96913400  1
  O  O13  1  0.29170300  0.39106000  0.46913400  1
  O  O14  1  0.94721100  0.19338300  0.55998600  1
  O  O15  1  0.05278900  0.19338300  0.05998600  1
  O  O16  1  0.38695800  0.07078700  0.58034300  1
  O  O17  1  0.61304200  0.07078700  0.08034300  1
loop_
_geom_bond_atom_site_label_1
_geom_bond_atom_site_label_2
_geom_bond_distance
_geom_bond_site_symmetry_2
Li0 O8 1.896696 1_555
Li0 O12 1.905655 1_555
Li0 O10 1.940780 1_655
Li0 O2 2.060348 1_555
Li1 O8 1.896696 1_555
Li1 O4 1.905655 1_555
Li1 O6 1.940780 1_655
Li1 O14 2.060348 1_555
Li2 O9 1.896696 1_555
Li2 O13 1.905655 1_555
Li2 O11 1.940780 1_455
Li2 O3 2.060348 1_555
Li3 O9 1.896696 1_555
Li3 O5 1.905655 1_555
Li3 O7 1.940780 1_455
Li3 O15 2.060348 1_555
Cr0 O6 1.996771 1_555
Cr0 O4 2.001676 1_555
Cr0 O3 2.002918 1_555
Cr0 O16 2.059647 1_565
Cr0 O13 2.145246 1_555
Cr0 O1 2.232281 1_555
Cr1 O7 1.996771 1_555
Cr1 O5 2.001676 1_555
Cr1 O2 2.002918 1_554
Cr1 O17 2.059647 1_565
Cr1 O12 2.145246 1_554
Cr1 O0 2.232281 1_554
Cr2 O10 1.996771 1_555
Cr2 O12 2.001676 1_555
Cr2 O15 2.002918 1_556
Cr2 O0 2.059647 1_545
Cr2 O5 2.145246 1_556
Cr2 O17 2.232281 1_556
Cr3 O11 1.996771 1_555
Cr3 O13 2.001676 1_555
Cr3 O14 2.002918 1_555
Cr3 O1 2.059647 1_545
Cr3 O4 2.145246 1_555
Cr3 O16 2.232281 1_555
B0 O2 1.350662 1_455
B0 O0 1.389440 1_555
B0 O5 1.415902 1_556
B1 O3 1.350662 1_655
B1 O1 1.389440 1_555
B1 O4 1.415902 1_555
B2 O8 1.359315 1_555
B2 O6 1.419244 1_555
B2 O10 1.419244 1_555
B3 O9 1.359315 1_555
B3 O11 1.419244 1_555
B3 O7 1.419244 1_555
B4 O14 1.350662 1_455
B4 O16 1.389440 1_555
B4 O13 1.415902 1_555
B5 O15 1.350662 1_655
B5 O17 1.389440 1_555
B5 O12 1.415902 1_554
O0 Rb0 2.941852 1_565
O1 Rb1 2.941852 1_565
O2 Rb0 2.842144 1_565
O3 Rb1 2.842144 1_565
O8 Rb0 2.888850 1_555
O8 Rb0 2.888850 1_565
O9 Rb1 2.888850 1_565
O9 Rb1 2.888850 1_555
O14 Rb0 2.842144 1_555
O15 Rb1 2.842144 1_555
O16 Rb0 2.941852 1_555
O17 Rb1 2.941852 1_555
