# generated using pymatgen
data_NaLi2FePCO7
_symmetry_space_group_name_H-M   'P 1'
_cell_length_a   6.59100200
_cell_length_b   8.62895659
_cell_length_c   10.13978393
_cell_angle_alpha   92.42096238
_cell_angle_beta   90.01850569
_cell_angle_gamma   90.70304152
_symmetry_Int_Tables_number   1
_chemical_formula_structural   NaLi2FePCO7
_chemical_formula_sum   'Na4 Li8 Fe4 P4 C4 O28'
_cell_volume   576.12639597
_cell_formula_units_Z   4
loop_
 _symmetry_equiv_pos_site_id
 _symmetry_equiv_pos_as_xyz
  1  'x, y, z'
loop_
 _atom_site_type_symbol
 _atom_site_label
 _atom_site_symmetry_multiplicity
 _atom_site_fract_x
 _atom_site_fract_y
 _atom_site_fract_z
 _atom_site_occupancy
  Na  Na0  1  0.25608300  0.08361900  0.62095600  1
  Na  Na1  1  0.99972200  0.25576100  0.37318800  1
  Na  Na2  1  0.99979300  0.25821300  0.87540100  1
  Na  Na3  1  0.50285000  0.74359900  0.62670400  1
  Li  Li0  1  0.26387600  0.07867900  0.12492900  1
  Li  Li1  1  0.48082900  0.27402800  0.37824900  1
  Li  Li2  1  0.48109600  0.27496100  0.88164600  1
  Li  Li3  1  0.51137600  0.73309300  0.12112100  1
  Li  Li4  1  0.98351900  0.73175800  0.11961200  1
  Li  Li5  1  0.98192100  0.72657800  0.62109000  1
  Li  Li6  1  0.74355600  0.91279900  0.37192300  1
  Li  Li7  1  0.74927600  0.91007700  0.87874800  1
  Fe  Fe0  1  0.74634200  0.34523800  0.10921500  1
  Fe  Fe1  1  0.74344000  0.35104200  0.60733400  1
  Fe  Fe2  1  0.24605000  0.65189700  0.38848800  1
  Fe  Fe3  1  0.25071200  0.65577300  0.89576700  1
  P  P0  1  0.25479800  0.40980300  0.14796400  1
  P  P1  1  0.24664800  0.41737200  0.64748100  1
  P  P2  1  0.74510800  0.59205400  0.34977900  1
  P  P3  1  0.75022300  0.59192800  0.85712700  1
  C  C0  1  0.74703900  0.03875700  0.13725900  1
  C  C1  1  0.75613700  0.04549100  0.63948900  1
  C  C2  1  0.25812500  0.94858200  0.35269000  1
  C  C3  1  0.25837600  0.95560500  0.86779800  1
  O  O0  1  0.27654600  0.09705200  0.33780400  1
  O  O1  1  0.27712400  0.10279500  0.85078600  1
  O  O2  1  0.75274300  0.08609000  0.01678800  1
  O  O3  1  0.75118200  0.08694100  0.51711300  1
  O  O4  1  0.73963800  0.14101200  0.23584100  1
  O  O5  1  0.73277000  0.15076600  0.73468700  1
  O  O6  1  0.05963900  0.31352000  0.11147000  1
  O  O7  1  0.43250800  0.30851400  0.09220600  1
  O  O8  1  0.05611500  0.31395000  0.61319600  1
  O  O9  1  0.43033400  0.32544300  0.58753400  1
  O  O10  1  0.27337900  0.42733700  0.30155000  1
  O  O11  1  0.73168600  0.42922600  0.40808900  1
  O  O12  1  0.27187100  0.43345000  0.80035300  1
  O  O13  1  0.72962600  0.42846200  0.91321200  1
  O  O14  1  0.25467200  0.57416700  0.09190100  1
  O  O15  1  0.75491900  0.57368600  0.19575500  1
  O  O16  1  0.22882900  0.57931000  0.58996300  1
  O  O17  1  0.76831400  0.57436600  0.70363600  1
  O  O18  1  0.56102800  0.69581900  0.38992200  1
  O  O19  1  0.93238400  0.68716900  0.40323000  1
  O  O20  1  0.56638800  0.69797800  0.89501000  1
  O  O21  1  0.93681300  0.68486800  0.91446000  1
  O  O22  1  0.24229900  0.85464800  0.24914600  1
  O  O23  1  0.24407500  0.85794200  0.76589900  1
  O  O24  1  0.25445900  0.89146200  0.46941400  1
  O  O25  1  0.25313900  0.90267100  0.98622400  1
  O  O26  1  0.74794900  0.89218400  0.16165300  1
  O  O27  1  0.78267300  0.90246200  0.66920200  1
loop_
_geom_bond_atom_site_label_1
_geom_bond_atom_site_label_2
_geom_bond_distance
_geom_bond_site_symmetry_2
Na0 O24 2.212445 1_545
Na0 O1 2.333270 1_555
Na0 O8 2.402277 1_555
Na0 O9 2.406102 1_555
Na0 O23 2.489284 1_545
Na1 O0 2.313751 1_655
Na1 O11 2.346748 1_555
Na1 O4 2.387213 1_555
Na1 O10 2.449286 1_655
Na1 O8 2.490867 1_655
Na1 O3 2.656670 1_555
Na1 O6 2.748528 1_655
Na2 O1 2.287834 1_655
Na2 O13 2.343716 1_555
Na2 O5 2.416485 1_555
Na2 O6 2.451806 1_656
Na2 O12 2.472431 1_655
Na2 O2 2.652297 1_556
Na2 O8 2.746288 1_655
Na3 O16 2.302719 1_555
Na3 O27 2.313845 1_555
Na3 O23 2.408277 1_555
Na3 O17 2.441397 1_555
Na3 O18 2.449954 1_555
Na3 O24 2.659573 1_555
Na3 O20 2.797429 1_555
Li0 O25 2.026466 1_544
Li0 O0 2.159145 1_555
Li0 O7 2.297909 1_555
Li0 O22 2.354316 1_545
Li0 O6 2.455055 1_555
Li1 O0 2.051688 1_555
Li1 O10 2.086871 1_555
Li1 O11 2.128340 1_555
Li1 O9 2.176112 1_555
Li1 O4 2.494379 1_555
Li2 O1 2.005931 1_555
Li2 O13 2.109676 1_555
Li2 O12 2.142943 1_555
Li2 O7 2.166851 1_556
Li2 O5 2.455779 1_555
Li3 O26 2.093830 1_555
Li3 O14 2.177036 1_555
Li3 O15 2.276562 1_555
Li3 O20 2.329028 1_554
Li3 O22 2.421305 1_555
Li4 O21 2.123939 1_554
Li4 O26 2.124158 1_555
Li4 O15 2.183123 1_555
Li4 O14 2.269315 1_655
Li4 O22 2.365429 1_655
Li5 O27 2.062226 1_555
Li5 O16 2.092846 1_655
Li5 O17 2.110939 1_555
Li5 O19 2.243993 1_555
Li5 O23 2.497213 1_655
Li6 O3 2.058905 1_565
Li6 O26 2.132235 1_555
Li6 O18 2.227084 1_555
Li6 O19 2.356217 1_555
Li6 O4 2.452207 1_565
Li7 O2 2.021380 1_566
Li7 O27 2.134526 1_555
Li7 O20 2.191189 1_555
Li7 O21 2.356599 1_555
Fe0 O6 2.086571 1_655
Fe0 O7 2.094718 1_555
Fe0 O15 2.123721 1_555
Fe0 O13 2.144786 1_554
Fe0 O4 2.223812 1_555
Fe0 O2 2.388699 1_555
Fe1 O9 2.081510 1_555
Fe1 O8 2.090636 1_655
Fe1 O17 2.127698 1_555
Fe1 O11 2.158494 1_555
Fe1 O5 2.201063 1_555
Fe1 O3 2.420685 1_555
Fe2 O19 2.097811 1_455
Fe2 O10 2.104437 1_555
Fe2 O18 2.105688 1_555
Fe2 O16 2.164532 1_555
Fe2 O24 2.191703 1_555
Fe2 O22 2.295129 1_555
Fe3 O21 2.094832 1_455
Fe3 O20 2.107920 1_555
Fe3 O12 2.117931 1_555
Fe3 O14 2.137855 1_556
Fe3 O23 2.230511 1_555
Fe3 O25 2.283532 1_555
C0 O26 1.299031 1_545
C0 O2 1.304691 1_555
C0 O4 1.306408 1_555
C1 O27 1.296636 1_545
C1 O3 1.306330 1_555
C1 O5 1.307732 1_555
C2 O0 1.300530 1_565
C2 O24 1.301282 1_555
C2 O22 1.302365 1_555
C3 O1 1.293383 1_565
C3 O25 1.302980 1_555
C3 O23 1.308081 1_555
O6 P0 1.558602 1_555
O7 P0 1.561817 1_555
O8 P1 1.562153 1_555
O9 P1 1.564535 1_555
O10 P0 1.562907 1_555
O11 P2 1.548772 1_555
O12 P1 1.559090 1_555
O13 P3 1.547444 1_555
O14 P0 1.550111 1_555
O15 P2 1.564555 1_555
O16 P1 1.542523 1_555
O17 P3 1.562080 1_555
O18 P2 1.560644 1_555
O19 P2 1.558229 1_555
O20 P3 1.565531 1_555
O21 P3 1.558691 1_555
