# generated using pymatgen
data_Li2P8W3O29
_symmetry_space_group_name_H-M   'P 1'
_cell_length_a   9.96731255
_cell_length_b   9.96731255
_cell_length_c   14.53886847
_cell_angle_alpha   89.13581994
_cell_angle_beta   89.13581994
_cell_angle_gamma   60.15738423
_symmetry_Int_Tables_number   1
_chemical_formula_structural   Li2P8W3O29
_chemical_formula_sum   'Li4 P16 W6 O58'
_cell_volume   1252.67377901
_cell_formula_units_Z   2
loop_
 _symmetry_equiv_pos_site_id
 _symmetry_equiv_pos_as_xyz
  1  'x, y, z'
loop_
 _atom_site_type_symbol
 _atom_site_label
 _atom_site_symmetry_multiplicity
 _atom_site_fract_x
 _atom_site_fract_y
 _atom_site_fract_z
 _atom_site_occupancy
  Li  Li0  1  0.97875500  0.06212400  0.49874000  1
  Li  Li1  1  0.06212400  0.97875600  0.99874000  1
  Li  Li2  1  0.68241200  0.09012500  0.05262400  1
  Li  Li3  1  0.09012500  0.68241200  0.55262400  1
  P  P0  1  0.21452800  0.08027300  0.34291500  1
  P  P1  1  0.08027300  0.21452800  0.84291500  1
  P  P2  1  0.68473900  0.08324100  0.84224300  1
  P  P3  1  0.34251300  0.33001200  0.12777500  1
  P  P4  1  0.33001200  0.34251300  0.62777500  1
  P  P5  1  0.69673200  0.22156800  0.34462000  1
  P  P6  1  0.77737300  0.30216100  0.15885400  1
  P  P7  1  0.08324100  0.68473900  0.34224300  1
  P  P8  1  0.91721300  0.30596600  0.66056700  1
  P  P9  1  0.22156800  0.69673200  0.84462000  1
  P  P10  1  0.30216100  0.77737300  0.65885400  1
  P  P11  1  0.65680400  0.67155400  0.86996500  1
  P  P12  1  0.67155400  0.65680400  0.36996500  1
  P  P13  1  0.30596600  0.91721300  0.16056700  1
  P  P14  1  0.91767300  0.78573500  0.16109900  1
  P  P15  1  0.78573500  0.91767300  0.66109900  1
  W  W0  1  0.43315300  0.00049100  0.74172200  1
  W  W1  1  0.56124900  0.99955900  0.25528000  1
  W  W2  1  0.00049100  0.43315300  0.24172200  1
  W  W3  1  0.99955900  0.56124900  0.75528000  1
  W  W4  1  0.56287700  0.43679600  0.75122100  1
  W  W5  1  0.43679600  0.56287700  0.25122100  1
  O  O0  1  0.20612700  0.99205800  0.25231300  1
  O  O1  1  0.21608700  0.98714300  0.07730100  1
  O  O2  1  0.25436200  0.09015100  0.82159400  1
  O  O3  1  0.99205800  0.20612700  0.75231300  1
  O  O4  1  0.98714300  0.21608700  0.57730100  1
  O  O5  1  0.09015100  0.25436200  0.32159400  1
  O  O6  1  0.37461900  0.07221200  0.33835300  1
  O  O7  1  0.33035600  0.19518400  0.66435800  1
  O  O8  1  0.52824500  0.09314200  0.82406800  1
  O  O9  1  0.80728900  0.99976600  0.58272000  1
  O  O10  1  0.79934500  0.98672700  0.75924700  1
  O  O11  1  0.64932100  0.09609000  0.33266700  1
  O  O12  1  0.19518400  0.33035600  0.16435800  1
  O  O13  1  0.07221200  0.37461900  0.83835300  1
  O  O14  1  0.48624400  0.18650300  0.17501500  1
  O  O15  1  0.36357600  0.33063400  0.02694700  1
  O  O16  1  0.33063400  0.36357600  0.52694700  1
  O  O17  1  0.47317100  0.34136300  0.67860000  1
  O  O18  1  0.09314200  0.52824500  0.32406800  1
  O  O19  1  0.18650300  0.48624400  0.67501500  1
  O  O20  1  0.65605500  0.25352800  0.82740500  1
  O  O21  1  0.79794000  0.20803700  0.25377600  1
  O  O22  1  0.77693400  0.20954500  0.08057100  1
  O  O23  1  0.78564700  0.20544400  0.42755800  1
  O  O24  1  0.54055600  0.37961200  0.33096400  1
  O  O25  1  0.34136300  0.47317100  0.17860000  1
  O  O26  1  0.74060300  0.35348200  0.67128700  1
  O  O27  1  0.37961200  0.54055600  0.83096400  1
  O  O28  1  0.09609000  0.64932100  0.83266700  1
  O  O29  1  0.01906500  0.17504000  0.92510600  1
  O  O30  1  0.99976600  0.80728900  0.08272000  1
  O  O31  1  0.98672700  0.79934500  0.25924700  1
  O  O32  1  0.90869400  0.34188300  0.15736100  1
  O  O33  1  0.62118400  0.45955800  0.17296100  1
  O  O34  1  0.25352800  0.65605500  0.32740500  1
  O  O35  1  0.65829700  0.52363700  0.82500600  1
  O  O36  1  0.45955800  0.62118400  0.67296100  1
  O  O37  1  0.20954500  0.77693400  0.58057100  1
  O  O38  1  0.20544400  0.78564700  0.92755800  1
  O  O39  1  0.20803700  0.79794000  0.75377600  1
  O  O40  1  0.35348200  0.74060300  0.17128700  1
  O  O41  1  0.80844900  0.51846800  0.31906600  1
  O  O42  1  0.91923100  0.45979700  0.67240000  1
  O  O43  1  0.52363700  0.65829700  0.32500600  1
  O  O44  1  0.65687200  0.66792700  0.97082900  1
  O  O45  1  0.66792700  0.65687200  0.47082900  1
  O  O46  1  0.51846800  0.80844900  0.81906600  1
  O  O47  1  0.92191300  0.62505700  0.16958300  1
  O  O48  1  0.80516200  0.66338900  0.82290700  1
  O  O49  1  0.34188300  0.90869400  0.65736100  1
  O  O50  1  0.17504000  0.01906500  0.42510600  1
  O  O51  1  0.45979700  0.91923100  0.17240000  1
  O  O52  1  0.66338900  0.80516200  0.32290700  1
  O  O53  1  0.62505700  0.92191300  0.66958300  1
  O  O54  1  0.91393600  0.74244300  0.66467600  1
  O  O55  1  0.02077200  0.75898400  0.43143500  1
  O  O56  1  0.74244300  0.91393600  0.16467600  1
  O  O57  1  0.75898400  0.02077200  0.93143500  1
loop_
_geom_bond_atom_site_label_1
_geom_bond_atom_site_label_2
_geom_bond_distance
_geom_bond_site_symmetry_2
Li0 O4 1.962146 1_555
Li0 O23 2.023719 1_555
Li0 O50 2.067107 1_655
Li0 O9 2.401940 1_545
Li1 O1 1.962141 1_556
Li1 O38 2.023725 1_555
Li1 O29 2.067099 1_565
Li1 O30 2.401949 1_456
Li2 O22 1.900453 1_555
Li2 O57 1.906809 1_554
Li2 O56 2.234579 1_545
Li2 O14 2.447347 1_555
Li3 O37 1.900453 1_555
Li3 O55 1.906809 1_555
Li3 O54 2.234579 1_455
Li3 O19 2.447347 1_555
O0 P13 1.605361 1_555
O0 P0 1.620743 1_565
O1 P13 1.462781 1_555
O2 P1 1.580617 1_555
O2 W0 1.925302 1_555
O3 P8 1.605361 1_555
O3 P1 1.620743 1_655
O4 P8 1.462781 1_555
O5 P0 1.580617 1_555
O5 W2 1.925302 1_555
O6 P0 1.557694 1_555
O6 W1 2.015303 1_545
O7 P4 1.552676 1_555
O7 W0 2.017630 1_555
O8 P2 1.539826 1_555
O8 W0 2.030565 1_555
O9 P15 1.467542 1_555
O10 P2 1.608143 1_565
O10 P15 1.629952 1_555
O11 P5 1.554011 1_555
O11 W1 1.966033 1_545
O12 P3 1.552676 1_555
O12 W2 2.017630 1_555
O13 P1 1.557694 1_555
O13 W3 2.015303 1_455
O14 P3 1.590827 1_555
O14 W1 1.991742 1_545
O15 P3 1.478103 1_555
O16 P4 1.478103 1_555
O17 P4 1.611678 1_555
O17 W4 1.929835 1_555
O18 P7 1.539826 1_555
O18 W2 2.030565 1_555
O19 P4 1.590827 1_555
O19 W3 1.991742 1_455
O20 P2 1.586500 1_555
O20 W4 1.925552 1_555
O21 P6 1.613942 1_555
O21 P5 1.615556 1_555
O22 P6 1.477644 1_555
O23 P5 1.466256 1_555
O24 P5 1.582242 1_555
O24 W5 1.960243 1_555
O25 P3 1.611678 1_555
O25 W5 1.929835 1_555
O26 P8 1.584791 1_555
O26 W4 1.918644 1_555
O27 P9 1.582242 1_555
O27 W4 1.960243 1_555
O28 P9 1.554011 1_555
O28 W3 1.966033 1_455
O29 P1 1.468962 1_555
O30 P14 1.467542 1_555
O31 P7 1.608143 1_655
O31 P14 1.629952 1_555
O32 P6 1.544388 1_555
O32 W2 2.016184 1_655
O33 P6 1.579948 1_555
O33 W5 1.954857 1_555
O34 P7 1.586500 1_555
O34 W5 1.925552 1_555
O35 P11 1.614958 1_555
O35 W4 1.919025 1_555
O36 P10 1.579948 1_555
O36 W4 1.954857 1_555
O37 P10 1.477644 1_555
O38 P9 1.466256 1_555
O39 P10 1.613942 1_555
O39 P9 1.615556 1_555
O40 P13 1.584791 1_555
O40 W5 1.918644 1_555
O41 P12 1.561568 1_555
O41 W2 1.998874 1_655
O42 P8 1.555541 1_555
O42 W3 1.996794 1_555
O43 P12 1.614958 1_555
O43 W5 1.919025 1_555
O44 P11 1.466351 1_555
O45 P12 1.466351 1_555
O46 P11 1.561568 1_555
O46 W0 1.998874 1_565
O47 P14 1.583897 1_555
O47 W2 1.960973 1_655
O48 P11 1.585165 1_555
O48 W3 1.940885 1_555
O49 P10 1.544388 1_555
O49 W0 2.016184 1_565
O50 P0 1.468962 1_555
O51 P13 1.555541 1_555
O51 W1 1.996794 1_555
O52 P12 1.585165 1_555
O52 W1 1.940885 1_555
O53 P15 1.583897 1_555
O53 W0 1.960973 1_565
O54 P15 1.569754 1_555
O54 W3 2.038000 1_555
O55 P7 1.470680 1_555
O56 P14 1.569754 1_555
O56 W1 2.038000 1_555
O57 P2 1.470680 1_555
