# generated using pymatgen
data_Be(FeO2)2
_symmetry_space_group_name_H-M   'P 1'
_cell_length_a   4.64980800
_cell_length_b   5.87237400
_cell_length_c   10.05976000
_cell_angle_alpha   90.00000000
_cell_angle_beta   90.00000000
_cell_angle_gamma   90.00000000
_symmetry_Int_Tables_number   1
_chemical_formula_structural   Be(FeO2)2
_chemical_formula_sum   'Be4 Fe8 O16'
_cell_volume   274.68588744
_cell_formula_units_Z   4
loop_
 _symmetry_equiv_pos_site_id
 _symmetry_equiv_pos_as_xyz
  1  'x, y, z'
loop_
 _atom_site_type_symbol
 _atom_site_label
 _atom_site_symmetry_multiplicity
 _atom_site_fract_x
 _atom_site_fract_y
 _atom_site_fract_z
 _atom_site_occupancy
  Be  Be0  1  0.57238500  0.75000000  0.09230700  1
  Be  Be1  1  0.92761500  0.75000000  0.59230700  1
  Be  Be2  1  0.07238500  0.25000000  0.40769300  1
  Be  Be3  1  0.42761500  0.25000000  0.90769300  1
  Fe  Fe0  1  0.50000000  0.50000000  0.50000000  1
  Fe  Fe1  1  0.50000000  0.00000000  0.50000000  1
  Fe  Fe2  1  0.50974900  0.25000000  0.22700900  1
  Fe  Fe3  1  0.99025100  0.25000000  0.72700900  1
  Fe  Fe4  1  0.00000000  0.00000000  0.00000000  1
  Fe  Fe5  1  0.00000000  0.50000000  0.00000000  1
  Fe  Fe6  1  0.00974900  0.75000000  0.27299100  1
  Fe  Fe7  1  0.49025100  0.75000000  0.77299100  1
  O  O0  1  0.73168400  0.75000000  0.93991000  1
  O  O1  1  0.73489300  0.52587900  0.16265600  1
  O  O2  1  0.73489300  0.97412100  0.16265600  1
  O  O3  1  0.72826700  0.25000000  0.40834000  1
  O  O4  1  0.77173300  0.25000000  0.90834000  1
  O  O5  1  0.76510700  0.52587900  0.66265600  1
  O  O6  1  0.76510700  0.97412100  0.66265600  1
  O  O7  1  0.76831600  0.75000000  0.43991000  1
  O  O8  1  0.23168400  0.25000000  0.56009000  1
  O  O9  1  0.23489300  0.02587900  0.33734400  1
  O  O10  1  0.23489300  0.47412100  0.33734400  1
  O  O11  1  0.22826700  0.75000000  0.09166000  1
  O  O12  1  0.27173300  0.75000000  0.59166000  1
  O  O13  1  0.26510700  0.02587900  0.83734400  1
  O  O14  1  0.26510700  0.47412100  0.83734400  1
  O  O15  1  0.26831600  0.25000000  0.06009000  1
loop_
_geom_bond_atom_site_label_1
_geom_bond_atom_site_label_2
_geom_bond_distance
_geom_bond_site_symmetry_2
Be0 O11 1.600096 1_555
Be0 O1 1.674511 1_555
Be0 O2 1.674511 1_555
Be0 O0 1.702638 1_554
Be1 O12 1.600096 1_655
Be1 O6 1.674511 1_555
Be1 O5 1.674511 1_555
Be1 O7 1.702638 1_555
Be2 O3 1.600096 1_455
Be2 O9 1.674511 1_555
Be2 O10 1.674511 1_555
Be2 O8 1.702638 1_555
Be3 O4 1.600096 1_555
Be3 O14 1.674511 1_555
Be3 O13 1.674511 1_555
Be3 O15 1.702638 1_556
Fe0 O7 2.019222 1_555
Fe0 O8 2.019222 1_555
Fe0 O12 2.032754 1_555
Fe0 O3 2.032754 1_555
Fe0 O5 2.054276 1_555
Fe0 O10 2.054276 1_555
Fe1 O7 2.019222 1_545
Fe1 O8 2.019222 1_555
Fe1 O12 2.032754 1_545
Fe1 O3 2.032754 1_555
Fe1 O9 2.054276 1_555
Fe1 O6 2.054276 1_545
Fe2 O15 2.019867 1_555
Fe2 O2 2.034614 1_545
Fe2 O1 2.034614 1_555
Fe2 O3 2.088038 1_555
Fe2 O9 2.144180 1_555
Fe2 O10 2.144180 1_555
Fe3 O8 2.019867 1_655
Fe3 O6 2.034614 1_545
Fe3 O5 2.034614 1_555
Fe3 O4 2.088038 1_555
Fe3 O13 2.144180 1_655
Fe3 O14 2.144180 1_655
Fe4 O0 2.019222 1_444
Fe4 O15 2.019222 1_555
Fe4 O4 2.032754 1_454
Fe4 O11 2.032754 1_545
Fe4 O2 2.054276 1_445
Fe4 O13 2.054276 1_554
Fe5 O0 2.019222 1_454
Fe5 O15 2.019222 1_555
Fe5 O4 2.032754 1_454
Fe5 O11 2.032754 1_555
Fe5 O1 2.054276 1_455
Fe5 O14 2.054276 1_554
Fe6 O7 2.019867 1_455
Fe6 O10 2.034614 1_555
Fe6 O9 2.034614 1_565
Fe6 O11 2.088038 1_555
Fe6 O2 2.144180 1_455
Fe6 O1 2.144180 1_455
Fe7 O0 2.019867 1_555
Fe7 O14 2.034614 1_555
Fe7 O13 2.034614 1_565
Fe7 O12 2.088038 1_555
Fe7 O6 2.144180 1_555
Fe7 O5 2.144180 1_555
