# generated using pymatgen
data_LiMnF4
_symmetry_space_group_name_H-M   'P 1'
_cell_length_a   6.01427900
_cell_length_b   10.17929180
_cell_length_c   10.18636015
_cell_angle_alpha   85.02639378
_cell_angle_beta   107.16855622
_cell_angle_gamma   107.09944484
_symmetry_Int_Tables_number   1
_chemical_formula_structural   LiMnF4
_chemical_formula_sum   'Li8 Mn8 F32'
_cell_volume   569.49373917
_cell_formula_units_Z   8
loop_
 _symmetry_equiv_pos_site_id
 _symmetry_equiv_pos_as_xyz
  1  'x, y, z'
loop_
 _atom_site_type_symbol
 _atom_site_label
 _atom_site_symmetry_multiplicity
 _atom_site_fract_x
 _atom_site_fract_y
 _atom_site_fract_z
 _atom_site_occupancy
  Li  Li0  1  0.87724700  0.74917500  0.00139400  1
  Li  Li1  1  0.87307300  0.24990800  0.50189400  1
  Li  Li2  1  0.37130300  0.99990600  0.24845200  1
  Li  Li3  1  0.12167400  0.50308000  0.25007100  1
  Li  Li4  1  0.87460600  0.49560200  0.74841900  1
  Li  Li5  1  0.62724300  0.00282300  0.74973800  1
  Li  Li6  1  0.13308600  0.75365900  0.49605700  1
  Li  Li7  1  0.12179600  0.25051700  0.99659600  1
  Mn  Mn0  1  0.63695000  0.25519900  0.99927700  1
  Mn  Mn1  1  0.36510200  0.50124300  0.74616400  1
  Mn  Mn2  1  0.88139700  0.00098300  0.24664400  1
  Mn  Mn3  1  0.62342300  0.75459100  0.50111300  1
  Mn  Mn4  1  0.37950400  0.24478400  0.50005700  1
  Mn  Mn5  1  0.11666300  0.99898800  0.75549500  1
  Mn  Mn6  1  0.63559300  0.49970800  0.25526800  1
  Mn  Mn7  1  0.36326000  0.74492000  0.00021400  1
  F  F0  1  0.49322900  0.34246300  0.09733300  1
  F  F1  1  0.86186800  0.60042700  0.16543900  1
  F  F2  1  0.86733400  0.41123900  0.35282600  1
  F  F3  1  0.65142800  0.10007700  0.16032200  1
  F  F4  1  0.90051500  0.09903400  0.66505700  1
  F  F5  1  0.95606600  0.35325400  0.08717800  1
  F  F6  1  0.04964500  0.15930800  0.40220600  1
  F  F7  1  0.23954200  0.34422700  0.58826500  1
  F  F8  1  0.30879500  0.15498300  0.91339800  1
  F  F9  1  0.49194700  0.85259800  0.59076400  1
  F  F10  1  0.23384200  0.83505900  0.09868300  1
  F  F11  1  0.30617900  0.66573000  0.40088600  1
  F  F12  1  0.10305000  0.09051500  0.14927300  1
  F  F13  1  0.60769600  0.41496100  0.84552500  1
  F  F14  1  0.34458300  0.08664400  0.65567700  1
  F  F15  1  0.60651300  0.59860100  0.65887300  1
  F  F16  1  0.39456100  0.40203200  0.34260900  1
  F  F17  1  0.65442000  0.91443400  0.34714500  1
  F  F18  1  0.39429400  0.58727600  0.15674200  1
  F  F19  1  0.89480100  0.91053200  0.85310000  1
  F  F20  1  0.69581400  0.33429800  0.60014200  1
  F  F21  1  0.76279400  0.16524500  0.89854100  1
  F  F22  1  0.51235300  0.14752200  0.41071900  1
  F  F23  1  0.68934200  0.84526300  0.08940300  1
  F  F24  1  0.76334700  0.65487200  0.41349200  1
  F  F25  1  0.95310500  0.84069900  0.59868300  1
  F  F26  1  0.04594100  0.64734300  0.90931300  1
  F  F27  1  0.09881900  0.90120600  0.33637000  1
  F  F28  1  0.34975100  0.90238800  0.84314300  1
  F  F29  1  0.13320600  0.58844900  0.64752300  1
  F  F30  1  0.14064500  0.40120500  0.83731700  1
  F  F31  1  0.51225300  0.65885700  0.90396800  1
loop_
_geom_bond_atom_site_label_1
_geom_bond_atom_site_label_2
_geom_bond_distance
_geom_bond_site_symmetry_2
F0 Mn0 1.910220 1_554
F0 Li7 2.122023 1_554
F0 Mn6 2.170415 1_555
F1 Mn6 1.868799 1_555
F1 Li3 2.033183 1_655
F1 Li0 2.159557 1_555
F2 Mn6 1.872523 1_555
F2 Li3 2.060116 1_655
F2 Li1 2.138657 1_555
F3 Mn2 1.911094 1_555
F3 Li2 2.099516 1_545
F3 Mn0 2.177020 1_554
F4 Mn5 1.866703 1_645
F4 Li5 2.036748 1_555
F4 Li1 2.166282 1_555
F5 Mn0 1.869604 1_554
F5 Li7 2.064418 1_654
F5 Li3 2.154319 1_655
F6 Mn4 1.911589 1_555
F6 Li1 2.093893 1_455
F6 Mn2 2.160894 1_455
F7 Mn4 1.909422 1_555
F7 Li1 2.076279 1_455
F7 Mn1 2.175035 1_555
F8 Mn0 1.911172 1_555
F8 Li7 2.068227 1_555
F8 Mn5 2.170354 1_545
F9 Mn3 1.871551 1_555
F9 Li6 2.064992 1_555
F9 Li5 2.131337 1_565
F10 Mn7 1.869306 1_555
F10 Li0 2.034419 1_455
F10 Li2 2.170297 1_555
F11 Mn3 1.869805 1_555
F11 Li6 2.029508 1_555
F11 Li3 2.164916 1_555
F12 Mn2 1.871067 1_455
F12 Li2 2.055599 1_545
F12 Li7 2.154168 1_554
F13 Mn1 1.911069 1_555
F13 Li4 2.061768 1_555
F13 Mn0 2.166226 1_555
F14 Mn5 1.911882 1_545
F14 Li5 2.070182 1_555
F14 Mn4 2.168767 1_555
F15 Mn1 1.908940 1_555
F15 Li4 2.119220 1_555
F15 Mn3 2.161756 1_555
F16 Mn6 1.908401 1_555
F16 Li3 2.133411 1_555
F16 Mn4 2.167480 1_555
F17 Mn2 1.910271 1_565
F17 Li2 2.091871 1_555
F17 Mn3 2.166500 1_555
F18 Mn6 1.911451 1_555
F18 Li3 2.068638 1_555
F18 Mn7 2.170018 1_555
F19 Mn5 1.871144 1_655
F19 Li5 2.073117 1_565
F19 Li0 2.133719 1_556
F20 Mn4 1.866922 1_555
F20 Li1 2.047815 1_555
F20 Li4 2.136942 1_555
F21 Mn0 1.869012 1_555
F21 Li7 2.046459 1_655
F21 Li5 2.146641 1_555
F22 Mn4 1.870140 1_555
F22 Li1 2.074622 1_555
F22 Li2 2.136091 1_545
F23 Mn7 1.909410 1_555
F23 Li0 2.106595 1_555
F23 Mn2 2.164157 1_565
F24 Mn3 1.907365 1_555
F24 Li6 2.095467 1_655
F24 Mn6 2.163184 1_555
F25 Mn3 1.911331 1_555
F25 Li6 2.107649 1_655
F25 Mn5 2.168387 1_655
F26 Mn7 1.867516 1_556
F26 Li0 2.081465 1_456
F26 Li4 2.153989 1_455
F27 Mn2 1.868505 1_465
F27 Li2 2.058955 1_555
F27 Li6 2.122421 1_555
F28 Mn5 1.910166 1_555
F28 Li5 2.121597 1_565
F28 Mn7 2.165877 1_556
F29 Mn1 1.867843 1_555
F29 Li4 2.068653 1_455
F29 Li6 2.181476 1_555
F30 Mn1 1.867920 1_555
F30 Li4 2.049707 1_455
F30 Li7 2.138437 1_555
F31 Mn7 1.913334 1_556
F31 Li0 2.081871 1_556
F31 Mn1 2.171072 1_555
