# generated using pymatgen
data_BH2NCl2
_symmetry_space_group_name_H-M   'P 1'
_cell_length_a   8.28242600
_cell_length_b   10.45749100
_cell_length_c   12.25277000
_cell_angle_alpha   90.00000000
_cell_angle_beta   90.00000000
_cell_angle_gamma   90.00000000
_symmetry_Int_Tables_number   1
_chemical_formula_structural   BH2NCl2
_chemical_formula_sum   'B12 H24 N12 Cl24'
_cell_volume   1061.25401218
_cell_formula_units_Z   12
loop_
 _symmetry_equiv_pos_site_id
 _symmetry_equiv_pos_as_xyz
  1  'x, y, z'
loop_
 _atom_site_type_symbol
 _atom_site_label
 _atom_site_symmetry_multiplicity
 _atom_site_fract_x
 _atom_site_fract_y
 _atom_site_fract_z
 _atom_site_occupancy
  B  B0  1  0.79336200  0.53914100  0.25000000  1
  B  B1  1  0.70663800  0.03914100  0.25000000  1
  B  B2  1  0.20663800  0.46085900  0.75000000  1
  B  B3  1  0.29336200  0.96085900  0.75000000  1
  B  B4  1  0.03314800  0.66649500  0.13759400  1
  B  B5  1  0.46685200  0.16649500  0.36240600  1
  B  B6  1  0.96685200  0.33350500  0.63759400  1
  B  B7  1  0.53314800  0.83350500  0.86240600  1
  B  B8  1  0.96685200  0.33350500  0.86240600  1
  B  B9  1  0.53314800  0.83350500  0.63759400  1
  B  B10  1  0.03314800  0.66649500  0.36240600  1
  B  B11  1  0.46685200  0.16649500  0.13759400  1
  H  H0  1  0.02349000  0.82407700  0.25000000  1
  H  H1  1  0.47651000  0.32407700  0.25000000  1
  H  H2  1  0.97651000  0.17592300  0.75000000  1
  H  H3  1  0.52349000  0.67592300  0.75000000  1
  H  H4  1  0.19873100  0.75270500  0.25000000  1
  H  H5  1  0.30126900  0.25270500  0.25000000  1
  H  H6  1  0.80126900  0.24729500  0.75000000  1
  H  H7  1  0.69873100  0.74729500  0.75000000  1
  H  H8  1  0.77624900  0.68884700  0.13189400  1
  H  H9  1  0.72375100  0.18884700  0.36810600  1
  H  H10  1  0.22375100  0.31115300  0.63189400  1
  H  H11  1  0.27624900  0.81115300  0.86810600  1
  H  H12  1  0.22375100  0.31115300  0.86810600  1
  H  H13  1  0.27624900  0.81115300  0.63189400  1
  H  H14  1  0.77624900  0.68884700  0.36810600  1
  H  H15  1  0.72375100  0.18884700  0.13189400  1
  H  H16  1  0.83637700  0.55440100  0.07837800  1
  H  H17  1  0.66362300  0.05440100  0.42162200  1
  H  H18  1  0.16362300  0.44559900  0.57837800  1
  H  H19  1  0.33637700  0.94559900  0.92162200  1
  H  H20  1  0.16362300  0.44559900  0.92162200  1
  H  H21  1  0.33637700  0.94559900  0.57837800  1
  H  H22  1  0.83637700  0.55440100  0.42162200  1
  H  H23  1  0.66362300  0.05440100  0.07837800  1
  N  N0  1  0.07693300  0.73400600  0.25000000  1
  N  N1  1  0.42306700  0.23400600  0.25000000  1
  N  N2  1  0.92306700  0.26599400  0.75000000  1
  N  N3  1  0.57693300  0.76599400  0.75000000  1
  N  N4  1  0.85398200  0.61316500  0.14534400  1
  N  N5  1  0.64601800  0.11316500  0.35465600  1
  N  N6  1  0.14601800  0.38683500  0.64534400  1
  N  N7  1  0.35398200  0.88683500  0.85465600  1
  N  N8  1  0.14601800  0.38683500  0.85465600  1
  N  N9  1  0.35398200  0.88683500  0.64534400  1
  N  N10  1  0.85398200  0.61316500  0.35465600  1
  N  N11  1  0.64601800  0.11316500  0.14534400  1
  Cl  Cl0  1  0.17807800  0.53774600  0.10684200  1
  Cl  Cl1  1  0.32192200  0.03774600  0.39315800  1
  Cl  Cl2  1  0.82192200  0.46225400  0.60684200  1
  Cl  Cl3  1  0.67807800  0.96225400  0.89315800  1
  Cl  Cl4  1  0.82192200  0.46225400  0.89315800  1
  Cl  Cl5  1  0.67807800  0.96225400  0.60684200  1
  Cl  Cl6  1  0.17807800  0.53774600  0.39315800  1
  Cl  Cl7  1  0.32192200  0.03774600  0.10684200  1
  Cl  Cl8  1  0.03434700  0.78956100  0.02900800  1
  Cl  Cl9  1  0.46565300  0.28956100  0.47099200  1
  Cl  Cl10  1  0.96565300  0.21043900  0.52900800  1
  Cl  Cl11  1  0.53434700  0.71043900  0.97099200  1
  Cl  Cl12  1  0.96565300  0.21043900  0.97099200  1
  Cl  Cl13  1  0.53434700  0.71043900  0.52900800  1
  Cl  Cl14  1  0.03434700  0.78956100  0.47099200  1
  Cl  Cl15  1  0.46565300  0.28956100  0.02900800  1
  Cl  Cl16  1  0.86811300  0.37277000  0.25000000  1
  Cl  Cl17  1  0.63188700  0.87277000  0.25000000  1
  Cl  Cl18  1  0.13188700  0.62723000  0.75000000  1
  Cl  Cl19  1  0.36811300  0.12723000  0.75000000  1
  Cl  Cl20  1  0.56859100  0.54232900  0.25000000  1
  Cl  Cl21  1  0.93140900  0.04232900  0.25000000  1
  Cl  Cl22  1  0.43140900  0.45767100  0.75000000  1
  Cl  Cl23  1  0.06859100  0.95767100  0.75000000  1
loop_
_geom_bond_atom_site_label_1
_geom_bond_atom_site_label_2
_geom_bond_distance
_geom_bond_site_symmetry_2
B0 N10 1.579773 1_555
B0 N4 1.579773 1_555
B0 Cl16 1.846698 1_555
B0 Cl20 1.861948 1_555
B1 N5 1.579773 1_555
B1 N11 1.579773 1_555
B1 Cl17 1.846698 1_545
B1 Cl21 1.861948 1_555
B2 N8 1.579773 1_555
B2 N6 1.579773 1_555
B2 Cl18 1.846698 1_555
B2 Cl22 1.861948 1_555
B3 N7 1.579773 1_555
B3 N9 1.579773 1_555
B3 Cl19 1.846698 1_565
B3 Cl23 1.861948 1_555
B4 N4 1.588109 1_455
B4 N0 1.589609 1_555
B4 Cl0 1.842726 1_555
B4 Cl8 1.851093 1_555
B5 N5 1.588109 1_555
B5 N1 1.589609 1_555
B5 Cl1 1.842726 1_555
B5 Cl9 1.851093 1_555
B6 N6 1.588109 1_655
B6 N2 1.589609 1_555
B6 Cl2 1.842726 1_555
B6 Cl10 1.851093 1_555
B7 N7 1.588109 1_555
B7 N3 1.589609 1_555
B7 Cl3 1.842726 1_555
B7 Cl11 1.851093 1_555
B8 N8 1.588109 1_655
B8 N2 1.589609 1_555
B8 Cl4 1.842726 1_555
B8 Cl12 1.851093 1_555
B9 N9 1.588109 1_555
B9 N3 1.589609 1_555
B9 Cl5 1.842726 1_555
B9 Cl13 1.851093 1_555
B10 N10 1.588109 1_455
B10 N0 1.589609 1_555
B10 Cl6 1.842726 1_555
B10 Cl14 1.851093 1_555
B11 N11 1.588109 1_555
B11 N1 1.589609 1_555
B11 Cl7 1.842726 1_555
B11 Cl15 1.851093 1_555
H0 N0 1.040738 1_555
H1 N1 1.040738 1_555
H2 N2 1.040738 1_555
H3 N3 1.040738 1_555
H4 N0 1.027561 1_555
H5 N1 1.027561 1_555
H6 N2 1.027561 1_555
H7 N3 1.027561 1_555
H8 N4 1.033462 1_555
H9 N5 1.033462 1_555
H10 N6 1.033462 1_555
H11 N7 1.033462 1_555
H12 N8 1.033462 1_555
H13 N9 1.033462 1_555
H14 N10 1.033462 1_555
H15 N11 1.033462 1_555
H16 N4 1.035448 1_555
H17 N5 1.035448 1_555
H18 N6 1.035448 1_555
H19 N7 1.035448 1_555
H20 N8 1.035448 1_555
H21 N9 1.035448 1_555
H22 N10 1.035448 1_555
H23 N11 1.035448 1_555
