# generated using pymatgen
data_Ba6CaI14
_symmetry_space_group_name_H-M   'P 1'
_cell_length_a   13.24909714
_cell_length_b   13.24909714
_cell_length_c   19.27080000
_cell_angle_alpha   90.00000000
_cell_angle_beta   90.00000000
_cell_angle_gamma   140.11824203
_symmetry_Int_Tables_number   1
_chemical_formula_structural   Ba6CaI14
_chemical_formula_sum   'Ba12 Ca2 I28'
_cell_volume   2169.04942209
_cell_formula_units_Z   2
loop_
 _symmetry_equiv_pos_site_id
 _symmetry_equiv_pos_as_xyz
  1  'x, y, z'
loop_
 _atom_site_type_symbol
 _atom_site_label
 _atom_site_symmetry_multiplicity
 _atom_site_fract_x
 _atom_site_fract_y
 _atom_site_fract_z
 _atom_site_occupancy
  Ba  Ba0  1  0.26758400  0.57804400  0.86768000  1
  Ba  Ba1  1  0.42195600  0.73241600  0.13232000  1
  Ba  Ba2  1  0.23241600  0.92195600  0.36768000  1
  Ba  Ba3  1  0.07804400  0.76758400  0.63232000  1
  Ba  Ba4  1  0.30515400  0.30515400  0.67954500  1
  Ba  Ba5  1  0.80515400  0.80515400  0.82045500  1
  Ba  Ba6  1  0.69484600  0.69484600  0.32045500  1
  Ba  Ba7  1  0.19484600  0.19484600  0.17954500  1
  Ba  Ba8  1  0.76758400  0.07804400  0.63232000  1
  Ba  Ba9  1  0.92195600  0.23241600  0.36768000  1
  Ba  Ba10  1  0.57804400  0.26758400  0.86768000  1
  Ba  Ba11  1  0.73241600  0.42195600  0.13232000  1
  Ca  Ca0  1  0.00000000  0.00000000  0.50000000  1
  Ca  Ca1  1  0.50000000  0.50000000  0.00000000  1
  I  I0  1  0.49797400  0.69410300  0.71628200  1
  I  I1  1  0.30589700  0.50202600  0.28371800  1
  I  I2  1  0.24074400  0.75925600  0.50000000  1
  I  I3  1  0.07317800  0.57317800  0.75000000  1
  I  I4  1  0.42682200  0.92682200  0.25000000  1
  I  I5  1  0.25925600  0.74074400  0.00000000  1
  I  I6  1  0.19410300  0.99797400  0.78371800  1
  I  I7  1  0.00202600  0.80589700  0.21628200  1
  I  I8  1  0.35919100  0.17852300  0.03958300  1
  I  I9  1  0.82147700  0.64080900  0.96041700  1
  I  I10  1  0.32147700  0.14080900  0.53958300  1
  I  I11  1  0.85919100  0.67852300  0.46041700  1
  I  I12  1  0.90934300  0.90934300  0.64736200  1
  I  I13  1  0.59065700  0.59065700  0.14736200  1
  I  I14  1  0.09065700  0.09065700  0.35263800  1
  I  I15  1  0.40934300  0.40934300  0.85263800  1
  I  I16  1  0.64080900  0.82147700  0.96041700  1
  I  I17  1  0.67852300  0.85919100  0.46041700  1
  I  I18  1  0.14080900  0.32147700  0.53958300  1
  I  I19  1  0.17852300  0.35919100  0.03958300  1
  I  I20  1  0.80589700  0.00202600  0.21628200  1
  I  I21  1  0.99797400  0.19410300  0.78371800  1
  I  I22  1  0.74074400  0.25925600  0.00000000  1
  I  I23  1  0.92682200  0.42682200  0.25000000  1
  I  I24  1  0.57317800  0.07317800  0.75000000  1
  I  I25  1  0.75925600  0.24074400  0.50000000  1
  I  I26  1  0.50202600  0.30589700  0.28371800  1
  I  I27  1  0.69410300  0.49797400  0.71628200  1
loop_
_geom_bond_atom_site_label_1
_geom_bond_atom_site_label_2
_geom_bond_distance
_geom_bond_site_symmetry_2
Ba0 I5 3.394996 1_556
Ba0 I3 3.395058 1_555
Ba0 I0 3.604237 1_555
Ba0 I21 3.656048 1_455
Ba0 I16 3.683907 1_555
Ba0 I15 3.879462 1_555
Ba0 I19 3.939928 1_556
Ba1 I5 3.394996 1_555
Ba1 I4 3.395058 1_555
Ba1 I1 3.604237 1_555
Ba1 I20 3.656048 1_565
Ba1 I19 3.683907 1_555
Ba1 I13 3.879462 1_555
Ba1 I16 3.939928 1_554
Ba2 I2 3.394996 1_555
Ba2 I4 3.395058 1_555
Ba2 I7 3.604237 1_555
Ba2 I26 3.656048 1_565
Ba2 I11 3.683907 1_455
Ba2 I14 3.879462 1_565
Ba2 I10 3.939928 1_565
Ba3 I2 3.394996 1_555
Ba3 I3 3.395058 1_555
Ba3 I6 3.604237 1_555
Ba3 I27 3.656048 1_455
Ba3 I10 3.683907 1_565
Ba3 I12 3.879462 1_455
Ba3 I11 3.939928 1_455
Ba4 I15 3.465987 1_555
Ba4 I10 3.575672 1_555
Ba4 I18 3.575672 1_555
Ba4 I12 3.630397 1_445
Ba4 I27 3.657688 1_555
Ba4 I0 3.657688 1_555
Ba4 I21 3.683536 1_455
Ba4 I6 3.683536 1_545
Ba5 I12 3.465987 1_555
Ba5 I16 3.575672 1_555
Ba5 I9 3.575672 1_555
Ba5 I15 3.630397 1_555
Ba5 I6 3.657688 1_655
Ba5 I21 3.657688 1_565
Ba5 I0 3.683536 1_555
Ba5 I27 3.683536 1_555
Ba6 I13 3.465987 1_555
Ba6 I17 3.575672 1_555
Ba6 I11 3.575672 1_555
Ba6 I14 3.630397 1_665
Ba6 I26 3.657688 1_555
Ba6 I1 3.657688 1_555
Ba6 I20 3.683536 1_565
Ba6 I7 3.683536 1_655
Ba7 I14 3.465987 1_555
Ba7 I19 3.575672 1_555
Ba7 I8 3.575672 1_555
Ba7 I13 3.630397 1_555
Ba7 I7 3.657688 1_545
Ba7 I20 3.657688 1_455
Ba7 I26 3.683536 1_555
Ba7 I1 3.683536 1_555
Ba8 I25 3.394996 1_555
Ba8 I24 3.395058 1_555
Ba8 I21 3.604237 1_555
Ba8 I0 3.656048 1_545
Ba8 I18 3.683907 1_655
Ba8 I12 3.879462 1_545
Ba8 I17 3.939928 1_545
Ba9 I25 3.394996 1_555
Ba9 I23 3.395058 1_555
Ba9 I20 3.604237 1_555
Ba9 I1 3.656048 1_655
Ba9 I17 3.683907 1_545
Ba9 I14 3.879462 1_655
Ba9 I18 3.939928 1_655
Ba10 I22 3.394996 1_556
Ba10 I24 3.395058 1_555
Ba10 I27 3.604237 1_555
Ba10 I6 3.656048 1_545
Ba10 I9 3.683907 1_555
Ba10 I15 3.879462 1_555
Ba10 I8 3.939928 1_556
Ba11 I22 3.394996 1_555
Ba11 I23 3.395058 1_555
Ba11 I26 3.604237 1_555
Ba11 I7 3.656048 1_655
Ba11 I8 3.683907 1_555
Ba11 I13 3.879462 1_555
Ba11 I9 3.939928 1_554
Ca0 I12 2.955605 1_445
Ca0 I14 2.955605 1_555
Ca0 I17 3.163638 1_445
Ca0 I10 3.163638 1_555
Ca0 I11 3.163638 1_445
Ca0 I18 3.163638 1_555
Ca1 I15 2.955605 1_554
Ca1 I13 2.955605 1_555
Ca1 I8 3.163638 1_555
Ca1 I19 3.163638 1_555
Ca1 I9 3.163638 1_554
Ca1 I16 3.163638 1_554
