# generated using pymatgen
data_Li3Mn2VO6
_symmetry_space_group_name_H-M   'P 1'
_cell_length_a   2.89280732
_cell_length_b   14.08568704
_cell_length_c   5.83454612
_cell_angle_alpha   77.53884683
_cell_angle_beta   90.00006108
_cell_angle_gamma   90.00015060
_symmetry_Int_Tables_number   1
_chemical_formula_structural   Li3Mn2VO6
_chemical_formula_sum   'Li6 Mn4 V2 O12'
_cell_volume   232.14070894
_cell_formula_units_Z   2
loop_
 _symmetry_equiv_pos_site_id
 _symmetry_equiv_pos_as_xyz
  1  'x, y, z'
loop_
 _atom_site_type_symbol
 _atom_site_label
 _atom_site_symmetry_multiplicity
 _atom_site_fract_x
 _atom_site_fract_y
 _atom_site_fract_z
 _atom_site_occupancy
  Li  Li0  1  0.99999900  0.66666700  0.16666800  1
  Li  Li1  1  0.50000200  0.16666700  0.16667000  1
  Li  Li2  1  0.00000000  0.01167200  0.48995200  1
  Li  Li3  1  0.50000000  0.51165900  0.48998400  1
  Li  Li4  1  0.00000200  0.32166000  0.84338800  1
  Li  Li5  1  0.50000100  0.82167400  0.84335100  1
  Mn  Mn0  1  0.49999800  0.50352700  0.00147900  1
  Mn  Mn1  1  0.49999500  0.82980600  0.33184900  1
  Mn  Mn2  1  0.00000200  0.00353200  0.00149900  1
  Mn  Mn3  1  0.00000200  0.32980100  0.33183800  1
  V  V0  1  0.50000700  0.16666700  0.66665000  1
  V  V1  1  0.99999400  0.66666800  0.66665600  1
  O  O0  1  0.00000300  0.51021600  0.76747800  1
  O  O1  1  0.50000400  0.01020700  0.76746100  1
  O  O2  1  0.99999600  0.82311700  0.56585600  1
  O  O3  1  0.49999800  0.32312600  0.56587700  1
  O  O4  1  0.00000000  0.83499400  0.10125800  1
  O  O5  1  0.50000100  0.33501300  0.10126300  1
  O  O6  1  0.99999900  0.49834000  0.23207700  1
  O  O7  1  0.50000000  0.99832000  0.23207700  1
  O  O8  1  0.99999900  0.16338700  0.42878900  1
  O  O9  1  0.49999500  0.66338900  0.42882500  1
  O  O10  1  0.00000400  0.16994600  0.90454800  1
  O  O11  1  0.50000100  0.66994400  0.90450800  1
loop_
_geom_bond_atom_site_label_1
_geom_bond_atom_site_label_2
_geom_bond_distance
_geom_bond_site_symmetry_2
Li0 O9 2.098398 1_655
Li0 O9 2.098416 1_555
Li0 O11 2.098417 1_554
Li0 O11 2.098427 1_654
Li0 O4 2.318792 1_655
Li0 O6 2.318792 1_555
Li1 O8 2.098236 1_555
Li1 O8 2.098250 1_455
Li1 O10 2.098252 1_554
Li1 O10 2.098262 1_654
Li1 O5 2.319057 1_555
Li1 O7 2.319071 1_545
Li2 O8 2.089271 1_455
Li2 O7 2.124462 1_445
Li2 O7 2.124465 1_545
Li2 O1 2.167873 1_455
Li2 O1 2.167886 1_555
Li2 O2 2.596627 1_445
Li3 O9 2.089480 1_555
Li3 O6 2.124486 1_555
Li3 O6 2.124487 1_455
Li3 O0 2.167857 1_555
Li3 O0 2.167866 1_655
Li3 O3 2.596325 1_555
Li4 O10 2.089258 1_555
Li4 O5 2.124463 1_556
Li4 O5 2.124470 1_456
Li4 O3 2.167879 1_555
Li4 O3 2.167893 1_455
Li4 O0 2.596639 1_555
Li5 O11 2.089481 1_555
Li5 O4 2.124487 1_656
Li5 O4 2.124494 1_556
Li5 O2 2.167857 1_555
Li5 O2 2.167874 1_455
Li5 O1 2.596326 1_565
Mn0 O6 1.966008 1_455
Mn0 O6 1.966011 1_555
Mn0 O0 1.977225 1_554
Mn0 O0 1.977248 1_654
Mn0 O11 2.289662 1_554
Mn0 O5 2.318776 1_555
Mn1 O4 1.965969 1_555
Mn1 O4 1.965992 1_655
Mn1 O2 1.977259 1_455
Mn1 O2 1.977261 1_555
Mn1 O9 2.289663 1_555
Mn1 O7 2.318774 1_555
Mn2 O7 1.965887 1_545
Mn2 O7 1.965897 1_445
Mn2 O1 1.977398 1_454
Mn2 O1 1.977408 1_554
Mn2 O10 2.289618 1_554
Mn2 O4 2.319099 1_545
Mn3 O5 1.965879 1_555
Mn3 O5 1.965881 1_455
Mn3 O3 1.977398 1_555
Mn3 O3 1.977416 1_455
Mn3 O8 2.289618 1_455
Mn3 O6 2.319113 1_455
O0 V1 2.154771 1_455
O1 V0 2.154876 1_555
O2 V1 2.154723 1_555
O3 V0 2.154851 1_555
O8 V0 2.011926 1_555
O8 V0 2.011957 1_655
O9 V1 2.011814 1_555
O9 V1 2.011821 1_455
O10 V0 2.012082 1_455
O10 V0 2.012096 1_555
O11 V1 2.011882 1_555
O11 V1 2.011909 1_455
