# generated using pymatgen
data_Fe3O5F
_symmetry_space_group_name_H-M   'P 1'
_cell_length_a   5.54129900
_cell_length_b   5.55795712
_cell_length_c   7.20218407
_cell_angle_alpha   71.76666865
_cell_angle_beta   71.48429992
_cell_angle_gamma   72.58002284
_symmetry_Int_Tables_number   1
_chemical_formula_structural   Fe3O5F
_chemical_formula_sum   'Fe6 O10 F2'
_cell_volume   194.78371700
_cell_formula_units_Z   2
loop_
 _symmetry_equiv_pos_site_id
 _symmetry_equiv_pos_as_xyz
  1  'x, y, z'
loop_
 _atom_site_type_symbol
 _atom_site_label
 _atom_site_symmetry_multiplicity
 _atom_site_fract_x
 _atom_site_fract_y
 _atom_site_fract_z
 _atom_site_occupancy
  Fe  Fe0  1  0.31996100  0.33282700  0.17201800  1
  Fe  Fe1  1  0.65836800  0.66542200  0.33282900  1
  Fe  Fe2  1  0.34135600  0.35088100  0.66970900  1
  Fe  Fe3  1  0.66909800  0.68439700  0.82848500  1
  Fe  Fe4  1  0.98976000  0.99638200  0.48982900  1
  Fe  Fe5  1  0.02184500  0.97532400  0.00931700  1
  O  O0  1  0.34598500  0.97480400  0.33460400  1
  O  O1  1  0.02757800  0.64806000  0.66834100  1
  O  O2  1  0.76897400  0.76166200  0.04167000  1
  O  O3  1  0.43330800  0.44108200  0.37185800  1
  O  O4  1  0.23551200  0.22821400  0.95971500  1
  O  O5  1  0.57016200  0.58168500  0.62378500  1
  O  O6  1  0.88425100  0.88544000  0.29890300  1
  O  O7  1  0.64342300  0.04259400  0.66340000  1
  O  O8  1  0.96282000  0.35149500  0.33935400  1
  O  O9  1  0.31964200  0.68238200  0.99702400  1
  F  F0  1  0.10263200  0.10222400  0.70347700  1
  F  F1  1  0.70532500  0.29512700  0.99568000  1
loop_
_geom_bond_atom_site_label_1
_geom_bond_atom_site_label_2
_geom_bond_distance
_geom_bond_site_symmetry_2
Fe0 O8 1.954544 1_455
Fe0 O0 1.956759 1_545
Fe0 O9 1.957054 1_554
Fe0 O4 2.017110 1_554
Fe0 O3 2.042153 1_555
Fe1 O6 1.912332 1_555
Fe1 O3 1.917838 1_555
Fe1 O5 1.929270 1_555
Fe1 O2 1.933178 1_555
Fe1 O8 2.032061 1_555
Fe1 O0 2.042268 1_555
Fe2 O4 1.934333 1_555
Fe2 O5 1.950504 1_555
Fe2 O3 1.974458 1_555
Fe2 O7 2.005716 1_555
Fe2 O1 2.008136 1_555
Fe3 O9 1.932598 1_555
Fe3 O1 1.940990 1_655
Fe3 O7 1.963150 1_565
Fe3 O2 1.985642 1_556
Fe3 O5 2.006833 1_555
Fe4 O8 1.918361 1_565
Fe4 O7 1.921950 1_565
Fe4 O0 1.923863 1_655
Fe4 O1 1.953320 1_655
Fe4 O6 1.967217 1_555
Fe5 O6 1.935693 1_455
Fe5 O9 1.941795 1_554
Fe5 O4 1.979543 1_564
Fe5 O2 2.010908 1_455
F0 Fe5 2.034793 1_546
F0 Fe2 2.097383 1_555
F0 Fe4 2.122015 1_445
F1 Fe5 2.092561 1_646
F1 Fe0 2.095948 1_556
F1 Fe3 2.105806 1_555
