# generated using pymatgen
data_Mn2V3Co(PO4)6
_symmetry_space_group_name_H-M   'P 1'
_cell_length_a   8.58394834
_cell_length_b   8.58394834
_cell_length_c   8.58394772
_cell_angle_alpha   60.11617683
_cell_angle_beta   60.11617683
_cell_angle_gamma   60.11618110
_symmetry_Int_Tables_number   1
_chemical_formula_structural   Mn2V3Co(PO4)6
_chemical_formula_sum   'Mn2 V3 Co1 P6 O24'
_cell_volume   448.42298838
_cell_formula_units_Z   1
loop_
 _symmetry_equiv_pos_site_id
 _symmetry_equiv_pos_as_xyz
  1  'x, y, z'
loop_
 _atom_site_type_symbol
 _atom_site_label
 _atom_site_symmetry_multiplicity
 _atom_site_fract_x
 _atom_site_fract_y
 _atom_site_fract_z
 _atom_site_occupancy
  Mn  Mn0  1  0.99733200  0.99733200  0.99733200  1
  Mn  Mn1  1  0.49964100  0.49964100  0.49964100  1
  V  V0  1  0.35548300  0.35548300  0.35548300  1
  V  V1  1  0.14363400  0.14363400  0.14363400  1
  V  V2  1  0.64387400  0.64387400  0.64387400  1
  Co  Co0  1  0.85406600  0.85406600  0.85406600  1
  P  P0  1  0.75115600  0.04283800  0.45842200  1
  P  P1  1  0.04283800  0.45842200  0.75115600  1
  P  P2  1  0.45842200  0.75115600  0.04283800  1
  P  P3  1  0.54191800  0.24814600  0.95961500  1
  P  P4  1  0.95961500  0.54191800  0.24814500  1
  P  P5  1  0.24814500  0.95961500  0.54191800  1
  O  O0  1  0.88028300  0.49098200  0.69779600  1
  O  O1  1  0.49098200  0.69779600  0.88028300  1
  O  O2  1  0.69779600  0.88028300  0.49098200  1
  O  O3  1  0.91506200  0.06409700  0.26192000  1
  O  O4  1  0.80448600  0.01433400  0.61665300  1
  O  O5  1  0.58389400  0.23728800  0.43602000  1
  O  O6  1  0.06409700  0.26192000  0.91506200  1
  O  O7  1  0.23728800  0.43602000  0.58389400  1
  O  O8  1  0.37999000  0.18926300  0.99883200  1
  O  O9  1  0.43602000  0.58389400  0.23728800  1
  O  O10  1  0.73273700  0.08542000  0.94822400  1
  O  O11  1  0.99883200  0.37999000  0.18926300  1
  O  O12  1  0.01433400  0.61665300  0.80448600  1
  O  O13  1  0.26192000  0.91506200  0.06409700  1
  O  O14  1  0.55382200  0.41527800  0.76615900  1
  O  O15  1  0.61665300  0.80448600  0.01433400  1
  O  O16  1  0.76615900  0.55382200  0.41527800  1
  O  O17  1  0.94822400  0.73273700  0.08542000  1
  O  O18  1  0.41527800  0.76615900  0.55382200  1
  O  O19  1  0.18926300  0.99883200  0.37999000  1
  O  O20  1  0.08542000  0.94822400  0.73273700  1
  O  O21  1  0.31290100  0.11904200  0.49937800  1
  O  O22  1  0.49937800  0.31290100  0.11904200  1
  O  O23  1  0.11904200  0.49937800  0.31290100  1
loop_
_geom_bond_atom_site_label_1
_geom_bond_atom_site_label_2
_geom_bond_distance
_geom_bond_site_symmetry_2
Mn0 O20 2.198451 1_655
Mn0 O17 2.198451 1_556
Mn0 O10 2.198451 1_565
Mn0 O3 2.298050 1_566
Mn0 O6 2.298051 1_665
Mn0 O13 2.298051 1_656
Mn1 O14 2.246863 1_555
Mn1 O16 2.246863 1_555
Mn1 O18 2.246863 1_555
Mn1 O9 2.258737 1_555
Mn1 O7 2.258737 1_555
Mn1 O5 2.258737 1_555
Co0 O4 1.927175 1_565
Co0 O15 1.927175 1_556
Co0 O12 1.927175 1_655
Co0 O17 2.093201 1_556
Co0 O20 2.093201 1_655
Co0 O10 2.093202 1_565
O0 P1 1.534812 1_655
O0 V2 1.931719 1_555
O1 P2 1.534812 1_556
O1 V2 1.931718 1_555
O2 P0 1.534812 1_565
O2 V2 1.931719 1_555
O3 P0 1.562773 1_555
O3 V1 2.001404 1_655
O4 P0 1.513632 1_555
O5 P0 1.565777 1_555
O5 V0 2.005247 1_555
O6 P1 1.562773 1_555
O6 V1 2.001404 1_556
O7 P1 1.565777 1_555
O7 V0 2.005247 1_555
O8 P3 1.537894 1_555
O8 V1 1.899596 1_556
O9 P2 1.565777 1_555
O9 V0 2.005247 1_555
O10 P3 1.529784 1_555
O11 P4 1.537888 1_555
O11 V1 1.899596 1_655
O12 P1 1.513632 1_555
O13 P2 1.562773 1_555
O13 V1 2.001404 1_565
O14 P3 1.558612 1_555
O14 V2 2.049450 1_555
O15 P2 1.513632 1_555
O16 P4 1.558616 1_555
O16 V2 2.049450 1_555
O17 P4 1.529781 1_555
O18 P5 1.558616 1_555
O18 V2 2.049450 1_555
O19 P5 1.537888 1_555
O19 V1 1.899596 1_565
O20 P5 1.529781 1_555
O21 P5 1.540437 1_545
O21 V0 1.889389 1_555
O22 P3 1.540431 1_554
O22 V0 1.889389 1_555
O23 P4 1.540437 1_455
O23 V0 1.889389 1_555
