# generated using pymatgen
data_LiV3F10
_symmetry_space_group_name_H-M   'P 1'
_cell_length_a   6.03795700
_cell_length_b   3.98679000
_cell_length_c   15.57089180
_cell_angle_alpha   89.26769215
_cell_angle_beta   90.00000000
_cell_angle_gamma   90.00000000
_symmetry_Int_Tables_number   1
_chemical_formula_structural   LiV3F10
_chemical_formula_sum   'Li2 V6 F20'
_cell_volume   374.79292939
_cell_formula_units_Z   2
loop_
 _symmetry_equiv_pos_site_id
 _symmetry_equiv_pos_as_xyz
  1  'x, y, z'
loop_
 _atom_site_type_symbol
 _atom_site_label
 _atom_site_symmetry_multiplicity
 _atom_site_fract_x
 _atom_site_fract_y
 _atom_site_fract_z
 _atom_site_occupancy
  Li  Li0  1  0.49209200  0.09235300  0.39337000  1
  Li  Li1  1  0.50790800  0.09235300  0.89337000  1
  V  V0  1  0.05706400  0.01011700  0.00375200  1
  V  V1  1  0.03629100  0.00524500  0.28652500  1
  V  V2  1  0.50294400  0.02038600  0.13825400  1
  V  V3  1  0.94293600  0.01011700  0.50375200  1
  V  V4  1  0.96370900  0.00524500  0.78652500  1
  V  V5  1  0.49705600  0.02038600  0.63825400  1
  F  F0  1  0.77110200  0.00538600  0.06187800  1
  F  F1  1  0.76757900  0.02697800  0.21890300  1
  F  F2  1  0.79783600  0.98618900  0.37988600  1
  F  F3  1  0.22889800  0.00538600  0.56187800  1
  F  F4  1  0.18402200  0.02535800  0.40360300  1
  F  F5  1  0.36457600  0.02824300  0.26111900  1
  F  F6  1  0.23242100  0.02697800  0.71890300  1
  F  F7  1  0.20216400  0.98618900  0.87988600  1
  F  F8  1  0.81597800  0.02535800  0.90360300  1
  F  F9  1  0.63542400  0.02824300  0.76111900  1
  F  F10  1  0.39396300  0.07615200  0.01211400  1
  F  F11  1  0.60603700  0.07615200  0.51211400  1
  F  F12  1  0.50233500  0.52007500  0.13962500  1
  F  F13  1  0.04274500  0.50932200  0.28532500  1
  F  F14  1  0.94640700  0.51142100  0.49636700  1
  F  F15  1  0.49766500  0.52007500  0.63962500  1
  F  F16  1  0.95725500  0.50932200  0.78532500  1
  F  F17  1  0.05359300  0.51142100  0.99636700  1
  F  F18  1  0.15807200  0.97094200  0.12984700  1
  F  F19  1  0.84192800  0.97094200  0.62984700  1
loop_
_geom_bond_atom_site_label_1
_geom_bond_atom_site_label_2
_geom_bond_distance
_geom_bond_site_symmetry_2
F0 V0 1.949440 1_655
F0 V2 2.010289 1_555
F1 V1 1.935526 1_655
F1 V2 2.032646 1_555
F2 Li0 1.906166 1_565
F2 V1 2.046754 1_665
F2 V3 2.121619 1_565
F3 V3 1.949440 1_455
F3 V5 2.010289 1_555
F4 Li0 1.885646 1_555
F4 V1 2.032038 1_555
F4 V3 2.133540 1_455
F5 V1 2.023110 1_555
F5 V2 2.088187 1_555
F5 Li0 2.216339 1_555
F6 V4 1.935526 1_455
F6 V5 2.032646 1_555
F7 Li1 1.906166 1_565
F7 V4 2.046754 1_465
F7 V0 2.121619 1_566
F8 Li1 1.885646 1_555
F8 V4 2.032038 1_555
F8 V0 2.133540 1_656
F9 V4 2.023110 1_555
F9 V5 2.088187 1_555
F9 Li1 2.216339 1_555
F10 Li1 1.973087 1_554
F10 V0 2.055489 1_555
F10 V2 2.080624 1_555
F11 Li0 1.973087 1_555
F11 V3 2.055489 1_555
F11 V5 2.080624 1_555
F12 V2 1.992546 1_555
F12 V2 1.994480 1_565
F13 V1 1.977852 1_565
F13 V1 2.009875 1_555
F14 V3 1.993096 1_565
F14 V3 2.000541 1_555
F15 V5 1.992546 1_555
F15 V5 1.994480 1_565
F16 V4 1.977852 1_565
F16 V4 2.009875 1_555
F17 V0 1.993096 1_566
F17 V0 2.000541 1_556
F18 V0 2.059975 1_565
F18 V2 2.095881 1_565
F18 V1 2.553358 1_565
F19 V3 2.059975 1_565
F19 V5 2.095881 1_565
F19 V4 2.553358 1_565
