# generated using pymatgen
data_ZnH12N4Cl4O3
_symmetry_space_group_name_H-M   'P 1'
_cell_length_a   9.48193400
_cell_length_b   10.01340500
_cell_length_c   12.78253400
_cell_angle_alpha   90.00000000
_cell_angle_beta   90.00000000
_cell_angle_gamma   90.00000000
_symmetry_Int_Tables_number   1
_chemical_formula_structural   ZnH12N4Cl4O3
_chemical_formula_sum   'Zn4 H48 N16 Cl16 O12'
_cell_volume   1213.65616555
_cell_formula_units_Z   4
loop_
 _symmetry_equiv_pos_site_id
 _symmetry_equiv_pos_as_xyz
  1  'x, y, z'
loop_
 _atom_site_type_symbol
 _atom_site_label
 _atom_site_symmetry_multiplicity
 _atom_site_fract_x
 _atom_site_fract_y
 _atom_site_fract_z
 _atom_site_occupancy
  Zn  Zn0  1  0.17575200  0.75000000  0.58875000  1
  Zn  Zn1  1  0.32424800  0.25000000  0.08875000  1
  Zn  Zn2  1  0.67575200  0.75000000  0.91125000  1
  Zn  Zn3  1  0.82424800  0.25000000  0.41125000  1
  H  H0  1  0.99872400  0.75000000  0.07458800  1
  H  H1  1  0.05054300  0.56228200  0.31471600  1
  H  H2  1  0.05054300  0.93771800  0.31471600  1
  H  H3  1  0.08326900  0.09428700  0.27781700  1
  H  H4  1  0.08326900  0.40571300  0.27781700  1
  H  H5  1  0.10357100  0.83484100  0.99225100  1
  H  H6  1  0.10357100  0.66515900  0.99225100  1
  H  H7  1  0.11135800  0.04982700  0.40277000  1
  H  H8  1  0.11135800  0.45017300  0.40277000  1
  H  H9  1  0.17101500  0.75000000  0.09550300  1
  H  H10  1  0.21951200  0.51234900  0.30833400  1
  H  H11  1  0.21951200  0.98765100  0.30833400  1
  H  H12  1  0.28048800  0.01234900  0.80833400  1
  H  H13  1  0.28048800  0.48765100  0.80833400  1
  H  H14  1  0.32898500  0.25000000  0.59550300  1
  H  H15  1  0.38864200  0.54982700  0.90277000  1
  H  H16  1  0.38864200  0.95017300  0.90277000  1
  H  H17  1  0.39642900  0.16515900  0.49225100  1
  H  H18  1  0.39642900  0.33484100  0.49225100  1
  H  H19  1  0.41673100  0.59428700  0.77781700  1
  H  H20  1  0.41673100  0.90571300  0.77781700  1
  H  H21  1  0.44945700  0.06228200  0.81471600  1
  H  H22  1  0.44945700  0.43771800  0.81471600  1
  H  H23  1  0.50127600  0.25000000  0.57458800  1
  H  H24  1  0.49872400  0.75000000  0.42541200  1
  H  H25  1  0.55054300  0.56228200  0.18528400  1
  H  H26  1  0.55054300  0.93771800  0.18528400  1
  H  H27  1  0.58326900  0.09428700  0.22218300  1
  H  H28  1  0.58326900  0.40571300  0.22218300  1
  H  H29  1  0.60357100  0.66515900  0.50774900  1
  H  H30  1  0.60357100  0.83484100  0.50774900  1
  H  H31  1  0.61135800  0.04982700  0.09723000  1
  H  H32  1  0.61135800  0.45017300  0.09723000  1
  H  H33  1  0.67101500  0.75000000  0.40449700  1
  H  H34  1  0.71951200  0.51234900  0.19166600  1
  H  H35  1  0.71951200  0.98765100  0.19166600  1
  H  H36  1  0.78048800  0.01234900  0.69166600  1
  H  H37  1  0.78048800  0.48765100  0.69166600  1
  H  H38  1  0.82898500  0.25000000  0.90449700  1
  H  H39  1  0.88864200  0.95017300  0.59723000  1
  H  H40  1  0.88864200  0.54982700  0.59723000  1
  H  H41  1  0.89642900  0.16515900  0.00774900  1
  H  H42  1  0.89642900  0.33484100  0.00774900  1
  H  H43  1  0.91673100  0.59428700  0.72218300  1
  H  H44  1  0.91673100  0.90571300  0.72218300  1
  H  H45  1  0.94945700  0.06228200  0.68528400  1
  H  H46  1  0.94945700  0.43771800  0.68528400  1
  H  H47  1  0.00127600  0.25000000  0.92541200  1
  N  N0  1  0.09484100  0.75000000  0.03679800  1
  N  N1  1  0.11769100  0.01752400  0.32625100  1
  N  N2  1  0.11769100  0.48247600  0.32625100  1
  N  N3  1  0.38230900  0.51752400  0.82625100  1
  N  N4  1  0.38230900  0.98247600  0.82625100  1
  N  N5  1  0.40515900  0.25000000  0.53679800  1
  N  N6  1  0.59484100  0.75000000  0.46320200  1
  N  N7  1  0.61769100  0.01752400  0.17374900  1
  N  N8  1  0.61769100  0.48247600  0.17374900  1
  N  N9  1  0.88230900  0.98247600  0.67374900  1
  N  N10  1  0.88230900  0.51752400  0.67374900  1
  N  N11  1  0.90515900  0.25000000  0.96320200  1
  N  N12  1  0.16176700  0.25000000  0.77336300  1
  N  N13  1  0.33823300  0.75000000  0.27336300  1
  N  N14  1  0.66176700  0.25000000  0.72663700  1
  N  N15  1  0.83823300  0.75000000  0.22663700  1
  Cl  Cl0  1  0.02471000  0.25000000  0.51458300  1
  Cl  Cl1  1  0.08327100  0.75000000  0.75985600  1
  Cl  Cl2  1  0.20177300  0.06008600  0.06098500  1
  Cl  Cl3  1  0.20177300  0.43991400  0.06098500  1
  Cl  Cl4  1  0.29822700  0.56008600  0.56098500  1
  Cl  Cl5  1  0.29822700  0.93991400  0.56098500  1
  Cl  Cl6  1  0.41672900  0.25000000  0.25985600  1
  Cl  Cl7  1  0.47529000  0.75000000  0.01458300  1
  Cl  Cl8  1  0.52471000  0.25000000  0.98541700  1
  Cl  Cl9  1  0.58327100  0.75000000  0.74014400  1
  Cl  Cl10  1  0.70177300  0.06008600  0.43901500  1
  Cl  Cl11  1  0.70177300  0.43991400  0.43901500  1
  Cl  Cl12  1  0.79822700  0.56008600  0.93901500  1
  Cl  Cl13  1  0.79822700  0.93991400  0.93901500  1
  Cl  Cl14  1  0.91672900  0.25000000  0.24014400  1
  Cl  Cl15  1  0.97529000  0.75000000  0.48541700  1
  O  O0  1  0.10176700  0.13983000  0.79616200  1
  O  O1  1  0.10176700  0.36017000  0.79616200  1
  O  O2  1  0.21776400  0.75000000  0.23192100  1
  O  O3  1  0.28223600  0.25000000  0.73192100  1
  O  O4  1  0.39823300  0.63983000  0.29616200  1
  O  O5  1  0.39823300  0.86017000  0.29616200  1
  O  O6  1  0.60176700  0.13983000  0.70383800  1
  O  O7  1  0.60176700  0.36017000  0.70383800  1
  O  O8  1  0.71776400  0.75000000  0.26807900  1
  O  O9  1  0.78223600  0.25000000  0.76807900  1
  O  O10  1  0.89823300  0.86017000  0.20383800  1
  O  O11  1  0.89823300  0.63983000  0.20383800  1
loop_
_geom_bond_atom_site_label_1
_geom_bond_atom_site_label_2
_geom_bond_distance
_geom_bond_site_symmetry_2
H0 N0 1.031476 1_655
H1 N2 1.032340 1_555
H2 N1 1.032340 1_565
H3 N1 1.039549 1_555
H4 N2 1.039549 1_555
H5 N0 1.026073 1_556
H6 N0 1.026073 1_556
H7 N1 1.031953 1_555
H8 N2 1.031953 1_555
H9 N0 1.041529 1_555
H10 N2 1.036361 1_555
H11 N1 1.036361 1_565
H12 N4 1.036361 1_545
H13 N3 1.036361 1_555
H14 N5 1.041529 1_555
H15 N3 1.031953 1_555
H16 N4 1.031953 1_555
H17 N5 1.026073 1_555
H18 N5 1.026073 1_555
H19 N3 1.039549 1_555
H20 N4 1.039549 1_555
H21 N4 1.032340 1_545
H22 N3 1.032340 1_555
H23 N5 1.031476 1_555
H24 N6 1.031476 1_555
H25 N8 1.032340 1_555
H26 N7 1.032340 1_565
H27 N7 1.039549 1_555
H28 N8 1.039549 1_555
H29 N6 1.026073 1_555
H30 N6 1.026073 1_555
H31 N7 1.031953 1_555
H32 N8 1.031953 1_555
H33 N6 1.041529 1_555
H34 N8 1.036361 1_555
H35 N7 1.036361 1_565
H36 N9 1.036361 1_545
H37 N10 1.036361 1_555
H38 N11 1.041529 1_555
H39 N9 1.031953 1_555
H40 N10 1.031953 1_555
H41 N11 1.026073 1_554
H42 N11 1.026073 1_554
H43 N10 1.039549 1_555
H44 N9 1.039549 1_555
H45 N9 1.032340 1_545
H46 N10 1.032340 1_555
H47 N11 1.031476 1_455
N12 O3 1.259134 1_555
N12 O0 1.274988 1_555
N12 O1 1.274988 1_555
N13 O2 1.259134 1_555
N13 O4 1.274988 1_555
N13 O5 1.274988 1_555
N14 O9 1.259134 1_555
N14 O6 1.274988 1_555
N14 O7 1.274988 1_555
N15 O8 1.259134 1_555
N15 O11 1.274988 1_555
N15 O10 1.274988 1_555
Cl0 Zn3 2.314645 1_455
Cl1 Zn0 2.356408 1_555
Cl2 Zn1 2.256321 1_555
Cl3 Zn1 2.256321 1_555
Cl4 Zn0 2.256321 1_555
Cl5 Zn0 2.256321 1_555
Cl6 Zn1 2.356408 1_555
Cl7 Zn2 2.314645 1_554
Cl8 Zn1 2.314645 1_556
Cl9 Zn2 2.356408 1_555
Cl10 Zn3 2.256321 1_555
Cl11 Zn3 2.256321 1_555
Cl12 Zn2 2.256321 1_555
Cl13 Zn2 2.256321 1_555
Cl14 Zn3 2.356408 1_555
Cl15 Zn0 2.314645 1_655
