# generated using pymatgen
data_Sm3NbO7
_symmetry_space_group_name_H-M   'P 1'
_cell_length_a   7.60380000
_cell_length_b   7.72281400
_cell_length_c   10.83230500
_cell_angle_alpha   90.00000000
_cell_angle_beta   90.00000000
_cell_angle_gamma   90.00000000
_symmetry_Int_Tables_number   1
_chemical_formula_structural   Sm3NbO7
_chemical_formula_sum   'Sm12 Nb4 O28'
_cell_volume   636.10255530
_cell_formula_units_Z   4
loop_
 _symmetry_equiv_pos_site_id
 _symmetry_equiv_pos_as_xyz
  1  'x, y, z'
loop_
 _atom_site_type_symbol
 _atom_site_label
 _atom_site_symmetry_multiplicity
 _atom_site_fract_x
 _atom_site_fract_y
 _atom_site_fract_z
 _atom_site_occupancy
  Sm  Sm0  1  0.01475500  0.79825200  0.25000000  1
  Sm  Sm1  1  0.24994000  0.96272200  0.52274700  1
  Sm  Sm2  1  0.24994000  0.96272200  0.97725300  1
  Sm  Sm3  1  0.25006000  0.46272200  0.02274700  1
  Sm  Sm4  1  0.25006000  0.46272200  0.47725300  1
  Sm  Sm5  1  0.48524500  0.29825200  0.75000000  1
  Sm  Sm6  1  0.51475500  0.70174800  0.25000000  1
  Sm  Sm7  1  0.74994000  0.53727800  0.52274700  1
  Sm  Sm8  1  0.74994000  0.53727800  0.97725300  1
  Sm  Sm9  1  0.75006000  0.03727800  0.02274700  1
  Sm  Sm10  1  0.75006000  0.03727800  0.47725300  1
  Sm  Sm11  1  0.98524500  0.20174800  0.75000000  1
  Nb  Nb0  1  0.99574800  0.74636500  0.75000000  1
  Nb  Nb1  1  0.50425200  0.24636500  0.25000000  1
  Nb  Nb2  1  0.49574800  0.75363500  0.75000000  1
  Nb  Nb3  1  0.00425200  0.25363500  0.25000000  1
  O  O0  1  0.03623500  0.04879000  0.12575800  1
  O  O1  1  0.03623500  0.04879000  0.37424200  1
  O  O2  1  0.04084100  0.59167900  0.61183200  1
  O  O3  1  0.04084100  0.59167900  0.88816800  1
  O  O4  1  0.24832500  0.33179800  0.25000000  1
  O  O5  1  0.25688500  0.73161200  0.11659300  1
  O  O6  1  0.25688500  0.73161200  0.38340700  1
  O  O7  1  0.24311500  0.23161200  0.61659300  1
  O  O8  1  0.24311500  0.23161200  0.88340700  1
  O  O9  1  0.25167500  0.83179800  0.75000000  1
  O  O10  1  0.45915900  0.09167900  0.11183200  1
  O  O11  1  0.45915900  0.09167900  0.38816800  1
  O  O12  1  0.46376500  0.54879000  0.62575800  1
  O  O13  1  0.46376500  0.54879000  0.87424200  1
  O  O14  1  0.53623500  0.45121000  0.12575800  1
  O  O15  1  0.53623500  0.45121000  0.37424200  1
  O  O16  1  0.54084100  0.90832100  0.61183200  1
  O  O17  1  0.54084100  0.90832100  0.88816800  1
  O  O18  1  0.74832500  0.16820200  0.25000000  1
  O  O19  1  0.75688500  0.76838800  0.11659300  1
  O  O20  1  0.75688500  0.76838800  0.38340700  1
  O  O21  1  0.74311500  0.26838800  0.61659300  1
  O  O22  1  0.74311500  0.26838800  0.88340700  1
  O  O23  1  0.75167500  0.66820200  0.75000000  1
  O  O24  1  0.95915900  0.40832100  0.11183200  1
  O  O25  1  0.95915900  0.40832100  0.38816800  1
  O  O26  1  0.96376500  0.95121000  0.62575800  1
  O  O27  1  0.96376500  0.95121000  0.87424200  1
loop_
_geom_bond_atom_site_label_1
_geom_bond_atom_site_label_2
_geom_bond_distance
_geom_bond_site_symmetry_2
Nb0 O3 1.945432 1_655
Nb0 O2 1.945432 1_655
Nb0 O23 1.951584 1_555
Nb0 O9 2.054823 1_655
Nb0 O27 2.091185 1_555
Nb0 O26 2.091185 1_555
Nb1 O11 1.945432 1_555
Nb1 O10 1.945432 1_555
Nb1 O18 1.951584 1_555
Nb1 O4 2.054823 1_555
Nb1 O15 2.091185 1_555
Nb1 O14 2.091185 1_555
Nb2 O17 1.945432 1_555
Nb2 O16 1.945432 1_555
Nb2 O9 1.951584 1_555
Nb2 O23 2.054823 1_555
Nb2 O13 2.091185 1_555
Nb2 O12 2.091185 1_555
Nb3 O25 1.945432 1_455
Nb3 O24 1.945432 1_455
Nb3 O4 1.951584 1_555
Nb3 O18 2.054823 1_455
Nb3 O1 2.091185 1_555
Nb3 O0 2.091185 1_555
O0 Sm0 2.362542 1_545
O0 Sm2 2.381196 1_544
O0 Sm9 2.447053 1_455
O1 Sm0 2.362542 1_545
O1 Sm1 2.381196 1_545
O1 Sm10 2.447053 1_455
O2 Sm4 2.376522 1_555
O2 Sm7 2.449584 1_455
O3 Sm3 2.376522 1_556
O3 Sm8 2.449584 1_455
O4 Sm4 2.661266 1_555
O4 Sm3 2.661266 1_555
O5 Sm3 2.312644 1_555
O5 Sm2 2.338071 1_554
O5 Sm0 2.396429 1_555
O5 Sm6 2.446677 1_555
O6 Sm4 2.312644 1_555
O6 Sm1 2.338071 1_555
O6 Sm0 2.396429 1_555
O6 Sm6 2.446677 1_555
O7 Sm1 2.312644 1_545
O7 Sm4 2.338071 1_555
O7 Sm5 2.396429 1_555
O7 Sm11 2.446677 1_455
O8 Sm2 2.312644 1_545
O8 Sm3 2.338071 1_556
O8 Sm5 2.396429 1_555
O8 Sm11 2.446677 1_455
O9 Sm2 2.661266 1_555
O9 Sm1 2.661266 1_555
O10 Sm2 2.376522 1_544
O10 Sm9 2.449584 1_555
O11 Sm1 2.376522 1_545
O11 Sm10 2.449584 1_555
O12 Sm5 2.362542 1_555
O12 Sm4 2.381196 1_555
O12 Sm7 2.447053 1_555
O13 Sm5 2.362542 1_555
O13 Sm3 2.381196 1_556
O13 Sm8 2.447053 1_555
O14 Sm6 2.362542 1_555
O14 Sm8 2.381196 1_554
O14 Sm3 2.447053 1_555
O15 Sm6 2.362542 1_555
O15 Sm7 2.381196 1_555
O15 Sm4 2.447053 1_555
O16 Sm10 2.376522 1_565
O16 Sm1 2.449584 1_555
O17 Sm9 2.376522 1_566
O17 Sm2 2.449584 1_555
O18 Sm10 2.661266 1_555
O18 Sm9 2.661266 1_555
O19 Sm9 2.312644 1_565
O19 Sm8 2.338071 1_554
O19 Sm6 2.396429 1_555
O19 Sm0 2.446677 1_655
O20 Sm10 2.312644 1_565
O20 Sm7 2.338071 1_555
O20 Sm6 2.396429 1_555
O20 Sm0 2.446677 1_655
O21 Sm7 2.312644 1_555
O21 Sm10 2.338071 1_555
O21 Sm11 2.396429 1_555
O21 Sm5 2.446677 1_555
O22 Sm8 2.312644 1_555
O22 Sm9 2.338071 1_556
O22 Sm11 2.396429 1_555
O22 Sm5 2.446677 1_555
O23 Sm8 2.661266 1_555
O23 Sm7 2.661266 1_555
O24 Sm8 2.376522 1_554
O24 Sm3 2.449584 1_655
O25 Sm7 2.376522 1_555
O25 Sm4 2.449584 1_655
O26 Sm11 2.362542 1_565
O26 Sm10 2.381196 1_565
O26 Sm1 2.447053 1_655
O27 Sm11 2.362542 1_565
O27 Sm9 2.381196 1_566
O27 Sm2 2.447053 1_655
