# generated using pymatgen
data_CrH10SNO10
_symmetry_space_group_name_H-M   'P 1'
_cell_length_a   12.23891205
_cell_length_b   6.97357900
_cell_length_c   11.51933951
_cell_angle_alpha   90.00000000
_cell_angle_beta   110.18022418
_cell_angle_gamma   90.00000000
_symmetry_Int_Tables_number   1
_chemical_formula_structural   CrH10SNO10
_chemical_formula_sum   'Cr4 H40 S4 N4 O40'
_cell_volume   922.80999142
_cell_formula_units_Z   4
loop_
 _symmetry_equiv_pos_site_id
 _symmetry_equiv_pos_as_xyz
  1  'x, y, z'
loop_
 _atom_site_type_symbol
 _atom_site_label
 _atom_site_symmetry_multiplicity
 _atom_site_fract_x
 _atom_site_fract_y
 _atom_site_fract_z
 _atom_site_occupancy
  Cr  Cr0  1  0.01325000  0.75925200  0.28558300  1
  Cr  Cr1  1  0.51325000  0.74074800  0.78558300  1
  Cr  Cr2  1  0.98675000  0.24074800  0.71441700  1
  Cr  Cr3  1  0.48675000  0.25925200  0.21441700  1
  H  H0  1  0.99890700  0.74797400  0.04994000  1
  H  H1  1  0.49890700  0.75202600  0.54994000  1
  H  H2  1  0.00109300  0.25202600  0.95006000  1
  H  H3  1  0.50109300  0.24797400  0.45006000  1
  H  H4  1  0.89056200  0.61943800  0.06403800  1
  H  H5  1  0.39056200  0.88056200  0.56403800  1
  H  H6  1  0.10943800  0.38056200  0.93596200  1
  H  H7  1  0.60943800  0.11943800  0.43596200  1
  H  H8  1  0.21116100  0.71756100  0.23821100  1
  H  H9  1  0.71116100  0.78243900  0.73821100  1
  H  H10  1  0.78883900  0.28243900  0.76178900  1
  H  H11  1  0.28883900  0.21756100  0.26178900  1
  H  H12  1  0.20120100  0.53812600  0.32638600  1
  H  H13  1  0.70120100  0.96187400  0.82638600  1
  H  H14  1  0.79879900  0.46187400  0.67361400  1
  H  H15  1  0.29879900  0.03812600  0.17361400  1
  H  H16  1  0.00822500  0.08894100  0.16578000  1
  H  H17  1  0.50822500  0.41105900  0.66578000  1
  H  H18  1  0.99177500  0.91105900  0.83422000  1
  H  H19  1  0.49177500  0.58894100  0.33422000  1
  H  H20  1  0.11207000  0.11408600  0.29733700  1
  H  H21  1  0.61207000  0.38591400  0.79733700  1
  H  H22  1  0.88793000  0.88591400  0.70266300  1
  H  H23  1  0.38793000  0.61408600  0.20266300  1
  H  H24  1  0.15286800  0.92632600  0.48844300  1
  H  H25  1  0.65286800  0.57367400  0.98844300  1
  H  H26  1  0.84713200  0.07367400  0.51155700  1
  H  H27  1  0.34713200  0.42632600  0.01155700  1
  H  H28  1  0.07303400  0.77796200  0.53282400  1
  H  H29  1  0.57303400  0.72203800  0.03282400  1
  H  H30  1  0.92696600  0.22203800  0.46717600  1
  H  H31  1  0.42696600  0.27796200  0.96717600  1
  H  H32  1  0.80761700  0.81308200  0.30985600  1
  H  H33  1  0.30761700  0.68691800  0.80985600  1
  H  H34  1  0.19238300  0.18691800  0.69014400  1
  H  H35  1  0.69238300  0.31308200  0.19014400  1
  H  H36  1  0.81651900  0.97255400  0.20803700  1
  H  H37  1  0.31651900  0.52744600  0.70803700  1
  H  H38  1  0.18348100  0.02744600  0.79196300  1
  H  H39  1  0.68348100  0.47255400  0.29196300  1
  S  S0  1  0.20568100  0.74940800  0.99030500  1
  S  S1  1  0.70568100  0.75059200  0.49030500  1
  S  S2  1  0.79431900  0.25059200  0.00969500  1
  S  S3  1  0.29431900  0.24940800  0.50969500  1
  N  N0  1  0.97038500  0.52669200  0.32119900  1
  N  N1  1  0.47038500  0.97330800  0.82119900  1
  N  N2  1  0.02961500  0.47330800  0.67880100  1
  N  N3  1  0.52961500  0.02669200  0.17880100  1
  O  O0  1  0.94696200  0.72586100  0.09920700  1
  O  O1  1  0.44696200  0.77413900  0.59920700  1
  O  O2  1  0.05303800  0.27413900  0.90079300  1
  O  O3  1  0.55303800  0.22586100  0.40079300  1
  O  O4  1  0.17746900  0.67262700  0.30032500  1
  O  O5  1  0.67746900  0.82737300  0.80032500  1
  O  O6  1  0.82253100  0.32737300  0.69967500  1
  O  O7  1  0.32253100  0.17262600  0.19967500  1
  O  O8  1  0.06628900  0.01911700  0.23625800  1
  O  O9  1  0.56628900  0.48088300  0.73625800  1
  O  O10  1  0.93371100  0.98088300  0.76374200  1
  O  O11  1  0.43371100  0.51911700  0.26374200  1
  O  O12  1  0.07814800  0.85319800  0.46273500  1
  O  O13  1  0.57814800  0.64680200  0.96273500  1
  O  O14  1  0.92185200  0.14680200  0.53726500  1
  O  O15  1  0.42185200  0.35319800  0.03726500  1
  O  O16  1  0.86004500  0.88839000  0.27798000  1
  O  O17  1  0.36004500  0.61161000  0.77798000  1
  O  O18  1  0.13995500  0.11161000  0.72202000  1
  O  O19  1  0.63995500  0.38839000  0.22202000  1
  O  O20  1  0.94072800  0.36583400  0.33757400  1
  O  O21  1  0.44072800  0.13416600  0.83757400  1
  O  O22  1  0.05927200  0.63416600  0.66242600  1
  O  O23  1  0.55927200  0.86583400  0.16242600  1
  O  O24  1  0.07978400  0.79537400  0.96079300  1
  O  O25  1  0.57978400  0.70462600  0.46079300  1
  O  O26  1  0.92021600  0.20462600  0.03920700  1
  O  O27  1  0.42021600  0.29537400  0.53920700  1
  O  O28  1  0.21992500  0.53781700  0.97808200  1
  O  O29  1  0.71992500  0.96218300  0.47808200  1
  O  O30  1  0.78007500  0.46218300  0.02191800  1
  O  O31  1  0.28007500  0.03781700  0.52191800  1
  O  O32  1  0.27199500  0.80130200  0.12368300  1
  O  O33  1  0.77199500  0.69869800  0.62368300  1
  O  O34  1  0.72800500  0.19869800  0.87631700  1
  O  O35  1  0.22800500  0.30130200  0.37631700  1
  O  O36  1  0.25290200  0.85409000  0.90610000  1
  O  O37  1  0.75290200  0.64591000  0.40610000  1
  O  O38  1  0.74709800  0.14591000  0.09390000  1
  O  O39  1  0.24709800  0.35409000  0.59390000  1
loop_
_geom_bond_atom_site_label_1
_geom_bond_atom_site_label_2
_geom_bond_distance
_geom_bond_site_symmetry_2
Cr0 N0 1.795051 1_455
Cr0 O12 2.026358 1_555
Cr0 O0 2.029772 1_455
Cr0 O4 2.048857 1_555
Cr0 O16 2.054562 1_455
Cr0 O8 2.069476 1_565
Cr1 N1 1.795051 1_555
Cr1 O13 2.026358 1_555
Cr1 O1 2.029772 1_555
Cr1 O5 2.048857 1_555
Cr1 O17 2.054562 1_555
Cr1 O9 2.069476 1_555
Cr2 N2 1.795051 1_655
Cr2 O14 2.026358 1_555
Cr2 O2 2.029772 1_655
Cr2 O6 2.048857 1_555
Cr2 O18 2.054562 1_655
Cr2 O10 2.069476 1_545
Cr3 N3 1.795051 1_555
Cr3 O15 2.026358 1_555
Cr3 O3 2.029772 1_555
Cr3 O7 2.048859 1_555
Cr3 O19 2.054562 1_555
Cr3 O11 2.069476 1_555
H0 O0 0.999488 1_555
H0 O24 1.686694 1_654
H1 O1 0.999488 1_555
H1 O25 1.686694 1_555
H2 O2 0.999488 1_555
H2 O26 1.686694 1_456
H3 O3 0.999488 1_555
H3 O27 1.686694 1_555
H4 O0 0.999224 1_555
H4 O30 1.677466 1_555
H5 O1 0.999224 1_555
H5 O31 1.677466 1_565
H6 O2 0.999224 1_555
H6 O28 1.677466 1_555
H7 O3 0.999224 1_555
H7 O29 1.677466 1_545
H8 O4 0.991840 1_555
H9 O5 0.991840 1_555
H10 O6 0.991840 1_555
H11 O7 0.991842 1_555
H12 O4 0.997037 1_555
H13 O5 0.997037 1_555
H14 O6 0.997037 1_555
H15 O7 0.997030 1_555
H16 O8 1.001579 1_555
H16 O26 1.689187 1_455
H17 O9 1.001579 1_555
H17 O27 1.689187 1_555
H18 O10 1.001579 1_555
H18 O24 1.689187 1_655
H19 O11 1.001579 1_555
H19 O25 1.689187 1_555
H20 O8 0.987722 1_555
H21 O9 0.987722 1_555
H22 O10 0.987722 1_555
H23 O11 0.987722 1_555
H24 O12 0.998602 1_555
H24 O31 1.662179 1_565
H25 O13 0.998602 1_555
H25 O30 1.662179 1_556
H26 O14 0.998602 1_555
H26 O29 1.662179 1_545
H27 O15 0.998602 1_555
H27 O28 1.662179 1_554
H28 O12 0.982810 1_555
H29 O13 0.982810 1_554
H30 O14 0.982810 1_555
H31 O15 0.982810 1_556
H32 O16 0.992431 1_555
H33 O17 0.992431 1_555
H34 O18 0.992431 1_555
H35 O19 0.992431 1_555
H36 O16 0.990596 1_555
H37 O17 0.990596 1_555
H38 O18 0.990596 1_555
H39 O19 0.990596 1_555
N0 O20 1.213632 1_555
N1 O21 1.213632 1_565
N2 O22 1.213632 1_555
N3 O23 1.213632 1_545
O24 S0 1.493689 1_555
O25 S1 1.493689 1_555
O26 S2 1.493689 1_555
O27 S3 1.493689 1_555
O28 S0 1.498129 1_555
O29 S1 1.498129 1_555
O30 S2 1.498129 1_555
O31 S3 1.498129 1_555
O32 S0 1.513251 1_554
O33 S1 1.513251 1_555
O34 S2 1.513251 1_556
O35 S3 1.513251 1_555
O36 S0 1.481408 1_555
O37 S1 1.481408 1_555
O38 S2 1.481408 1_555
O39 S3 1.481408 1_555
