# generated using pymatgen
data_Ta2MnO6
_symmetry_space_group_name_H-M   'P 1'
_cell_length_a   18.16465800
_cell_length_b   18.16465800
_cell_length_c   5.19009371
_cell_angle_alpha   89.75076932
_cell_angle_beta   89.75076932
_cell_angle_gamma   149.25367918
_symmetry_Int_Tables_number   1
_chemical_formula_structural   Ta2MnO6
_chemical_formula_sum   'Ta16 Mn8 O48'
_cell_volume   875.37516559
_cell_formula_units_Z   8
loop_
 _symmetry_equiv_pos_site_id
 _symmetry_equiv_pos_as_xyz
  1  'x, y, z'
loop_
 _atom_site_type_symbol
 _atom_site_label
 _atom_site_symmetry_multiplicity
 _atom_site_fract_x
 _atom_site_fract_y
 _atom_site_fract_z
 _atom_site_occupancy
  Ta  Ta0  1  0.88265000  0.60730500  0.24414800  1
  Ta  Ta1  1  0.05738900  0.94261100  0.25000000  1
  Ta  Ta2  1  0.22474700  0.28220300  0.24444200  1
  Ta  Ta3  1  0.39269500  0.11735000  0.25585200  1
  Ta  Ta4  1  0.56046600  0.94766300  0.25775700  1
  Ta  Ta5  1  0.71779700  0.77525300  0.25555800  1
  Ta  Ta6  1  0.72313900  0.27686100  0.25000000  1
  Ta  Ta7  1  0.05233700  0.43953400  0.24224300  1
  Ta  Ta8  1  0.28220300  0.22474700  0.74444200  1
  Ta  Ta9  1  0.60730500  0.88265000  0.74414800  1
  Ta  Ta10  1  0.77525300  0.71779700  0.75555800  1
  Ta  Ta11  1  0.94261100  0.05738900  0.75000000  1
  Ta  Ta12  1  0.94766300  0.56046600  0.75775700  1
  Ta  Ta13  1  0.11735000  0.39269500  0.75585200  1
  Ta  Ta14  1  0.27686100  0.72313900  0.75000000  1
  Ta  Ta15  1  0.43953400  0.05233700  0.74224300  1
  Mn  Mn0  1  0.55637300  0.44362700  0.25000000  1
  Mn  Mn1  1  0.38924800  0.61075200  0.25000000  1
  Mn  Mn2  1  0.88539600  0.11460400  0.25000000  1
  Mn  Mn3  1  0.22067300  0.77932700  0.25000000  1
  Mn  Mn4  1  0.11460400  0.88539600  0.75000000  1
  Mn  Mn5  1  0.44362700  0.55637300  0.75000000  1
  Mn  Mn6  1  0.61075200  0.38924800  0.75000000  1
  Mn  Mn7  1  0.77932700  0.22067300  0.75000000  1
  O  O0  1  0.36441600  0.33068200  0.06376300  1
  O  O1  1  0.69986600  0.00249800  0.06179900  1
  O  O2  1  0.48256700  0.27398600  0.09860600  1
  O  O3  1  0.04411500  0.67398900  0.06106400  1
  O  O4  1  0.89323200  0.84912400  0.08162600  1
  O  O5  1  0.98660200  0.78172700  0.10923700  1
  O  O6  1  0.82732200  0.94829700  0.07563200  1
  O  O7  1  0.20760600  0.50540800  0.07084900  1
  O  O8  1  0.31184200  0.43740700  0.09928700  1
  O  O9  1  0.16106300  0.61549600  0.07674900  1
  O  O10  1  0.55543600  0.17933700  0.08413000  1
  O  O11  1  0.64784300  0.11227700  0.11683500  1
  O  O12  1  0.21827300  0.01339800  0.39076300  1
  O  O13  1  0.56259300  0.68815800  0.40071300  1
  O  O14  1  0.88772300  0.35215700  0.38316500  1
  O  O15  1  0.15087600  0.10676800  0.41837400  1
  O  O16  1  0.72601400  0.51743300  0.40139400  1
  O  O17  1  0.49459200  0.79239400  0.42915100  1
  O  O18  1  0.05170300  0.17267800  0.42436800  1
  O  O19  1  0.82066300  0.44456400  0.41587000  1
  O  O20  1  0.66931800  0.63558400  0.43623700  1
  O  O21  1  0.38450400  0.83893700  0.42325100  1
  O  O22  1  0.99750200  0.30013400  0.43820100  1
  O  O23  1  0.32601100  0.95588500  0.43893600  1
  O  O24  1  0.00249800  0.69986600  0.56179900  1
  O  O25  1  0.33068200  0.36441600  0.56376300  1
  O  O26  1  0.94829700  0.82732200  0.57563200  1
  O  O27  1  0.67398900  0.04411500  0.56106400  1
  O  O28  1  0.50540800  0.20760600  0.57084900  1
  O  O29  1  0.27398600  0.48256700  0.59860600  1
  O  O30  1  0.84912400  0.89323200  0.58162600  1
  O  O31  1  0.61549600  0.16106300  0.57674900  1
  O  O32  1  0.17933700  0.55543600  0.58413000  1
  O  O33  1  0.43740700  0.31184200  0.59928700  1
  O  O34  1  0.78172700  0.98660200  0.60923700  1
  O  O35  1  0.11227700  0.64784300  0.61683500  1
  O  O36  1  0.68815800  0.56259300  0.90071300  1
  O  O37  1  0.79239400  0.49459200  0.92915100  1
  O  O38  1  0.17267800  0.05170300  0.92436800  1
  O  O39  1  0.01339800  0.21827300  0.89076300  1
  O  O40  1  0.10676800  0.15087600  0.91837400  1
  O  O41  1  0.51743300  0.72601400  0.90139400  1
  O  O42  1  0.35215700  0.88772300  0.88316500  1
  O  O43  1  0.44456400  0.82066300  0.91587000  1
  O  O44  1  0.30013400  0.99750200  0.93820100  1
  O  O45  1  0.83893700  0.38450400  0.92325100  1
  O  O46  1  0.63558400  0.66931800  0.93623700  1
  O  O47  1  0.95588500  0.32601100  0.93893600  1
loop_
_geom_bond_atom_site_label_1
_geom_bond_atom_site_label_2
_geom_bond_distance
_geom_bond_site_symmetry_2
Mn0 O33 2.173244 1_555
Mn0 O36 2.173244 1_554
Mn0 O2 2.199868 1_555
Mn0 O16 2.199868 1_555
Mn0 O0 2.247615 1_555
Mn0 O20 2.247615 1_555
Mn1 O7 2.145324 1_555
Mn1 O17 2.145324 1_555
Mn1 O29 2.151635 1_555
Mn1 O41 2.151635 1_554
Mn1 O13 2.219115 1_555
Mn1 O8 2.219115 1_555
Mn2 O1 2.169820 1_555
Mn2 O22 2.169820 1_555
Mn2 O34 2.198691 1_545
Mn2 O39 2.198691 1_654
Mn2 O6 2.369001 1_545
Mn2 O18 2.369001 1_655
Mn3 O3 2.098572 1_555
Mn3 O23 2.098572 1_555
Mn3 O35 2.247351 1_555
Mn3 O42 2.247351 1_554
Mn3 O9 2.308708 1_555
Mn3 O21 2.308708 1_555
Mn4 O24 2.169820 1_555
Mn4 O44 2.169820 1_555
Mn4 O5 2.198691 1_456
Mn4 O12 2.198691 1_565
Mn4 O26 2.369001 1_455
Mn4 O38 2.369001 1_565
Mn5 O8 2.173244 1_556
Mn5 O13 2.173244 1_555
Mn5 O29 2.199868 1_555
Mn5 O41 2.199868 1_555
Mn5 O25 2.247615 1_555
Mn5 O46 2.247615 1_555
Mn6 O28 2.145324 1_555
Mn6 O37 2.145324 1_555
Mn6 O2 2.151635 1_556
Mn6 O16 2.151635 1_555
Mn6 O36 2.219115 1_555
Mn6 O33 2.219115 1_555
Mn7 O27 2.098572 1_555
Mn7 O47 2.098572 1_555
Mn7 O11 2.247351 1_556
Mn7 O14 2.247351 1_555
Mn7 O31 2.308708 1_555
Mn7 O45 2.308708 1_555
O0 Ta8 1.946654 1_554
O0 Ta2 2.055071 1_555
O1 Ta9 2.011966 1_544
O1 Ta4 2.017864 1_545
O2 Ta3 1.846829 1_555
O3 Ta12 1.908434 1_454
O3 Ta0 2.198073 1_455
O4 Ta1 1.967390 1_655
O4 Ta10 2.103946 1_554
O4 Ta5 2.320561 1_555
O5 Ta0 1.944190 1_555
O5 Ta1 2.072498 1_655
O6 Ta5 1.979798 1_555
O6 Ta11 1.993908 1_564
O7 Ta13 1.958378 1_554
O7 Ta7 2.084653 1_555
O8 Ta2 1.822957 1_555
O9 Ta7 1.991316 1_555
O9 Ta14 1.998550 1_554
O10 Ta6 1.979725 1_555
O10 Ta15 2.150043 1_554
O10 Ta3 2.246752 1_555
O11 Ta4 1.951501 1_545
O11 Ta6 2.069755 1_555
O12 Ta3 1.944190 1_555
O12 Ta1 2.072498 1_545
O13 Ta5 1.822957 1_555
O14 Ta7 1.951501 1_655
O14 Ta6 2.069755 1_555
O15 Ta1 1.967390 1_545
O15 Ta8 2.103946 1_555
O15 Ta2 2.320561 1_555
O16 Ta0 1.846829 1_555
O17 Ta9 1.958378 1_555
O17 Ta4 2.084653 1_555
O18 Ta2 1.979798 1_555
O18 Ta11 1.993908 1_455
O19 Ta6 1.979725 1_555
O19 Ta12 2.150043 1_555
O19 Ta0 2.246752 1_555
O20 Ta10 1.946654 1_555
O20 Ta5 2.055071 1_555
O21 Ta4 1.991316 1_555
O21 Ta14 1.998550 1_555
O22 Ta13 2.011966 1_655
O22 Ta7 2.017864 1_655
O23 Ta15 1.908434 1_565
O23 Ta3 2.198073 1_565
O24 Ta0 2.011966 1_455
O24 Ta12 2.017864 1_455
O25 Ta2 1.946654 1_555
O25 Ta8 2.055071 1_555
O26 Ta10 1.979798 1_555
O26 Ta1 1.993908 1_655
O27 Ta4 1.908434 1_545
O27 Ta9 2.198073 1_545
O28 Ta3 1.958378 1_555
O28 Ta15 2.084653 1_555
O29 Ta13 1.846829 1_555
O30 Ta11 1.967390 1_565
O30 Ta5 2.103946 1_555
O30 Ta10 2.320561 1_555
O31 Ta15 1.991316 1_555
O31 Ta6 1.998550 1_555
O32 Ta14 1.979725 1_555
O32 Ta7 2.150043 1_555
O32 Ta13 2.246752 1_555
O33 Ta8 1.822957 1_555
O34 Ta9 1.944190 1_555
O34 Ta11 2.072498 1_565
O35 Ta12 1.951501 1_455
O35 Ta14 2.069755 1_555
O36 Ta10 1.822957 1_555
O37 Ta0 1.958378 1_556
O37 Ta12 2.084653 1_555
O38 Ta8 1.979798 1_555
O38 Ta1 1.993908 1_546
O39 Ta13 1.944190 1_555
O39 Ta11 2.072498 1_455
O40 Ta11 1.967390 1_455
O40 Ta2 2.103946 1_556
O40 Ta8 2.320561 1_555
O41 Ta9 1.846829 1_555
O42 Ta15 1.951501 1_565
O42 Ta14 2.069755 1_555
O43 Ta14 1.979725 1_555
O43 Ta4 2.150043 1_556
O43 Ta9 2.246752 1_555
O44 Ta3 2.011966 1_566
O44 Ta15 2.017864 1_565
O45 Ta12 1.991316 1_555
O45 Ta6 1.998550 1_556
O46 Ta5 1.946654 1_556
O46 Ta10 2.055071 1_555
O47 Ta7 1.908434 1_656
O47 Ta13 2.198073 1_655
