# generated using pymatgen
data_LiVSiO4
_symmetry_space_group_name_H-M   'P 1'
_cell_length_a   5.09935100
_cell_length_b   10.49885505
_cell_length_c   6.85232104
_cell_angle_alpha   89.98835450
_cell_angle_beta   90.00042252
_cell_angle_gamma   89.99998333
_symmetry_Int_Tables_number   1
_chemical_formula_structural   LiVSiO4
_chemical_formula_sum   'Li4 V4 Si4 O16'
_cell_volume   366.85508158
_cell_formula_units_Z   4
loop_
 _symmetry_equiv_pos_site_id
 _symmetry_equiv_pos_as_xyz
  1  'x, y, z'
loop_
 _atom_site_type_symbol
 _atom_site_label
 _atom_site_symmetry_multiplicity
 _atom_site_fract_x
 _atom_site_fract_y
 _atom_site_fract_z
 _atom_site_occupancy
  Li  Li0  1  0.24427300  0.14948900  0.50377700  1
  Li  Li1  1  0.74430300  0.35039200  0.00383400  1
  Li  Li2  1  0.24430300  0.64961100  0.99616500  1
  Li  Li3  1  0.74427200  0.85051000  0.49622500  1
  V  V0  1  0.74633700  0.33329100  0.50975800  1
  V  V1  1  0.24632200  0.66670100  0.49023500  1
  V  V2  1  0.24633100  0.16667200  0.00963600  1
  V  V3  1  0.74632900  0.83332700  0.99036600  1
  Si  Si0  1  0.74983500  0.09472400  0.76064300  1
  Si  Si1  1  0.24986500  0.40508800  0.26061100  1
  Si  Si2  1  0.74986300  0.59491200  0.73938900  1
  Si  Si3  1  0.24983900  0.90527600  0.23936100  1
  O  O0  1  0.18928900  0.05915200  0.23629300  1
  O  O1  1  0.68957500  0.44100500  0.73630500  1
  O  O2  1  0.18956300  0.55899300  0.26368900  1
  O  O3  1  0.68928500  0.94085100  0.76371300  1
  O  O4  1  0.06789400  0.12281500  0.76814300  1
  O  O5  1  0.56781800  0.37685500  0.26810900  1
  O  O6  1  0.06781300  0.62314800  0.73189000  1
  O  O7  1  0.56789800  0.87719000  0.23185900  1
  O  O8  1  0.63111300  0.15979200  0.56052000  1
  O  O9  1  0.13097400  0.34012200  0.06054900  1
  O  O10  1  0.63097200  0.65987800  0.93945100  1
  O  O11  1  0.13112100  0.84020500  0.43947900  1
  O  O12  1  0.61712400  0.16785100  0.94969500  1
  O  O13  1  0.11698600  0.33189900  0.44953800  1
  O  O14  1  0.61697600  0.66810100  0.55046200  1
  O  O15  1  0.11712700  0.83215200  0.05030500  1
loop_
_geom_bond_atom_site_label_1
_geom_bond_atom_site_label_2
_geom_bond_distance
_geom_bond_site_symmetry_2
Li0 O8 2.013497 1_555
Li0 O4 2.041765 1_555
Li0 O13 2.055904 1_555
Li0 O0 2.082862 1_555
Li1 O9 2.012588 1_655
Li1 O5 2.041248 1_555
Li1 O12 2.057028 1_554
Li1 O1 2.083940 1_554
Li2 O10 2.012581 1_555
Li2 O6 2.041247 1_555
Li2 O15 2.057026 1_556
Li2 O2 2.083945 1_556
Li3 O11 2.013552 1_655
Li3 O7 2.041751 1_555
Li3 O14 2.055908 1_555
Li3 O3 2.082911 1_555
O0 Si3 1.644894 1_545
O0 V2 1.941746 1_555
O1 Si2 1.644973 1_555
O1 V0 1.942482 1_555
O2 Si1 1.644965 1_555
O2 V1 1.942435 1_555
O3 Si0 1.644863 1_565
O3 V3 1.941747 1_555
O4 Si0 1.649293 1_455
O4 V2 1.943853 1_556
O5 Si1 1.649025 1_555
O5 V0 1.944074 1_555
O6 Si2 1.649016 1_455
O6 V1 1.944069 1_555
O7 Si3 1.649285 1_555
O7 V3 1.943865 1_554
O8 Si0 1.647205 1_555
O8 V0 1.945246 1_555
O9 Si1 1.646961 1_555
O9 V2 1.945287 1_555
O10 Si2 1.646969 1_555
O10 V3 1.945279 1_555
O11 Si3 1.647190 1_555
O11 V1 1.945251 1_555
O12 Si0 1.651064 1_555
O12 V2 1.934943 1_556
O13 Si1 1.650801 1_555
O13 V0 1.934649 1_455
O14 Si2 1.650810 1_555
O14 V1 1.934679 1_555
O15 Si3 1.651065 1_555
O15 V3 1.934959 1_454
