# generated using pymatgen
data_Sr2WO5
_symmetry_space_group_name_H-M   'P 1'
_cell_length_a   5.55216106
_cell_length_b   7.21996592
_cell_length_c   10.97935649
_cell_angle_alpha   90.00000000
_cell_angle_beta   90.00000000
_cell_angle_gamma   90.00000000
_symmetry_Int_Tables_number   1
_chemical_formula_structural   Sr2WO5
_chemical_formula_sum   'Sr8 W4 O20'
_cell_volume   440.12302571
_cell_formula_units_Z   4
loop_
 _symmetry_equiv_pos_site_id
 _symmetry_equiv_pos_as_xyz
  1  'x, y, z'
loop_
 _atom_site_type_symbol
 _atom_site_label
 _atom_site_symmetry_multiplicity
 _atom_site_fract_x
 _atom_site_fract_y
 _atom_site_fract_z
 _atom_site_occupancy
  Sr  Sr0  1  0.25000000  0.01970155  0.78252127  1
  Sr  Sr1  1  0.25000000  0.51970155  0.71747873  1
  Sr  Sr2  1  0.75000000  0.98029845  0.21747873  1
  Sr  Sr3  1  0.75000000  0.48029845  0.28252127  1
  Sr  Sr4  1  0.25000000  0.32025843  0.08474344  1
  Sr  Sr5  1  0.25000000  0.82025843  0.41525656  1
  Sr  Sr6  1  0.75000000  0.67974157  0.91525656  1
  Sr  Sr7  1  0.75000000  0.17974157  0.58474344  1
  W  W0  1  0.25000000  0.31349875  0.43566675  1
  W  W1  1  0.25000000  0.81349875  0.06433325  1
  W  W2  1  0.75000000  0.68650125  0.56433325  1
  W  W3  1  0.75000000  0.18650125  0.93566675  1
  O  O0  1  0.99848609  0.33955853  0.88958146  1
  O  O1  1  0.50151391  0.83955853  0.61041854  1
  O  O2  1  0.49848609  0.66044147  0.11041854  1
  O  O3  1  0.00151391  0.16044147  0.38958146  1
  O  O4  1  0.00151391  0.66044147  0.11041854  1
  O  O5  1  0.49848609  0.16044147  0.38958146  1
  O  O6  1  0.50151391  0.33955853  0.88958146  1
  O  O7  1  0.99848609  0.83955853  0.61041854  1
  O  O8  1  -0.00000000  0.00000000  0.00000000  1
  O  O9  1  0.50000000  0.50000000  0.50000000  1
  O  O10  1  0.50000000  0.00000000  0.00000000  1
  O  O11  1  -0.00000000  0.50000000  0.50000000  1
  O  O12  1  0.25000000  0.22598750  0.60419552  1
  O  O13  1  0.25000000  0.72598750  0.89580448  1
  O  O14  1  0.75000000  0.77401250  0.39580448  1
  O  O15  1  0.75000000  0.27401250  0.10419552  1
  O  O16  1  0.25000000  0.46051264  0.29541876  1
  O  O17  1  0.25000000  0.96051264  0.20458124  1
  O  O18  1  0.75000000  0.53948736  0.70458124  1
  O  O19  1  0.75000000  0.03948736  0.79541876  1
loop_
_geom_bond_atom_site_label_1
_geom_bond_atom_site_label_2
_geom_bond_distance
_geom_bond_site_symmetry_2
O0 W3 1.838638 1_555
O0 Sr4 2.561419 1_656
O0 Sr1 2.685552 1_655
O0 Sr6 2.831136 1_555
O0 Sr0 2.943616 1_655
O1 W2 1.838638 1_555
O1 Sr5 2.561419 1_555
O1 Sr0 2.685552 1_565
O1 Sr7 2.831136 1_565
O1 Sr1 2.943616 1_555
O2 W1 1.838638 1_555
O2 Sr6 2.561419 1_554
O2 Sr3 2.685552 1_555
O2 Sr4 2.831136 1_555
O2 Sr2 2.943616 1_555
O3 W0 1.838638 1_555
O3 Sr7 2.561419 1_455
O3 Sr2 2.685552 1_445
O3 Sr5 2.831136 1_545
O3 Sr3 2.943616 1_455
O4 W1 1.838638 1_555
O4 Sr6 2.561419 1_454
O4 Sr3 2.685552 1_455
O4 Sr4 2.831136 1_555
O4 Sr2 2.943616 1_455
O5 W0 1.838638 1_555
O5 Sr7 2.561419 1_555
O5 Sr2 2.685552 1_545
O5 Sr5 2.831136 1_545
O5 Sr3 2.943616 1_555
O6 W3 1.838638 1_555
O6 Sr4 2.561419 1_556
O6 Sr1 2.685552 1_555
O6 Sr6 2.831136 1_555
O6 Sr0 2.943616 1_555
O7 W2 1.838638 1_555
O7 Sr5 2.561419 1_655
O7 Sr0 2.685552 1_665
O7 Sr7 2.831136 1_565
O7 Sr1 2.943616 1_655
O8 W1 2.058815 1_545
O8 W3 2.058815 1_454
O8 Sr2 2.765568 1_445
O8 Sr0 2.765568 1_554
O8 Sr6 2.852872 1_444
O8 Sr4 2.852872 1_555
O9 W2 2.058815 1_555
O9 W0 2.058815 1_555
O9 Sr1 2.765568 1_555
O9 Sr3 2.765568 1_555
O9 Sr7 2.852872 1_555
O9 Sr5 2.852872 1_555
O10 W1 2.058815 1_545
O10 W3 2.058815 1_554
O10 Sr2 2.765568 1_545
O10 Sr0 2.765568 1_554
O10 Sr6 2.852872 1_544
O10 Sr4 2.852872 1_555
O11 W2 2.058815 1_455
O11 W0 2.058815 1_555
O11 Sr1 2.765568 1_555
O11 Sr3 2.765568 1_455
O11 Sr7 2.852872 1_455
O11 Sr5 2.852872 1_555
O12 W0 1.955238 1_555
O12 Sr1 2.458444 1_555
O12 Sr0 2.460005 1_555
O12 Sr7 2.804233 1_455
O12 Sr7 2.804233 1_555
O13 W1 1.955238 1_556
O13 Sr0 2.458444 1_565
O13 Sr1 2.460005 1_555
O13 Sr6 2.804233 1_555
O13 Sr6 2.804233 1_455
O14 W2 1.955238 1_555
O14 Sr3 2.458444 1_555
O14 Sr2 2.460005 1_555
O14 Sr5 2.804233 1_555
O14 Sr5 2.804233 1_655
O15 W3 1.955238 1_554
O15 Sr2 2.458444 1_545
O15 Sr3 2.460005 1_555
O15 Sr4 2.804233 1_555
O15 Sr4 2.804233 1_655
O16 W0 1.870222 1_555
O16 Sr4 2.525026 1_555
O16 Sr3 2.783358 1_455
O16 Sr3 2.783358 1_555
O16 Sr5 2.911600 1_555
O17 W1 1.870222 1_555
O17 Sr5 2.525026 1_555
O17 Sr2 2.783358 1_555
O17 Sr2 2.783358 1_455
O17 Sr4 2.911600 1_565
O18 W2 1.870222 1_555
O18 Sr6 2.525026 1_555
O18 Sr1 2.783358 1_655
O18 Sr1 2.783358 1_555
O18 Sr7 2.911600 1_555
O19 W3 1.870222 1_555
O19 Sr7 2.525026 1_555
O19 Sr0 2.783358 1_555
O19 Sr0 2.783358 1_655
O19 Sr6 2.911600 1_545
