# generated using pymatgen
data_Li2TiNi2O5
_symmetry_space_group_name_H-M   'P 1'
_cell_length_a   7.71999609
_cell_length_b   7.71999609
_cell_length_c   5.18299826
_cell_angle_alpha   83.05862346
_cell_angle_beta   83.05862346
_cell_angle_gamma   141.01914188
_symmetry_Int_Tables_number   1
_chemical_formula_structural   Li2TiNi2O5
_chemical_formula_sum   'Li4 Ti2 Ni4 O10'
_cell_volume   181.12035993
_cell_formula_units_Z   2
loop_
 _symmetry_equiv_pos_site_id
 _symmetry_equiv_pos_as_xyz
  1  'x, y, z'
loop_
 _atom_site_type_symbol
 _atom_site_label
 _atom_site_symmetry_multiplicity
 _atom_site_fract_x
 _atom_site_fract_y
 _atom_site_fract_z
 _atom_site_occupancy
  Li  Li0  1  0.30151800  0.69848200  0.00000000  1
  Li  Li1  1  0.20175000  0.79825000  0.50000000  1
  Li  Li2  1  0.89748800  0.10251200  0.00000000  1
  Li  Li3  1  0.59978500  0.40021500  0.50000000  1
  Ti  Ti0  1  0.09979700  0.90020300  0.00000000  1
  Ti  Ti1  1  0.79904700  0.20095300  0.50000000  1
  Ni  Ni0  1  0.40000000  0.60000000  0.50000000  1
  Ni  Ni1  1  0.70155300  0.29844700  0.00000000  1
  Ni  Ni2  1  0.49611700  0.50388300  0.00000000  1
  Ni  Ni3  1  0.00099500  0.99900500  0.50000000  1
  O  O0  1  0.64850900  0.85453600  0.73514200  1
  O  O1  1  0.57234100  0.97246300  0.27347700  1
  O  O2  1  0.86298100  0.66596500  0.77161000  1
  O  O3  1  0.02753700  0.42765900  0.72652300  1
  O  O4  1  0.14546400  0.35149100  0.26485800  1
  O  O5  1  0.76430200  0.75347600  0.24144300  1
  O  O6  1  0.94851000  0.54824000  0.24418200  1
  O  O7  1  0.24652400  0.23569800  0.75855700  1
  O  O8  1  0.45176000  0.05149000  0.75581800  1
  O  O9  1  0.33403500  0.13701900  0.22839000  1
loop_
_geom_bond_atom_site_label_1
_geom_bond_atom_site_label_2
_geom_bond_distance
_geom_bond_site_symmetry_2
Li0 O4 2.050782 1_555
Li0 O0 2.050782 1_554
Li0 O8 2.066665 1_564
Li0 O6 2.066665 1_455
Li0 O3 2.328050 1_554
Li0 O1 2.328050 1_555
Li1 O1 2.048566 1_555
Li1 O3 2.048566 1_555
Li1 O2 2.115347 1_455
Li1 O9 2.115347 1_565
Li1 O8 2.164245 1_565
Li1 O6 2.164245 1_455
Li2 O1 2.048376 1_545
Li2 O3 2.048376 1_654
Li2 O5 2.109600 1_545
Li2 O7 2.109600 1_654
Li2 O0 2.189977 1_544
Li2 O4 2.189977 1_655
Li3 O7 2.041227 1_555
Li3 O5 2.041227 1_555
Li3 O6 2.073541 1_555
Li3 O8 2.073541 1_555
Li3 O9 2.286445 1_555
Li3 O2 2.286445 1_555
Ni0 O1 2.067667 1_555
Ni0 O3 2.067667 1_555
Ni0 O4 2.076094 1_555
Ni0 O0 2.076094 1_555
Ni0 O7 2.152654 1_555
Ni0 O5 2.152654 1_555
Ni1 O3 2.056840 1_654
Ni1 O1 2.056840 1_545
Ni1 O9 2.082950 1_555
Ni1 O2 2.082950 1_554
Ni1 O8 2.100578 1_554
Ni1 O6 2.100578 1_555
Ni2 O2 2.076106 1_554
Ni2 O9 2.076106 1_555
Ni2 O0 2.087266 1_554
Ni2 O4 2.087266 1_555
Ni2 O7 2.138237 1_554
Ni2 O5 2.138237 1_555
Ni3 O9 2.056948 1_565
Ni3 O2 2.056948 1_455
Ni3 O4 2.070142 1_565
Ni3 O0 2.070142 1_455
Ni3 O5 2.132756 1_455
Ni3 O7 2.132756 1_565
O0 Ti1 2.006448 1_565
O1 Ti1 1.936635 1_565
O2 Ti0 1.978447 1_656
O3 Ti1 1.936635 1_455
O4 Ti1 2.006448 1_455
O5 Ti0 1.967242 1_655
O6 Ti0 2.055832 1_655
O6 Ti1 2.058851 1_555
O7 Ti0 1.967242 1_546
O8 Ti0 2.055832 1_546
O8 Ti1 2.058851 1_555
O9 Ti0 1.978447 1_545
