# generated using pymatgen
data_LiVCrP2(O4F)2
_symmetry_space_group_name_H-M   'P 1'
_cell_length_a   5.16306400
_cell_length_b   7.33087889
_cell_length_c   14.65600245
_cell_angle_alpha   92.04194075
_cell_angle_beta   93.53204859
_cell_angle_gamma   106.09824179
_symmetry_Int_Tables_number   1
_chemical_formula_structural   LiVCrP2(O4F)2
_chemical_formula_sum   'Li3 V3 Cr3 P6 O24 F6'
_cell_volume   531.15788805
_cell_formula_units_Z   3
loop_
 _symmetry_equiv_pos_site_id
 _symmetry_equiv_pos_as_xyz
  1  'x, y, z'
loop_
 _atom_site_type_symbol
 _atom_site_label
 _atom_site_symmetry_multiplicity
 _atom_site_fract_x
 _atom_site_fract_y
 _atom_site_fract_z
 _atom_site_occupancy
  Li  Li0  1  0.06953800  0.32743000  0.14599700  1
  Li  Li1  1  0.40122500  0.65817500  0.47814900  1
  Li  Li2  1  0.93232700  0.67412000  0.85302600  1
  V  V0  1  0.99975600  0.00003300  0.99977000  1
  V  V1  1  0.33342300  0.32811300  0.33485500  1
  V  V2  1  0.66606300  0.66665100  0.66637400  1
  Cr  Cr0  1  0.00465600  0.00315600  0.50057400  1
  Cr  Cr1  1  0.32698700  0.32904400  0.83206800  1
  Cr  Cr2  1  0.67162700  0.66987500  0.16703900  1
  P  P0  1  0.27040100  0.94574500  0.70668300  1
  P  P1  1  0.06214100  0.38706700  0.62663700  1
  P  P2  1  0.40020700  0.71666900  0.96290200  1
  P  P3  1  0.59905500  0.28284100  0.03698200  1
  P  P4  1  0.93270100  0.61423700  0.37116700  1
  P  P5  1  0.72989200  0.05138500  0.29426600  1
  O  O0  1  0.09243600  0.77662900  0.44001600  1
  O  O1  1  0.23302400  0.86743100  0.95413600  1
  O  O2  1  0.25197300  0.99561500  0.60702000  1
  O  O3  1  0.07921200  0.33692900  0.72643000  1
  O  O4  1  0.10660200  0.46778000  0.38193500  1
  O  O5  1  0.23948100  0.55760000  0.89283200  1
  O  O6  1  0.01136300  0.16321100  0.26191300  1
  O  O7  1  0.44956000  0.80236400  0.71324000  1
  O  O8  1  0.34333700  0.49652200  0.59366800  1
  O  O9  1  0.40403200  0.65572700  0.06103500  1
  O  O10  1  0.58378900  0.88922200  0.22588200  1
  O  O11  1  0.69064400  0.80748500  0.93235500  1
  O  O12  1  0.30896700  0.19243100  0.06801900  1
  O  O13  1  0.41565600  0.11178900  0.77352200  1
  O  O14  1  0.59419400  0.34330300  0.93896400  1
  O  O15  1  0.64296100  0.52607600  0.40213100  1
  O  O16  1  0.55676900  0.19980600  0.28923400  1
  O  O17  1  0.98952700  0.83673400  0.74008800  1
  O  O18  1  0.75997900  0.44234800  0.10716500  1
  O  O19  1  0.88376100  0.53112300  0.62059700  1
  O  O20  1  0.92852100  0.66592200  0.27165400  1
  O  O21  1  0.74601500  0.99320600  0.39265000  1
  O  O22  1  0.76732500  0.13293300  0.04637100  1
  O  O23  1  0.91728000  0.22134000  0.55986500  1
  F  F0  1  0.03548900  0.15402500  0.89454900  1
  F  F1  1  0.36989300  0.48629700  0.22487300  1
  F  F2  1  0.29808300  0.17713200  0.44026300  1
  F  F3  1  0.70074200  0.82152400  0.55718000  1
  F  F4  1  0.63014800  0.51150800  0.77595600  1
  F  F5  1  0.96281600  0.84590300  0.10547600  1
loop_
_geom_bond_atom_site_label_1
_geom_bond_atom_site_label_2
_geom_bond_distance
_geom_bond_site_symmetry_2
Li0 O18 2.063225 1_455
Li0 O6 2.105647 1_555
Li0 O12 2.141407 1_555
Li0 O22 2.221879 1_455
Li1 O0 2.073829 1_555
Li1 O8 2.090216 1_555
Li1 O15 2.121685 1_555
Li1 O4 2.160669 1_555
Li2 O17 2.062446 1_555
Li2 O5 2.063417 1_655
Li2 O11 2.153832 1_555
Li2 O1 2.227393 1_655
Cr0 O23 1.966311 1_455
Cr0 O2 1.966528 1_545
Cr0 F2 1.968988 1_555
Cr0 O21 1.991971 1_445
Cr0 F3 2.000954 1_445
Cr0 O0 2.027997 1_545
Cr1 O13 1.959031 1_555
Cr1 O3 1.959658 1_555
Cr1 F0 1.983052 1_555
Cr1 F4 1.997849 1_555
Cr1 O14 2.002681 1_555
Cr1 O5 2.041475 1_555
Cr2 O20 1.970990 1_555
Cr2 O10 1.972026 1_555
Cr2 F5 1.978336 1_555
Cr2 O9 1.994451 1_555
Cr2 F1 2.009443 1_555
Cr2 O18 2.031558 1_555
O0 P4 1.543684 1_455
O1 P2 1.583856 1_555
O1 V0 1.882812 1_465
O2 P0 1.521993 1_555
O3 P1 1.523928 1_555
O4 P4 1.585252 1_455
O4 V1 1.900020 1_555
O5 P2 1.541455 1_555
O6 P5 1.568674 1_455
O6 V1 1.985774 1_555
O7 P0 1.582768 1_555
O7 V2 1.836784 1_555
O8 P1 1.566257 1_555
O8 V2 2.000352 1_555
O9 P2 1.521740 1_554
O10 P5 1.520319 1_565
O11 P2 1.562887 1_555
O11 V0 1.993183 1_565
O12 P3 1.563441 1_555
O12 V0 1.998140 1_454
O13 P0 1.523805 1_545
O14 P3 1.519169 1_556
O15 P4 1.558805 1_555
O15 V1 2.012478 1_555
O16 P5 1.589091 1_555
O16 V1 1.820232 1_555
O17 P0 1.566522 1_655
O17 V2 2.009435 1_555
O18 P3 1.544627 1_555
O19 P1 1.583449 1_655
O19 V2 1.834477 1_555
O20 P4 1.520256 1_555
O21 P5 1.522065 1_565
O22 P3 1.583340 1_555
O22 V0 1.886207 1_554
O23 P1 1.521276 1_655
F0 V0 1.931370 1_455
F1 Li0 1.944003 1_555
F1 V1 2.006965 1_555
F2 V1 1.920814 1_555
F3 Li1 1.954614 1_555
F3 V2 1.983495 1_555
F4 Li2 1.945905 1_555
F4 V2 1.989262 1_555
F5 V0 1.937734 1_564
