# generated using pymatgen
data_Li13Mn3Nb2O16
_symmetry_space_group_name_H-M   'P 1'
_cell_length_a   6.02467037
_cell_length_b   6.02467037
_cell_length_c   9.99811452
_cell_angle_alpha   88.95306161
_cell_angle_beta   88.95306161
_cell_angle_gamma   60.70745475
_symmetry_Int_Tables_number   1
_chemical_formula_structural   Li13Mn3Nb2O16
_chemical_formula_sum   'Li13 Mn3 Nb2 O16'
_cell_volume   316.42442467
_cell_formula_units_Z   1
loop_
 _symmetry_equiv_pos_site_id
 _symmetry_equiv_pos_as_xyz
  1  'x, y, z'
loop_
 _atom_site_type_symbol
 _atom_site_label
 _atom_site_symmetry_multiplicity
 _atom_site_fract_x
 _atom_site_fract_y
 _atom_site_fract_z
 _atom_site_occupancy
  Li  Li0  1  0.00311800  0.00311800  0.01747500  1
  Li  Li1  1  0.12342500  0.12342500  0.50208300  1
  Li  Li2  1  0.74007200  0.34600300  0.22570200  1
  Li  Li3  1  0.16321700  0.16321700  0.25613200  1
  Li  Li4  1  0.17279900  0.17279900  0.74328200  1
  Li  Li5  1  0.82466300  0.41629400  0.97525800  1
  Li  Li6  1  0.34600300  0.74007200  0.22570200  1
  Li  Li7  1  0.41629400  0.82466300  0.97525800  1
  Li  Li8  1  0.66919800  0.66919800  0.75063900  1
  Li  Li9  1  0.32481500  0.32481500  0.40221100  1
  Li  Li10  1  0.71433400  0.11993100  0.45710700  1
  Li  Li11  1  0.11993100  0.71433400  0.45710700  1
  Li  Li12  1  0.81847700  0.81847700  0.94323700  1
  Mn  Mn0  1  0.66191200  0.16758500  0.72036100  1
  Mn  Mn1  1  0.16758500  0.66191200  0.72036100  1
  Mn  Mn2  1  0.82025600  0.82025600  0.21956300  1
  Nb  Nb0  1  0.64984300  0.64984300  0.48067600  1
  Nb  Nb1  1  0.34456000  0.34456000  0.99055700  1
  O  O0  1  0.80726000  0.33471900  0.59911900  1
  O  O1  1  0.17190200  0.17190200  0.06582800  1
  O  O2  1  0.49691700  0.49691700  0.36846500  1
  O  O3  1  0.50390500  0.03173200  0.84908700  1
  O  O4  1  0.33471900  0.80726000  0.59911900  1
  O  O5  1  0.66396300  0.15782100  0.08819700  1
  O  O6  1  0.97303000  0.48982700  0.36092700  1
  O  O7  1  0.67276700  0.67276700  0.11292500  1
  O  O8  1  0.34066400  0.34066400  0.62106700  1
  O  O9  1  0.03173200  0.50390500  0.84908700  1
  O  O10  1  0.48982700  0.97303000  0.36092700  1
  O  O11  1  0.15782100  0.66396300  0.08819700  1
  O  O12  1  0.50486800  0.50486800  0.86615800  1
  O  O13  1  0.81512000  0.81512000  0.58750500  1
  O  O14  1  0.98165400  0.98165400  0.31911200  1
  O  O15  1  0.98399600  0.98399600  0.82004400  1
loop_
_geom_bond_atom_site_label_1
_geom_bond_atom_site_label_2
_geom_bond_distance
_geom_bond_site_symmetry_2
Li0 O1 1.830167 1_555
Li0 O11 1.910879 1_545
Li0 O5 1.910879 1_455
Li0 O15 1.988110 1_444
Li1 O0 1.948031 1_455
Li1 O4 1.948031 1_545
Li1 O14 2.373541 1_445
Li1 O10 2.379339 1_545
Li1 O6 2.379339 1_455
Li2 O2 1.917735 1_555
Li2 O5 1.993576 1_555
Li2 O7 2.113251 1_555
Li2 O14 2.158108 1_545
Li2 O6 2.418815 1_555
Li3 O1 1.902912 1_555
Li3 O14 1.977384 1_445
Li3 O6 2.026773 1_455
Li3 O10 2.026773 1_545
Li4 O9 2.050826 1_555
Li4 O3 2.050826 1_555
Li4 O15 2.092606 1_445
Li4 O8 2.109311 1_555
Li4 O0 2.416909 1_455
Li4 O4 2.416909 1_545
Li5 O7 1.941008 1_556
Li5 O9 1.997181 1_655
Li5 O12 2.058174 1_555
Li5 O1 2.090633 1_656
Li5 O5 2.451199 1_556
Li6 O2 1.917735 1_555
Li6 O11 1.993576 1_555
Li6 O7 2.113251 1_555
Li6 O14 2.158108 1_455
Li6 O10 2.418815 1_555
Li7 O7 1.941008 1_556
Li7 O3 1.997181 1_565
Li7 O12 2.058174 1_555
Li7 O1 2.090633 1_566
Li7 O11 2.451199 1_556
Li8 O12 2.042022 1_555
Li8 O9 2.155318 1_655
Li8 O3 2.155318 1_565
Li8 O13 2.203974 1_555
Li8 O4 2.339422 1_555
Li8 O0 2.339422 1_555
Li9 O2 1.813951 1_555
Li9 O10 1.898873 1_545
Li9 O6 1.898873 1_455
Li9 O8 2.197821 1_555
Li10 O14 1.959396 1_545
Li10 O13 2.071483 1_545
Li10 O2 2.171944 1_555
Li10 O10 2.188030 1_545
Li10 O0 2.192947 1_555
Li11 O14 1.959396 1_455
Li11 O13 2.071483 1_455
Li11 O2 2.171944 1_555
Li11 O6 2.188030 1_455
Li11 O4 2.192947 1_555
Li12 O9 1.940840 1_655
Li12 O3 1.940840 1_565
Li12 O15 2.095036 1_555
Li12 O7 2.250514 1_556
Li12 O5 2.311601 1_566
Li12 O11 2.311601 1_656
Mn0 O8 1.968821 1_555
Mn0 O3 1.977787 1_555
Mn0 O15 1.977930 1_545
Mn0 O0 2.007371 1_555
Mn0 O13 2.294750 1_545
Mn0 O12 2.307745 1_555
Mn1 O8 1.968821 1_555
Mn1 O9 1.977787 1_555
Mn1 O15 1.977930 1_455
Mn1 O4 2.007371 1_555
Mn1 O13 2.294750 1_455
Mn1 O12 2.307745 1_555
Mn2 O7 1.886191 1_555
Mn2 O14 1.969156 1_555
Mn2 O11 2.195769 1_655
Mn2 O5 2.195769 1_565
Mn2 O10 2.227000 1_555
Mn2 O6 2.227000 1_555
Nb0 O2 1.965330 1_555
Nb0 O0 2.025624 1_555
Nb0 O4 2.025624 1_555
Nb0 O13 2.042487 1_555
Nb0 O6 2.067412 1_555
Nb0 O10 2.067412 1_555
Nb1 O1 1.931843 1_556
Nb1 O11 1.957473 1_556
Nb1 O5 1.957473 1_556
Nb1 O12 2.058505 1_555
Nb1 O3 2.179814 1_555
Nb1 O9 2.179814 1_555
