# generated using pymatgen
data_Na7SbO6
_symmetry_space_group_name_H-M   'P 1'
_cell_length_a   6.39299520
_cell_length_b   6.39299520
_cell_length_c   6.39299557
_cell_angle_alpha   61.16445274
_cell_angle_beta   61.16445274
_cell_angle_gamma   61.16444897
_symmetry_Int_Tables_number   1
_chemical_formula_structural   Na7SbO6
_chemical_formula_sum   'Na7 Sb1 O6'
_cell_volume   189.59639606
_cell_formula_units_Z   1
loop_
 _symmetry_equiv_pos_site_id
 _symmetry_equiv_pos_as_xyz
  1  'x, y, z'
loop_
 _atom_site_type_symbol
 _atom_site_label
 _atom_site_symmetry_multiplicity
 _atom_site_fract_x
 _atom_site_fract_y
 _atom_site_fract_z
 _atom_site_occupancy
  Na  Na0  1  0.70648000  0.11418200  0.49664200  1
  Na  Na1  1  0.95721700  0.48259100  0.24985700  1
  Na  Na2  1  0.48259100  0.24985700  0.95721700  1
  Na  Na3  1  0.65561200  0.65561200  0.65561200  1
  Na  Na4  1  0.11418200  0.49664200  0.70648000  1
  Na  Na5  1  0.49664200  0.70648000  0.11418200  1
  Na  Na6  1  0.24985700  0.95721700  0.48259100  1
  Sb  Sb0  1  0.00095400  0.00095400  0.00095400  1
  O  O0  1  0.88987500  0.21319000  0.67750600  1
  O  O1  1  0.81279200  0.33782000  0.07522400  1
  O  O2  1  0.33782000  0.07522400  0.81279200  1
  O  O3  1  0.67750600  0.88987500  0.21319000  1
  O  O4  1  0.21319000  0.67750600  0.88987500  1
  O  O5  1  0.07522400  0.81279200  0.33782000  1
loop_
_geom_bond_atom_site_label_1
_geom_bond_atom_site_label_2
_geom_bond_distance
_geom_bond_site_symmetry_2
Na0 O2 2.277618 1_555
Na0 O1 2.284717 1_555
Na0 O5 2.344696 1_645
Na0 O0 2.416949 1_555
Na1 O4 2.257214 1_654
Na1 O3 2.314428 1_555
Na1 O0 2.379930 1_555
Na1 O1 2.402246 1_555
Na2 O3 2.257214 1_546
Na2 O0 2.314428 1_555
Na2 O4 2.379930 1_555
Na2 O2 2.402246 1_555
Na3 O0 2.448827 1_555
Na3 O4 2.448827 1_555
Na3 O3 2.448827 1_555
Na3 O2 2.776216 1_565
Na3 O5 2.776216 1_655
Na3 O1 2.776216 1_556
Na4 O5 2.277618 1_555
Na4 O2 2.284716 1_555
Na4 O1 2.344696 1_456
Na4 O4 2.416949 1_555
Na5 O1 2.277618 1_555
Na5 O5 2.284716 1_555
Na5 O2 2.344696 1_564
Na5 O3 2.416949 1_555
Na6 O0 2.257214 1_465
Na6 O4 2.314428 1_555
Na6 O3 2.379930 1_555
Na6 O5 2.402246 1_555
O0 Sb0 2.098037 1_656
O1 Sb0 2.060804 1_655
O2 Sb0 2.060804 1_556
O3 Sb0 2.098036 1_665
O4 Sb0 2.098036 1_566
O5 Sb0 2.060804 1_565
