# generated using pymatgen
data_LiMnPO4F
_symmetry_space_group_name_H-M   'P 1'
_cell_length_a   5.11096100
_cell_length_b   12.87747754
_cell_length_c   13.04451336
_cell_angle_alpha   119.22336343
_cell_angle_beta   89.95851885
_cell_angle_gamma   90.34874285
_symmetry_Int_Tables_number   1
_chemical_formula_structural   LiMnPO4F
_chemical_formula_sum   'Li8 Mn8 P8 O32 F8'
_cell_volume   749.25253611
_cell_formula_units_Z   8
loop_
 _symmetry_equiv_pos_site_id
 _symmetry_equiv_pos_as_xyz
  1  'x, y, z'
loop_
 _atom_site_type_symbol
 _atom_site_label
 _atom_site_symmetry_multiplicity
 _atom_site_fract_x
 _atom_site_fract_y
 _atom_site_fract_z
 _atom_site_occupancy
  Li  Li0  1  0.79223700  0.32939300  0.17115100  1
  Li  Li1  1  0.72458300  0.82677000  0.66827600  1
  Li  Li2  1  0.25135300  0.92800000  0.84411300  1
  Li  Li3  1  0.73777900  0.82088100  0.41439400  1
  Li  Li4  1  0.24476300  0.66125900  0.08113200  1
  Li  Li5  1  0.74251800  0.83537800  0.16359700  1
  Li  Li6  1  0.26242700  0.18337700  0.58972100  1
  Li  Li7  1  0.75641500  0.56923400  0.67681700  1
  Mn  Mn0  1  0.28212100  0.18271600  0.11904300  1
  Mn  Mn1  1  0.22812300  0.67513300  0.60456400  1
  Mn  Mn2  1  0.78814300  0.60276800  0.17943000  1
  Mn  Mn3  1  0.28987600  0.89864000  0.32219200  1
  Mn  Mn4  1  0.69759900  0.11884000  0.68790300  1
  Mn  Mn5  1  0.20971900  0.38839400  0.81830000  1
  Mn  Mn6  1  0.78683600  0.31910200  0.38653600  1
  Mn  Mn7  1  0.71687700  0.82140300  0.89576800  1
  P  P0  1  0.73315600  0.58545000  0.42356200  1
  P  P1  1  0.27889700  0.41679900  0.07931100  1
  P  P2  1  0.76424900  0.08314500  0.92550000  1
  P  P3  1  0.22810300  0.91717800  0.57751000  1
  P  P4  1  0.77692600  0.08341700  0.42548200  1
  P  P5  1  0.23035900  0.91390600  0.07731400  1
  P  P6  1  0.72583500  0.58036900  0.92406900  1
  P  P7  1  0.26361400  0.41859200  0.57468500  1
  O  O0  1  0.61809800  0.16906700  0.03974000  1
  O  O1  1  0.17568700  0.33061300  0.12143900  1
  O  O2  1  0.84715000  0.45870900  0.36299100  1
  O  O3  1  0.44471600  0.59121100  0.45369000  1
  O  O4  1  0.88216600  0.66933500  0.54212000  1
  O  O5  1  0.57211900  0.44429100  0.10891800  1
  O  O6  1  0.13164700  0.53822700  0.14919600  1
  O  O7  1  0.78880100  0.64360700  0.34532900  1
  O  O8  1  0.32094700  0.83688600  0.63010900  1
  O  O9  1  0.63063100  0.95515600  0.86874200  1
  O  O10  1  0.05265500  0.07072700  0.94990900  1
  O  O11  1  0.33957800  0.86017500  0.44997300  1
  O  O12  1  0.92642800  0.92637500  0.58027100  1
  O  O13  1  0.84606400  0.64883700  0.05191900  1
  O  O14  1  0.35826900  0.03903200  0.65398600  1
  O  O15  1  0.72534500  0.12566500  0.83622000  1
  O  O16  1  0.32678600  0.85804400  0.15442200  1
  O  O17  1  0.64056500  0.96008300  0.34205600  1
  O  O18  1  0.20691300  0.36043000  0.94912400  1
  O  O19  1  0.06950300  0.05679200  0.43005700  1
  O  O20  1  0.64458600  0.13274300  0.54728100  1
  O  O21  1  0.93194800  0.89472800  0.05963500  1
  O  O22  1  0.32636000  0.04275900  0.13652600  1
  O  O23  1  0.71737800  0.16644800  0.37682000  1
  O  O24  1  0.21137200  0.36801900  0.65871700  1
  O  O25  1  0.87298200  0.46482800  0.84963600  1
  O  O26  1  0.43340300  0.55804100  0.93244200  1
  O  O27  1  0.12300600  0.33505700  0.45876700  1
  O  O28  1  0.55731000  0.42825400  0.55516200  1
  O  O29  1  0.13327400  0.54537500  0.63245400  1
  O  O30  1  0.77196900  0.65939200  0.86519900  1
  O  O31  1  0.36282200  0.83818100  0.95552400  1
  F  F0  1  0.51162400  0.28781500  0.27520600  1
  F  F1  1  0.99741300  0.80014100  0.78040400  1
  F  F2  1  0.50405200  0.71338000  0.21966900  1
  F  F3  1  0.98874600  0.79711100  0.27188300  1
  F  F4  1  0.00604100  0.20759400  0.71356400  1
  F  F5  1  0.49402500  0.28216100  0.76041900  1
  F  F6  1  0.98525100  0.21858300  0.21568100  1
  F  F7  1  0.52494200  0.71045600  0.71144800  1
loop_
_geom_bond_atom_site_label_1
_geom_bond_atom_site_label_2
_geom_bond_distance
_geom_bond_site_symmetry_2
Li0 O1 2.066228 1_655
Li0 O0 2.125389 1_555
Li0 O2 2.245098 1_555
Li0 O5 2.303973 1_555
Li1 O4 2.056039 1_555
Li1 O8 2.142141 1_555
Li1 O12 2.333939 1_555
Li1 O9 2.363999 1_555
Li2 O10 1.964170 1_565
Li2 O9 1.966250 1_555
Li2 O31 2.329171 1_555
Li2 O8 2.470128 1_555
Li3 O7 2.022313 1_555
Li3 O11 2.096497 1_555
Li3 O12 2.138686 1_555
Li3 O17 2.452291 1_555
Li4 O26 1.988434 1_554
Li4 O13 2.064171 1_455
Li4 O6 2.234794 1_555
Li4 O16 2.265711 1_555
Li5 O21 2.088468 1_555
Li5 O17 2.151218 1_555
Li5 O16 2.157841 1_555
Li5 O13 2.184064 1_555
Li6 O20 2.051365 1_555
Li6 O24 2.109347 1_555
Li6 O19 2.153050 1_555
Li6 O14 2.435372 1_555
Li7 O29 1.992780 1_655
Li7 O28 2.004132 1_555
Li7 O30 2.146213 1_555
Mn0 O22 1.938496 1_555
Mn0 O0 1.968055 1_555
Mn0 O1 1.969424 1_555
Mn0 O10 2.280183 1_554
Mn1 O4 1.933028 1_455
Mn1 O29 1.934663 1_555
Mn1 O8 1.996333 1_555
Mn1 O3 2.049713 1_555
Mn2 O6 1.904013 1_655
Mn2 O7 1.961762 1_555
Mn2 O13 2.041292 1_555
Mn2 O5 2.090698 1_555
Mn3 O17 1.920665 1_555
Mn3 O11 1.973972 1_555
Mn3 O16 1.995446 1_555
Mn3 O19 2.150276 1_565
Mn4 O15 1.898737 1_555
Mn4 O20 1.947376 1_555
Mn4 O14 1.948128 1_555
Mn4 O12 2.473252 1_545
Mn5 O18 1.908428 1_555
Mn5 O25 1.929935 1_455
Mn5 O24 1.966978 1_555
Mn5 O26 2.256649 1_555
Mn6 O27 1.921212 1_655
Mn6 O23 1.937717 1_555
Mn6 O2 1.988380 1_555
Mn6 O28 2.277651 1_555
Mn7 O31 1.940893 1_555
Mn7 O30 1.945657 1_555
Mn7 O9 1.971707 1_555
Mn7 O21 2.165415 1_556
O0 P2 1.549642 1_554
O1 P1 1.549202 1_555
O2 P0 1.542480 1_555
O3 P0 1.518309 1_555
O4 P0 1.580861 1_555
O5 P1 1.543148 1_555
O6 P1 1.569712 1_555
O7 P0 1.557707 1_555
O8 P3 1.569766 1_555
O9 P2 1.589508 1_565
O10 P2 1.533945 1_455
O11 P3 1.562846 1_555
O12 P3 1.546157 1_655
O13 P6 1.579698 1_554
O14 P3 1.536175 1_545
O15 P2 1.523151 1_555
O16 P5 1.575949 1_555
O17 P4 1.578751 1_565
O18 P1 1.529780 1_556
O19 P4 1.543871 1_455
O20 P4 1.550335 1_555
O21 P5 1.542926 1_655
O22 P5 1.526378 1_545
O23 P4 1.518479 1_555
O24 P7 1.546445 1_555
O25 P6 1.524492 1_555
O26 P6 1.534162 1_555
O27 P7 1.537517 1_555
O28 P7 1.536768 1_555
O29 P7 1.577456 1_555
O30 P6 1.562279 1_555
O31 P5 1.557878 1_556
F0 Mn6 1.916926 1_555
F0 Mn0 2.156242 1_555
F0 Li0 2.209854 1_555
F1 Li2 1.930173 1_655
F1 Mn7 1.998682 1_555
F1 Li1 2.167922 1_555
F1 Mn1 2.378415 1_655
F2 Mn2 1.925282 1_555
F2 Li4 2.069001 1_555
F2 Li5 2.363469 1_555
F2 Mn3 2.364870 1_555
F2 Li3 2.519177 1_555
F3 Mn3 1.909963 1_655
F3 Li5 2.124057 1_555
F3 Li3 2.154184 1_555
F3 Mn2 2.406733 1_555
F4 Mn4 1.873165 1_455
F4 Li6 1.983453 1_555
F4 Mn5 2.288578 1_555
F5 Mn5 1.888657 1_555
F5 Mn4 2.117377 1_555
F5 Li6 2.279719 1_555
F6 Mn0 1.881980 1_655
F6 Li0 2.043055 1_555
F6 Mn6 2.206106 1_555
F7 Mn1 1.956432 1_555
F7 Li7 2.033265 1_555
F7 Li1 2.099040 1_555
F7 Mn7 2.327374 1_555
