# generated using pymatgen
data_Li5Mn2P2(CO7)2
_symmetry_space_group_name_H-M   'P 1'
_cell_length_a   6.50145600
_cell_length_b   5.09316900
_cell_length_c   16.94274021
_cell_angle_alpha   85.48217409
_cell_angle_beta   90.00000000
_cell_angle_gamma   90.00000000
_symmetry_Int_Tables_number   1
_chemical_formula_structural   Li5Mn2P2(CO7)2
_chemical_formula_sum   'Li10 Mn4 P4 C4 O28'
_cell_volume   559.28202102
_cell_formula_units_Z   2
loop_
 _symmetry_equiv_pos_site_id
 _symmetry_equiv_pos_as_xyz
  1  'x, y, z'
loop_
 _atom_site_type_symbol
 _atom_site_label
 _atom_site_symmetry_multiplicity
 _atom_site_fract_x
 _atom_site_fract_y
 _atom_site_fract_z
 _atom_site_occupancy
  Li  Li0  1  0.02829700  0.25220700  0.88193200  1
  Li  Li1  1  0.47170300  0.25220700  0.88193200  1
  Li  Li2  1  0.52829700  0.74779300  0.11806800  1
  Li  Li3  1  0.97170300  0.74779300  0.11806800  1
  Li  Li4  1  0.25000000  0.75990900  0.29905400  1
  Li  Li5  1  0.00143200  0.24968000  0.37475500  1
  Li  Li6  1  0.49856800  0.24968000  0.37475500  1
  Li  Li7  1  0.99856800  0.75032000  0.62524500  1
  Li  Li8  1  0.50143200  0.75032000  0.62524500  1
  Li  Li9  1  0.75000000  0.24009100  0.70094600  1
  Mn  Mn0  1  0.75000000  0.79403800  0.92168500  1
  Mn  Mn1  1  0.25000000  0.20596200  0.07831500  1
  Mn  Mn2  1  0.75000000  0.77556100  0.42019200  1
  Mn  Mn3  1  0.25000000  0.22443900  0.57980800  1
  P  P0  1  0.25000000  0.72699500  0.95817200  1
  P  P1  1  0.75000000  0.27300500  0.04182800  1
  P  P2  1  0.25000000  0.72142900  0.45898000  1
  P  P3  1  0.75000000  0.27857100  0.54102000  1
  C  C0  1  0.75000000  0.71169600  0.76819400  1
  C  C1  1  0.25000000  0.28830400  0.23180600  1
  C  C2  1  0.75000000  0.69892300  0.27324400  1
  C  C3  1  0.25000000  0.30107700  0.72675600  1
  O  O0  1  0.75000000  0.95584200  0.78220000  1
  O  O1  1  0.25000000  0.32186800  0.80040900  1
  O  O2  1  0.75000000  0.53196000  0.82775800  1
  O  O3  1  0.05997200  0.84082200  0.91251000  1
  O  O4  1  0.44002800  0.84082200  0.91251000  1
  O  O5  1  0.75000000  0.19027100  0.95494700  1
  O  O6  1  0.25000000  0.41874400  0.96250100  1
  O  O7  1  0.75000000  0.58125600  0.03749900  1
  O  O8  1  0.25000000  0.80972900  0.04505300  1
  O  O9  1  0.94002800  0.15917800  0.08749000  1
  O  O10  1  0.55997200  0.15917800  0.08749000  1
  O  O11  1  0.25000000  0.46804000  0.17224200  1
  O  O12  1  0.75000000  0.67813200  0.19959100  1
  O  O13  1  0.25000000  0.04415800  0.21780000  1
  O  O14  1  0.75000000  0.92931700  0.30307800  1
  O  O15  1  0.25000000  0.36337200  0.30397700  1
  O  O16  1  0.75000000  0.49593700  0.32633500  1
  O  O17  1  0.06478500  0.82054200  0.40699000  1
  O  O18  1  0.43521500  0.82054200  0.40699000  1
  O  O19  1  0.75000000  0.17500700  0.45809700  1
  O  O20  1  0.25000000  0.41330700  0.46879300  1
  O  O21  1  0.75000000  0.58669300  0.53120700  1
  O  O22  1  0.25000000  0.82499300  0.54190300  1
  O  O23  1  0.93521500  0.17945800  0.59301000  1
  O  O24  1  0.56478500  0.17945800  0.59301000  1
  O  O25  1  0.25000000  0.50406300  0.67366500  1
  O  O26  1  0.75000000  0.63662800  0.69602300  1
  O  O27  1  0.25000000  0.07068300  0.69692200  1
loop_
_geom_bond_atom_site_label_1
_geom_bond_atom_site_label_2
_geom_bond_distance
_geom_bond_site_symmetry_2
Li0 O1 2.008499 1_555
Li0 O3 2.128354 1_545
Li0 O5 2.200473 1_455
Li0 O6 2.200648 1_555
Li0 O2 2.437266 1_455
Li1 O1 2.008499 1_555
Li1 O4 2.128354 1_545
Li1 O5 2.200473 1_555
Li1 O6 2.200648 1_555
Li1 O2 2.437266 1_555
Li2 O12 2.008499 1_555
Li2 O10 2.128354 1_565
Li2 O8 2.200473 1_555
Li2 O7 2.200648 1_555
Li2 O11 2.437266 1_555
Li3 O12 2.008499 1_555
Li3 O9 2.128354 1_565
Li3 O8 2.200473 1_655
Li3 O7 2.200648 1_555
Li3 O11 2.437266 1_655
Li4 O13 1.917588 1_565
Li4 O15 2.014776 1_555
Li4 O18 2.231280 1_555
Li4 O17 2.231280 1_555
Li5 O15 2.067742 1_555
Li5 O19 2.173951 1_455
Li5 O16 2.180861 1_455
Li5 O17 2.248786 1_545
Li5 O20 2.460450 1_555
Li6 O15 2.067742 1_555
Li6 O19 2.173951 1_555
Li6 O16 2.180861 1_555
Li6 O18 2.248786 1_545
Li6 O20 2.460450 1_555
Li7 O26 2.067742 1_555
Li7 O22 2.173951 1_655
Li7 O25 2.180861 1_655
Li7 O23 2.248786 1_565
Li7 O21 2.460450 1_555
Li8 O26 2.067742 1_555
Li8 O22 2.173951 1_555
Li8 O25 2.180861 1_555
Li8 O24 2.248786 1_565
Li8 O21 2.460450 1_555
Li9 O0 1.917588 1_545
Li9 O26 2.014776 1_555
Li9 O23 2.231280 1_555
Li9 O24 2.231280 1_555
Mn0 O3 2.033818 1_655
Mn0 O4 2.033818 1_555
Mn0 O5 2.137617 1_565
Mn0 O2 2.156118 1_555
Mn0 O7 2.165578 1_556
Mn0 O0 2.440760 1_555
Mn1 O9 2.033818 1_455
Mn1 O10 2.033818 1_555
Mn1 O8 2.137617 1_545
Mn1 O11 2.156118 1_555
Mn1 O6 2.165578 1_554
Mn1 O13 2.440760 1_555
Mn2 O21 2.044032 1_555
Mn2 O17 2.069506 1_655
Mn2 O18 2.069506 1_555
Mn2 O14 2.075003 1_555
Mn2 O19 2.181110 1_565
Mn2 O16 2.216701 1_555
Mn3 O20 2.044032 1_555
Mn3 O24 2.069506 1_555
Mn3 O23 2.069506 1_455
Mn3 O27 2.075003 1_555
Mn3 O22 2.181110 1_545
Mn3 O25 2.216701 1_555
C0 O0 1.284146 1_555
C0 O2 1.308016 1_555
C0 O26 1.309583 1_555
C1 O13 1.284146 1_555
C1 O11 1.308016 1_555
C1 O15 1.309583 1_555
C2 O12 1.260652 1_555
C2 O14 1.313732 1_555
C2 O16 1.315842 1_555
C3 O1 1.260652 1_555
C3 O27 1.313732 1_555
C3 O25 1.315842 1_555
O3 P0 1.546065 1_555
O4 P0 1.546065 1_555
O5 P1 1.562711 1_556
O6 P0 1.565905 1_555
O7 P1 1.565905 1_555
O8 P0 1.562711 1_554
O9 P1 1.546065 1_555
O10 P1 1.546065 1_555
O17 P2 1.552641 1_555
O18 P2 1.552641 1_555
O19 P3 1.539102 1_555
O20 P2 1.565022 1_555
O21 P3 1.565022 1_555
O22 P2 1.539102 1_555
O23 P3 1.552641 1_555
O24 P3 1.552641 1_555
