# generated using pymatgen
data_SrNd2O4
_symmetry_space_group_name_H-M   'P 1'
_cell_length_a   7.20390489
_cell_length_b   7.20390489
_cell_length_c   7.20390489
_cell_angle_alpha   60.00000000
_cell_angle_beta   60.00000000
_cell_angle_gamma   60.00000000
_symmetry_Int_Tables_number   1
_chemical_formula_structural   SrNd2O4
_chemical_formula_sum   'Sr2 Nd4 O8'
_cell_volume   264.35584281
_cell_formula_units_Z   2
loop_
 _symmetry_equiv_pos_site_id
 _symmetry_equiv_pos_as_xyz
  1  'x, y, z'
loop_
 _atom_site_type_symbol
 _atom_site_label
 _atom_site_symmetry_multiplicity
 _atom_site_fract_x
 _atom_site_fract_y
 _atom_site_fract_z
 _atom_site_occupancy
  Sr  Sr0  1  0.75000000  0.75000000  0.75000000  1
  Sr  Sr1  1  0.50000000  0.50000000  0.50000000  1
  Nd  Nd0  1  0.12500000  0.12500000  0.62500000  1
  Nd  Nd1  1  0.62500000  0.12500000  0.12500000  1
  Nd  Nd2  1  0.12500000  0.62500000  0.12500000  1
  Nd  Nd3  1  0.12500000  0.12500000  0.12500000  1
  O  O0  1  0.88963400  0.88963400  0.88963400  1
  O  O1  1  0.88963400  0.33109900  0.88963400  1
  O  O2  1  0.33109900  0.88963400  0.88963400  1
  O  O3  1  0.36036600  0.36036600  0.91890100  1
  O  O4  1  0.88963400  0.88963400  0.33109900  1
  O  O5  1  0.91890100  0.36036600  0.36036600  1
  O  O6  1  0.36036600  0.91890100  0.36036600  1
  O  O7  1  0.36036600  0.36036600  0.36036600  1
loop_
_geom_bond_atom_site_label_1
_geom_bond_atom_site_label_2
_geom_bond_distance
_geom_bond_site_symmetry_2
Nd0 O7 2.407128 1_555
Nd0 O0 2.407128 1_445
Nd0 O6 2.407132 1_545
Nd0 O5 2.407132 1_455
Nd0 O2 2.407132 1_545
Nd0 O1 2.407132 1_455
Nd1 O0 2.407128 1_544
Nd1 O7 2.407128 1_555
Nd1 O3 2.407132 1_554
Nd1 O6 2.407132 1_545
Nd1 O1 2.407132 1_554
Nd1 O4 2.407132 1_545
Nd2 O7 2.407128 1_555
Nd2 O0 2.407128 1_454
Nd2 O3 2.407132 1_554
Nd2 O5 2.407132 1_455
Nd2 O2 2.407132 1_554
Nd2 O4 2.407132 1_455
Nd3 O6 2.407127 1_545
Nd3 O1 2.407127 1_454
Nd3 O4 2.407127 1_445
Nd3 O2 2.407127 1_544
Nd3 O3 2.407127 1_554
Nd3 O5 2.407127 1_455
O0 Sr0 2.463966 1_555
O1 Sr0 2.463960 1_555
O2 Sr0 2.463960 1_555
O3 Sr1 2.463960 1_555
O4 Sr0 2.463960 1_555
O5 Sr1 2.463960 1_555
O6 Sr1 2.463960 1_555
O7 Sr1 2.463966 1_555
