# generated using pymatgen
data_Li4Ti3Mn2Ni3O16
_symmetry_space_group_name_H-M   'P 1'
_cell_length_a   5.86273841
_cell_length_b   5.86273841
_cell_length_c   9.43493170
_cell_angle_alpha   88.59472464
_cell_angle_beta   88.59472464
_cell_angle_gamma   59.73491312
_symmetry_Int_Tables_number   1
_chemical_formula_structural   Li4Ti3Mn2Ni3O16
_chemical_formula_sum   'Li4 Ti3 Mn2 Ni3 O16'
_cell_volume   279.98218179
_cell_formula_units_Z   1
loop_
 _symmetry_equiv_pos_site_id
 _symmetry_equiv_pos_as_xyz
  1  'x, y, z'
loop_
 _atom_site_type_symbol
 _atom_site_label
 _atom_site_symmetry_multiplicity
 _atom_site_fract_x
 _atom_site_fract_y
 _atom_site_fract_z
 _atom_site_occupancy
  Li  Li0  1  0.66679000  0.66679000  0.10572000  1
  Li  Li1  1  0.98679100  0.98679100  0.00970200  1
  Li  Li2  1  0.99622700  0.99622700  0.50511100  1
  Li  Li3  1  0.33643800  0.33643800  0.59997600  1
  Ti  Ti0  1  0.33939900  0.83579400  0.78778100  1
  Ti  Ti1  1  0.83579400  0.33939900  0.78778100  1
  Ti  Ti2  1  0.16906800  0.16906800  0.28468500  1
  Mn  Mn0  1  0.67020200  0.67020200  0.51392500  1
  Mn  Mn1  1  0.33848700  0.33848700  0.01889400  1
  Ni  Ni0  1  0.82849000  0.82849000  0.78864200  1
  Ni  Ni1  1  0.16765900  0.65881800  0.28958000  1
  Ni  Ni2  1  0.65881800  0.16765900  0.28958000  1
  O  O0  1  0.34344000  0.84341600  0.40143100  1
  O  O1  1  0.52242600  0.52242600  0.65810600  1
  O  O2  1  0.65728400  0.65728400  0.89914100  1
  O  O3  1  0.00385000  0.00385000  0.69409800  1
  O  O4  1  0.99463300  0.99463300  0.19918700  1
  O  O5  1  0.84341600  0.34344000  0.40143100  1
  O  O6  1  0.51212500  0.95854400  0.65003800  1
  O  O7  1  0.95854400  0.51212500  0.65003800  1
  O  O8  1  0.17045100  0.17045100  0.89635200  1
  O  O9  1  0.83460400  0.83460400  0.40589200  1
  O  O10  1  0.04056000  0.46898700  0.15055900  1
  O  O11  1  0.46898700  0.04056000  0.15055900  1
  O  O12  1  0.33473300  0.33473300  0.39158600  1
  O  O13  1  0.18112600  0.66241700  0.90342900  1
  O  O14  1  0.47704000  0.47704000  0.15548400  1
  O  O15  1  0.66241700  0.18112600  0.90342900  1
loop_
_geom_bond_atom_site_label_1
_geom_bond_atom_site_label_2
_geom_bond_distance
_geom_bond_site_symmetry_2
Li0 O11 1.945646 1_565
Li0 O10 1.945646 1_655
Li0 O2 1.954182 1_554
Li0 O14 1.972760 1_555
Li1 O4 1.791807 1_555
Li1 O13 1.942536 1_654
Li1 O15 1.942536 1_564
Li1 O8 2.125609 1_664
Li2 O3 1.786952 1_665
Li2 O9 1.914184 1_555
Li2 O0 2.002572 1_655
Li2 O5 2.002572 1_565
Li3 O6 1.965890 1_545
Li3 O7 1.965890 1_455
Li3 O12 1.966712 1_555
Li3 O1 1.983908 1_555
Mn0 O9 1.933132 1_555
Mn0 O6 1.958240 1_555
Mn0 O7 1.958240 1_555
Mn0 O0 1.978287 1_555
Mn0 O5 1.978287 1_555
Mn0 O1 1.998178 1_555
Mn1 O14 1.936042 1_555
Mn1 O10 1.942302 1_555
Mn1 O11 1.942302 1_555
Mn1 O15 1.956096 1_554
Mn1 O13 1.956096 1_554
Mn1 O8 2.089931 1_554
Ni0 O3 1.971065 1_665
Ni0 O2 2.003691 1_555
Ni0 O6 2.091933 1_555
Ni0 O7 2.091933 1_555
Ni0 O15 2.103367 1_565
Ni0 O13 2.103367 1_655
Ni1 O12 1.891123 1_555
Ni1 O4 1.891948 1_455
Ni1 O9 2.000254 1_455
Ni1 O14 2.007855 1_555
Ni1 O10 2.114182 1_555
Ni1 O0 2.140232 1_555
Ni2 O12 1.891123 1_555
Ni2 O4 1.891948 1_545
Ni2 O9 2.000254 1_545
Ni2 O14 2.007855 1_555
Ni2 O11 2.114182 1_555
Ni2 O5 2.140232 1_555
O0 Ti2 1.971838 1_565
O1 Ti1 2.020467 1_555
O1 Ti0 2.020467 1_555
O2 Ti0 1.936116 1_555
O2 Ti1 1.936116 1_555
O3 Ti0 1.926355 1_545
O3 Ti1 1.926355 1_455
O4 Ti2 1.969150 1_665
O5 Ti2 1.971838 1_655
O6 Ti0 1.963788 1_555
O7 Ti1 1.963788 1_555
O8 Ti0 1.992427 1_545
O8 Ti1 1.992427 1_455
O10 Ti2 1.965474 1_555
O11 Ti2 1.965474 1_555
O12 Ti2 1.987690 1_555
O13 Ti0 1.982793 1_555
O15 Ti1 1.982793 1_555
