# generated using pymatgen
data_Li2CoH8(SO6)2
_symmetry_space_group_name_H-M   'P 1'
_cell_length_a   8.15334900
_cell_length_b   5.44875300
_cell_length_c   10.62741274
_cell_angle_alpha   80.23282312
_cell_angle_beta   90.00000000
_cell_angle_gamma   90.00000000
_symmetry_Int_Tables_number   1
_chemical_formula_structural   Li2CoH8(SO6)2
_chemical_formula_sum   'Li4 Co2 H16 S4 O24'
_cell_volume   465.28563175
_cell_formula_units_Z   2
loop_
 _symmetry_equiv_pos_site_id
 _symmetry_equiv_pos_as_xyz
  1  'x, y, z'
loop_
 _atom_site_type_symbol
 _atom_site_label
 _atom_site_symmetry_multiplicity
 _atom_site_fract_x
 _atom_site_fract_y
 _atom_site_fract_z
 _atom_site_occupancy
  Li  Li0  1  0.56370700  0.89559900  0.86548300  1
  Li  Li1  1  0.06370700  0.10440100  0.63451700  1
  Li  Li2  1  0.93629300  0.89559900  0.36548300  1
  Li  Li3  1  0.43629300  0.10440100  0.13451700  1
  Co  Co0  1  0.00000000  0.00000000  0.00000000  1
  Co  Co1  1  0.50000000  0.00000000  0.50000000  1
  H  H0  1  0.71543500  0.23506900  0.98441000  1
  H  H1  1  0.14033900  0.77752300  0.83658900  1
  H  H2  1  0.94419600  0.77650800  0.81295000  1
  H  H3  1  0.80162900  0.32793900  0.85575400  1
  H  H4  1  0.30162900  0.67206100  0.64424600  1
  H  H5  1  0.44419600  0.22349200  0.68705000  1
  H  H6  1  0.64033900  0.22247700  0.66341100  1
  H  H7  1  0.21543500  0.76493100  0.51559000  1
  H  H8  1  0.78456500  0.23506900  0.48441000  1
  H  H9  1  0.35966100  0.77752300  0.33658900  1
  H  H10  1  0.55580400  0.77650800  0.31295000  1
  H  H11  1  0.69837100  0.32793900  0.35575400  1
  H  H12  1  0.19837100  0.67206100  0.14424600  1
  H  H13  1  0.05580400  0.22349200  0.18705000  1
  H  H14  1  0.85966100  0.22247700  0.16341100  1
  H  H15  1  0.28456500  0.76493100  0.01559000  1
  S  S0  1  0.28988900  0.37128700  0.86699500  1
  S  S1  1  0.78988900  0.62871300  0.63300500  1
  S  S2  1  0.21011100  0.37128700  0.36699500  1
  S  S3  1  0.71011100  0.62871300  0.13300500  1
  O  O0  1  0.12787800  0.32800100  0.93132500  1
  O  O1  1  0.41523500  0.19631900  0.93101700  1
  O  O2  1  0.77899500  0.17331500  0.91687300  1
  O  O3  1  0.33857400  0.63673600  0.87004200  1
  O  O4  1  0.04133400  0.88507500  0.82490200  1
  O  O5  1  0.77336600  0.65710500  0.77092400  1
  O  O6  1  0.27336600  0.34289500  0.72907600  1
  O  O7  1  0.54133400  0.11492500  0.67509800  1
  O  O8  1  0.83857400  0.36326400  0.62995800  1
  O  O9  1  0.27899500  0.82668500  0.58312700  1
  O  O10  1  0.91523500  0.80368100  0.56898300  1
  O  O11  1  0.62787800  0.67199900  0.56867500  1
  O  O12  1  0.37212200  0.32800100  0.43132500  1
  O  O13  1  0.08476500  0.19631900  0.43101700  1
  O  O14  1  0.72100500  0.17331500  0.41687300  1
  O  O15  1  0.16142600  0.63673600  0.37004200  1
  O  O16  1  0.45866600  0.88507500  0.32490200  1
  O  O17  1  0.72663400  0.65710500  0.27092400  1
  O  O18  1  0.22663400  0.34289500  0.22907600  1
  O  O19  1  0.95866600  0.11492500  0.17509800  1
  O  O20  1  0.66142600  0.36326400  0.12995800  1
  O  O21  1  0.22100500  0.82668500  0.08312700  1
  O  O22  1  0.58476500  0.80368100  0.06898300  1
  O  O23  1  0.87212200  0.67199900  0.06867500  1
loop_
_geom_bond_atom_site_label_1
_geom_bond_atom_site_label_2
_geom_bond_distance
_geom_bond_site_symmetry_2
Li0 O22 2.142427 1_556
Li0 O7 2.175956 1_565
Li0 O1 2.241094 1_565
Li0 O3 2.310411 1_555
Li0 O2 2.439181 1_565
Li0 O5 2.462468 1_555
Li1 O13 2.142427 1_555
Li1 O4 2.175956 1_545
Li1 O10 2.241094 1_445
Li1 O8 2.310411 1_455
Li1 O9 2.439181 1_545
Li1 O6 2.462468 1_555
Li2 O10 2.142427 1_555
Li2 O19 2.175956 1_565
Li2 O13 2.241094 1_665
Li2 O15 2.310411 1_655
Li2 O14 2.439181 1_565
Li2 O17 2.462468 1_555
Li3 O1 2.142427 1_554
Li3 O16 2.175956 1_545
Li3 O22 2.241094 1_545
Li3 O20 2.310411 1_555
Li3 O21 2.439181 1_545
Li3 O18 2.462468 1_555
Co0 O19 2.088966 1_455
Co0 O4 2.088966 1_544
Co0 O0 2.090756 1_554
Co0 O23 2.090756 1_445
Co0 O21 2.153169 1_545
Co0 O2 2.153169 1_454
Co1 O7 2.088966 1_555
Co1 O16 2.088966 1_545
Co1 O11 2.090756 1_545
Co1 O12 2.090756 1_555
Co1 O9 2.153169 1_545
Co1 O14 2.153169 1_555
H0 O2 0.989382 1_555
H1 O4 0.992856 1_555
H2 O4 1.009370 1_655
H2 O5 1.631360 1_555
H3 O2 0.990000 1_555
H4 O9 0.990000 1_555
H5 O7 1.009370 1_555
H5 O6 1.631360 1_555
H6 O7 0.992856 1_555
H7 O9 0.989382 1_555
H8 O14 0.989382 1_555
H9 O16 0.992856 1_555
H10 O16 1.009370 1_555
H10 O17 1.631360 1_555
H11 O14 0.990000 1_555
H12 O21 0.990000 1_555
H13 O19 1.009370 1_455
H13 O18 1.631360 1_555
H14 O19 0.992856 1_555
H15 O21 0.989382 1_555
O0 S0 1.487674 1_555
O1 S0 1.481958 1_555
O3 S0 1.505483 1_555
O5 S1 1.505774 1_555
O6 S0 1.505774 1_555
O8 S1 1.505483 1_555
O10 S1 1.481958 1_555
O11 S1 1.487674 1_555
O12 S2 1.487674 1_555
O13 S2 1.481958 1_555
O15 S2 1.505483 1_555
O17 S3 1.505774 1_555
O18 S2 1.505774 1_555
O20 S3 1.505483 1_555
O22 S3 1.481958 1_555
O23 S3 1.487674 1_555
