# generated using pymatgen
data_Dy3Al5O12
_symmetry_space_group_name_H-M   'P 1'
_cell_length_a   10.38517422
_cell_length_b   10.38517422
_cell_length_c   10.38517422
_cell_angle_alpha   109.47122063
_cell_angle_beta   109.47122063
_cell_angle_gamma   109.47122063
_symmetry_Int_Tables_number   1
_chemical_formula_structural   Dy3Al5O12
_chemical_formula_sum   'Dy12 Al20 O48'
_cell_volume   862.22273218
_cell_formula_units_Z   4
loop_
 _symmetry_equiv_pos_site_id
 _symmetry_equiv_pos_as_xyz
  1  'x, y, z'
loop_
 _atom_site_type_symbol
 _atom_site_label
 _atom_site_symmetry_multiplicity
 _atom_site_fract_x
 _atom_site_fract_y
 _atom_site_fract_z
 _atom_site_occupancy
  Dy  Dy0  1  0.87500000  0.62500000  0.25000000  1
  Dy  Dy1  1  0.37500000  0.75000000  0.12500000  1
  Dy  Dy2  1  0.25000000  0.37500000  0.12500000  1
  Dy  Dy3  1  0.87500000  0.75000000  0.62500000  1
  Dy  Dy4  1  0.75000000  0.12500000  0.37500000  1
  Dy  Dy5  1  0.37500000  0.12500000  0.25000000  1
  Dy  Dy6  1  0.62500000  0.87500000  0.75000000  1
  Dy  Dy7  1  0.25000000  0.87500000  0.62500000  1
  Dy  Dy8  1  0.12500000  0.25000000  0.37500000  1
  Dy  Dy9  1  0.75000000  0.62500000  0.87500000  1
  Dy  Dy10  1  0.62500000  0.25000000  0.87500000  1
  Dy  Dy11  1  0.12500000  0.37500000  0.75000000  1
  Al  Al0  1  0.75000000  0.87500000  0.12500000  1
  Al  Al1  1  0.50000000  0.50000000  0.00000000  1
  Al  Al2  1  0.87500000  0.25000000  0.12500000  1
  Al  Al3  1  0.50000000  -0.00000000  0.00000000  1
  Al  Al4  1  -0.00000000  0.50000000  0.00000000  1
  Al  Al5  1  0.62500000  0.75000000  0.37500000  1
  Al  Al6  1  0.62500000  0.37500000  0.25000000  1
  Al  Al7  1  0.12500000  0.87500000  0.25000000  1
  Al  Al8  1  -0.00000000  -0.00000000  0.00000000  1
  Al  Al9  1  0.25000000  0.62500000  0.37500000  1
  Al  Al10  1  0.50000000  0.50000000  0.50000000  1
  Al  Al11  1  0.75000000  0.37500000  0.62500000  1
  Al  Al12  1  -0.00000000  0.50000000  0.50000000  1
  Al  Al13  1  0.50000000  -0.00000000  0.50000000  1
  Al  Al14  1  0.37500000  0.62500000  0.75000000  1
  Al  Al15  1  0.87500000  0.12500000  0.75000000  1
  Al  Al16  1  0.37500000  0.25000000  0.62500000  1
  Al  Al17  1  -0.00000000  -0.00000000  0.50000000  1
  Al  Al18  1  0.12500000  0.75000000  0.87500000  1
  Al  Al19  1  0.25000000  0.12500000  0.87500000  1
  O  O0  1  0.98013458  0.67956724  0.09820133  1
  O  O1  1  0.59820133  0.91863409  0.11806674  1
  O  O2  1  0.32043276  0.90179867  0.01986542  1
  O  O3  1  0.69943266  0.67956724  0.08136591  1
  O  O4  1  0.88193326  0.40179867  0.08136591  1
  O  O5  1  0.61806674  0.41863409  0.09820133  1
  O  O6  1  0.48013458  0.59820133  0.17956724  1
  O  O7  1  0.82043276  0.80056734  0.41863409  1
  O  O8  1  0.58136591  0.90179867  0.38193326  1
  O  O9  1  0.32043276  0.91863409  0.30056734  1
  O  O10  1  0.91863409  0.30056734  0.32043276  1
  O  O11  1  0.19943266  0.11806674  0.01986542  1
  O  O12  1  0.19943266  0.58136591  0.17956724  1
  O  O13  1  0.58136591  0.17956724  0.19943266  1
  O  O14  1  0.82043276  0.51986542  0.40179867  1
  O  O15  1  0.90179867  0.01986542  0.32043276  1
  O  O16  1  0.48013458  0.38193326  0.30056734  1
  O  O17  1  0.01986542  0.19943266  0.11806674  1
  O  O18  1  0.61806674  0.69943266  0.51986542  1
  O  O19  1  0.08136591  0.88193326  0.40179867  1
  O  O20  1  0.40179867  0.82043276  0.51986542  1
  O  O21  1  0.30056734  0.48013458  0.38193326  1
  O  O22  1  0.90179867  0.38193326  0.58136591  1
  O  O23  1  0.11806674  0.01986542  0.19943266  1
  O  O24  1  0.88193326  0.98013458  0.80056734  1
  O  O25  1  0.09820133  0.61806674  0.41863409  1
  O  O26  1  0.69943266  0.51986542  0.61806674  1
  O  O27  1  0.59820133  0.17956724  0.48013458  1
  O  O28  1  0.91863409  0.11806674  0.59820133  1
  O  O29  1  0.38193326  0.30056734  0.48013458  1
  O  O30  1  0.98013458  0.80056734  0.88193326  1
  O  O31  1  0.51986542  0.61806674  0.69943266  1
  O  O32  1  0.09820133  0.98013458  0.67956724  1
  O  O33  1  0.17956724  0.48013458  0.59820133  1
  O  O34  1  0.41863409  0.82043276  0.80056734  1
  O  O35  1  0.80056734  0.41863409  0.82043276  1
  O  O36  1  0.80056734  0.88193326  0.98013458  1
  O  O37  1  0.08136591  0.69943266  0.67956724  1
  O  O38  1  0.67956724  0.08136591  0.69943266  1
  O  O39  1  0.41863409  0.09820133  0.61806674  1
  O  O40  1  0.17956724  0.19943266  0.58136591  1
  O  O41  1  0.51986542  0.40179867  0.82043276  1
  O  O42  1  0.38193326  0.58136591  0.90179867  1
  O  O43  1  0.11806674  0.59820133  0.91863409  1
  O  O44  1  0.30056734  0.32043276  0.91863409  1
  O  O45  1  0.67956724  0.09820133  0.98013458  1
  O  O46  1  0.40179867  0.08136591  0.88193326  1
  O  O47  1  0.01986542  0.32043276  0.90179867  1
loop_
_geom_bond_atom_site_label_1
_geom_bond_atom_site_label_2
_geom_bond_distance
_geom_bond_site_symmetry_2
Dy0 O14 2.308472 1_555
Dy0 O0 2.308472 1_555
Dy0 O19 2.308472 1_655
Dy0 O5 2.308472 1_555
Dy0 O3 2.436039 1_555
Dy0 O7 2.436039 1_555
Dy0 O25 2.436039 1_655
Dy0 O4 2.436039 1_555
Dy1 O6 2.308472 1_555
Dy1 O2 2.308472 1_555
Dy1 O8 2.308472 1_555
Dy1 O43 2.308472 1_554
Dy1 O12 2.436039 1_555
Dy1 O9 2.436039 1_555
Dy1 O42 2.436039 1_554
Dy1 O1 2.436039 1_555
Dy2 O12 2.308472 1_555
Dy2 O44 2.308472 1_554
Dy2 O11 2.308472 1_555
Dy2 O21 2.308472 1_555
Dy2 O16 2.436039 1_555
Dy2 O17 2.436039 1_555
Dy2 O47 2.436039 1_554
Dy2 O6 2.436039 1_555
Dy3 O37 2.308472 1_655
Dy3 O7 2.308472 1_555
Dy3 O30 2.308472 1_555
Dy3 O18 2.308472 1_555
Dy3 O24 2.436039 1_555
Dy3 O26 2.436039 1_555
Dy3 O14 2.436039 1_555
Dy3 O32 2.436039 1_655
Dy4 O27 2.308472 1_555
Dy4 O15 2.308472 1_555
Dy4 O1 2.308472 1_545
Dy4 O22 2.308472 1_555
Dy4 O13 2.436039 1_555
Dy4 O10 2.436039 1_555
Dy4 O8 2.436039 1_545
Dy4 O28 2.436039 1_555
Dy5 O13 2.308472 1_555
Dy5 O9 2.308472 1_545
Dy5 O16 2.308472 1_555
Dy5 O23 2.308472 1_555
Dy5 O29 2.436039 1_555
Dy5 O11 2.436039 1_555
Dy5 O2 2.436039 1_545
Dy5 O27 2.436039 1_555
Dy6 O38 2.308472 1_565
Dy6 O34 2.308472 1_555
Dy6 O31 2.308472 1_555
Dy6 O24 2.308472 1_555
Dy6 O18 2.436039 1_555
Dy6 O36 2.436039 1_555
Dy6 O45 2.436039 1_565
Dy6 O20 2.436039 1_555
Dy7 O32 2.308472 1_555
Dy7 O20 2.308472 1_555
Dy7 O46 2.308472 1_565
Dy7 O25 2.308472 1_555
Dy7 O34 2.436039 1_555
Dy7 O37 2.436039 1_555
Dy7 O39 2.436039 1_565
Dy7 O19 2.436039 1_555
Dy8 O40 2.308472 1_555
Dy8 O10 2.308472 1_455
Dy8 O29 2.308472 1_555
Dy8 O17 2.308472 1_555
Dy8 O21 2.436039 1_555
Dy8 O23 2.436039 1_555
Dy8 O33 2.436039 1_555
Dy8 O15 2.436039 1_455
Dy9 O3 2.308472 1_556
Dy9 O35 2.308472 1_555
Dy9 O36 2.308472 1_555
Dy9 O26 2.308472 1_555
Dy9 O31 2.436039 1_555
Dy9 O30 2.436039 1_555
Dy9 O41 2.436039 1_555
Dy9 O0 2.436039 1_556
Dy10 O45 2.308472 1_555
Dy10 O41 2.308472 1_555
Dy10 O4 2.308472 1_556
Dy10 O39 2.308472 1_555
Dy10 O35 2.436039 1_555
Dy10 O38 2.436039 1_555
Dy10 O5 2.436039 1_556
Dy10 O46 2.436039 1_555
Dy11 O33 2.308472 1_555
Dy11 O47 2.308472 1_555
Dy11 O42 2.308472 1_555
Dy11 O28 2.308472 1_455
Dy11 O40 2.436039 1_555
Dy11 O44 2.436039 1_555
Dy11 O22 2.436039 1_455
Dy11 O43 2.436039 1_555
Al0 O1 1.765804 1_555
Al0 O15 1.765804 1_565
Al0 O3 1.765804 1_555
Al0 O36 1.765804 1_554
Al1 O5 1.920706 1_555
Al1 O42 1.920706 1_554
Al1 O44 1.920706 1_554
Al1 O6 1.920706 1_555
Al1 O3 1.920706 1_555
Al1 O41 1.920706 1_554
Al2 O4 1.765804 1_555
Al2 O10 1.765804 1_555
Al2 O45 1.765804 1_554
Al2 O17 1.765804 1_655
Al3 O46 1.920706 1_554
Al3 O1 1.920706 1_545
Al3 O13 1.920706 1_555
Al3 O2 1.920706 1_545
Al3 O34 1.920706 1_544
Al3 O45 1.920706 1_554
Al4 O4 1.920706 1_455
Al4 O43 1.920706 1_554
Al4 O12 1.920706 1_555
Al4 O0 1.920706 1_455
Al4 O47 1.920706 1_554
Al4 O35 1.920706 1_454
Al5 O8 1.765804 1_555
Al5 O7 1.765804 1_555
Al5 O6 1.765804 1_555
Al5 O18 1.765804 1_555
Al6 O5 1.765804 1_555
Al6 O14 1.765804 1_555
Al6 O13 1.765804 1_555
Al6 O16 1.765804 1_555
Al7 O19 1.765804 1_555
Al7 O9 1.765804 1_555
Al7 O0 1.765804 1_455
Al7 O23 1.765804 1_565
Al8 O24 1.920706 1_444
Al8 O36 1.920706 1_444
Al8 O23 1.920706 1_555
Al8 O30 1.920706 1_444
Al8 O17 1.920706 1_555
Al8 O11 1.920706 1_555
Al9 O25 1.765804 1_555
Al9 O20 1.765804 1_555
Al9 O12 1.765804 1_555
Al9 O21 1.765804 1_555
Al10 O29 1.920706 1_555
Al10 O21 1.920706 1_555
Al10 O16 1.920706 1_555
Al10 O31 1.920706 1_555
Al10 O18 1.920706 1_555
Al10 O26 1.920706 1_555
Al11 O22 1.765804 1_555
Al11 O35 1.765804 1_555
Al11 O27 1.765804 1_555
Al11 O26 1.765804 1_555
Al12 O25 1.920706 1_555
Al12 O22 1.920706 1_455
Al12 O10 1.920706 1_455
Al12 O33 1.920706 1_555
Al12 O37 1.920706 1_555
Al12 O14 1.920706 1_455
Al13 O39 1.920706 1_555
Al13 O8 1.920706 1_545
Al13 O9 1.920706 1_545
Al13 O27 1.920706 1_555
Al13 O38 1.920706 1_555
Al13 O20 1.920706 1_545
Al14 O42 1.765804 1_555
Al14 O34 1.765804 1_555
Al14 O33 1.765804 1_555
Al14 O31 1.765804 1_555
Al15 O28 1.765804 1_555
Al15 O47 1.765804 1_655
Al15 O38 1.765804 1_555
Al15 O24 1.765804 1_545
Al16 O39 1.765804 1_555
Al16 O41 1.765804 1_555
Al16 O40 1.765804 1_555
Al16 O29 1.765804 1_555
Al17 O19 1.920706 1_545
Al17 O28 1.920706 1_455
Al17 O40 1.920706 1_555
Al17 O15 1.920706 1_455
Al17 O32 1.920706 1_545
Al17 O7 1.920706 1_445
Al18 O43 1.765804 1_555
Al18 O2 1.765804 1_556
Al18 O37 1.765804 1_555
Al18 O30 1.765804 1_455
Al19 O46 1.765804 1_555
Al19 O44 1.765804 1_555
Al19 O32 1.765804 1_545
Al19 O11 1.765804 1_556
