# generated using pymatgen
data_Mn2O3F
_symmetry_space_group_name_H-M   'P 1'
_cell_length_a   4.57351657
_cell_length_b   9.62393297
_cell_length_c   6.05903134
_cell_angle_alpha   71.57485619
_cell_angle_beta   90.00440789
_cell_angle_gamma   89.03143930
_symmetry_Int_Tables_number   1
_chemical_formula_structural   Mn2O3F
_chemical_formula_sum   'Mn8 O12 F4'
_cell_volume   252.97809817
_cell_formula_units_Z   4
loop_
 _symmetry_equiv_pos_site_id
 _symmetry_equiv_pos_as_xyz
  1  'x, y, z'
loop_
 _atom_site_type_symbol
 _atom_site_label
 _atom_site_symmetry_multiplicity
 _atom_site_fract_x
 _atom_site_fract_y
 _atom_site_fract_z
 _atom_site_occupancy
  Mn  Mn0  1  0.47120600  0.23849000  0.62830600  1
  Mn  Mn1  1  0.52181200  0.26311900  0.12142800  1
  Mn  Mn2  1  0.50891300  0.74391900  0.38399200  1
  Mn  Mn3  1  0.52952900  0.75390200  0.86422900  1
  Mn  Mn4  1  0.99099700  0.99496400  0.50407400  1
  Mn  Mn5  1  0.01097100  0.49750400  0.74778300  1
  Mn  Mn6  1  0.96980000  0.00546600  0.99614500  1
  Mn  Mn7  1  0.00269200  0.50091500  0.25289400  1
  O  O0  1  0.81211800  0.40858600  0.04588600  1
  O  O1  1  0.80433600  0.90165200  0.79791200  1
  O  O2  1  0.80652000  0.90214900  0.29818100  1
  O  O3  1  0.68377500  0.15606100  0.92406400  1
  O  O4  1  0.68979200  0.15395700  0.42154700  1
  O  O5  1  0.70020500  0.65086800  0.67296600  1
  O  O6  1  0.69427800  0.65550900  0.17130600  1
  O  O7  1  0.30579800  0.34322100  0.82847000  1
  O  O8  1  0.31486500  0.84484000  0.57646900  1
  O  O9  1  0.30436600  0.34487700  0.32759700  1
  O  O10  1  0.19223700  0.59659400  0.45149600  1
  O  O11  1  0.18572900  0.09052500  0.70551800  1
  F  F0  1  0.77950000  0.38961600  0.55563700  1
  F  F1  1  0.30176000  0.85170800  0.07630200  1
  F  F2  1  0.21567800  0.60967200  0.94668400  1
  F  F3  1  0.20312400  0.10188700  0.20111000  1
loop_
_geom_bond_atom_site_label_1
_geom_bond_atom_site_label_2
_geom_bond_distance
_geom_bond_site_symmetry_2
Mn0 O11 1.895564 1_555
Mn0 O9 1.935040 1_555
Mn0 O7 1.950940 1_555
Mn0 O4 1.961533 1_555
Mn0 O3 1.964887 1_555
Mn1 O0 1.894760 1_555
Mn1 O9 1.940011 1_555
Mn1 O4 1.940487 1_555
Mn1 O3 1.947678 1_554
Mn1 O7 1.957059 1_554
Mn2 O5 1.901352 1_555
Mn2 O6 1.942223 1_555
Mn2 O8 1.943728 1_555
Mn2 O10 1.994530 1_555
Mn2 O2 2.002885 1_555
Mn3 O1 1.860730 1_555
Mn3 O5 1.906809 1_555
Mn3 O8 1.943161 1_555
Mn3 O6 1.946316 1_556
Mn4 O1 1.928852 1_555
Mn4 O2 1.948266 1_555
Mn4 O11 1.966173 1_665
Mn4 O4 1.983436 1_565
Mn4 O8 2.000187 1_655
Mn5 O7 1.932663 1_555
Mn5 O10 1.940167 1_555
Mn5 O0 1.967569 1_456
Mn5 O5 1.977392 1_455
Mn6 O3 1.881006 1_555
Mn6 O2 1.941764 1_546
Mn6 O1 1.948718 1_545
Mn6 O11 1.965348 1_655
Mn7 O10 1.942846 1_555
Mn7 O0 1.962891 1_455
Mn7 O9 1.965647 1_555
Mn7 O6 1.977768 1_455
F0 Mn0 1.990453 1_555
F0 Mn7 2.085498 1_655
F0 Mn5 2.086935 1_655
F1 Mn2 2.047762 1_555
F1 Mn6 2.049439 1_464
F1 Mn3 2.086598 1_554
F2 Mn3 1.966162 1_555
F2 Mn7 2.072160 1_556
F2 Mn5 2.085807 1_555
F3 Mn4 2.051768 1_445
F3 Mn6 2.074573 1_454
F3 Mn1 2.090026 1_555
