# generated using pymatgen
data_LiCr2O4
_symmetry_space_group_name_H-M   'P 1'
_cell_length_a   10.27369481
_cell_length_b   8.41940014
_cell_length_c   8.32037127
_cell_angle_alpha   90.45099410
_cell_angle_beta   144.44057561
_cell_angle_gamma   65.16581592
_symmetry_Int_Tables_number   1
_chemical_formula_structural   LiCr2O4
_chemical_formula_sum   'Li4 Cr8 O16'
_cell_volume   294.21412844
_cell_formula_units_Z   4
loop_
 _symmetry_equiv_pos_site_id
 _symmetry_equiv_pos_as_xyz
  1  'x, y, z'
loop_
 _atom_site_type_symbol
 _atom_site_label
 _atom_site_symmetry_multiplicity
 _atom_site_fract_x
 _atom_site_fract_y
 _atom_site_fract_z
 _atom_site_occupancy
  Li  Li0  1  0.00214000  0.99886000  0.00272900  1
  Li  Li1  1  0.50151600  0.99751500  0.75057000  1
  Li  Li2  1  0.50304500  0.49964600  0.24976200  1
  Li  Li3  1  0.99405000  0.50341700  0.49437800  1
  Cr  Cr0  1  0.24532700  0.00213600  0.87067600  1
  Cr  Cr1  1  0.25145900  0.24964700  0.12537500  1
  Cr  Cr2  1  0.24759900  0.75263700  0.62258300  1
  Cr  Cr3  1  0.25832400  0.49665700  0.38436500  1
  Cr  Cr4  1  0.75254100  0.99933400  0.37741900  1
  Cr  Cr5  1  0.75162200  0.75120700  0.62548900  1
  Cr  Cr6  1  0.74794600  0.24973500  0.12273800  1
  Cr  Cr7  1  0.74855200  0.50288900  0.87257200  1
  O  O0  1  0.22584800  0.99687000  0.61056600  1
  O  O1  1  0.23135300  0.77102100  0.83775300  1
  O  O2  1  0.22864600  0.49702000  0.11831600  1
  O  O3  1  0.27784300  0.00493800  0.14751700  1
  O  O4  1  0.22767100  0.27524200  0.33416700  1
  O  O5  1  0.27343600  0.22948200  0.91893700  1
  O  O6  1  0.25926400  0.50793400  0.61468900  1
  O  O7  1  0.26952400  0.72689100  0.40976300  1
  O  O8  1  0.72562000  0.77148400  0.37225800  1
  O  O9  1  0.72193900  0.99640000  0.59091500  1
  O  O10  1  0.70927500  0.28399900  0.83798000  1
  O  O11  1  0.77348200  0.22451000  0.38638300  1
  O  O12  1  0.70740700  0.50858500  0.07177200  1
  O  O13  1  0.78727600  0.99196500  0.17009500  1
  O  O14  1  0.78993800  0.72174500  0.89755900  1
  O  O15  1  0.78067800  0.50586400  0.66277400  1
loop_
_geom_bond_atom_site_label_1
_geom_bond_atom_site_label_2
_geom_bond_distance
_geom_bond_site_symmetry_2
Li0 O7 1.990153 1_555
Li0 O10 1.992280 1_464
Li0 O9 2.007070 1_454
Li0 O3 2.011422 1_565
Li1 O13 2.004860 1_556
Li1 O0 2.005750 1_555
Li1 O14 2.009051 1_555
Li1 O4 2.031963 1_565
Li2 O11 1.968321 1_555
Li2 O1 1.990224 1_554
Li2 O15 2.030346 1_555
Li2 O2 2.044372 1_555
Li3 O8 1.995078 1_555
Li3 O6 2.018989 1_655
Li3 O12 2.021196 1_555
Li3 O5 2.026585 1_655
Cr0 O11 1.988759 1_455
Cr0 O0 2.006763 1_545
Cr0 O1 2.011034 1_545
Cr0 O8 2.027196 1_546
Cr0 O3 2.042473 1_556
Cr0 O5 2.042554 1_555
Cr1 O5 1.903757 1_554
Cr1 O4 1.940300 1_555
Cr1 O3 1.951380 1_555
Cr1 O9 1.980944 1_545
Cr1 O15 1.984684 1_454
Cr1 O2 1.991395 1_555
Cr2 O1 1.927973 1_555
Cr2 O13 1.935416 1_455
Cr2 O12 1.935908 1_556
Cr2 O7 1.958354 1_555
Cr2 O0 1.967025 1_555
Cr2 O6 2.016580 1_555
Cr3 O10 1.898283 1_555
Cr3 O6 1.910345 1_555
Cr3 O2 1.973397 1_555
Cr3 O14 1.975296 1_454
Cr3 O7 1.989161 1_555
Cr3 O4 2.003911 1_555
Cr4 O11 1.990065 1_565
Cr4 O1 2.020239 1_655
Cr4 O13 2.021918 1_555
Cr4 O5 2.022175 1_564
Cr4 O9 2.042256 1_555
Cr4 O8 2.045361 1_555
Cr5 O8 1.895109 1_555
Cr5 O9 1.942992 1_555
Cr5 O15 1.947738 1_555
Cr5 O14 1.953944 1_555
Cr5 O3 1.993977 1_565
Cr5 O2 2.010943 1_656
Cr6 O11 1.987487 1_555
Cr6 O0 2.011257 1_645
Cr6 O13 2.011567 1_545
Cr6 O12 2.016845 1_555
Cr6 O10 2.058536 1_554
Cr6 O6 2.061005 1_554
Cr7 O12 2.012374 1_556
Cr7 O10 2.017270 1_555
Cr7 O4 2.021323 1_656
Cr7 O7 2.022205 1_555
Cr7 O15 2.025265 1_555
Cr7 O14 2.031640 1_555
