# generated using pymatgen
data_Na7Cr4(PO4)6
_symmetry_space_group_name_H-M   'P 1'
_cell_length_a   8.83650800
_cell_length_b   9.02930700
_cell_length_c   12.88201154
_cell_angle_alpha   89.83951215
_cell_angle_beta   90.00000000
_cell_angle_gamma   90.00000000
_symmetry_Int_Tables_number   1
_chemical_formula_structural   Na7Cr4(PO4)6
_chemical_formula_sum   'Na14 Cr8 P12 O48'
_cell_volume   1027.82002417
_cell_formula_units_Z   2
loop_
 _symmetry_equiv_pos_site_id
 _symmetry_equiv_pos_as_xyz
  1  'x, y, z'
loop_
 _atom_site_type_symbol
 _atom_site_label
 _atom_site_symmetry_multiplicity
 _atom_site_fract_x
 _atom_site_fract_y
 _atom_site_fract_z
 _atom_site_occupancy
  Na  Na0  1  0.18322800  0.47329500  0.81402800  1
  Na  Na1  1  0.18322800  0.52670500  0.18597200  1
  Na  Na2  1  0.26341600  0.94786600  0.66745600  1
  Na  Na3  1  0.26341600  0.05213400  0.33254400  1
  Na  Na4  1  0.44241100  0.23596400  0.82270900  1
  Na  Na5  1  0.44241100  0.76403600  0.17729100  1
  Na  Na6  1  0.57257900  0.77014300  0.81449600  1
  Na  Na7  1  0.57257900  0.22985700  0.18550400  1
  Na  Na8  1  0.69529300  0.46435500  0.67058300  1
  Na  Na9  1  0.69529300  0.53564500  0.32941700  1
  Na  Na10  1  0.81896800  0.96668800  0.83266100  1
  Na  Na11  1  0.81896800  0.03331200  0.16733900  1
  Na  Na12  1  0.93023300  0.75162200  0.31989400  1
  Na  Na13  1  0.93023300  0.24837800  0.68010600  1
  Cr  Cr0  1  0.24486300  0.21503300  0.10042000  1
  Cr  Cr1  1  0.24486300  0.78496700  0.89958000  1
  Cr  Cr2  1  0.25579100  0.28765500  0.59684600  1
  Cr  Cr3  1  0.25579100  0.71234500  0.40315400  1
  Cr  Cr4  1  0.75541700  0.78988600  0.60244900  1
  Cr  Cr5  1  0.75541700  0.21011400  0.39755100  1
  Cr  Cr6  1  0.76008000  0.30123900  0.90586900  1
  Cr  Cr7  1  0.76008000  0.69876100  0.09413100  1
  P  P0  1  0.02837400  0.00000000  0.50000000  1
  P  P1  1  0.11849300  0.14461100  0.85509200  1
  P  P2  1  0.11849300  0.85538900  0.14490800  1
  P  P3  1  0.38910800  0.63897200  0.64650500  1
  P  P4  1  0.38910800  0.36102800  0.35349500  1
  P  P5  1  0.45745600  0.50000000  0.00000000  1
  P  P6  1  0.53012400  0.00000000  0.00000000  1
  P  P7  1  0.60771400  0.13088300  0.63964700  1
  P  P8  1  0.60771400  0.86911700  0.36035300  1
  P  P9  1  0.88828100  0.64981300  0.83907700  1
  P  P10  1  0.88828100  0.35018700  0.16092300  1
  P  P11  1  0.96997000  0.50000000  0.50000000  1
  O  O0  1  0.06749200  0.41029200  0.57899900  1
  O  O1  1  0.06749200  0.58970800  0.42100100  1
  O  O2  1  0.06010200  0.67664700  0.85213400  1
  O  O3  1  0.06010200  0.32335300  0.14786600  1
  O  O4  1  0.12990800  0.89387000  0.43508100  1
  O  O5  1  0.12990800  0.10613000  0.56491900  1
  O  O6  1  0.19684400  0.21139600  0.95086800  1
  O  O7  1  0.19684400  0.78860400  0.04913200  1
  O  O8  1  0.14938200  0.97675600  0.84074700  1
  O  O9  1  0.14938200  0.02324400  0.15925300  1
  O  O10  1  0.18487000  0.23220800  0.75932500  1
  O  O11  1  0.18487000  0.76779200  0.24067500  1
  O  O12  1  0.33052700  0.73028600  0.74098600  1
  O  O13  1  0.33052700  0.26971400  0.25901400  1
  O  O14  1  0.35926600  0.53087200  0.33634300  1
  O  O15  1  0.35926600  0.46912800  0.66365700  1
  O  O16  1  0.30961800  0.69932900  0.54906200  1
  O  O17  1  0.30961800  0.30067100  0.45093800  1
  O  O18  1  0.35315400  0.59315800  0.92691100  1
  O  O19  1  0.35315400  0.40684200  0.07308900  1
  O  O20  1  0.43147800  0.14911000  0.63612600  1
  O  O21  1  0.43147800  0.85089000  0.36387400  1
  O  O22  1  0.43146500  0.89777900  0.92946300  1
  O  O23  1  0.43146500  0.10222100  0.07053700  1
  O  O24  1  0.55439900  0.59544900  0.07334300  1
  O  O25  1  0.55439900  0.40455100  0.92665700  1
  O  O26  1  0.56296200  0.66231500  0.64053700  1
  O  O27  1  0.56296200  0.33768500  0.35946300  1
  O  O28  1  0.62769900  0.08948200  0.92312700  1
  O  O29  1  0.62769900  0.91051800  0.07687300  1
  O  O30  1  0.68683100  0.18464000  0.54049500  1
  O  O31  1  0.68683100  0.81536000  0.45950500  1
  O  O32  1  0.64149600  0.96548000  0.66596200  1
  O  O33  1  0.64149600  0.03452000  0.33403800  1
  O  O34  1  0.67131700  0.23013300  0.72769400  1
  O  O35  1  0.67131700  0.76986700  0.27230600  1
  O  O36  1  0.82291400  0.74560500  0.74779900  1
  O  O37  1  0.82291400  0.25439500  0.25220100  1
  O  O38  1  0.86382700  0.48237100  0.81677200  1
  O  O39  1  0.86382700  0.51762900  0.18322800  1
  O  O40  1  0.79855700  0.70903000  0.93221000  1
  O  O41  1  0.79855700  0.29097000  0.06779000  1
  O  O42  1  0.86467500  0.60081000  0.56445400  1
  O  O43  1  0.86467500  0.39919000  0.43554600  1
  O  O44  1  0.94622400  0.82800700  0.14293500  1
  O  O45  1  0.94622400  0.17199300  0.85706500  1
  O  O46  1  0.93575400  0.91634100  0.58269600  1
  O  O47  1  0.93575400  0.08365900  0.41730400  1
loop_
_geom_bond_atom_site_label_1
_geom_bond_atom_site_label_2
_geom_bond_distance
_geom_bond_site_symmetry_2
Na0 O2 2.191148 1_555
Na0 O10 2.289990 1_555
Na0 O18 2.355714 1_555
Na0 O15 2.484729 1_555
Na0 O12 2.819892 1_555
Na0 O38 2.823803 1_455
Na0 O6 2.947985 1_555
Na1 O3 2.191148 1_555
Na1 O11 2.289990 1_555
Na1 O19 2.355714 1_555
Na1 O14 2.484729 1_555
Na1 O13 2.819892 1_555
Na1 O39 2.823803 1_455
Na1 O7 2.947985 1_555
Na2 O12 2.257900 1_555
Na2 O5 2.273331 1_565
Na2 O20 2.380352 1_565
Na2 O8 2.463741 1_555
Na2 O16 2.747363 1_555
Na3 O13 2.257900 1_555
Na3 O4 2.273331 1_545
Na3 O21 2.380352 1_545
Na3 O9 2.463741 1_555
Na3 O17 2.747363 1_555
Na4 O25 2.258526 1_555
Na4 O34 2.364890 1_555
Na4 O10 2.418077 1_555
Na4 O28 2.468578 1_555
Na4 O20 2.532199 1_555
Na4 O6 2.735230 1_555
Na5 O24 2.258526 1_555
Na5 O35 2.364890 1_555
Na5 O11 2.418077 1_555
Na5 O29 2.468578 1_555
Na5 O21 2.532199 1_555
Na5 O7 2.735230 1_555
Na6 O22 2.255219 1_555
Na6 O12 2.367070 1_555
Na6 O36 2.383631 1_555
Na6 O26 2.447281 1_555
Na6 O40 2.566454 1_555
Na6 O32 2.669075 1_555
Na6 O18 2.897830 1_555
Na7 O23 2.255219 1_555
Na7 O13 2.367070 1_555
Na7 O37 2.383631 1_555
Na7 O27 2.447281 1_555
Na7 O41 2.566454 1_555
Na7 O33 2.669075 1_555
Na7 O19 2.897830 1_555
Na8 O26 2.169850 1_555
Na8 O34 2.247237 1_555
Na8 O42 2.370228 1_555
Na8 O38 2.406766 1_555
Na9 O27 2.169850 1_555
Na9 O35 2.247237 1_555
Na9 O43 2.370228 1_555
Na9 O39 2.406766 1_555
Na10 O45 2.191581 1_565
Na10 O36 2.278910 1_555
Na10 O28 2.334798 1_565
Na10 O32 2.659137 1_555
Na10 O40 2.659478 1_555
Na11 O44 2.191581 1_545
Na11 O37 2.278910 1_555
Na11 O29 2.334798 1_545
Na11 O33 2.659137 1_555
Na11 O41 2.659478 1_555
Na12 O1 2.300913 1_655
Na12 O35 2.374221 1_555
Na12 O44 2.383982 1_555
Na12 O11 2.474846 1_655
Na12 O4 2.641090 1_655
Na12 O39 2.815767 1_555
Na12 O31 2.863136 1_555
Na13 O0 2.300913 1_655
Na13 O34 2.374221 1_555
Na13 O45 2.383982 1_555
Na13 O10 2.474846 1_655
Na13 O5 2.641090 1_655
Na13 O38 2.815767 1_555
Na13 O30 2.863136 1_555
Cr0 O6 1.973069 1_554
Cr0 O23 1.976579 1_555
Cr0 O3 1.999756 1_555
Cr0 O19 2.008909 1_555
Cr0 O9 2.068275 1_555
Cr0 O13 2.235244 1_555
Cr1 O7 1.973069 1_556
Cr1 O22 1.976579 1_555
Cr1 O2 1.999756 1_555
Cr1 O18 2.008909 1_555
Cr1 O8 2.068275 1_555
Cr1 O12 2.235244 1_555
Cr2 O17 1.942077 1_555
Cr2 O0 2.011513 1_555
Cr2 O5 2.024045 1_555
Cr2 O20 2.056098 1_555
Cr2 O15 2.066305 1_555
Cr2 O10 2.240180 1_555
Cr3 O16 1.942077 1_555
Cr3 O1 2.011513 1_555
Cr3 O4 2.024045 1_555
Cr3 O21 2.056098 1_555
Cr3 O14 2.066305 1_555
Cr3 O11 2.240180 1_555
Cr4 O31 1.951569 1_555
Cr4 O46 1.976419 1_555
Cr4 O36 2.004318 1_555
Cr4 O42 2.022616 1_555
Cr4 O32 2.050326 1_555
Cr4 O26 2.111051 1_555
Cr5 O30 1.951569 1_555
Cr5 O47 1.976419 1_555
Cr5 O37 2.004318 1_555
Cr5 O43 2.022616 1_555
Cr5 O33 2.050326 1_555
Cr5 O27 2.111051 1_555
Cr6 O25 2.060730 1_555
Cr6 O45 2.113488 1_555
Cr6 O41 2.115174 1_556
Cr6 O38 2.195930 1_555
Cr6 O28 2.251946 1_555
Cr6 O34 2.510750 1_555
Cr7 O24 2.060730 1_555
Cr7 O44 2.113488 1_555
Cr7 O40 2.115174 1_554
Cr7 O39 2.195930 1_555
Cr7 O29 2.251946 1_555
Cr7 O35 2.510750 1_555
O0 P11 1.558765 1_455
O1 P11 1.558765 1_455
O2 P9 1.546756 1_455
O3 P10 1.546756 1_455
O4 P0 1.557930 1_565
O5 P0 1.557930 1_555
O6 P1 1.539280 1_555
O7 P2 1.539280 1_555
O8 P1 1.551550 1_565
O9 P2 1.551550 1_545
O10 P1 1.576736 1_555
O11 P2 1.576736 1_555
O12 P3 1.560363 1_555
O13 P4 1.560363 1_555
O14 P4 1.571085 1_555
O15 P3 1.571085 1_555
O16 P3 1.536958 1_555
O17 P4 1.536958 1_555
O18 P5 1.561747 1_556
O19 P5 1.561747 1_555
O20 P7 1.566626 1_555
O21 P8 1.566626 1_555
O22 P6 1.562785 1_566
O23 P6 1.562785 1_555
O24 P5 1.540718 1_555
O25 P5 1.540718 1_556
O26 P3 1.552529 1_555
O27 P4 1.552529 1_555
O28 P6 1.540259 1_556
O29 P6 1.540259 1_565
O30 P7 1.533731 1_555
O31 P8 1.533731 1_555
O32 P7 1.559377 1_565
O33 P8 1.559377 1_545
O34 P7 1.552782 1_555
O35 P8 1.552782 1_555
O36 P9 1.568013 1_555
O37 P10 1.568013 1_555
O38 P9 1.554826 1_555
O39 P10 1.554826 1_555
O40 P9 1.535405 1_555
O41 P10 1.535405 1_555
O42 P11 1.545280 1_555
O43 P11 1.545280 1_555
O44 P2 1.542425 1_655
O45 P1 1.542425 1_655
O46 P0 1.539734 1_665
O47 P0 1.539734 1_655
