# generated using pymatgen
data_Li12CrFe3P4(CO7)4
_symmetry_space_group_name_H-M   'P 1'
_cell_length_a   6.50241300
_cell_length_b   8.55506900
_cell_length_c   9.98126830
_cell_angle_alpha   85.26794216
_cell_angle_beta   90.00000000
_cell_angle_gamma   90.00000000
_symmetry_Int_Tables_number   1
_chemical_formula_structural   Li12CrFe3P4(CO7)4
_chemical_formula_sum   'Li12 Cr1 Fe3 P4 C4 O28'
_cell_volume   553.35128808
_cell_formula_units_Z   1
loop_
 _symmetry_equiv_pos_site_id
 _symmetry_equiv_pos_as_xyz
  1  'x, y, z'
loop_
 _atom_site_type_symbol
 _atom_site_label
 _atom_site_symmetry_multiplicity
 _atom_site_fract_x
 _atom_site_fract_y
 _atom_site_fract_z
 _atom_site_occupancy
  Li  Li0  1  0.00000000  0.90501500  0.62048100  1
  Li  Li1  1  0.00000000  0.90619800  0.11960100  1
  Li  Li2  1  0.22548200  0.72543200  0.87672300  1
  Li  Li3  1  0.77451800  0.72543200  0.87672300  1
  Li  Li4  1  0.22488100  0.72570400  0.37644400  1
  Li  Li5  1  0.77511900  0.72570400  0.37644400  1
  Li  Li6  1  0.72592200  0.27428800  0.62458200  1
  Li  Li7  1  0.27407800  0.27428800  0.62458200  1
  Li  Li8  1  0.72590900  0.27411100  0.12284900  1
  Li  Li9  1  0.27409100  0.27411100  0.12284900  1
  Li  Li10  1  0.50000000  0.09364500  0.88028000  1
  Li  Li11  1  0.50000000  0.09273600  0.37974400  1
  Cr  Cr0  1  0.00000000  0.33480000  0.39238700  1
  Fe  Fe0  1  0.50000000  0.66498900  0.60710700  1
  Fe  Fe1  1  0.50000000  0.66536400  0.10663100  1
  Fe  Fe2  1  0.00000000  0.33514600  0.89367400  1
  P  P0  1  0.00000000  0.58752700  0.64111300  1
  P  P1  1  0.00000000  0.58973700  0.14031700  1
  P  P2  1  0.50000000  0.41193500  0.85904900  1
  P  P3  1  0.50000000  0.41258100  0.35880500  1
  C  C0  1  0.50000000  0.96560600  0.64812500  1
  C  C1  1  0.50000000  0.96562200  0.14842200  1
  C  C2  1  0.00000000  0.03550200  0.85169400  1
  C  C3  1  0.00000000  0.03224000  0.35314000  1
  O  O0  1  0.50000000  0.92905400  0.52471500  1
  O  O1  1  0.00000000  0.88977500  0.82160800  1
  O  O2  1  0.50000000  0.92920600  0.02480000  1
  O  O3  1  0.50000000  0.85259300  0.74484900  1
  O  O4  1  0.00000000  0.88767900  0.32009000  1
  O  O5  1  0.50000000  0.85263800  0.24499700  1
  O  O6  1  0.18663100  0.68903000  0.58736900  1
  O  O7  1  0.81336900  0.68903000  0.58736900  1
  O  O8  1  0.18706500  0.69015800  0.08520700  1
  O  O9  1  0.81293500  0.69015800  0.08520700  1
  O  O10  1  0.50000000  0.57793800  0.90912300  1
  O  O11  1  0.00000000  0.57287300  0.79816900  1
  O  O12  1  0.50000000  0.57845800  0.40935100  1
  O  O13  1  0.00000000  0.57893200  0.29637200  1
  O  O14  1  0.50000000  0.42749000  0.70207700  1
  O  O15  1  0.00000000  0.42200700  0.59152600  1
  O  O16  1  0.50000000  0.42826700  0.20165600  1
  O  O17  1  0.00000000  0.42261500  0.09218800  1
  O  O18  1  0.31332600  0.31050500  0.91254900  1
  O  O19  1  0.68667400  0.31050500  0.91254900  1
  O  O20  1  0.68618600  0.31133900  0.41218700  1
  O  O21  1  0.31381400  0.31133900  0.41218700  1
  O  O22  1  0.00000000  0.14796500  0.75550800  1
  O  O23  1  0.50000000  0.11049300  0.67805900  1
  O  O24  1  0.00000000  0.14662200  0.25801100  1
  O  O25  1  0.00000000  0.07100800  0.97531600  1
  O  O26  1  0.50000000  0.11051600  0.17812800  1
  O  O27  1  0.00000000  0.06409500  0.47706600  1
loop_
_geom_bond_atom_site_label_1
_geom_bond_atom_site_label_2
_geom_bond_distance
_geom_bond_site_symmetry_2
Li0 O27 1.892041 1_565
Li0 O1 2.000970 1_555
Li0 O6 2.257640 1_555
Li0 O7 2.257640 1_455
Li1 O25 1.930541 1_564
Li1 O4 1.994325 1_555
Li1 O8 2.262318 1_555
Li1 O9 2.262318 1_455
Li2 O1 2.073989 1_555
Li2 O8 2.092880 1_556
Li2 O11 2.153301 1_555
Li2 O10 2.194488 1_555
Li2 O3 2.422004 1_555
Li3 O1 2.073989 1_655
Li3 O9 2.092880 1_556
Li3 O11 2.153301 1_655
Li3 O10 2.194488 1_555
Li3 O3 2.422004 1_555
Li4 O4 2.060632 1_555
Li4 O6 2.117451 1_555
Li4 O13 2.125842 1_555
Li4 O12 2.196988 1_555
Li4 O5 2.421948 1_555
Li5 O4 2.060632 1_655
Li5 O7 2.117451 1_555
Li5 O13 2.125842 1_655
Li5 O12 2.196988 1_555
Li5 O5 2.421948 1_555
Li6 O23 2.069578 1_555
Li6 O20 2.133223 1_555
Li6 O14 2.154403 1_555
Li6 O15 2.193911 1_655
Li6 O22 2.412213 1_655
Li7 O23 2.069578 1_555
Li7 O21 2.133223 1_555
Li7 O14 2.154403 1_555
Li7 O15 2.193911 1_555
Li7 O22 2.412213 1_555
Li8 O26 2.072109 1_555
Li8 O19 2.111931 1_554
Li8 O16 2.164945 1_555
Li8 O17 2.195451 1_655
Li8 O24 2.437882 1_655
Li9 O26 2.072109 1_555
Li9 O18 2.111931 1_554
Li9 O16 2.164945 1_555
Li9 O17 2.195451 1_555
Li9 O24 2.437882 1_555
Li10 O2 1.930031 1_546
Li10 O23 2.011666 1_555
Li10 O19 2.262229 1_555
Li10 O18 2.262229 1_555
Li11 O0 1.928821 1_545
Li11 O26 2.005572 1_555
Li11 O20 2.273321 1_555
Li11 O21 2.273321 1_555
Li11 O5 2.546336 1_545
Cr0 O21 2.058309 1_555
Cr0 O20 2.058309 1_455
Cr0 O24 2.178736 1_555
Cr0 O15 2.179924 1_555
Cr0 O13 2.224927 1_555
Cr0 O27 2.398917 1_555
Fe0 O6 2.055837 1_555
Fe0 O7 2.055837 1_555
Fe0 O12 2.164534 1_555
Fe0 O14 2.170040 1_555
Fe0 O3 2.197764 1_555
Fe0 O0 2.339505 1_555
Fe1 O9 2.055184 1_555
Fe1 O8 2.055184 1_555
Fe1 O10 2.165415 1_554
Fe1 O16 2.167142 1_555
Fe1 O5 2.199837 1_555
Fe1 O2 2.336201 1_555
Fe2 O18 2.055305 1_555
Fe2 O19 2.055305 1_455
Fe2 O11 2.173720 1_555
Fe2 O17 2.175000 1_556
Fe2 O22 2.197843 1_555
Fe2 O25 2.338067 1_555
C0 O0 1.295623 1_555
C0 O23 1.298760 1_565
C0 O3 1.308745 1_555
C1 O2 1.297306 1_555
C1 O26 1.298118 1_565
C1 O5 1.307571 1_555
C2 O25 1.294847 1_555
C2 O22 1.301922 1_555
C2 O1 1.306224 1_545
C3 O27 1.288372 1_555
C3 O4 1.305999 1_545
C3 O24 1.306069 1_555
O6 P0 1.561304 1_555
O7 P0 1.561304 1_655
O8 P1 1.562766 1_555
O9 P1 1.562766 1_655
O10 P2 1.543952 1_555
O11 P0 1.562280 1_555
O12 P3 1.544822 1_555
O13 P1 1.552736 1_555
O14 P2 1.561444 1_555
O15 P0 1.538102 1_555
O16 P3 1.563207 1_555
O17 P1 1.545397 1_555
O18 P2 1.560468 1_555
O19 P2 1.560468 1_555
O20 P3 1.556802 1_555
O21 P3 1.556802 1_555
