# generated using pymatgen
data_Li10Ti3Mn5O16
_symmetry_space_group_name_H-M   'P 1'
_cell_length_a   6.03194800
_cell_length_b   6.22191504
_cell_length_c   10.10876369
_cell_angle_alpha   91.71333202
_cell_angle_beta   90.15372015
_cell_angle_gamma   118.74026100
_symmetry_Int_Tables_number   1
_chemical_formula_structural   Li10Ti3Mn5O16
_chemical_formula_sum   'Li10 Ti3 Mn5 O16'
_cell_volume   332.43593892
_cell_formula_units_Z   1
loop_
 _symmetry_equiv_pos_site_id
 _symmetry_equiv_pos_as_xyz
  1  'x, y, z'
loop_
 _atom_site_type_symbol
 _atom_site_label
 _atom_site_symmetry_multiplicity
 _atom_site_fract_x
 _atom_site_fract_y
 _atom_site_fract_z
 _atom_site_occupancy
  Li  Li0  1  0.81904300  0.62913400  0.56161800  1
  Li  Li1  1  0.42062600  0.25764200  0.54690100  1
  Li  Li2  1  0.68423800  0.35871400  0.77795400  1
  Li  Li3  1  0.17793500  0.81383800  0.07657600  1
  Li  Li4  1  0.85773700  0.25389500  0.54680100  1
  Li  Li5  1  0.35668400  0.69768600  0.26901300  1
  Li  Li6  1  0.64571300  0.81204900  0.07506900  1
  Li  Li7  1  0.23748900  0.45957100  0.05284600  1
  Li  Li8  1  0.02512000  0.04489000  0.99115000  1
  Li  Li9  1  0.00743700  0.98823500  0.48583900  1
  Ti  Ti0  1  0.83535900  0.65429100  0.29036500  1
  Ti  Ti1  1  0.16301500  0.84560300  0.79158500  1
  Ti  Ti2  1  0.66957100  0.86517300  0.78087000  1
  Mn  Mn0  1  0.65548700  0.30038500  0.03592500  1
  Mn  Mn1  1  0.34304800  0.67144500  0.52006400  1
  Mn  Mn2  1  0.34042600  0.17181200  0.28579800  1
  Mn  Mn3  1  0.84800400  0.17124600  0.28584800  1
  Mn  Mn4  1  0.18801700  0.35695400  0.78016100  1
  O  O0  1  0.98297900  0.95364000  0.17053200  1
  O  O1  1  0.87661900  0.72821300  0.89713800  1
  O  O2  1  0.52110800  0.50421300  0.16521500  1
  O  O3  1  0.69264200  0.36507700  0.40998300  1
  O  O4  1  0.99641300  0.50247700  0.16388200  1
  O  O5  1  0.33297400  0.16293500  0.89601000  1
  O  O6  1  0.50672600  0.99951800  0.16261700  1
  O  O7  1  0.14571600  0.80888600  0.39839900  1
  O  O8  1  0.84000100  0.16489200  0.89407200  1
  O  O9  1  0.51306700  0.00116200  0.67284700  1
  O  O10  1  0.68478300  0.80954500  0.40142400  1
  O  O11  1  0.03020200  0.54789800  0.67477700  1
  O  O12  1  0.36766600  0.71787800  0.89665700  1
  O  O13  1  0.53238500  0.54752300  0.67561100  1
  O  O14  1  0.16319700  0.30530100  0.43415100  1
  O  O15  1  0.99687200  0.98165000  0.67500200  1
loop_
_geom_bond_atom_site_label_1
_geom_bond_atom_site_label_2
_geom_bond_distance
_geom_bond_site_symmetry_2
Li0 O13 1.943407 1_555
Li0 O11 1.957589 1_655
Li0 O3 2.066075 1_555
Li0 O15 2.203525 1_555
Li0 O10 2.348209 1_555
Li0 O7 2.421644 1_655
Li1 O3 2.016783 1_555
Li1 O13 2.021393 1_555
Li1 O14 2.061963 1_555
Li1 O9 2.334912 1_555
Li2 O13 2.095652 1_555
Li2 O11 2.133328 1_655
Li2 O9 2.188127 1_555
Li2 O8 2.209808 1_555
Li2 O5 2.239598 1_555
Li2 O1 2.311881 1_555
Li3 O6 1.936931 1_555
Li3 O4 1.948923 1_455
Li3 O0 1.995464 1_455
Li3 O12 2.361666 1_554
Li3 O1 2.422968 1_454
Li4 O3 2.023713 1_555
Li4 O11 2.030576 1_655
Li4 O14 2.064034 1_655
Li4 O9 2.325649 1_555
Li5 O6 1.998535 1_555
Li5 O7 2.147158 1_555
Li5 O2 2.147533 1_555
Li5 O4 2.167779 1_455
Li5 O10 2.190482 1_555
Li6 O6 1.931131 1_555
Li6 O2 1.946134 1_555
Li6 O0 2.015220 1_555
Li6 O12 2.320439 1_554
Li6 O1 2.470470 1_554
Li7 O2 1.951392 1_555
Li7 O4 1.951888 1_455
Li7 O12 2.153410 1_554
Li8 O0 1.897464 1_446
Li8 O8 1.899228 1_455
Li8 O5 1.911259 1_555
Li8 O1 1.942657 1_445
Li9 O14 1.824645 1_565
Li9 O7 1.887404 1_555
Li9 O10 1.898827 1_455
Li9 O15 1.914443 1_455
Mn0 O6 2.117495 1_545
Mn0 O5 2.197563 1_554
Mn0 O8 2.200964 1_554
Mn0 O2 2.206500 1_555
Mn0 O4 2.210186 1_555
Mn0 O1 2.766236 1_554
Mn1 O14 2.149626 1_555
Mn1 O7 2.166702 1_555
Mn1 O10 2.190269 1_555
Mn1 O13 2.298023 1_555
Mn1 O11 2.300135 1_555
Mn1 O9 2.329029 1_565
Mn2 O6 2.160317 1_545
Mn2 O14 2.206729 1_555
Mn2 O0 2.219554 1_445
Mn2 O2 2.222879 1_555
Mn2 O3 2.230287 1_555
Mn2 O7 2.320439 1_545
Mn3 O6 2.173145 1_545
Mn3 O0 2.196731 1_545
Mn3 O3 2.215853 1_555
Mn3 O14 2.223233 1_655
Mn3 O4 2.225402 1_555
Mn3 O10 2.330572 1_545
Mn4 O13 2.134435 1_555
Mn4 O11 2.147163 1_555
Mn4 O5 2.165029 1_555
Mn4 O8 2.200795 1_455
Mn4 O12 2.258049 1_555
Mn4 O15 2.273313 1_445
O0 Ti0 2.067624 1_555
O1 Ti1 1.870669 1_655
O1 Ti2 2.177798 1_555
O2 Ti0 2.068778 1_555
O3 Ti0 2.021699 1_555
O4 Ti0 2.070667 1_555
O5 Ti1 1.996649 1_545
O7 Ti0 1.953713 1_455
O8 Ti2 1.966307 1_545
O9 Ti2 1.901937 1_545
O9 Ti1 2.225673 1_545
O10 Ti0 1.950080 1_555
O11 Ti1 1.975888 1_555
O12 Ti2 1.999198 1_555
O12 Ti1 2.066495 1_555
O13 Ti2 2.004941 1_555
O15 Ti1 1.994706 1_655
O15 Ti2 2.061555 1_555
