# generated using pymatgen
data_Mn3Co2Te3O16
_symmetry_space_group_name_H-M   'P 1'
_cell_length_a   6.15473915
_cell_length_b   6.15473915
_cell_length_c   9.20050301
_cell_angle_alpha   89.33794422
_cell_angle_beta   89.33794422
_cell_angle_gamma   59.14666007
_symmetry_Int_Tables_number   1
_chemical_formula_structural   Mn3Co2Te3O16
_chemical_formula_sum   'Mn3 Co2 Te3 O16'
_cell_volume   299.17421456
_cell_formula_units_Z   1
loop_
 _symmetry_equiv_pos_site_id
 _symmetry_equiv_pos_as_xyz
  1  'x, y, z'
loop_
 _atom_site_type_symbol
 _atom_site_label
 _atom_site_symmetry_multiplicity
 _atom_site_fract_x
 _atom_site_fract_y
 _atom_site_fract_z
 _atom_site_occupancy
  Mn  Mn0  1  0.83232600  0.83232600  0.78654100  1
  Mn  Mn1  1  0.16477000  0.66472400  0.28941000  1
  Mn  Mn2  1  0.66472400  0.16477000  0.28941000  1
  Co  Co0  1  0.67533100  0.67533100  0.48499300  1
  Co  Co1  1  0.34626900  0.34626900  0.01799600  1
  Te  Te0  1  0.33486100  0.83145900  0.78735300  1
  Te  Te1  1  0.83145900  0.33486100  0.78735300  1
  Te  Te2  1  0.16662400  0.16662400  0.28696500  1
  O  O0  1  0.32275200  0.84552300  0.39607700  1
  O  O1  1  0.51812900  0.51812900  0.66401700  1
  O  O2  1  0.64668200  0.64668200  0.91265800  1
  O  O3  1  0.01641000  0.01641000  0.67090300  1
  O  O4  1  0.00647700  0.00647700  0.18072800  1
  O  O5  1  0.84552300  0.32275200  0.39607700  1
  O  O6  1  0.50838700  0.95699800  0.67437100  1
  O  O7  1  0.95699800  0.50838700  0.67437100  1
  O  O8  1  0.15956200  0.15956200  0.90056400  1
  O  O9  1  0.84350500  0.84350500  0.39197500  1
  O  O10  1  0.04040700  0.47888900  0.16545500  1
  O  O11  1  0.47888900  0.04040700  0.16545500  1
  O  O12  1  0.32398900  0.32398900  0.40231600  1
  O  O13  1  0.17060000  0.68184500  0.89070400  1
  O  O14  1  0.47419400  0.47419400  0.17841100  1
  O  O15  1  0.68184500  0.17060000  0.89070400  1
loop_
_geom_bond_atom_site_label_1
_geom_bond_atom_site_label_2
_geom_bond_distance
_geom_bond_site_symmetry_2
Mn0 O6 2.022134 1_555
Mn0 O7 2.022134 1_555
Mn0 O15 2.039289 1_565
Mn0 O13 2.039289 1_655
Mn0 O3 2.227149 1_665
Mn0 O2 2.288052 1_555
Mn1 O14 1.933142 1_555
Mn1 O9 1.939133 1_455
Mn1 O10 2.035426 1_555
Mn1 O4 2.060425 1_565
Mn1 O12 2.074289 1_555
Mn1 O0 2.074583 1_555
Mn2 O14 1.933142 1_555
Mn2 O9 1.939133 1_545
Mn2 O11 2.035426 1_555
Mn2 O4 2.060425 1_655
Mn2 O12 2.074289 1_555
Mn2 O5 2.074583 1_555
Co0 O9 1.983200 1_555
Co0 O0 2.040899 1_555
Co0 O5 2.040899 1_555
Co0 O6 2.301817 1_555
Co0 O7 2.301817 1_555
Co0 O1 2.339177 1_555
Co1 O14 2.026732 1_555
Co1 O11 2.107419 1_555
Co1 O10 2.107419 1_555
Co1 O15 2.118799 1_554
Co1 O13 2.118799 1_554
Co1 O8 2.284766 1_554
O0 Te2 1.966086 1_565
O1 Te1 2.017133 1_555
O1 Te0 2.017133 1_555
O2 Te1 2.021850 1_555
O2 Te0 2.021850 1_555
O3 Te0 2.004284 1_545
O3 Te1 2.004284 1_455
O4 Te2 1.984806 1_555
O5 Te2 1.966086 1_655
O6 Te0 1.902727 1_555
O7 Te1 1.902727 1_555
O8 Te1 2.028508 1_455
O8 Te0 2.028508 1_545
O10 Te2 1.996520 1_555
O11 Te2 1.996520 1_555
O12 Te2 2.003034 1_555
O13 Te0 1.920055 1_555
O15 Te1 1.920055 1_555
