# generated using pymatgen
data_Li7Mn(OF)3
_symmetry_space_group_name_H-M   'P 1'
_cell_length_a   5.51956400
_cell_length_b   6.07508242
_cell_length_c   9.77562563
_cell_angle_alpha   104.73081363
_cell_angle_beta   87.02534680
_cell_angle_gamma   116.97177655
_symmetry_Int_Tables_number   1
_chemical_formula_structural   Li7Mn(OF)3
_chemical_formula_sum   'Li14 Mn2 O6 F6'
_cell_volume   281.77171058
_cell_formula_units_Z   2
loop_
 _symmetry_equiv_pos_site_id
 _symmetry_equiv_pos_as_xyz
  1  'x, y, z'
loop_
 _atom_site_type_symbol
 _atom_site_label
 _atom_site_symmetry_multiplicity
 _atom_site_fract_x
 _atom_site_fract_y
 _atom_site_fract_z
 _atom_site_occupancy
  Li  Li0  1  0.52908900  0.36680400  0.74663600  1
  Li  Li1  1  0.53250500  0.34868800  0.05804300  1
  Li  Li2  1  0.56281100  0.09069000  0.20708500  1
  Li  Li3  1  0.91362800  0.94068800  0.31622200  1
  Li  Li4  1  0.94742100  0.60323800  0.44357600  1
  Li  Li5  1  0.00337500  0.63217500  0.75372700  1
  Li  Li6  1  0.00384400  0.63152900  0.09958100  1
  Li  Li7  1  0.98845800  0.35733900  0.88513300  1
  Li  Li8  1  0.05190500  0.36724600  0.23897700  1
  Li  Li9  1  0.02871200  0.35459900  0.55159100  1
  Li  Li10  1  0.01811600  0.03444900  0.67361700  1
  Li  Li11  1  0.45421800  0.99928600  0.82036200  1
  Li  Li12  1  0.45133100  0.65269000  0.95139200  1
  Li  Li13  1  0.49681200  0.64418000  0.60265200  1
  Mn  Mn0  1  0.01763100  0.01652400  0.99141600  1
  Mn  Mn1  1  0.52166300  0.02684700  0.50988200  1
  O  O0  1  0.29991600  0.26839100  0.88509400  1
  O  O1  1  0.80580700  0.22066200  0.37798500  1
  O  O2  1  0.79172500  0.24460900  0.70229200  1
  O  O3  1  0.81807800  0.24774300  0.05940800  1
  O  O4  1  0.17252000  0.74839400  0.93984800  1
  O  O5  1  0.22009700  0.75230800  0.60469600  1
  F  F0  1  0.28313800  0.20631300  0.19876200  1
  F  F1  1  0.31750900  0.28213300  0.57414700  1
  F  F2  1  0.14310200  0.73793900  0.28931400  1
  F  F3  1  0.75967000  0.79345800  0.48263600  1
  F  F4  1  0.69834700  0.73626700  0.78207000  1
  F  F5  1  0.69790900  0.72445400  0.12122600  1
loop_
_geom_bond_atom_site_label_1
_geom_bond_atom_site_label_2
_geom_bond_distance
_geom_bond_site_symmetry_2
Li0 O0 1.826837 1_555
Li0 O2 1.894128 1_555
Li1 O3 1.934930 1_555
Li1 O0 1.995562 1_554
Li2 O1 1.953076 1_555
Li2 O3 2.061439 1_555
Li3 O1 1.992562 1_565
Li4 O5 1.962233 1_655
Li4 O1 2.017457 1_555
Li5 O4 1.898838 1_555
Li5 O5 1.911534 1_555
Li5 O2 2.031024 1_455
Li6 O4 1.903263 1_554
Li6 O3 2.012262 1_455
Li7 O2 1.935780 1_555
Li7 O3 2.018094 1_556
Li7 O0 2.022331 1_655
Li7 O4 2.045230 1_655
Li8 O1 1.952252 1_455
Li8 O3 2.002821 1_455
Li9 O1 1.913720 1_455
Li9 O2 1.958467 1_455
Li9 O5 2.080111 1_555
Li10 O2 2.121063 1_455
Li10 O0 2.355270 1_555
Li10 O5 2.388060 1_545
Li11 O0 2.116469 1_565
Li11 O4 2.161533 1_555
Li11 O2 2.270884 1_565
Li11 O5 2.298089 1_555
Li12 O4 1.892629 1_555
Li12 O0 2.021361 1_555
Li13 O5 1.914402 1_555
Mn0 O0 2.080213 1_555
Mn0 O4 2.106955 1_545
Mn0 O3 2.116773 1_456
Mn1 O1 2.096588 1_555
Mn1 O5 2.125836 1_545
Mn1 O2 2.178700 1_555
F0 Li8 1.903608 1_555
F0 Li1 1.965600 1_555
F0 Li2 1.977022 1_555
F0 Mn0 2.274327 1_554
F0 Li3 2.407485 1_445
F1 Li9 1.872373 1_555
F1 Li13 1.907130 1_555
F1 Li0 1.920943 1_555
F1 Li10 2.064517 1_555
F1 Mn1 2.255210 1_555
F2 Li6 1.880509 1_555
F2 Li4 1.940897 1_455
F2 Li8 2.000214 1_555
F2 Li3 2.099142 1_455
F2 Mn1 2.704070 1_565
F3 Li4 1.837383 1_555
F3 Li13 1.864081 1_555
F3 Li3 2.018827 1_555
F3 Li10 2.157730 1_665
F3 Mn1 2.295275 1_565
F4 Li13 1.940519 1_555
F4 Li0 1.940806 1_555
F4 Li5 2.034572 1_655
F4 Li12 2.102788 1_555
F4 Li10 2.324416 1_665
F4 Mn0 2.464394 1_665
F4 Li11 2.470941 1_555
F5 Li1 1.969054 1_555
F5 Li6 1.995449 1_655
F5 Li12 2.031491 1_554
F5 Li3 2.078527 1_555
F5 Mn0 2.438269 1_664
F5 Li2 2.588640 1_565
