# generated using pymatgen
data_Mn2Fe3Sn2(CO)19
_symmetry_space_group_name_H-M   'P 1'
_cell_length_a   9.63252905
_cell_length_b   11.41148679
_cell_length_c   27.92808147
_cell_angle_alpha   90.00000000
_cell_angle_beta   96.04407994
_cell_angle_gamma   90.00000000
_symmetry_Int_Tables_number   1
_chemical_formula_structural   Mn2Fe3Sn2(CO)19
_chemical_formula_sum   'Mn8 Fe12 Sn8 C76 O76'
_cell_volume   3052.83100322
_cell_formula_units_Z   4
loop_
 _symmetry_equiv_pos_site_id
 _symmetry_equiv_pos_as_xyz
  1  'x, y, z'
loop_
 _atom_site_type_symbol
 _atom_site_label
 _atom_site_symmetry_multiplicity
 _atom_site_fract_x
 _atom_site_fract_y
 _atom_site_fract_z
 _atom_site_occupancy
  Mn  Mn0  1  0.28252553  0.05567961  0.58369055  1
  Mn  Mn1  1  0.21747447  0.55567961  0.91630945  1
  Mn  Mn2  1  0.75389910  0.42594542  0.66145986  1
  Mn  Mn3  1  0.24610090  0.57405458  0.33854014  1
  Mn  Mn4  1  0.74610090  0.92594542  0.83854014  1
  Mn  Mn5  1  0.78252553  0.44432039  0.08369055  1
  Mn  Mn6  1  0.71747447  0.94432039  0.41630945  1
  Mn  Mn7  1  0.25389910  0.07405458  0.16145986  1
  Fe  Fe0  1  0.10464030  0.17876020  0.37311793  1
  Fe  Fe1  1  0.91285249  0.34261911  0.41438715  1
  Fe  Fe2  1  0.58714751  0.84261911  0.08561285  1
  Fe  Fe3  1  0.89535970  0.82123980  0.62688207  1
  Fe  Fe4  1  0.87218319  0.27209366  0.31730319  1
  Fe  Fe5  1  0.37218319  0.22790634  0.81730319  1
  Fe  Fe6  1  0.12781681  0.72790634  0.68269681  1
  Fe  Fe7  1  0.60464030  0.32123980  0.87311793  1
  Fe  Fe8  1  0.62781681  0.77209366  0.18269681  1
  Fe  Fe9  1  0.41285249  0.15738089  0.91438715  1
  Fe  Fe10  1  0.39535970  0.67876020  0.12688207  1
  Fe  Fe11  1  0.08714751  0.65738089  0.58561285  1
  Sn  Sn0  1  0.91625535  0.60190302  0.64460340  1
  Sn  Sn1  1  0.58374465  0.10190302  0.85539660  1
  Sn  Sn2  1  0.14638177  0.86838024  0.61058579  1
  Sn  Sn3  1  0.64638177  0.63161976  0.11058579  1
  Sn  Sn4  1  0.08374465  0.39809698  0.35539660  1
  Sn  Sn5  1  0.35361823  0.36838024  0.88941421  1
  Sn  Sn6  1  0.85361823  0.13161976  0.38941421  1
  Sn  Sn7  1  0.41625535  0.89809698  0.14460340  1
  C  C0  1  0.69677358  0.30840725  0.82218342  1
  C  C1  1  0.31470088  0.14166821  0.10648779  1
  C  C2  1  0.68529912  0.85833179  0.89351221  1
  C  C3  1  0.53969100  0.12671334  0.96403420  1
  C  C4  1  0.75878169  0.80465271  0.57920772  1
  C  C5  1  0.24121831  0.19534729  0.42079228  1
  C  C6  1  0.11496392  0.99622644  0.12184351  1
  C  C7  1  0.56258522  0.00881134  0.37981590  1
  C  C8  1  0.18994878  0.19836551  0.81785999  1
  C  C9  1  0.63820809  0.30424805  0.67209486  1
  C  C10  1  0.22706711  0.68965877  0.55161849  1
  C  C11  1  0.32594228  0.97664760  0.52838352  1
  C  C12  1  0.81005122  0.80163449  0.18214001  1
  C  C13  1  0.03969100  0.37328666  0.46403420  1
  C  C14  1  0.40537573  0.12225530  0.77335215  1
  C  C15  1  0.43741478  0.99118866  0.62018410  1
  C  C16  1  0.12918593  0.85067769  0.72222703  1
  C  C17  1  0.60272439  0.47554793  0.87315682  1
  C  C18  1  0.68994878  0.30163449  0.31785999  1
  C  C19  1  0.90580174  0.35708859  0.69847658  1
  C  C20  1  0.46030900  0.87328666  0.03596580  1
  C  C21  1  0.90537573  0.37774470  0.27335215  1
  C  C22  1  0.62918593  0.64932231  0.22222703  1
  C  C23  1  0.27293289  0.18965877  0.94838151  1
  C  C24  1  0.06258522  0.49118866  0.87981590  1
  C  C25  1  0.74121831  0.30465271  0.92079228  1
  C  C26  1  0.78940296  0.01014347  0.78428782  1
  C  C27  1  0.28940296  0.48985653  0.28428782  1
  C  C28  1  0.96030900  0.62671334  0.53596580  1
  C  C29  1  0.30322642  0.69159275  0.17781658  1
  C  C30  1  0.10272439  0.02445207  0.37315682  1
  C  C31  1  0.77293289  0.31034123  0.44838151  1
  C  C32  1  0.61438628  0.40192286  0.04900221  1
  C  C33  1  0.38503608  0.49622644  0.37815649  1
  C  C34  1  0.61496392  0.50377356  0.62184351  1
  C  C35  1  0.93741478  0.50881134  0.12018410  1
  C  C36  1  0.40580174  0.14291141  0.19847658  1
  C  C37  1  0.81470088  0.35833179  0.60648779  1
  C  C38  1  0.88561372  0.90192286  0.45099779  1
  C  C39  1  0.15185312  0.51576872  0.60210045  1
  C  C40  1  0.71059704  0.51014347  0.71571218  1
  C  C41  1  0.34814688  0.01576872  0.89789955  1
  C  C42  1  0.39727561  0.52445207  0.12684318  1
  C  C43  1  0.09462427  0.62225530  0.72664785  1
  C  C44  1  0.59419826  0.85708859  0.80152342  1
  C  C45  1  0.09419826  0.64291141  0.30152342  1
  C  C46  1  0.72706711  0.81034123  0.05161849  1
  C  C47  1  0.31005122  0.69836551  0.68214001  1
  C  C48  1  0.87857090  0.31266374  0.06834169  1
  C  C49  1  0.59462427  0.87774470  0.22664785  1
  C  C50  1  0.19677358  0.19159275  0.32218342  1
  C  C51  1  0.80322642  0.80840725  0.67781658  1
  C  C52  1  0.37857090  0.18733626  0.56834169  1
  C  C53  1  0.13820809  0.19575195  0.17209486  1
  C  C54  1  0.36179191  0.69575195  0.32790514  1
  C  C55  1  0.62142910  0.81266374  0.43165831  1
  C  C56  1  0.27268817  0.62877294  0.86136904  1
  C  C57  1  0.37081407  0.35067769  0.77777297  1
  C  C58  1  0.89727561  0.97554793  0.62684318  1
  C  C59  1  0.22731183  0.12877294  0.63863096  1
  C  C60  1  0.18529912  0.64166821  0.39351221  1
  C  C61  1  0.25878169  0.69534729  0.07920772  1
  C  C62  1  0.86179191  0.80424805  0.82790514  1
  C  C63  1  0.84814688  0.48423128  0.39789955  1
  C  C64  1  0.21059704  0.98985653  0.21571218  1
  C  C65  1  0.87081407  0.14932231  0.27777297  1
  C  C66  1  0.65185312  0.98423128  0.10210045  1
  C  C67  1  0.38561372  0.59807714  0.95099779  1
  C  C68  1  0.17405772  0.47664760  0.97161648  1
  C  C69  1  0.82594228  0.52335240  0.02838352  1
  C  C70  1  0.88503608  0.00377356  0.87815649  1
  C  C71  1  0.12142910  0.68733626  0.93165831  1
  C  C72  1  0.67405772  0.02335240  0.47161648  1
  C  C73  1  0.72731183  0.37122706  0.13863096  1
  C  C74  1  0.77268817  0.87122706  0.36136904  1
  C  C75  1  0.11438628  0.09807714  0.54900221  1
  O  O0  1  0.19338256  0.17690907  0.67175315  1
  O  O1  1  0.19925223  0.42293587  0.61074046  1
  O  O2  1  0.97145494  0.04874386  0.90339280  1
  O  O3  1  0.08674383  0.55948166  0.75957294  1
  O  O4  1  0.52854506  0.54874386  0.59660720  1
  O  O5  1  0.69925223  0.07706413  0.11074046  1
  O  O6  1  0.92894341  0.82197334  0.18321850  1
  O  O7  1  0.26007723  0.19126345  0.28863794  1
  O  O8  1  0.16700601  0.70053088  0.04847461  1
  O  O9  1  0.80074777  0.57706413  0.38925954  1
  O  O10  1  0.68127308  0.30499824  0.47256141  1
  O  O11  1  0.12051087  0.39378594  0.49696946  1
  O  O12  1  0.02854506  0.95125614  0.09660720  1
  O  O13  1  0.80661744  0.82309093  0.32824685  1
  O  O14  1  0.37985096  0.42281755  0.12901134  1
  O  O15  1  0.64849961  0.06558223  0.50720584  1
  O  O16  1  0.07105659  0.17802666  0.81678150  1
  O  O17  1  0.87948913  0.60621406  0.50303054  1
  O  O18  1  0.57105659  0.32197334  0.31678150  1
  O  O19  1  0.30074777  0.92293587  0.88925954  1
  O  O20  1  0.68518346  0.56022100  0.74953910  1
  O  O21  1  0.31481654  0.43977900  0.25046090  1
  O  O22  1  0.47145494  0.45125614  0.40339280  1
  O  O23  1  0.81481654  0.06022100  0.75046090  1
  O  O24  1  0.87985096  0.07718245  0.62901134  1
  O  O25  1  0.85150039  0.56558223  0.99279416  1
  O  O26  1  0.81872692  0.80499824  0.02743859  1
  O  O27  1  0.91325617  0.44051834  0.24042706  1
  O  O28  1  0.62051087  0.10621406  0.99696946  1
  O  O29  1  0.06402312  0.27269058  0.17824558  1
  O  O30  1  0.53486957  0.95323250  0.64241154  1
  O  O31  1  0.76007723  0.30873655  0.78863794  1
  O  O32  1  0.35150039  0.93441777  0.49279416  1
  O  O33  1  0.73992277  0.80873655  0.71136206  1
  O  O34  1  0.62832427  0.57344950  0.25014650  1
  O  O35  1  0.93597688  0.72730942  0.82175442  1
  O  O36  1  0.51127325  0.37683761  0.02635126  1
  O  O37  1  0.94094683  0.23004702  0.05999439  1
  O  O38  1  0.64669032  0.81721985  0.92746105  1
  O  O39  1  0.44094683  0.26995298  0.55999439  1
  O  O40  1  0.00205193  0.68790306  0.27920068  1
  O  O41  1  0.31872692  0.69500176  0.52743859  1
  O  O42  1  0.14849961  0.43441777  0.00720584  1
  O  O43  1  0.96513043  0.45323250  0.85758846  1
  O  O44  1  0.98872675  0.87683761  0.47364874  1
  O  O45  1  0.48872675  0.62316239  0.97364874  1
  O  O46  1  0.18518346  0.93977900  0.24953910  1
  O  O47  1  0.99794807  0.31209694  0.72079932  1
  O  O48  1  0.46513043  0.04676750  0.35758846  1
  O  O49  1  0.87167573  0.07344950  0.24985350  1
  O  O50  1  0.41325617  0.05948166  0.74042706  1
  O  O51  1  0.05905317  0.76995298  0.94000561  1
  O  O52  1  0.55905317  0.73004702  0.44000561  1
  O  O53  1  0.50205193  0.81209694  0.77920068  1
  O  O54  1  0.62014904  0.57718245  0.87098866  1
  O  O55  1  0.85330968  0.31721985  0.57253895  1
  O  O56  1  0.56402312  0.22730942  0.67824558  1
  O  O57  1  0.35330968  0.18278015  0.07253895  1
  O  O58  1  0.01127325  0.12316239  0.52635126  1
  O  O59  1  0.58674383  0.94051834  0.25957294  1
  O  O60  1  0.43597688  0.77269058  0.32175442  1
  O  O61  1  0.83299399  0.29946912  0.95152539  1
  O  O62  1  0.69338256  0.32309093  0.17175315  1
  O  O63  1  0.03486957  0.54676750  0.14241154  1
  O  O64  1  0.12014904  0.92281755  0.37098866  1
  O  O65  1  0.49794807  0.18790306  0.22079932  1
  O  O66  1  0.37948913  0.89378594  0.00303054  1
  O  O67  1  0.66700601  0.79946912  0.54847461  1
  O  O68  1  0.18127308  0.19500176  0.97256141  1
  O  O69  1  0.33299399  0.20053088  0.45152539  1
  O  O70  1  0.23992277  0.69126345  0.21136206  1
  O  O71  1  0.42894341  0.67802666  0.68321850  1
  O  O72  1  0.14669032  0.68278015  0.42746105  1
  O  O73  1  0.37167573  0.42655050  0.74985350  1
  O  O74  1  0.12832427  0.92655050  0.75014650  1
  O  O75  1  0.30661744  0.67690907  0.82824685  1
loop_
_geom_bond_atom_site_label_1
_geom_bond_atom_site_label_2
_geom_bond_distance
_geom_bond_site_symmetry_2
Mn0 Sn2 2.657020 1_545
Mn1 Sn5 2.657020 1_555
Mn2 Sn0 2.618065 1_555
Mn3 Sn4 2.618065 1_555
Mn4 Sn1 2.618065 1_565
Mn5 Sn3 2.657020 1_555
Mn6 Sn6 2.657020 1_565
Mn7 Sn7 2.618065 1_545
Fe0 Sn4 2.555247 1_555
Fe0 Sn6 2.564153 1_455
Fe1 Sn4 2.529004 1_655
Fe1 Sn6 2.554558 1_555
Fe2 Sn7 2.529004 1_555
Fe2 Sn3 2.554558 1_555
Fe3 Sn0 2.555247 1_555
Fe3 Sn2 2.564153 1_655
Fe4 Sn6 2.594873 1_555
Fe4 Sn4 2.625968 1_655
Fe5 Sn5 2.594873 1_555
Fe5 Sn1 2.625968 1_555
Fe6 Sn2 2.594873 1_555
Fe6 Sn0 2.625968 1_455
Fe7 Sn1 2.555247 1_555
Fe7 Sn5 2.564153 1_555
Fe8 Sn3 2.594873 1_555
Fe8 Sn7 2.625968 1_555
Fe9 Sn1 2.529004 1_555
Fe9 Sn5 2.554558 1_555
Fe10 Sn7 2.555247 1_555
Fe10 Sn3 2.564153 1_555
Fe11 Sn0 2.529004 1_455
Fe11 Sn2 2.554558 1_555
C0 O31 1.170406 1_555
C0 Fe7 1.760235 1_555
C0 Sn1 2.794933 1_555
C1 O57 1.153953 1_555
C1 Mn7 1.866743 1_555
C2 O38 1.153953 1_555
C2 Mn4 1.866743 1_555
C3 O28 1.164497 1_555
C3 Fe9 1.783529 1_555
C4 O67 1.167018 1_555
C4 Fe3 1.780590 1_555
C5 O69 1.167018 1_555
C5 Fe0 1.780590 1_555
C6 O12 1.153035 1_555
C6 Mn7 1.868728 1_565
C7 O48 1.153894 1_555
C7 Mn6 1.867118 1_545
C8 O16 1.165791 1_555
C8 Fe5 1.789129 1_555
C9 O56 1.156223 1_555
C9 Mn2 1.824396 1_555
C10 O41 1.168265 1_555
C10 Fe11 1.767201 1_555
C10 Sn2 2.783010 1_555
C11 O32 1.154250 1_555
C11 Mn0 1.873542 1_565
C12 O6 1.165791 1_555
C12 Fe8 1.789129 1_555
C13 O11 1.164497 1_555
C13 Fe1 1.783529 1_455
C14 O50 1.174372 1_555
C14 Fe5 1.773445 1_555
C14 Sn1 2.725282 1_555
C15 O30 1.153894 1_555
C15 Mn0 1.867118 1_565
C16 O74 1.165791 1_555
C16 Fe6 1.782903 1_555
C17 O54 1.174358 1_555
C17 Fe7 1.760983 1_555
C17 Sn5 2.772882 1_555
C18 O18 1.165791 1_555
C18 Fe4 1.789129 1_555
C19 O47 1.150468 1_555
C19 Mn2 1.873125 1_555
C20 O66 1.164497 1_555
C20 Fe2 1.783529 1_555
C21 O27 1.174372 1_555
C21 Fe4 1.773445 1_555
C21 Sn4 2.725282 1_655
C22 O34 1.165791 1_555
C22 Fe8 1.782903 1_555
C23 O68 1.168265 1_555
C23 Fe9 1.767201 1_555
C23 Sn5 2.783010 1_555
C24 O43 1.153894 1_455
C24 Mn1 1.867118 1_555
C25 O61 1.167018 1_555
C25 Fe7 1.780590 1_555
C26 O23 1.152254 1_555
C26 Mn4 1.877757 1_545
C27 O21 1.152254 1_555
C27 Mn3 1.877757 1_555
C28 O17 1.164497 1_555
C28 Fe11 1.783529 1_655
C29 O70 1.170406 1_555
C29 Fe10 1.760235 1_555
C29 Sn7 2.794933 1_555
C30 O64 1.174358 1_545
C30 Fe0 1.760983 1_555
C30 Sn6 2.772882 1_455
C31 O10 1.168265 1_555
C31 Fe1 1.767201 1_555
C31 Sn6 2.783010 1_555
C32 O36 1.155998 1_555
C32 Mn5 1.861536 1_555
C33 O22 1.153035 1_555
C33 Mn3 1.868728 1_555
C34 O4 1.153035 1_555
C34 Mn2 1.868728 1_555
C35 O63 1.153894 1_655
C35 Mn5 1.867118 1_555
C36 O65 1.150468 1_555
C36 Mn7 1.873125 1_555
C37 O55 1.153953 1_555
C37 Mn2 1.866743 1_555
C38 O44 1.155998 1_555
C38 Mn6 1.861536 1_555
C39 O1 1.168644 1_555
C39 Fe11 1.775258 1_555
C39 Sn0 2.844756 1_455
C40 O20 1.152254 1_555
C40 Mn2 1.877757 1_555
C41 O19 1.168644 1_545
C41 Fe9 1.775258 1_555
C41 Sn1 2.844756 1_555
C42 O14 1.174358 1_555
C42 Fe10 1.760983 1_555
C42 Sn3 2.772882 1_555
C43 O3 1.174372 1_555
C43 Fe6 1.773445 1_555
C43 Sn0 2.725282 1_455
C44 O53 1.150468 1_555
C44 Mn4 1.873125 1_555
C45 O40 1.150468 1_555
C45 Mn3 1.873125 1_555
C46 O26 1.168265 1_555
C46 Fe2 1.767201 1_555
C46 Sn3 2.783010 1_555
C47 O71 1.165791 1_555
C47 Fe6 1.789129 1_555
C48 O37 1.154852 1_555
C48 Mn5 1.838583 1_555
C49 O59 1.174372 1_555
C49 Fe8 1.773445 1_555
C49 Sn7 2.725282 1_555
C50 O7 1.170406 1_555
C50 Fe0 1.760235 1_555
C50 Sn4 2.794933 1_555
C51 O33 1.170406 1_555
C51 Fe3 1.760235 1_555
C51 Sn0 2.794933 1_555
C52 O39 1.154852 1_555
C52 Mn0 1.838583 1_555
C53 O29 1.156223 1_555
C53 Mn7 1.824396 1_555
C54 O60 1.156223 1_555
C54 Mn3 1.824396 1_555
C55 O52 1.154852 1_555
C55 Mn6 1.838583 1_555
C56 O75 1.152351 1_555
C56 Mn1 1.872102 1_555
C57 O73 1.165791 1_555
C57 Fe5 1.782903 1_555
C58 O24 1.174358 1_565
C58 Fe3 1.760983 1_555
C58 Sn2 2.772882 1_655
C59 O0 1.152351 1_555
C59 Mn0 1.872102 1_555
C60 O72 1.153953 1_555
C60 Mn3 1.866743 1_555
C61 O8 1.167018 1_555
C61 Fe10 1.780590 1_555
C62 O35 1.156223 1_555
C62 Mn4 1.824396 1_555
C63 O9 1.168644 1_555
C63 Fe1 1.775258 1_555
C63 Sn4 2.844756 1_655
C64 O46 1.152254 1_555
C64 Mn7 1.877757 1_565
C65 O49 1.165791 1_555
C65 Fe4 1.782903 1_555
C66 O5 1.168644 1_565
C66 Fe2 1.775258 1_555
C66 Sn7 2.844756 1_555
C67 O45 1.155998 1_555
C67 Mn1 1.861536 1_555
C68 O42 1.154250 1_556
C68 Mn1 1.873542 1_555
C69 O25 1.154250 1_554
C69 Mn5 1.873542 1_555
C70 O2 1.153035 1_555
C70 Mn4 1.868728 1_545
C71 O51 1.154852 1_555
C71 Mn1 1.838583 1_555
C72 O15 1.154250 1_555
C72 Mn6 1.873542 1_545
C73 O62 1.152351 1_555
C73 Mn5 1.872102 1_555
C74 O13 1.152351 1_555
C74 Mn6 1.872102 1_555
C75 O58 1.155998 1_555
C75 Mn0 1.861536 1_555
