# generated using pymatgen
data_Mn12O5F19
_symmetry_space_group_name_H-M   'P 1'
_cell_length_a   4.82217800
_cell_length_b   5.86430485
_cell_length_c   16.05311865
_cell_angle_alpha   90.17774680
_cell_angle_beta   90.13682300
_cell_angle_gamma   91.69760622
_symmetry_Int_Tables_number   1
_chemical_formula_structural   Mn12O5F19
_chemical_formula_sum   'Mn12 O5 F19'
_cell_volume   453.75885264
_cell_formula_units_Z   1
loop_
 _symmetry_equiv_pos_site_id
 _symmetry_equiv_pos_as_xyz
  1  'x, y, z'
loop_
 _atom_site_type_symbol
 _atom_site_label
 _atom_site_symmetry_multiplicity
 _atom_site_fract_x
 _atom_site_fract_y
 _atom_site_fract_z
 _atom_site_occupancy
  Mn  Mn0  1  0.99091200  0.82188200  0.58656900  1
  Mn  Mn1  1  0.98359000  0.14329500  0.74994700  1
  Mn  Mn2  1  0.99271200  0.83452500  0.90903300  1
  Mn  Mn3  1  0.99049500  0.83018400  0.25893200  1
  Mn  Mn4  1  0.00815800  0.14487300  0.41808400  1
  Mn  Mn5  1  0.02453500  0.16807300  0.08166300  1
  Mn  Mn6  1  0.48882900  0.67607100  0.40503200  1
  Mn  Mn7  1  0.48818400  0.64448800  0.08190600  1
  Mn  Mn8  1  0.53238800  0.66104400  0.74756300  1
  Mn  Mn9  1  0.49182600  0.33632100  0.92295400  1
  Mn  Mn10  1  0.51030300  0.36058900  0.58329800  1
  Mn  Mn11  1  0.50889900  0.35012300  0.25203300  1
  O  O0  1  0.20887100  0.87640200  0.36096600  1
  O  O1  1  0.28750500  0.40393200  0.03070000  1
  O  O2  1  0.71332800  0.61142400  0.64486300  1
  O  O3  1  0.70615900  0.62898800  0.30469700  1
  O  O4  1  0.78523900  0.87973300  0.79907200  1
  F  F0  1  0.23943200  0.89492200  0.69236300  1
  F  F1  1  0.23787300  0.88748200  0.02278300  1
  F  F2  1  0.22398800  0.12100300  0.85886800  1
  F  F3  1  0.23204700  0.12019800  0.53338000  1
  F  F4  1  0.22661500  0.09620000  0.19879700  1
  F  F5  1  0.30342700  0.62937600  0.85419500  1
  F  F6  1  0.26251500  0.38929000  0.70188300  1
  F  F7  1  0.27329400  0.61909100  0.51692700  1
  F  F8  1  0.25889100  0.37881500  0.35753700  1
  F  F9  1  0.25672800  0.60662900  0.18898700  1
  F  F10  1  0.73746000  0.61962600  0.97769500  1
  F  F11  1  0.73697800  0.37488200  0.81433200  1
  F  F12  1  0.72631000  0.39877500  0.46710600  1
  F  F13  1  0.73418500  0.38260600  0.14035800  1
  F  F14  1  0.75598500  0.89277200  0.47739600  1
  F  F15  1  0.77178800  0.12077200  0.63763000  1
  F  F16  1  0.77837300  0.10702900  0.97397200  1
  F  F17  1  0.76738300  0.87004400  0.14110100  1
  F  F18  1  0.76479900  0.11854600  0.30737800  1
loop_
_geom_bond_atom_site_label_1
_geom_bond_atom_site_label_2
_geom_bond_distance
_geom_bond_site_symmetry_2
Mn0 O2 2.026316 1_555
Mn1 O4 1.961949 1_545
Mn2 O4 2.048757 1_555
Mn3 O3 1.930324 1_555
Mn3 O0 1.958927 1_655
Mn4 O0 2.083702 1_545
Mn5 O1 2.024479 1_555
Mn6 O3 1.947130 1_555
Mn6 O0 1.948757 1_555
Mn7 O1 1.873593 1_555
Mn8 O2 1.892875 1_555
Mn8 O4 1.926412 1_555
Mn9 O1 2.036349 1_556
Mn10 O2 2.000009 1_555
Mn11 O3 2.046789 1_555
F0 Mn0 2.111706 1_455
F0 Mn1 2.145141 1_465
F0 Mn8 2.185949 1_555
F1 Mn7 2.119715 1_555
F1 Mn5 2.180508 1_565
F1 Mn2 2.189273 1_454
F2 Mn9 2.051799 1_555
F2 Mn1 2.102136 1_455
F2 Mn2 2.148572 1_445
F3 Mn10 2.075014 1_555
F3 Mn4 2.147930 1_555
F3 Mn0 2.243901 1_445
F4 Mn3 2.138059 1_445
F4 Mn11 2.160346 1_555
F4 Mn5 2.164142 1_555
F5 Mn8 2.045124 1_555
F5 Mn2 2.138647 1_455
F5 Mn9 2.257582 1_555
F6 Mn1 2.093416 1_455
F6 Mn8 2.153217 1_555
F6 Mn10 2.258489 1_555
F7 Mn6 2.100125 1_555
F7 Mn0 2.147861 1_455
F7 Mn10 2.201441 1_555
F8 Mn4 2.050447 1_555
F8 Mn11 2.090516 1_555
F8 Mn6 2.173178 1_555
F9 Mn7 2.060771 1_555
F9 Mn3 2.173739 1_455
F9 Mn11 2.208541 1_555
F10 Mn2 2.059455 1_555
F10 Mn7 2.069613 1_556
F10 Mn9 2.191991 1_555
F11 Mn1 2.102327 1_555
F11 Mn9 2.117941 1_555
F11 Mn8 2.245561 1_555
F12 Mn10 2.147630 1_555
F12 Mn4 2.191175 1_655
F12 Mn6 2.250266 1_555
F13 Mn11 2.104645 1_555
F13 Mn5 2.129376 1_655
F13 Mn7 2.181239 1_555
F14 Mn4 2.116292 1_665
F14 Mn6 2.123853 1_555
F14 Mn0 2.133220 1_555
F15 Mn1 2.072022 1_555
F15 Mn10 2.106167 1_555
F15 Mn0 2.228365 1_545
F16 Mn5 2.118267 1_656
F16 Mn9 2.121235 1_555
F16 Mn2 2.191225 1_545
F17 Mn7 2.084669 1_555
F17 Mn3 2.190451 1_555
F17 Mn5 2.321696 1_665
F18 Mn11 2.063471 1_555
F18 Mn4 2.130011 1_655
F18 Mn3 2.180340 1_545
