# generated using pymatgen
data_YbScO2
_symmetry_space_group_name_H-M   'P 1'
_cell_length_a   3.23096308
_cell_length_b   3.23096308
_cell_length_c   10.69661244
_cell_angle_alpha   90.00000000
_cell_angle_beta   90.00000000
_cell_angle_gamma   120.00000315
_symmetry_Int_Tables_number   1
_chemical_formula_structural   YbScO2
_chemical_formula_sum   'Yb2 Sc2 O4'
_cell_volume   96.70320507
_cell_formula_units_Z   2
loop_
 _symmetry_equiv_pos_site_id
 _symmetry_equiv_pos_as_xyz
  1  'x, y, z'
loop_
 _atom_site_type_symbol
 _atom_site_label
 _atom_site_symmetry_multiplicity
 _atom_site_fract_x
 _atom_site_fract_y
 _atom_site_fract_z
 _atom_site_occupancy
  Yb  Yb0  1  0.33333300  0.66666700  0.75000000  1
  Yb  Yb1  1  0.66666700  0.33333300  0.25000000  1
  Sc  Sc0  1  0.00000000  0.00000000  0.00000000  1
  Sc  Sc1  1  0.00000000  0.00000000  0.50000000  1
  O  O0  1  0.33333300  0.66666700  0.11077423  1
  O  O1  1  0.33333300  0.66666700  0.38922577  1
  O  O2  1  0.66666700  0.33333300  0.61077423  1
  O  O3  1  0.66666700  0.33333300  0.88922577  1
loop_
_geom_bond_atom_site_label_1
_geom_bond_atom_site_label_2
_geom_bond_distance
_geom_bond_site_symmetry_2
O0 Sc0 2.209912 1_565
O0 Sc0 2.209914 1_555
O0 Sc0 2.209914 1_665
O0 Yb1 2.386954 1_565
O0 Yb1 2.386954 1_455
O0 Yb1 2.386958 1_555
O1 Sc1 2.209912 1_565
O1 Sc1 2.209914 1_555
O1 Sc1 2.209914 1_665
O1 Yb1 2.386954 1_565
O1 Yb1 2.386954 1_455
O1 Yb1 2.386958 1_555
O2 Sc1 2.209912 1_655
O2 Sc1 2.209914 1_555
O2 Sc1 2.209914 1_665
O2 Yb0 2.386954 1_655
O2 Yb0 2.386954 1_545
O2 Yb0 2.386958 1_555
O3 Sc0 2.209912 1_656
O3 Sc0 2.209914 1_556
O3 Sc0 2.209914 1_666
O3 Yb0 2.386954 1_655
O3 Yb0 2.386954 1_545
O3 Yb0 2.386958 1_555
