# generated using pymatgen
data_LiMnF3
_symmetry_space_group_name_H-M   'P 1'
_cell_length_a   5.12361700
_cell_length_b   5.45322000
_cell_length_c   7.72458800
_cell_angle_alpha   90.00000000
_cell_angle_beta   90.00000000
_cell_angle_gamma   90.00000000
_symmetry_Int_Tables_number   1
_chemical_formula_structural   LiMnF3
_chemical_formula_sum   'Li4 Mn4 F12'
_cell_volume   215.82661627
_cell_formula_units_Z   4
loop_
 _symmetry_equiv_pos_site_id
 _symmetry_equiv_pos_as_xyz
  1  'x, y, z'
loop_
 _atom_site_type_symbol
 _atom_site_label
 _atom_site_symmetry_multiplicity
 _atom_site_fract_x
 _atom_site_fract_y
 _atom_site_fract_z
 _atom_site_occupancy
  Li  Li0  1  0.50000000  0.00000000  0.00000000  1
  Li  Li1  1  0.50000000  0.00000000  0.50000000  1
  Li  Li2  1  0.00000000  0.50000000  0.50000000  1
  Li  Li3  1  0.00000000  0.50000000  0.00000000  1
  Mn  Mn0  1  0.96936600  0.07815700  0.25000000  1
  Mn  Mn1  1  0.46936600  0.42184300  0.75000000  1
  Mn  Mn2  1  0.53063400  0.57815700  0.25000000  1
  Mn  Mn3  1  0.03063400  0.92184300  0.75000000  1
  F  F0  1  0.64273300  0.06609900  0.75000000  1
  F  F1  1  0.18691400  0.18680400  0.92573300  1
  F  F2  1  0.18691400  0.18680400  0.57426700  1
  F  F3  1  0.68691400  0.31319600  0.07426700  1
  F  F4  1  0.68691400  0.31319600  0.42573300  1
  F  F5  1  0.14273300  0.43390100  0.25000000  1
  F  F6  1  0.85726700  0.56609900  0.75000000  1
  F  F7  1  0.31308600  0.68680400  0.92573300  1
  F  F8  1  0.31308600  0.68680400  0.57426700  1
  F  F9  1  0.81308600  0.81319600  0.07426700  1
  F  F10  1  0.81308600  0.81319600  0.42573300  1
  F  F11  1  0.35726700  0.93390100  0.25000000  1
loop_
_geom_bond_atom_site_label_1
_geom_bond_atom_site_label_2
_geom_bond_distance
_geom_bond_site_symmetry_2
F0 Li1 2.096203 1_555
F0 Li0 2.096203 1_556
F0 Mn1 2.133641 1_555
F0 Mn3 2.137479 1_645
F1 Li0 1.984961 1_556
F1 Li3 2.040409 1_556
F1 Mn3 2.138123 1_545
F1 Mn1 2.362167 1_555
F2 Li1 1.984961 1_555
F2 Li2 2.040409 1_555
F2 Mn3 2.138123 1_545
F2 Mn1 2.362167 1_555
F3 Li3 1.984961 1_655
F3 Li0 2.040409 1_555
F3 Mn2 2.138123 1_555
F3 Mn0 2.362167 1_555
F4 Li2 1.984961 1_655
F4 Li1 2.040409 1_555
F4 Mn2 2.138123 1_555
F4 Mn0 2.362167 1_555
F5 Li2 2.096203 1_555
F5 Li3 2.096203 1_555
F5 Mn0 2.133641 1_455
F5 Mn2 2.137479 1_555
F6 Li3 2.096203 1_656
F6 Li2 2.096203 1_655
F6 Mn3 2.133641 1_655
F6 Mn1 2.137479 1_555
F7 Li3 1.984961 1_556
F7 Li0 2.040409 1_566
F7 Mn1 2.138123 1_555
F7 Mn3 2.362167 1_555
F8 Li2 1.984961 1_555
F8 Li1 2.040409 1_565
F8 Mn1 2.138123 1_555
F8 Mn3 2.362167 1_555
F9 Li0 1.984961 1_565
F9 Li3 2.040409 1_655
F9 Mn0 2.138123 1_565
F9 Mn2 2.362167 1_555
F10 Li1 1.984961 1_565
F10 Li2 2.040409 1_655
F10 Mn0 2.138123 1_565
F10 Mn2 2.362167 1_555
F11 Li1 2.096203 1_565
F11 Li0 2.096203 1_565
F11 Mn2 2.133641 1_555
F11 Mn0 2.137479 1_465
