# generated using pymatgen
data_Li4Cu3Sb(PO4)4
_symmetry_space_group_name_H-M   'P 1'
_cell_length_a   6.32651800
_cell_length_b   4.78880700
_cell_length_c   10.26536250
_cell_angle_alpha   88.25372406
_cell_angle_beta   90.00000000
_cell_angle_gamma   90.00000000
_symmetry_Int_Tables_number   1
_chemical_formula_structural   Li4Cu3Sb(PO4)4
_chemical_formula_sum   'Li4 Cu3 Sb1 P4 O16'
_cell_volume   310.85984640
_cell_formula_units_Z   1
loop_
 _symmetry_equiv_pos_site_id
 _symmetry_equiv_pos_as_xyz
  1  'x, y, z'
loop_
 _atom_site_type_symbol
 _atom_site_label
 _atom_site_symmetry_multiplicity
 _atom_site_fract_x
 _atom_site_fract_y
 _atom_site_fract_z
 _atom_site_occupancy
  Li  Li0  1  0.25651900  0.00311100  0.01846500  1
  Li  Li1  1  0.74348100  0.00311100  0.01846500  1
  Li  Li2  1  0.74438500  0.49732000  0.48378500  1
  Li  Li3  1  0.25561500  0.49732000  0.48378500  1
  Cu  Cu0  1  0.50000000  0.95228200  0.28218100  1
  Cu  Cu1  1  0.50000000  0.54968800  0.78771900  1
  Cu  Cu2  1  0.00000000  0.44014700  0.21447900  1
  Sb  Sb0  1  0.00000000  0.02633600  0.71483600  1
  P  P0  1  0.00000000  0.90796600  0.39537800  1
  P  P1  1  0.00000000  0.58201900  0.92071100  1
  P  P2  1  0.50000000  0.42369700  0.09788100  1
  P  P3  1  0.50000000  0.08828300  0.58407900  1
  O  O0  1  0.00000000  0.77731800  0.54204700  1
  O  O1  1  0.19981000  0.78101400  0.33352100  1
  O  O2  1  0.80019000  0.78101400  0.33352100  1
  O  O3  1  0.50000000  0.76751100  0.60282500  1
  O  O4  1  0.50000000  0.74698800  0.10153800  1
  O  O5  1  0.19381900  0.71360800  0.84171200  1
  O  O6  1  0.80618100  0.71360800  0.84171200  1
  O  O7  1  0.00000000  0.70727600  0.05711800  1
  O  O8  1  0.50000000  0.31450200  0.95445100  1
  O  O9  1  0.69858600  0.28920500  0.16515800  1
  O  O10  1  0.30141400  0.28920500  0.16515800  1
  O  O11  1  0.00000000  0.26250100  0.92453600  1
  O  O12  1  0.00000000  0.23072700  0.39668400  1
  O  O13  1  0.69567300  0.22904300  0.64898900  1
  O  O14  1  0.30432700  0.22904300  0.64898900  1
  O  O15  1  0.50000000  0.19615800  0.44027600  1
loop_
_geom_bond_atom_site_label_1
_geom_bond_atom_site_label_2
_geom_bond_distance
_geom_bond_site_symmetry_2
Li0 O10 2.085917 1_555
Li0 O4 2.130875 1_545
Li0 O7 2.182641 1_545
Li0 O8 2.229022 1_554
Li0 O11 2.243526 1_554
Li0 O5 2.350503 1_544
Li1 O9 2.085917 1_555
Li1 O4 2.130875 1_545
Li1 O7 2.182641 1_645
Li1 O8 2.229022 1_554
Li1 O11 2.243526 1_654
Li1 O6 2.350503 1_544
Li2 O2 2.054738 1_555
Li2 O13 2.118658 1_555
Li2 O15 2.170057 1_555
Li2 O0 2.195371 1_655
Li2 O12 2.261433 1_655
Li2 O3 2.377861 1_555
Li3 O1 2.054738 1_555
Li3 O14 2.118658 1_555
Li3 O15 2.170057 1_555
Li3 O0 2.195371 1_555
Li3 O12 2.261433 1_555
Li3 O3 2.377861 1_555
Cu0 O15 2.028118 1_565
Cu0 O4 2.125157 1_555
Cu0 O1 2.128588 1_555
Cu0 O2 2.128588 1_555
Cu0 O9 2.346623 1_565
Cu0 O10 2.346623 1_565
Cu1 O8 2.020007 1_555
Cu1 O3 2.137718 1_555
Cu1 O6 2.168436 1_555
Cu1 O5 2.168436 1_555
Cu1 O13 2.460005 1_555
Cu1 O14 2.460005 1_555
Cu2 O7 2.029753 1_555
Cu2 O12 2.095191 1_555
Cu2 O10 2.106514 1_555
Cu2 O9 2.106514 1_455
Cu2 O2 2.424332 1_455
Cu2 O1 2.424332 1_555
O0 P0 1.612727 1_555
O0 Sb0 2.167286 1_565
O1 P0 1.547349 1_555
O2 P0 1.547349 1_655
O3 P3 1.542292 1_565
O4 P2 1.549777 1_555
O5 P1 1.589704 1_555
O5 Sb0 2.307335 1_565
O6 P1 1.589704 1_655
O6 Sb0 2.307335 1_665
O7 P1 1.540045 1_554
O8 P2 1.577406 1_556
O9 P2 1.563040 1_555
O10 P2 1.563040 1_555
O11 P1 1.529417 1_555
O11 Sb0 2.461973 1_555
O12 P0 1.546107 1_545
O13 P3 1.567866 1_555
O13 Sb0 2.250802 1_655
O14 P3 1.567866 1_555
O14 Sb0 2.250802 1_555
O15 P3 1.549041 1_555
