# generated using pymatgen
data_LiBi2(SO4)3
_symmetry_space_group_name_H-M   'P 1'
_cell_length_a   9.85980800
_cell_length_b   8.94160400
_cell_length_c   15.51132223
_cell_angle_alpha   55.27566798
_cell_angle_beta   90.00000000
_cell_angle_gamma   90.00000000
_symmetry_Int_Tables_number   1
_chemical_formula_structural   LiBi2(SO4)3
_chemical_formula_sum   'Li4 Bi8 S12 O48'
_cell_volume   1123.96518119
_cell_formula_units_Z   4
loop_
 _symmetry_equiv_pos_site_id
 _symmetry_equiv_pos_as_xyz
  1  'x, y, z'
loop_
 _atom_site_type_symbol
 _atom_site_label
 _atom_site_symmetry_multiplicity
 _atom_site_fract_x
 _atom_site_fract_y
 _atom_site_fract_z
 _atom_site_occupancy
  Li  Li0  1  0.77345100  0.99116300  0.32120100  1
  Li  Li1  1  0.27345100  0.00883700  0.17879900  1
  Li  Li2  1  0.72654900  0.99116300  0.82120100  1
  Li  Li3  1  0.22654900  0.00883700  0.67879900  1
  Bi  Bi0  1  0.53636300  0.37455500  0.88349600  1
  Bi  Bi1  1  0.94950000  0.18848000  0.09752900  1
  Bi  Bi2  1  0.03636300  0.62544500  0.61650400  1
  Bi  Bi3  1  0.44950000  0.81152000  0.40247100  1
  Bi  Bi4  1  0.55050000  0.18848000  0.59752900  1
  Bi  Bi5  1  0.96363700  0.37455500  0.38349600  1
  Bi  Bi6  1  0.05050000  0.81152000  0.90247100  1
  Bi  Bi7  1  0.46363700  0.62544500  0.11650400  1
  S  S0  1  0.27691100  0.43761500  0.00541700  1
  S  S1  1  0.37784200  0.75951800  0.65033700  1
  S  S2  1  0.09738600  0.04465600  0.34319800  1
  S  S3  1  0.59738600  0.95534400  0.15680200  1
  S  S4  1  0.87784200  0.24048200  0.84966300  1
  S  S5  1  0.77691100  0.56238500  0.49458300  1
  S  S6  1  0.22308900  0.43761500  0.50541700  1
  S  S7  1  0.12215800  0.75951800  0.15033700  1
  S  S8  1  0.40261400  0.04465600  0.84319800  1
  S  S9  1  0.90261400  0.95534400  0.65680200  1
  S  S10  1  0.62215800  0.24048200  0.34966300  1
  S  S11  1  0.72308900  0.56238500  0.99458300  1
  O  O0  1  0.85891300  0.47905600  0.04229600  1
  O  O1  1  0.88893900  0.82859300  0.62390300  1
  O  O2  1  0.59118500  0.10454200  0.32503500  1
  O  O3  1  0.69857800  0.53571500  0.90863900  1
  O  O4  1  0.38475800  0.53284700  0.92261100  1
  O  O5  1  0.23442700  0.69935100  0.68364800  1
  O  O6  1  0.39032200  0.84929600  0.53521200  1
  O  O7  1  0.96746200  0.08928900  0.27984800  1
  O  O8  1  0.27657100  0.24433400  0.04625700  1
  O  O9  1  0.21382500  0.06511900  0.27832500  1
  O  O10  1  0.08743200  0.85427500  0.43797500  1
  O  O11  1  0.47367000  0.60278700  0.70608500  1
  O  O12  1  0.97367000  0.39721300  0.79391500  1
  O  O13  1  0.58743200  0.14572500  0.06202500  1
  O  O14  1  0.71382500  0.93488100  0.22167500  1
  O  O15  1  0.77657100  0.75566600  0.45374300  1
  O  O16  1  0.89032200  0.15070400  0.96478800  1
  O  O17  1  0.46746200  0.91071100  0.22015200  1
  O  O18  1  0.73442700  0.30064900  0.81635200  1
  O  O19  1  0.88475800  0.46715300  0.57738900  1
  O  O20  1  0.19857800  0.46428500  0.59136100  1
  O  O21  1  0.38893900  0.17140700  0.87609700  1
  O  O22  1  0.09118500  0.89545800  0.17496500  1
  O  O23  1  0.35891300  0.52094400  0.45770400  1
  O  O24  1  0.64108700  0.47905600  0.54229600  1
  O  O25  1  0.90881500  0.10454200  0.82503500  1
  O  O26  1  0.61106100  0.82859300  0.12390300  1
  O  O27  1  0.80142200  0.53571500  0.40863900  1
  O  O28  1  0.11524200  0.53284700  0.42261100  1
  O  O29  1  0.26557300  0.69935100  0.18364800  1
  O  O30  1  0.53253800  0.08928900  0.77984800  1
  O  O31  1  0.10967800  0.84929600  0.03521200  1
  O  O32  1  0.22342900  0.24433400  0.54625700  1
  O  O33  1  0.28617500  0.06511900  0.77832500  1
  O  O34  1  0.41256800  0.85427500  0.93797500  1
  O  O35  1  0.02633000  0.60278700  0.20608500  1
  O  O36  1  0.52633000  0.39721300  0.29391500  1
  O  O37  1  0.91256800  0.14572500  0.56202500  1
  O  O38  1  0.78617500  0.93488100  0.72167500  1
  O  O39  1  0.72342900  0.75566600  0.95374300  1
  O  O40  1  0.03253800  0.91071100  0.72015200  1
  O  O41  1  0.60967800  0.15070400  0.46478800  1
  O  O42  1  0.76557300  0.30064900  0.31635200  1
  O  O43  1  0.61524200  0.46715300  0.07738900  1
  O  O44  1  0.30142200  0.46428500  0.09136100  1
  O  O45  1  0.40881500  0.89545800  0.67496500  1
  O  O46  1  0.11106100  0.17140700  0.37609700  1
  O  O47  1  0.14108700  0.52094400  0.95770400  1
loop_
_geom_bond_atom_site_label_1
_geom_bond_atom_site_label_2
_geom_bond_distance
_geom_bond_site_symmetry_2
Li0 O15 1.931248 1_555
Li0 O14 1.966531 1_555
Li0 O7 2.049228 1_565
Li0 O2 2.080767 1_565
Li1 O8 1.931248 1_555
Li1 O9 1.966531 1_555
Li1 O17 2.049228 1_545
Li1 O22 2.080767 1_545
Li2 O39 1.931248 1_555
Li2 O38 1.966531 1_555
Li2 O30 2.049228 1_565
Li2 O25 2.080767 1_565
Li3 O32 1.931248 1_555
Li3 O33 1.966531 1_555
Li3 O40 2.049228 1_545
Li3 O45 2.080767 1_545
Bi0 O3 2.329601 1_555
Bi0 O4 2.363087 1_555
Bi0 O13 2.377711 1_556
Bi0 O21 2.379729 1_555
Bi0 O11 2.391998 1_555
Bi0 O18 2.473708 1_555
Bi1 O16 2.342288 1_554
Bi1 O0 2.397187 1_555
Bi1 O7 2.440924 1_555
Bi1 O22 2.583374 1_645
Bi2 O20 2.329601 1_555
Bi2 O19 2.363087 1_455
Bi2 O10 2.377711 1_555
Bi2 O1 2.379729 1_455
Bi2 O12 2.391998 1_455
Bi2 O5 2.473708 1_555
Bi3 O6 2.342288 1_555
Bi3 O23 2.397187 1_555
Bi3 O17 2.440924 1_555
Bi3 O2 2.583374 1_565
Bi4 O41 2.342288 1_555
Bi4 O24 2.397187 1_555
Bi4 O30 2.440924 1_555
Bi4 O45 2.583374 1_545
Bi5 O27 2.329601 1_555
Bi5 O28 2.363087 1_655
Bi5 O37 2.377711 1_555
Bi5 O46 2.379729 1_655
Bi5 O35 2.391998 1_655
Bi5 O42 2.473708 1_555
Bi6 O31 2.342288 1_556
Bi6 O47 2.397187 1_555
Bi6 O40 2.440924 1_555
Bi6 O25 2.583374 1_465
Bi7 O44 2.329601 1_555
Bi7 O43 2.363087 1_555
Bi7 O34 2.377711 1_554
Bi7 O26 2.379729 1_555
Bi7 O36 2.391998 1_555
Bi7 O29 2.473708 1_555
O0 S11 1.506029 1_554
O1 S9 1.490635 1_555
O2 S10 1.498565 1_555
O3 S11 1.501541 1_555
O4 S0 1.503176 1_556
O5 S1 1.496410 1_555
O6 S1 1.488384 1_555
O7 S2 1.522863 1_655
O8 S0 1.463168 1_555
O9 S2 1.467770 1_555
O10 S2 1.489174 1_565
O11 S1 1.491265 1_555
O12 S4 1.491265 1_555
O13 S3 1.489174 1_545
O14 S3 1.467770 1_555
O15 S5 1.463168 1_555
O16 S4 1.488384 1_555
O17 S3 1.522863 1_555
O18 S4 1.496410 1_555
O19 S5 1.503176 1_555
O20 S6 1.501541 1_555
O21 S8 1.490635 1_555
O22 S7 1.498565 1_555
O23 S6 1.506029 1_555
O24 S5 1.506029 1_555
O25 S4 1.498565 1_555
O26 S3 1.490635 1_555
O27 S5 1.501541 1_555
O28 S6 1.503176 1_555
O29 S7 1.496410 1_555
O30 S8 1.522863 1_555
O31 S7 1.488384 1_555
O32 S6 1.463168 1_555
O33 S8 1.467770 1_555
O34 S8 1.489174 1_565
O35 S7 1.491265 1_555
O36 S10 1.491265 1_555
O37 S9 1.489174 1_545
O38 S9 1.467770 1_555
O39 S11 1.463168 1_555
O40 S9 1.522863 1_455
O41 S10 1.488384 1_555
O42 S10 1.496410 1_555
O43 S11 1.503176 1_554
O44 S0 1.501541 1_555
O45 S1 1.498565 1_555
O46 S2 1.490635 1_555
O47 S0 1.506029 1_556
