# generated using pymatgen
data_K3Li2Nb5O15
_symmetry_space_group_name_H-M   'P 1'
_cell_length_a   12.74361900
_cell_length_b   12.74361900
_cell_length_c   4.17170600
_cell_angle_alpha   90.00000000
_cell_angle_beta   90.00000000
_cell_angle_gamma   90.00000000
_symmetry_Int_Tables_number   1
_chemical_formula_structural   K3Li2Nb5O15
_chemical_formula_sum   'K6 Li4 Nb10 O30'
_cell_volume   677.48432526
_cell_formula_units_Z   2
loop_
 _symmetry_equiv_pos_site_id
 _symmetry_equiv_pos_as_xyz
  1  'x, y, z'
loop_
 _atom_site_type_symbol
 _atom_site_label
 _atom_site_symmetry_multiplicity
 _atom_site_fract_x
 _atom_site_fract_y
 _atom_site_fract_z
 _atom_site_occupancy
  K  K0  1  0.00000000  0.00000000  0.49298200  1
  K  K1  1  0.17191900  0.67191900  0.49719500  1
  K  K2  1  0.32808100  0.17191900  0.49719500  1
  K  K3  1  0.50000000  0.50000000  0.49298200  1
  K  K4  1  0.67191900  0.82808100  0.49719500  1
  K  K5  1  0.82808100  0.32808100  0.49719500  1
  Li  Li0  1  0.12416600  0.37583400  0.54702900  1
  Li  Li1  1  0.37583400  0.87583400  0.54702900  1
  Li  Li2  1  0.62416600  0.12416600  0.54702900  1
  Li  Li3  1  0.87583400  0.62416600  0.54702900  1
  Nb  Nb0  1  0.00000000  0.50000000  0.00809600  1
  Nb  Nb1  1  0.07633900  0.20766500  0.01272600  1
  Nb  Nb2  1  0.20766500  0.92366100  0.01272600  1
  Nb  Nb3  1  0.29233500  0.42366100  0.01272600  1
  Nb  Nb4  1  0.42366100  0.70766500  0.01272600  1
  Nb  Nb5  1  0.50000000  0.00000000  0.00809600  1
  Nb  Nb6  1  0.57633900  0.29233500  0.01272600  1
  Nb  Nb7  1  0.70766500  0.57633900  0.01272600  1
  Nb  Nb8  1  0.79233500  0.07633900  0.01272600  1
  Nb  Nb9  1  0.92366100  0.79233500  0.01272600  1
  O  O0  1  0.00000000  0.50000000  0.45690400  1
  O  O1  1  0.00308300  0.34575000  0.94052900  1
  O  O2  1  0.06826700  0.85866400  0.96576900  1
  O  O3  1  0.08026400  0.21633200  0.45773800  1
  O  O4  1  0.14133600  0.06826700  0.96576900  1
  O  O5  1  0.15425000  0.49691700  0.94052900  1
  O  O6  1  0.21098600  0.28901400  0.95069400  1
  O  O7  1  0.21633200  0.91973600  0.45773800  1
  O  O8  1  0.28366800  0.41973600  0.45773800  1
  O  O9  1  0.28901400  0.78901400  0.95069400  1
  O  O10  1  0.34575000  0.99691700  0.94052900  1
  O  O11  1  0.35866400  0.56826700  0.96576900  1
  O  O12  1  0.41973600  0.71633200  0.45773800  1
  O  O13  1  0.43173300  0.35866400  0.96576900  1
  O  O14  1  0.49691700  0.84575000  0.94052900  1
  O  O15  1  0.50000000  0.00000000  0.45690400  1
  O  O16  1  0.50308300  0.15425000  0.94052900  1
  O  O17  1  0.56826700  0.64133600  0.96576900  1
  O  O18  1  0.58026400  0.28366800  0.45773800  1
  O  O19  1  0.64133600  0.43173300  0.96576900  1
  O  O20  1  0.65425000  0.00308300  0.94052900  1
  O  O21  1  0.71098600  0.21098600  0.95069400  1
  O  O22  1  0.71633200  0.58026400  0.45773800  1
  O  O23  1  0.78366800  0.08026400  0.45773800  1
  O  O24  1  0.78901400  0.71098600  0.95069400  1
  O  O25  1  0.84575000  0.50308300  0.94052900  1
  O  O26  1  0.85866400  0.93173300  0.96576900  1
  O  O27  1  0.91973600  0.78366800  0.45773800  1
  O  O28  1  0.93173300  0.14133600  0.96576900  1
  O  O29  1  0.99691700  0.65425000  0.94052900  1
loop_
_geom_bond_atom_site_label_1
_geom_bond_atom_site_label_2
_geom_bond_distance
_geom_bond_site_symmetry_2
K0 O28 2.809093 1_455
K0 O4 2.809093 1_555
K0 O26 2.809093 1_445
K0 O2 2.809093 1_545
K0 O23 2.944161 1_455
K0 O27 2.944161 1_445
K0 O7 2.944161 1_545
K0 O3 2.944161 1_555
K0 O26 2.972908 1_444
K0 O28 2.972908 1_454
K0 O4 2.972908 1_554
K0 O2 2.972908 1_544
K1 O9 2.834177 1_555
K1 O29 2.905995 1_455
K1 O5 2.905995 1_555
K1 O0 3.102914 1_555
K1 O9 3.106619 1_554
K1 O7 3.212621 1_555
K1 O12 3.212621 1_555
K1 O29 3.227559 1_454
K1 O5 3.227559 1_554
K2 O6 2.834177 1_555
K2 O10 2.905995 1_545
K2 O16 2.905995 1_555
K2 O15 3.102914 1_555
K2 O6 3.106619 1_554
K2 O3 3.212621 1_555
K2 O8 3.212621 1_555
K2 O16 3.227559 1_554
K2 O10 3.227559 1_544
K3 O17 2.809093 1_555
K3 O11 2.809093 1_555
K3 O13 2.809093 1_555
K3 O19 2.809093 1_555
K3 O12 2.944161 1_555
K3 O22 2.944161 1_555
K3 O18 2.944161 1_555
K3 O8 2.944161 1_555
K3 O17 2.972908 1_554
K3 O11 2.972908 1_554
K3 O13 2.972908 1_554
K3 O19 2.972908 1_554
K4 O24 2.834177 1_555
K4 O20 2.905995 1_565
K4 O14 2.905995 1_555
K4 O15 3.102914 1_565
K4 O24 3.106619 1_554
K4 O27 3.212621 1_555
K4 O22 3.212621 1_555
K4 O20 3.227559 1_564
K4 O14 3.227559 1_554
K5 O21 2.834177 1_555
K5 O25 2.905995 1_555
K5 O1 2.905995 1_655
K5 O0 3.102914 1_655
K5 O21 3.106619 1_554
K5 O18 3.212621 1_555
K5 O23 3.212621 1_555
K5 O25 3.227559 1_554
K5 O1 3.227559 1_654
Li0 O8 2.140877 1_555
Li0 O3 2.140877 1_555
Li0 O0 2.269109 1_555
Li0 O5 2.285318 1_555
Li0 O1 2.285318 1_555
Li0 O6 2.298697 1_555
Li1 O7 2.140877 1_555
Li1 O12 2.140877 1_555
Li1 O15 2.269109 1_565
Li1 O14 2.285318 1_555
Li1 O10 2.285318 1_555
Li1 O9 2.298697 1_555
Li2 O18 2.140877 1_555
Li2 O23 2.140877 1_555
Li2 O15 2.269109 1_555
Li2 O20 2.285318 1_555
Li2 O16 2.285318 1_555
Li2 O21 2.298697 1_555
Li3 O27 2.140877 1_555
Li3 O22 2.140877 1_555
Li3 O0 2.269109 1_655
Li3 O29 2.285318 1_555
Li3 O25 2.285318 1_555
Li3 O24 2.298697 1_555
Nb0 O0 1.872295 1_555
Nb0 O29 1.986198 1_454
Nb0 O1 1.986198 1_554
Nb0 O5 1.986198 1_554
Nb0 O25 1.986198 1_454
Nb0 O0 2.299411 1_554
Nb1 O3 1.860414 1_555
Nb1 O4 1.969815 1_554
Nb1 O1 2.014640 1_554
Nb1 O6 2.021374 1_554
Nb1 O28 2.036856 1_454
Nb1 O3 2.318419 1_554
Nb2 O7 1.860414 1_555
Nb2 O2 1.969815 1_554
Nb2 O10 2.014640 1_554
Nb2 O9 2.021374 1_554
Nb2 O4 2.036856 1_564
Nb2 O7 2.318419 1_554
Nb3 O8 1.860414 1_555
Nb3 O13 1.969815 1_554
Nb3 O5 2.014640 1_554
Nb3 O6 2.021374 1_554
Nb3 O11 2.036856 1_554
Nb3 O8 2.318419 1_554
Nb4 O12 1.860414 1_555
Nb4 O11 1.969815 1_554
Nb4 O14 2.014640 1_554
Nb4 O9 2.021374 1_554
Nb4 O17 2.036856 1_554
Nb4 O12 2.318419 1_554
Nb5 O15 1.872295 1_555
Nb5 O16 1.986198 1_554
Nb5 O10 1.986198 1_544
Nb5 O20 1.986198 1_554
Nb5 O14 1.986198 1_544
Nb5 O15 2.299411 1_554
Nb6 O18 1.860414 1_555
Nb6 O19 1.969815 1_554
Nb6 O16 2.014640 1_554
Nb6 O21 2.021374 1_554
Nb6 O13 2.036856 1_554
Nb6 O18 2.318419 1_554
Nb7 O22 1.860414 1_555
Nb7 O17 1.969815 1_554
Nb7 O25 2.014640 1_554
Nb7 O24 2.021374 1_554
Nb7 O19 2.036856 1_554
Nb7 O22 2.318419 1_554
Nb8 O23 1.860414 1_555
Nb8 O28 1.969815 1_554
Nb8 O20 2.014640 1_554
Nb8 O21 2.021374 1_554
Nb8 O26 2.036856 1_544
Nb8 O23 2.318419 1_554
Nb9 O27 1.860414 1_555
Nb9 O26 1.969815 1_554
Nb9 O29 2.014640 1_554
Nb9 O24 2.021374 1_554
Nb9 O2 2.036856 1_654
Nb9 O27 2.318419 1_554
