# generated using pymatgen
data_NiH12S2O9
_symmetry_space_group_name_H-M   'P 1'
_cell_length_a   8.60145000
_cell_length_b   12.65503200
_cell_length_c   17.29958900
_cell_angle_alpha   90.00000000
_cell_angle_beta   90.00000000
_cell_angle_gamma   90.00000000
_symmetry_Int_Tables_number   1
_chemical_formula_structural   NiH12S2O9
_chemical_formula_sum   'Ni4 H48 S8 O36'
_cell_volume   1883.08837442
_cell_formula_units_Z   4
loop_
 _symmetry_equiv_pos_site_id
 _symmetry_equiv_pos_as_xyz
  1  'x, y, z'
loop_
 _atom_site_type_symbol
 _atom_site_label
 _atom_site_symmetry_multiplicity
 _atom_site_fract_x
 _atom_site_fract_y
 _atom_site_fract_z
 _atom_site_occupancy
  Ni  Ni0  1  0.50000000  0.50000000  0.00000000  1
  Ni  Ni1  1  0.00000000  0.00000000  0.50000000  1
  Ni  Ni2  1  0.50000000  0.50000000  0.50000000  1
  Ni  Ni3  1  0.00000000  0.00000000  0.00000000  1
  H  H0  1  0.17260800  0.43402900  0.05628300  1
  H  H1  1  0.32739200  0.93402900  0.44371700  1
  H  H2  1  0.82739200  0.56597100  0.55628300  1
  H  H3  1  0.67260800  0.06597100  0.94371700  1
  H  H4  1  0.82739200  0.56597100  0.94371700  1
  H  H5  1  0.67260800  0.06597100  0.55628300  1
  H  H6  1  0.17260800  0.43402900  0.44371700  1
  H  H7  1  0.32739200  0.93402900  0.05628300  1
  H  H8  1  0.40368000  0.29710600  0.13252900  1
  H  H9  1  0.09632000  0.79710600  0.36747100  1
  H  H10  1  0.59632000  0.70289400  0.63252900  1
  H  H11  1  0.90368000  0.20289400  0.86747100  1
  H  H12  1  0.59632000  0.70289400  0.86747100  1
  H  H13  1  0.90368000  0.20289400  0.63252900  1
  H  H14  1  0.40368000  0.29710600  0.36747100  1
  H  H15  1  0.09632000  0.79710600  0.13252900  1
  H  H16  1  0.17463200  0.31943700  0.22839300  1
  H  H17  1  0.32536800  0.81943700  0.27160700  1
  H  H18  1  0.82536800  0.68056300  0.72839300  1
  H  H19  1  0.67463200  0.18056300  0.77160700  1
  H  H20  1  0.82536800  0.68056300  0.77160700  1
  H  H21  1  0.67463200  0.18056300  0.72839300  1
  H  H22  1  0.17463200  0.31943700  0.27160700  1
  H  H23  1  0.32536800  0.81943700  0.22839300  1
  H  H24  1  0.87777700  0.34840500  0.22833800  1
  H  H25  1  0.62222300  0.84840500  0.27166200  1
  H  H26  1  0.12222300  0.65159500  0.72833800  1
  H  H27  1  0.37777700  0.15159500  0.77166200  1
  H  H28  1  0.12222300  0.65159500  0.77166200  1
  H  H29  1  0.37777700  0.15159500  0.72833800  1
  H  H30  1  0.87777700  0.34840500  0.27166200  1
  H  H31  1  0.62222300  0.84840500  0.22833800  1
  H  H32  1  0.21176300  0.88680100  0.95698100  1
  H  H33  1  0.28823700  0.38680100  0.54301900  1
  H  H34  1  0.78823700  0.11319900  0.45698100  1
  H  H35  1  0.71176300  0.61319900  0.04301900  1
  H  H36  1  0.78823700  0.11319900  0.04301900  1
  H  H37  1  0.71176300  0.61319900  0.45698100  1
  H  H38  1  0.21176300  0.88680100  0.54301900  1
  H  H39  1  0.28823700  0.38680100  0.95698100  1
  H  H40  1  0.97807700  0.19167700  0.84636600  1
  H  H41  1  0.52192300  0.69167700  0.65363400  1
  H  H42  1  0.02192300  0.80832300  0.34636600  1
  H  H43  1  0.47807700  0.30832300  0.15363400  1
  H  H44  1  0.02192300  0.80832300  0.15363400  1
  H  H45  1  0.47807700  0.30832300  0.34636600  1
  H  H46  1  0.97807700  0.19167700  0.65363400  1
  H  H47  1  0.52192300  0.69167700  0.84636600  1
  S  S0  1  0.83336900  0.66194800  0.25000000  1
  S  S1  1  0.66663100  0.16194800  0.25000000  1
  S  S2  1  0.16663100  0.33805200  0.75000000  1
  S  S3  1  0.33336900  0.83805200  0.75000000  1
  S  S4  1  0.00974500  0.57061200  0.25000000  1
  S  S5  1  0.49025500  0.07061200  0.25000000  1
  S  S6  1  0.99025500  0.42938800  0.75000000  1
  S  S7  1  0.50974500  0.92938800  0.75000000  1
  O  O0  1  0.07565700  0.44290300  0.09098300  1
  O  O1  1  0.42434300  0.94290300  0.40901700  1
  O  O2  1  0.92434300  0.55709700  0.59098300  1
  O  O3  1  0.57565700  0.05709700  0.90901700  1
  O  O4  1  0.92434300  0.55709700  0.90901700  1
  O  O5  1  0.57565700  0.05709700  0.59098300  1
  O  O6  1  0.07565700  0.44290300  0.40901700  1
  O  O7  1  0.42434300  0.94290300  0.09098300  1
  O  O8  1  0.16304000  0.62217200  0.25000000  1
  O  O9  1  0.33696000  0.12217200  0.25000000  1
  O  O10  1  0.83696000  0.37782800  0.75000000  1
  O  O11  1  0.66304000  0.87782800  0.75000000  1
  O  O12  1  0.32190000  0.42591900  0.00245000  1
  O  O13  1  0.17810000  0.92591900  0.49755000  1
  O  O14  1  0.67810000  0.57408100  0.50245000  1
  O  O15  1  0.82190000  0.07408100  0.99755000  1
  O  O16  1  0.67810000  0.57408100  0.99755000  1
  O  O17  1  0.82190000  0.07408100  0.50245000  1
  O  O18  1  0.32190000  0.42591900  0.49755000  1
  O  O19  1  0.17810000  0.92591900  0.00245000  1
  O  O20  1  0.46926500  0.12481800  0.93654800  1
  O  O21  1  0.03073500  0.62481800  0.56345200  1
  O  O22  1  0.53073500  0.87518200  0.43654800  1
  O  O23  1  0.96926500  0.37518200  0.06345200  1
  O  O24  1  0.53073500  0.87518200  0.06345200  1
  O  O25  1  0.96926500  0.37518200  0.43654800  1
  O  O26  1  0.46926500  0.12481800  0.56345200  1
  O  O27  1  0.03073500  0.62481800  0.93654800  1
  O  O28  1  0.01718200  0.02897900  0.28560600  1
  O  O29  1  0.48281800  0.52897900  0.21439400  1
  O  O30  1  0.98281800  0.97102100  0.78560600  1
  O  O31  1  0.51718200  0.47102100  0.71439400  1
  O  O32  1  0.98281800  0.97102100  0.71439400  1
  O  O33  1  0.51718200  0.47102100  0.78560600  1
  O  O34  1  0.01718200  0.02897900  0.21439400  1
  O  O35  1  0.48281800  0.52897900  0.28560600  1
loop_
_geom_bond_atom_site_label_1
_geom_bond_atom_site_label_2
_geom_bond_distance
_geom_bond_site_symmetry_2
Ni0 O16 1.796516 1_554
Ni0 O12 1.796516 1_555
Ni1 O17 1.796516 1_455
Ni1 O13 1.796516 1_545
Ni2 O18 1.796516 1_555
Ni2 O14 1.796516 1_555
Ni3 O15 1.796516 1_454
Ni3 O19 1.796516 1_545
H0 O0 1.033628 1_555
H0 O12 1.589596 1_555
H1 O1 1.033628 1_555
H1 O13 1.589596 1_555
H2 O2 1.033628 1_555
H2 O14 1.589596 1_555
H3 O3 1.033628 1_555
H3 O15 1.589596 1_555
H4 O4 1.033628 1_555
H4 O16 1.589596 1_555
H5 O5 1.033628 1_555
H5 O17 1.589596 1_555
H6 O6 1.033628 1_555
H6 O18 1.589596 1_555
H7 O7 1.033628 1_555
H7 O19 1.589596 1_555
H10 H41 0.750303 1_555
H11 H40 0.750303 1_555
H12 H47 0.750303 1_555
H13 H46 0.750303 1_555
H14 H45 0.750303 1_555
H15 H44 0.750303 1_555
H16 H22 0.747584 1_555
H17 H23 0.747584 1_555
H18 H20 0.747584 1_555
H19 H21 0.747584 1_555
H24 H30 0.749487 1_555
H25 H31 0.749487 1_555
H26 H28 0.749487 1_555
H27 H29 0.749487 1_555
H32 O19 0.973466 1_556
H33 O18 0.973466 1_555
H34 O17 0.973466 1_555
H35 O16 0.973466 1_554
H36 O15 0.973466 1_554
H37 O14 0.973466 1_555
H38 O13 0.973466 1_555
H39 O12 0.973466 1_556
H42 H9 0.750303 1_555
H43 H8 0.750303 1_555
S0 S4 1.907242 1_655
S1 S5 1.907242 1_555
S2 S6 1.907242 1_455
S3 S7 1.907242 1_555
O0 O23 1.341179 1_455
O1 O22 1.341179 1_555
O2 O21 1.341179 1_655
O8 S4 1.471172 1_555
O9 S5 1.471172 1_555
O10 S6 1.471172 1_555
O11 S7 1.471172 1_555
O20 O3 1.341179 1_555
O24 O7 1.341179 1_555
O25 O6 1.341179 1_655
O26 O5 1.341179 1_555
O27 O4 1.341179 1_455
O28 O34 1.231938 1_555
O29 O35 1.231938 1_555
O30 O32 1.231938 1_555
O31 O33 1.231938 1_555
