# generated using pymatgen
data_Ti17(NO4)6
_symmetry_space_group_name_H-M   'P 1'
_cell_length_a   10.04064700
_cell_length_b   9.66603600
_cell_length_c   11.47236154
_cell_angle_alpha   89.97028424
_cell_angle_beta   90.00000000
_cell_angle_gamma   90.00000000
_symmetry_Int_Tables_number   1
_chemical_formula_structural   Ti17(NO4)6
_chemical_formula_sum   'Ti34 N12 O48'
_cell_volume   1113.42988472
_cell_formula_units_Z   2
loop_
 _symmetry_equiv_pos_site_id
 _symmetry_equiv_pos_as_xyz
  1  'x, y, z'
loop_
 _atom_site_type_symbol
 _atom_site_label
 _atom_site_symmetry_multiplicity
 _atom_site_fract_x
 _atom_site_fract_y
 _atom_site_fract_z
 _atom_site_occupancy
  Ti  Ti0  1  0.42956800  0.63555400  0.66609300  1
  Ti  Ti1  1  0.93999000  0.36302100  0.66532800  1
  Ti  Ti2  1  0.07043200  0.63555400  0.66609300  1
  Ti  Ti3  1  0.75000000  0.69930400  0.66672300  1
  Ti  Ti4  1  0.56001000  0.36302100  0.66532800  1
  Ti  Ti5  1  0.92292500  0.85953000  0.49600500  1
  Ti  Ti6  1  0.42292500  0.14047000  0.50399500  1
  Ti  Ti7  1  0.57707500  0.85953000  0.49600500  1
  Ti  Ti8  1  0.25000000  0.80454300  0.49838800  1
  Ti  Ti9  1  0.07707500  0.14047000  0.50399500  1
  Ti  Ti10  1  0.75000000  0.19545700  0.50161200  1
  Ti  Ti11  1  0.06001000  0.63697900  0.33467200  1
  Ti  Ti12  1  0.57043200  0.36444600  0.33390700  1
  Ti  Ti13  1  0.92956800  0.36444600  0.33390700  1
  Ti  Ti14  1  0.43999000  0.63697900  0.33467200  1
  Ti  Ti15  1  0.25000000  0.30069600  0.33327700  1
  Ti  Ti16  1  0.57654500  0.85614200  0.17237800  1
  Ti  Ti17  1  0.25000000  0.80132200  0.17138200  1
  Ti  Ti18  1  0.06938700  0.13564400  0.16741800  1
  Ti  Ti19  1  0.43061300  0.13564400  0.16741800  1
  Ti  Ti20  1  0.92345500  0.85614200  0.17237800  1
  Ti  Ti21  1  0.75000000  0.19816600  0.16925900  1
  Ti  Ti22  1  0.57229500  0.35902700  0.00053900  1
  Ti  Ti23  1  0.07229500  0.64097300  0.99946100  1
  Ti  Ti24  1  0.42770500  0.64097300  0.99946100  1
  Ti  Ti25  1  0.25000000  0.30216400  0.00130900  1
  Ti  Ti26  1  0.75000000  0.69783600  0.99869100  1
  Ti  Ti27  1  0.92770500  0.35902700  0.00053900  1
  Ti  Ti28  1  0.56938700  0.86435600  0.83258200  1
  Ti  Ti29  1  0.75000000  0.19867800  0.82861800  1
  Ti  Ti30  1  0.42345500  0.14385800  0.82762200  1
  Ti  Ti31  1  0.93061300  0.86435600  0.83258200  1
  Ti  Ti32  1  0.25000000  0.80183400  0.83074100  1
  Ti  Ti33  1  0.07654500  0.14385800  0.82762200  1
  N  N0  1  0.25000000  0.73289200  0.66525100  1
  N  N1  1  0.75000000  0.26876800  0.66649300  1
  N  N2  1  0.75000000  0.77935500  0.51120100  1
  N  N3  1  0.25000000  0.22064500  0.48879900  1
  N  N4  1  0.25000000  0.73123200  0.33350700  1
  N  N5  1  0.75000000  0.26710800  0.33474900  1
  N  N6  1  0.75000000  0.77987400  0.15369700  1
  N  N7  1  0.25000000  0.22647100  0.16548900  1
  N  N8  1  0.25000000  0.72890900  0.00135300  1
  N  N9  1  0.75000000  0.27109100  0.99864700  1
  N  N10  1  0.25000000  0.22012600  0.84630300  1
  N  N11  1  0.75000000  0.77352900  0.83451100  1
  O  O0  1  0.56561700  0.81381900  0.66859800  1
  O  O1  1  0.39133200  0.45609400  0.66681500  1
  O  O2  1  0.87831000  0.54957000  0.66644700  1
  O  O3  1  0.05024100  0.17580000  0.66697200  1
  O  O4  1  0.10866800  0.45609400  0.66681500  1
  O  O5  1  0.93438300  0.81381900  0.66859800  1
  O  O6  1  0.62169000  0.54957000  0.66644700  1
  O  O7  1  0.44975900  0.17580000  0.66697200  1
  O  O8  1  0.11971100  0.95188500  0.50288700  1
  O  O9  1  0.38028900  0.95188500  0.50288700  1
  O  O10  1  0.56255400  0.31081400  0.50036800  1
  O  O11  1  0.43744600  0.68918600  0.49963200  1
  O  O12  1  0.06255400  0.68918600  0.49963200  1
  O  O13  1  0.93744600  0.31081400  0.50036800  1
  O  O14  1  0.88028900  0.04811500  0.49711300  1
  O  O15  1  0.61971100  0.04811500  0.49711300  1
  O  O16  1  0.55024100  0.82420000  0.33302800  1
  O  O17  1  0.94975900  0.82420000  0.33302800  1
  O  O18  1  0.89133200  0.54390600  0.33318500  1
  O  O19  1  0.12169000  0.45043000  0.33355300  1
  O  O20  1  0.60866800  0.54390600  0.33318500  1
  O  O21  1  0.06561700  0.18618100  0.33140200  1
  O  O22  1  0.37831000  0.45043000  0.33355300  1
  O  O23  1  0.43438300  0.18618100  0.33140200  1
  O  O24  1  0.43726000  0.68918600  0.16715100  1
  O  O25  1  0.06274000  0.68918600  0.16715100  1
  O  O26  1  0.56589400  0.31177900  0.16688400  1
  O  O27  1  0.61834100  0.04842600  0.16720000  1
  O  O28  1  0.12038900  0.95189900  0.16427600  1
  O  O29  1  0.37961100  0.95189900  0.16427600  1
  O  O30  1  0.93410600  0.31177900  0.16688400  1
  O  O31  1  0.88165900  0.04842600  0.16720000  1
  O  O32  1  0.56271100  0.80918900  0.99829200  1
  O  O33  1  0.61856500  0.54711300  0.00005600  1
  O  O34  1  0.38143500  0.45288700  0.99994400  1
  O  O35  1  0.11856500  0.45288700  0.99994400  1
  O  O36  1  0.43728900  0.19081100  0.00170800  1
  O  O37  1  0.06271100  0.19081100  0.00170800  1
  O  O38  1  0.93728900  0.80918900  0.99829200  1
  O  O39  1  0.88143500  0.54711300  0.00005600  1
  O  O40  1  0.56274000  0.31081400  0.83284900  1
  O  O41  1  0.93726000  0.31081400  0.83284900  1
  O  O42  1  0.62038900  0.04810100  0.83572400  1
  O  O43  1  0.87961100  0.04810100  0.83572400  1
  O  O44  1  0.11834100  0.95157400  0.83280000  1
  O  O45  1  0.38165900  0.95157400  0.83280000  1
  O  O46  1  0.43410600  0.68822100  0.83311600  1
  O  O47  1  0.06589400  0.68822100  0.83311600  1
loop_
_geom_bond_atom_site_label_1
_geom_bond_atom_site_label_2
_geom_bond_distance
_geom_bond_site_symmetry_2
N0 Ti32 2.012444 1_555
N0 Ti2 2.033730 1_555
N0 Ti0 2.033730 1_555
N0 Ti8 2.035408 1_555
N1 Ti29 1.979173 1_555
N1 Ti10 2.020296 1_555
N1 Ti4 2.114050 1_555
N1 Ti1 2.114050 1_555
N2 Ti5 1.909320 1_555
N2 Ti7 1.909320 1_555
N2 Ti3 1.944398 1_555
N3 Ti6 1.909320 1_555
N3 Ti9 1.909320 1_555
N3 Ti15 1.944398 1_555
N4 Ti17 1.979173 1_555
N4 Ti8 2.020296 1_555
N4 Ti14 2.114050 1_555
N4 Ti11 2.114050 1_555
N5 Ti21 2.012444 1_555
N5 Ti13 2.033730 1_555
N5 Ti12 2.033730 1_555
N5 Ti10 2.035408 1_555
N6 Ti20 1.903351 1_555
N6 Ti16 1.903351 1_555
N6 Ti26 1.947455 1_554
N7 Ti19 2.014925 1_555
N7 Ti18 2.014925 1_555
N7 Ti25 2.020292 1_555
N7 Ti15 2.054633 1_555
N8 Ti23 1.976514 1_554
N8 Ti24 1.976514 1_554
N8 Ti17 2.072755 1_555
N8 Ti32 2.080038 1_554
N9 Ti27 1.976514 1_556
N9 Ti22 1.976514 1_556
N9 Ti29 2.072755 1_555
N9 Ti21 2.080038 1_556
N10 Ti33 1.903351 1_555
N10 Ti30 1.903351 1_555
N10 Ti25 1.947455 1_556
N11 Ti28 2.014925 1_555
N11 Ti31 2.014925 1_555
N11 Ti26 2.020292 1_555
N11 Ti3 2.054633 1_555
O0 Ti28 1.944284 1_555
O0 Ti7 2.031785 1_555
O0 Ti3 2.157112 1_555
O0 Ti0 2.199094 1_555
O1 Ti0 1.776658 1_555
O1 Ti4 1.917831 1_555
O2 Ti1 1.906626 1_555
O2 Ti3 1.937666 1_555
O2 Ti2 2.100461 1_655
O3 Ti33 1.887133 1_555
O3 Ti9 1.919837 1_555
O3 Ti1 2.121488 1_455
O4 Ti2 1.776658 1_555
O4 Ti1 1.917831 1_455
O5 Ti31 1.944284 1_555
O5 Ti5 2.031785 1_555
O5 Ti3 2.157112 1_555
O5 Ti2 2.199094 1_655
O6 Ti4 1.906626 1_555
O6 Ti3 1.937666 1_555
O6 Ti0 2.100461 1_555
O7 Ti30 1.887133 1_555
O7 Ti6 1.919837 1_555
O7 Ti4 2.121488 1_555
O8 Ti9 1.872512 1_565
O8 Ti8 1.934547 1_555
O8 Ti5 2.169620 1_455
O9 Ti6 1.872512 1_565
O9 Ti8 1.934547 1_555
O9 Ti7 2.169620 1_555
O10 Ti4 1.959026 1_555
O10 Ti12 1.980135 1_555
O10 Ti6 2.162937 1_555
O10 Ti10 2.187632 1_555
O11 Ti14 1.959026 1_555
O11 Ti0 1.980135 1_555
O11 Ti7 2.162937 1_555
O11 Ti8 2.187632 1_555
O12 Ti11 1.959026 1_555
O12 Ti2 1.980135 1_555
O12 Ti5 2.162937 1_455
O12 Ti8 2.187632 1_555
O13 Ti1 1.959026 1_555
O13 Ti13 1.980135 1_555
O13 Ti9 2.162937 1_655
O13 Ti10 2.187632 1_555
O14 Ti5 1.872512 1_545
O14 Ti10 1.934547 1_555
O14 Ti9 2.169620 1_655
O15 Ti7 1.872512 1_545
O15 Ti10 1.934547 1_555
O15 Ti6 2.169620 1_555
O16 Ti16 1.887133 1_555
O16 Ti7 1.919837 1_555
O16 Ti14 2.121488 1_555
O17 Ti20 1.887133 1_555
O17 Ti5 1.919837 1_555
O17 Ti11 2.121488 1_655
O18 Ti13 1.776658 1_555
O18 Ti11 1.917831 1_655
O19 Ti11 1.906626 1_555
O19 Ti15 1.937666 1_555
O19 Ti13 2.100461 1_455
O20 Ti12 1.776658 1_555
O20 Ti14 1.917831 1_555
O21 Ti18 1.944284 1_555
O21 Ti9 2.031785 1_555
O21 Ti15 2.157112 1_555
O21 Ti13 2.199094 1_455
O22 Ti14 1.906626 1_555
O22 Ti15 1.937666 1_555
O22 Ti12 2.100461 1_555
O23 Ti19 1.944284 1_555
O23 Ti6 2.031785 1_555
O23 Ti15 2.157112 1_555
O23 Ti12 2.199094 1_555
O24 Ti24 1.982000 1_554
O24 Ti14 1.986946 1_555
O24 Ti16 2.136326 1_555
O24 Ti17 2.170822 1_555
O25 Ti23 1.982000 1_554
O25 Ti11 1.986946 1_555
O25 Ti20 2.136326 1_455
O25 Ti17 2.170822 1_555
O26 Ti22 1.963079 1_555
O26 Ti12 1.983400 1_555
O26 Ti21 2.150311 1_555
O26 Ti19 2.177987 1_555
O27 Ti16 1.906308 1_545
O27 Ti21 1.960374 1_555
O27 Ti19 2.064857 1_555
O28 Ti18 1.848807 1_565
O28 Ti17 1.954108 1_555
O28 Ti20 2.185214 1_455
O29 Ti19 1.848807 1_565
O29 Ti17 1.954108 1_555
O29 Ti16 2.185214 1_555
O30 Ti27 1.963079 1_555
O30 Ti13 1.983400 1_555
O30 Ti21 2.150311 1_555
O30 Ti18 2.177987 1_655
O31 Ti20 1.906308 1_545
O31 Ti21 1.960374 1_555
O31 Ti18 2.064857 1_655
O32 Ti28 1.975327 1_555
O32 Ti16 2.053030 1_556
O32 Ti24 2.116952 1_555
O32 Ti26 2.166753 1_555
O33 Ti22 1.876472 1_555
O33 Ti26 1.965795 1_554
O33 Ti24 2.120278 1_554
O34 Ti24 1.876472 1_555
O34 Ti25 1.965795 1_556
O34 Ti22 2.120278 1_556
O35 Ti23 1.876472 1_555
O35 Ti25 1.965795 1_556
O35 Ti27 2.120278 1_456
O36 Ti19 1.975327 1_555
O36 Ti30 2.053030 1_554
O36 Ti22 2.116952 1_555
O36 Ti25 2.166753 1_555
O37 Ti18 1.975327 1_555
O37 Ti33 2.053030 1_554
O37 Ti27 2.116952 1_455
O37 Ti25 2.166753 1_555
O38 Ti31 1.975327 1_555
O38 Ti20 2.053030 1_556
O38 Ti23 2.116952 1_655
O38 Ti26 2.166753 1_555
O39 Ti27 1.876472 1_555
O39 Ti26 1.965795 1_554
O39 Ti23 2.120278 1_654
O40 Ti22 1.982000 1_556
O40 Ti4 1.986946 1_555
O40 Ti30 2.136326 1_555
O40 Ti29 2.170822 1_555
O41 Ti27 1.982000 1_556
O41 Ti1 1.986946 1_555
O41 Ti33 2.136326 1_655
O41 Ti29 2.170822 1_555
O42 Ti28 1.848807 1_545
O42 Ti29 1.954108 1_555
O42 Ti30 2.185214 1_555
O43 Ti31 1.848807 1_545
O43 Ti29 1.954108 1_555
O43 Ti33 2.185214 1_655
O44 Ti33 1.906308 1_565
O44 Ti32 1.960374 1_555
O44 Ti31 2.064857 1_455
O45 Ti30 1.906308 1_565
O45 Ti32 1.960374 1_555
O45 Ti28 2.064857 1_555
O46 Ti24 1.963079 1_555
O46 Ti0 1.983400 1_555
O46 Ti32 2.150311 1_555
O46 Ti28 2.177987 1_555
O47 Ti23 1.963079 1_555
O47 Ti2 1.983400 1_555
O47 Ti32 2.150311 1_555
O47 Ti31 2.177987 1_455
