# generated using pymatgen
data_Li2Nb6NiO18
_symmetry_space_group_name_H-M   'P 1'
_cell_length_a   7.67183100
_cell_length_b   8.96978445
_cell_length_c   11.15711832
_cell_angle_alpha   105.55483384
_cell_angle_beta   96.14544618
_cell_angle_gamma   112.94822205
_symmetry_Int_Tables_number   1
_chemical_formula_structural   Li2Nb6NiO18
_chemical_formula_sum   'Li4 Nb12 Ni2 O36'
_cell_volume   661.45471076
_cell_formula_units_Z   2
loop_
 _symmetry_equiv_pos_site_id
 _symmetry_equiv_pos_as_xyz
  1  'x, y, z'
loop_
 _atom_site_type_symbol
 _atom_site_label
 _atom_site_symmetry_multiplicity
 _atom_site_fract_x
 _atom_site_fract_y
 _atom_site_fract_z
 _atom_site_occupancy
  Li  Li0  1  0.55175500  0.66424400  0.94767800  1
  Li  Li1  1  0.87556100  0.32531900  0.61336500  1
  Li  Li2  1  0.54408000  0.66788500  0.44770800  1
  Li  Li3  1  0.88934900  0.33987100  0.12169300  1
  Nb  Nb0  1  0.50856300  0.98597000  0.99302400  1
  Nb  Nb1  1  0.17695800  0.34591700  0.82611500  1
  Nb  Nb2  1  0.66657500  0.33105000  0.84443700  1
  Nb  Nb3  1  0.32120800  0.65929200  0.65813500  1
  Nb  Nb4  1  0.82024600  0.65670500  0.65812500  1
  Nb  Nb5  1  0.49396200  0.00295900  0.50199300  1
  Nb  Nb6  1  0.16027900  0.33115300  0.33033400  1
  Nb  Nb7  1  0.03024900  0.01225700  0.50496200  1
  Nb  Nb8  1  0.65539900  0.34249500  0.31943700  1
  Nb  Nb9  1  0.32622400  0.64741800  0.15826100  1
  Nb  Nb10  1  0.85194400  0.68127800  0.17380100  1
  Nb  Nb11  1  0.99610300  0.99869900  0.00380800  1
  Ni  Ni0  1  0.19807500  0.00109000  0.80576000  1
  Ni  Ni1  1  0.69801600  0.99966000  0.30432700  1
  O  O0  1  0.69084200  0.21225300  0.95544700  1
  O  O1  1  0.04795900  0.11519700  0.85146200  1
  O  O2  1  0.70943800  0.53811400  0.96697600  1
  O  O3  1  0.71502800  0.90660900  0.95159300  1
  O  O4  1  0.37634500  0.21841500  0.79636600  1
  O  O5  1  0.96272000  0.38861800  0.83969900  1
  O  O6  1  0.35513100  0.54373800  0.77820400  1
  O  O7  1  0.00385000  0.81804400  0.83000500  1
  O  O8  1  0.64416500  0.14559000  0.66373500  1
  O  O9  1  0.05966600  0.21665300  0.62894900  1
  O  O10  1  0.36948100  0.88676000  0.79215700  1
  O  O11  1  0.70994700  0.46965800  0.71027700  1
  O  O12  1  0.05326800  0.57431700  0.62749400  1
  O  O13  1  0.29691100  0.08422300  0.49278800  1
  O  O14  1  0.62960100  0.73507200  0.66196400  1
  O  O15  1  0.04265200  0.89651900  0.62767500  1
  O  O16  1  0.29913000  0.46477300  0.50218100  1
  O  O17  1  0.69270800  0.18958400  0.42478100  1
  O  O18  1  0.36896800  0.79373100  0.52782000  1
  O  O19  1  0.98036000  0.11000600  0.34978400  1
  O  O20  1  0.72688200  0.54350900  0.46504300  1
  O  O21  1  0.72441000  0.92398600  0.44452400  1
  O  O22  1  0.38937700  0.25619700  0.29492200  1
  O  O23  1  0.96551600  0.40195100  0.32231200  1
  O  O24  1  0.34727900  0.53994200  0.27857800  1
  O  O25  1  0.96806700  0.79529600  0.34505500  1
  O  O26  1  0.64725300  0.11000900  0.17845800  1
  O  O27  1  0.43336300  0.88843500  0.29172800  1
  O  O28  1  0.05375400  0.21026200  0.12427100  1
  O  O29  1  0.69701900  0.45704300  0.19138200  1
  O  O30  1  0.05963400  0.58972400  0.13583100  1
  O  O31  1  0.29699400  0.06885900  0.98108500  1
  O  O32  1  0.65555200  0.77843900  0.18238100  1
  O  O33  1  0.00965100  0.86734800  0.10499600  1
  O  O34  1  0.32435200  0.47756900  0.00362200  1
  O  O35  1  0.36603500  0.79028900  0.02592400  1
loop_
_geom_bond_atom_site_label_1
_geom_bond_atom_site_label_2
_geom_bond_distance
_geom_bond_site_symmetry_2
Li0 O2 1.982896 1_555
Li0 O6 2.010176 1_555
Li0 O3 2.027538 1_555
Li0 O34 2.180060 1_556
Li0 O35 2.250244 1_556
Li0 O32 2.453439 1_556
Li1 O9 2.021656 1_655
Li1 O12 2.064602 1_655
Li1 O8 2.129327 1_555
Li1 O17 2.130626 1_555
Li1 O11 2.299081 1_555
Li1 O5 2.391602 1_555
Li2 O24 2.008679 1_555
Li2 O20 2.127565 1_555
Li2 O21 2.183638 1_555
Li2 O18 2.185509 1_555
Li2 O14 2.256386 1_555
Li2 O16 2.321343 1_555
Li3 O0 1.991747 1_554
Li3 O28 2.024064 1_655
Li3 O30 2.058493 1_655
Li3 O23 2.111730 1_555
Li3 O29 2.214271 1_555
Li3 O26 2.463293 1_555
Nb0 O35 1.829212 1_556
Nb0 O26 2.005338 1_566
Nb0 O3 2.022102 1_555
Nb0 O31 2.037873 1_565
Nb0 O0 2.149327 1_565
Nb0 O10 2.151955 1_555
Nb1 O5 1.839618 1_455
Nb1 O34 1.954570 1_556
Nb1 O6 2.019036 1_555
Nb1 O1 2.029523 1_555
Nb1 O9 2.094725 1_555
Nb1 O4 2.242169 1_555
Nb2 O2 1.868838 1_555
Nb2 O0 1.875445 1_555
Nb2 O4 1.991385 1_555
Nb2 O5 2.134668 1_555
Nb2 O11 2.163130 1_555
Nb2 O8 2.183032 1_555
Nb3 O12 1.846970 1_555
Nb3 O6 1.953724 1_555
Nb3 O16 2.044210 1_555
Nb3 O10 2.047434 1_555
Nb3 O18 2.100524 1_555
Nb3 O14 2.184088 1_555
Nb4 O11 1.841584 1_555
Nb4 O14 1.853139 1_555
Nb4 O7 2.024743 1_655
Nb4 O20 2.028333 1_555
Nb4 O12 2.210062 1_655
Nb4 O15 2.303877 1_655
Nb5 O8 1.840674 1_555
Nb5 O18 1.862936 1_545
Nb5 O13 1.921831 1_555
Nb5 O27 2.208275 1_545
Nb5 O17 2.221145 1_555
Nb5 O21 2.239262 1_545
Nb6 O23 1.840019 1_455
Nb6 O16 1.892618 1_555
Nb6 O19 2.011730 1_455
Nb6 O24 2.135696 1_555
Nb6 O22 2.150582 1_555
Nb6 O28 2.167731 1_555
Nb7 O9 1.891073 1_555
Nb7 O13 1.922786 1_555
Nb7 O15 1.942353 1_545
Nb7 O25 2.104655 1_445
Nb7 O21 2.124419 1_445
Nb7 O19 2.201530 1_455
Nb8 O22 1.836897 1_555
Nb8 O20 1.912620 1_555
Nb8 O29 1.956541 1_555
Nb8 O17 2.107904 1_555
Nb8 O23 2.220570 1_555
Nb8 O26 2.223693 1_555
Nb9 O30 1.873239 1_555
Nb9 O24 1.877908 1_555
Nb9 O34 1.966195 1_555
Nb9 O27 2.047547 1_555
Nb9 O35 2.172965 1_555
Nb9 O32 2.281755 1_555
Nb10 O25 1.835055 1_555
Nb10 O29 1.973313 1_555
Nb10 O32 2.012185 1_555
Nb10 O33 2.037180 1_655
Nb10 O30 2.090688 1_655
Nb10 O2 2.223733 1_554
Nb11 O28 1.858362 1_665
Nb11 O33 1.859368 1_655
Nb11 O3 1.937926 1_554
Nb11 O7 2.191833 1_654
Nb11 O31 2.206129 1_664
Nb11 O1 2.216425 1_664
Ni0 O1 1.843618 1_555
Ni0 O7 1.845522 1_545
Ni0 O31 1.859179 1_555
Ni0 O4 1.934620 1_555
Ni0 O10 1.953149 1_545
Ni0 O15 1.967352 1_545
Ni1 O27 1.849758 1_555
Ni1 O17 1.883581 1_565
Ni1 O21 1.886067 1_555
Ni1 O19 1.937153 1_565
Ni1 O32 1.961580 1_555
Ni1 O26 2.008118 1_565
