# generated using pymatgen
data_Li24Ti7Cr5O36
_symmetry_space_group_name_H-M   'P 1'
_cell_length_a   5.06305700
_cell_length_b   9.80866811
_cell_length_c   13.42998063
_cell_angle_alpha   80.65960644
_cell_angle_beta   79.35058173
_cell_angle_gamma   85.37195615
_symmetry_Int_Tables_number   1
_chemical_formula_structural   Li24Ti7Cr5O36
_chemical_formula_sum   'Li24 Ti7 Cr5 O36'
_cell_volume   645.89529748
_cell_formula_units_Z   1
loop_
 _symmetry_equiv_pos_site_id
 _symmetry_equiv_pos_as_xyz
  1  'x, y, z'
loop_
 _atom_site_type_symbol
 _atom_site_label
 _atom_site_symmetry_multiplicity
 _atom_site_fract_x
 _atom_site_fract_y
 _atom_site_fract_z
 _atom_site_occupancy
  Li  Li0  1  0.67374200  0.00117800  0.16605000  1
  Li  Li1  1  0.56733700  0.00066400  0.38875600  1
  Li  Li2  1  0.25012300  0.74987000  0.75014900  1
  Li  Li3  1  0.58195800  0.74990000  0.08407700  1
  Li  Li4  1  0.06480700  0.49855200  0.88791800  1
  Li  Li5  1  0.39509500  0.50185300  0.21940600  1
  Li  Li6  1  0.16181000  0.50003000  0.66661200  1
  Li  Li7  1  0.50421200  0.50064000  0.00051200  1
  Li  Li8  1  0.27084100  0.49969800  0.44832300  1
  Li  Li9  1  0.08581800  0.25024200  0.58432500  1
  Li  Li10  1  0.99849700  0.00034600  0.49912000  1
  Li  Li11  1  0.76633500  0.00155600  0.94564400  1
  Li  Li12  1  0.09680000  0.99894300  0.27917700  1
  Li  Li13  1  0.90107700  0.00177800  0.72173300  1
  Li  Li14  1  0.22948200  0.99871200  0.05489300  1
  Li  Li15  1  0.91612500  0.75021400  0.41617900  1
  Li  Li16  1  0.72977100  0.49896500  0.55198000  1
  Li  Li17  1  0.83647200  0.49897700  0.33240400  1
  Li  Li18  1  0.60297200  0.49971300  0.78024700  1
  Li  Li19  1  0.93385900  0.49977300  0.11278800  1
  Li  Li20  1  0.41685000  0.24970700  0.91662900  1
  Li  Li21  1  0.33107100  0.99865000  0.83281700  1
  Li  Li22  1  0.74969800  0.25012900  0.24968800  1
  Li  Li23  1  0.43713100  0.99932500  0.61163400  1
  Ti  Ti0  1  0.46730500  0.75435200  0.30688100  1
  Ti  Ti1  1  0.19831900  0.24584500  0.36128800  1
  Ti  Ti2  1  0.30145600  0.25329900  0.13861800  1
  Ti  Ti3  1  0.69867600  0.75213900  0.85931600  1
  Ti  Ti4  1  0.80881100  0.75020700  0.63534700  1
  Ti  Ti5  1  0.52657000  0.25087300  0.69344300  1
  Ti  Ti6  1  0.14214700  0.74552400  0.97427700  1
  Cr  Cr0  1  0.85590900  0.25087400  0.02581400  1
  Cr  Cr1  1  0.36282600  0.74852400  0.52866600  1
  Cr  Cr2  1  0.97523200  0.24802300  0.80733600  1
  Cr  Cr3  1  0.02280500  0.74950100  0.19436700  1
  Cr  Cr4  1  0.64289800  0.25100200  0.47305000  1
  O  O0  1  0.92732200  0.86151900  0.07449700  1
  O  O1  1  0.72110500  0.63599200  0.21557000  1
  O  O2  1  0.42553500  0.36389800  0.57199300  1
  O  O3  1  0.50219100  0.36225900  0.35815900  1
  O  O4  1  0.61562200  0.36584300  0.11877200  1
  O  O5  1  0.26032100  0.86248000  0.40646200  1
  O  O6  1  0.21770500  0.13321200  0.71464300  1
  O  O7  1  0.33636700  0.13852700  0.47823700  1
  O  O8  1  0.55619900  0.13511000  0.04729400  1
  O  O9  1  0.99993500  0.86402200  0.85653400  1
  O  O10  1  0.12682800  0.86382100  0.61570000  1
  O  O11  1  0.32959000  0.86246200  0.18967500  1
  O  O12  1  0.40254500  0.13516100  0.26262600  1
  O  O13  1  0.83260500  0.63640200  0.97769100  1
  O  O14  1  0.04352200  0.63321100  0.54783200  1
  O  O15  1  0.16445700  0.63786600  0.30869400  1
  O  O16  1  0.90459000  0.63649100  0.76229000  1
  O  O17  1  0.24383900  0.63620800  0.09579100  1
  O  O18  1  0.75871700  0.36074300  0.90786000  1
  O  O19  1  0.09604700  0.36410000  0.23757400  1
  O  O20  1  0.83421000  0.36232300  0.69208200  1
  O  O21  1  0.94340700  0.36443300  0.45282800  1
  O  O22  1  0.16397300  0.36180600  0.02149600  1
  O  O23  1  0.59568700  0.86382100  0.73638100  1
  O  O24  1  0.67087100  0.13812300  0.81070700  1
  O  O25  1  0.88366700  0.13460700  0.38075600  1
  O  O26  1  0.99837800  0.13805900  0.14098100  1
  O  O27  1  0.45132700  0.86609800  0.95175300  1
  O  O28  1  0.67120200  0.86385500  0.52217400  1
  O  O29  1  0.78351500  0.86599200  0.28552000  1
  O  O30  1  0.73998900  0.13792200  0.59256700  1
  O  O31  1  0.38046200  0.63383900  0.88192600  1
  O  O32  1  0.49326200  0.63750200  0.64145800  1
  O  O33  1  0.56803400  0.63860600  0.43120500  1
  O  O34  1  0.27772200  0.36497900  0.78553900  1
  O  O35  1  0.07441700  0.13913000  0.92526900  1
loop_
_geom_bond_atom_site_label_1
_geom_bond_atom_site_label_2
_geom_bond_distance
_geom_bond_site_symmetry_2
Li0 O29 2.039996 1_545
Li0 O8 2.041615 1_555
Li0 O26 2.149984 1_555
Li0 O0 2.171677 1_545
Li0 O12 2.213275 1_555
Li0 O11 2.241930 1_545
Li1 O7 2.095987 1_555
Li1 O5 2.099691 1_545
Li1 O25 2.129055 1_555
Li1 O29 2.159968 1_545
Li1 O28 2.177551 1_545
Li1 O12 2.219294 1_555
Li2 O23 2.115069 1_555
Li2 O16 2.115090 1_455
Li2 O32 2.121353 1_555
Li2 O31 2.125909 1_555
Li2 O9 2.126279 1_455
Li2 O10 2.132657 1_555
Li3 O17 2.085807 1_555
Li3 O0 2.110183 1_555
Li3 O11 2.115122 1_555
Li3 O13 2.123525 1_554
Li3 O27 2.133046 1_554
Li3 O1 2.134381 1_555
Li4 O18 2.089916 1_455
Li4 O13 2.100654 1_455
Li4 O34 2.139655 1_555
Li4 O31 2.140463 1_555
Li4 O22 2.170850 1_556
Li4 O16 2.218774 1_455
Li5 O19 2.065013 1_555
Li5 O15 2.081277 1_555
Li5 O4 2.154104 1_555
Li5 O17 2.162440 1_555
Li5 O1 2.180670 1_555
Li5 O3 2.250930 1_555
Li6 O14 2.039683 1_555
Li6 O34 2.045578 1_555
Li6 O20 2.166672 1_455
Li6 O32 2.180905 1_555
Li6 O16 2.190255 1_455
Li6 O2 2.194665 1_555
Li7 O4 2.029271 1_555
Li7 O31 2.048712 1_554
Li7 O13 2.160594 1_554
Li7 O18 2.183568 1_554
Li7 O17 2.188473 1_555
Li7 O22 2.230681 1_555
Li8 O33 2.067539 1_555
Li8 O3 2.099166 1_555
Li8 O14 2.140562 1_555
Li8 O2 2.177284 1_555
Li8 O21 2.191838 1_455
Li8 O15 2.252515 1_555
Li9 O2 2.091142 1_555
Li9 O7 2.110526 1_555
Li9 O6 2.117260 1_555
Li9 O30 2.119417 1_455
Li9 O20 2.129508 1_455
Li9 O21 2.142762 1_455
Li10 O25 2.034137 1_555
Li10 O10 2.054693 1_645
Li10 O28 2.160577 1_545
Li10 O30 2.183267 1_555
Li10 O5 2.186717 1_645
Li10 O7 2.217087 1_655
Li11 O35 2.095460 1_655
Li11 O9 2.096270 1_545
Li11 O8 2.128481 1_556
Li11 O27 2.138694 1_545
Li11 O24 2.177921 1_555
Li11 O0 2.261586 1_546
Li12 O12 2.083537 1_565
Li12 O11 2.090499 1_555
Li12 O29 2.114622 1_455
Li12 O25 2.147015 1_465
Li12 O26 2.228217 1_465
Li12 O5 2.236242 1_555
Li13 O24 2.080216 1_555
Li13 O23 2.097462 1_545
Li13 O6 2.116195 1_655
Li13 O9 2.187571 1_545
Li13 O10 2.222536 1_645
Li13 O30 2.247858 1_555
Li14 O0 2.070984 1_455
Li14 O26 2.080590 1_465
Li14 O27 2.155537 1_554
Li14 O11 2.182665 1_555
Li14 O8 2.187945 1_565
Li14 O35 2.257496 1_564
Li15 O5 2.108448 1_655
Li15 O28 2.108596 1_555
Li15 O33 2.110310 1_555
Li15 O29 2.117816 1_555
Li15 O15 2.121539 1_655
Li15 O14 2.121956 1_655
Li16 O2 2.064182 1_555
Li16 O32 2.111893 1_555
Li16 O21 2.119467 1_555
Li16 O14 2.131077 1_655
Li16 O33 2.183185 1_555
Li16 O20 2.247448 1_555
Li17 O1 2.033942 1_555
Li17 O21 2.041052 1_555
Li17 O15 2.178013 1_655
Li17 O19 2.178794 1_655
Li17 O3 2.186735 1_555
Li17 O33 2.259769 1_555
Li18 O16 2.068724 1_555
Li18 O20 2.083202 1_555
Li18 O31 2.154084 1_555
Li18 O34 2.177348 1_555
Li18 O18 2.232676 1_555
Li18 O32 2.247937 1_555
Li19 O17 2.100841 1_655
Li19 O22 2.109062 1_655
Li19 O4 2.141910 1_555
Li19 O1 2.160512 1_555
Li19 O13 2.189595 1_554
Li19 O19 2.205036 1_655
Li20 O18 2.093625 1_555
Li20 O35 2.093804 1_555
Li20 O22 2.107310 1_556
Li20 O24 2.116044 1_555
Li20 O8 2.128384 1_556
Li20 O34 2.134895 1_555
Li21 O6 2.030962 1_565
Li21 O27 2.042085 1_555
Li21 O9 2.163205 1_455
Li21 O35 2.190654 1_565
Li21 O23 2.202286 1_555
Li21 O24 2.231306 1_565
Li22 O19 2.122052 1_655
Li22 O4 2.123521 1_555
Li22 O25 2.124219 1_555
Li22 O3 2.127236 1_555
Li22 O12 2.129457 1_555
Li22 O26 2.131490 1_555
Li23 O30 2.084042 1_565
Li23 O28 2.086015 1_555
Li23 O10 2.125918 1_555
Li23 O6 2.158457 1_565
Li23 O7 2.183000 1_565
Li23 O23 2.195427 1_555
Cr0 O18 1.887154 1_554
Cr0 O8 1.919673 1_555
Cr0 O22 1.959613 1_655
Cr0 O26 1.965970 1_555
Cr0 O35 1.995306 1_654
Cr0 O4 1.996140 1_555
Cr1 O32 1.906526 1_555
Cr1 O33 1.931264 1_555
Cr1 O10 1.941067 1_555
Cr1 O5 1.959079 1_555
Cr1 O28 1.981854 1_555
Cr1 O14 2.001478 1_555
Cr2 O35 1.886755 1_655
Cr2 O34 1.938067 1_655
Cr2 O24 1.940409 1_555
Cr2 O20 1.969416 1_555
Cr2 O18 1.997166 1_555
Cr2 O6 1.998032 1_655
Cr3 O0 1.913203 1_455
Cr3 O1 1.914363 1_455
Cr3 O15 1.950739 1_555
Cr3 O11 1.965493 1_555
Cr3 O29 1.988596 1_455
Cr3 O17 1.992285 1_555
Cr4 O21 1.910228 1_555
Cr4 O30 1.916773 1_555
Cr4 O3 1.952810 1_555
Cr4 O7 1.960108 1_555
Cr4 O2 1.985848 1_555
Cr4 O25 2.000533 1_555
O0 Ti6 2.011321 1_654
O1 Ti0 2.035152 1_555
O2 Ti5 1.944487 1_555
O3 Ti1 1.979065 1_555
O4 Ti2 1.962383 1_555
O5 Ti0 1.942861 1_555
O6 Ti5 1.969391 1_555
O7 Ti1 1.952893 1_555
O8 Ti2 2.036486 1_555
O9 Ti3 1.941133 1_555
O9 Ti6 2.014704 1_655
O10 Ti4 1.985232 1_455
O11 Ti0 1.957774 1_555
O12 Ti1 1.944980 1_555
O12 Ti2 1.992804 1_555
O13 Ti6 1.957588 1_655
O13 Ti3 1.991058 1_555
O14 Ti4 1.952441 1_455
O15 Ti0 1.979160 1_555
O16 Ti3 1.964303 1_555
O16 Ti4 1.996695 1_555
O17 Ti6 1.931701 1_554
O19 Ti2 1.950521 1_555
O19 Ti1 1.992371 1_555
O20 Ti5 1.969581 1_555
O21 Ti1 2.040981 1_655
O22 Ti2 1.957845 1_555
O23 Ti3 1.958750 1_555
O23 Ti4 2.000756 1_555
O24 Ti5 1.991618 1_555
O25 Ti1 1.957238 1_655
O26 Ti2 1.970700 1_655
O27 Ti6 1.987032 1_555
O27 Ti3 2.002216 1_555
O28 Ti4 1.937595 1_555
O29 Ti0 1.963611 1_555
O30 Ti5 1.995841 1_555
O31 Ti6 1.966942 1_555
O31 Ti3 2.010202 1_555
O32 Ti4 1.997097 1_555
O33 Ti0 1.985650 1_555
O34 Ti5 2.003925 1_555
