# generated using pymatgen
data_LiP4WO12
_symmetry_space_group_name_H-M   'P 1'
_cell_length_a   7.60237789
_cell_length_b   7.60237789
_cell_length_c   18.25599900
_cell_angle_alpha   90.00000000
_cell_angle_beta   90.00000000
_cell_angle_gamma   100.42167410
_symmetry_Int_Tables_number   1
_chemical_formula_structural   LiP4WO12
_chemical_formula_sum   'Li4 P16 W4 O48'
_cell_volume   1037.72014646
_cell_formula_units_Z   4
loop_
 _symmetry_equiv_pos_site_id
 _symmetry_equiv_pos_as_xyz
  1  'x, y, z'
loop_
 _atom_site_type_symbol
 _atom_site_label
 _atom_site_symmetry_multiplicity
 _atom_site_fract_x
 _atom_site_fract_y
 _atom_site_fract_z
 _atom_site_occupancy
  Li  Li0  1  0.19493700  0.10148300  0.64484200  1
  Li  Li1  1  0.89851700  0.80506300  0.85515800  1
  Li  Li2  1  0.80506300  0.89851700  0.14484200  1
  Li  Li3  1  0.10148300  0.19493700  0.35515800  1
  P  P0  1  0.04639100  0.75885700  0.34502100  1
  P  P1  1  0.24114300  0.95360900  0.15497900  1
  P  P2  1  0.29349500  0.77754600  0.01277900  1
  P  P3  1  0.22245400  0.70650500  0.48722100  1
  P  P4  1  0.37113400  0.62886600  0.75000000  1
  P  P5  1  0.67158200  0.74433900  0.30783200  1
  P  P6  1  0.25566100  0.32841800  0.19216800  1
  P  P7  1  0.35899000  0.35899000  0.50000000  1
  P  P8  1  0.64101000  0.64101000  0.00000000  1
  P  P9  1  0.74433900  0.67158200  0.69216800  1
  P  P10  1  0.32841800  0.25566100  0.80783200  1
  P  P11  1  0.62886600  0.37113400  0.25000000  1
  P  P12  1  0.77754600  0.29349500  0.98722100  1
  P  P13  1  0.70650500  0.22245400  0.51277900  1
  P  P14  1  0.75885700  0.04639100  0.65497900  1
  P  P15  1  0.95360900  0.24114300  0.84502100  1
  W  W0  1  0.56489500  0.96086100  0.88137200  1
  W  W1  1  0.03913900  0.43510500  0.61862800  1
  W  W2  1  0.43510500  0.03913900  0.38137200  1
  W  W3  1  0.96086100  0.56489500  0.11862800  1
  O  O0  1  0.15194800  0.94989600  0.35194200  1
  O  O1  1  0.05010400  0.84805200  0.14805800  1
  O  O2  1  0.06166000  0.64512000  0.28154200  1
  O  O3  1  0.35488000  0.93834000  0.21845800  1
  O  O4  1  0.10954300  0.66814900  0.02128000  1
  O  O5  1  0.33185100  0.89045700  0.47872000  1
  O  O6  1  0.09164200  0.65133800  0.41984600  1
  O  O7  1  0.34866200  0.90835800  0.08015400  1
  O  O8  1  0.12197800  0.67955500  0.55842600  1
  O  O9  1  0.32044500  0.87802200  0.94157400  1
  O  O10  1  0.40755500  0.79582100  0.79552700  1
  O  O11  1  0.20417900  0.59244500  0.70447300  1
  O  O12  1  0.52320800  0.80202600  0.35110600  1
  O  O13  1  0.19797400  0.47679200  0.14889400  1
  O  O14  1  0.35898600  0.56364400  0.48215300  1
  O  O15  1  0.43635600  0.64101400  0.01784700  1
  O  O16  1  0.78078800  0.84262200  0.63670900  1
  O  O17  1  0.15737800  0.21921200  0.86329100  1
  O  O18  1  0.52891900  0.61844800  0.69205600  1
  O  O19  1  0.38155200  0.47108100  0.80794400  1
  O  O20  1  0.25036800  0.30487200  0.56874200  1
  O  O21  1  0.69512800  0.74963200  0.93125800  1
  O  O22  1  0.71823100  0.81751200  0.23402800  1
  O  O23  1  0.18248800  0.28176900  0.26597200  1
  O  O24  1  0.28176900  0.18248800  0.73402800  1
  O  O25  1  0.81751200  0.71823100  0.76597200  1
  O  O26  1  0.30487200  0.25036800  0.43125800  1
  O  O27  1  0.74963200  0.69512800  0.06874200  1
  O  O28  1  0.61844800  0.52891900  0.30794400  1
  O  O29  1  0.47108100  0.38155200  0.19205600  1
  O  O30  1  0.21921200  0.15737800  0.13670900  1
  O  O31  1  0.84262200  0.78078800  0.36329100  1
  O  O32  1  0.64101400  0.43635600  0.98215300  1
  O  O33  1  0.56364400  0.35898600  0.51784700  1
  O  O34  1  0.47679200  0.19797400  0.85110600  1
  O  O35  1  0.80202600  0.52320800  0.64889400  1
  O  O36  1  0.79582100  0.40755500  0.20447300  1
  O  O37  1  0.59244500  0.20417900  0.29552700  1
  O  O38  1  0.67955500  0.12197800  0.44157400  1
  O  O39  1  0.87802200  0.32044500  0.05842600  1
  O  O40  1  0.65133800  0.09164200  0.58015400  1
  O  O41  1  0.90835800  0.34866200  0.91984600  1
  O  O42  1  0.89045700  0.33185100  0.52128000  1
  O  O43  1  0.66814900  0.10954300  0.97872000  1
  O  O44  1  0.64512000  0.06166000  0.71845800  1
  O  O45  1  0.93834000  0.35488000  0.78154200  1
  O  O46  1  0.94989600  0.15194800  0.64805800  1
  O  O47  1  0.84805200  0.05010400  0.85194200  1
loop_
_geom_bond_atom_site_label_1
_geom_bond_atom_site_label_2
_geom_bond_distance
_geom_bond_site_symmetry_2
Li0 O24 1.821788 1_555
Li0 O46 1.969665 1_455
Li0 O20 2.064657 1_555
Li1 O25 1.821788 1_555
Li1 O47 1.969665 1_565
Li1 O21 2.064657 1_555
Li2 O22 1.821788 1_555
Li2 O1 1.969665 1_655
Li2 O27 2.064657 1_555
Li3 O23 1.821788 1_555
Li3 O0 1.969665 1_545
Li3 O26 2.064657 1_555
O0 P0 1.532193 1_555
O0 W2 2.203307 1_565
O1 P1 1.532193 1_555
O1 W3 2.203307 1_455
O2 P0 1.463021 1_555
O3 P1 1.463021 1_555
O4 P2 1.500239 1_555
O4 W3 2.175139 1_455
O5 P3 1.500239 1_555
O5 W2 2.175139 1_565
O6 P3 1.589620 1_555
O6 P0 1.659576 1_555
O7 P2 1.589620 1_555
O7 P1 1.659576 1_555
O8 P3 1.502871 1_555
O8 W1 2.152848 1_555
O9 P2 1.502871 1_556
O9 W0 2.152848 1_555
O10 P4 1.500442 1_555
O10 W0 2.217693 1_555
O11 P4 1.500442 1_555
O11 W1 2.217693 1_555
O12 P5 1.505919 1_555
O12 W2 2.107173 1_565
O13 P6 1.505919 1_555
O13 W3 2.107173 1_455
O14 P7 1.589611 1_555
O14 P3 1.635041 1_555
O15 P8 1.589611 1_555
O15 P2 1.635041 1_555
O16 P14 1.622433 1_565
O16 P9 1.631659 1_555
O17 P15 1.622433 1_455
O17 P10 1.631659 1_555
O18 P4 1.611998 1_555
O18 P9 1.614285 1_555
O19 P4 1.611998 1_555
O19 P10 1.614285 1_555
O20 P7 1.517625 1_555
O20 W1 2.227914 1_555
O21 P8 1.517625 1_556
O21 W0 2.227914 1_555
O22 P5 1.476228 1_555
O23 P6 1.476228 1_555
O24 P10 1.476228 1_555
O25 P9 1.476228 1_555
O26 P7 1.517625 1_555
O26 W2 2.227914 1_555
O27 P8 1.517625 1_555
O27 W3 2.227914 1_555
O28 P11 1.611998 1_555
O28 P5 1.614285 1_555
O29 P11 1.611998 1_555
O29 P6 1.614285 1_555
O30 P1 1.622433 1_545
O30 P6 1.631659 1_555
O31 P0 1.622433 1_655
O31 P5 1.631659 1_555
O32 P8 1.589611 1_556
O32 P12 1.635041 1_555
O33 P7 1.589611 1_555
O33 P13 1.635041 1_555
O34 P10 1.505919 1_555
O34 W0 2.107173 1_545
O35 P9 1.505919 1_555
O35 W1 2.107173 1_655
O36 P11 1.500442 1_555
O36 W3 2.217693 1_555
O37 P11 1.500442 1_555
O37 W2 2.217693 1_555
O38 P13 1.502871 1_555
O38 W2 2.152848 1_555
O39 P12 1.502871 1_554
O39 W3 2.152848 1_555
O40 P13 1.589620 1_555
O40 P14 1.659576 1_555
O41 P12 1.589620 1_555
O41 P15 1.659576 1_555
O42 P13 1.500239 1_555
O42 W1 2.175139 1_655
O43 P12 1.500239 1_555
O43 W0 2.175139 1_545
O44 P14 1.463021 1_555
O45 P15 1.463021 1_555
O46 P14 1.532193 1_555
O46 W1 2.203307 1_655
O47 P15 1.532193 1_555
O47 W0 2.203307 1_545
