# generated using pymatgen
data_Li2CoBO4
_symmetry_space_group_name_H-M   'P 1'
_cell_length_a   4.77538600
_cell_length_b   5.79570200
_cell_length_c   10.62062800
_cell_angle_alpha   90.00000000
_cell_angle_beta   90.00000000
_cell_angle_gamma   90.00000000
_symmetry_Int_Tables_number   1
_chemical_formula_structural   Li2CoBO4
_chemical_formula_sum   'Li8 Co4 B4 O16'
_cell_volume   293.94408568
_cell_formula_units_Z   4
loop_
 _symmetry_equiv_pos_site_id
 _symmetry_equiv_pos_as_xyz
  1  'x, y, z'
loop_
 _atom_site_type_symbol
 _atom_site_label
 _atom_site_symmetry_multiplicity
 _atom_site_fract_x
 _atom_site_fract_y
 _atom_site_fract_z
 _atom_site_occupancy
  Li  Li0  1  0.70101400  0.49867200  0.58343800  1
  Li  Li1  1  0.79898600  0.49867200  0.08343800  1
  Li  Li2  1  0.79898600  0.00132800  0.08343800  1
  Li  Li3  1  0.70101400  0.00132800  0.58343800  1
  Li  Li4  1  0.20101400  0.99867200  0.91656200  1
  Li  Li5  1  0.29898600  0.99867200  0.41656200  1
  Li  Li6  1  0.29898600  0.50132800  0.41656200  1
  Li  Li7  1  0.20101400  0.50132800  0.91656200  1
  Co  Co0  1  0.69249300  0.75000000  0.82431300  1
  Co  Co1  1  0.80750700  0.75000000  0.32431300  1
  Co  Co2  1  0.19249300  0.25000000  0.67568700  1
  Co  Co3  1  0.30750700  0.25000000  0.17568700  1
  B  B0  1  0.18745600  0.75000000  0.66861800  1
  B  B1  1  0.31254400  0.75000000  0.16861800  1
  B  B2  1  0.81254400  0.25000000  0.33138200  1
  B  B3  1  0.68745600  0.25000000  0.83138200  1
  O  O0  1  0.28302200  0.53713100  0.60009700  1
  O  O1  1  0.21697800  0.53713100  0.10009700  1
  O  O2  1  0.87809100  0.75000000  0.67012000  1
  O  O3  1  0.20066100  0.75000000  0.30062900  1
  O  O4  1  0.62190900  0.75000000  0.17012000  1
  O  O5  1  0.29933900  0.75000000  0.80062900  1
  O  O6  1  0.21697800  0.96286900  0.10009700  1
  O  O7  1  0.28302200  0.96286900  0.60009700  1
  O  O8  1  0.78302200  0.03713100  0.89990300  1
  O  O9  1  0.71697800  0.03713100  0.39990300  1
  O  O10  1  0.12190900  0.25000000  0.32988000  1
  O  O11  1  0.37809100  0.25000000  0.82988000  1
  O  O12  1  0.79933900  0.25000000  0.69937100  1
  O  O13  1  0.70066100  0.25000000  0.19937100  1
  O  O14  1  0.71697800  0.46286900  0.39990300  1
  O  O15  1  0.78302200  0.46286900  0.89990300  1
loop_
_geom_bond_atom_site_label_1
_geom_bond_atom_site_label_2
_geom_bond_distance
_geom_bond_site_symmetry_2
Li0 O2 1.919464 1_555
Li0 O12 1.952860 1_555
Li0 O14 1.961752 1_555
Li0 O0 2.016258 1_555
Li1 O4 1.919464 1_555
Li1 O13 1.952860 1_555
Li1 O15 1.961752 1_554
Li1 O1 2.016258 1_655
Li2 O4 1.919464 1_545
Li2 O13 1.952860 1_555
Li2 O8 1.961752 1_554
Li2 O6 2.016258 1_645
Li3 O2 1.919464 1_545
Li3 O12 1.952860 1_555
Li3 O9 1.961752 1_555
Li3 O7 2.016258 1_545
Li4 O11 1.919464 1_565
Li4 O5 1.952860 1_555
Li4 O6 1.961752 1_556
Li4 O8 2.016258 1_465
Li5 O10 1.919464 1_565
Li5 O3 1.952860 1_555
Li5 O7 1.961752 1_555
Li5 O9 2.016258 1_565
Li6 O10 1.919464 1_555
Li6 O3 1.952860 1_555
Li6 O0 1.961752 1_555
Li6 O14 2.016258 1_555
Li7 O11 1.919464 1_555
Li7 O5 1.952860 1_555
Li7 O1 1.961752 1_556
Li7 O15 2.016258 1_455
Co0 O2 1.862083 1_555
Co0 O5 1.894238 1_555
Co0 O8 1.897555 1_565
Co0 O15 1.897555 1_555
Co1 O4 1.862083 1_555
Co1 O3 1.894238 1_655
Co1 O14 1.897555 1_555
Co1 O9 1.897555 1_565
Co2 O11 1.862083 1_555
Co2 O12 1.894238 1_455
Co2 O0 1.897555 1_555
Co2 O7 1.897555 1_545
Co3 O10 1.862083 1_555
Co3 O13 1.894238 1_555
Co3 O1 1.897555 1_555
Co3 O6 1.897555 1_545
B0 O2 1.477423 1_455
B0 O5 1.500392 1_555
B0 O7 1.503312 1_555
B0 O0 1.503312 1_555
B1 O4 1.477423 1_555
B1 O3 1.500392 1_555
B1 O1 1.503312 1_555
B1 O6 1.503312 1_555
B2 O10 1.477423 1_655
B2 O13 1.500392 1_555
B2 O14 1.503312 1_555
B2 O9 1.503312 1_555
B3 O11 1.477423 1_555
B3 O12 1.500392 1_555
B3 O15 1.503312 1_555
B3 O8 1.503312 1_555
