# generated using pymatgen
data_LiFe2(BO3)2
_symmetry_space_group_name_H-M   'P 1'
_cell_length_a   5.31617000
_cell_length_b   9.05907659
_cell_length_c   11.24568349
_cell_angle_alpha   113.06042998
_cell_angle_beta   101.91591247
_cell_angle_gamma   90.74538481
_symmetry_Int_Tables_number   1
_chemical_formula_structural   LiFe2(BO3)2
_chemical_formula_sum   'Li4 Fe8 B8 O24'
_cell_volume   484.91410227
_cell_formula_units_Z   4
loop_
 _symmetry_equiv_pos_site_id
 _symmetry_equiv_pos_as_xyz
  1  'x, y, z'
loop_
 _atom_site_type_symbol
 _atom_site_label
 _atom_site_symmetry_multiplicity
 _atom_site_fract_x
 _atom_site_fract_y
 _atom_site_fract_z
 _atom_site_occupancy
  Li  Li0  1  0.83710100  0.18312900  0.35105600  1
  Li  Li1  1  0.64439000  0.29768400  0.60183600  1
  Li  Li2  1  0.39203700  0.04233100  0.08434400  1
  Li  Li3  1  0.88940000  0.54830100  0.09257500  1
  Fe  Fe0  1  0.59150000  0.60332200  0.86588600  1
  Fe  Fe1  1  0.90489800  0.90092100  0.11633200  1
  Fe  Fe2  1  0.15610400  0.47613300  0.62182200  1
  Fe  Fe3  1  0.34691900  0.01208800  0.37442900  1
  Fe  Fe4  1  0.64190100  0.96561200  0.62942600  1
  Fe  Fe5  1  0.85117900  0.52293600  0.36860700  1
  Fe  Fe6  1  0.09258800  0.10082600  0.86383700  1
  Fe  Fe7  1  0.39379300  0.40507800  0.12157000  1
  B  B0  1  0.35651000  0.34733800  0.36822600  1
  B  B1  1  0.10666600  0.77140100  0.87427800  1
  B  B2  1  0.84454500  0.85819600  0.36870600  1
  B  B3  1  0.60270200  0.27048400  0.87800200  1
  B  B4  1  0.13830900  0.14478500  0.61962000  1
  B  B5  1  0.39470100  0.73187400  0.12149400  1
  B  B6  1  0.65162900  0.63217800  0.61901700  1
  B  B7  1  0.89914800  0.23352700  0.12715000  1
  O  O0  1  0.87638100  0.76468200  0.91267800  1
  O  O1  1  0.56124700  0.51911200  0.66502100  1
  O  O2  1  0.76729500  0.11361000  0.14469800  1
  O  O3  1  0.47909400  0.21867500  0.38350000  1
  O  O4  1  0.11404700  0.37371500  0.39620000  1
  O  O5  1  0.22797100  0.63197100  0.82830400  1
  O  O6  1  0.70785500  0.41225100  0.88202200  1
  O  O7  1  0.97060500  0.97030300  0.33582400  1
  O  O8  1  0.31386300  0.88924100  0.16956400  1
  O  O9  1  0.37470100  0.11853200  0.57913100  1
  O  O10  1  0.00094200  0.26494800  0.60335400  1
  O  O11  1  0.62388000  0.71297400  0.07537000  1
  O  O12  1  0.37245000  0.26653500  0.91669800  1
  O  O13  1  0.62724900  0.90229100  0.41878600  1
  O  O14  1  0.72853100  0.13241300  0.83993100  1
  O  O15  1  0.04626400  0.04318400  0.67041900  1
  O  O16  1  0.25358300  0.60517000  0.11925200  1
  O  O17  1  0.80796700  0.38598900  0.16063800  1
  O  O18  1  0.86235900  0.59033800  0.55935400  1
  O  O19  1  0.53530900  0.76468100  0.63247700  1
  O  O20  1  0.93437300  0.71343800  0.34853900  1
  O  O21  1  0.21954300  0.91737300  0.89176700  1
  O  O22  1  0.48181600  0.44703900  0.32800400  1
  O  O23  1  0.12621000  0.20687300  0.08216000  1
loop_
_geom_bond_atom_site_label_1
_geom_bond_atom_site_label_2
_geom_bond_distance
_geom_bond_site_symmetry_2
Li0 O3 2.017360 1_555
Li0 O7 2.019245 1_545
Li0 O4 2.084426 1_655
Li0 O2 2.100725 1_555
Li1 O10 1.919988 1_655
Li1 O1 1.939118 1_555
Li1 O9 2.053862 1_555
Li1 O3 2.242556 1_555
Li2 O2 1.980251 1_555
Li2 O21 2.011163 1_544
Li2 O8 2.050664 1_545
Li2 O23 2.070923 1_555
Li3 O16 1.927915 1_655
Li3 O17 1.984264 1_555
Li3 O11 2.103201 1_555
Li3 O6 2.190018 1_554
Fe0 O6 1.907675 1_555
Fe0 O0 1.928219 1_555
Fe0 O5 1.934565 1_555
Fe0 O1 2.051125 1_555
Fe0 O11 2.135639 1_556
Fe1 O2 2.000210 1_565
Fe1 O11 2.092413 1_555
Fe1 O0 2.104463 1_554
Fe1 O8 2.148147 1_655
Fe1 O7 2.243345 1_555
Fe2 O10 1.990119 1_555
Fe2 O18 2.039820 1_455
Fe2 O1 2.103429 1_555
Fe2 O5 2.140643 1_555
Fe2 O4 2.294494 1_555
Fe3 O13 1.891928 1_545
Fe3 O3 1.947623 1_555
Fe3 O7 1.956237 1_445
Fe3 O9 2.089934 1_555
Fe3 O8 2.096723 1_545
Fe4 O19 1.914604 1_555
Fe4 O9 2.142431 1_565
Fe4 O15 2.150599 1_665
Fe4 O13 2.191902 1_555
Fe4 O14 2.197444 1_565
Fe5 O20 1.884488 1_555
Fe5 O22 1.971196 1_555
Fe5 O18 1.974348 1_555
Fe5 O4 2.018719 1_655
Fe5 O17 2.135263 1_555
Fe6 O21 1.914863 1_545
Fe6 O12 1.923016 1_555
Fe6 O14 1.938994 1_455
Fe6 O15 1.987490 1_555
Fe6 O23 2.224714 1_556
Fe7 O16 1.976389 1_555
Fe7 O23 2.119852 1_555
Fe7 O12 2.125844 1_554
Fe7 O22 2.146680 1_555
Fe7 O17 2.177359 1_555
B0 O22 1.375843 1_555
B0 O4 1.390716 1_555
B0 O3 1.393957 1_555
B1 O21 1.369053 1_555
B1 O5 1.387764 1_555
B1 O0 1.387769 1_455
B2 O20 1.351742 1_555
B2 O13 1.384057 1_555
B2 O7 1.412831 1_555
B3 O6 1.374521 1_555
B3 O14 1.384113 1_555
B3 O12 1.385636 1_555
B4 O10 1.368663 1_555
B4 O15 1.388733 1_555
B4 O9 1.415068 1_555
B5 O16 1.352055 1_555
B5 O11 1.406972 1_555
B5 O8 1.420348 1_555
B6 O19 1.327320 1_555
B6 O18 1.403950 1_555
B6 O1 1.432699 1_555
B7 O2 1.384074 1_555
B7 O23 1.391205 1_655
B7 O17 1.403471 1_555
