# generated using pymatgen
data_Cr3Sn3(SbO8)2
_symmetry_space_group_name_H-M   'P 1'
_cell_length_a   6.18079300
_cell_length_b   6.18601368
_cell_length_c   9.32276316
_cell_angle_alpha   89.98937070
_cell_angle_beta   90.78280181
_cell_angle_gamma   119.80195624
_symmetry_Int_Tables_number   1
_chemical_formula_structural   Cr3Sn3(SbO8)2
_chemical_formula_sum   'Cr3 Sn3 Sb2 O16'
_cell_volume   309.27190806
_cell_formula_units_Z   1
loop_
 _symmetry_equiv_pos_site_id
 _symmetry_equiv_pos_as_xyz
  1  'x, y, z'
loop_
 _atom_site_type_symbol
 _atom_site_label
 _atom_site_symmetry_multiplicity
 _atom_site_fract_x
 _atom_site_fract_y
 _atom_site_fract_z
 _atom_site_occupancy
  Cr  Cr0  1  0.65575700  0.82838000  0.78957900  1
  Cr  Cr1  1  0.82669300  0.16909000  0.28280300  1
  Cr  Cr2  1  0.82855500  0.65899700  0.29210900  1
  Sn  Sn0  1  0.16394500  0.33536800  0.78771700  1
  Sn  Sn1  1  0.16459600  0.82972900  0.78805800  1
  Sn  Sn2  1  0.33534400  0.16866700  0.29660100  1
  Sb  Sb0  1  0.34431200  0.67317800  0.50639000  1
  Sb  Sb1  1  0.67494400  0.33892500  0.01164900  1
  O  O0  1  0.16835900  0.34590900  0.39973000  1
  O  O1  1  0.04481200  0.52349500  0.64606400  1
  O  O2  1  0.33642200  0.66804900  0.90060100  1
  O  O3  1  0.98818500  0.99448700  0.69179200  1
  O  O4  1  0.98262600  0.99928900  0.20522900  1
  O  O5  1  0.16987400  0.82733100  0.40014100  1
  O  O6  1  0.48254500  0.52803000  0.65595600  1
  O  O7  1  0.48195500  0.95476200  0.65647300  1
  O  O8  1  0.34409800  0.17197600  0.90477400  1
  O  O9  1  0.65647100  0.83089000  0.39417100  1
  O  O10  1  0.53592900  0.05030400  0.15695400  1
  O  O11  1  0.52916400  0.47681700  0.15715500  1
  O  O12  1  0.68367100  0.33061400  0.39439400  1
  O  O13  1  0.82469900  0.17073800  0.90007700  1
  O  O14  1  0.95148200  0.46886500  0.16468100  1
  O  O15  1  0.82556400  0.65591400  0.90118300  1
loop_
_geom_bond_atom_site_label_1
_geom_bond_atom_site_label_2
_geom_bond_distance
_geom_bond_site_symmetry_2
Cr0 O2 2.015002 1_555
Cr0 O3 2.015150 1_555
Cr0 O7 2.025607 1_555
Cr0 O6 2.034031 1_555
Cr0 O15 2.098830 1_555
Cr0 O13 2.099999 1_565
Cr1 O4 1.892314 1_545
Cr1 O12 1.940518 1_555
Cr1 O10 1.943269 1_555
Cr1 O14 1.961417 1_555
Cr1 O9 2.098319 1_545
Cr1 O0 2.117964 1_655
Cr2 O4 2.005486 1_555
Cr2 O12 2.012997 1_555
Cr2 O11 2.034999 1_555
Cr2 O14 2.070116 1_555
Cr2 O5 2.075554 1_655
Cr2 O9 2.078349 1_555
O0 Sb0 2.013143 1_555
O0 Sn2 2.084248 1_555
O1 Sb0 2.083588 1_555
O1 Sn0 2.113087 1_555
O1 Sn1 2.114045 1_555
O2 Sn1 2.062529 1_555
O2 Sn0 2.066065 1_555
O3 Sn1 2.027471 1_655
O3 Sn0 2.030664 1_665
O4 Sn2 2.062825 1_665
O5 Sb0 2.011312 1_555
O5 Sn2 2.077467 1_565
O6 Sb0 2.051823 1_555
O6 Sn0 2.130675 1_555
O7 Sb0 2.052075 1_555
O7 Sn1 2.123216 1_555
O8 Sb1 2.021487 1_556
O8 Sn1 2.128440 1_545
O8 Sn0 2.130137 1_555
O9 Sb0 1.988115 1_555
O10 Sb1 2.065686 1_555
O10 Sn2 2.171372 1_555
O11 Sb1 2.043875 1_555
O11 Sn2 2.128517 1_555
O12 Sn2 2.067065 1_555
O13 Sb1 2.001266 1_556
O13 Sn0 2.113774 1_655
O14 Sb1 2.042330 1_555
O15 Sb1 1.995812 1_556
O15 Sn1 2.116549 1_655
