# generated using pymatgen
data_Li2V3O6
_symmetry_space_group_name_H-M   'P 1'
_cell_length_a   6.00575505
_cell_length_b   6.58822272
_cell_length_c   6.79851236
_cell_angle_alpha   83.38007111
_cell_angle_beta   115.88081993
_cell_angle_gamma   76.76195470
_symmetry_Int_Tables_number   1
_chemical_formula_structural   Li2V3O6
_chemical_formula_sum   'Li4 V6 O12'
_cell_volume   228.36219819
_cell_formula_units_Z   2
loop_
 _symmetry_equiv_pos_site_id
 _symmetry_equiv_pos_as_xyz
  1  'x, y, z'
loop_
 _atom_site_type_symbol
 _atom_site_label
 _atom_site_symmetry_multiplicity
 _atom_site_fract_x
 _atom_site_fract_y
 _atom_site_fract_z
 _atom_site_occupancy
  Li  Li0  1  0.98663900  0.01270300  0.98097300  1
  Li  Li1  1  0.48651200  0.01275900  0.98088800  1
  Li  Li2  1  0.51285900  0.65433400  0.35197600  1
  Li  Li3  1  0.01298100  0.65426400  0.35206900  1
  V  V0  1  0.75030500  0.33314500  0.16679700  1
  V  V1  1  0.75349000  0.01463400  0.51556400  1
  V  V2  1  0.74645400  0.65203300  0.81779900  1
  V  V3  1  0.25027600  0.33316200  0.16679600  1
  V  V4  1  0.25358300  0.01460800  0.51548400  1
  V  V5  1  0.24639600  0.65208400  0.81787600  1
  O  O0  1  0.87574700  0.02530800  0.26578400  1
  O  O1  1  0.37576000  0.02526200  0.26572200  1
  O  O2  1  0.62444600  0.64110400  0.06755900  1
  O  O3  1  0.12442400  0.64120600  0.06763600  1
  O  O4  1  0.89381700  0.33348700  0.95234600  1
  O  O5  1  0.39372700  0.33355400  0.95233500  1
  O  O6  1  0.60645200  0.33307200  0.38114300  1
  O  O7  1  0.10652700  0.33300500  0.38114700  1
  O  O8  1  0.86810700  0.69054000  0.58308400  1
  O  O9  1  0.36810100  0.69046800  0.58310500  1
  O  O10  1  0.63170500  0.97626200  0.75030000  1
  O  O11  1  0.13169100  0.97633900  0.75028800  1
loop_
_geom_bond_atom_site_label_1
_geom_bond_atom_site_label_2
_geom_bond_distance
_geom_bond_site_symmetry_2
Li0 O4 2.021375 1_555
Li0 O11 2.111793 1_645
Li0 O10 2.112755 1_545
Li0 O3 2.310082 1_646
Li0 O0 2.310235 1_556
Li0 O1 2.322030 1_656
Li1 O5 2.021519 1_555
Li1 O10 2.111870 1_545
Li1 O11 2.112057 1_545
Li1 O1 2.309799 1_556
Li1 O2 2.311072 1_546
Li1 O0 2.322850 1_556
Li2 O6 2.023880 1_555
Li2 O9 2.113206 1_555
Li2 O8 2.114363 1_555
Li2 O1 2.306577 1_565
Li2 O2 2.310617 1_555
Li2 O3 2.319602 1_555
Li3 O7 2.023949 1_555
Li3 O8 2.113073 1_455
Li3 O9 2.113656 1_555
Li3 O0 2.307300 1_465
Li3 O3 2.310086 1_555
Li3 O2 2.320530 1_455
O0 V0 1.917438 1_555
O0 V1 2.124224 1_555
O0 V4 2.138274 1_655
O1 V3 1.917799 1_555
O1 V4 2.123768 1_555
O1 V1 2.138282 1_555
O2 V0 1.918277 1_555
O2 V2 2.123080 1_554
O2 V5 2.138589 1_554
O3 V3 1.918765 1_555
O3 V5 2.122921 1_554
O3 V2 2.138895 1_454
O4 V0 1.991389 1_556
O4 V3 1.995255 1_656
O4 V2 2.006069 1_555
O5 V3 1.991182 1_556
O5 V0 1.995633 1_556
O5 V5 2.005889 1_555
O6 V0 1.992246 1_555
O6 V3 1.994300 1_555
O6 V1 2.005307 1_555
O7 V3 1.991816 1_555
O7 V0 1.994405 1_455
O7 V4 2.004984 1_555
O8 V1 2.017091 1_565
O8 V2 2.038090 1_555
O8 V5 2.061778 1_655
O9 V4 2.017350 1_565
O9 V5 2.038575 1_555
O9 V2 2.061905 1_555
O10 V2 2.017945 1_555
O10 V1 2.038696 1_565
O10 V4 2.061244 1_565
O11 V5 2.018082 1_555
O11 V4 2.039514 1_565
O11 V1 2.061492 1_465
