# generated using pymatgen
data_V(CO3)2
_symmetry_space_group_name_H-M   'P 1'
_cell_length_a   4.57099687
_cell_length_b   6.30150946
_cell_length_c   7.75160345
_cell_angle_alpha   90.03426728
_cell_angle_beta   88.88307066
_cell_angle_gamma   90.02798599
_symmetry_Int_Tables_number   1
_chemical_formula_structural   V(CO3)2
_chemical_formula_sum   'V2 C4 O12'
_cell_volume   223.23609222
_cell_formula_units_Z   2
loop_
 _symmetry_equiv_pos_site_id
 _symmetry_equiv_pos_as_xyz
  1  'x, y, z'
loop_
 _atom_site_type_symbol
 _atom_site_label
 _atom_site_symmetry_multiplicity
 _atom_site_fract_x
 _atom_site_fract_y
 _atom_site_fract_z
 _atom_site_occupancy
  V  V0  1  0.49972300  0.00014600  0.99993000  1
  V  V1  1  0.99988400  0.50011700  0.50005200  1
  C  C0  1  0.01034900  0.20339700  0.80775000  1
  C  C1  1  0.50994200  0.29659100  0.30788100  1
  C  C2  1  0.49005000  0.70339400  0.69212000  1
  C  C3  1  0.98960800  0.79657900  0.19212000  1
  O  O0  1  0.12343400  0.29320800  0.67319000  1
  O  O1  1  0.37689100  0.79304600  0.82675400  1
  O  O2  1  0.62322100  0.20688100  0.17331400  1
  O  O3  1  0.87659100  0.70667000  0.32673300  1
  O  O4  1  0.18272500  0.17395400  0.93912000  1
  O  O5  1  0.31783100  0.67393600  0.56067200  1
  O  O6  1  0.68235600  0.32618500  0.43935000  1
  O  O7  1  0.81724100  0.82616500  0.06087900  1
  O  O8  1  0.24377500  0.35558900  0.31465500  1
  O  O9  1  0.25590900  0.85569700  0.18542900  1
  O  O10  1  0.74413200  0.14417400  0.81455000  1
  O  O11  1  0.75633800  0.64427000  0.68550100  1
loop_
_geom_bond_atom_site_label_1
_geom_bond_atom_site_label_2
_geom_bond_distance
_geom_bond_site_symmetry_2
C0 O10 1.272761 1_455
C0 O0 1.286412 1_555
C0 O4 1.312973 1_555
C1 O8 1.272453 1_555
C1 O2 1.286192 1_555
C1 O6 1.313538 1_555
C2 O11 1.273188 1_555
C2 O1 1.286237 1_555
C2 O5 1.312741 1_555
C3 O9 1.272915 1_655
C3 O3 1.286894 1_555
C3 O7 1.312289 1_555
O0 V1 1.962784 1_455
O1 V0 1.961369 1_565
O2 V0 1.961867 1_554
O3 V1 1.961908 1_555
O4 V0 1.884187 1_555
O5 V1 1.886047 1_455
O6 V1 1.885144 1_555
O7 V0 1.886948 1_564
O8 V1 2.018559 1_455
O9 V0 2.018984 1_564
O10 V0 2.018607 1_555
O11 V1 2.016928 1_555
