# generated using pymatgen
data_LiFeSiO4
_symmetry_space_group_name_H-M   'P 1'
_cell_length_a   8.76516427
_cell_length_b   8.76516427
_cell_length_c   8.15492800
_cell_angle_alpha   90.00000000
_cell_angle_beta   90.00000000
_cell_angle_gamma   120.00000201
_symmetry_Int_Tables_number   1
_chemical_formula_structural   LiFeSiO4
_chemical_formula_sum   'Li6 Fe6 Si6 O24'
_cell_volume   542.58886007
_cell_formula_units_Z   6
loop_
 _symmetry_equiv_pos_site_id
 _symmetry_equiv_pos_as_xyz
  1  'x, y, z'
loop_
 _atom_site_type_symbol
 _atom_site_label
 _atom_site_symmetry_multiplicity
 _atom_site_fract_x
 _atom_site_fract_y
 _atom_site_fract_z
 _atom_site_occupancy
  Li  Li0  1  0.33333300  0.66666700  0.25296600  1
  Li  Li1  1  0.33333300  0.66666700  0.66164200  1
  Li  Li2  1  0.00000000  0.00000000  0.06837400  1
  Li  Li3  1  0.00000000  0.00000000  0.56837400  1
  Li  Li4  1  0.66666700  0.33333300  0.75296600  1
  Li  Li5  1  0.66666700  0.33333300  0.16164200  1
  Fe  Fe0  1  0.04408700  0.68638800  0.00744700  1
  Fe  Fe1  1  0.31361200  0.35769900  0.00744700  1
  Fe  Fe2  1  0.64230100  0.95591300  0.00744700  1
  Fe  Fe3  1  0.35769900  0.04408700  0.50744700  1
  Fe  Fe4  1  0.68638800  0.64230100  0.50744700  1
  Fe  Fe5  1  0.95591300  0.31361200  0.50744700  1
  Si  Si0  1  0.04132900  0.68844500  0.39586800  1
  Si  Si1  1  0.31155500  0.35288400  0.39586800  1
  Si  Si2  1  0.64711600  0.95867100  0.39586800  1
  Si  Si3  1  0.35288400  0.04132900  0.89586800  1
  Si  Si4  1  0.68844500  0.64711600  0.89586800  1
  Si  Si5  1  0.95867100  0.31155500  0.89586800  1
  O  O0  1  0.11049700  0.87508200  0.49593600  1
  O  O1  1  0.14722700  0.73268800  0.21927700  1
  O  O2  1  0.23956500  0.82628000  0.86816200  1
  O  O3  1  0.09914400  0.56176200  0.49716600  1
  O  O4  1  0.46261700  0.90085600  0.49716600  1
  O  O5  1  0.12491800  0.23541400  0.49593600  1
  O  O6  1  0.17372000  0.41328400  0.86816200  1
  O  O7  1  0.26731200  0.41453900  0.21927700  1
  O  O8  1  0.23541400  0.11049700  0.99593600  1
  O  O9  1  0.58546100  0.85277300  0.21927700  1
  O  O10  1  0.58671600  0.76043500  0.86816200  1
  O  O11  1  0.43823800  0.53738300  0.49716600  1
  O  O12  1  0.56176200  0.46261700  0.99716600  1
  O  O13  1  0.41328400  0.23956500  0.36816200  1
  O  O14  1  0.41453900  0.14722700  0.71927700  1
  O  O15  1  0.76458600  0.88950300  0.49593600  1
  O  O16  1  0.73268800  0.58546100  0.71927700  1
  O  O17  1  0.82628000  0.58671600  0.36816200  1
  O  O18  1  0.87508200  0.76458600  0.99593600  1
  O  O19  1  0.53738300  0.09914400  0.99716600  1
  O  O20  1  0.90085600  0.43823800  0.99716600  1
  O  O21  1  0.76043500  0.17372000  0.36816200  1
  O  O22  1  0.85277300  0.26731200  0.71927700  1
  O  O23  1  0.88950300  0.12491800  0.99593600  1
loop_
_geom_bond_atom_site_label_1
_geom_bond_atom_site_label_2
_geom_bond_distance
_geom_bond_site_symmetry_2
Li0 O1 2.003824 1_555
Li0 O9 2.003830 1_555
Li0 O7 2.003832 1_555
Li1 O4 2.229501 1_555
Li1 O3 2.229501 1_555
Li1 O11 2.229501 1_555
Li1 O2 2.572749 1_555
Li1 O6 2.572760 1_555
Li1 O10 2.572761 1_555
Li2 O8 1.883162 1_554
Li2 O18 1.883162 1_444
Li2 O23 1.883169 1_454
Li3 O15 1.883162 1_445
Li3 O5 1.883162 1_555
Li3 O0 1.883169 1_545
Li4 O22 2.003824 1_555
Li4 O14 2.003830 1_555
Li4 O16 2.003832 1_555
Li5 O19 2.229501 1_554
Li5 O20 2.229501 1_554
Li5 O12 2.229501 1_554
Li5 O21 2.572749 1_555
Li5 O17 2.572760 1_555
Li5 O13 2.572761 1_555
Fe0 O20 1.892997 1_454
Fe0 O1 1.897159 1_555
Fe0 O2 1.904859 1_554
Fe0 O18 1.920515 1_454
Fe1 O12 1.892997 1_554
Fe1 O7 1.897159 1_555
Fe1 O6 1.904854 1_554
Fe1 O8 1.920506 1_554
Fe2 O19 1.892990 1_564
Fe2 O9 1.897159 1_555
Fe2 O10 1.904860 1_554
Fe2 O23 1.920508 1_564
Fe3 O4 1.892990 1_545
Fe3 O14 1.897159 1_555
Fe3 O13 1.904860 1_555
Fe3 O0 1.920508 1_545
Fe4 O11 1.892997 1_555
Fe4 O16 1.897159 1_555
Fe4 O17 1.904854 1_555
Fe4 O15 1.920506 1_555
Fe5 O3 1.892997 1_655
Fe5 O22 1.897159 1_555
Fe5 O21 1.904859 1_555
Fe5 O5 1.920515 1_655
O0 Si0 1.648599 1_555
O1 Si0 1.651017 1_555
O2 Si3 1.648750 1_565
O3 Si0 1.653751 1_555
O4 Si2 1.653758 1_555
O5 Si1 1.648600 1_555
O6 Si5 1.648750 1_455
O7 Si1 1.651017 1_555
O8 Si3 1.648606 1_555
O9 Si2 1.651017 1_555
O10 Si4 1.648743 1_555
O11 Si1 1.653757 1_555
O12 Si4 1.653757 1_555
O13 Si1 1.648743 1_555
O14 Si3 1.651017 1_555
O15 Si2 1.648606 1_555
O16 Si4 1.651017 1_555
O17 Si0 1.648750 1_655
O18 Si4 1.648600 1_555
O19 Si3 1.653758 1_555
O20 Si5 1.653751 1_555
O21 Si2 1.648750 1_545
O22 Si5 1.651017 1_555
O23 Si5 1.648599 1_555
