# generated using pymatgen
data_TmCrO3
_symmetry_space_group_name_H-M   'P 1'
_cell_length_a   5.16618224
_cell_length_b   5.50964451
_cell_length_c   7.48369507
_cell_angle_alpha   90.00000000
_cell_angle_beta   90.00000000
_cell_angle_gamma   90.00000000
_symmetry_Int_Tables_number   1
_chemical_formula_structural   TmCrO3
_chemical_formula_sum   'Tm4 Cr4 O12'
_cell_volume   213.01460641
_cell_formula_units_Z   4
loop_
 _symmetry_equiv_pos_site_id
 _symmetry_equiv_pos_as_xyz
  1  'x, y, z'
loop_
 _atom_site_type_symbol
 _atom_site_label
 _atom_site_symmetry_multiplicity
 _atom_site_fract_x
 _atom_site_fract_y
 _atom_site_fract_z
 _atom_site_occupancy
  Tm  Tm0  1  0.52145666  0.57276904  0.25000000  1
  Tm  Tm1  1  0.97854334  0.07276904  0.25000000  1
  Tm  Tm2  1  0.47854334  0.42723096  0.75000000  1
  Tm  Tm3  1  0.02145666  0.92723096  0.75000000  1
  Cr  Cr0  1  -0.00000000  0.50000000  -0.00000000  1
  Cr  Cr1  1  0.50000000  -0.00000000  0.50000000  1
  Cr  Cr2  1  -0.00000000  0.50000000  0.50000000  1
  Cr  Cr3  1  0.50000000  -0.00000000  -0.00000000  1
  O  O0  1  0.38199872  0.95753258  0.25000000  1
  O  O1  1  0.11800128  0.45753258  0.25000000  1
  O  O2  1  0.61800128  0.04246742  0.75000000  1
  O  O3  1  0.88199872  0.54246742  0.75000000  1
  O  O4  1  0.81120601  0.80540930  0.05981025  1
  O  O5  1  0.68879399  0.30540930  0.44018975  1
  O  O6  1  0.18879399  0.19459070  0.55981025  1
  O  O7  1  0.31120601  0.69459070  0.94018975  1
  O  O8  1  0.18879399  0.19459070  0.94018975  1
  O  O9  1  0.31120601  0.69459070  0.55981025  1
  O  O10  1  0.81120601  0.80540930  0.44018975  1
  O  O11  1  0.68879399  0.30540930  0.05981025  1
loop_
_geom_bond_atom_site_label_1
_geom_bond_atom_site_label_2
_geom_bond_distance
_geom_bond_site_symmetry_2
Cr0 O3 1.981599 1_454
Cr0 O1 1.981599 1_555
Cr0 O7 1.983595 1_554
Cr0 O11 1.983595 1_455
Cr0 O8 1.995773 1_554
Cr0 O4 1.995773 1_455
Cr1 O0 1.981599 1_545
Cr1 O2 1.981599 1_555
Cr1 O10 1.983595 1_545
Cr1 O6 1.983595 1_555
Cr1 O9 1.995773 1_545
Cr1 O5 1.995773 1_555
Cr2 O3 1.981599 1_455
Cr2 O1 1.981599 1_555
Cr2 O9 1.983595 1_555
Cr2 O5 1.983595 1_455
Cr2 O10 1.995773 1_455
Cr2 O6 1.995773 1_555
Cr3 O2 1.981599 1_554
Cr3 O0 1.981599 1_545
Cr3 O4 1.983595 1_545
Cr3 O8 1.983595 1_554
Cr3 O7 1.995773 1_544
Cr3 O11 1.995773 1_555
O0 Tm1 2.178880 1_465
O0 Tm0 2.238993 1_555
O1 Tm0 2.178880 1_555
O1 Tm1 2.238993 1_455
O2 Tm3 2.178880 1_645
O2 Tm2 2.238993 1_555
O3 Tm2 2.178880 1_555
O3 Tm3 2.238993 1_655
O4 Tm1 2.223307 1_565
O4 Tm0 2.430940 1_555
O4 Tm3 2.646862 1_654
O5 Tm0 2.223307 1_555
O5 Tm1 2.430940 1_555
O5 Tm2 2.646862 1_555
O6 Tm3 2.223307 1_545
O6 Tm2 2.430940 1_555
O6 Tm1 2.646862 1_455
O7 Tm2 2.223307 1_555
O7 Tm3 2.430940 1_555
O7 Tm0 2.646862 1_556
O8 Tm3 2.223307 1_545
O8 Tm2 2.430940 1_555
O8 Tm1 2.646862 1_456
O9 Tm2 2.223307 1_555
O9 Tm3 2.430940 1_555
O9 Tm0 2.646862 1_555
O10 Tm1 2.223307 1_565
O10 Tm0 2.430940 1_555
O10 Tm3 2.646862 1_655
O11 Tm0 2.223307 1_555
O11 Tm1 2.430940 1_555
O11 Tm2 2.646862 1_554
