# generated using pymatgen
data_SrNb3NO7
_symmetry_space_group_name_H-M   'P 1'
_cell_length_a   10.60096583
_cell_length_b   10.60096583
_cell_length_c   9.00618518
_cell_angle_alpha   89.58845252
_cell_angle_beta   89.58845252
_cell_angle_gamma   20.83694659
_symmetry_Int_Tables_number   1
_chemical_formula_structural   SrNb3NO7
_chemical_formula_sum   'Sr2 Nb6 N2 O14'
_cell_volume   360.01108166
_cell_formula_units_Z   2
loop_
 _symmetry_equiv_pos_site_id
 _symmetry_equiv_pos_as_xyz
  1  'x, y, z'
loop_
 _atom_site_type_symbol
 _atom_site_label
 _atom_site_symmetry_multiplicity
 _atom_site_fract_x
 _atom_site_fract_y
 _atom_site_fract_z
 _atom_site_occupancy
  Sr  Sr0  1  0.97955900  0.97956000  0.75086200  1
  Sr  Sr1  1  0.01608100  0.01608100  0.24999600  1
  Nb  Nb0  1  0.62529600  0.62529600  0.93844100  1
  Nb  Nb1  1  0.24089100  0.24089100  0.75065800  1
  Nb  Nb2  1  0.63296100  0.63296100  0.54421400  1
  Nb  Nb3  1  0.37498400  0.37498400  0.43770000  1
  Nb  Nb4  1  0.76486100  0.76486100  0.23134100  1
  Nb  Nb5  1  0.37482200  0.37482200  0.06447100  1
  N  N0  1  0.42603100  0.42603100  0.25373800  1
  N  N1  1  0.84320800  0.84320800  0.09381800  1
  O  O0  1  0.43858400  0.43858400  0.92014400  1
  O  O1  1  0.14947700  0.14947700  0.91258600  1
  O  O2  1  0.29682300  0.29682300  0.90363200  1
  O  O3  1  0.70809400  0.70809400  0.74960500  1
  O  O4  1  0.57363500  0.57363500  0.75621000  1
  O  O5  1  0.29463600  0.29463600  0.59244500  1
  O  O6  1  0.14671300  0.14671300  0.59748300  1
  O  O7  1  0.43686800  0.43686800  0.58441500  1
  O  O8  1  0.56338200  0.56338200  0.42067700  1
  O  O9  1  0.84755100  0.84755100  0.41469200  1
  O  O10  1  0.70136500  0.70136500  0.40735400  1
  O  O11  1  0.28557600  0.28557600  0.26546200  1
  O  O12  1  0.70029100  0.70029100  0.09197800  1
  O  O13  1  0.56169200  0.56169200  0.07881400  1
loop_
_geom_bond_atom_site_label_1
_geom_bond_atom_site_label_2
_geom_bond_distance
_geom_bond_site_symmetry_2
Nb0 O13 1.825605 1_556
Nb0 O4 1.969736 1_555
Nb0 O1 1.995443 1_565
Nb0 O1 1.995443 1_655
Nb0 O12 2.095046 1_556
Nb0 O3 2.414620 1_555
Nb1 O5 1.806376 1_555
Nb1 O2 1.811588 1_555
Nb1 O3 2.035420 1_455
Nb1 O3 2.035420 1_545
Nb1 O1 2.391608 1_555
Nb1 O6 2.408174 1_555
Nb2 O8 1.834810 1_555
Nb2 O10 1.878342 1_555
Nb2 O6 1.997358 1_565
Nb2 O6 1.997358 1_655
Nb2 O4 2.267426 1_555
Nb2 O3 2.432819 1_555
Nb3 O7 1.853661 1_555
Nb3 O9 2.011701 1_545
Nb3 O9 2.011701 1_455
Nb3 O5 2.171477 1_555
Nb3 O11 2.434001 1_555
Nb4 O12 1.847411 1_555
Nb4 O11 1.989472 1_655
Nb4 O11 1.989472 1_565
Nb4 O10 2.057987 1_555
Nb4 O9 2.396145 1_555
Nb5 O0 1.852603 1_554
Nb5 O2 2.185883 1_554
Nb5 O11 2.586653 1_555
N0 Nb3 1.962720 1_555
N0 Nb5 2.018023 1_555
N0 Sr1 2.683509 1_565
N0 Sr1 2.683509 1_655
N1 Nb4 2.042918 1_555
N1 Nb5 2.043754 1_565
N1 Nb5 2.043754 1_655
O0 Sr0 2.590449 1_545
O0 Sr0 2.590452 1_455
O4 Sr0 2.743536 1_545
O4 Sr0 2.743539 1_455
O7 Sr0 2.595028 1_545
O7 Sr0 2.595031 1_455
O8 Sr1 2.651978 1_565
O8 Sr1 2.651978 1_655
O13 Sr1 2.633446 1_655
O13 Sr1 2.633446 1_565
