# generated using pymatgen
data_Na2TeW2O9
_symmetry_space_group_name_H-M   'P 1'
_cell_length_a   7.44680698
_cell_length_b   13.27904672
_cell_length_c   17.22228077
_cell_angle_alpha   108.18442605
_cell_angle_beta   102.48575550
_cell_angle_gamma   90.00000000
_symmetry_Int_Tables_number   1
_chemical_formula_structural   Na2TeW2O9
_chemical_formula_sum   'Na16 Te8 W16 O72'
_cell_volume   1575.54500733
_cell_formula_units_Z   8
loop_
 _symmetry_equiv_pos_site_id
 _symmetry_equiv_pos_as_xyz
  1  'x, y, z'
loop_
 _atom_site_type_symbol
 _atom_site_label
 _atom_site_symmetry_multiplicity
 _atom_site_fract_x
 _atom_site_fract_y
 _atom_site_fract_z
 _atom_site_occupancy
  Na  Na0  1  0.25489284  0.26425388  0.99093603  1
  Na  Na1  1  0.73604319  0.76425388  0.99093603  1
  Na  Na2  1  0.71224213  0.11832480  0.39647389  1
  Na  Na3  1  0.68423176  0.61832480  0.39647389  1
  Na  Na4  1  0.97692942  0.02857594  0.00050907  1
  Na  Na5  1  0.02357965  0.52857594  0.00050907  1
  Na  Na6  1  0.89574817  0.10649694  0.80631038  1
  Na  Na7  1  0.91056220  0.60649694  0.80631038  1
  Na  Na8  1  0.82411980  0.37110320  0.61903320  1
  Na  Na9  1  0.79491341  0.87110320  0.61903320  1
  Na  Na10  1  0.56261804  0.10565317  0.60973832  1
  Na  Na11  1  0.04712027  0.60565317  0.60973832  1
  Na  Na12  1  0.31646201  0.35391204  0.59910349  1
  Na  Na13  1  0.28264147  0.85391204  0.59910349  1
  Na  Na14  1  0.57511042  0.40549480  0.20136931  1
  Na  Na15  1  0.62625889  0.90549480  0.20136931  1
  Te  Te0  1  0.21509502  0.12405109  0.42311747  1
  Te  Te1  1  0.20802245  0.62405109  0.42311747  1
  Te  Te2  1  0.48809465  0.00688885  0.00477629  1
  Te  Te3  1  0.51668163  0.50688885  0.00477629  1
  Te  Te4  1  0.05333395  0.38818114  0.17240085  1
  Te  Te5  1  0.11906690  0.88818114  0.17240085  1
  Te  Te6  1  0.38408282  0.09245143  0.78507219  1
  Te  Te7  1  0.40098937  0.59245143  0.78507219  1
  W  W0  1  0.65269027  0.33520213  0.78420285  1
  W  W1  1  0.13151258  0.83520213  0.78420285  1
  W  W2  1  0.14963944  0.34148627  0.80229246  1
  W  W3  1  0.65265302  0.84148627  0.80229246  1
  W  W4  1  0.75619897  0.27988139  0.99667826  1
  W  W5  1  0.24047928  0.77988139  0.99667826  1
  W  W6  1  0.02553341  0.10501194  0.60428406  1
  W  W7  1  0.57875064  0.60501194  0.60428406  1
  W  W8  1  0.82357275  0.16720908  0.19719872  1
  W  W9  1  0.37362597  0.66720908  0.19719872  1
  W  W10  1  0.95418466  0.86130956  0.41318016  1
  W  W11  1  0.45899549  0.36130956  0.41318016  1
  W  W12  1  0.46876062  0.86649674  0.42252247  1
  W  W13  1  0.95376186  0.36649674  0.42252247  1
  W  W14  1  0.32929432  0.16101040  0.18950626  1
  W  W15  1  0.86021194  0.66101040  0.18950626  1
  O  O0  1  0.72033648  0.47534223  0.81915765  1
  O  O1  1  0.09882117  0.97534223  0.81915765  1
  O  O2  1  0.59804236  0.30318088  0.67075998  1
  O  O3  1  0.07271762  0.80318088  0.67075998  1
  O  O4  1  0.90040530  0.28599350  0.79361828  1
  O  O5  1  0.89321298  0.78599350  0.79361828  1
  O  O6  1  0.40506241  0.36211552  0.79914148  1
  O  O7  1  0.39407906  0.86211552  0.79914148  1
  O  O8  1  0.71538738  0.34875026  0.91726148  1
  O  O9  1  0.20187410  0.84875026  0.91726148  1
  O  O10  1  0.58104375  0.17701923  0.77491245  1
  O  O11  1  0.19386869  0.67701923  0.77491245  1
  O  O12  1  0.19870040  0.40669268  0.91740144  1
  O  O13  1  0.71870105  0.90669268  0.91740144  1
  O  O14  1  0.07974728  0.45011981  0.76278421  1
  O  O15  1  0.68303692  0.95011981  0.76278421  1
  O  O16  1  0.22318057  0.19743247  0.82638537  1
  O  O17  1  0.60320480  0.69743247  0.82638537  1
  O  O18  1  0.11565175  0.24302024  0.67775418  1
  O  O19  1  0.56210243  0.74302024  0.67775418  1
  O  O20  1  0.55380766  0.18910816  0.96930484  1
  O  O21  1  0.41549718  0.68910816  0.96930484  1
  O  O22  1  0.92181271  0.18699711  0.96067231  1
  O  O23  1  0.03885960  0.68699711  0.96067231  1
  O  O24  1  0.84002370  0.28253006  0.12561273  1
  O  O25  1  0.28558903  0.78253006  0.12561273  1
  O  O26  1  0.98726653  0.39955963  0.06314237  1
  O  O27  1  0.07587584  0.89955963  0.06314237  1
  O  O28  1  0.57811371  0.39897138  0.05613406  1
  O  O29  1  0.47802035  0.89897138  0.05613406  1
  O  O30  1  0.89123612  0.06406189  0.66583565  1
  O  O31  1  0.77459953  0.56406189  0.66583565  1
  O  O32  1  0.84188119  0.14493182  0.53654014  1
  O  O33  1  0.69465895  0.64493182  0.53654014  1
  O  O34  1  0.23088364  0.12106836  0.53400830  1
  O  O35  1  0.30312466  0.62106836  0.53400830  1
  O  O36  1  0.99344648  0.94669357  0.52652189  1
  O  O37  1  0.53307541  0.44669357  0.52652189  1
  O  O38  1  0.27466483  0.04552952  0.66729771  1
  O  O39  1  0.39263288  0.54552952  0.66729771  1
  O  O40  1  0.80433423  0.07127398  0.24765234  1
  O  O41  1  0.44331811  0.57127398  0.24765234  1
  O  O42  1  0.92675888  0.28682718  0.28572740  1
  O  O43  1  0.35896852  0.78682718  0.28572740  1
  O  O44  1  0.57845257  0.21654360  0.19536704  1
  O  O45  1  0.61691447  0.71654360  0.19536704  1
  O  O46  1  0.06553673  0.12924521  0.16900964  1
  O  O47  1  0.10347291  0.62924521  0.16900964  1
  O  O48  1  0.72118449  0.06825990  0.07862809  1
  O  O49  1  0.35744360  0.56825990  0.07862809  1
  O  O50  1  0.88187211  0.95935433  0.36426715  1
  O  O51  1  0.48239504  0.45935433  0.36426715  1
  O  O52  1  0.21066923  0.88617839  0.41605124  1
  O  O53  1  0.20538201  0.38617839  0.41605124  1
  O  O54  1  0.70583269  0.80618728  0.40494560  1
  O  O55  1  0.69911291  0.30618728  0.40494560  1
  O  O56  1  0.95124334  0.74802845  0.29969750  1
  O  O57  1  0.34845416  0.24802845  0.29969750  1
  O  O58  1  0.04501008  0.73133127  0.45856176  1
  O  O59  1  0.41355168  0.23133127  0.45856176  1
  O  O60  1  0.50629700  0.98559414  0.39690063  1
  O  O61  1  0.89060364  0.48559414  0.39690063  1
  O  O62  1  0.53343219  0.91499927  0.53627662  1
  O  O63  1  0.00284443  0.41499927  0.53627662  1
  O  O64  1  0.40544456  0.71251858  0.42042129  1
  O  O65  1  0.01497673  0.21251858  0.42042129  1
  O  O66  1  0.39343458  0.04079964  0.21243576  1
  O  O67  1  0.81900118  0.54079964  0.21243576  1
  O  O68  1  0.31752605  0.09753310  0.06416144  1
  O  O69  1  0.74663539  0.59753310  0.06416144  1
  O  O70  1  0.24918363  0.29943258  0.14912425  1
  O  O71  1  0.89994062  0.79943258  0.14912425  1
loop_
_geom_bond_atom_site_label_1
_geom_bond_atom_site_label_2
_geom_bond_distance
_geom_bond_site_symmetry_2
Na0 O20 2.493183 1_555
Na0 O22 2.565870 1_455
Na0 O12 2.573421 1_555
Na0 O70 2.626390 1_556
Na0 O16 2.648665 1_555
Na0 O28 2.798599 1_556
Na0 O68 2.863134 1_556
Na0 O26 2.902350 1_456
Na1 O21 2.493183 1_555
Na1 O23 2.565870 1_655
Na1 O13 2.573421 1_555
Na1 O71 2.626390 1_556
Na1 O17 2.648665 1_555
Na1 O29 2.798599 1_556
Na1 O69 2.863134 1_556
Na1 O27 2.902350 1_656
Na2 O32 2.310175 1_555
Na2 O60 2.339141 1_545
Na2 O50 2.435509 1_545
Na2 O55 2.456225 1_555
Na2 O65 2.468389 1_655
Na2 O40 2.681494 1_555
Na2 O59 2.893028 1_555
Na3 O33 2.310175 1_555
Na3 O61 2.339141 1_555
Na3 O51 2.435509 1_555
Na3 O54 2.456225 1_555
Na3 O64 2.468389 1_555
Na3 O41 2.681494 1_555
Na3 O58 2.893028 1_655
Na4 O27 2.334817 1_645
Na4 O13 2.393742 1_544
Na4 O22 2.417380 1_554
Na4 O48 2.525909 1_555
Na4 O68 2.577702 1_655
Na4 O46 2.719291 1_655
Na5 O26 2.334817 1_455
Na5 O12 2.393742 1_554
Na5 O23 2.417380 1_554
Na5 O49 2.525909 1_555
Na5 O69 2.577702 1_455
Na5 O47 2.719291 1_555
Na6 O30 2.299046 1_555
Na6 O1 2.337709 1_645
Na6 O15 2.428594 1_545
Na6 O4 2.461449 1_555
Na6 O22 2.500191 1_555
Na6 O10 2.535682 1_555
Na6 O16 2.626408 1_655
Na7 O31 2.299046 1_555
Na7 O0 2.337709 1_555
Na7 O14 2.428594 1_655
Na7 O5 2.461449 1_555
Na7 O23 2.500191 1_655
Na7 O11 2.535682 1_655
Na7 O17 2.626408 1_555
Na8 O63 2.341206 1_655
Na8 O2 2.364633 1_555
Na8 O31 2.488083 1_555
Na8 O14 2.682300 1_655
Na8 O37 2.783611 1_555
Na8 O32 2.911020 1_555
Na8 O18 2.958537 1_655
Na9 O62 2.341206 1_555
Na9 O3 2.364633 1_655
Na9 O30 2.488083 1_565
Na9 O15 2.682300 1_555
Na9 O36 2.783611 1_555
Na9 O33 2.911020 1_555
Na9 O19 2.958537 1_555
Na10 O62 2.437075 1_545
Na10 O2 2.492724 1_555
Na10 O30 2.556901 1_555
Na10 O34 2.572766 1_555
Na10 O10 2.675389 1_555
Na10 O38 2.762494 1_555
Na10 O32 2.780298 1_555
Na11 O63 2.437075 1_555
Na11 O3 2.492724 1_555
Na11 O31 2.556901 1_455
Na11 O35 2.572766 1_555
Na11 O11 2.675389 1_555
Na11 O39 2.762494 1_555
Na11 O33 2.780298 1_455
Na12 O2 2.402843 1_555
Na12 O39 2.454036 1_555
Na12 O63 2.595819 1_555
Na12 O59 2.707119 1_555
Na12 O37 2.741467 1_555
Na12 O18 2.891394 1_555
Na12 O34 2.958145 1_555
Na13 O3 2.402843 1_555
Na13 O38 2.454036 1_565
Na13 O62 2.595819 1_555
Na13 O58 2.707119 1_555
Na13 O36 2.741467 1_455
Na13 O19 2.891394 1_555
Na13 O35 2.958146 1_555
Na14 O41 2.384897 1_555
Na14 O44 2.479127 1_555
Na14 O28 2.480598 1_555
Na14 O67 2.489925 1_555
Na14 O70 2.636065 1_555
Na14 O24 2.836100 1_555
Na14 O51 2.905870 1_555
Na15 O40 2.384897 1_565
Na15 O45 2.479127 1_555
Na15 O29 2.480598 1_555
Na15 O66 2.489925 1_565
Na15 O71 2.636065 1_555
Na15 O25 2.836100 1_555
Na15 O50 2.905870 1_555
O0 W0 1.802460 1_555
O1 W1 1.802460 1_555
O2 W0 1.816928 1_555
O3 W1 1.816928 1_555
O4 W0 1.947548 1_555
O4 W2 1.954855 1_655
O5 W1 1.947548 1_655
O5 W3 1.954855 1_555
O6 W0 1.934461 1_555
O6 W2 1.936447 1_555
O7 W1 1.934461 1_555
O7 W3 1.936447 1_555
O8 W4 1.844009 1_555
O8 W0 2.186714 1_555
O9 W5 1.844009 1_555
O9 W1 2.186714 1_555
O10 Te6 1.917448 1_555
O10 W0 2.115599 1_555
O11 Te7 1.917448 1_555
O11 W1 2.115599 1_555
O12 W2 1.851682 1_555
O12 Te3 2.617526 1_556
O13 W3 1.851682 1_555
O13 Te2 2.617526 1_566
O14 W2 1.809509 1_555
O15 W3 1.809509 1_555
O16 Te6 1.906532 1_555
O16 W2 2.128007 1_555
O17 Te7 1.906532 1_555
O17 W3 2.128007 1_555
O18 W6 1.896157 1_555
O18 W2 2.094967 1_555
O19 W7 1.896157 1_555
O19 W3 2.094967 1_555
O20 W4 1.812414 1_555
O21 W5 1.812414 1_555
O22 W4 1.811120 1_555
O23 W5 1.811120 1_555
O24 Te4 1.970222 1_655
O24 W4 2.161856 1_554
O24 W8 2.263562 1_555
O25 Te5 1.970222 1_555
O25 W5 2.161856 1_554
O25 W9 2.263562 1_555
O26 Te4 1.892819 1_655
O26 W4 2.193091 1_554
O27 Te5 1.892819 1_555
O27 W5 2.193091 1_554
O28 Te3 1.913476 1_555
O28 W4 2.210097 1_554
O29 Te2 1.913476 1_565
O29 W5 2.210097 1_554
O30 W6 1.799383 1_655
O31 W7 1.799383 1_555
O32 W6 1.791279 1_655
O33 W7 1.791279 1_555
O34 Te0 1.900743 1_555
O34 W6 2.193197 1_555
O35 Te1 1.900743 1_555
O35 W7 2.193197 1_555
O36 W10 1.884989 1_555
O36 W6 2.091583 1_665
O37 W11 1.884989 1_555
O37 W7 2.091583 1_555
O38 Te6 1.913868 1_555
O38 W6 2.215397 1_555
O39 Te7 1.913868 1_555
O39 W7 2.215397 1_555
O40 W8 1.772902 1_555
O41 W9 1.772902 1_555
O42 W8 1.849314 1_555
O42 W13 2.224757 1_555
O43 W9 1.849314 1_555
O43 W12 2.224757 1_555
O44 W8 1.936523 1_555
O44 W14 1.967024 1_555
O45 W9 1.936523 1_555
O45 W15 1.967024 1_555
O46 W14 1.941055 1_555
O46 W8 1.990481 1_455
O47 W15 1.941055 1_455
O47 W9 1.990481 1_555
O48 Te2 1.921774 1_555
O48 W8 2.032209 1_555
O49 Te3 1.921774 1_555
O49 W9 2.032209 1_555
O50 W10 1.784110 1_555
O51 W11 1.784110 1_555
O52 W12 1.923592 1_555
O52 W10 1.925756 1_455
O53 W13 1.923592 1_455
O53 W11 1.925756 1_555
O54 W10 1.948867 1_555
O54 W12 1.982299 1_555
O55 W11 1.948867 1_555
O55 W13 1.982299 1_555
O56 W15 1.863127 1_555
O56 W10 2.056595 1_555
O57 W14 1.863127 1_555
O57 W11 2.056595 1_555
O58 Te1 1.911360 1_555
O58 W10 2.158878 1_455
O59 Te0 1.911360 1_555
O59 W11 2.158878 1_555
O60 W12 1.806350 1_555
O61 W13 1.806350 1_555
O62 W12 1.813653 1_555
O63 W13 1.813653 1_455
O64 Te1 1.899256 1_555
O64 W12 2.085856 1_555
O65 Te0 1.899256 1_555
O65 W13 2.085856 1_455
O66 W14 1.801138 1_555
O66 Te5 2.697378 1_545
O67 W15 1.801138 1_555
O67 Te4 2.697378 1_655
O68 Te2 1.975240 1_555
O68 W14 2.039792 1_555
O69 Te3 1.975240 1_555
O69 W15 2.039792 1_555
O70 Te4 1.906457 1_555
O70 W14 2.199257 1_555
O71 Te5 1.906457 1_655
O71 W15 2.199257 1_555
