# generated using pymatgen
data_Li3V2(PO4)3
_symmetry_space_group_name_H-M   'P 1'
_cell_length_a   8.63614569
_cell_length_b   8.63614569
_cell_length_c   8.62726951
_cell_angle_alpha   61.63816522
_cell_angle_beta   61.63816522
_cell_angle_gamma   61.50638311
_symmetry_Int_Tables_number   1
_chemical_formula_structural   Li3V2(PO4)3
_chemical_formula_sum   'Li6 V4 P6 O24'
_cell_volume   471.25628761
_cell_formula_units_Z   2
loop_
 _symmetry_equiv_pos_site_id
 _symmetry_equiv_pos_as_xyz
  1  'x, y, z'
loop_
 _atom_site_type_symbol
 _atom_site_label
 _atom_site_symmetry_multiplicity
 _atom_site_fract_x
 _atom_site_fract_y
 _atom_site_fract_z
 _atom_site_occupancy
  Li  Li0  1  0.49460900  0.00334300  0.22190900  1
  Li  Li1  1  0.34911300  0.65088700  0.50000000  1
  Li  Li2  1  0.99665700  0.50539100  0.77809100  1
  Li  Li3  1  0.65396700  0.34603300  0.00000000  1
  Li  Li4  1  0.24634200  0.15767900  0.59583400  1
  Li  Li5  1  0.84232100  0.75365800  0.40416600  1
  V  V0  1  0.35483900  0.86187600  0.10779900  1
  V  V1  1  0.13812400  0.64516100  0.89220100  1
  V  V2  1  0.85460700  0.35465800  0.60427000  1
  V  V3  1  0.64534200  0.14539300  0.39573000  1
  P  P0  1  0.74874400  0.54940600  0.20124700  1
  P  P1  1  0.45059400  0.25125600  0.79875300  1
  P  P2  1  0.04658500  0.95341500  0.50000000  1
  P  P3  1  0.95784400  0.04215600  0.00000000  1
  P  P4  1  0.53745200  0.74929100  0.70637400  1
  P  P5  1  0.25070900  0.46254800  0.29362600  1
  O  O0  1  0.21119500  0.50193000  0.12288000  1
  O  O1  1  0.99173700  0.88362500  0.94380200  1
  O  O2  1  0.57959500  0.73228100  0.20126100  1
  O  O3  1  0.37942700  0.70195100  0.71974900  1
  O  O4  1  0.90740300  0.57200600  0.01276500  1
  O  O5  1  0.69559300  0.38885900  0.22978500  1
  O  O6  1  0.42799400  0.09259700  0.98723500  1
  O  O7  1  0.26771900  0.42040500  0.79873900  1
  O  O8  1  0.06744700  0.76051400  0.65391400  1
  O  O9  1  0.11637500  0.00826300  0.05619800  1
  O  O10  1  0.76449900  0.06491100  0.15938400  1
  O  O11  1  0.49807000  0.78880500  0.87712000  1
  O  O12  1  0.48677300  0.19211800  0.63756100  1
  O  O13  1  0.23948600  0.93255300  0.34608600  1
  O  O14  1  0.88828200  0.98719800  0.43902300  1
  O  O15  1  0.93508900  0.23550100  0.84061600  1
  O  O16  1  0.73041700  0.58869800  0.68273100  1
  O  O17  1  0.56611600  0.91124300  0.51851000  1
  O  O18  1  0.29804900  0.62057300  0.28025100  1
  O  O19  1  0.08875700  0.43388400  0.48149000  1
  O  O20  1  0.61114100  0.30440700  0.77021500  1
  O  O21  1  0.41130200  0.26958300  0.31726900  1
  O  O22  1  0.01280200  0.11171800  0.56097700  1
  O  O23  1  0.80788200  0.51322700  0.36243900  1
loop_
_geom_bond_atom_site_label_1
_geom_bond_atom_site_label_2
_geom_bond_distance
_geom_bond_site_symmetry_2
Li0 O6 2.055463 1_554
Li0 O2 2.164033 1_545
Li0 O13 2.190040 1_545
Li0 O10 2.392030 1_555
Li0 O21 2.477432 1_555
Li0 O17 2.580841 1_545
Li1 O8 2.122484 1_555
Li1 O13 2.122484 1_555
Li1 O3 2.287622 1_555
Li1 O18 2.287622 1_555
Li1 O2 2.416278 1_555
Li1 O7 2.416278 1_555
Li2 O4 2.055463 1_556
Li2 O7 2.164033 1_655
Li2 O8 2.190040 1_655
Li2 O15 2.392030 1_555
Li2 O16 2.477432 1_555
Li2 O19 2.580841 1_655
Li3 O10 2.135508 1_555
Li3 O15 2.135508 1_554
Li3 O5 2.386741 1_555
Li3 O20 2.386741 1_554
Li3 O21 2.544257 1_555
Li3 O16 2.544257 1_554
Li4 O19 2.111320 1_555
Li4 O21 2.143212 1_555
Li4 O22 2.401933 1_555
Li4 O12 2.435281 1_555
Li4 O15 2.523580 1_455
Li4 O17 2.567453 1_545
Li5 O17 2.111320 1_555
Li5 O16 2.143212 1_555
Li5 O14 2.401933 1_555
Li5 O23 2.435281 1_555
Li5 O10 2.523580 1_565
Li5 O19 2.567453 1_655
O0 P5 1.514240 1_555
O0 V1 1.999626 1_554
O1 P3 1.519418 1_566
O1 V1 1.972265 1_655
O2 P0 1.557882 1_555
O2 V0 2.056012 1_555
O3 P4 1.543003 1_555
O3 V1 2.032994 1_555
O4 P0 1.548064 1_555
O4 V1 2.014685 1_654
O5 P0 1.539240 1_555
O5 V3 2.019736 1_555
O6 P1 1.548064 1_555
O6 V0 2.014685 1_546
O7 P1 1.557882 1_555
O7 V1 2.056012 1_555
O8 P2 1.552485 1_555
O8 V1 2.063352 1_555
O9 P3 1.519418 1_455
O9 V0 1.972265 1_545
O10 P3 1.574719 1_555
O10 V3 2.090500 1_555
O11 P4 1.514240 1_555
O11 V0 1.999626 1_556
O12 P1 1.549863 1_555
O12 V3 1.987244 1_555
O13 P2 1.552485 1_555
O13 V0 2.063352 1_555
O14 P2 1.545254 1_655
O14 V3 1.983107 1_565
O15 P3 1.574719 1_556
O15 V2 2.090500 1_555
O16 P4 1.575710 1_555
O16 V2 2.058043 1_555
O17 P4 1.561985 1_555
O17 V3 2.067789 1_565
O18 P5 1.543003 1_555
O18 V0 2.032994 1_555
O19 P5 1.561985 1_555
O19 V2 2.067789 1_455
O20 P1 1.539240 1_555
O20 V2 2.019736 1_555
O21 P5 1.575710 1_555
O21 V3 2.058043 1_555
O22 P2 1.545254 1_545
O22 V2 1.983107 1_455
O23 P0 1.549863 1_555
O23 V2 1.987244 1_555
