# generated using pymatgen
data_La24Ni12O49
_symmetry_space_group_name_H-M   'P 1'
_cell_length_a   12.36736389
_cell_length_b   7.82218203
_cell_length_c   13.79091870
_cell_angle_alpha   73.50238562
_cell_angle_beta   68.96844161
_cell_angle_gamma   71.51856076
_symmetry_Int_Tables_number   1
_chemical_formula_structural   La24Ni12O49
_chemical_formula_sum   'La24 Ni12 O49'
_cell_volume   1158.99532622
_cell_formula_units_Z   1
loop_
 _symmetry_equiv_pos_site_id
 _symmetry_equiv_pos_as_xyz
  1  'x, y, z'
loop_
 _atom_site_type_symbol
 _atom_site_label
 _atom_site_symmetry_multiplicity
 _atom_site_fract_x
 _atom_site_fract_y
 _atom_site_fract_z
 _atom_site_occupancy
  La  La0  1  0.12382100  0.12116400  0.13711600  1
  La  La1  1  0.21402600  0.21858500  0.36205100  1
  La  La2  1  0.11937100  0.61994800  0.13757700  1
  La  La3  1  0.11765300  0.11963600  0.63789900  1
  La  La4  1  0.12216900  0.62372100  0.63737300  1
  La  La5  1  0.45599600  0.45587300  0.13617000  1
  La  La6  1  0.54708000  0.04085500  0.36321300  1
  La  La7  1  0.20997300  0.21105300  0.86053200  1
  La  La8  1  0.21291600  0.71079400  0.36157800  1
  La  La9  1  0.54123800  0.55149000  0.36224200  1
  La  La10  1  0.21052000  0.71808000  0.86086800  1
  La  La11  1  0.55013000  0.04572000  0.85662500  1
  La  La12  1  0.45270400  0.95716500  0.13611900  1
  La  La13  1  0.78505500  0.28358800  0.13788500  1
  La  La14  1  0.45942600  0.45104600  0.63895600  1
  La  La15  1  0.78925500  0.79076500  0.13791500  1
  La  La16  1  0.45292000  0.95531400  0.64325500  1
  La  La17  1  0.78157800  0.28978000  0.63914200  1
  La  La18  1  0.88278900  0.37218400  0.36275600  1
  La  La19  1  0.54594900  0.54817800  0.85696600  1
  La  La20  1  0.88232600  0.38460300  0.86096900  1
  La  La21  1  0.87743900  0.88290900  0.36306900  1
  La  La22  1  0.78068400  0.78317700  0.64290100  1
  La  La23  1  0.88091600  0.87636600  0.86076700  1
  Ni  Ni0  1  0.99866500  0.99964700  0.00163600  1
  Ni  Ni1  1  0.99959900  0.49838000  0.00285600  1
  Ni  Ni2  1  0.99972000  0.99917600  0.50173700  1
  Ni  Ni3  1  0.99919900  0.50005400  0.50203700  1
  Ni  Ni4  1  0.33480000  0.33511900  0.99671300  1
  Ni  Ni5  1  0.66678900  0.16741000  0.99789600  1
  Ni  Ni6  1  0.33147700  0.83606300  0.99804300  1
  Ni  Ni7  1  0.33242900  0.33323300  0.50213600  1
  Ni  Ni8  1  0.66704700  0.16932100  0.49851900  1
  Ni  Ni9  1  0.33247600  0.83391200  0.50127800  1
  Ni  Ni10  1  0.66913700  0.66527900  0.99963100  1
  Ni  Ni11  1  0.66714900  0.66479100  0.49754500  1
  O  O0  1  0.05217900  0.06089400  0.32111400  1
  O  O1  1  0.00286400  0.25130200  0.49507000  1
  O  O2  1  0.16640000  0.41559400  0.00227200  1
  O  O3  1  0.27404200  0.26509400  0.17808800  1
  O  O4  1  0.06057500  0.06403800  0.82331500  1
  O  O5  1  0.06921500  0.55658200  0.32149500  1
  O  O6  1  0.16474100  0.41607800  0.50516500  1
  O  O7  1  0.32997800  0.08640600  0.49840900  1
  O  O8  1  0.49801100  0.24969000  0.00551000  1
  O  O9  1  0.33336800  0.58333300  0.00221900  1
  O  O10  1  0.00411200  0.74876200  0.49896100  1
  O  O11  1  0.16008100  0.91205500  0.01535100  1
  O  O12  1  0.05552400  0.55345200  0.82273300  1
  O  O13  1  0.38341500  0.39758400  0.32167600  1
  O  O14  1  0.28105300  0.78170500  0.17713700  1
  O  O15  1  0.27747200  0.27974900  0.67591500  1
  O  O16  1  0.60592900  0.11716900  0.17826300  1
  O  O17  1  0.50084800  0.24941800  0.49500600  1
  O  O18  1  0.33307500  0.58614300  0.49581400  1
  O  O19  1  0.16832300  0.91972700  0.49446900  1
  O  O20  1  0.83128600  0.08361700  0.00349200  1
  O  O21  1  0.50306400  0.75267300  0.99133300  1
  O  O22  1  0.00049600  0.75135100  0.99595400  1
  O  O23  1  0.33696300  0.08419600  0.99503200  1
  O  O24  1  0.60731800  0.17084900  0.66972800  1
  O  O25  1  0.26561700  0.77539500  0.67555400  1
  O  O26  1  0.60179400  0.59717400  0.17805500  1
  O  O27  1  0.39042300  0.40162700  0.82444200  1
  O  O28  1  0.73431800  0.20367600  0.32116800  1
  O  O29  1  0.39994900  0.88936500  0.32139100  1
  O  O30  1  0.66437600  0.91525900  0.00372600  1
  O  O31  1  0.99916600  0.24823900  0.00387400  1
  O  O32  1  0.49767800  0.75226700  0.50401000  1
  O  O33  1  0.67494100  0.42474400  0.47429300  1
  O  O34  1  0.83249800  0.07737300  0.50452700  1
  O  O35  1  0.82978400  0.57634600  0.01495600  1
  O  O36  1  0.34085900  0.91365200  0.82616000  1
  O  O37  1  0.72683300  0.21407700  0.82488800  1
  O  O38  1  0.71797900  0.74690400  0.32116700  1
  O  O39  1  0.94459700  0.44779400  0.17957200  1
  O  O40  1  0.61453200  0.54931500  0.66955400  1
  O  O41  1  0.66271000  0.91320200  0.50986800  1
  O  O42  1  0.57990900  0.83299300  0.75371400  1
  O  O43  1  0.66699100  0.41956700  0.99440700  1
  O  O44  1  0.83558900  0.58751300  0.49482800  1
  O  O45  1  0.93822000  0.43669300  0.67620700  1
  O  O46  1  0.93705800  0.92948800  0.17884700  1
  O  O47  1  0.77160700  0.70688800  0.82581000  1
  O  O48  1  0.95298100  0.94291100  0.67554600  1
loop_
_geom_bond_atom_site_label_1
_geom_bond_atom_site_label_2
_geom_bond_distance
_geom_bond_site_symmetry_2
La0 O0 2.327631 1_555
La0 O11 2.500184 1_545
La0 O2 2.583264 1_555
La0 O31 2.601087 1_455
La0 O23 2.646286 1_554
La0 O3 2.734818 1_555
La0 O14 2.793024 1_545
La0 O39 2.848043 1_455
La0 O46 2.943739 1_445
La1 O3 2.327042 1_555
La1 O7 2.559885 1_555
La1 O1 2.579739 1_555
La1 O19 2.606057 1_545
La1 O6 2.631467 1_555
La1 O13 2.690480 1_555
La1 O5 2.717992 1_555
La1 O29 2.893763 1_545
La1 O0 2.935750 1_555
La2 O5 2.327100 1_555
La2 O11 2.499671 1_555
La2 O2 2.588626 1_555
La2 O9 2.616880 1_555
La2 O22 2.644865 1_554
La2 O39 2.706431 1_455
La2 O46 2.769608 1_455
La2 O3 2.862855 1_555
La2 O14 2.945513 1_555
La3 O4 2.343806 1_555
La3 O6 2.597522 1_555
La3 O1 2.623725 1_555
La3 O7 2.624698 1_555
La3 O48 2.635604 1_445
La3 O19 2.645053 1_545
La3 O25 2.762774 1_545
La3 O45 2.787074 1_455
La3 O15 2.904534 1_555
La4 O12 2.343709 1_555
La4 O6 2.586571 1_555
La4 O10 2.601287 1_555
La4 O18 2.624118 1_555
La4 O19 2.647593 1_555
La4 O25 2.681775 1_555
La4 O48 2.744607 1_455
La4 O15 2.802696 1_555
La4 O45 2.897088 1_455
La5 O13 2.346749 1_555
La5 O8 2.562272 1_555
La5 O9 2.590910 1_555
La5 O43 2.625995 1_554
La5 O21 2.665900 1_554
La5 O26 2.679616 1_555
La5 O16 2.753022 1_555
La5 O14 2.817911 1_555
La5 O3 2.886233 1_555
La6 O16 2.338807 1_555
La6 O17 2.576567 1_555
La6 O32 2.602462 1_545
La6 O38 2.624279 1_545
La6 O7 2.643848 1_555
La6 O41 2.675120 1_545
La6 O29 2.748883 1_545
La6 O28 2.794125 1_555
La6 O13 2.924897 1_555
La7 O15 2.334472 1_555
La7 O36 2.438209 1_545
La7 O31 2.633646 1_456
La7 O23 2.636161 1_555
La7 O2 2.672969 1_556
La7 O4 2.713432 1_555
La7 O11 2.746388 1_546
La7 O12 2.787819 1_555
La7 O27 2.888060 1_555
La8 O14 2.333295 1_555
La8 O18 2.572338 1_555
La8 O10 2.582249 1_555
La8 O19 2.595785 1_555
La8 O6 2.649897 1_555
La8 O5 2.713322 1_555
La8 O13 2.721968 1_555
La8 O0 2.870472 1_565
La8 O29 2.880505 1_555
La9 O26 2.330116 1_555
La9 O33 2.455532 1_555
La9 O18 2.555724 1_555
La9 O17 2.611458 1_555
La9 O32 2.651548 1_555
La9 O29 2.699771 1_555
La9 O38 2.858843 1_555
La9 O13 2.868463 1_555
La9 O28 3.034877 1_555
La10 O25 2.343003 1_555
La10 O36 2.400313 1_555
La10 O22 2.580434 1_555
La10 O2 2.670807 1_556
La10 O9 2.676345 1_556
La10 O11 2.740838 1_556
La10 O4 2.782460 1_565
La10 O27 2.782501 1_555
La10 O12 2.877952 1_555
La11 O42 2.344420 1_545
La11 O24 2.408165 1_555
La11 O21 2.587607 1_545
La11 O23 2.625924 1_555
La11 O30 2.668450 1_546
La11 O8 2.726825 1_556
La11 O37 2.740856 1_555
La11 O27 2.879230 1_555
La12 O29 2.342767 1_555
La12 O8 2.557688 1_565
La12 O30 2.580557 1_555
La12 O23 2.611774 1_564
La12 O21 2.687608 1_554
La12 O14 2.693436 1_555
La12 O3 2.742005 1_565
La12 O16 2.864013 1_565
La12 O26 2.865714 1_555
La13 O28 2.320849 1_555
La13 O35 2.519776 1_555
La13 O20 2.554934 1_555
La13 O31 2.610998 1_555
La13 O43 2.659391 1_554
La13 O16 2.728273 1_555
La13 O26 2.794006 1_555
La13 O46 2.845597 1_545
La13 O39 2.951925 1_555
La14 O27 2.345602 1_555
La14 O24 2.411751 1_555
La14 O40 2.479652 1_555
La14 O32 2.612136 1_555
La14 O17 2.688307 1_555
La14 O18 2.727238 1_555
La14 O15 2.796330 1_555
La14 O33 2.806517 1_555
La14 O25 2.905228 1_555
La15 O38 2.319884 1_555
La15 O35 2.532198 1_555
La15 O20 2.570163 1_565
La15 O30 2.613932 1_555
La15 O22 2.629465 1_654
La15 O46 2.680210 1_555
La15 O39 2.804895 1_555
La15 O16 2.863599 1_565
La15 O26 2.966995 1_555
La16 O42 2.374709 1_555
La16 O36 2.387436 1_555
La16 O41 2.569174 1_555
La16 O32 2.632207 1_555
La16 O17 2.673413 1_565
La16 O7 2.716935 1_565
La16 O15 2.794277 1_565
La16 O25 2.918083 1_555
La16 O24 3.084299 1_565
La16 O40 3.170795 1_555
La17 O37 2.349193 1_555
La17 O40 2.401664 1_555
La17 O24 2.466526 1_555
La17 O34 2.617808 1_555
La17 O44 2.688983 1_555
La17 O1 2.728094 1_655
La17 O45 2.791173 1_555
La17 O33 2.815747 1_555
La17 O48 2.907093 1_545
La18 O39 2.316925 1_555
La18 O33 2.448231 1_555
La18 O1 2.550250 1_655
La18 O44 2.617467 1_555
La18 O34 2.646353 1_555
La18 O0 2.710010 1_655
La18 O28 2.856160 1_555
La18 O5 2.901837 1_655
La18 O38 3.028455 1_555
La19 O42 2.351521 1_555
La19 O40 2.412014 1_555
La19 O21 2.591132 1_555
La19 O43 2.616198 1_555
La19 O9 2.659835 1_556
La19 O8 2.699785 1_556
La19 O27 2.743016 1_555
La19 O37 2.875716 1_555
La20 O45 2.336885 1_555
La20 O47 2.461539 1_555
La20 O43 2.619155 1_555
La20 O31 2.642488 1_556
La20 O12 2.682913 1_655
La20 O20 2.688537 1_556
La20 O35 2.717017 1_556
La20 O4 2.798268 1_655
La20 O37 2.900858 1_555
La21 O46 2.330459 1_555
La21 O44 2.570464 1_555
La21 O34 2.607612 1_565
La21 O28 2.618680 1_565
La21 O10 2.648723 1_655
La21 O41 2.687319 1_555
La21 O0 2.737852 1_665
La21 O38 2.802172 1_555
La21 O5 2.913171 1_655
La22 O42 2.377808 1_555
La22 O47 2.390800 1_555
La22 O41 2.539656 1_555
La22 O34 2.628893 1_565
La22 O44 2.663553 1_555
La22 O10 2.746481 1_655
La22 O45 2.817787 1_555
La22 O48 3.000074 1_555
La22 O40 3.027061 1_555
La22 O24 3.142511 1_565
La23 O48 2.344139 1_555
La23 O47 2.405071 1_555
La23 O22 2.577958 1_655
La23 O30 2.680633 1_556
La23 O20 2.682052 1_566
La23 O35 2.751456 1_556
La23 O37 2.756326 1_565
La23 O12 2.792809 1_655
La23 O4 2.858721 1_665
Ni0 O11 1.954647 1_655
Ni0 O31 1.955520 1_565
Ni0 O20 1.956178 1_565
Ni0 O22 1.958606 1_654
Ni0 O46 2.240803 1_555
Ni0 O4 2.253255 1_664
Ni1 O35 1.950562 1_555
Ni1 O2 1.954233 1_655
Ni1 O31 1.954402 1_555
Ni1 O22 1.957284 1_654
Ni1 O39 2.234209 1_555
Ni1 O12 2.276503 1_654
Ni2 O34 1.951126 1_565
Ni2 O19 1.951413 1_655
Ni2 O10 1.953175 1_655
Ni2 O1 1.960231 1_665
Ni2 O48 2.200228 1_555
Ni2 O0 2.283520 1_665
Ni3 O44 1.949434 1_555
Ni3 O10 1.953573 1_655
Ni3 O6 1.954364 1_655
Ni3 O1 1.960739 1_655
Ni3 O45 2.201016 1_555
Ni3 O5 2.283551 1_655
Ni4 O8 1.951956 1_556
Ni4 O2 1.954803 1_556
Ni4 O9 1.958765 1_556
Ni4 O23 1.961074 1_555
Ni4 O27 2.177164 1_555
Ni4 O3 2.292384 1_556
Ni5 O8 1.952326 1_556
Ni5 O20 1.952664 1_556
Ni5 O43 1.960074 1_555
Ni5 O30 1.960391 1_546
Ni5 O37 2.186980 1_555
Ni5 O16 2.279644 1_556
Ni6 O23 1.951736 1_565
Ni6 O9 1.954224 1_556
Ni6 O11 1.955018 1_556
Ni6 O21 1.988219 1_555
Ni6 O36 2.242961 1_555
Ni6 O14 2.266291 1_556
Ni7 O17 1.949822 1_555
Ni7 O6 1.955436 1_555
Ni7 O7 1.955977 1_555
Ni7 O18 1.957786 1_555
Ni7 O15 2.195954 1_555
Ni7 O13 2.282110 1_555
Ni8 O33 1.958100 1_555
Ni8 O17 1.964056 1_555
Ni8 O34 1.966181 1_555
Ni8 O41 1.981171 1_545
Ni8 O24 2.208910 1_555
Ni8 O28 2.248197 1_555
Ni9 O32 1.948829 1_555
Ni9 O19 1.953952 1_555
Ni9 O7 1.954781 1_565
Ni9 O18 1.958414 1_555
Ni9 O25 2.204178 1_555
Ni9 O29 2.274055 1_555
Ni10 O43 1.952524 1_555
Ni10 O35 1.953850 1_556
Ni10 O30 1.953852 1_556
Ni10 O21 1.983172 1_555
Ni10 O47 2.257472 1_555
Ni10 O26 2.257875 1_556
Ni11 O33 1.960334 1_555
Ni11 O32 1.964759 1_555
Ni11 O44 1.965921 1_555
Ni11 O41 1.980106 1_555
Ni11 O40 2.216808 1_555
Ni11 O38 2.235061 1_555
