# generated using pymatgen
data_V2O3F
_symmetry_space_group_name_H-M   'P 1'
_cell_length_a   4.76531600
_cell_length_b   5.78467300
_cell_length_c   10.23254200
_cell_angle_alpha   90.00000000
_cell_angle_beta   90.00000000
_cell_angle_gamma   90.00000000
_symmetry_Int_Tables_number   1
_chemical_formula_structural   V2O3F
_chemical_formula_sum   'V8 O12 F4'
_cell_volume   282.06815307
_cell_formula_units_Z   4
loop_
 _symmetry_equiv_pos_site_id
 _symmetry_equiv_pos_as_xyz
  1  'x, y, z'
loop_
 _atom_site_type_symbol
 _atom_site_label
 _atom_site_symmetry_multiplicity
 _atom_site_fract_x
 _atom_site_fract_y
 _atom_site_fract_z
 _atom_site_occupancy
  V  V0  1  0.05614400  0.50587900  0.02543900  1
  V  V1  1  0.53928300  0.74352700  0.23240800  1
  V  V2  1  0.03928300  0.24352700  0.26759200  1
  V  V3  1  0.55614400  0.00587900  0.47456100  1
  V  V4  1  0.44385600  0.50587900  0.52543900  1
  V  V5  1  0.96071700  0.74352700  0.73240800  1
  V  V6  1  0.46071700  0.24352700  0.76759200  1
  V  V7  1  0.94385600  0.00587900  0.97456100  1
  O  O0  1  0.79185700  0.75184500  0.08255500  1
  O  O1  1  0.84152500  0.24820400  0.09381600  1
  O  O2  1  0.27025100  0.50022300  0.16729100  1
  O  O3  1  0.77025100  0.00022300  0.33270900  1
  O  O4  1  0.34152500  0.74820400  0.40618400  1
  O  O5  1  0.29185700  0.25184500  0.41744500  1
  O  O6  1  0.70814300  0.75184500  0.58255500  1
  O  O7  1  0.65847500  0.24820400  0.59381600  1
  O  O8  1  0.22974900  0.50022300  0.66729100  1
  O  O9  1  0.72974900  0.00022300  0.83270900  1
  O  O10  1  0.15847500  0.74820400  0.90618400  1
  O  O11  1  0.20814300  0.25184500  0.91744500  1
  F  F0  1  0.27331400  0.99435500  0.16730100  1
  F  F1  1  0.77331400  0.49435500  0.33269900  1
  F  F2  1  0.22668600  0.99435500  0.66730100  1
  F  F3  1  0.72668600  0.49435500  0.83269900  1
loop_
_geom_bond_atom_site_label_1
_geom_bond_atom_site_label_2
_geom_bond_distance
_geom_bond_site_symmetry_2
O0 V1 1.949923 1_555
O0 V7 1.976165 1_564
O0 V0 1.987999 1_655
O1 V7 1.921417 1_554
O1 V0 1.938375 1_655
O1 V2 2.012635 1_655
O2 V0 1.774522 1_555
O2 V1 2.017034 1_555
O2 V2 2.114165 1_555
O3 V3 1.774522 1_555
O3 V2 2.017034 1_655
O3 V1 2.114165 1_545
O4 V4 1.921417 1_555
O4 V3 1.938375 1_565
O4 V1 2.012635 1_555
O5 V2 1.949923 1_555
O5 V4 1.976165 1_555
O5 V3 1.987999 1_555
O6 V5 1.949923 1_555
O6 V3 1.976165 1_565
O6 V4 1.987999 1_555
O7 V3 1.921417 1_555
O7 V4 1.938375 1_555
O7 V6 2.012635 1_555
O8 V4 1.774522 1_555
O8 V5 2.017034 1_455
O8 V6 2.114165 1_555
O9 V7 1.774522 1_555
O9 V6 2.017034 1_555
O9 V5 2.114165 1_545
O10 V0 1.921417 1_556
O10 V7 1.938375 1_465
O10 V5 2.012635 1_455
O11 V6 1.949923 1_555
O11 V0 1.976165 1_556
O11 V7 1.987999 1_455
F0 V1 2.038501 1_555
F0 V2 2.091522 1_565
F0 V7 2.521687 1_464
F1 V2 2.038501 1_655
F1 V1 2.091522 1_555
F1 V4 2.521687 1_555
F2 V5 2.038501 1_455
F2 V6 2.091522 1_565
F2 V3 2.521687 1_565
F3 V6 2.038501 1_555
F3 V5 2.091522 1_555
F3 V0 2.521687 1_656
