# generated using pymatgen
data_Li4Cr3Co2Sn3O16
_symmetry_space_group_name_H-M   'P 1'
_cell_length_a   6.07585700
_cell_length_b   6.10061373
_cell_length_c   9.65567840
_cell_angle_alpha   89.76990300
_cell_angle_beta   90.77616531
_cell_angle_gamma   119.81735970
_symmetry_Int_Tables_number   1
_chemical_formula_structural   Li4Cr3Co2Sn3O16
_chemical_formula_sum   'Li4 Cr3 Co2 Sn3 O16'
_cell_volume   310.49088177
_cell_formula_units_Z   1
loop_
 _symmetry_equiv_pos_site_id
 _symmetry_equiv_pos_as_xyz
  1  'x, y, z'
loop_
 _atom_site_type_symbol
 _atom_site_label
 _atom_site_symmetry_multiplicity
 _atom_site_fract_x
 _atom_site_fract_y
 _atom_site_fract_z
 _atom_site_occupancy
  Li  Li0  1  0.66924800  0.34344100  0.89125600  1
  Li  Li1  1  0.98461200  0.97000100  0.99236000  1
  Li  Li2  1  0.98604300  0.97737400  0.50002000  1
  Li  Li3  1  0.33569100  0.67211100  0.39881300  1
  Cr  Cr0  1  0.83048200  0.66146800  0.21386000  1
  Cr  Cr1  1  0.17306900  0.83764600  0.71140800  1
  Cr  Cr2  1  0.65694600  0.82899000  0.71618300  1
  Co  Co0  1  0.67934300  0.33566700  0.48987100  1
  Co  Co1  1  0.33596600  0.67640700  0.98595200  1
  Sn  Sn0  1  0.33805100  0.16992200  0.21261000  1
  Sn  Sn1  1  0.83360200  0.17170800  0.21281000  1
  Sn  Sn2  1  0.16892200  0.33969000  0.71439000  1
  O  O0  1  0.31955100  0.14674700  0.60088000  1
  O  O1  1  0.52267300  0.04067300  0.34634000  1
  O  O2  1  0.67005800  0.34384500  0.09766500  1
  O  O3  1  0.99688100  0.99068300  0.31521300  1
  O  O4  1  0.99773100  0.99279700  0.80920900  1
  O  O5  1  0.82964200  0.15939300  0.59563300  1
  O  O6  1  0.52955200  0.48653400  0.34482700  1
  O  O7  1  0.96595100  0.49027300  0.34145600  1
  O  O8  1  0.15774600  0.31817100  0.09194900  1
  O  O9  1  0.84656900  0.66901800  0.61219100  1
  O  O10  1  0.04821400  0.54059600  0.84331500  1
  O  O11  1  0.48836000  0.53383600  0.84382100  1
  O  O12  1  0.33353900  0.67453100  0.60426700  1
  O  O13  1  0.16148300  0.83176900  0.09856000  1
  O  O14  1  0.47197100  0.96369600  0.82617700  1
  O  O15  1  0.66780300  0.83301400  0.09680400  1
loop_
_geom_bond_atom_site_label_1
_geom_bond_atom_site_label_2
_geom_bond_distance
_geom_bond_site_symmetry_2
Li0 O2 1.992967 1_556
Li0 O11 2.004605 1_555
Li0 O10 2.057406 1_655
Li0 O14 2.104368 1_545
Li1 O4 1.773110 1_555
Li1 O13 1.944727 1_656
Li1 O15 1.966391 1_556
Li1 O8 2.076010 1_666
Li2 O3 1.786574 1_555
Li2 O9 1.962942 1_555
Li2 O0 1.998645 1_665
Li2 O5 2.017363 1_565
Li3 O12 1.984181 1_555
Li3 O1 2.017193 1_565
Li3 O7 2.019143 1_455
Li3 O6 2.070832 1_555
Cr0 O3 1.995811 1_555
Cr0 O2 2.018181 1_555
Cr0 O7 2.025635 1_555
Cr0 O6 2.047548 1_555
Cr0 O13 2.082523 1_655
Cr0 O15 2.082932 1_555
Cr1 O14 1.918606 1_555
Cr1 O0 1.956404 1_565
Cr1 O9 1.959168 1_455
Cr1 O4 1.989925 1_455
Cr1 O12 2.002877 1_555
Cr1 O10 2.030319 1_555
Cr2 O4 1.997944 1_555
Cr2 O11 1.998126 1_555
Cr2 O14 2.006059 1_555
Cr2 O12 2.006513 1_555
Cr2 O5 2.104684 1_565
Cr2 O9 2.108424 1_555
Co0 O5 1.993926 1_555
Co0 O1 2.084754 1_555
Co0 O7 2.097388 1_555
Co0 O6 2.103551 1_555
Co0 O9 2.120128 1_555
Co0 O0 2.191807 1_555
Co1 O10 2.035528 1_555
Co1 O15 2.039019 1_556
Co1 O13 2.059904 1_556
Co1 O11 2.083781 1_555
Co1 O8 2.157523 1_556
Co1 O14 2.169600 1_555
O0 Sn2 2.129126 1_555
O1 Sn0 2.092735 1_555
O1 Sn1 2.103850 1_555
O2 Sn1 2.079592 1_555
O2 Sn0 2.085544 1_555
O3 Sn1 2.058073 1_565
O3 Sn0 2.065645 1_665
O4 Sn2 2.054230 1_665
O5 Sn2 2.113141 1_655
O6 Sn0 2.111638 1_555
O7 Sn1 2.098749 1_555
O8 Sn0 2.077917 1_555
O8 Sn1 2.083956 1_455
O10 Sn2 2.126192 1_555
O11 Sn2 2.095645 1_555
O12 Sn2 2.069617 1_555
O13 Sn0 2.098733 1_565
O15 Sn1 2.111128 1_565
