# generated using pymatgen
data_K3ErH9(C3O7)2
_symmetry_space_group_name_H-M   'P 1'
_cell_length_a   7.40412946
_cell_length_b   7.40412946
_cell_length_c   16.39668344
_cell_angle_alpha   87.70131409
_cell_angle_beta   87.70131409
_cell_angle_gamma   77.76105177
_symmetry_Int_Tables_number   1
_chemical_formula_structural   K3ErH9(C3O7)2
_chemical_formula_sum   'K6 Er2 H18 C12 O28'
_cell_volume   877.28814091
_cell_formula_units_Z   2
loop_
 _symmetry_equiv_pos_site_id
 _symmetry_equiv_pos_as_xyz
  1  'x, y, z'
loop_
 _atom_site_type_symbol
 _atom_site_label
 _atom_site_symmetry_multiplicity
 _atom_site_fract_x
 _atom_site_fract_y
 _atom_site_fract_z
 _atom_site_occupancy
  K  K0  1  0.38396200  0.85250200  0.74388200  1
  K  K1  1  0.85250200  0.38396200  0.24388200  1
  K  K2  1  0.31929800  0.43092200  0.37461800  1
  K  K3  1  0.43092200  0.31929800  0.87461800  1
  K  K4  1  0.88777300  0.05294100  0.66757600  1
  K  K5  1  0.05294100  0.88777300  0.16757600  1
  Er  Er0  1  0.51751800  0.96794800  0.50001000  1
  Er  Er1  1  0.96794800  0.51751800  0.00001000  1
  H  H0  1  0.14063000  0.67573800  0.55716000  1
  H  H1  1  0.67573800  0.14063000  0.05716000  1
  H  H2  1  0.71787100  0.51073700  0.52866100  1
  H  H3  1  0.51073700  0.71787100  0.02866100  1
  H  H4  1  0.21616000  0.87268800  0.34595300  1
  H  H5  1  0.87268800  0.21616000  0.84595300  1
  H  H6  1  0.95742200  0.77069700  0.44172900  1
  H  H7  1  0.77069700  0.95742200  0.94172900  1
  H  H8  1  0.93503400  0.25558100  0.44729100  1
  H  H9  1  0.25558100  0.93503400  0.94729100  1
  H  H10  1  0.33499600  0.38217600  0.64585400  1
  H  H11  1  0.38217600  0.33499600  0.14585400  1
  H  H12  1  0.55793700  0.69532700  0.32556100  1
  H  H13  1  0.69532700  0.55793700  0.82556100  1
  H  H14  1  0.51122000  0.70748500  0.23300400  1
  H  H15  1  0.70748500  0.51122000  0.73300400  1
  H  H16  1  0.97884500  0.58918100  0.72122600  1
  H  H17  1  0.58918100  0.97884500  0.22122600  1
  C  C0  1  0.24715300  0.75737600  0.54037100  1
  C  C1  1  0.75737600  0.24715300  0.04037100  1
  C  C2  1  0.74967100  0.57610300  0.58473300  1
  C  C3  1  0.57610300  0.74967100  0.08473300  1
  C  C4  1  0.23534300  0.01751500  0.33918400  1
  C  C5  1  0.01751500  0.23534300  0.83918400  1
  C  C6  1  0.87535900  0.73710400  0.39084000  1
  C  C7  1  0.73710400  0.87535900  0.89084000  1
  C  C8  1  0.80655100  0.19852600  0.44797000  1
  C  C9  1  0.19852600  0.80655100  0.94797000  1
  C  C10  1  0.39564300  0.26492300  0.60618800  1
  C  C11  1  0.26492300  0.39564300  0.10618800  1
  O  O0  1  0.36189000  0.70657300  0.48211600  1
  O  O1  1  0.70657300  0.36189000  0.98211600  1
  O  O2  1  0.25067100  0.89994700  0.58122500  1
  O  O3  1  0.89994700  0.25067100  0.08122500  1
  O  O4  1  0.68400800  0.74957200  0.58980700  1
  O  O5  1  0.74957200  0.68400800  0.08980700  1
  O  O6  1  0.84443800  0.47355200  0.63774500  1
  O  O7  1  0.47355200  0.84443800  0.13774500  1
  O  O8  1  0.34074600  0.06449100  0.39112600  1
  O  O9  1  0.06449100  0.34074600  0.89112600  1
  O  O10  1  0.15502100  0.12056000  0.28340600  1
  O  O11  1  0.12056000  0.15502100  0.78340600  1
  O  O12  1  0.69917700  0.79370800  0.39968300  1
  O  O13  1  0.79370800  0.69917700  0.89968300  1
  O  O14  1  0.96120900  0.64966400  0.33254300  1
  O  O15  1  0.64966400  0.96120900  0.83254300  1
  O  O16  1  0.78918500  0.08270600  0.50694100  1
  O  O17  1  0.08270600  0.78918500  0.00694100  1
  O  O18  1  0.69236400  0.24978700  0.39321100  1
  O  O19  1  0.24978700  0.69236400  0.89321100  1
  O  O20  1  0.50536100  0.12473100  0.63647800  1
  O  O21  1  0.12473100  0.50536100  0.13647800  1
  O  O22  1  0.35153800  0.27442500  0.53160500  1
  O  O23  1  0.27442500  0.35153800  0.03160500  1
  O  O24  1  0.51490600  0.62657300  0.28237300  1
  O  O25  1  0.62657300  0.51490600  0.78237300  1
  O  O26  1  0.06156600  0.67717500  0.72533000  1
  O  O27  1  0.67717500  0.06156600  0.22533000  1
loop_
_geom_bond_atom_site_label_1
_geom_bond_atom_site_label_2
_geom_bond_distance
_geom_bond_site_symmetry_2
K0 O11 2.720951 1_565
K0 O15 2.761534 1_555
K0 O25 2.816702 1_555
K0 O2 2.863470 1_555
K0 O20 2.885904 1_565
K0 O19 2.908494 1_555
K0 O26 2.979849 1_555
K1 O10 2.720951 1_655
K1 O14 2.761534 1_555
K1 O24 2.816702 1_555
K1 O3 2.863470 1_555
K1 O21 2.885904 1_655
K1 O18 2.908494 1_555
K1 O27 2.979849 1_555
K2 O24 2.649876 1_555
K2 O8 2.687243 1_555
K2 O22 2.778165 1_555
K2 O0 2.824499 1_555
K2 O18 2.825885 1_555
K2 O14 2.892252 1_455
K3 O25 2.649876 1_555
K3 O9 2.687243 1_555
K3 O23 2.778165 1_556
K3 O1 2.824499 1_555
K3 O19 2.825885 1_555
K3 O15 2.892252 1_545
K4 O16 2.749218 1_555
K4 O20 2.831166 1_555
K4 O11 2.842381 1_655
K4 O26 2.943099 1_645
K4 O2 3.006753 1_645
K4 O6 3.083431 1_555
K4 O4 3.281526 1_545
K4 O15 3.296021 1_545
K5 O17 2.749218 1_555
K5 O21 2.831166 1_555
K5 O10 2.842381 1_565
K5 O27 2.943099 1_465
K5 O3 3.006753 1_465
K5 O7 3.083431 1_555
K5 O5 3.281526 1_455
K5 O14 3.296021 1_455
Er0 O8 2.258288 1_565
Er0 O4 2.326231 1_555
Er0 O12 2.331657 1_555
Er0 O16 2.351923 1_565
Er0 O22 2.405992 1_565
Er0 O2 2.467266 1_555
Er0 O0 2.485396 1_555
Er0 O20 2.551572 1_565
Er1 O9 2.258288 1_654
Er1 O5 2.326231 1_555
Er1 O13 2.331657 1_554
Er1 O17 2.351923 1_655
Er1 O23 2.405992 1_655
Er1 O3 2.467266 1_555
Er1 O1 2.485396 1_554
Er1 O21 2.551572 1_655
H12 O24 0.988888 1_555
H13 O25 0.988888 1_555
H14 O24 0.985319 1_555
H15 O25 0.985319 1_555
H16 O26 0.990021 1_655
H17 O27 0.990021 1_565
C0 H0 1.111116 1_555
C0 O0 1.266420 1_555
C0 O2 1.278087 1_555
C1 H1 1.111116 1_555
C1 O1 1.266420 1_554
C1 O3 1.278087 1_555
C2 H2 1.111905 1_555
C2 O6 1.262741 1_555
C2 O4 1.278092 1_555
C3 H3 1.111905 1_555
C3 O7 1.262741 1_555
C3 O5 1.278092 1_555
C4 H4 1.111809 1_545
C4 O10 1.252005 1_555
C4 O8 1.283568 1_555
C5 H5 1.111809 1_455
C5 O11 1.252005 1_555
C5 O9 1.283568 1_555
C6 H6 1.117445 1_555
C6 O14 1.250327 1_555
C6 O12 1.286947 1_555
C7 H7 1.117445 1_555
C7 O15 1.250327 1_555
C7 O13 1.286947 1_555
C8 H8 1.119250 1_555
C8 O18 1.250008 1_555
C8 O16 1.287296 1_555
C9 H9 1.119250 1_555
C9 O19 1.250008 1_555
C9 O17 1.287296 1_556
C10 H10 1.111271 1_555
C10 O20 1.271828 1_555
C10 O22 1.273775 1_555
C11 H11 1.111271 1_555
C11 O21 1.271828 1_555
C11 O23 1.273775 1_555
