# generated using pymatgen
data_Dy2Zr2O7
_symmetry_space_group_name_H-M   'P 1'
_cell_length_a   7.32189600
_cell_length_b   7.32189600
_cell_length_c   12.62676700
_cell_angle_alpha   90.00000000
_cell_angle_beta   90.00000000
_cell_angle_gamma   90.00000000
_symmetry_Int_Tables_number   1
_chemical_formula_structural   Dy2Zr2O7
_chemical_formula_sum   'Dy8 Zr8 O28'
_cell_volume   676.92301222
_cell_formula_units_Z   4
loop_
 _symmetry_equiv_pos_site_id
 _symmetry_equiv_pos_as_xyz
  1  'x, y, z'
loop_
 _atom_site_type_symbol
 _atom_site_label
 _atom_site_symmetry_multiplicity
 _atom_site_fract_x
 _atom_site_fract_y
 _atom_site_fract_z
 _atom_site_occupancy
  Dy  Dy0  1  0.63782000  0.12684500  0.13537900  1
  Dy  Dy1  1  0.62684500  0.86218000  0.88537900  1
  Dy  Dy2  1  0.87315500  0.36218000  0.36462100  1
  Dy  Dy3  1  0.86218000  0.62684500  0.11462100  1
  Dy  Dy4  1  0.13782000  0.37315500  0.61462100  1
  Dy  Dy5  1  0.12684500  0.63782000  0.86462100  1
  Dy  Dy6  1  0.37315500  0.13782000  0.38537900  1
  Dy  Dy7  1  0.36218000  0.87315500  0.63537900  1
  Zr  Zr0  1  0.60147400  0.37003900  0.59529100  1
  Zr  Zr1  1  0.62996100  0.39852600  0.90470900  1
  Zr  Zr2  1  0.87003900  0.89852600  0.34529100  1
  Zr  Zr3  1  0.89852600  0.87003900  0.65470900  1
  Zr  Zr4  1  0.10147400  0.12996100  0.15470900  1
  Zr  Zr5  1  0.12996100  0.10147400  0.84529100  1
  Zr  Zr6  1  0.37003900  0.60147400  0.40470900  1
  Zr  Zr7  1  0.39852600  0.62996100  0.09529100  1
  O  O0  1  0.56944000  0.40702000  0.41364700  1
  O  O1  1  0.58473000  0.82755600  0.07391900  1
  O  O2  1  0.59298000  0.43056000  0.08635300  1
  O  O3  1  0.65428300  0.13693300  0.95618300  1
  O  O4  1  0.67244400  0.08473000  0.32391900  1
  O  O5  1  0.63693300  0.84571700  0.70618300  1
  O  O6  1  0.65705400  0.34294600  0.75000000  1
  O  O7  1  0.84294600  0.84294600  0.50000000  1
  O  O8  1  0.86306700  0.34571700  0.54381700  1
  O  O9  1  0.82755600  0.58473000  0.92608100  1
  O  O10  1  0.84571700  0.63693300  0.29381700  1
  O  O11  1  0.90702000  0.93056000  0.16364700  1
  O  O12  1  0.91527000  0.32755600  0.17608100  1
  O  O13  1  0.93056000  0.90702000  0.83635300  1
  O  O14  1  0.06944000  0.09298000  0.33635300  1
  O  O15  1  0.08473000  0.67244400  0.67608100  1
  O  O16  1  0.09298000  0.06944000  0.66364700  1
  O  O17  1  0.15428300  0.36306700  0.79381700  1
  O  O18  1  0.17244400  0.41527000  0.42608100  1
  O  O19  1  0.13693300  0.65428300  0.04381700  1
  O  O20  1  0.15705400  0.15705400  0.00000000  1
  O  O21  1  0.34294600  0.65705400  0.25000000  1
  O  O22  1  0.36306700  0.15428300  0.20618300  1
  O  O23  1  0.32755600  0.91527000  0.82391900  1
  O  O24  1  0.34571700  0.86306700  0.45618300  1
  O  O25  1  0.40702000  0.56944000  0.58635300  1
  O  O26  1  0.41527000  0.17244400  0.57391900  1
  O  O27  1  0.43056000  0.59298000  0.91364700  1
loop_
_geom_bond_atom_site_label_1
_geom_bond_atom_site_label_2
_geom_bond_distance
_geom_bond_site_symmetry_2
Dy0 O22 2.210572 1_555
Dy0 O3 2.267078 1_554
Dy0 O2 2.331556 1_555
Dy0 O1 2.356993 1_545
Dy0 O4 2.413888 1_555
Dy0 O11 2.465348 1_545
Dy0 O12 2.559422 1_555
Dy1 O3 2.210572 1_565
Dy1 O5 2.267078 1_555
Dy1 O13 2.331556 1_555
Dy1 O23 2.356993 1_555
Dy1 O1 2.413888 1_556
Dy1 O27 2.465348 1_555
Dy1 O9 2.559422 1_555
Dy2 O10 2.210572 1_555
Dy2 O8 2.267078 1_555
Dy2 O0 2.331556 1_555
Dy2 O18 2.356993 1_655
Dy2 O12 2.413888 1_555
Dy2 O14 2.465348 1_655
Dy2 O4 2.559422 1_555
Dy3 O19 2.210572 1_655
Dy3 O10 2.267078 1_555
Dy3 O11 2.331556 1_555
Dy3 O12 2.356993 1_555
Dy3 O9 2.413888 1_554
Dy3 O2 2.465348 1_555
Dy3 O1 2.559422 1_555
Dy4 O8 2.210572 1_455
Dy4 O17 2.267078 1_555
Dy4 O16 2.331556 1_555
Dy4 O15 2.356993 1_555
Dy4 O18 2.413888 1_555
Dy4 O25 2.465348 1_555
Dy4 O26 2.559422 1_555
Dy5 O17 2.210572 1_555
Dy5 O19 2.267078 1_556
Dy5 O27 2.331556 1_555
Dy5 O9 2.356993 1_455
Dy5 O15 2.413888 1_555
Dy5 O13 2.465348 1_455
Dy5 O23 2.559422 1_555
Dy6 O24 2.210572 1_545
Dy6 O22 2.267078 1_555
Dy6 O14 2.331556 1_555
Dy6 O4 2.356993 1_555
Dy6 O26 2.413888 1_555
Dy6 O0 2.465348 1_555
Dy6 O18 2.559422 1_555
Dy7 O5 2.210572 1_555
Dy7 O24 2.267078 1_555
Dy7 O25 2.331556 1_555
Dy7 O26 2.356993 1_565
Dy7 O23 2.413888 1_555
Dy7 O16 2.465348 1_565
Dy7 O15 2.559422 1_555
O0 Zr6 2.042411 1_555
O0 Zr0 2.321384 1_555
O1 Zr7 2.006174 1_555
O2 Zr7 2.042411 1_555
O2 Zr1 2.321384 1_554
O3 Zr1 2.030453 1_555
O4 Zr2 2.006174 1_545
O5 Zr3 2.030453 1_555
O6 Zr0 2.005249 1_555
O6 Zr1 2.005249 1_555
O7 Zr3 2.005249 1_555
O7 Zr2 2.005249 1_555
O8 Zr0 2.030453 1_555
O9 Zr1 2.006174 1_555
O10 Zr2 2.030453 1_555
O11 Zr4 2.042411 1_665
O11 Zr2 2.321384 1_555
O12 Zr4 2.006174 1_655
O13 Zr5 2.042411 1_665
O13 Zr3 2.321384 1_555
O14 Zr2 2.042411 1_445
O14 Zr4 2.321384 1_555
O15 Zr3 2.006174 1_455
O16 Zr3 2.042411 1_445
O16 Zr5 2.321384 1_555
O17 Zr5 2.030453 1_555
O18 Zr6 2.006174 1_555
O19 Zr7 2.030453 1_555
O20 Zr4 2.005249 1_555
O20 Zr5 2.005249 1_554
O21 Zr6 2.005249 1_555
O21 Zr7 2.005249 1_555
O22 Zr4 2.030453 1_555
O23 Zr5 2.006174 1_565
O24 Zr6 2.030453 1_555
O25 Zr0 2.042411 1_555
O25 Zr6 2.321384 1_555
O26 Zr0 2.006174 1_555
O27 Zr1 2.042411 1_555
O27 Zr7 2.321384 1_556
