# generated using pymatgen
data_Li4V3P8O29
_symmetry_space_group_name_H-M   'P 1'
_cell_length_a   9.72332700
_cell_length_b   9.78132353
_cell_length_c   14.24306497
_cell_angle_alpha   90.53613198
_cell_angle_beta   89.80770988
_cell_angle_gamma   119.68835097
_symmetry_Int_Tables_number   1
_chemical_formula_structural   Li4V3P8O29
_chemical_formula_sum   'Li8 V6 P16 O58'
_cell_volume   1176.74516131
_cell_formula_units_Z   2
loop_
 _symmetry_equiv_pos_site_id
 _symmetry_equiv_pos_as_xyz
  1  'x, y, z'
loop_
 _atom_site_type_symbol
 _atom_site_label
 _atom_site_symmetry_multiplicity
 _atom_site_fract_x
 _atom_site_fract_y
 _atom_site_fract_z
 _atom_site_occupancy
  Li  Li0  1  0.67122000  0.90833900  0.55616000  1
  Li  Li1  1  0.10422100  0.33889100  0.06038200  1
  Li  Li2  1  0.23346800  0.33108400  0.55701100  1
  Li  Li3  1  0.90279500  0.66402200  0.94334000  1
  Li  Li4  1  0.32752800  0.09329500  0.43759200  1
  Li  Li5  1  0.77172400  0.08888200  0.94487100  1
  Li  Li6  1  0.04700100  0.99074900  0.01661300  1
  Li  Li7  1  0.95777600  0.94204400  0.49261200  1
  V  V0  1  0.56657400  0.56798100  0.24630300  1
  V  V1  1  0.43607700  0.43509000  0.75534400  1
  V  V2  1  0.00229500  0.56793100  0.74075400  1
  V  V3  1  0.99823100  0.43570200  0.25818300  1
  V  V4  1  0.43399900  0.99867600  0.24579900  1
  V  V5  1  0.56099700  0.99953100  0.75396100  1
  P  P0  1  0.21505700  0.91594800  0.83657000  1
  P  P1  1  0.08415700  0.78276300  0.33971300  1
  P  P2  1  0.69100000  0.91370300  0.33878100  1
  P  P3  1  0.32732800  0.65976300  0.13352800  1
  P  P4  1  0.33741300  0.66373000  0.63203700  1
  P  P5  1  0.69294400  0.77688800  0.84370800  1
  P  P6  1  0.77273100  0.69200200  0.65851700  1
  P  P7  1  0.08721900  0.32008700  0.84282700  1
  P  P8  1  0.91479700  0.68680700  0.15715600  1
  P  P9  1  0.22923600  0.31673700  0.34303600  1
  P  P10  1  0.30494100  0.22081800  0.16107400  1
  P  P11  1  0.65939000  0.33306200  0.36701800  1
  P  P12  1  0.67518400  0.33984800  0.86659600  1
  P  P13  1  0.31377500  0.08926500  0.65563200  1
  P  P14  1  0.91397200  0.21928800  0.66174900  1
  P  P15  1  0.78149400  0.09048200  0.15948500  1
  O  O0  1  0.23620200  0.02211300  0.56355500  1
  O  O1  1  0.25810100  0.91704300  0.33669100  1
  O  O2  1  0.98588700  0.76765100  0.06663400  1
  O  O3  1  0.08058100  0.74013400  0.83155200  1
  O  O4  1  0.37821900  0.92088300  0.82667900  1
  O  O5  1  0.33020400  0.80815100  0.17286700  1
  O  O6  1  0.53658800  0.91929200  0.32590000  1
  O  O7  1  0.79824000  0.01937600  0.06988800  1
  O  O8  1  0.66014100  0.91639200  0.84230100  1
  O  O9  1  0.18686700  0.66744800  0.67441600  1
  O  O10  1  0.07907100  0.62067000  0.32955200  1
  O  O11  1  0.48569300  0.81239900  0.67061200  1
  O  O12  1  0.31368900  0.63527000  0.03009200  1
  O  O13  1  0.33192400  0.64839800  0.52806600  1
  O  O14  1  0.47882300  0.66299800  0.17683900  1
  O  O15  1  0.08945000  0.47573000  0.82282600  1
  O  O16  1  0.18329800  0.51279900  0.18225200  1
  O  O17  1  0.65589800  0.74092800  0.32845900  1
  O  O18  1  0.79571000  0.79867300  0.75010500  1
  O  O19  1  0.78446600  0.78897300  0.57542600  1
  O  O20  1  0.78732900  0.77947300  0.92622900  1
  O  O21  1  0.53401000  0.61926900  0.82842000  1
  O  O22  1  0.32828500  0.51361000  0.67868400  1
  O  O23  1  0.74133500  0.65302800  0.16603100  1
  O  O24  1  0.38311100  0.47214000  0.32649200  1
  O  O25  1  0.08570500  0.34529300  0.33856900  1
  O  O26  1  0.00823700  0.80272900  0.24300700  1
  O  O27  1  0.99852100  0.79669200  0.42180800  1
  O  O28  1  0.00631400  0.21144600  0.58044300  1
  O  O29  1  0.91163300  0.65570400  0.66340200  1
  O  O30  1  0.61449000  0.53736800  0.67120200  1
  O  O31  1  0.25763900  0.34574900  0.83534800  1
  O  O32  1  0.65882700  0.47548200  0.31701000  1
  O  O33  1  0.45730500  0.38144700  0.16787800  1
  O  O34  1  0.19677700  0.20010000  0.08088800  1
  O  O35  1  0.22901400  0.23526400  0.43222700  1
  O  O36  1  0.20571300  0.20017100  0.25724100  1
  O  O37  1  0.34153400  0.26140400  0.66698400  1
  O  O38  1  0.81891700  0.48781100  0.82074300  1
  O  O39  1  0.91807700  0.53257400  0.17330900  1
  O  O40  1  0.52439600  0.33642900  0.82045500  1
  O  O41  1  0.68230200  0.35575200  0.97054900  1
  O  O42  1  0.66381200  0.34197000  0.47093000  1
  O  O43  1  0.50995800  0.18315600  0.32963900  1
  O  O44  1  0.91474100  0.37903000  0.67184900  1
  O  O45  1  0.81054700  0.33355700  0.32235600  1
  O  O46  1  0.34460600  0.08647600  0.16532700  1
  O  O47  1  0.19573900  0.99207900  0.74060800  1
  O  O48  1  0.19666200  0.99600600  0.92017900  1
  O  O49  1  0.46930900  0.09067400  0.67395000  1
  O  O50  1  0.67649100  0.18861000  0.83151600  1
  O  O51  1  0.62483600  0.08897800  0.17154100  1
  O  O52  1  0.92270600  0.26359400  0.16779700  1
  O  O53  1  0.00841900  0.24491400  0.93362100  1
  O  O54  1  0.98945100  0.20014900  0.75885600  1
  O  O55  1  0.74136700  0.08094000  0.66352400  1
  O  O56  1  0.77488900  0.98133200  0.42994600  1
  O  O57  1  0.80339800  0.00359700  0.25037800  1
loop_
_geom_bond_atom_site_label_1
_geom_bond_atom_site_label_2
_geom_bond_distance
_geom_bond_site_symmetry_2
Li0 O19 1.983052 1_555
Li0 O56 2.014057 1_555
Li0 O55 2.114694 1_565
Li0 O11 2.263674 1_555
Li1 O34 1.989367 1_555
Li1 O53 2.025940 1_554
Li1 O52 2.171041 1_455
Li1 O16 2.270660 1_555
Li1 O12 2.628165 1_555
Li2 O28 1.949671 1_555
Li2 O35 1.992049 1_555
Li2 O37 2.182319 1_555
Li2 O22 2.315833 1_555
Li3 O20 1.964175 1_555
Li3 O2 1.982177 1_556
Li3 O3 2.192387 1_655
Li3 O38 2.290358 1_555
Li4 O0 1.972902 1_555
Li4 O35 2.042499 1_555
Li4 O1 2.073768 1_545
Li4 O43 2.178477 1_555
Li5 O7 1.974507 1_556
Li5 O53 2.043146 1_655
Li5 O8 2.075870 1_545
Li5 O50 2.312990 1_555
Li6 O48 1.980048 1_554
Li6 O34 2.042551 1_565
Li6 O2 2.089122 1_455
Li7 O27 1.929694 1_555
Li7 O19 1.998293 1_555
Li7 O56 2.191021 1_555
O0 P13 1.489980 1_555
O1 P1 1.545189 1_555
O1 V4 1.972410 1_555
O2 P8 1.495688 1_555
O3 P0 1.563043 1_555
O3 V2 1.945458 1_555
O4 P0 1.569030 1_555
O4 V5 1.863138 1_555
O5 P3 1.538200 1_555
O5 V4 1.917895 1_555
O6 P2 1.540839 1_555
O6 V4 1.921200 1_555
O7 P15 1.494304 1_555
O8 P5 1.547824 1_555
O8 V5 1.994394 1_555
O9 P4 1.598370 1_555
O9 V2 1.826593 1_555
O10 P1 1.566920 1_555
O10 V3 1.867275 1_455
O11 P4 1.552022 1_555
O11 V5 1.983276 1_555
O12 P3 1.486160 1_555
O13 P4 1.485513 1_555
O14 P3 1.584595 1_555
O14 V0 1.838213 1_555
O15 P7 1.540997 1_555
O15 V2 1.918688 1_555
O16 P3 1.589740 1_555
O16 V3 1.906408 1_455
O17 P2 1.555129 1_555
O17 V0 1.870742 1_555
O18 P6 1.608053 1_555
O18 P5 1.614537 1_555
O19 P6 1.492038 1_555
O20 P5 1.485944 1_555
O21 P5 1.564740 1_555
O21 V1 1.872914 1_555
O22 P4 1.579298 1_555
O22 V1 1.923880 1_555
O23 P8 1.554735 1_555
O23 V0 1.868475 1_555
O24 P9 1.534976 1_555
O24 V0 1.927521 1_555
O25 P9 1.554614 1_555
O25 V3 1.893902 1_455
O26 P8 1.602302 1_455
O26 P1 1.623249 1_555
O27 P1 1.477153 1_655
O28 P14 1.487518 1_455
O29 P6 1.559190 1_555
O29 V2 1.871339 1_655
O30 P6 1.544586 1_555
O30 V1 1.932842 1_555
O31 P7 1.551603 1_555
O31 V1 1.890998 1_555
O32 P11 1.572930 1_555
O32 V0 1.861309 1_555
O33 P10 1.537910 1_555
O33 V0 1.937814 1_555
O34 P10 1.498053 1_555
O35 P9 1.505356 1_555
O36 P9 1.600945 1_555
O36 P10 1.628214 1_555
O37 P13 1.574492 1_555
O37 V1 1.932841 1_555
O38 P12 1.575531 1_555
O38 V2 1.926214 1_655
O39 P8 1.544032 1_555
O39 V3 1.930248 1_555
O40 P12 1.593779 1_555
O40 V1 1.836243 1_555
O41 P12 1.485566 1_555
O42 P11 1.481289 1_555
O43 P11 1.557168 1_555
O43 V4 1.967987 1_545
O44 P14 1.564080 1_555
O44 V2 1.874956 1_655
O45 P11 1.597364 1_555
O45 V3 1.834059 1_555
O46 P10 1.543626 1_555
O46 V4 1.889781 1_545
O47 P13 1.617787 1_565
O47 P0 1.617792 1_555
O48 P0 1.477556 1_555
O49 P13 1.528814 1_555
O49 V5 1.923895 1_545
O50 P12 1.562980 1_555
O50 V5 1.953079 1_545
O51 P15 1.525139 1_555
O51 V4 1.929446 1_545
O52 P15 1.568683 1_555
O52 V3 1.942112 1_555
O53 P7 1.501040 1_555
O54 P7 1.608438 1_655
O54 P14 1.623080 1_555
O55 P14 1.548937 1_555
O55 V5 1.997439 1_545
O56 P2 1.498497 1_555
O57 P2 1.616334 1_545
O57 P15 1.626443 1_555
