# generated using pymatgen
data_Ce2U3O10
_symmetry_space_group_name_H-M   'P 1'
_cell_length_a   6.65855571
_cell_length_b   6.65855571
_cell_length_c   8.58169240
_cell_angle_alpha   49.99370589
_cell_angle_beta   49.99370589
_cell_angle_gamma   48.36195849
_symmetry_Int_Tables_number   1
_chemical_formula_structural   Ce2U3O10
_chemical_formula_sum   'Ce2 U3 O10'
_cell_volume   201.75005575
_cell_formula_units_Z   1
loop_
 _symmetry_equiv_pos_site_id
 _symmetry_equiv_pos_as_xyz
  1  'x, y, z'
loop_
 _atom_site_type_symbol
 _atom_site_label
 _atom_site_symmetry_multiplicity
 _atom_site_fract_x
 _atom_site_fract_y
 _atom_site_fract_z
 _atom_site_occupancy
  Ce  Ce0  1  0.30102568  0.30102568  0.10028677  1
  Ce  Ce1  1  0.69897432  0.69897432  0.89971323  1
  U  U0  1  0.10134067  0.10134067  0.69925161  1
  U  U1  1  0.50000000  0.50000000  0.50000000  1
  U  U2  1  0.89865933  0.89865933  0.30074839  1
  O  O0  1  0.65831471  0.16025626  0.78418878  1
  O  O1  1  0.16025626  0.65831471  0.78418878  1
  O  O2  1  0.45879644  0.94857626  0.40161627  1
  O  O3  1  0.94857626  0.45879644  0.40161627  1
  O  O4  1  0.83974374  0.34168529  0.21581122  1
  O  O5  1  0.23913296  0.76086704  0.00000000  1
  O  O6  1  0.34168529  0.83974374  0.21581122  1
  O  O7  1  0.76086704  0.23913296  0.00000000  1
  O  O8  1  0.05142374  0.54120356  0.59838373  1
  O  O9  1  0.54120356  0.05142374  0.59838373  1
loop_
_geom_bond_atom_site_label_1
_geom_bond_atom_site_label_2
_geom_bond_distance
_geom_bond_site_symmetry_2
Ce0 O5 2.382589 1_555
Ce0 O7 2.382589 1_555
Ce0 O2 2.389990 1_545
Ce0 O3 2.389990 1_455
Ce0 O6 2.411442 1_545
Ce0 O4 2.411442 1_455
Ce0 O0 2.430078 1_554
Ce0 O1 2.430078 1_554
Ce1 O7 2.382589 1_556
Ce1 O5 2.382589 1_556
Ce1 O8 2.389990 1_655
Ce1 O9 2.389990 1_565
Ce1 O1 2.411442 1_655
Ce1 O0 2.411442 1_565
Ce1 O6 2.430078 1_556
Ce1 O4 2.430078 1_556
O0 U1 2.284655 1_555
O0 U0 2.335046 1_655
O1 U1 2.284655 1_555
O1 U0 2.335046 1_565
O2 U2 2.292283 1_555
O2 U0 2.351709 1_565
O2 U1 2.382433 1_555
O3 U2 2.292283 1_555
O3 U0 2.351709 1_655
O3 U1 2.382433 1_555
O4 U1 2.284655 1_555
O4 U2 2.335046 1_545
O5 U2 2.323818 1_455
O5 U0 2.323818 1_564
O6 U1 2.284655 1_555
O6 U2 2.335046 1_455
O7 U2 2.323818 1_545
O7 U0 2.323818 1_654
O8 U0 2.292283 1_555
O8 U2 2.351709 1_455
O8 U1 2.382433 1_555
O9 U0 2.292283 1_555
O9 U2 2.351709 1_545
O9 U1 2.382433 1_555
