# generated using pymatgen
data_Li2Mn3(PO4)4
_symmetry_space_group_name_H-M   'P 1'
_cell_length_a   7.64466100
_cell_length_b   7.70480544
_cell_length_c   10.96374665
_cell_angle_alpha   105.77483123
_cell_angle_beta   105.69097412
_cell_angle_gamma   101.81165929
_symmetry_Int_Tables_number   1
_chemical_formula_structural   Li2Mn3(PO4)4
_chemical_formula_sum   'Li4 Mn6 P8 O32'
_cell_volume   570.67753740
_cell_formula_units_Z   2
loop_
 _symmetry_equiv_pos_site_id
 _symmetry_equiv_pos_as_xyz
  1  'x, y, z'
loop_
 _atom_site_type_symbol
 _atom_site_label
 _atom_site_symmetry_multiplicity
 _atom_site_fract_x
 _atom_site_fract_y
 _atom_site_fract_z
 _atom_site_occupancy
  Li  Li0  1  0.52809800  0.78212800  0.26926600  1
  Li  Li1  1  0.77113900  0.25219200  0.01224100  1
  Li  Li2  1  0.48043000  0.52134300  0.48497900  1
  Li  Li3  1  0.03128300  0.27570400  0.26948400  1
  Mn  Mn0  1  0.00340800  0.74940800  0.22520500  1
  Mn  Mn1  1  0.95620100  0.70480300  0.71972900  1
  Mn  Mn2  1  0.50166500  0.25405800  0.22198900  1
  Mn  Mn3  1  0.49031300  0.74236400  0.79089400  1
  Mn  Mn4  1  0.44645600  0.19655100  0.71530300  1
  Mn  Mn5  1  0.99647000  0.24564800  0.78613500  1
  P  P0  1  0.71030500  0.95230600  0.09795600  1
  P  P1  1  0.87170100  0.62166300  0.39981900  1
  P  P2  1  0.63857800  0.88896300  0.59995400  1
  P  P3  1  0.20354100  0.45664900  0.09398800  1
  P  P4  1  0.78427500  0.53605300  0.90504200  1
  P  P5  1  0.36903100  0.11815000  0.39747500  1
  P  P6  1  0.13493100  0.38504000  0.59654300  1
  P  P7  1  0.28326300  0.03465100  0.90613900  1
  O  O0  1  0.92044300  0.95231500  0.16492400  1
  O  O1  1  0.81910800  0.56461200  0.05629000  1
  O  O2  1  0.55724400  0.80644100  0.10579800  1
  O  O3  1  0.82030900  0.76315200  0.32720300  1
  O  O4  1  0.53200700  0.77522100  0.45234700  1
  O  O5  1  0.50408600  0.95295000  0.67808300  1
  O  O6  1  0.00272200  0.45273000  0.67565200  1
  O  O7  1  0.69805400  0.74376100  0.67123900  1
  O  O8  1  0.69676100  0.46038800  0.38139100  1
  O  O9  1  0.20481300  0.95014200  0.37763800  1
  O  O10  1  0.93389400  0.68127800  0.88573900  1
  O  O11  1  0.68382200  0.93611600  0.94646100  1
  O  O12  1  0.71441500  0.16733400  0.16280800  1
  O  O13  1  0.20651500  0.66507100  0.16635700  1
  O  O14  1  0.41050000  0.45407900  0.16835100  1
  O  O15  1  0.32129400  0.07054700  0.05701000  1
  O  O16  1  0.27393200  0.82737000  0.83068900  1
  O  O17  1  0.77898800  0.32545600  0.83876700  1
  O  O18  1  0.57740700  0.52837100  0.83072500  1
  O  O19  1  0.04549700  0.30701000  0.09854200  1
  O  O20  1  0.31094000  0.55241000  0.62186700  1
  O  O21  1  0.80725400  0.05636600  0.62451000  1
  O  O22  1  0.31637200  0.27217900  0.33702100  1
  O  O23  1  0.01039100  0.56010000  0.32672800  1
  O  O24  1  0.50937000  0.06893600  0.32308900  1
  O  O25  1  0.47539200  0.22332200  0.55150800  1
  O  O26  1  0.97605100  0.72502000  0.55303000  1
  O  O27  1  0.03303700  0.28551300  0.44838000  1
  O  O28  1  0.20062500  0.25125300  0.67466800  1
  O  O29  1  0.43806000  0.18011600  0.88753700  1
  O  O30  1  0.18490400  0.43210900  0.94394500  1
  O  O31  1  0.07736900  0.03182400  0.83222300  1
loop_
_geom_bond_atom_site_label_1
_geom_bond_atom_site_label_2
_geom_bond_distance
_geom_bond_site_symmetry_2
Li0 O2 1.917875 1_555
Li0 O4 2.014716 1_555
Li0 O24 2.172129 1_565
Li0 O3 2.198104 1_555
Li0 O13 2.273504 1_555
Li0 O14 2.330688 1_555
Li1 O19 1.954296 1_655
Li1 O12 2.049034 1_555
Li1 O17 2.138027 1_554
Li1 O11 2.239545 1_544
Li1 O1 2.252281 1_555
Li1 O29 2.405506 1_554
Li2 O22 2.027437 1_555
Li2 O4 2.061740 1_555
Li2 O7 2.228709 1_555
Li2 O20 2.229798 1_555
Li2 O8 2.299842 1_555
Li2 O25 2.587598 1_555
Li3 O27 1.938460 1_555
Li3 O19 1.981842 1_555
Li3 O22 2.112138 1_555
Li3 O23 2.161154 1_555
Li3 O12 2.245311 1_455
Li3 O0 2.301669 1_445
Mn0 O1 1.943121 1_455
Mn0 O9 1.945144 1_555
Mn0 O13 1.994067 1_555
Mn0 O0 2.006024 1_455
Mn0 O3 2.015928 1_455
Mn0 O23 2.061965 1_555
Mn1 O26 1.919037 1_555
Mn1 O10 1.925946 1_555
Mn1 O6 1.999367 1_655
Mn1 O7 2.007239 1_555
Mn1 O16 2.260431 1_655
Mn1 O31 2.337660 1_665
Mn2 O15 1.906418 1_555
Mn2 O8 1.978584 1_555
Mn2 O14 1.979238 1_555
Mn2 O24 2.031059 1_555
Mn2 O12 2.071868 1_555
Mn2 O22 2.137305 1_555
Mn3 O11 1.916439 1_555
Mn3 O20 1.945706 1_555
Mn3 O16 2.008508 1_555
Mn3 O18 2.009001 1_555
Mn3 O5 2.294568 1_555
Mn3 O7 2.317495 1_555
Mn4 O25 1.927171 1_555
Mn4 O29 1.943756 1_555
Mn4 O28 1.970116 1_555
Mn4 O5 1.975523 1_545
Mn4 O18 2.376492 1_555
Mn4 O17 2.378051 1_555
Mn5 O30 1.893605 1_655
Mn5 O21 1.924601 1_555
Mn5 O31 2.013126 1_655
Mn5 O17 2.054210 1_555
Mn5 O28 2.227986 1_655
Mn5 O6 2.250816 1_655
O0 P0 1.575328 1_555
O1 P4 1.551734 1_554
O2 P0 1.485995 1_555
O3 P1 1.566736 1_555
O4 P2 1.508034 1_555
O5 P2 1.577386 1_555
O6 P6 1.577900 1_555
O7 P2 1.600187 1_555
O8 P1 1.552549 1_555
O9 P5 1.527389 1_565
O10 P4 1.529961 1_555
O11 P0 1.584436 1_556
O12 P0 1.605451 1_545
O13 P3 1.578398 1_555
O14 P3 1.578650 1_555
O15 P7 1.534706 1_554
O16 P7 1.563045 1_565
O17 P4 1.574385 1_555
O18 P4 1.551393 1_555
O19 P3 1.511671 1_555
O20 P6 1.563137 1_555
O21 P2 1.530148 1_545
O22 P5 1.577565 1_555
O23 P1 1.565258 1_455
O24 P5 1.559346 1_555
O25 P5 1.553451 1_555
O26 P1 1.542713 1_555
O27 P6 1.492413 1_555
O28 P6 1.583588 1_555
O29 P7 1.552404 1_555
O30 P3 1.566929 1_556
O31 P7 1.555983 1_555
