# generated using pymatgen
data_Li3V3P8O29
_symmetry_space_group_name_H-M   'P 1'
_cell_length_a   9.78509559
_cell_length_b   9.78509559
_cell_length_c   14.04408014
_cell_angle_alpha   89.94033582
_cell_angle_beta   89.94033582
_cell_angle_gamma   59.85820235
_symmetry_Int_Tables_number   1
_chemical_formula_structural   Li3V3P8O29
_chemical_formula_sum   'Li6 V6 P16 O58'
_cell_volume   1162.87075164
_cell_formula_units_Z   2
loop_
 _symmetry_equiv_pos_site_id
 _symmetry_equiv_pos_as_xyz
  1  'x, y, z'
loop_
 _atom_site_type_symbol
 _atom_site_label
 _atom_site_symmetry_multiplicity
 _atom_site_fract_x
 _atom_site_fract_y
 _atom_site_fract_z
 _atom_site_occupancy
  Li  Li0  1  0.22490100  0.68893800  0.05847800  1
  Li  Li1  1  0.31065400  0.77832800  0.44438700  1
  Li  Li2  1  0.68893800  0.22490100  0.55847800  1
  Li  Li3  1  0.77832800  0.31065400  0.94438700  1
  Li  Li4  1  0.77343600  0.90602900  0.44194100  1
  Li  Li5  1  0.90602900  0.77343600  0.94194100  1
  V  V0  1  0.00200200  0.56224800  0.74336000  1
  V  V1  1  0.42924200  0.00082000  0.75359500  1
  V  V2  1  0.43570500  0.56584100  0.25051700  1
  V  V3  1  0.56584100  0.43570500  0.75051700  1
  V  V4  1  0.56224800  0.00200200  0.24336000  1
  V  V5  1  0.00082000  0.42924200  0.25359500  1
  P  P0  1  0.08363300  0.23141900  0.84169000  1
  P  P1  1  0.23141900  0.08363300  0.34169000  1
  P  P2  1  0.08634400  0.68350100  0.34244100  1
  P  P3  1  0.33786800  0.32897100  0.62929100  1
  P  P4  1  0.32897100  0.33786800  0.12929100  1
  P  P5  1  0.22702300  0.68135100  0.84120400  1
  P  P6  1  0.31668800  0.77254500  0.65953800  1
  P  P7  1  0.68350100  0.08634400  0.84244100  1
  P  P8  1  0.31181700  0.91568200  0.15483600  1
  P  P9  1  0.68135100  0.22702300  0.34120400  1
  P  P10  1  0.77254500  0.31668800  0.15953800  1
  P  P11  1  0.66920400  0.66612300  0.87038300  1
  P  P12  1  0.66612300  0.66920400  0.37038300  1
  P  P13  1  0.91568200  0.31181700  0.65483600  1
  P  P14  1  0.76634600  0.91352300  0.65887400  1
  P  P15  1  0.91352300  0.76634600  0.15887400  1
  O  O0  1  0.99909200  0.23824300  0.56560800  1
  O  O1  1  0.08855100  0.25404200  0.33566000  1
  O  O2  1  0.20881000  0.99874000  0.24903000  1
  O  O3  1  0.23824300  0.99909200  0.06560800  1
  O  O4  1  0.09240200  0.38391200  0.82136700  1
  O  O5  1  0.25404200  0.08855100  0.83566000  1
  O  O6  1  0.18426600  0.33705800  0.17573300  1
  O  O7  1  0.09511200  0.52265300  0.32526400  1
  O  O8  1  0.99829800  0.75679900  0.06797500  1
  O  O9  1  0.08023800  0.66059500  0.83674200  1
  O  O10  1  0.33705800  0.18426600  0.67573300  1
  O  O11  1  0.18702700  0.47922400  0.67297300  1
  O  O12  1  0.38391200  0.09240200  0.32136700  1
  O  O13  1  0.34360700  0.32915200  0.52391500  1
  O  O14  1  0.32915200  0.34360700  0.02391500  1
  O  O15  1  0.52265300  0.09511200  0.82526400  1
  O  O16  1  0.32977300  0.48956100  0.17143700  1
  O  O17  1  0.47922400  0.18702700  0.17297300  1
  O  O18  1  0.25595700  0.66076200  0.34082500  1
  O  O19  1  0.20714500  0.79030400  0.75008500  1
  O  O20  1  0.24108800  0.74914400  0.93236000  1
  O  O21  1  0.24951500  0.75737000  0.56865600  1
  O  O22  1  0.38051800  0.51963300  0.81954300  1
  O  O23  1  0.48956100  0.32977300  0.67143700  1
  O  O24  1  0.66059500  0.08023800  0.33674200  1
  O  O25  1  0.33753000  0.74406100  0.16246300  1
  O  O26  1  0.51963300  0.38051800  0.31954300  1
  O  O27  1  0.24253100  0.99371900  0.42876400  1
  O  O28  1  0.75679900  0.99829800  0.56797500  1
  O  O29  1  0.47901700  0.61794400  0.68047900  1
  O  O30  1  0.66076200  0.25595700  0.84082500  1
  O  O31  1  0.78680800  0.00793900  0.74605900  1
  O  O32  1  0.34161600  0.91552900  0.66791500  1
  O  O33  1  0.51314900  0.67025000  0.32835100  1
  O  O34  1  0.61794400  0.47901700  0.18047900  1
  O  O35  1  0.75737000  0.24951500  0.06865600  1
  O  O36  1  0.74914400  0.24108800  0.43236000  1
  O  O37  1  0.79030400  0.20714500  0.25008500  1
  O  O38  1  0.74406100  0.33753000  0.66246300  1
  O  O39  1  0.52067800  0.81392700  0.82574600  1
  O  O40  1  0.47643800  0.90407300  0.17619800  1
  O  O41  1  0.67025000  0.51314900  0.82835100  1
  O  O42  1  0.66128300  0.66901200  0.47620900  1
  O  O43  1  0.66901200  0.66128300  0.97620900  1
  O  O44  1  0.61516400  0.90584300  0.67755200  1
  O  O45  1  0.81392700  0.52067800  0.32574600  1
  O  O46  1  0.66792500  0.81787900  0.32952500  1
  O  O47  1  0.91552900  0.34161600  0.16791500  1
  O  O48  1  0.99874000  0.20881000  0.74903000  1
  O  O49  1  0.99371900  0.24253100  0.92876400  1
  O  O50  1  0.90407300  0.47643800  0.67619800  1
  O  O51  1  0.81787900  0.66792500  0.82952500  1
  O  O52  1  0.74528700  0.91134800  0.16527300  1
  O  O53  1  0.90584300  0.61516400  0.17755200  1
  O  O54  1  0.76999000  0.99235700  0.92708600  1
  O  O55  1  0.91134800  0.74528700  0.66527300  1
  O  O56  1  0.99235700  0.76999000  0.42708600  1
  O  O57  1  0.00793900  0.78680800  0.24605900  1
loop_
_geom_bond_atom_site_label_1
_geom_bond_atom_site_label_2
_geom_bond_distance
_geom_bond_site_symmetry_2
Li0 O20 1.897444 1_554
Li0 O8 1.973873 1_455
Li0 O25 2.059176 1_555
Li0 O16 2.315642 1_555
Li1 O27 1.876954 1_555
Li1 O21 1.888420 1_555
Li1 O18 2.085351 1_555
Li1 O33 2.364862 1_555
Li2 O36 1.897444 1_555
Li2 O28 1.973873 1_545
Li2 O38 2.059176 1_555
Li2 O23 2.315642 1_555
Li3 O49 1.876954 1_555
Li3 O35 1.888420 1_556
Li3 O30 2.085351 1_555
Li3 O41 2.364862 1_555
Li4 O56 1.881553 1_555
Li4 O28 1.956985 1_555
Li4 O24 2.101349 1_565
Li4 O46 2.281019 1_555
Li5 O54 1.881553 1_555
Li5 O8 1.956985 1_556
Li5 O9 2.101349 1_655
Li5 O51 2.281019 1_555
O0 P13 1.471192 1_555
O1 P1 1.549467 1_555
O1 V5 1.877287 1_555
O2 P8 1.613448 1_555
O2 P1 1.618592 1_565
O3 P8 1.471192 1_555
O4 P0 1.563013 1_555
O4 V0 1.864304 1_555
O5 P0 1.549467 1_555
O5 V1 1.877287 1_555
O6 P4 1.561964 1_555
O6 V5 1.898265 1_555
O7 P2 1.551738 1_555
O7 V5 1.884317 1_555
O8 P15 1.498918 1_555
O9 P5 1.549621 1_555
O9 V0 1.994160 1_555
O10 P3 1.561964 1_555
O10 V1 1.898265 1_555
O11 P3 1.592842 1_555
O11 V0 1.853601 1_555
O12 P1 1.563013 1_555
O12 V4 1.864304 1_555
O13 P3 1.480949 1_555
O14 P4 1.480949 1_555
O15 P7 1.551738 1_555
O15 V1 1.884317 1_555
O16 P4 1.602244 1_555
O16 V2 1.909488 1_555
O17 P4 1.592842 1_555
O17 V4 1.853601 1_555
O18 P2 1.560008 1_555
O18 V2 1.980400 1_555
O19 P5 1.612899 1_555
O19 P6 1.614556 1_555
O20 P5 1.480449 1_555
O21 P6 1.477608 1_555
O22 P5 1.570234 1_555
O22 V3 1.845262 1_555
O23 P3 1.602244 1_555
O23 V3 1.909488 1_555
O24 P9 1.549621 1_555
O24 V4 1.994160 1_555
O25 P8 1.571708 1_555
O25 V2 1.951624 1_555
O26 P9 1.570234 1_555
O26 V2 1.845262 1_555
O27 P1 1.477594 1_565
O28 P14 1.498918 1_555
O29 P6 1.576350 1_555
O29 V3 1.829151 1_555
O30 P7 1.560008 1_555
O30 V3 1.980400 1_555
O31 P14 1.606704 1_545
O31 P7 1.631909 1_555
O32 P6 1.540777 1_555
O32 V1 1.898033 1_565
O33 P12 1.604870 1_555
O33 V2 1.895912 1_555
O34 P10 1.576350 1_555
O34 V2 1.829151 1_555
O35 P10 1.477608 1_555
O36 P9 1.480449 1_555
O37 P9 1.612899 1_555
O37 P10 1.614556 1_555
O38 P13 1.571708 1_555
O38 V3 1.951624 1_555
O39 P11 1.576697 1_555
O39 V1 1.877887 1_565
O40 P8 1.585831 1_555
O40 V4 1.823326 1_565
O41 P11 1.604870 1_555
O41 V3 1.895912 1_555
O42 P12 1.486963 1_555
O43 P11 1.486963 1_555
O44 P14 1.540673 1_555
O44 V1 1.901049 1_565
O45 P12 1.576697 1_555
O45 V5 1.877887 1_655
O46 P12 1.571628 1_555
O46 V4 1.976533 1_565
O47 P10 1.540777 1_555
O47 V5 1.898033 1_655
O48 P13 1.613448 1_555
O48 P0 1.618592 1_655
O49 P0 1.477594 1_655
O50 P13 1.585831 1_555
O50 V0 1.823326 1_655
O51 P11 1.571628 1_555
O51 V0 1.976533 1_655
O52 P15 1.544489 1_555
O52 V4 1.897306 1_565
O53 P15 1.540673 1_555
O53 V5 1.901049 1_655
O54 P7 1.480993 1_565
O55 P14 1.544489 1_555
O55 V0 1.897306 1_655
O56 P2 1.480993 1_655
O57 P15 1.606704 1_455
O57 P2 1.631909 1_555
