# generated using pymatgen
data_Sc2V2O7
_symmetry_space_group_name_H-M   'P 1'
_cell_length_a   6.93642337
_cell_length_b   6.93661430
_cell_length_c   6.93651106
_cell_angle_alpha   60.00544257
_cell_angle_beta   60.00418146
_cell_angle_gamma   60.00439048
_symmetry_Int_Tables_number   1
_chemical_formula_structural   Sc2V2O7
_chemical_formula_sum   'Sc4 V4 O14'
_cell_volume   236.02348520
_cell_formula_units_Z   2
loop_
 _symmetry_equiv_pos_site_id
 _symmetry_equiv_pos_as_xyz
  1  'x, y, z'
loop_
 _atom_site_type_symbol
 _atom_site_label
 _atom_site_symmetry_multiplicity
 _atom_site_fract_x
 _atom_site_fract_y
 _atom_site_fract_z
 _atom_site_occupancy
  Sc  Sc0  1  0.50001200  0.49999000  0.00000000  1
  Sc  Sc1  1  0.50000300  0.99999500  0.49999600  1
  Sc  Sc2  1  0.00000400  0.49999500  0.49999800  1
  Sc  Sc3  1  0.50000400  0.50000200  0.49999900  1
  V  V0  1  0.49999800  0.00000400  0.00000100  1
  V  V1  1  0.99999700  0.00000500  0.00000200  1
  V  V2  1  0.00000100  0.49999900  0.99999600  1
  V  V3  1  0.99999700  0.00000300  0.49999900  1
  O  O0  1  0.66147800  0.08853100  0.08854100  1
  O  O1  1  0.91146800  0.33858000  0.33857700  1
  O  O2  1  0.37495400  0.37495200  0.37496700  1
  O  O3  1  0.66141500  0.08853900  0.66142400  1
  O  O4  1  0.08853000  0.66147500  0.08854600  1
  O  O5  1  0.08854000  0.08852700  0.66147500  1
  O  O6  1  0.66141600  0.66142600  0.08854000  1
  O  O7  1  0.33858100  0.91146700  0.33857500  1
  O  O8  1  0.91145500  0.33852700  0.91146200  1
  O  O9  1  0.33858300  0.33857800  0.91145900  1
  O  O10  1  0.62504000  0.62504600  0.62503200  1
  O  O11  1  0.91146600  0.91147200  0.33852500  1
  O  O12  1  0.08854000  0.66141500  0.66141800  1
  O  O13  1  0.33851500  0.91147100  0.91146800  1
loop_
_geom_bond_atom_site_label_1
_geom_bond_atom_site_label_2
_geom_bond_distance
_geom_bond_site_symmetry_2
O0 V1 1.939415 1_555
O0 V0 1.939467 1_555
O0 Sc1 2.348688 1_545
O0 Sc0 2.348749 1_555
O1 V2 1.939797 1_654
O1 V3 1.939806 1_555
O1 Sc2 2.348000 1_655
O1 Sc3 2.348658 1_555
O2 Sc2 2.123663 1_555
O2 Sc1 2.123788 1_545
O2 Sc0 2.123808 1_555
O2 Sc3 2.124538 1_555
O3 V3 1.939754 1_555
O3 V0 1.939758 1_556
O3 Sc1 2.348055 1_545
O3 Sc3 2.348738 1_555
O4 V2 1.939517 1_554
O4 V1 1.939551 1_465
O4 Sc2 2.348691 1_555
O4 Sc0 2.348794 1_555
O5 V3 1.939446 1_455
O5 V1 1.939508 1_456
O5 Sc1 2.348690 1_545
O5 Sc2 2.348817 1_555
O6 V2 1.939775 1_654
O6 V0 1.939797 1_565
O6 Sc0 2.348042 1_555
O6 Sc3 2.348682 1_555
O7 V0 1.939742 1_565
O7 V3 1.939763 1_465
O7 Sc1 2.347991 1_555
O7 Sc3 2.348756 1_555
O8 V1 1.939497 1_556
O8 V2 1.939498 1_655
O8 Sc0 2.348572 1_556
O8 Sc2 2.348744 1_655
O9 V2 1.939754 1_555
O9 V0 1.939773 1_556
O9 Sc0 2.348053 1_556
O9 Sc3 2.348694 1_555
O10 Sc2 2.123742 1_655
O10 Sc1 2.123742 1_555
O10 Sc0 2.123814 1_556
O10 Sc3 2.124431 1_555
O11 V3 1.939408 1_565
O11 V1 1.939484 1_565
O11 Sc1 2.348697 1_555
O11 Sc2 2.348868 1_655
O12 V2 1.939778 1_555
O12 V3 1.939862 1_465
O12 Sc2 2.348023 1_555
O12 Sc3 2.348649 1_555
O13 V1 1.939407 1_466
O13 V0 1.939480 1_566
O13 Sc1 2.348796 1_555
O13 Sc0 2.348885 1_556
