# generated using pymatgen
data_LiSb4P7O24
_symmetry_space_group_name_H-M   'P 1'
_cell_length_a   11.00679500
_cell_length_b   11.03401768
_cell_length_c   11.60972133
_cell_angle_alpha   108.34104889
_cell_angle_beta   112.60582364
_cell_angle_gamma   104.25126551
_symmetry_Int_Tables_number   1
_chemical_formula_structural   LiSb4P7O24
_chemical_formula_sum   'Li2 Sb8 P14 O48'
_cell_volume   1121.87022789
_cell_formula_units_Z   2
loop_
 _symmetry_equiv_pos_site_id
 _symmetry_equiv_pos_as_xyz
  1  'x, y, z'
loop_
 _atom_site_type_symbol
 _atom_site_label
 _atom_site_symmetry_multiplicity
 _atom_site_fract_x
 _atom_site_fract_y
 _atom_site_fract_z
 _atom_site_occupancy
  Li  Li0  1  0.58809300  0.26702900  0.62770700  1
  Li  Li1  1  0.41190700  0.73297100  0.37229300  1
  Sb  Sb0  1  0.50109500  0.90582000  0.74675800  1
  Sb  Sb1  1  0.98714000  0.35685500  0.06999500  1
  Sb  Sb2  1  0.52339300  0.65973800  0.88971600  1
  Sb  Sb3  1  0.98271100  0.80799600  0.40202100  1
  Sb  Sb4  1  0.01728900  0.19200400  0.59797900  1
  Sb  Sb5  1  0.47660700  0.34026200  0.11028400  1
  Sb  Sb6  1  0.01286000  0.64314500  0.93000500  1
  Sb  Sb7  1  0.49890500  0.09418000  0.25324200  1
  P  P0  1  0.78556300  0.79371800  0.76382300  1
  P  P1  1  0.20229800  0.61822600  0.42612500  1
  P  P2  1  0.21186400  0.95120000  0.27848400  1
  P  P3  1  0.26067900  0.04336100  0.76473000  1
  P  P4  1  0.25580700  0.39295000  0.51501300  1
  P  P5  1  0.73976000  0.16628900  0.12407600  1
  P  P6  1  0.73998600  0.52280300  0.05038800  1
  P  P7  1  0.26001400  0.47719700  0.94961200  1
  P  P8  1  0.26024000  0.83371100  0.87592400  1
  P  P9  1  0.74419300  0.60705000  0.48498700  1
  P  P10  1  0.73932100  0.95663900  0.23527000  1
  P  P11  1  0.78813600  0.04880000  0.72151600  1
  P  P12  1  0.79770200  0.38177400  0.57387500  1
  P  P13  1  0.21443700  0.20628200  0.23617700  1
  O  O0  1  0.84343500  0.17571000  0.85928800  1
  O  O1  1  0.61986000  0.97454000  0.64229800  1
  O  O2  1  0.65372500  0.06452800  0.96793900  1
  O  O3  1  0.08904400  0.22221000  0.13937500  1
  O  O4  1  0.36194700  0.72753300  0.50794300  1
  O  O5  1  0.16554500  0.54753900  0.27273800  1
  O  O6  1  0.66476200  0.56382700  0.93275900  1
  O  O7  1  0.66660200  0.79256600  0.79900200  1
  O  O8  1  0.19063400  0.50141100  0.48255100  1
  O  O9  1  0.37196600  0.02041700  0.71911900  1
  O  O10  1  0.29594600  0.33301000  0.39386400  1
  O  O11  1  0.14965400  0.06330000  0.24163500  1
  O  O12  1  0.15805000  0.92040500  0.37252500  1
  O  O13  1  0.39751500  0.46756800  0.65168300  1
  O  O14  1  0.84013600  0.46298100  0.01312700  1
  O  O15  1  0.09935300  0.67865100  0.45046600  1
  O  O16  1  0.87109500  0.29501700  0.16295300  1
  O  O17  1  0.33202500  0.17708800  0.90209900  1
  O  O18  1  0.19088500  0.91248300  0.78937900  1
  O  O19  1  0.13640500  0.27325200  0.49534300  1
  O  O20  1  0.13190400  0.03740400  0.64534500  1
  O  O21  1  0.35258800  0.78570100  0.81676000  1
  O  O22  1  0.38238800  0.59097800  0.95707200  1
  O  O23  1  0.82704900  0.65173000  0.19668100  1
  O  O24  1  0.17295100  0.34827000  0.80331900  1
  O  O25  1  0.61761200  0.40902200  0.04292800  1
  O  O26  1  0.64741200  0.21429900  0.18324000  1
  O  O27  1  0.86809600  0.96259600  0.35465500  1
  O  O28  1  0.86359500  0.72674800  0.50465700  1
  O  O29  1  0.80911500  0.08751700  0.21062100  1
  O  O30  1  0.66797500  0.82291200  0.09790100  1
  O  O31  1  0.12890500  0.70498300  0.83704700  1
  O  O32  1  0.90064700  0.32134900  0.54953400  1
  O  O33  1  0.15986400  0.53701900  0.98687300  1
  O  O34  1  0.60248500  0.53243200  0.34831700  1
  O  O35  1  0.84195000  0.07959500  0.62747500  1
  O  O36  1  0.85034600  0.93670000  0.75836500  1
  O  O37  1  0.70405400  0.66699000  0.60613600  1
  O  O38  1  0.62803400  0.97958300  0.28088100  1
  O  O39  1  0.80936600  0.49858900  0.51744900  1
  O  O40  1  0.33339800  0.20743400  0.20099800  1
  O  O41  1  0.33523800  0.43617300  0.06724100  1
  O  O42  1  0.83445500  0.45246100  0.72726200  1
  O  O43  1  0.63805300  0.27246700  0.49205700  1
  O  O44  1  0.91095600  0.77779000  0.86062500  1
  O  O45  1  0.34627500  0.93547200  0.03206100  1
  O  O46  1  0.38014000  0.02546000  0.35770200  1
  O  O47  1  0.15656500  0.82429000  0.14071200  1
loop_
_geom_bond_atom_site_label_1
_geom_bond_atom_site_label_2
_geom_bond_distance
_geom_bond_site_symmetry_2
Li0 O43 1.869537 1_555
Li0 O42 2.499179 1_555
Li1 O4 1.869537 1_555
Li1 O5 2.499179 1_555
O0 P11 1.520547 1_555
O0 Sb1 2.207415 1_556
O1 P11 1.554591 1_565
O1 Sb0 2.250340 1_555
O2 P5 1.522920 1_556
O2 Sb0 2.210853 1_545
O3 P13 1.500025 1_555
O3 Sb1 2.234528 1_455
O4 P1 1.548252 1_555
O4 Sb0 2.392127 1_555
O5 P1 1.536190 1_555
O5 Sb1 2.262496 1_455
O6 P6 1.568348 1_556
O6 Sb2 2.082470 1_555
O7 P0 1.512494 1_555
O7 Sb0 2.448775 1_555
O7 Sb2 2.617644 1_555
O8 P4 1.608585 1_555
O8 P1 1.619127 1_555
O9 P3 1.553020 1_555
O9 Sb0 2.124029 1_545
O10 P13 1.618726 1_555
O10 P4 1.626964 1_555
O11 P13 1.595390 1_555
O11 P2 1.645191 1_545
O12 P2 1.513225 1_555
O12 Sb3 2.230939 1_455
O13 P4 1.507071 1_555
O13 Sb2 2.444360 1_555
O14 P6 1.543731 1_555
O14 Sb1 2.241283 1_555
O15 P1 1.519156 1_555
O15 Sb3 2.203109 1_455
O16 P5 1.547550 1_555
O16 Sb1 2.087055 1_555
O17 P3 1.524156 1_555
O17 Sb5 2.123570 1_556
O18 P8 1.623077 1_555
O18 P3 1.624924 1_565
O19 P4 1.499529 1_555
O19 Sb4 2.288475 1_555
O20 P3 1.523450 1_555
O20 Sb4 2.433193 1_555
O20 Sb3 2.640289 1_445
O21 P8 1.535730 1_555
O21 Sb0 2.391975 1_555
O21 Sb2 2.643262 1_555
O22 P7 1.551532 1_555
O22 Sb2 2.079071 1_555
O23 P6 1.543912 1_555
O23 Sb3 2.100052 1_555
O24 P7 1.543912 1_555
O24 Sb4 2.100052 1_555
O25 P6 1.551532 1_555
O25 Sb5 2.079071 1_555
O26 P5 1.535730 1_555
O26 Sb7 2.391975 1_555
O26 Sb5 2.643262 1_555
O27 P10 1.523450 1_555
O27 Sb3 2.433193 1_555
O27 Sb4 2.640289 1_665
O28 P9 1.499529 1_555
O28 Sb3 2.288475 1_555
O29 P5 1.623077 1_555
O29 P10 1.624924 1_545
O30 P10 1.524156 1_555
O30 Sb2 2.123570 1_554
O31 P8 1.547550 1_555
O31 Sb6 2.087055 1_555
O32 P12 1.519156 1_555
O32 Sb4 2.203109 1_655
O33 P7 1.543731 1_555
O33 Sb6 2.241283 1_555
O34 P9 1.507071 1_555
O34 Sb5 2.444360 1_555
O35 P11 1.513225 1_555
O35 Sb4 2.230939 1_655
O36 P0 1.595390 1_555
O36 P11 1.645191 1_565
O37 P0 1.618726 1_555
O37 P9 1.626964 1_555
O38 P10 1.553020 1_555
O38 Sb7 2.124029 1_565
O39 P9 1.608585 1_555
O39 P12 1.619127 1_555
O40 P13 1.512494 1_555
O40 Sb7 2.448775 1_555
O40 Sb5 2.617644 1_555
O41 P7 1.568348 1_554
O41 Sb5 2.082470 1_555
O42 P12 1.536190 1_555
O42 Sb6 2.262496 1_655
O43 P12 1.548252 1_555
O43 Sb7 2.392127 1_555
O44 P0 1.500025 1_555
O44 Sb6 2.234528 1_655
O45 P8 1.522920 1_554
O45 Sb7 2.210853 1_565
O46 P2 1.554591 1_545
O46 Sb7 2.250340 1_555
O47 P2 1.520547 1_555
O47 Sb6 2.207415 1_554
