# generated using pymatgen
data_LiFeSiO4
_symmetry_space_group_name_H-M   'P 1'
_cell_length_a   5.47462100
_cell_length_b   8.25210400
_cell_length_c   18.74725100
_cell_angle_alpha   90.00000000
_cell_angle_beta   90.00000000
_cell_angle_gamma   90.00000000
_symmetry_Int_Tables_number   1
_chemical_formula_structural   LiFeSiO4
_chemical_formula_sum   'Li12 Fe12 Si12 O48'
_cell_volume   846.94721777
_cell_formula_units_Z   12
loop_
 _symmetry_equiv_pos_site_id
 _symmetry_equiv_pos_as_xyz
  1  'x, y, z'
loop_
 _atom_site_type_symbol
 _atom_site_label
 _atom_site_symmetry_multiplicity
 _atom_site_fract_x
 _atom_site_fract_y
 _atom_site_fract_z
 _atom_site_occupancy
  Li  Li0  1  0.02047800  0.07652900  0.08257400  1
  Li  Li1  1  0.48380500  0.57713700  0.08447300  1
  Li  Li2  1  0.00598500  0.42032300  0.24901500  1
  Li  Li3  1  0.50598500  0.92032300  0.25098500  1
  Li  Li4  1  0.98380500  0.07713700  0.41552700  1
  Li  Li5  1  0.52047800  0.57652900  0.41742600  1
  Li  Li6  1  0.02047800  0.42347100  0.58257400  1
  Li  Li7  1  0.48380500  0.92286300  0.58447300  1
  Li  Li8  1  0.00598500  0.07967700  0.74901500  1
  Li  Li9  1  0.50598500  0.57967700  0.75098500  1
  Li  Li10  1  0.98380500  0.42286300  0.91552700  1
  Li  Li11  1  0.52047800  0.92347100  0.91742600  1
  Fe  Fe0  1  0.00110400  0.74925900  0.99966900  1
  Fe  Fe1  1  0.50110400  0.25074100  0.00033100  1
  Fe  Fe2  1  0.50952500  0.24831900  0.16687400  1
  Fe  Fe3  1  0.00739500  0.74977700  0.16627900  1
  Fe  Fe4  1  0.50739500  0.24977700  0.33372100  1
  Fe  Fe5  1  0.00952500  0.74831900  0.33312600  1
  Fe  Fe6  1  0.00110400  0.75074100  0.49966900  1
  Fe  Fe7  1  0.50110400  0.24925900  0.50033100  1
  Fe  Fe8  1  0.50952500  0.25168100  0.66687400  1
  Fe  Fe9  1  0.00739500  0.75022300  0.66627900  1
  Fe  Fe10  1  0.50739500  0.25022300  0.83372100  1
  Fe  Fe11  1  0.00952500  0.75168100  0.83312600  1
  Si  Si0  1  0.00243100  0.40250900  0.08262600  1
  Si  Si1  1  0.50686900  0.90287100  0.08349400  1
  Si  Si2  1  0.00953700  0.09565800  0.24984000  1
  Si  Si3  1  0.50953700  0.59565800  0.25016000  1
  Si  Si4  1  0.00686900  0.40287100  0.41650600  1
  Si  Si5  1  0.50243100  0.90250900  0.41737400  1
  Si  Si6  1  0.00243100  0.09749100  0.58262600  1
  Si  Si7  1  0.50686900  0.59712900  0.58349400  1
  Si  Si8  1  0.00953700  0.40434200  0.74984000  1
  Si  Si9  1  0.50953700  0.90434200  0.75016000  1
  Si  Si10  1  0.00686900  0.09712900  0.91650600  1
  Si  Si11  1  0.50243100  0.59749100  0.91737400  1
  O  O0  1  0.50060700  0.48637100  0.98879100  1
  O  O1  1  0.00060700  0.51362900  0.01120900  1
  O  O2  1  0.50272500  0.01568000  0.01270300  1
  O  O3  1  0.74668900  0.77609900  0.08333100  1
  O  O4  1  0.26341700  0.77783500  0.08303300  1
  O  O5  1  0.24518100  0.27672500  0.08332400  1
  O  O6  1  0.76210800  0.27621200  0.08325500  1
  O  O7  1  0.00965700  0.51511100  0.15375800  1
  O  O8  1  0.50868800  0.01344800  0.15540400  1
  O  O9  1  0.01069500  0.98485600  0.17815800  1
  O  O10  1  0.50900300  0.48311500  0.17918800  1
  O  O11  1  0.26879800  0.72237200  0.24989400  1
  O  O12  1  0.75142500  0.72153500  0.24979200  1
  O  O13  1  0.76879800  0.22237200  0.25010600  1
  O  O14  1  0.25142500  0.22153500  0.25020800  1
  O  O15  1  0.00900300  0.98311500  0.32081200  1
  O  O16  1  0.51069500  0.48485600  0.32184200  1
  O  O17  1  0.00868800  0.51344800  0.34459600  1
  O  O18  1  0.50965700  0.01511100  0.34624200  1
  O  O19  1  0.26210800  0.77621200  0.41674500  1
  O  O20  1  0.74518100  0.77672500  0.41667600  1
  O  O21  1  0.76341700  0.27783500  0.41696700  1
  O  O22  1  0.24668900  0.27609900  0.41666900  1
  O  O23  1  0.00272500  0.51568000  0.48729700  1
  O  O24  1  0.50060700  0.01362900  0.48879100  1
  O  O25  1  0.00060700  0.98637100  0.51120900  1
  O  O26  1  0.50272500  0.48432000  0.51270300  1
  O  O27  1  0.74668900  0.72390100  0.58333100  1
  O  O28  1  0.26341700  0.72216500  0.58303300  1
  O  O29  1  0.24518100  0.22327500  0.58332400  1
  O  O30  1  0.76210800  0.22378800  0.58325500  1
  O  O31  1  0.00965700  0.98488900  0.65375800  1
  O  O32  1  0.50868800  0.48655200  0.65540400  1
  O  O33  1  0.01069500  0.51514400  0.67815800  1
  O  O34  1  0.50900300  0.01688500  0.67918800  1
  O  O35  1  0.75142500  0.77846500  0.74979200  1
  O  O36  1  0.26879800  0.77762800  0.74989400  1
  O  O37  1  0.25142500  0.27846500  0.75020800  1
  O  O38  1  0.76879800  0.27762800  0.75010600  1
  O  O39  1  0.00900300  0.51688500  0.82081200  1
  O  O40  1  0.51069500  0.01514400  0.82184200  1
  O  O41  1  0.00868800  0.98655200  0.84459600  1
  O  O42  1  0.50965700  0.48488900  0.84624200  1
  O  O43  1  0.26210800  0.72378800  0.91674500  1
  O  O44  1  0.74518100  0.72327500  0.91667600  1
  O  O45  1  0.76341700  0.22216500  0.91696700  1
  O  O46  1  0.24668900  0.22390100  0.91666900  1
  O  O47  1  0.00272500  0.98432000  0.98729700  1
loop_
_geom_bond_atom_site_label_1
_geom_bond_atom_site_label_2
_geom_bond_distance
_geom_bond_site_symmetry_2
Li0 O47 1.943936 1_544
Li0 O9 1.945814 1_545
Li0 O5 2.059789 1_555
Li0 O6 2.171675 1_455
Li1 O10 1.942662 1_555
Li1 O0 1.946048 1_554
Li1 O4 2.049245 1_555
Li1 O3 2.183441 1_555
Li2 O7 1.949705 1_555
Li2 O17 1.949773 1_555
Li2 O13 2.086841 1_455
Li2 O14 2.120609 1_555
Li3 O18 1.949705 1_565
Li3 O8 1.949773 1_565
Li3 O11 2.086841 1_555
Li3 O12 2.120609 1_555
Li4 O15 1.942662 1_645
Li4 O25 1.946048 1_645
Li4 O21 2.049245 1_555
Li4 O22 2.183441 1_655
Li5 O26 1.943936 1_555
Li5 O16 1.945814 1_555
Li5 O20 2.059789 1_555
Li5 O19 2.171675 1_555
Li6 O23 1.943936 1_555
Li6 O33 1.945814 1_555
Li6 O29 2.059789 1_555
Li6 O30 2.171675 1_455
Li7 O34 1.942662 1_565
Li7 O24 1.946048 1_565
Li7 O28 2.049245 1_555
Li7 O27 2.183441 1_555
Li8 O31 1.949705 1_545
Li8 O41 1.949773 1_545
Li8 O38 2.086841 1_455
Li8 O37 2.120609 1_555
Li9 O42 1.949705 1_555
Li9 O32 1.949773 1_555
Li9 O36 2.086841 1_555
Li9 O35 2.120609 1_555
Li10 O39 1.942662 1_655
Li10 O1 1.946048 1_656
Li10 O45 2.049245 1_555
Li10 O46 2.183441 1_655
Li11 O2 1.943936 1_566
Li11 O40 1.945814 1_565
Li11 O44 2.059789 1_555
Li11 O43 2.171675 1_555
Fe0 O47 1.953586 1_555
Fe0 O1 1.956444 1_556
Fe0 O44 2.104709 1_455
Fe0 O3 2.109265 1_456
Fe0 O43 2.121957 1_555
Fe0 O4 2.135503 1_556
Fe1 O2 1.953586 1_555
Fe1 O0 1.956444 1_554
Fe1 O5 2.104709 1_555
Fe1 O46 2.109265 1_554
Fe1 O6 2.121957 1_555
Fe1 O45 2.135503 1_554
Fe2 O8 1.950077 1_555
Fe2 O10 1.951267 1_555
Fe2 O6 2.102988 1_555
Fe2 O14 2.118053 1_555
Fe2 O13 2.120227 1_555
Fe2 O5 2.145387 1_555
Fe3 O7 1.950703 1_555
Fe3 O9 1.952721 1_555
Fe3 O4 2.110387 1_555
Fe3 O12 2.114070 1_455
Fe3 O3 2.121896 1_455
Fe3 O11 2.134563 1_555
Fe4 O18 1.950703 1_555
Fe4 O16 1.952721 1_555
Fe4 O21 2.110387 1_555
Fe4 O14 2.114070 1_555
Fe4 O22 2.121896 1_555
Fe4 O13 2.134563 1_555
Fe5 O17 1.950077 1_555
Fe5 O15 1.951267 1_555
Fe5 O19 2.102988 1_555
Fe5 O12 2.118053 1_455
Fe5 O11 2.120227 1_555
Fe5 O20 2.145387 1_455
Fe6 O23 1.953586 1_555
Fe6 O25 1.956444 1_555
Fe6 O20 2.104709 1_455
Fe6 O27 2.109265 1_455
Fe6 O19 2.121957 1_555
Fe6 O28 2.135503 1_555
Fe7 O26 1.953586 1_555
Fe7 O24 1.956444 1_555
Fe7 O29 2.104709 1_555
Fe7 O22 2.109265 1_555
Fe7 O30 2.121957 1_555
Fe7 O21 2.135503 1_555
Fe8 O32 1.950077 1_555
Fe8 O34 1.951267 1_555
Fe8 O30 2.102988 1_555
Fe8 O37 2.118053 1_555
Fe8 O38 2.120227 1_555
Fe8 O29 2.145387 1_555
Fe9 O31 1.950703 1_555
Fe9 O33 1.952721 1_555
Fe9 O28 2.110387 1_555
Fe9 O35 2.114070 1_455
Fe9 O27 2.121896 1_455
Fe9 O36 2.134563 1_555
Fe10 O42 1.950703 1_555
Fe10 O40 1.952721 1_555
Fe10 O45 2.110387 1_555
Fe10 O37 2.114070 1_555
Fe10 O46 2.121896 1_555
Fe10 O38 2.134563 1_555
Fe11 O41 1.950077 1_555
Fe11 O39 1.951267 1_555
Fe11 O43 2.102988 1_555
Fe11 O35 2.118053 1_455
Fe11 O36 2.120227 1_555
Fe11 O44 2.145387 1_455
O0 Si11 1.622812 1_555
O1 Si0 1.622812 1_555
O2 Si1 1.621235 1_545
O3 Si1 1.678743 1_555
O4 Si1 1.685551 1_555
O5 Si0 1.686335 1_555
O6 Si0 1.678499 1_655
O7 Si0 1.625818 1_555
O8 Si1 1.627930 1_545
O9 Si2 1.625418 1_565
O10 Si3 1.622601 1_555
O11 Si3 1.682388 1_555
O12 Si3 1.683055 1_555
O13 Si2 1.682388 1_655
O14 Si2 1.683055 1_555
O15 Si2 1.622601 1_565
O16 Si3 1.625418 1_555
O17 Si4 1.627930 1_555
O18 Si5 1.625818 1_545
O19 Si5 1.678499 1_555
O20 Si5 1.686335 1_555
O21 Si4 1.685551 1_655
O22 Si4 1.678743 1_555
O23 Si4 1.621235 1_555
O24 Si5 1.622812 1_545
O25 Si6 1.622812 1_565
O26 Si7 1.621235 1_555
O27 Si7 1.678743 1_555
O28 Si7 1.685551 1_555
O29 Si6 1.686335 1_555
O30 Si6 1.678499 1_655
O31 Si6 1.625818 1_565
O32 Si7 1.627930 1_555
O33 Si8 1.625418 1_555
O34 Si9 1.622601 1_545
O35 Si9 1.683055 1_555
O36 Si9 1.682388 1_555
O37 Si8 1.683055 1_555
O38 Si8 1.682388 1_655
O39 Si8 1.622601 1_555
O40 Si9 1.625418 1_545
O41 Si10 1.627930 1_565
O42 Si11 1.625818 1_555
O43 Si11 1.678499 1_555
O44 Si11 1.686335 1_555
O45 Si10 1.685551 1_655
O46 Si10 1.678743 1_555
O47 Si10 1.621235 1_565
