# generated using pymatgen
data_Li3Mn2OF5
_symmetry_space_group_name_H-M   'P 1'
_cell_length_a   10.15510233
_cell_length_b   9.70776526
_cell_length_c   5.29466546
_cell_angle_alpha   79.26494853
_cell_angle_beta   69.92088888
_cell_angle_gamma   30.81416258
_symmetry_Int_Tables_number   1
_chemical_formula_structural   Li3Mn2OF5
_chemical_formula_sum   'Li6 Mn4 O2 F10'
_cell_volume   244.64883704
_cell_formula_units_Z   2
loop_
 _symmetry_equiv_pos_site_id
 _symmetry_equiv_pos_as_xyz
  1  'x, y, z'
loop_
 _atom_site_type_symbol
 _atom_site_label
 _atom_site_symmetry_multiplicity
 _atom_site_fract_x
 _atom_site_fract_y
 _atom_site_fract_z
 _atom_site_occupancy
  Li  Li0  1  0.17487000  0.17487000  0.82513000  1
  Li  Li1  1  0.56934400  0.56934400  0.93065600  1
  Li  Li2  1  0.93065600  0.93065600  0.56934400  1
  Li  Li3  1  0.50000000  0.50000000  0.50000000  1
  Li  Li4  1  0.82513000  0.82513000  0.17487000  1
  Li  Li5  1  0.25000000  0.25000000  0.25000000  1
  Mn  Mn0  1  0.66995700  0.66995700  0.33004300  1
  Mn  Mn1  1  0.00000000  0.00000000  0.00000000  1
  Mn  Mn2  1  0.33004300  0.33004300  0.66995700  1
  Mn  Mn3  1  0.75000000  0.75000000  0.75000000  1
  O  O0  1  0.99706400  0.50293600  0.99706400  1
  O  O1  1  0.50293600  0.99706400  0.50293600  1
  F  F0  1  0.36365200  0.79389200  0.68287700  1
  F  F1  1  0.92307400  0.41125500  0.59020800  1
  F  F2  1  0.41125500  0.92307400  0.07546300  1
  F  F3  1  0.68287700  0.15957800  0.36365200  1
  F  F4  1  0.79389200  0.36365200  0.15957800  1
  F  F5  1  0.24396400  0.75603600  0.24396400  1
  F  F6  1  0.59020800  0.07546300  0.92307400  1
  F  F7  1  0.75603600  0.24396400  0.75603600  1
  F  F8  1  0.15957800  0.68287700  0.79389200  1
  F  F9  1  0.07546300  0.59020800  0.41125500  1
loop_
_geom_bond_atom_site_label_1
_geom_bond_atom_site_label_2
_geom_bond_distance
_geom_bond_site_symmetry_2
Li0 O0 2.075032 1_455
Li0 O1 2.075032 1_545
Li4 O1 2.075032 1_555
Li4 O0 2.075032 1_554
Li5 O1 2.173451 1_545
Li5 O0 2.173451 1_454
Mn0 O1 2.136339 1_555
Mn0 O0 2.136339 1_554
Mn2 O0 2.136339 1_455
Mn2 O1 2.136339 1_545
Mn3 O0 2.122994 1_555
Mn3 O1 2.122994 1_555
F0 Li1 1.957344 1_555
F0 Li3 2.077899 1_555
F0 Mn1 2.182313 1_566
F0 Mn0 2.243243 1_555
F0 Li0 2.405948 1_565
F1 Li0 2.095964 1_655
F1 Mn3 2.169474 1_555
F1 Li5 2.175921 1_655
F1 Mn0 2.205891 1_555
F1 Li1 2.371378 1_555
F2 Li0 2.095964 1_564
F2 Mn3 2.169474 1_554
F2 Li5 2.175921 1_565
F2 Mn0 2.205891 1_555
F2 Li1 2.371378 1_554
F3 Li2 1.957344 1_545
F3 Li3 2.077907 1_555
F3 Mn1 2.182317 1_655
F3 Mn2 2.243238 1_555
F3 Li4 2.405939 1_545
F4 Li1 1.957339 1_554
F4 Li3 2.077901 1_555
F4 Mn1 2.182312 1_655
F4 Mn0 2.243246 1_555
F4 Li0 2.405946 1_654
F5 Li1 2.006168 1_554
F5 Li2 2.006168 1_455
F5 Mn1 2.096356 1_565
F5 Li3 2.200089 1_555
F6 Li4 2.095964 1_546
F6 Mn3 2.169474 1_545
F6 Li5 2.175921 1_556
F6 Mn2 2.205891 1_555
F6 Li2 2.371378 1_545
F7 Li1 2.006168 1_555
F7 Li2 2.006168 1_545
F7 Mn1 2.096356 1_656
F7 Li3 2.200089 1_555
F8 Li2 1.957340 1_455
F8 Li3 2.077905 1_555
F8 Mn1 2.182320 1_566
F8 Mn2 2.243237 1_555
F8 Li4 2.405941 1_456
F9 Li4 2.095964 1_455
F9 Mn3 2.169474 1_455
F9 Li5 2.175921 1_555
F9 Mn2 2.205891 1_555
F9 Li2 2.371378 1_455
