# generated using pymatgen
data_Li2Cr4Si4O13
_symmetry_space_group_name_H-M   'P 1'
_cell_length_a   6.93987600
_cell_length_b   7.87320941
_cell_length_c   10.34148963
_cell_angle_alpha   108.07467538
_cell_angle_beta   88.28101661
_cell_angle_gamma   99.79968960
_symmetry_Int_Tables_number   1
_chemical_formula_structural   Li2Cr4Si4O13
_chemical_formula_sum   'Li4 Cr8 Si8 O26'
_cell_volume   529.17130577
_cell_formula_units_Z   2
loop_
 _symmetry_equiv_pos_site_id
 _symmetry_equiv_pos_as_xyz
  1  'x, y, z'
loop_
 _atom_site_type_symbol
 _atom_site_label
 _atom_site_symmetry_multiplicity
 _atom_site_fract_x
 _atom_site_fract_y
 _atom_site_fract_z
 _atom_site_occupancy
  Li  Li0  1  0.77881000  0.59802400  0.11142900  1
  Li  Li1  1  0.24751900  0.41004400  0.41217200  1
  Li  Li2  1  0.75248100  0.58995600  0.58782800  1
  Li  Li3  1  0.22119000  0.40197600  0.88857100  1
  Cr  Cr0  1  0.08236300  0.81342800  0.99735300  1
  Cr  Cr1  1  0.56656100  0.81146300  0.00712600  1
  Cr  Cr2  1  0.57169500  0.78863400  0.37980000  1
  Cr  Cr3  1  0.06869900  0.78490600  0.37639800  1
  Cr  Cr4  1  0.93130100  0.21509400  0.62360200  1
  Cr  Cr5  1  0.42830500  0.21136600  0.62020000  1
  Cr  Cr6  1  0.43343900  0.18853700  0.99287400  1
  Cr  Cr7  1  0.91763700  0.18657200  0.00264700  1
  Si  Si0  1  0.27681100  0.57466900  0.16695500  1
  Si  Si1  1  0.71937500  0.39202900  0.29756300  1
  Si  Si2  1  0.37657900  0.09152500  0.27695600  1
  Si  Si3  1  0.92778000  0.08409600  0.28123400  1
  Si  Si4  1  0.07222000  0.91590400  0.71876600  1
  Si  Si5  1  0.62342100  0.90847500  0.72304400  1
  Si  Si6  1  0.28062500  0.60797100  0.70243700  1
  Si  Si7  1  0.72318900  0.42533100  0.83304500  1
  O  O0  1  0.88555000  0.00254200  0.11774800  1
  O  O1  1  0.23049600  0.36151800  0.07381200  1
  O  O2  1  0.49996300  0.66768600  0.14132900  1
  O  O3  1  0.09672700  0.68170700  0.14555100  1
  O  O4  1  0.74197900  0.35663600  0.13556300  1
  O  O5  1  0.40191100  0.01052700  0.11406500  1
  O  O6  1  0.85563200  0.94604900  0.36955000  1
  O  O7  1  0.39954900  0.97182500  0.37452100  1
  O  O8  1  0.27339800  0.60887300  0.33653900  1
  O  O9  1  0.76278400  0.60525400  0.39058700  1
  O  O10  1  0.16157100  0.14978900  0.30985000  1
  O  O11  1  0.50050700  0.30278400  0.33692500  1
  O  O12  1  0.86329500  0.28344700  0.35573800  1
  O  O13  1  0.13670500  0.71655300  0.64426200  1
  O  O14  1  0.49949300  0.69721600  0.66307500  1
  O  O15  1  0.83842900  0.85021100  0.69015000  1
  O  O16  1  0.23721600  0.39474600  0.60941300  1
  O  O17  1  0.72660200  0.39112700  0.66346100  1
  O  O18  1  0.60045100  0.02817500  0.62547900  1
  O  O19  1  0.14436800  0.05395100  0.63045000  1
  O  O20  1  0.59808900  0.98947300  0.88593500  1
  O  O21  1  0.25802100  0.64336400  0.86443700  1
  O  O22  1  0.90327300  0.31829300  0.85444900  1
  O  O23  1  0.50003700  0.33231400  0.85867100  1
  O  O24  1  0.76950400  0.63848200  0.92618800  1
  O  O25  1  0.11445000  0.99745800  0.88225200  1
loop_
_geom_bond_atom_site_label_1
_geom_bond_atom_site_label_2
_geom_bond_distance
_geom_bond_site_symmetry_2
Li0 O4 1.965873 1_555
Li0 O24 2.041687 1_554
Li0 O2 2.088408 1_555
Li0 O3 2.198637 1_655
Li1 O8 1.936544 1_555
Li1 O10 1.987579 1_555
Li1 O16 2.078708 1_555
Li1 O11 2.101468 1_555
Li2 O17 1.936544 1_555
Li2 O15 1.987579 1_555
Li2 O9 2.078708 1_555
Li2 O14 2.101468 1_555
Li3 O21 1.965873 1_555
Li3 O1 2.041687 1_556
Li3 O23 2.088408 1_555
Li3 O22 2.198637 1_455
Cr0 O3 2.113024 1_556
Cr0 O21 2.116912 1_555
Cr0 O25 2.123725 1_555
Cr0 O0 2.252246 1_466
Cr0 O24 2.366808 1_455
Cr0 O5 2.570925 1_566
Cr1 O2 2.044365 1_555
Cr1 O24 2.100921 1_554
Cr1 O5 2.107919 1_565
Cr1 O20 2.133530 1_554
Cr1 O0 2.534355 1_565
Cr1 O21 2.554792 1_554
Cr2 O7 2.037100 1_555
Cr2 O9 2.148530 1_555
Cr2 O6 2.160494 1_555
Cr2 O8 2.270249 1_555
Cr2 O2 2.385697 1_555
Cr2 O18 2.642117 1_565
Cr3 O8 2.095091 1_555
Cr3 O6 2.121725 1_455
Cr3 O3 2.284632 1_555
Cr3 O9 2.370072 1_455
Cr3 O7 2.510544 1_555
Cr4 O17 2.095091 1_555
Cr4 O19 2.121725 1_655
Cr4 O22 2.284632 1_555
Cr4 O16 2.370072 1_655
Cr4 O18 2.510544 1_555
Cr5 O18 2.037100 1_555
Cr5 O16 2.148530 1_555
Cr5 O19 2.160494 1_555
Cr5 O17 2.270249 1_555
Cr5 O23 2.385697 1_555
Cr5 O7 2.642117 1_545
Cr6 O23 2.044365 1_555
Cr6 O1 2.100921 1_556
Cr6 O20 2.107919 1_545
Cr6 O5 2.133530 1_556
Cr6 O25 2.534355 1_545
Cr6 O4 2.554792 1_556
Cr7 O22 2.113024 1_554
Cr7 O4 2.116912 1_555
Cr7 O0 2.123725 1_555
Cr7 O25 2.252246 1_644
Cr7 O1 2.366808 1_655
Cr7 O20 2.570925 1_544
O0 Si3 1.627469 1_555
O1 Si0 1.636869 1_555
O2 Si0 1.647604 1_555
O3 Si0 1.676891 1_555
O4 Si1 1.618145 1_555
O5 Si2 1.621436 1_555
O6 Si3 1.633835 1_565
O7 Si2 1.606987 1_565
O8 Si0 1.689778 1_555
O9 Si1 1.636330 1_555
O10 Si3 1.623484 1_455
O10 Si2 1.630434 1_555
O11 Si1 1.656381 1_555
O11 Si2 1.672060 1_555
O12 Si3 1.650872 1_555
O12 Si1 1.654146 1_555
O13 Si4 1.650872 1_555
O13 Si6 1.654146 1_555
O14 Si6 1.656381 1_555
O14 Si5 1.672060 1_555
O15 Si4 1.623484 1_655
O15 Si5 1.630434 1_555
O16 Si6 1.636330 1_555
O17 Si7 1.689778 1_555
O18 Si5 1.606987 1_545
O19 Si4 1.633835 1_545
O20 Si5 1.621436 1_555
O21 Si6 1.618145 1_555
O22 Si7 1.676891 1_555
O23 Si7 1.647604 1_555
O24 Si7 1.636869 1_555
O25 Si4 1.627469 1_555
