# generated using pymatgen
data_Li6Sn2B4SO16
_symmetry_space_group_name_H-M   'P 1'
_cell_length_a   9.56676725
_cell_length_b   9.56676725
_cell_length_c   9.56676725
_cell_angle_alpha   60.00000000
_cell_angle_beta   60.00000000
_cell_angle_gamma   60.00000000
_symmetry_Int_Tables_number   1
_chemical_formula_structural   Li6Sn2B4SO16
_chemical_formula_sum   'Li12 Sn4 B8 S2 O32'
_cell_volume   619.12825927
_cell_formula_units_Z   2
loop_
 _symmetry_equiv_pos_site_id
 _symmetry_equiv_pos_as_xyz
  1  'x, y, z'
loop_
 _atom_site_type_symbol
 _atom_site_label
 _atom_site_symmetry_multiplicity
 _atom_site_fract_x
 _atom_site_fract_y
 _atom_site_fract_z
 _atom_site_occupancy
  Li  Li0  1  0.21659900  0.21659900  0.78340100  1
  Li  Li1  1  0.78340100  0.21659900  0.21659900  1
  Li  Li2  1  0.78340100  0.21659900  0.78340100  1
  Li  Li3  1  0.21659900  0.78340100  0.21659900  1
  Li  Li4  1  0.46659900  0.46659900  0.03340100  1
  Li  Li5  1  0.03340100  0.46659900  0.46659900  1
  Li  Li6  1  0.21659900  0.78340100  0.78340100  1
  Li  Li7  1  0.78340100  0.78340100  0.21659900  1
  Li  Li8  1  0.03340100  0.46659900  0.03340100  1
  Li  Li9  1  0.46659900  0.03340100  0.46659900  1
  Li  Li10  1  0.03340100  0.03340100  0.46659900  1
  Li  Li11  1  0.46659900  0.03340100  0.03340100  1
  Sn  Sn0  1  0.62500000  0.12500000  0.62500000  1
  Sn  Sn1  1  0.62500000  0.62500000  0.12500000  1
  Sn  Sn2  1  0.12500000  0.62500000  0.62500000  1
  Sn  Sn3  1  0.62500000  0.62500000  0.62500000  1
  B  B0  1  0.40312300  0.40312300  0.40312300  1
  B  B1  1  0.79063000  0.40312300  0.40312300  1
  B  B2  1  0.40312300  0.40312300  0.79063000  1
  B  B3  1  0.40312300  0.79063000  0.40312300  1
  B  B4  1  0.84687700  0.45937000  0.84687700  1
  B  B5  1  0.84687700  0.84687700  0.45937000  1
  B  B6  1  0.45937000  0.84687700  0.84687700  1
  B  B7  1  0.84687700  0.84687700  0.84687700  1
  S  S0  1  0.25000000  0.25000000  0.25000000  1
  S  S1  1  0.00000000  0.00000000  0.00000000  1
  O  O0  1  0.18604000  0.18604000  0.18604000  1
  O  O1  1  0.18604000  0.18604000  0.44188000  1
  O  O2  1  0.44188000  0.18604000  0.18604000  1
  O  O3  1  0.18604000  0.44188000  0.18604000  1
  O  O4  1  0.41273100  0.25404400  0.54288800  1
  O  O5  1  0.54288800  0.41273100  0.25404400  1
  O  O6  1  0.79033800  0.25404400  0.41273100  1
  O  O7  1  0.25404400  0.54288800  0.41273100  1
  O  O8  1  0.54288800  0.25404400  0.79033800  1
  O  O9  1  0.25404400  0.41273100  0.79033800  1
  O  O10  1  0.79033800  0.54288800  0.25404400  1
  O  O11  1  0.79033800  0.41273100  0.54288800  1
  O  O12  1  0.41273100  0.79033800  0.25404400  1
  O  O13  1  0.41273100  0.54288800  0.79033800  1
  O  O14  1  0.25404400  0.79033800  0.54288800  1
  O  O15  1  0.70711200  0.45966200  0.83726900  1
  O  O16  1  0.54288800  0.79033800  0.41273100  1
  O  O17  1  0.99595600  0.45966200  0.70711200  1
  O  O18  1  0.83726900  0.70711200  0.45966200  1
  O  O19  1  0.83726900  0.45966200  0.99595600  1
  O  O20  1  0.45966200  0.83726900  0.70711200  1
  O  O21  1  0.45966200  0.70711200  0.99595600  1
  O  O22  1  0.99595600  0.83726900  0.45966200  1
  O  O23  1  0.70711200  0.99595600  0.45966200  1
  O  O24  1  0.99595600  0.70711200  0.83726900  1
  O  O25  1  0.45966200  0.99595600  0.83726900  1
  O  O26  1  0.70711200  0.83726900  0.99595600  1
  O  O27  1  0.83726900  0.99595600  0.70711200  1
  O  O28  1  0.06396000  0.80812000  0.06396000  1
  O  O29  1  0.06396000  0.06396000  0.80812000  1
  O  O30  1  0.80812000  0.06396000  0.06396000  1
  O  O31  1  0.06396000  0.06396000  0.06396000  1
loop_
_geom_bond_atom_site_label_1
_geom_bond_atom_site_label_2
_geom_bond_distance
_geom_bond_site_symmetry_2
Li0 O4 2.115148 1_555
Li0 O9 2.115154 1_555
Li0 O25 2.308790 1_545
Li0 O17 2.308793 1_455
Li0 O29 2.400493 1_555
Li0 O31 2.400493 1_556
Li1 O5 2.115148 1_555
Li1 O6 2.115154 1_555
Li1 O19 2.308790 1_554
Li1 O23 2.308793 1_545
Li1 O30 2.400493 1_555
Li1 O31 2.400493 1_655
Li2 O8 2.115144 1_555
Li2 O11 2.115148 1_555
Li2 O15 2.308787 1_555
Li2 O27 2.308796 1_545
Li2 O29 2.400493 1_655
Li2 O30 2.400493 1_556
Li3 O7 2.115148 1_555
Li3 O12 2.115154 1_555
Li3 O22 2.308790 1_455
Li3 O21 2.308793 1_554
Li3 O28 2.400493 1_555
Li3 O31 2.400493 1_565
Li4 O21 2.115144 1_554
Li4 O15 2.115148 1_554
Li4 O13 2.308787 1_554
Li4 O5 2.308796 1_555
Li4 O3 2.400493 1_555
Li4 O2 2.400493 1_555
Li5 O17 2.115144 1_455
Li5 O18 2.115148 1_455
Li5 O11 2.308787 1_455
Li5 O7 2.308796 1_555
Li5 O3 2.400493 1_555
Li5 O1 2.400493 1_555
Li6 O14 2.115144 1_555
Li6 O13 2.115148 1_555
Li6 O20 2.308787 1_555
Li6 O24 2.308796 1_455
Li6 O29 2.400493 1_565
Li6 O28 2.400493 1_556
Li7 O10 2.115144 1_555
Li7 O16 2.115148 1_555
Li7 O18 2.308787 1_555
Li7 O26 2.308796 1_554
Li7 O28 2.400493 1_655
Li7 O30 2.400493 1_565
Li8 O24 2.115148 1_454
Li8 O19 2.115154 1_454
Li8 O9 2.308790 1_554
Li8 O10 2.308793 1_455
Li8 O0 2.400493 1_555
Li8 O3 2.400493 1_555
Li9 O23 2.115144 1_545
Li9 O20 2.115148 1_545
Li9 O16 2.308787 1_545
Li9 O4 2.308796 1_555
Li9 O2 2.400493 1_555
Li9 O1 2.400493 1_555
Li10 O27 2.115148 1_445
Li10 O22 2.115154 1_445
Li10 O6 2.308790 1_455
Li10 O14 2.308793 1_545
Li10 O0 2.400493 1_555
Li10 O1 2.400493 1_555
Li11 O26 2.115148 1_544
Li11 O25 2.115154 1_544
Li11 O12 2.308790 1_545
Li11 O8 2.308793 1_554
Li11 O0 2.400493 1_555
Li11 O2 2.400493 1_555
B0 O5 1.383898 1_555
B0 O7 1.383898 1_555
B0 O4 1.383898 1_555
B1 O6 1.383889 1_555
B1 O10 1.383898 1_555
B1 O11 1.383908 1_555
B2 O9 1.383889 1_555
B2 O8 1.383898 1_555
B2 O13 1.383908 1_555
B3 O12 1.383889 1_555
B3 O14 1.383898 1_555
B3 O16 1.383908 1_555
B4 O19 1.383889 1_555
B4 O17 1.383898 1_555
B4 O15 1.383908 1_555
B5 O22 1.383889 1_555
B5 O23 1.383898 1_555
B5 O18 1.383908 1_555
B6 O25 1.383889 1_555
B6 O21 1.383898 1_555
B6 O20 1.383908 1_555
B7 O24 1.383898 1_555
B7 O26 1.383898 1_555
B7 O27 1.383898 1_555
O0 S0 1.498819 1_555
O1 S0 1.498819 1_555
O2 S0 1.498819 1_555
O3 S0 1.498819 1_555
O4 Sn0 2.093671 1_555
O5 Sn1 2.093671 1_555
O6 Sn0 2.093676 1_555
O7 Sn2 2.093671 1_555
O8 Sn0 2.093679 1_555
O9 Sn2 2.093676 1_555
O10 Sn1 2.093679 1_555
O11 Sn3 2.093672 1_555
O12 Sn1 2.093676 1_555
O13 Sn3 2.093672 1_555
O14 Sn2 2.093679 1_555
O15 Sn3 2.093672 1_555
O16 Sn3 2.093672 1_555
O17 Sn2 2.093679 1_655
O18 Sn3 2.093672 1_555
O19 Sn1 2.093676 1_556
O20 Sn3 2.093672 1_555
O21 Sn1 2.093679 1_556
O22 Sn2 2.093676 1_655
O23 Sn0 2.093679 1_565
O24 Sn2 2.093671 1_655
O25 Sn0 2.093676 1_565
O26 Sn1 2.093671 1_556
O27 Sn0 2.093671 1_565
O28 S1 1.498819 1_565
O29 S1 1.498819 1_556
O30 S1 1.498819 1_655
O31 S1 1.498819 1_555
