# generated using pymatgen
data_Li2(FeO2)3
_symmetry_space_group_name_H-M   'P 1'
_cell_length_a   4.98791880
_cell_length_b   4.98791880
_cell_length_c   5.13666945
_cell_angle_alpha   81.02944973
_cell_angle_beta   81.02944973
_cell_angle_gamma   120.27878239
_symmetry_Int_Tables_number   1
_chemical_formula_structural   Li2(FeO2)3
_chemical_formula_sum   'Li2 Fe3 O6'
_cell_volume   104.81141812
_cell_formula_units_Z   1
loop_
 _symmetry_equiv_pos_site_id
 _symmetry_equiv_pos_as_xyz
  1  'x, y, z'
loop_
 _atom_site_type_symbol
 _atom_site_label
 _atom_site_symmetry_multiplicity
 _atom_site_fract_x
 _atom_site_fract_y
 _atom_site_fract_z
 _atom_site_occupancy
  Li  Li0  1  0.66776000  0.33224000  0.00000000  1
  Li  Li1  1  0.33224000  0.66776000  0.00000000  1
  Fe  Fe0  1  0.83475700  0.16524300  0.50000000  1
  Fe  Fe1  1  0.50000000  0.50000000  0.50000000  1
  Fe  Fe2  1  0.16524300  0.83475700  0.50000000  1
  O  O0  1  0.74829200  0.74829200  0.71185800  1
  O  O1  1  0.44058800  0.10220100  0.71014500  1
  O  O2  1  0.10220100  0.44058800  0.71014500  1
  O  O3  1  0.89779900  0.55941200  0.28985500  1
  O  O4  1  0.55941200  0.89779900  0.28985500  1
  O  O5  1  0.25170800  0.25170800  0.28814200  1
loop_
_geom_bond_atom_site_label_1
_geom_bond_atom_site_label_2
_geom_bond_distance
_geom_bond_site_symmetry_2
Li0 O3 2.136608 1_555
Li0 O1 2.136608 1_554
Li0 O5 2.162112 1_555
Li0 O0 2.162112 1_554
Li0 O4 2.183238 1_545
Li0 O2 2.183238 1_654
Li1 O4 2.136608 1_555
Li1 O2 2.136608 1_554
Li1 O5 2.162112 1_555
Li1 O0 2.162112 1_554
Li1 O3 2.183238 1_455
Li1 O1 2.183238 1_564
Fe0 O1 1.933503 1_555
Fe0 O3 1.933503 1_555
Fe0 O2 1.973530 1_655
Fe0 O4 1.973530 1_545
Fe0 O0 1.984654 1_545
Fe0 O5 1.984654 1_655
Fe1 O0 1.883017 1_555
Fe1 O5 1.883017 1_555
Fe1 O2 1.956882 1_555
Fe1 O1 1.956882 1_555
Fe1 O3 1.956882 1_555
Fe1 O4 1.956882 1_555
Fe2 O2 1.933503 1_555
Fe2 O4 1.933503 1_555
Fe2 O1 1.973530 1_565
Fe2 O3 1.973530 1_455
Fe2 O5 1.984654 1_565
Fe2 O0 1.984654 1_455
