# generated using pymatgen
data_Mn2Si4O11
_symmetry_space_group_name_H-M   'P 1'
_cell_length_a   7.09213600
_cell_length_b   7.47744050
_cell_length_c   8.32463954
_cell_angle_alpha   97.45748132
_cell_angle_beta   104.03270998
_cell_angle_gamma   110.32494741
_symmetry_Int_Tables_number   1
_chemical_formula_structural   Mn2Si4O11
_chemical_formula_sum   'Mn4 Si8 O22'
_cell_volume   390.35257750
_cell_formula_units_Z   2
loop_
 _symmetry_equiv_pos_site_id
 _symmetry_equiv_pos_as_xyz
  1  'x, y, z'
loop_
 _atom_site_type_symbol
 _atom_site_label
 _atom_site_symmetry_multiplicity
 _atom_site_fract_x
 _atom_site_fract_y
 _atom_site_fract_z
 _atom_site_occupancy
  Mn  Mn0  1  0.13493471  0.37311562  0.60797409  1
  Mn  Mn1  1  0.64581119  0.37456302  0.60911365  1
  Mn  Mn2  1  0.35418881  0.62543698  0.39088635  1
  Mn  Mn3  1  0.86506529  0.62688438  0.39202591  1
  Si  Si0  1  0.77221553  0.62355996  0.98015085  1
  Si  Si1  1  0.05832555  0.80031990  0.78849834  1
  Si  Si2  1  0.48676073  0.79673613  0.79375171  1
  Si  Si3  1  0.21908894  0.01629029  0.39058076  1
  Si  Si4  1  0.78091106  0.98370971  0.60941924  1
  Si  Si5  1  0.51323927  0.20326387  0.20624829  1
  Si  Si6  1  0.94167445  0.19968010  0.21150166  1
  Si  Si7  1  0.22778447  0.37644004  0.01984915  1
  O  O0  1  0.19300393  0.42378837  0.83621995  1
  O  O1  1  0.61887032  0.74426722  0.95202343  1
  O  O2  1  0.67946095  0.42318044  0.83348056  1
  O  O3  1  0.99138722  0.76831935  0.95608087  1
  O  O4  1  0.30647884  0.85665350  0.83656042  1
  O  O5  1  0.63177496  0.97560484  0.73030334  1
  O  O6  1  0.38570524  0.60610503  0.62777816  1
  O  O7  1  0.34618570  0.21032319  0.54933807  1
  O  O8  1  0.84464806  0.19688821  0.56255672  1
  O  O9  1  0.00129757  0.97074760  0.71174225  1
  O  O10  1  0.91972696  0.59895101  0.63127684  1
  O  O11  1  0.08027304  0.40104899  0.36872316  1
  O  O12  1  0.99870243  0.02925240  0.28825775  1
  O  O13  1  0.15535194  0.80311179  0.43744328  1
  O  O14  1  0.65381430  0.78967681  0.45066193  1
  O  O15  1  0.61429476  0.39389497  0.37222184  1
  O  O16  1  0.36822504  0.02439516  0.26969666  1
  O  O17  1  0.69352116  0.14334650  0.16343958  1
  O  O18  1  0.00861278  0.23168065  0.04391913  1
  O  O19  1  0.32053905  0.57681956  0.16651944  1
  O  O20  1  0.38112968  0.25573278  0.04797657  1
  O  O21  1  0.80699607  0.57621163  0.16378005  1
loop_
_geom_bond_atom_site_label_1
_geom_bond_atom_site_label_2
_geom_bond_distance
_geom_bond_site_symmetry_2
Mn0 O0 1.802402 1_555
Mn0 O8 1.930392 1_455
Mn0 O6 1.963716 1_555
Mn0 O11 1.987585 1_555
Mn0 O7 2.330670 1_555
Mn0 O10 2.658535 1_455
Mn1 O2 1.795829 1_555
Mn1 O7 1.946034 1_555
Mn1 O15 1.960224 1_555
Mn1 O10 2.025983 1_555
Mn1 O8 2.310140 1_555
Mn2 O19 1.795829 1_555
Mn2 O14 1.946034 1_555
Mn2 O6 1.960224 1_555
Mn2 O11 2.025983 1_555
Mn2 O13 2.310140 1_555
Mn3 O21 1.802402 1_555
Mn3 O13 1.930392 1_655
Mn3 O15 1.963716 1_555
Mn3 O10 1.987585 1_555
Mn3 O14 2.330670 1_555
Mn3 O11 2.658535 1_655
O0 Si7 1.594130 1_556
O1 Si2 1.599568 1_555
O1 Si0 1.632638 1_555
O2 Si0 1.618456 1_555
O3 Si1 1.599296 1_655
O3 Si0 1.632931 1_555
O4 Si1 1.592063 1_555
O4 Si2 1.593728 1_555
O5 Si2 1.617653 1_555
O5 Si4 1.619424 1_555
O6 Si2 1.659329 1_555
O7 Si3 1.637127 1_555
O8 Si4 1.625986 1_545
O9 Si1 1.624795 1_555
O9 Si4 1.630639 1_455
O10 Si1 1.668163 1_655
O11 Si6 1.668163 1_455
O12 Si6 1.624795 1_555
O12 Si3 1.630639 1_655
O13 Si3 1.625986 1_565
O14 Si4 1.637127 1_555
O15 Si5 1.659329 1_555
O16 Si5 1.617653 1_555
O16 Si3 1.619424 1_555
O17 Si6 1.592063 1_555
O17 Si5 1.593728 1_555
O18 Si6 1.599296 1_455
O18 Si7 1.632931 1_555
O19 Si7 1.618456 1_555
O20 Si5 1.599568 1_555
O20 Si7 1.632638 1_555
O21 Si0 1.594130 1_554
