# generated using pymatgen
data_FeP2H24C8S4NClO4
_symmetry_space_group_name_H-M   'P 1'
_cell_length_a   7.36081800
_cell_length_b   8.79614631
_cell_length_c   16.85196532
_cell_angle_alpha   95.75746466
_cell_angle_beta   94.47275448
_cell_angle_gamma   90.41190619
_symmetry_Int_Tables_number   1
_chemical_formula_structural   FeP2H24C8S4NClO4
_chemical_formula_sum   'Fe2 P4 H48 C16 S8 N2 Cl2 O8'
_cell_volume   1082.17706665
_cell_formula_units_Z   2
loop_
 _symmetry_equiv_pos_site_id
 _symmetry_equiv_pos_as_xyz
  1  'x, y, z'
loop_
 _atom_site_type_symbol
 _atom_site_label
 _atom_site_symmetry_multiplicity
 _atom_site_fract_x
 _atom_site_fract_y
 _atom_site_fract_z
 _atom_site_occupancy
  Fe  Fe0  1  0.25105400  0.83110800  0.75664200  1
  Fe  Fe1  1  0.74894600  0.16889200  0.24335800  1
  P  P0  1  0.18641600  0.67607400  0.90580500  1
  P  P1  1  0.81358400  0.32392600  0.09419500  1
  P  P2  1  0.26593600  0.77315200  0.57350400  1
  P  P3  1  0.73406400  0.22684800  0.42649600  1
  H  H0  1  0.38799700  0.91799600  0.06007600  1
  H  H1  1  0.61200300  0.08200400  0.93992400  1
  H  H2  1  0.31801100  0.95675000  0.95981900  1
  H  H3  1  0.68198900  0.04325000  0.04018100  1
  H  H4  1  0.16051500  0.98028200  0.03645700  1
  H  H5  1  0.83948500  0.01971800  0.96354300  1
  H  H6  1  0.16827200  0.30163700  0.96640300  1
  H  H7  1  0.83172800  0.69836300  0.03359700  1
  H  H8  1  0.27107200  0.46022000  0.02880700  1
  H  H9  1  0.72892800  0.53978000  0.97119300  1
  H  H10  1  0.36984200  0.39092400  0.93772800  1
  H  H11  1  0.63015800  0.60907600  0.06227200  1
  H  H12  1  0.37513000  0.46217200  0.56840100  1
  H  H13  1  0.62487000  0.53782800  0.43159900  1
  H  H14  1  0.13119100  0.45153800  0.54865800  1
  H  H15  1  0.86880900  0.54846200  0.45134200  1
  H  H16  1  0.27579100  0.40345600  0.46914100  1
  H  H17  1  0.72420900  0.59654400  0.53085900  1
  H  H18  1  0.14428900  0.08683000  0.57539200  1
  H  H19  1  0.85571100  0.91317000  0.42460800  1
  H  H20  1  0.26481300  0.12696800  0.49077100  1
  H  H21  1  0.73518700  0.87303200  0.50922900  1
  H  H22  1  0.38968800  0.08832100  0.58255800  1
  H  H23  1  0.61031200  0.91167900  0.41744200  1
  H  H24  1  0.38244700  0.51633300  0.28138700  1
  H  H25  1  0.61755300  0.48366700  0.71861300  1
  H  H26  1  0.50482300  0.69467800  0.28372000  1
  H  H27  1  0.49517700  0.30532200  0.71628000  1
  H  H28  1  0.38003900  0.65408600  0.36762900  1
  H  H29  1  0.61996100  0.34591400  0.63237100  1
  H  H30  1  0.04842100  0.51435100  0.26990500  1
  H  H31  1  0.95157900  0.48564900  0.73009500  1
  H  H32  1  0.05739000  0.64963200  0.35776300  1
  H  H33  1  0.94261100  0.35036800  0.64223700  1
  H  H34  1  0.92900800  0.69180500  0.26696700  1
  H  H35  1  0.07099200  0.30819500  0.73303300  1
  H  H36  1  0.22353400  0.89488000  0.35818200  1
  H  H37  1  0.77646600  0.10512000  0.64181800  1
  H  H38  1  0.09749800  0.92874600  0.26603100  1
  H  H39  1  0.90250200  0.07125400  0.73396900  1
  H  H40  1  0.34360700  0.92878100  0.27259100  1
  H  H41  1  0.65639300  0.07121900  0.72740900  1
  H  H42  1  0.09175000  0.74234800  0.15181400  1
  H  H43  1  0.90825000  0.25765200  0.84818600  1
  H  H44  1  0.20754600  0.56509600  0.15728600  1
  H  H45  1  0.79245400  0.43490400  0.84271400  1
  H  H46  1  0.33743900  0.74019800  0.15851200  1
  H  H47  1  0.66256100  0.25980200  0.84148800  1
  C  C0  1  0.27383100  0.91234800  0.01392500  1
  C  C1  1  0.72616900  0.08765200  0.98607500  1
  C  C2  1  0.24236900  0.41008100  0.96690800  1
  C  C3  1  0.75763100  0.58991900  0.03309200  1
  C  C4  1  0.26067200  0.47793900  0.52434200  1
  C  C5  1  0.73932800  0.52206100  0.47565800  1
  C  C6  1  0.26593300  0.06148700  0.54274800  1
  C  C7  1  0.73406700  0.93851300  0.45725200  1
  C  C8  1  0.38397700  0.63849200  0.30250200  1
  C  C9  1  0.61602300  0.36150800  0.69749800  1
  C  C10  1  0.05000000  0.63600500  0.29219800  1
  C  C11  1  0.95000000  0.36399500  0.70780200  1
  C  C12  1  0.22040700  0.87852500  0.29269200  1
  C  C13  1  0.77959300  0.12147500  0.70730800  1
  C  C14  1  0.21405500  0.68768900  0.17654800  1
  C  C15  1  0.78594500  0.31231100  0.82345200  1
  S  S0  1  0.42116800  0.67894400  0.85229500  1
  S  S1  1  0.57883200  0.32105600  0.14770500  1
  S  S2  1  0.98423200  0.76761100  0.84214000  1
  S  S3  1  0.01576800  0.23238900  0.15786000  1
  S  S4  1  0.04149700  0.77710600  0.63355500  1
  S  S5  1  0.95850300  0.22289400  0.36644500  1
  S  S6  1  0.49000200  0.77786400  0.64764500  1
  S  S7  1  0.50999800  0.22213600  0.35235500  1
  N  N0  1  0.21697000  0.71008600  0.26614000  1
  N  N1  1  0.78303000  0.28991400  0.73386000  1
  Cl  Cl0  1  0.30066700  0.09329900  0.79306600  1
  Cl  Cl1  1  0.69933300  0.90670100  0.20693400  1
  O  O0  1  0.21446100  0.75386500  0.99724900  1
  O  O1  1  0.78553900  0.24613500  0.00275100  1
  O  O2  1  0.12369500  0.50786600  0.92206100  1
  O  O3  1  0.87630500  0.49213400  0.07793900  1
  O  O4  1  0.26085800  0.63306400  0.50292500  1
  O  O5  1  0.73914200  0.36693600  0.49707500  1
  O  O6  1  0.26383800  0.90206500  0.51136700  1
  O  O7  1  0.73616200  0.09793500  0.48863300  1
loop_
_geom_bond_atom_site_label_1
_geom_bond_atom_site_label_2
_geom_bond_distance
_geom_bond_site_symmetry_2
Fe0 S0 2.469803 1_555
Fe0 S4 2.490033 1_555
Fe0 S2 2.613875 1_455
Fe0 S6 2.651401 1_555
Fe1 S1 2.469803 1_555
Fe1 S5 2.490033 1_555
Fe1 S3 2.613875 1_655
Fe1 S7 2.651401 1_555
P0 S2 1.988905 1_455
P0 S0 2.011623 1_555
P1 S3 1.988905 1_655
P1 S1 2.011623 1_555
P2 S6 1.987515 1_555
P2 S4 2.002277 1_555
P3 S7 1.987515 1_555
P3 S5 2.002277 1_555
C0 H0 1.096926 1_555
C0 H2 1.097968 1_554
C0 H4 1.099097 1_555
C0 O0 1.451477 1_554
C1 H1 1.096926 1_555
C1 H3 1.097968 1_556
C1 H5 1.099097 1_555
C1 O1 1.451477 1_556
C2 H6 1.094359 1_555
C2 H8 1.095093 1_556
C2 H10 1.099197 1_555
C2 O2 1.453384 1_555
C3 H7 1.094359 1_555
C3 H9 1.095093 1_554
C3 H11 1.099197 1_555
C3 O3 1.453384 1_555
C4 H16 1.096310 1_555
C4 H12 1.097771 1_555
C4 H14 1.098654 1_555
C4 O4 1.446025 1_555
C5 H17 1.096310 1_555
C5 H13 1.097771 1_555
C5 H15 1.098654 1_555
C5 O5 1.446025 1_555
C6 H20 1.095086 1_555
C6 H22 1.097915 1_555
C6 H18 1.099615 1_555
C6 O6 1.447748 1_545
C7 H21 1.095086 1_555
C7 H23 1.097915 1_555
C7 H19 1.099615 1_555
C7 O7 1.447748 1_565
C8 H28 1.094996 1_555
C8 H24 1.097197 1_555
C8 H26 1.097573 1_555
C8 N0 1.501446 1_555
C9 H29 1.094996 1_555
C9 H25 1.097197 1_555
C9 H27 1.097573 1_555
C9 N1 1.501446 1_555
C10 H32 1.096398 1_555
C10 H34 1.097251 1_455
C10 H30 1.097651 1_555
C10 N0 1.502683 1_555
C11 H33 1.096398 1_555
C11 H35 1.097251 1_655
C11 H31 1.097651 1_555
C11 N1 1.502683 1_555
C12 H38 1.094384 1_555
C12 H36 1.096983 1_555
C12 H40 1.097605 1_555
C12 N0 1.503569 1_555
C13 H39 1.094384 1_555
C13 H37 1.096983 1_555
C13 H41 1.097605 1_555
C13 N1 1.503569 1_555
C14 H46 1.093499 1_555
C14 H44 1.094118 1_555
C14 H42 1.096939 1_555
C14 N0 1.501327 1_555
C15 H47 1.093499 1_555
C15 H45 1.094118 1_555
C15 H43 1.096939 1_555
C15 N1 1.501327 1_555
Cl0 Fe0 2.344765 1_545
Cl1 Fe1 2.344765 1_565
O0 P0 1.619363 1_555
O1 P1 1.619363 1_555
O2 P0 1.602680 1_555
O3 P1 1.602680 1_555
O4 P2 1.622593 1_555
O5 P3 1.622593 1_555
O6 P2 1.618177 1_555
O7 P3 1.618177 1_555
