# generated using pymatgen
data_LiMnF4
_symmetry_space_group_name_H-M   'P 1'
_cell_length_a   7.61026900
_cell_length_b   7.64543100
_cell_length_c   10.06422700
_cell_angle_alpha   90.00000000
_cell_angle_beta   90.00000000
_cell_angle_gamma   90.00000000
_symmetry_Int_Tables_number   1
_chemical_formula_structural   LiMnF4
_chemical_formula_sum   'Li8 Mn8 F32'
_cell_volume   585.57483537
_cell_formula_units_Z   8
loop_
 _symmetry_equiv_pos_site_id
 _symmetry_equiv_pos_as_xyz
  1  'x, y, z'
loop_
 _atom_site_type_symbol
 _atom_site_label
 _atom_site_symmetry_multiplicity
 _atom_site_fract_x
 _atom_site_fract_y
 _atom_site_fract_z
 _atom_site_occupancy
  Li  Li0  1  0.75228100  0.00000000  0.77147600  1
  Li  Li1  1  0.19032200  0.00000000  0.78857200  1
  Li  Li2  1  0.99023500  0.00000000  0.26964500  1
  Li  Li3  1  0.47603700  0.00000000  0.29414200  1
  Li  Li4  1  0.97603700  0.50000000  0.70585800  1
  Li  Li5  1  0.69032200  0.50000000  0.21142800  1
  Li  Li6  1  0.49023500  0.50000000  0.73035500  1
  Li  Li7  1  0.25228100  0.50000000  0.22852400  1
  Mn  Mn0  1  0.50324600  0.75333600  0.00583900  1
  Mn  Mn1  1  0.25520900  0.75165100  0.50620000  1
  Mn  Mn2  1  0.75520900  0.74834900  0.49380000  1
  Mn  Mn3  1  0.00324600  0.74666400  0.99416100  1
  Mn  Mn4  1  0.00324600  0.25333600  0.99416100  1
  Mn  Mn5  1  0.75520900  0.25165100  0.49380000  1
  Mn  Mn6  1  0.25520900  0.24834900  0.50620000  1
  Mn  Mn7  1  0.50324600  0.24666400  0.00583900  1
  F  F0  1  0.78654000  0.00000000  0.57528000  1
  F  F1  1  0.21901800  0.00000000  0.59298900  1
  F  F2  1  0.96948000  0.00000000  0.07318800  1
  F  F3  1  0.52493800  0.00000000  0.09739200  1
  F  F4  1  0.55965600  0.83581800  0.84297900  1
  F  F5  1  0.80245200  0.82787800  0.32622400  1
  F  F6  1  0.20797000  0.83808100  0.34090400  1
  F  F7  1  0.96248200  0.83250900  0.82464300  1
  F  F8  1  0.50406700  0.81400500  0.46270900  1
  F  F9  1  0.25321600  0.81184200  0.96233900  1
  F  F10  1  0.75321600  0.68815800  0.03766100  1
  F  F11  1  0.00406700  0.68599500  0.53729100  1
  F  F12  1  0.46248200  0.66749100  0.17535700  1
  F  F13  1  0.70797000  0.66191900  0.65909600  1
  F  F14  1  0.30245200  0.67212200  0.67377600  1
  F  F15  1  0.05965600  0.66418200  0.15702100  1
  F  F16  1  0.71901800  0.50000000  0.40701100  1
  F  F17  1  0.46948000  0.50000000  0.92681200  1
  F  F18  1  0.02493800  0.50000000  0.90260800  1
  F  F19  1  0.28654000  0.50000000  0.42472000  1
  F  F20  1  0.05965600  0.33581800  0.15702100  1
  F  F21  1  0.30245200  0.32787800  0.67377600  1
  F  F22  1  0.70797000  0.33808100  0.65909600  1
  F  F23  1  0.46248200  0.33250900  0.17535700  1
  F  F24  1  0.00406700  0.31400500  0.53729100  1
  F  F25  1  0.75321600  0.31184200  0.03766100  1
  F  F26  1  0.25321600  0.18815800  0.96233900  1
  F  F27  1  0.50406700  0.18599500  0.46270900  1
  F  F28  1  0.96248200  0.16749100  0.82464300  1
  F  F29  1  0.20797000  0.16191900  0.34090400  1
  F  F30  1  0.80245200  0.17212200  0.32622400  1
  F  F31  1  0.55965600  0.16418200  0.84297900  1
loop_
_geom_bond_atom_site_label_1
_geom_bond_atom_site_label_2
_geom_bond_distance
_geom_bond_site_symmetry_2
F0 Li0 1.991699 1_555
F0 Mn5 2.104996 1_555
F0 Mn2 2.104996 1_545
F1 Li1 1.980469 1_555
F1 Mn6 2.108078 1_555
F1 Mn1 2.108078 1_545
F2 Li2 1.983487 1_555
F2 Mn4 2.109513 1_654
F2 Mn3 2.109513 1_644
F3 Li3 2.014804 1_555
F3 Mn0 2.105395 1_545
F3 Mn7 2.105395 1_555
F4 Mn0 1.807894 1_556
F4 Li0 2.059717 1_565
F5 Mn2 1.828477 1_555
F5 Li2 2.024408 1_565
F6 Mn1 1.825754 1_555
F6 Li2 2.189189 1_465
F6 Li3 2.432249 1_565
F7 Mn3 1.854094 1_655
F7 Li0 2.117805 1_565
F7 Li1 2.185878 1_665
F8 Mn2 2.000698 1_555
F8 Mn1 2.001404 1_555
F8 Li3 2.223898 1_565
F9 Mn3 1.992430 1_555
F9 Mn0 2.003091 1_556
F9 Li1 2.314504 1_565
F10 Mn0 1.992430 1_555
F10 Mn3 2.003091 1_654
F10 Li5 2.314504 1_555
F11 Mn1 2.000698 1_555
F11 Mn2 2.001404 1_455
F11 Li4 2.223898 1_455
F12 Mn0 1.854094 1_555
F12 Li7 2.117805 1_555
F12 Li5 2.185878 1_555
F13 Mn2 1.825754 1_555
F13 Li6 2.189189 1_555
F13 Li4 2.432249 1_555
F14 Mn1 1.828477 1_555
F14 Li6 2.024408 1_555
F15 Mn3 1.807894 1_554
F15 Li7 2.059717 1_555
F16 Li5 1.980469 1_555
F16 Mn2 2.108078 1_555
F16 Mn5 2.108078 1_555
F17 Li6 1.983487 1_555
F17 Mn7 2.109513 1_556
F17 Mn0 2.109513 1_556
F18 Li4 2.014804 1_455
F18 Mn3 2.105395 1_555
F18 Mn4 2.105395 1_555
F19 Li7 1.991699 1_555
F19 Mn1 2.104996 1_555
F19 Mn6 2.104996 1_555
F20 Mn4 1.807894 1_554
F20 Li7 2.059717 1_555
F21 Mn6 1.828477 1_555
F21 Li6 2.024408 1_555
F22 Mn5 1.825754 1_555
F22 Li6 2.189189 1_555
F22 Li4 2.432249 1_555
F23 Mn7 1.854094 1_555
F23 Li7 2.117805 1_555
F23 Li5 2.185878 1_555
F24 Mn6 2.000698 1_555
F24 Mn5 2.001404 1_455
F24 Li4 2.223898 1_455
F25 Mn7 1.992430 1_555
F25 Mn4 2.003091 1_654
F25 Li5 2.314504 1_555
F26 Mn4 1.992430 1_555
F26 Mn7 2.003091 1_556
F26 Li1 2.314504 1_555
F27 Mn5 2.000698 1_555
F27 Mn6 2.001404 1_555
F27 Li3 2.223898 1_555
F28 Mn4 1.854094 1_655
F28 Li0 2.117805 1_555
F28 Li1 2.185878 1_655
F29 Mn6 1.825754 1_555
F29 Li2 2.189189 1_455
F29 Li3 2.432249 1_555
F30 Mn5 1.828477 1_555
F30 Li2 2.024408 1_555
F31 Mn7 1.807894 1_556
F31 Li0 2.059717 1_555
