# generated using pymatgen
data_Li4Cu7(PO4)6
_symmetry_space_group_name_H-M   'P 1'
_cell_length_a   8.86989623
_cell_length_b   8.86989623
_cell_length_c   6.30400770
_cell_angle_alpha   81.31376216
_cell_angle_beta   81.31376216
_cell_angle_gamma   105.86771228
_symmetry_Int_Tables_number   1
_chemical_formula_structural   Li4Cu7(PO4)6
_chemical_formula_sum   'Li4 Cu7 P6 O24'
_cell_volume   461.85122177
_cell_formula_units_Z   1
loop_
 _symmetry_equiv_pos_site_id
 _symmetry_equiv_pos_as_xyz
  1  'x, y, z'
loop_
 _atom_site_type_symbol
 _atom_site_label
 _atom_site_symmetry_multiplicity
 _atom_site_fract_x
 _atom_site_fract_y
 _atom_site_fract_z
 _atom_site_occupancy
  Li  Li0  1  0.98847100  0.98847100  0.49678100  1
  Li  Li1  1  0.63430100  0.63430100  0.58790700  1
  Li  Li2  1  0.31878000  0.53781000  0.49489100  1
  Li  Li3  1  0.53781000  0.31878000  0.49489100  1
  Cu  Cu0  1  0.35542500  0.99532900  0.18573700  1
  Cu  Cu1  1  0.99532900  0.35542500  0.18573700  1
  Cu  Cu2  1  0.99603100  0.99603100  0.00073400  1
  Cu  Cu3  1  0.65279500  0.34178500  0.00181500  1
  Cu  Cu4  1  0.34178500  0.65279500  0.00181500  1
  Cu  Cu5  1  0.63955100  0.99816800  0.82044200  1
  Cu  Cu6  1  0.99816800  0.63955100  0.82044200  1
  P  P0  1  0.28897300  0.90548600  0.70128000  1
  P  P1  1  0.90548600  0.28897300  0.70128000  1
  P  P2  1  0.67496600  0.67496600  0.08353500  1
  P  P3  1  0.31639200  0.31639200  0.92448600  1
  P  P4  1  0.70638100  0.08160800  0.30331700  1
  P  P5  1  0.08160800  0.70638100  0.30331700  1
  O  O0  1  0.64983200  0.96055900  0.52263200  1
  O  O1  1  0.96055900  0.64983200  0.52263200  1
  O  O2  1  0.97230400  0.38627000  0.87270100  1
  O  O3  1  0.38627000  0.97230400  0.87270100  1
  O  O4  1  0.80778600  0.80778600  0.13388200  1
  O  O5  1  0.57499100  0.74675500  0.93055800  1
  O  O6  1  0.74675500  0.57499100  0.93055800  1
  O  O7  1  0.88304300  0.10236100  0.76201900  1
  O  O8  1  0.10236100  0.88304300  0.76201900  1
  O  O9  1  0.30042900  0.73215400  0.70632200  1
  O  O10  1  0.73215400  0.30042900  0.70632200  1
  O  O11  1  0.56781900  0.56781900  0.29807300  1
  O  O12  1  0.42303400  0.42303400  0.70707500  1
  O  O13  1  0.68856000  0.25187500  0.30261600  1
  O  O14  1  0.25187500  0.68856000  0.30261600  1
  O  O15  1  0.89375500  0.11140200  0.23656700  1
  O  O16  1  0.11140200  0.89375500  0.23656700  1
  O  O17  1  0.18317900  0.18317900  0.87814700  1
  O  O18  1  0.60761000  0.01452500  0.13448100  1
  O  O19  1  0.01452500  0.60761000  0.13448100  1
  O  O20  1  0.24511400  0.42157100  0.06589600  1
  O  O21  1  0.42157100  0.24511400  0.06589600  1
  O  O22  1  0.35668000  0.02721200  0.48381800  1
  O  O23  1  0.02721200  0.35668000  0.48381800  1
loop_
_geom_bond_atom_site_label_1
_geom_bond_atom_site_label_2
_geom_bond_distance
_geom_bond_site_symmetry_2
Li0 O16 2.227680 1_655
Li0 O15 2.227680 1_565
Li0 O8 2.290250 1_655
Li0 O7 2.290250 1_565
Li1 O11 2.120031 1_555
Li1 O12 2.194726 1_555
Li1 O5 2.555795 1_555
Li1 O6 2.555795 1_555
Li2 O14 1.941892 1_555
Li2 O12 2.039076 1_555
Li2 O11 2.289246 1_555
Li2 O9 2.357208 1_555
Li3 O13 1.941892 1_555
Li3 O12 2.039076 1_555
Li3 O11 2.289246 1_555
Li3 O10 2.357208 1_555
Cu0 O22 1.943255 1_565
Cu0 O3 2.000002 1_554
Cu0 O16 2.058207 1_555
Cu0 O21 2.115050 1_565
Cu0 O18 2.166499 1_565
Cu0 O14 2.571725 1_555
Cu1 O23 1.943255 1_655
Cu1 O2 2.000002 1_554
Cu1 O15 2.058207 1_555
Cu1 O20 2.115050 1_655
Cu1 O19 2.166499 1_655
Cu1 O13 2.571725 1_555
Cu2 O17 1.956150 1_664
Cu2 O4 1.977180 1_555
Cu2 O15 2.154121 1_565
Cu2 O16 2.154121 1_655
Cu2 O7 2.168459 1_564
Cu2 O8 2.168459 1_654
Cu3 O21 1.946335 1_555
Cu3 O6 1.959253 1_554
Cu3 O10 2.012851 1_554
Cu3 O13 2.048334 1_555
Cu4 O20 1.946335 1_555
Cu4 O5 1.959253 1_554
Cu4 O9 2.012851 1_554
Cu4 O14 2.048334 1_555
Cu5 O0 1.948924 1_555
Cu5 O18 1.990067 1_566
Cu5 O7 2.054196 1_565
Cu5 O5 2.120562 1_555
Cu5 O3 2.163344 1_555
Cu5 O10 2.532754 1_565
Cu6 O1 1.948924 1_555
Cu6 O19 1.990067 1_656
Cu6 O8 2.054196 1_655
Cu6 O6 2.120562 1_555
Cu6 O2 2.163344 1_555
Cu6 O9 2.532754 1_655
O0 P4 1.537385 1_565
O1 P5 1.537385 1_655
O2 P1 1.568208 1_555
O3 P0 1.568208 1_555
O4 P2 1.530846 1_555
O5 P2 1.582222 1_556
O6 P2 1.582222 1_556
O7 P1 1.591032 1_555
O8 P0 1.591032 1_555
O9 P0 1.564190 1_555
O10 P1 1.564190 1_555
O11 P2 1.537917 1_555
O12 P3 1.547732 1_555
O13 P4 1.560321 1_555
O14 P5 1.560321 1_555
O15 P4 1.588744 1_555
O16 P5 1.588744 1_555
O17 P3 1.524033 1_555
O18 P4 1.562780 1_555
O19 P5 1.562780 1_555
O20 P3 1.571066 1_554
O21 P3 1.571066 1_554
O22 P0 1.534734 1_545
O23 P1 1.534734 1_455
