# generated using pymatgen
data_Fe4O7F
_symmetry_space_group_name_H-M   'P 1'
_cell_length_a   4.62336900
_cell_length_b   5.51324700
_cell_length_c   10.09285147
_cell_angle_alpha   84.35374776
_cell_angle_beta   90.00000000
_cell_angle_gamma   90.00000000
_symmetry_Int_Tables_number   1
_chemical_formula_structural   Fe4O7F
_chemical_formula_sum   'Fe8 O14 F2'
_cell_volume   256.01634599
_cell_formula_units_Z   2
loop_
 _symmetry_equiv_pos_site_id
 _symmetry_equiv_pos_as_xyz
  1  'x, y, z'
loop_
 _atom_site_type_symbol
 _atom_site_label
 _atom_site_symmetry_multiplicity
 _atom_site_fract_x
 _atom_site_fract_y
 _atom_site_fract_z
 _atom_site_occupancy
  Fe  Fe0  1  0.75286400  0.24079400  0.74894400  1
  Fe  Fe1  1  0.76921100  0.76117700  0.24658600  1
  Fe  Fe2  1  0.76437300  0.49627700  0.00738300  1
  Fe  Fe3  1  0.74235600  0.00062900  0.49825700  1
  Fe  Fe4  1  0.24713600  0.24079400  0.24894400  1
  Fe  Fe5  1  0.23562700  0.49627700  0.50738300  1
  Fe  Fe6  1  0.23078900  0.76117700  0.74658600  1
  Fe  Fe7  1  0.25764400  0.00062900  0.99825700  1
  O  O0  1  0.05981700  0.23358600  0.42250600  1
  O  O1  1  0.05025400  0.47930300  0.67971000  1
  O  O2  1  0.05873500  0.73431700  0.92351700  1
  O  O3  1  0.06605400  0.97837700  0.16611900  1
  O  O4  1  0.94974600  0.47930300  0.17971000  1
  O  O5  1  0.94126500  0.73431700  0.42351700  1
  O  O6  1  0.94018300  0.23358600  0.92250600  1
  O  O7  1  0.93394600  0.97837700  0.66611900  1
  O  O8  1  0.56278400  0.76282500  0.07805600  1
  O  O9  1  0.55338400  0.26836200  0.57435500  1
  O  O10  1  0.55933800  0.02002800  0.32710100  1
  O  O11  1  0.44066200  0.02002800  0.82710100  1
  O  O12  1  0.44661600  0.26836200  0.07435500  1
  O  O13  1  0.43721600  0.76282500  0.57805600  1
  F  F0  1  0.55151100  0.52432600  0.82746500  1
  F  F1  1  0.44848900  0.52432600  0.32746500  1
loop_
_geom_bond_atom_site_label_1
_geom_bond_atom_site_label_2
_geom_bond_distance
_geom_bond_site_symmetry_2
Fe0 O7 1.931538 1_545
Fe0 O6 1.951023 1_555
Fe0 O9 1.981409 1_555
Fe0 O1 1.981681 1_655
Fe0 O11 1.999556 1_555
Fe1 O4 1.942606 1_555
Fe1 O3 1.945683 1_655
Fe1 O5 1.947184 1_555
Fe1 O8 1.949647 1_555
Fe1 O10 1.966398 1_565
Fe2 O6 1.932924 1_554
Fe2 O4 1.932957 1_555
Fe2 O8 1.934753 1_555
Fe2 O12 2.006730 1_555
Fe2 O2 2.018014 1_654
Fe3 O7 1.905023 1_545
Fe3 O10 1.917071 1_555
Fe3 O9 1.937811 1_555
Fe3 O5 1.946387 1_545
Fe3 O13 2.037176 1_545
Fe3 O0 2.048199 1_655
Fe4 O3 1.931538 1_545
Fe4 O0 1.951023 1_555
Fe4 O12 1.981409 1_555
Fe4 O4 1.981681 1_455
Fe4 O10 1.999556 1_555
Fe5 O0 1.932924 1_555
Fe5 O1 1.932957 1_555
Fe5 O13 1.934753 1_555
Fe5 O9 2.006730 1_555
Fe5 O5 2.018014 1_455
Fe6 O1 1.942606 1_555
Fe6 O7 1.945683 1_455
Fe6 O2 1.947184 1_555
Fe6 O13 1.949647 1_555
Fe6 O11 1.966398 1_565
Fe7 O3 1.905023 1_546
Fe7 O11 1.917071 1_555
Fe7 O12 1.937811 1_556
Fe7 O2 1.946387 1_545
Fe7 O8 2.037176 1_546
Fe7 O6 2.048199 1_455
F0 Fe0 2.044992 1_555
F0 Fe2 2.057822 1_556
F0 Fe6 2.088182 1_555
F1 Fe4 2.044992 1_555
F1 Fe5 2.057822 1_555
F1 Fe1 2.088182 1_555
