# generated using pymatgen
data_Li4Co3Sn5O16
_symmetry_space_group_name_H-M   'P 1'
_cell_length_a   6.15099906
_cell_length_b   10.61008403
_cell_length_c   9.87175917
_cell_angle_alpha   89.62787172
_cell_angle_beta   89.56514503
_cell_angle_gamma   89.36358134
_symmetry_Int_Tables_number   1
_chemical_formula_structural   Li4Co3Sn5O16
_chemical_formula_sum   'Li8 Co6 Sn10 O32'
_cell_volume   644.18529942
_cell_formula_units_Z   2
loop_
 _symmetry_equiv_pos_site_id
 _symmetry_equiv_pos_as_xyz
  1  'x, y, z'
loop_
 _atom_site_type_symbol
 _atom_site_label
 _atom_site_symmetry_multiplicity
 _atom_site_fract_x
 _atom_site_fract_y
 _atom_site_fract_z
 _atom_site_occupancy
  Li  Li0  1  0.50711600  0.16702400  0.89215100  1
  Li  Li1  1  0.00986300  0.66694300  0.89132700  1
  Li  Li2  1  0.97216100  0.01191700  0.98536400  1
  Li  Li3  1  0.47017000  0.51149800  0.98659900  1
  Li  Li4  1  0.98394600  0.00282900  0.49812900  1
  Li  Li5  1  0.48324800  0.50159100  0.49878300  1
  Li  Li6  1  0.50280400  0.83429400  0.40452800  1
  Li  Li7  1  0.99849200  0.33013500  0.40515100  1
  Co  Co0  1  0.24274300  0.58462100  0.21514600  1
  Co  Co1  1  0.25485100  0.40999300  0.71784700  1
  Co  Co2  1  0.50038800  0.66845500  0.71035100  1
  Co  Co3  1  0.74590000  0.08632500  0.21558600  1
  Co  Co4  1  0.74707900  0.91036100  0.71416000  1
  Co  Co5  1  0.00008800  0.16784600  0.71045500  1
  Sn  Sn0  1  0.49745300  0.33154600  0.21580300  1
  Sn  Sn1  1  0.00329300  0.83077400  0.21272400  1
  Sn  Sn2  1  0.50402900  0.16349800  0.49556500  1
  Sn  Sn3  1  0.00845100  0.66057400  0.49596500  1
  Sn  Sn4  1  0.25605600  0.08469900  0.21464200  1
  Sn  Sn5  1  0.75205400  0.58425800  0.21460600  1
  Sn  Sn6  1  0.25846400  0.91548100  0.71406400  1
  Sn  Sn7  1  0.75781100  0.41427100  0.71428600  1
  Sn  Sn8  1  0.50892400  0.83250400  0.98385400  1
  Sn  Sn9  1  0.01161500  0.33264600  0.98594200  1
  O  O0  1  0.49965500  0.33498000  0.59802400  1
  O  O1  1  0.00386500  0.83465000  0.59536200  1
  O  O2  1  0.26959600  0.24309000  0.34456400  1
  O  O3  1  0.77722300  0.74075600  0.34404800  1
  O  O4  1  0.49567300  0.17112500  0.09997400  1
  O  O5  1  0.01363300  0.66114100  0.10623100  1
  O  O6  1  0.00273700  0.99793900  0.31304300  1
  O  O7  1  0.48275700  0.50612100  0.31113900  1
  O  O8  1  0.99758800  0.00927000  0.80110200  1
  O  O9  1  0.50051600  0.49741000  0.80664900  1
  O  O10  1  0.23168700  0.08509900  0.59623100  1
  O  O11  1  0.74540200  0.57365100  0.58565900  1
  O  O12  1  0.71937600  0.24745900  0.34652200  1
  O  O13  1  0.22948600  0.73038200  0.33477900  1
  O  O14  1  0.49528800  0.01696100  0.34521600  1
  O  O15  1  0.01462100  0.51664700  0.33258200  1
  O  O16  1  0.24411200  0.92028200  0.09337300  1
  O  O17  1  0.74015900  0.42035400  0.09471600  1
  O  O18  1  0.74817700  0.07502400  0.60303400  1
  O  O19  1  0.24532500  0.56932000  0.60288500  1
  O  O20  1  0.50226300  0.98516400  0.84386800  1
  O  O21  1  0.00007800  0.48335600  0.84527000  1
  O  O22  1  0.27798500  0.76116500  0.84799500  1
  O  O23  1  0.79072400  0.25212400  0.84180000  1
  O  O24  1  0.50554200  0.83726300  0.60345400  1
  O  O25  1  0.00407300  0.32164200  0.61028800  1
  O  O26  1  0.75822700  0.91448900  0.09648200  1
  O  O27  1  0.25436300  0.42788200  0.10217600  1
  O  O28  1  0.73881500  0.76770300  0.83860900  1
  O  O29  1  0.23673200  0.26676700  0.83886800  1
  O  O30  1  0.49219400  0.66136400  0.10143800  1
  O  O31  1  0.00542700  0.16563600  0.09726500  1
loop_
_geom_bond_atom_site_label_1
_geom_bond_atom_site_label_2
_geom_bond_distance
_geom_bond_site_symmetry_2
Li0 O20 1.991150 1_545
Li0 O23 2.030149 1_555
Li0 O29 2.032139 1_555
Li0 O4 2.052979 1_556
Li1 O22 1.980573 1_555
Li1 O21 2.004763 1_555
Li1 O28 2.039536 1_455
Li1 O5 2.122269 1_556
Li2 O8 1.824890 1_555
Li2 O31 1.989085 1_656
Li2 O26 1.999256 1_546
Li2 O16 2.204038 1_646
Li3 O9 1.791831 1_555
Li3 O27 1.959829 1_556
Li3 O30 1.965315 1_556
Li3 O17 2.193187 1_556
Li4 O6 1.830936 1_645
Li4 O18 1.930068 1_555
Li4 O10 2.021108 1_655
Li4 O1 2.023631 1_645
Li5 O7 1.852712 1_555
Li5 O19 1.917716 1_555
Li5 O11 1.994279 1_555
Li5 O0 2.017417 1_555
Li6 O24 1.964410 1_555
Li6 O14 2.021119 1_565
Li6 O3 2.036118 1_555
Li6 O13 2.141169 1_555
Li7 O2 1.987274 1_655
Li7 O12 2.026607 1_555
Li7 O25 2.027016 1_655
Li7 O15 2.103329 1_655
Co0 O7 1.937756 1_555
Co0 O5 1.946129 1_555
Co0 O13 1.952593 1_555
Co0 O15 1.954471 1_555
Co0 O27 2.008647 1_555
Co0 O30 2.065682 1_555
Co1 O29 1.930588 1_555
Co1 O9 1.993471 1_555
Co1 O19 2.030509 1_555
Co1 O0 2.063634 1_555
Co1 O25 2.110801 1_555
Co1 O21 2.144691 1_555
Co2 O9 2.043227 1_555
Co2 O24 2.073332 1_555
Co2 O22 2.155127 1_555
Co2 O11 2.180027 1_555
Co2 O19 2.183953 1_555
Co2 O28 2.223192 1_555
Co3 O6 2.068632 1_645
Co3 O4 2.112725 1_555
Co3 O14 2.130375 1_555
Co3 O31 2.146982 1_655
Co3 O12 2.153961 1_555
Co3 O26 2.176151 1_545
Co4 O28 1.944094 1_555
Co4 O24 2.016037 1_555
Co4 O18 2.056951 1_565
Co4 O8 2.068803 1_565
Co4 O1 2.114556 1_655
Co4 O20 2.120013 1_555
Co5 O8 1.900688 1_455
Co5 O25 1.902806 1_555
Co5 O10 2.008069 1_555
Co5 O23 2.025668 1_455
Co5 O18 2.137246 1_455
Co5 O29 2.215070 1_555
O0 Sn2 2.087227 1_555
O0 Sn7 2.148572 1_555
O1 Sn3 2.096860 1_555
O1 Sn6 2.152173 1_555
O2 Sn0 2.108919 1_555
O2 Sn4 2.123403 1_555
O2 Sn2 2.236906 1_555
O3 Sn5 2.109546 1_555
O3 Sn1 2.124280 1_655
O3 Sn3 2.232629 1_655
O4 Sn0 2.056825 1_555
O4 Sn4 2.070213 1_555
O5 Sn1 2.090357 1_555
O5 Sn5 2.095350 1_455
O6 Sn1 2.036950 1_555
O6 Sn4 2.053321 1_565
O7 Sn5 2.082191 1_555
O7 Sn0 2.083840 1_555
O8 Sn6 2.063516 1_645
O9 Sn7 2.017844 1_555
O10 Sn2 2.116749 1_555
O10 Sn6 2.141989 1_545
O11 Sn3 2.062360 1_655
O11 Sn7 2.109139 1_555
O12 Sn0 2.075874 1_555
O12 Sn2 2.166224 1_555
O13 Sn1 2.120841 1_555
O13 Sn3 2.214311 1_555
O14 Sn4 2.082467 1_555
O14 Sn2 2.157804 1_555
O15 Sn5 2.114548 1_455
O15 Sn3 2.228129 1_555
O16 Sn1 2.115296 1_555
O16 Sn4 2.124394 1_565
O16 Sn8 2.154549 1_554
O17 Sn5 2.112156 1_555
O17 Sn0 2.129538 1_555
O17 Sn9 2.181342 1_654
O18 Sn2 2.059590 1_555
O19 Sn3 2.037917 1_555
O20 Sn6 2.122151 1_555
O20 Sn8 2.122546 1_555
O21 Sn9 2.112001 1_555
O21 Sn7 2.120311 1_455
O22 Sn6 2.100750 1_555
O22 Sn8 2.110799 1_555
O23 Sn7 2.133843 1_555
O23 Sn9 2.161398 1_655
O24 Sn6 2.036982 1_555
O25 Sn7 2.066595 1_455
O26 Sn1 2.088362 1_655
O26 Sn8 2.100579 1_554
O27 Sn0 2.124933 1_555
O27 Sn9 2.154460 1_554
O28 Sn8 2.118623 1_555
O29 Sn9 2.115437 1_555
O30 Sn5 2.111496 1_555
O30 Sn8 2.151762 1_554
O31 Sn9 2.079583 1_554
O31 Sn4 2.107473 1_555
