# generated using pymatgen
data_Na3VPCO7
_symmetry_space_group_name_H-M   'P 1'
_cell_length_a   5.38806805
_cell_length_b   13.54409608
_cell_length_c   8.92130330
_cell_angle_alpha   90.00269088
_cell_angle_beta   88.51804243
_cell_angle_gamma   90.01245817
_symmetry_Int_Tables_number   1
_chemical_formula_structural   Na3VPCO7
_chemical_formula_sum   'Na12 V4 P4 C4 O28'
_cell_volume   650.82781264
_cell_formula_units_Z   4
loop_
 _symmetry_equiv_pos_site_id
 _symmetry_equiv_pos_as_xyz
  1  'x, y, z'
loop_
 _atom_site_type_symbol
 _atom_site_label
 _atom_site_symmetry_multiplicity
 _atom_site_fract_x
 _atom_site_fract_y
 _atom_site_fract_z
 _atom_site_occupancy
  Na  Na0  1  0.00064700  0.24366800  0.00050100  1
  Na  Na1  1  0.00065300  0.74367100  0.00050900  1
  Na  Na2  1  0.99937500  0.49366400  0.99946400  1
  Na  Na3  1  0.99933500  0.99367500  0.99951700  1
  Na  Na4  1  0.44500100  0.11483000  0.16190800  1
  Na  Na5  1  0.44505800  0.61481700  0.16190700  1
  Na  Na6  1  0.55499700  0.36481600  0.83809400  1
  Na  Na7  1  0.55496100  0.86480800  0.83809000  1
  Na  Na8  1  0.49813400  0.24282200  0.49811900  1
  Na  Na9  1  0.49812100  0.74281900  0.49810900  1
  Na  Na10  1  0.50191500  0.49280700  0.50189300  1
  Na  Na11  1  0.50186900  0.99283000  0.50187300  1
  V  V0  1  0.04775400  0.86860500  0.28018700  1
  V  V1  1  0.95219900  0.61865600  0.71981800  1
  V  V2  1  0.04788300  0.36866000  0.28015000  1
  V  V3  1  0.95213000  0.11859500  0.71983900  1
  P  P0  1  0.98489700  0.11844100  0.34364200  1
  P  P1  1  0.98492200  0.61844900  0.34364800  1
  P  P2  1  0.01510700  0.36841500  0.65635300  1
  P  P3  1  0.01509300  0.86840400  0.65635400  1
  C  C0  1  0.49830700  0.36885100  0.16331300  1
  C  C1  1  0.49823300  0.86883200  0.16331500  1
  C  C2  1  0.50167100  0.11880200  0.83669400  1
  C  C3  1  0.50176100  0.61882300  0.83668800  1
  O  O0  1  0.31261400  0.36894700  0.06985900  1
  O  O1  1  0.31255200  0.86890900  0.06986500  1
  O  O2  1  0.68737200  0.11886800  0.93014000  1
  O  O3  1  0.68745300  0.61890200  0.93013100  1
  O  O4  1  0.72659400  0.36900500  0.11199800  1
  O  O5  1  0.72651200  0.86898100  0.11199900  1
  O  O6  1  0.27339200  0.11897200  0.88801800  1
  O  O7  1  0.27348400  0.61900200  0.88800300  1
  O  O8  1  0.07940700  0.02700900  0.24958800  1
  O  O9  1  0.07949100  0.52702700  0.24953400  1
  O  O10  1  0.92053900  0.27700500  0.75048100  1
  O  O11  1  0.92055100  0.77700800  0.75052100  1
  O  O12  1  0.07863900  0.21001800  0.24974700  1
  O  O13  1  0.07861100  0.71002000  0.24972400  1
  O  O14  1  0.92142200  0.46001800  0.75017700  1
  O  O15  1  0.92136400  0.95999800  0.75022500  1
  O  O16  1  0.44693000  0.36877300  0.30512600  1
  O  O17  1  0.44686800  0.86875100  0.30512800  1
  O  O18  1  0.55303400  0.11870700  0.69487900  1
  O  O19  1  0.55312500  0.61873600  0.69487200  1
  O  O20  1  0.69920800  0.11783900  0.35893300  1
  O  O21  1  0.69921800  0.61781400  0.35896300  1
  O  O22  1  0.30079600  0.36783500  0.64106500  1
  O  O23  1  0.30079500  0.86784700  0.64104000  1
  O  O24  1  0.11199400  0.11867300  0.49790300  1
  O  O25  1  0.11210100  0.61869700  0.49790100  1
  O  O26  1  0.88802300  0.36855200  0.50208700  1
  O  O27  1  0.88789000  0.86852500  0.50211200  1
loop_
_geom_bond_atom_site_label_1
_geom_bond_atom_site_label_2
_geom_bond_distance
_geom_bond_site_symmetry_2
Na0 O12 2.318881 1_555
Na0 O10 2.327079 1_454
Na0 O6 2.437958 1_554
Na0 O4 2.444697 1_455
Na0 O0 2.477872 1_555
Na0 O2 2.480681 1_454
Na1 O13 2.318580 1_555
Na1 O11 2.326797 1_454
Na1 O7 2.438061 1_554
Na1 O5 2.444701 1_455
Na1 O1 2.477236 1_555
Na1 O3 2.480158 1_454
Na2 O14 2.319103 1_555
Na2 O9 2.327509 1_656
Na2 O4 2.437529 1_556
Na2 O7 2.444379 1_655
Na2 O3 2.477806 1_555
Na2 O0 2.480404 1_656
Na3 O15 2.319248 1_555
Na3 O8 2.327392 1_666
Na3 O5 2.437807 1_556
Na3 O6 2.443960 1_665
Na3 O2 2.477645 1_565
Na3 O1 2.480661 1_656
Na4 O20 2.256496 1_555
Na4 O8 2.413780 1_555
Na4 O2 2.417432 1_554
Na4 O12 2.468568 1_555
Na4 O6 2.635428 1_554
Na5 O21 2.256554 1_555
Na5 O9 2.413312 1_555
Na5 O3 2.417574 1_554
Na5 O13 2.468978 1_555
Na5 O7 2.635487 1_554
Na6 O22 2.256520 1_555
Na6 O10 2.413692 1_555
Na6 O0 2.417481 1_556
Na6 O14 2.468732 1_555
Na6 O4 2.635521 1_556
Na7 O23 2.256555 1_555
Na7 O11 2.413708 1_555
Na7 O1 2.417619 1_556
Na7 O15 2.468416 1_555
Na7 O5 2.635465 1_556
Na8 O20 2.347797 1_555
Na8 O22 2.356730 1_555
Na8 O16 2.444515 1_555
Na8 O18 2.453971 1_555
Na8 O24 2.674840 1_555
Na8 O26 2.704912 1_555
Na9 O21 2.347883 1_555
Na9 O23 2.356776 1_555
Na9 O17 2.444295 1_555
Na9 O19 2.453771 1_555
Na9 O25 2.674105 1_555
Na9 O27 2.704215 1_555
Na10 O22 2.347478 1_555
Na10 O21 2.356267 1_555
Na10 O19 2.444027 1_555
Na10 O16 2.453127 1_555
Na10 O26 2.676173 1_555
Na10 O25 2.706547 1_555
Na11 O23 2.347454 1_555
Na11 O20 2.356419 1_565
Na11 O18 2.443674 1_565
Na11 O17 2.453415 1_555
Na11 O27 2.676243 1_555
Na11 O24 2.706395 1_565
C0 O16 1.288076 1_555
C0 O4 1.301314 1_555
C0 O0 1.318829 1_555
C1 O17 1.288063 1_555
C1 O5 1.301277 1_555
C1 O1 1.318756 1_555
C2 O18 1.288079 1_555
C2 O6 1.301301 1_555
C2 O2 1.318815 1_555
C3 O19 1.288088 1_555
C3 O7 1.301265 1_555
C3 O3 1.318761 1_555
O0 V2 2.327192 1_555
O1 V0 2.327624 1_555
O2 V3 2.327349 1_555
O3 V1 2.327395 1_555
O4 V2 2.319818 1_655
O5 V0 2.319840 1_655
O6 V3 2.319867 1_455
O7 V1 2.319996 1_455
O8 P0 1.573211 1_455
O8 V0 2.168871 1_545
O9 P1 1.573485 1_455
O9 V2 2.168376 1_555
O10 P2 1.573308 1_655
O10 V3 2.169022 1_555
O11 P3 1.573299 1_655
O11 V1 2.168336 1_555
O12 P0 1.572626 1_455
O12 V2 2.171533 1_555
O13 P1 1.572610 1_455
O13 V0 2.170875 1_555
O14 P2 1.572588 1_655
O14 V1 2.171393 1_555
O15 P3 1.572785 1_655
O15 V3 2.170869 1_565
O16 V2 2.167332 1_555
O17 V0 2.167651 1_555
O18 V3 2.167577 1_555
O19 V1 2.167442 1_555
O20 P0 1.541846 1_555
O21 P1 1.541942 1_555
O22 P2 1.541846 1_555
O23 P3 1.541929 1_555
O24 P0 1.552955 1_455
O24 V3 2.138682 1_455
O25 P1 1.553096 1_455
O25 V1 2.138604 1_455
O26 P2 1.552961 1_655
O26 V2 2.138682 1_655
O27 P3 1.553066 1_655
O27 V0 2.138592 1_655
