# generated using pymatgen
data_Li2CrNiO4
_symmetry_space_group_name_H-M   'P 1'
_cell_length_a   5.84814813
_cell_length_b   5.84814813
_cell_length_c   5.84814813
_cell_angle_alpha   120.21645757
_cell_angle_beta   119.99762575
_cell_angle_gamma   89.81480300
_symmetry_Int_Tables_number   1
_chemical_formula_structural   Li2CrNiO4
_chemical_formula_sum   'Li4 Cr2 Ni2 O8'
_cell_volume   141.19926007
_cell_formula_units_Z   2
loop_
 _symmetry_equiv_pos_site_id
 _symmetry_equiv_pos_as_xyz
  1  'x, y, z'
loop_
 _atom_site_type_symbol
 _atom_site_label
 _atom_site_symmetry_multiplicity
 _atom_site_fract_x
 _atom_site_fract_y
 _atom_site_fract_z
 _atom_site_occupancy
  Li  Li0  1  0.00000000  0.50000000  0.00000000  1
  Li  Li1  1  0.00000000  0.50000000  0.50000000  1
  Li  Li2  1  0.00000000  0.00000000  0.50000000  1
  Li  Li3  1  0.50000000  0.50000000  0.00000000  1
  Cr  Cr0  1  0.50000000  0.00000000  0.50000000  1
  Cr  Cr1  1  0.00000000  0.00000000  0.00000000  1
  Ni  Ni0  1  0.50000000  0.50000000  0.50000000  1
  Ni  Ni1  1  0.50000000  0.00000000  0.00000000  1
  O  O0  1  0.74663500  0.76247100  0.98416400  1
  O  O1  1  0.75086300  0.23201400  0.98115100  1
  O  O2  1  0.27830600  0.76247100  0.51583600  1
  O  O3  1  0.75086300  0.76971200  0.51884900  1
  O  O4  1  0.24913700  0.23028800  0.48115100  1
  O  O5  1  0.72169400  0.23752900  0.48416400  1
  O  O6  1  0.24913700  0.76798600  0.01884900  1
  O  O7  1  0.25336500  0.23752900  0.01583600  1
loop_
_geom_bond_atom_site_label_1
_geom_bond_atom_site_label_2
_geom_bond_distance
_geom_bond_site_symmetry_2
Li0 O1 2.066745 1_454
Li0 O6 2.066745 1_555
Li0 O5 2.133391 1_454
Li0 O2 2.133391 1_555
Li0 O7 2.133391 1_555
Li0 O0 2.133391 1_454
Li1 O6 2.143275 1_556
Li1 O3 2.143275 1_455
Li1 O1 2.143275 1_454
Li1 O4 2.143275 1_555
Li1 O5 2.176247 1_455
Li1 O2 2.176247 1_555
Li2 O4 2.066745 1_555
Li2 O3 2.066745 1_445
Li2 O2 2.133387 1_545
Li2 O5 2.133387 1_455
Li2 O7 2.133391 1_556
Li2 O0 2.133391 1_444
Li3 O1 2.143275 1_554
Li3 O6 2.143275 1_555
Li3 O3 2.143275 1_555
Li3 O4 2.143275 1_554
Li3 O7 2.176251 1_555
Li3 O0 2.176251 1_554
Cr0 O5 1.969846 1_555
Cr0 O2 1.969846 1_545
Cr0 O1 1.988263 1_555
Cr0 O3 1.988263 1_545
Cr0 O4 1.988263 1_555
Cr0 O6 1.988263 1_545
Cr1 O7 1.969842 1_555
Cr1 O0 1.969842 1_444
Cr1 O4 1.988263 1_555
Cr1 O6 1.988263 1_545
Cr1 O3 1.988263 1_444
Cr1 O1 1.988263 1_454
Ni0 O0 2.002427 1_555
Ni0 O7 2.002427 1_555
Ni0 O5 2.002431 1_555
Ni0 O2 2.002431 1_555
Ni0 O3 2.081023 1_555
Ni0 O4 2.081023 1_555
Ni1 O5 2.002427 1_555
Ni1 O2 2.002427 1_544
Ni1 O0 2.002427 1_544
Ni1 O7 2.002427 1_555
Ni1 O6 2.081023 1_545
Ni1 O1 2.081023 1_554
