# generated using pymatgen
data_BOs3(CO)10
_symmetry_space_group_name_H-M   'P 1'
_cell_length_a   7.69049700
_cell_length_b   9.49134230
_cell_length_c   13.11616445
_cell_angle_alpha   80.62050785
_cell_angle_beta   72.98406802
_cell_angle_gamma   73.58247046
_symmetry_Int_Tables_number   1
_chemical_formula_structural   BOs3(CO)10
_chemical_formula_sum   'B2 Os6 C20 O20'
_cell_volume   874.78388310
_cell_formula_units_Z   2
loop_
 _symmetry_equiv_pos_site_id
 _symmetry_equiv_pos_as_xyz
  1  'x, y, z'
loop_
 _atom_site_type_symbol
 _atom_site_label
 _atom_site_symmetry_multiplicity
 _atom_site_fract_x
 _atom_site_fract_y
 _atom_site_fract_z
 _atom_site_occupancy
  B  B0  1  0.68149800  0.74664500  0.34507900  1
  B  B1  1  0.31850200  0.25335500  0.65492100  1
  Os  Os0  1  0.70343800  0.96143500  0.26384800  1
  Os  Os1  1  0.29656200  0.03856500  0.73615200  1
  Os  Os2  1  0.64520800  0.75649700  0.17059700  1
  Os  Os3  1  0.35479200  0.24350300  0.82940300  1
  Os  Os4  1  0.93592400  0.61366000  0.25006300  1
  Os  Os5  1  0.06407600  0.38634000  0.74993700  1
  C  C0  1  0.56625300  0.70237900  0.44936100  1
  C  C1  1  0.43374700  0.29762100  0.55063900  1
  C  C2  1  0.83441700  0.08540100  0.15251600  1
  C  C3  1  0.16558300  0.91459900  0.84748400  1
  C  C4  1  0.49145200  0.11470600  0.30990100  1
  C  C5  1  0.50854800  0.88529400  0.69009900  1
  C  C6  1  0.79082900  0.98448600  0.38066000  1
  C  C7  1  0.20917100  0.01551400  0.61934000  1
  C  C8  1  0.64745300  0.77939000  0.02364700  1
  C  C9  1  0.35254700  0.22061000  0.97635300  1
  C  C10  1  0.59850900  0.56476900  0.19321100  1
  C  C11  1  0.40149100  0.43523100  0.80678900  1
  C  C12  1  0.39175000  0.86992000  0.21242100  1
  C  C13  1  0.60825000  0.13008000  0.78757900  1
  C  C14  1  0.95620000  0.41123400  0.28688300  1
  C  C15  1  0.04380000  0.58876600  0.71311700  1
  C  C16  1  0.14871700  0.59235500  0.12436800  1
  C  C17  1  0.85128300  0.40764500  0.87563200  1
  C  C18  1  0.05950500  0.61087200  0.35704200  1
  C  C19  1  0.94049500  0.38912800  0.64295800  1
  O  O0  1  0.47246000  0.66492000  0.53053500  1
  O  O1  1  0.52754000  0.33508000  0.46946500  1
  O  O2  1  0.91908700  0.16298900  0.09407300  1
  O  O3  1  0.08091300  0.83701100  0.90592700  1
  O  O4  1  0.35281300  0.20465400  0.33758100  1
  O  O5  1  0.64718700  0.79534600  0.66241900  1
  O  O6  1  0.83784100  0.99463700  0.45507600  1
  O  O7  1  0.16215900  0.00536300  0.54492400  1
  O  O8  1  0.64734100  0.79415600  0.93340700  1
  O  O9  1  0.35265900  0.20584400  0.06659300  1
  O  O10  1  0.55213000  0.45463800  0.21745800  1
  O  O11  1  0.44787000  0.54536200  0.78254200  1
  O  O12  1  0.23321900  0.92452800  0.24762800  1
  O  O13  1  0.76678100  0.07547200  0.75237200  1
  O  O14  1  0.95528900  0.28737500  0.30791500  1
  O  O15  1  0.04471100  0.71262500  0.69208500  1
  O  O16  1  0.28640000  0.57984500  0.05566900  1
  O  O17  1  0.71360000  0.42015500  0.94433100  1
  O  O18  1  0.13134500  0.60916600  0.42412300  1
  O  O19  1  0.86865500  0.39083400  0.57587700  1
loop_
_geom_bond_atom_site_label_1
_geom_bond_atom_site_label_2
_geom_bond_distance
_geom_bond_site_symmetry_2
B0 C0 1.465106 1_555
B0 Os4 2.159700 1_555
B0 Os0 2.168170 1_555
B0 Os2 2.369248 1_555
B1 C1 1.465106 1_555
B1 Os5 2.159700 1_555
B1 Os1 2.168170 1_555
B1 Os3 2.369248 1_555
C0 O0 1.162916 1_555
C1 O1 1.162916 1_555
C2 O2 1.161392 1_555
C2 Os0 1.944329 1_545
C3 O3 1.161392 1_555
C3 Os1 1.944329 1_565
C4 O4 1.165069 1_555
C4 Os0 1.873074 1_545
C5 O5 1.165069 1_555
C5 Os1 1.873074 1_565
C6 O6 1.161703 1_555
C6 Os0 1.908405 1_555
C7 O7 1.161703 1_555
C7 Os1 1.908405 1_555
C8 O8 1.169195 1_554
C8 Os2 1.899631 1_555
C9 O9 1.169195 1_556
C9 Os3 1.899631 1_555
C10 O10 1.164903 1_555
C10 Os2 1.913014 1_555
C11 O11 1.164903 1_555
C11 Os3 1.913014 1_555
C12 O12 1.166016 1_555
C12 Os2 1.907829 1_555
C13 O13 1.166016 1_555
C13 Os3 1.907829 1_555
C14 O14 1.164464 1_555
C14 Os4 1.876488 1_555
C15 O15 1.164464 1_555
C15 Os5 1.876488 1_555
C16 O16 1.163005 1_555
C16 Os4 1.944099 1_455
C17 O17 1.163005 1_555
C17 Os5 1.944099 1_655
C18 O18 1.163801 1_555
C18 Os4 1.904463 1_455
C19 O19 1.163801 1_555
C19 Os5 1.904463 1_655
