# generated using pymatgen
data_Li2MnO2F
_symmetry_space_group_name_H-M   'P 1'
_cell_length_a   5.16196214
_cell_length_b   7.91097669
_cell_length_c   5.88868005
_cell_angle_alpha   79.36007578
_cell_angle_beta   73.40059490
_cell_angle_gamma   77.85115207
_symmetry_Int_Tables_number   1
_chemical_formula_structural   Li2MnO2F
_chemical_formula_sum   'Li8 Mn4 O8 F4'
_cell_volume   223.28987125
_cell_formula_units_Z   4
loop_
 _symmetry_equiv_pos_site_id
 _symmetry_equiv_pos_as_xyz
  1  'x, y, z'
loop_
 _atom_site_type_symbol
 _atom_site_label
 _atom_site_symmetry_multiplicity
 _atom_site_fract_x
 _atom_site_fract_y
 _atom_site_fract_z
 _atom_site_occupancy
  Li  Li0  1  0.99697200  0.49798000  0.25709100  1
  Li  Li1  1  0.49697500  0.99798000  0.75709100  1
  Li  Li2  1  0.00446100  0.50037500  0.75446600  1
  Li  Li3  1  0.50446600  0.00037500  0.25446400  1
  Li  Li4  1  0.49064700  0.68775300  0.07798800  1
  Li  Li5  1  0.99064300  0.18775800  0.57798400  1
  Li  Li6  1  0.47319000  0.34848200  0.91702300  1
  Li  Li7  1  0.97318800  0.84848200  0.41702500  1
  Mn  Mn0  1  0.48846000  0.31511400  0.43446200  1
  Mn  Mn1  1  0.03294300  0.16316000  0.08604200  1
  Mn  Mn2  1  0.98845500  0.81517800  0.93445600  1
  Mn  Mn3  1  0.53278800  0.66321100  0.58602500  1
  O  O0  1  0.26427600  0.60550900  0.89083500  1
  O  O1  1  0.76428100  0.10550200  0.39083700  1
  O  O2  1  0.21012600  0.92028700  0.07575500  1
  O  O3  1  0.71012400  0.42029000  0.57575700  1
  O  O4  1  0.23704900  0.23998800  0.76974200  1
  O  O5  1  0.73705800  0.73999100  0.26972800  1
  O  O6  1  0.77189700  0.75153100  0.75847300  1
  O  O7  1  0.27190600  0.25153400  0.25848100  1
  F  F0  1  0.25342900  0.56444300  0.40950200  1
  F  F1  1  0.75342800  0.06444200  0.90950000  1
  F  F2  1  0.77661800  0.40531800  0.06863000  1
  F  F3  1  0.27661600  0.90531700  0.56863600  1
loop_
_geom_bond_atom_site_label_1
_geom_bond_atom_site_label_2
_geom_bond_distance
_geom_bond_site_symmetry_2
Li0 O5 2.094154 1_555
Li0 O3 2.112142 1_555
Li0 O7 2.156707 1_655
Li0 O0 2.322792 1_654
Li1 O4 2.094164 1_565
Li1 O2 2.112143 1_556
Li1 O6 2.156695 1_555
Li1 O1 2.322770 1_565
Li2 O6 2.094428 1_455
Li2 O0 2.113478 1_555
Li2 O4 2.155256 1_555
Li2 O3 2.319957 1_455
Li3 O7 2.094441 1_555
Li3 O1 2.113459 1_555
Li3 O5 2.155242 1_545
Li3 O2 2.319982 1_545
Li4 O5 2.068246 1_555
Li4 O6 2.073514 1_554
Li4 O0 2.079406 1_554
Li4 O2 2.088484 1_555
Li5 O4 2.068278 1_655
Li5 O7 2.073497 1_655
Li5 O1 2.079394 1_555
Li5 O3 2.088466 1_555
Li6 O7 2.069567 1_556
Li6 O4 2.072190 1_555
Li6 O3 2.079334 1_555
Li6 O0 2.092242 1_555
Li7 O6 2.069540 1_555
Li7 O5 2.072193 1_555
Li7 O2 2.079354 1_655
Li7 O1 2.092183 1_565
Mn0 O7 1.915065 1_555
Mn0 O1 1.948710 1_555
Mn0 O3 1.973361 1_555
Mn0 O4 2.088752 1_555
Mn1 O4 1.918059 1_554
Mn1 O2 1.950253 1_545
Mn1 O1 1.973459 1_455
Mn1 O7 2.093382 1_555
Mn2 O6 1.915348 1_555
Mn2 O0 1.949034 1_655
Mn2 O2 1.973075 1_656
Mn2 O5 2.088805 1_556
Mn3 O5 1.918236 1_555
Mn3 O3 1.950783 1_555
Mn3 O0 1.973211 1_555
Mn3 O6 2.093788 1_555
F0 Li0 1.995127 1_455
F0 Mn0 2.090841 1_555
F0 Li2 2.106513 1_555
F0 Li4 2.166974 1_555
F0 Mn3 2.324038 1_555
F0 Li7 2.403269 1_455
F1 Li1 1.995098 1_545
F1 Mn2 2.090416 1_545
F1 Li3 2.106500 1_556
F1 Li5 2.166995 1_555
F1 Mn1 2.324557 1_656
F1 Li6 2.403269 1_555
F2 Li2 1.996658 1_654
F2 Mn1 2.090272 1_655
F2 Li0 2.106041 1_555
F2 Li6 2.167033 1_554
F2 Mn0 2.326130 1_555
F2 Li4 2.405227 1_555
F3 Li3 1.996708 1_565
F3 Mn3 2.089587 1_555
F3 Li1 2.106039 1_555
F3 Li7 2.167045 1_455
F3 Mn2 2.325949 1_455
F3 Li5 2.405268 1_465
