# generated using pymatgen
data_MnAgH8(OF)4
_symmetry_space_group_name_H-M   'P 1'
_cell_length_a   7.17153000
_cell_length_b   7.01775200
_cell_length_c   7.48269536
_cell_angle_alpha   75.48985481
_cell_angle_beta   90.00000000
_cell_angle_gamma   90.00000000
_symmetry_Int_Tables_number   1
_chemical_formula_structural   MnAgH8(OF)4
_chemical_formula_sum   'Mn2 Ag2 H16 O8 F8'
_cell_volume   364.57727686
_cell_formula_units_Z   2
loop_
 _symmetry_equiv_pos_site_id
 _symmetry_equiv_pos_as_xyz
  1  'x, y, z'
loop_
 _atom_site_type_symbol
 _atom_site_label
 _atom_site_symmetry_multiplicity
 _atom_site_fract_x
 _atom_site_fract_y
 _atom_site_fract_z
 _atom_site_occupancy
  Mn  Mn0  1  0.75000000  0.73360900  0.55038500  1
  Mn  Mn1  1  0.25000000  0.26639100  0.44961500  1
  Ag  Ag0  1  0.75000000  0.96153100  0.03770500  1
  Ag  Ag1  1  0.25000000  0.03846900  0.96229500  1
  H  H0  1  0.63091500  0.04306800  0.63472800  1
  H  H1  1  0.13091500  0.95693200  0.36527200  1
  H  H2  1  0.36908500  0.95693200  0.36527200  1
  H  H3  1  0.86908500  0.04306800  0.63472800  1
  H  H4  1  0.63560400  0.46926500  0.38137300  1
  H  H5  1  0.13560400  0.53073500  0.61862700  1
  H  H6  1  0.36439600  0.53073500  0.61862700  1
  H  H7  1  0.86439600  0.46926500  0.38137300  1
  H  H8  1  0.54045900  0.34234300  0.88030200  1
  H  H9  1  0.04045900  0.65765700  0.11969800  1
  H  H10  1  0.45954100  0.65765700  0.11969800  1
  H  H11  1  0.95954100  0.34234300  0.88030200  1
  H  H12  1  0.50683000  0.29281000  0.09693500  1
  H  H13  1  0.00683000  0.70719000  0.90306500  1
  H  H14  1  0.49317000  0.70719000  0.90306500  1
  H  H15  1  0.99317000  0.29281000  0.09693500  1
  O  O0  1  0.75000000  0.95799700  0.66294000  1
  O  O1  1  0.25000000  0.04200300  0.33706000  1
  O  O2  1  0.75000000  0.50143300  0.44588900  1
  O  O3  1  0.25000000  0.49856700  0.55411100  1
  O  O4  1  0.52150100  0.23149600  0.99135600  1
  O  O5  1  0.02150100  0.76850400  0.00864400  1
  O  O6  1  0.47849900  0.76850400  0.00864400  1
  O  O7  1  0.97849900  0.23149600  0.99135600  1
  F  F0  1  0.53858300  0.59591200  0.72720000  1
  F  F1  1  0.03858300  0.40408800  0.27280000  1
  F  F2  1  0.46141700  0.40408800  0.27280000  1
  F  F3  1  0.96141700  0.59591200  0.72720000  1
  F  F4  1  0.54954300  0.85614500  0.37477300  1
  F  F5  1  0.04954300  0.14385500  0.62522700  1
  F  F6  1  0.45045700  0.14385500  0.62522700  1
  F  F7  1  0.95045700  0.85614500  0.37477300  1
loop_
_geom_bond_atom_site_label_1
_geom_bond_atom_site_label_2
_geom_bond_distance
_geom_bond_site_symmetry_2
Mn0 O0 1.963055 1_555
Mn0 O2 1.976003 1_555
Mn1 O1 1.963055 1_555
Mn1 O3 1.976003 1_555
Ag0 O5 2.412673 1_655
Ag0 O6 2.412673 1_555
Ag0 O4 2.462851 1_564
Ag0 O7 2.462851 1_564
Ag1 O4 2.412673 1_555
Ag1 O7 2.412673 1_455
Ag1 O6 2.462851 1_546
Ag1 O5 2.462851 1_546
H0 O0 1.033044 1_545
H1 O1 1.033044 1_565
H2 O1 1.033044 1_565
H3 O0 1.033044 1_545
H4 O2 1.005818 1_555
H5 O3 1.005818 1_555
H6 O3 1.005818 1_555
H7 O2 1.005818 1_555
H8 O4 0.995097 1_555
H9 O5 0.995097 1_555
H10 O6 0.995097 1_555
H11 O7 0.995097 1_555
H12 O4 0.995330 1_554
H13 O5 0.995330 1_556
H14 O6 0.995330 1_556
H15 O7 0.995330 1_554
F0 H6 1.617378 1_555
F0 Mn0 2.083843 1_555
F1 H7 1.617378 1_455
F1 Mn1 2.083843 1_555
F2 H4 1.617378 1_555
F2 Mn1 2.083843 1_555
F3 H5 1.617378 1_655
F3 Mn0 2.083843 1_555
F4 H2 1.467984 1_555
F4 Mn0 1.991635 1_555
F5 H3 1.467984 1_455
F5 Mn1 1.991635 1_555
F6 H0 1.467984 1_555
F6 Mn1 1.991635 1_555
F7 H1 1.467984 1_655
F7 Mn0 1.991635 1_555
