# generated using pymatgen
data_Li2ZrFe(PO4)3
_symmetry_space_group_name_H-M   'P 1'
_cell_length_a   10.10076300
_cell_length_b   10.88188900
_cell_length_c   13.60985228
_cell_angle_alpha   51.40964251
_cell_angle_beta   90.00000000
_cell_angle_gamma   90.00000000
_symmetry_Int_Tables_number   1
_chemical_formula_structural   Li2ZrFe(PO4)3
_chemical_formula_sum   'Li8 Zr4 Fe4 P12 O48'
_cell_volume   1169.25861772
_cell_formula_units_Z   4
loop_
 _symmetry_equiv_pos_site_id
 _symmetry_equiv_pos_as_xyz
  1  'x, y, z'
loop_
 _atom_site_type_symbol
 _atom_site_label
 _atom_site_symmetry_multiplicity
 _atom_site_fract_x
 _atom_site_fract_y
 _atom_site_fract_z
 _atom_site_occupancy
  Li  Li0  1  0.09927200  0.16326000  0.85256200  1
  Li  Li1  1  0.32233100  0.12276700  0.73534400  1
  Li  Li2  1  0.82233100  0.87723300  0.76465600  1
  Li  Li3  1  0.59927200  0.83674000  0.64743800  1
  Li  Li4  1  0.40072800  0.16326000  0.35256200  1
  Li  Li5  1  0.17766900  0.12276700  0.23534400  1
  Li  Li6  1  0.67766900  0.87723300  0.26465600  1
  Li  Li7  1  0.90072800  0.83674000  0.14743800  1
  Zr  Zr0  1  0.96319900  0.45724300  0.76219500  1
  Zr  Zr1  1  0.46319900  0.54275700  0.73780500  1
  Zr  Zr2  1  0.53680100  0.45724300  0.26219500  1
  Zr  Zr3  1  0.03680100  0.54275700  0.23780500  1
  Fe  Fe0  1  0.37760500  0.78506500  0.83275400  1
  Fe  Fe1  1  0.87760500  0.21493500  0.66724600  1
  Fe  Fe2  1  0.12239500  0.78506500  0.33275400  1
  Fe  Fe3  1  0.62239500  0.21493500  0.16724600  1
  P  P0  1  0.75572100  0.53158200  0.92078700  1
  P  P1  1  0.80467800  0.58559900  0.11137900  1
  P  P2  1  0.91104500  0.05394600  0.20842400  1
  P  P3  1  0.30467800  0.41440100  0.38862100  1
  P  P4  1  0.41104500  0.94605400  0.29157600  1
  P  P5  1  0.25572100  0.46841800  0.57921300  1
  P  P6  1  0.74427900  0.53158200  0.42078700  1
  P  P7  1  0.69532200  0.58559900  0.61137900  1
  P  P8  1  0.58895500  0.05394600  0.70842400  1
  P  P9  1  0.19532200  0.41440100  0.88862100  1
  P  P10  1  0.08895500  0.94605400  0.79157600  1
  P  P11  1  0.24427900  0.46841800  0.07921300  1
  O  O0  1  0.35617300  0.58987100  0.00719500  1
  O  O1  1  0.17071400  0.45510000  0.98048100  1
  O  O2  1  0.34328500  0.38103300  0.88964600  1
  O  O3  1  0.11733600  0.97105800  0.88808300  1
  O  O4  1  0.86528400  0.46395200  0.88768000  1
  O  O5  1  0.71234600  0.69293800  0.80818800  1
  O  O6  1  0.64562400  0.44075400  0.74331700  1
  O  O7  1  0.99991800  0.81291900  0.82566700  1
  O  O8  1  0.73447400  0.06725300  0.74999100  1
  O  O9  1  0.60489700  0.71876200  0.57828900  1
  O  O10  1  0.52208000  0.89612200  0.82977900  1
  O  O11  1  0.92940500  0.28696500  0.75687200  1
  O  O12  1  0.42940500  0.71303500  0.74312800  1
  O  O13  1  0.02208000  0.10387800  0.67022100  1
  O  O14  1  0.23447400  0.93274700  0.75000900  1
  O  O15  1  0.10489700  0.28123800  0.92171100  1
  O  O16  1  0.49991800  0.18708100  0.67433300  1
  O  O17  1  0.14562400  0.55924600  0.75668300  1
  O  O18  1  0.21234600  0.30706200  0.69181200  1
  O  O19  1  0.36528400  0.53604800  0.61232000  1
  O  O20  1  0.61733600  0.02894200  0.61191700  1
  O  O21  1  0.84328500  0.61896700  0.61035400  1
  O  O22  1  0.85617300  0.41012900  0.49280500  1
  O  O23  1  0.67071400  0.54490000  0.51951900  1
  O  O24  1  0.32928600  0.45510000  0.48048100  1
  O  O25  1  0.14382700  0.58987100  0.50719500  1
  O  O26  1  0.38266400  0.97105800  0.38808300  1
  O  O27  1  0.15671500  0.38103300  0.38964600  1
  O  O28  1  0.63471600  0.46395200  0.38768000  1
  O  O29  1  0.78765400  0.69293800  0.30818800  1
  O  O30  1  0.85437600  0.44075400  0.24331700  1
  O  O31  1  0.50008200  0.81291900  0.32566700  1
  O  O32  1  0.89510300  0.71876200  0.07828900  1
  O  O33  1  0.76552600  0.06725300  0.24999100  1
  O  O34  1  0.97792000  0.89612200  0.32977900  1
  O  O35  1  0.57059500  0.28696500  0.25687200  1
  O  O36  1  0.07059500  0.71303500  0.24312800  1
  O  O37  1  0.47792000  0.10387800  0.17022100  1
  O  O38  1  0.39510300  0.28123800  0.42171100  1
  O  O39  1  0.26552600  0.93274700  0.25000900  1
  O  O40  1  0.35437600  0.55924600  0.25668300  1
  O  O41  1  0.00008200  0.18708100  0.17433300  1
  O  O42  1  0.28765400  0.30706200  0.19181200  1
  O  O43  1  0.13471600  0.53604800  0.11232000  1
  O  O44  1  0.88266400  0.02894200  0.11191700  1
  O  O45  1  0.65671500  0.61896700  0.11035400  1
  O  O46  1  0.82928600  0.54490000  0.01951900  1
  O  O47  1  0.64382700  0.41012900  0.99280500  1
loop_
_geom_bond_atom_site_label_1
_geom_bond_atom_site_label_2
_geom_bond_distance
_geom_bond_site_symmetry_2
Li0 O3 1.838504 1_545
Li0 O15 2.011059 1_555
Li0 O11 2.065205 1_455
Li0 O18 2.066095 1_555
Li1 O16 1.916225 1_555
Li1 O18 2.030981 1_555
Li1 O14 2.142010 1_545
Li2 O7 1.916225 1_555
Li2 O5 2.030981 1_555
Li2 O8 2.142010 1_565
Li3 O20 1.838504 1_565
Li3 O9 2.011059 1_555
Li3 O12 2.065205 1_555
Li3 O5 2.066095 1_555
Li4 O26 1.838504 1_545
Li4 O38 2.011059 1_555
Li4 O35 2.065205 1_555
Li4 O42 2.066095 1_555
Li5 O41 1.916225 1_555
Li5 O42 2.030981 1_555
Li5 O39 2.142010 1_545
Li6 O31 1.916225 1_555
Li6 O29 2.030981 1_555
Li6 O33 2.142010 1_565
Li7 O44 1.838504 1_565
Li7 O32 2.011059 1_555
Li7 O36 2.065205 1_655
Li7 O29 2.066095 1_555
Fe0 O10 1.879008 1_555
Fe0 O12 1.889120 1_555
Fe0 O14 1.919190 1_555
Fe0 O0 1.975884 1_556
Fe1 O13 1.879008 1_655
Fe1 O11 1.889120 1_555
Fe1 O8 1.919190 1_555
Fe1 O22 1.975884 1_555
Fe2 O34 1.879008 1_455
Fe2 O36 1.889120 1_555
Fe2 O39 1.919190 1_555
Fe2 O25 1.975884 1_555
Fe3 O37 1.879008 1_555
Fe3 O35 1.889120 1_555
Fe3 O33 1.919190 1_555
Fe3 O47 1.975884 1_554
O0 P11 1.539090 1_555
O1 P9 1.584821 1_555
O1 P11 1.619162 1_556
O2 P9 1.536024 1_555
O2 Zr1 2.073120 1_555
O3 P10 1.525509 1_555
O4 P0 1.543705 1_555
O4 Zr0 2.013881 1_555
O5 P0 1.505549 1_555
O6 P7 1.558834 1_555
O6 Zr1 2.128170 1_555
O7 P10 1.511437 1_655
O8 P8 1.613589 1_555
O9 P7 1.524052 1_555
O9 Zr1 2.289721 1_555
O10 P8 1.610937 1_565
O11 Zr0 1.929413 1_555
O12 Zr1 1.929413 1_555
O13 P10 1.610937 1_545
O14 P10 1.613589 1_555
O15 P9 1.524052 1_555
O15 Zr0 2.289721 1_455
O16 P8 1.511437 1_555
O17 P9 1.558834 1_555
O17 Zr0 2.128170 1_455
O18 P5 1.505549 1_555
O19 P5 1.543705 1_555
O19 Zr1 2.013881 1_555
O20 P8 1.525509 1_555
O21 P7 1.536024 1_555
O21 Zr0 2.073120 1_555
O22 P6 1.539090 1_555
O23 P7 1.584821 1_555
O23 P6 1.619162 1_555
O24 P3 1.584821 1_555
O24 P5 1.619162 1_555
O25 P5 1.539090 1_555
O26 P4 1.525509 1_555
O27 P3 1.536024 1_555
O27 Zr3 2.073120 1_555
O28 P6 1.543705 1_555
O28 Zr2 2.013881 1_555
O29 P6 1.505549 1_555
O30 P1 1.558834 1_555
O30 Zr3 2.128170 1_655
O31 P4 1.511437 1_555
O32 P1 1.524052 1_555
O32 Zr3 2.289721 1_655
O33 P2 1.613589 1_555
O34 P2 1.610937 1_565
O35 Zr2 1.929413 1_555
O36 Zr3 1.929413 1_555
O37 P4 1.610937 1_545
O38 P3 1.524052 1_555
O38 Zr2 2.289721 1_555
O39 P4 1.613589 1_555
O40 P3 1.558834 1_555
O40 Zr2 2.128170 1_555
O41 P2 1.511437 1_455
O42 P11 1.505549 1_555
O43 P11 1.543705 1_555
O43 Zr3 2.013881 1_555
O44 P2 1.525509 1_555
O45 P1 1.536024 1_555
O45 Zr2 2.073120 1_555
O46 P1 1.584821 1_555
O46 P0 1.619162 1_554
O47 P0 1.539090 1_555
