# generated using pymatgen
data_LiFeB2O5
_symmetry_space_group_name_H-M   'P 1'
_cell_length_a   7.31004036
_cell_length_b   7.31004036
_cell_length_c   9.78424706
_cell_angle_alpha   69.46284360
_cell_angle_beta   69.46284360
_cell_angle_gamma   90.97892129
_symmetry_Int_Tables_number   1
_chemical_formula_structural   LiFeB2O5
_chemical_formula_sum   'Li4 Fe4 B8 O20'
_cell_volume   452.59784431
_cell_formula_units_Z   4
loop_
 _symmetry_equiv_pos_site_id
 _symmetry_equiv_pos_as_xyz
  1  'x, y, z'
loop_
 _atom_site_type_symbol
 _atom_site_label
 _atom_site_symmetry_multiplicity
 _atom_site_fract_x
 _atom_site_fract_y
 _atom_site_fract_z
 _atom_site_occupancy
  Li  Li0  1  0.83885500  0.16114500  0.75000000  1
  Li  Li1  1  0.37878500  0.62121500  0.75000000  1
  Li  Li2  1  0.62121500  0.37878500  0.25000000  1
  Li  Li3  1  0.16114500  0.83885500  0.25000000  1
  Fe  Fe0  1  0.95750600  0.64725300  0.65106000  1
  Fe  Fe1  1  0.64725300  0.95750600  0.15106000  1
  Fe  Fe2  1  0.35274700  0.04249400  0.84894000  1
  Fe  Fe3  1  0.04249400  0.35274700  0.34894000  1
  B  B0  1  0.76117700  0.77252700  0.90538800  1
  B  B1  1  0.73691900  0.40058300  0.97458500  1
  B  B2  1  0.77252700  0.76117700  0.40538800  1
  B  B3  1  0.40058300  0.73691900  0.47458500  1
  B  B4  1  0.59941700  0.26308100  0.52541500  1
  B  B5  1  0.22747300  0.23882300  0.59461200  1
  B  B6  1  0.26308100  0.59941700  0.02541500  1
  B  B7  1  0.23882300  0.22747300  0.09461200  1
  O  O0  1  0.70633700  0.91896200  0.96141000  1
  O  O1  1  0.85532700  0.82571100  0.74647600  1
  O  O2  1  0.91896200  0.70633700  0.46141000  1
  O  O3  1  0.81639900  0.40492400  0.82502200  1
  O  O4  1  0.33400000  0.76771200  0.89047100  1
  O  O5  1  0.82571100  0.85532700  0.24647600  1
  O  O6  1  0.57309500  0.71716800  0.51250200  1
  O  O7  1  0.28283200  0.42690500  0.98749800  1
  O  O8  1  0.40492400  0.81639900  0.32502200  1
  O  O9  1  0.76771200  0.33400000  0.39047100  1
  O  O10  1  0.23228800  0.66600000  0.60952900  1
  O  O11  1  0.59507600  0.18360100  0.67497800  1
  O  O12  1  0.71716800  0.57309500  0.01250200  1
  O  O13  1  0.42690500  0.28283200  0.48749800  1
  O  O14  1  0.17428900  0.14467300  0.75352400  1
  O  O15  1  0.66600000  0.23228800  0.10952900  1
  O  O16  1  0.18360100  0.59507600  0.17497800  1
  O  O17  1  0.08103800  0.29366300  0.53859000  1
  O  O18  1  0.14467300  0.17428900  0.25352400  1
  O  O19  1  0.29366300  0.08103800  0.03859000  1
loop_
_geom_bond_atom_site_label_1
_geom_bond_atom_site_label_2
_geom_bond_distance
_geom_bond_site_symmetry_2
Li0 O17 2.077832 1_655
Li0 O0 2.077832 1_545
Li0 O3 2.141176 1_555
Li0 O11 2.141176 1_555
Li0 O14 2.468737 1_655
Li0 O1 2.468737 1_545
Li1 O4 1.967729 1_555
Li1 O10 1.967729 1_555
Li1 O7 2.101390 1_555
Li1 O6 2.101390 1_555
Li2 O9 1.967729 1_555
Li2 O15 1.967729 1_555
Li2 O13 2.101390 1_555
Li2 O12 2.101390 1_555
Li3 O19 2.077832 1_565
Li3 O2 2.077832 1_455
Li3 O16 2.141176 1_555
Li3 O8 2.141176 1_555
Li3 O18 2.468737 1_565
Li3 O5 2.468737 1_455
Fe0 O2 1.875578 1_555
Fe0 O1 1.878781 1_555
Fe0 O10 1.896703 1_655
Fe0 O3 1.920749 1_555
Fe1 O0 1.875578 1_554
Fe1 O5 1.878781 1_555
Fe1 O15 1.896703 1_565
Fe1 O8 1.920749 1_555
Fe2 O19 1.875578 1_556
Fe2 O14 1.878781 1_555
Fe2 O4 1.896703 1_545
Fe2 O11 1.920749 1_555
Fe3 O17 1.875578 1_555
Fe3 O18 1.878781 1_555
Fe3 O9 1.896703 1_455
Fe3 O16 1.920749 1_555
B0 O1 1.363177 1_555
B0 O0 1.370831 1_555
B0 O12 1.415138 1_556
B1 O3 1.360239 1_555
B1 O15 1.372516 1_556
B1 O12 1.430268 1_556
B2 O5 1.363177 1_555
B2 O2 1.370831 1_555
B2 O6 1.415138 1_555
B3 O8 1.360239 1_555
B3 O10 1.372516 1_555
B3 O6 1.430268 1_555
B4 O11 1.360239 1_555
B4 O9 1.372516 1_555
B4 O13 1.430268 1_555
B5 O14 1.363177 1_555
B5 O17 1.370831 1_555
B5 O13 1.415138 1_555
B6 O16 1.360239 1_555
B6 O4 1.372516 1_554
B6 O7 1.430268 1_554
B7 O18 1.363177 1_555
B7 O19 1.370831 1_555
B7 O7 1.415138 1_554
