# generated using pymatgen
data_Fe5(OF4)2
_symmetry_space_group_name_H-M   'P 1'
_cell_length_a   4.80366100
_cell_length_b   5.80071705
_cell_length_c   13.54452586
_cell_angle_alpha   78.84273316
_cell_angle_beta   89.14657620
_cell_angle_gamma   88.86104545
_symmetry_Int_Tables_number   1
_chemical_formula_structural   Fe5(OF4)2
_chemical_formula_sum   'Fe10 O4 F16'
_cell_volume   370.18399915
_cell_formula_units_Z   2
loop_
 _symmetry_equiv_pos_site_id
 _symmetry_equiv_pos_as_xyz
  1  'x, y, z'
loop_
 _atom_site_type_symbol
 _atom_site_label
 _atom_site_symmetry_multiplicity
 _atom_site_fract_x
 _atom_site_fract_y
 _atom_site_fract_z
 _atom_site_occupancy
  Fe  Fe0  1  0.48065700  0.50205000  0.98982300  1
  Fe  Fe1  1  0.52704500  0.28997600  0.59732200  1
  Fe  Fe2  1  0.48984700  0.88754700  0.80275900  1
  Fe  Fe3  1  0.50982100  0.69272700  0.39571800  1
  Fe  Fe4  1  0.51047100  0.09501400  0.19768900  1
  Fe  Fe5  1  0.99800500  0.81347900  0.59434800  1
  Fe  Fe6  1  0.96362000  0.61860100  0.20497300  1
  Fe  Fe7  1  0.02113900  0.40718500  0.80246100  1
  Fe  Fe8  1  0.97223900  0.21897500  0.40217400  1
  Fe  Fe9  1  0.98939400  0.99351900  0.00963900  1
  O  O0  1  0.80488800  0.90445100  0.14646000  1
  O  O1  1  0.80910100  0.50934200  0.33861600  1
  O  O2  1  0.80327500  0.13374100  0.53462200  1
  O  O3  1  0.30790300  0.57843900  0.86826100  1
  F  F0  1  0.81005700  0.72409700  0.73588500  1
  F  F1  1  0.79239000  0.31638300  0.94207000  1
  F  F2  1  0.70318000  0.80245300  0.94620300  1
  F  F3  1  0.68513700  0.60915700  0.54552700  1
  F  F4  1  0.70774300  0.02258300  0.34352000  1
  F  F5  1  0.70339800  0.42741100  0.13088000  1
  F  F6  1  0.69373700  0.22639100  0.73448300  1
  F  F7  1  0.31497200  0.99775100  0.65473000  1
  F  F8  1  0.28974700  0.77262300  0.25946700  1
  F  F9  1  0.30552300  0.19636600  0.05454900  1
  F  F10  1  0.29816700  0.37126100  0.46586300  1
  F  F11  1  0.18718400  0.07767200  0.86158200  1
  F  F12  1  0.20728400  0.65940500  0.07153900  1
  F  F13  1  0.20145100  0.89690900  0.45254700  1
  F  F14  1  0.21500300  0.47725300  0.65281500  1
  F  F15  1  0.19762300  0.27723800  0.26347500  1
loop_
_geom_bond_atom_site_label_1
_geom_bond_atom_site_label_2
_geom_bond_distance
_geom_bond_site_symmetry_2
Fe0 O3 1.827483 1_555
Fe1 O2 1.876095 1_555
Fe2 O3 2.046843 1_555
Fe3 O1 2.005259 1_555
Fe4 O0 1.977122 1_545
Fe5 O2 2.086265 1_565
Fe6 O0 1.848805 1_555
Fe6 O1 1.940075 1_555
Fe7 O3 2.027877 1_555
Fe8 O1 1.897016 1_555
Fe8 O2 1.936693 1_555
Fe9 O0 2.021253 1_555
F0 Fe2 2.078040 1_555
F0 Fe5 2.083605 1_555
F0 Fe7 2.128914 1_655
F1 Fe0 1.999319 1_555
F1 Fe9 2.129010 1_546
F1 Fe7 2.153176 1_655
F2 Fe0 2.045716 1_555
F2 Fe9 2.078750 1_556
F2 Fe2 2.176388 1_555
F3 Fe1 2.008532 1_555
F3 Fe5 2.122372 1_555
F3 Fe3 2.171508 1_555
F4 Fe8 1.995271 1_555
F4 Fe3 2.143279 1_545
F4 Fe4 2.166736 1_555
F5 Fe6 2.079146 1_555
F5 Fe0 2.169066 1_554
F5 Fe4 2.183177 1_555
F6 Fe1 1.998987 1_555
F6 Fe7 2.214376 1_655
F6 Fe2 2.241405 1_545
F7 Fe1 2.012655 1_565
F7 Fe5 2.137726 1_455
F7 Fe2 2.160341 1_555
F8 Fe6 2.035328 1_455
F8 Fe3 2.108488 1_555
F8 Fe4 2.183675 1_565
F9 Fe0 2.014013 1_554
F9 Fe9 2.106219 1_445
F9 Fe4 2.160189 1_555
F10 Fe1 2.077083 1_555
F10 Fe8 2.089463 1_455
F10 Fe3 2.185074 1_555
F11 Fe2 2.051020 1_545
F11 Fe7 2.072919 1_555
F11 Fe9 2.178376 1_446
F12 Fe0 2.020561 1_554
F12 Fe6 2.115378 1_455
F12 Fe9 2.207107 1_455
F13 Fe3 2.106810 1_555
F13 Fe5 2.116903 1_455
F13 Fe8 2.148339 1_465
F14 Fe1 2.051734 1_555
F14 Fe7 2.186480 1_555
F14 Fe5 2.205356 1_455
F15 Fe4 2.105038 1_555
F15 Fe8 2.126928 1_455
F15 Fe6 2.267867 1_455
