# generated using pymatgen
data_NaLi5Fe2P2(CO7)2
_symmetry_space_group_name_H-M   'P 1'
_cell_length_a   6.53581900
_cell_length_b   8.56904972
_cell_length_c   10.11539303
_cell_angle_alpha   85.82909656
_cell_angle_beta   89.91662270
_cell_angle_gamma   89.17155747
_symmetry_Int_Tables_number   1
_chemical_formula_structural   NaLi5Fe2P2(CO7)2
_chemical_formula_sum   'Na2 Li10 Fe4 P4 C4 O28'
_cell_volume   564.96074055
_cell_formula_units_Z   2
loop_
 _symmetry_equiv_pos_site_id
 _symmetry_equiv_pos_as_xyz
  1  'x, y, z'
loop_
 _atom_site_type_symbol
 _atom_site_label
 _atom_site_symmetry_multiplicity
 _atom_site_fract_x
 _atom_site_fract_y
 _atom_site_fract_z
 _atom_site_occupancy
  Na  Na0  1  0.50007100  0.74405300  0.37171800  1
  Na  Na1  1  0.49992900  0.25594700  0.62828200  1
  Li  Li0  1  0.76562700  0.90847100  0.12177300  1
  Li  Li1  1  0.77056000  0.91318100  0.62596900  1
  Li  Li2  1  0.97727400  0.72302500  0.37775200  1
  Li  Li3  1  0.97607000  0.72345900  0.87743900  1
  Li  Li4  1  0.51736300  0.72845100  0.87437900  1
  Li  Li5  1  0.48263700  0.27154900  0.12562100  1
  Li  Li6  1  0.02393000  0.27654100  0.12256100  1
  Li  Li7  1  0.02272600  0.27697500  0.62224800  1
  Li  Li8  1  0.22944000  0.08681900  0.37403100  1
  Li  Li9  1  0.23437300  0.09152900  0.87822700  1
  Fe  Fe0  1  0.24683900  0.66358100  0.10380000  1
  Fe  Fe1  1  0.24466400  0.65846100  0.60869100  1
  Fe  Fe2  1  0.75533600  0.34153900  0.39130900  1
  Fe  Fe3  1  0.75316100  0.33641900  0.89620000  1
  P  P0  1  0.75268700  0.58882700  0.14191800  1
  P  P1  1  0.75517800  0.58977900  0.64579600  1
  P  P2  1  0.24482200  0.41022100  0.35420400  1
  P  P3  1  0.24731300  0.41117300  0.85808200  1
  C  C0  1  0.24701100  0.96647000  0.14158800  1
  C  C1  1  0.23978700  0.95900000  0.64707900  1
  C  C2  1  0.76021300  0.04100000  0.35292100  1
  C  C3  1  0.75298900  0.03353000  0.85841200  1
  O  O0  1  0.77853300  0.89773300  0.32158100  1
  O  O1  1  0.74576700  0.88810700  0.83076200  1
  O  O2  1  0.24717800  0.92556500  0.02057900  1
  O  O3  1  0.25079400  0.92383400  0.52432300  1
  O  O4  1  0.23848800  0.85759200  0.23867800  1
  O  O5  1  0.24644000  0.84651900  0.74192600  1
  O  O6  1  0.93324300  0.68957900  0.08281400  1
  O  O7  1  0.56028200  0.69067100  0.09939400  1
  O  O8  1  0.93036100  0.70149700  0.59466400  1
  O  O9  1  0.55676100  0.67971000  0.60011100  1
  O  O10  1  0.77074200  0.57156300  0.29579800  1
  O  O11  1  0.22512200  0.57216800  0.41094000  1
  O  O12  1  0.75849300  0.56966800  0.80096100  1
  O  O13  1  0.25371900  0.57633800  0.91005300  1
  O  O14  1  0.74628100  0.42366200  0.08994700  1
  O  O15  1  0.24150700  0.43033200  0.19903900  1
  O  O16  1  0.77487800  0.42783200  0.58906000  1
  O  O17  1  0.22925800  0.42843700  0.70420200  1
  O  O18  1  0.44323900  0.32029000  0.39988900  1
  O  O19  1  0.06963900  0.29850300  0.40533600  1
  O  O20  1  0.43971800  0.30932900  0.90060600  1
  O  O21  1  0.06675700  0.31042100  0.91718600  1
  O  O22  1  0.75356000  0.15348100  0.25807400  1
  O  O23  1  0.76151200  0.14240800  0.76132200  1
  O  O24  1  0.74920600  0.07616600  0.47567700  1
  O  O25  1  0.75282200  0.07443500  0.97942100  1
  O  O26  1  0.25423300  0.11189300  0.16923800  1
  O  O27  1  0.22146700  0.10226700  0.67841900  1
loop_
_geom_bond_atom_site_label_1
_geom_bond_atom_site_label_2
_geom_bond_distance
_geom_bond_site_symmetry_2
Na0 O0 2.296344 1_555
Na0 O4 2.334245 1_555
Na0 O11 2.354898 1_555
Na0 O9 2.364315 1_555
Na0 O10 2.447362 1_555
Na0 O3 2.770668 1_555
Na0 O7 2.850828 1_555
Na1 O27 2.296344 1_555
Na1 O23 2.334245 1_555
Na1 O16 2.354898 1_555
Na1 O18 2.364315 1_555
Na1 O17 2.447362 1_555
Na1 O24 2.770668 1_555
Na1 O20 2.850828 1_555
Li0 O25 1.949871 1_564
Li0 O0 2.018364 1_555
Li0 O6 2.218226 1_555
Li0 O7 2.338902 1_555
Li1 O24 1.991826 1_565
Li1 O1 2.073421 1_555
Li1 O8 2.123502 1_555
Li1 O23 2.474668 1_565
Li1 O9 2.486268 1_555
Li2 O0 2.018293 1_555
Li2 O11 2.070199 1_655
Li2 O10 2.098638 1_555
Li2 O8 2.209782 1_555
Li2 O4 2.457108 1_655
Li3 O1 2.079169 1_555
Li3 O6 2.095556 1_556
Li3 O12 2.136135 1_555
Li3 O13 2.205960 1_655
Li3 O5 2.439296 1_655
Li4 O1 2.064987 1_555
Li4 O13 2.189322 1_555
Li4 O12 2.228925 1_555
Li4 O7 2.292649 1_556
Li4 O5 2.389982 1_555
Li5 O26 2.064987 1_555
Li5 O14 2.189322 1_555
Li5 O15 2.228925 1_555
Li5 O20 2.292649 1_554
Li5 O22 2.389982 1_555
Li6 O26 2.079169 1_555
Li6 O21 2.095556 1_554
Li6 O15 2.136135 1_555
Li6 O14 2.205960 1_455
Li6 O22 2.439296 1_455
Li7 O27 2.018293 1_555
Li7 O16 2.070199 1_455
Li7 O17 2.098638 1_555
Li7 O19 2.209782 1_555
Li7 O23 2.457108 1_455
Li8 O3 1.991826 1_545
Li8 O26 2.073421 1_555
Li8 O19 2.123502 1_555
Li8 O4 2.474668 1_545
Li8 O18 2.486268 1_555
Li9 O2 1.949871 1_546
Li9 O27 2.018364 1_555
Li9 O21 2.218226 1_555
Li9 O20 2.338902 1_555
Fe0 O7 2.065101 1_555
Fe0 O6 2.068034 1_455
Fe0 O13 2.147960 1_554
Fe0 O15 2.155465 1_555
Fe0 O4 2.226070 1_555
Fe0 O2 2.339596 1_555
Fe1 O9 2.051691 1_555
Fe1 O8 2.085021 1_455
Fe1 O17 2.134755 1_555
Fe1 O5 2.174826 1_555
Fe1 O11 2.187019 1_555
Fe1 O3 2.370910 1_555
Fe2 O18 2.051691 1_555
Fe2 O19 2.085021 1_655
Fe2 O10 2.134755 1_555
Fe2 O22 2.174826 1_555
Fe2 O16 2.187019 1_555
Fe2 O24 2.370910 1_555
Fe3 O20 2.065101 1_555
Fe3 O21 2.068034 1_655
Fe3 O14 2.147960 1_556
Fe3 O12 2.155465 1_555
Fe3 O23 2.226070 1_555
Fe3 O25 2.339596 1_555
C0 O2 1.297523 1_555
C0 O26 1.298364 1_565
C0 O4 1.306194 1_555
C1 O27 1.293925 1_565
C1 O3 1.300540 1_555
C1 O5 1.309877 1_555
C2 O0 1.293925 1_545
C2 O24 1.300540 1_555
C2 O22 1.309877 1_555
C3 O25 1.297523 1_555
C3 O1 1.298364 1_545
C3 O23 1.306194 1_555
O6 P0 1.564521 1_555
O7 P0 1.563088 1_555
O8 P1 1.566162 1_555
O9 P1 1.552480 1_555
O10 P0 1.557309 1_555
O11 P2 1.543443 1_555
O12 P1 1.566626 1_555
O13 P3 1.546358 1_555
O14 P0 1.546358 1_555
O15 P2 1.566626 1_555
O16 P1 1.543443 1_555
O17 P3 1.557309 1_555
O18 P2 1.552480 1_555
O19 P2 1.566162 1_555
O20 P3 1.563088 1_555
O21 P3 1.564521 1_555
