# generated using pymatgen
data_Li3Fe8(BO3)8
_symmetry_space_group_name_H-M   'P 1'
_cell_length_a   5.25739500
_cell_length_b   9.12361381
_cell_length_c   10.13883060
_cell_angle_alpha   89.49764229
_cell_angle_beta   89.33835181
_cell_angle_gamma   89.02579566
_symmetry_Int_Tables_number   1
_chemical_formula_structural   Li3Fe8(BO3)8
_chemical_formula_sum   'Li3 Fe8 B8 O24'
_cell_volume   486.20303816
_cell_formula_units_Z   1
loop_
 _symmetry_equiv_pos_site_id
 _symmetry_equiv_pos_as_xyz
  1  'x, y, z'
loop_
 _atom_site_type_symbol
 _atom_site_label
 _atom_site_symmetry_multiplicity
 _atom_site_fract_x
 _atom_site_fract_y
 _atom_site_fract_z
 _atom_site_occupancy
  Li  Li0  1  0.18206500  0.16936100  0.14285200  1
  Li  Li1  1  0.32189100  0.33350000  0.41166800  1
  Li  Li2  1  0.65953300  0.67318700  0.65713400  1
  Fe  Fe0  1  0.15435200  0.84939300  0.63010600  1
  Fe  Fe1  1  0.18221600  0.50398400  0.12821200  1
  Fe  Fe2  1  0.32996800  0.99907200  0.86891600  1
  Fe  Fe3  1  0.32781800  0.67071100  0.37884800  1
  Fe  Fe4  1  0.66307800  0.33474900  0.63504700  1
  Fe  Fe5  1  0.67311900  0.99535700  0.12295400  1
  Fe  Fe6  1  0.83024000  0.15290800  0.38434000  1
  Fe  Fe7  1  0.83265300  0.49198700  0.88338600  1
  B  B0  1  0.16830500  0.50540600  0.62142600  1
  B  B1  1  0.16974600  0.83698100  0.13326600  1
  B  B2  1  0.33886000  0.00180600  0.37184600  1
  B  B3  1  0.32405000  0.66512500  0.87381100  1
  B  B4  1  0.65871100  0.99585000  0.62743100  1
  B  B5  1  0.67326700  0.32342000  0.12988800  1
  B  B6  1  0.82980800  0.49387500  0.37864000  1
  B  B7  1  0.82934500  0.16679200  0.88386600  1
  O  O0  1  0.09158800  0.50127200  0.34950200  1
  O  O1  1  0.08492700  0.14811100  0.89166700  1
  O  O2  1  0.21891400  0.80147300  0.84181900  1
  O  O3  1  0.24121600  0.87464400  0.42245700  1
  O  O4  1  0.19236900  0.12914600  0.36071700  1
  O  O5  1  0.16910400  0.55689100  0.92574900  1
  O  O6  1  0.29867700  0.37687800  0.60380500  1
  O  O7  1  0.31429900  0.95821100  0.08904100  1
  O  O8  1  0.28121100  0.63826600  0.58174300  1
  O  O9  1  0.29099700  0.71327000  0.18368100  1
  O  O10  1  0.41522900  0.32810100  0.14435500  1
  O  O11  1  0.41184300  0.01048000  0.67879900  1
  O  O12  1  0.59074100  0.00527700  0.32631000  1
  O  O13  1  0.57745200  0.63695100  0.85034000  1
  O  O14  1  0.72014500  0.29620500  0.83827700  1
  O  O15  1  0.72846900  0.35628700  0.41050000  1
  O  O16  1  0.67483000  0.61380500  0.38051800  1
  O  O17  1  0.66787000  0.05520000  0.92890700  1
  O  O18  1  0.81441800  0.43791400  0.07855600  1
  O  O19  1  0.78402700  0.86501600  0.62877100  1
  O  O20  1  0.76743900  0.12200500  0.57249800  1
  O  O21  1  0.81213300  0.19415100  0.16882500  1
  O  O22  1  0.91324500  0.84708400  0.12705500  1
  O  O23  1  0.91868900  0.51000600  0.67387200  1
loop_
_geom_bond_atom_site_label_1
_geom_bond_atom_site_label_2
_geom_bond_distance
_geom_bond_site_symmetry_2
Li0 O10 1.913535 1_555
Li0 O21 1.969089 1_455
Li0 O7 2.110998 1_545
Li0 O4 2.237108 1_555
Li1 O6 1.993185 1_555
Li1 O0 2.035676 1_555
Li1 O4 2.067582 1_555
Li1 O15 2.151030 1_555
Li2 O19 1.897359 1_555
Li2 O23 2.008389 1_555
Li2 O13 2.026503 1_555
Li2 O8 2.168591 1_555
Fe0 O19 1.949931 1_455
Fe0 O11 2.081379 1_565
Fe0 O8 2.088297 1_555
Fe0 O3 2.160292 1_555
Fe0 O2 2.215681 1_555
Fe1 O10 2.008910 1_555
Fe1 O9 2.086320 1_555
Fe1 O18 2.103167 1_455
Fe1 O5 2.106241 1_554
Fe1 O0 2.288277 1_555
Fe2 O1 1.871075 1_565
Fe2 O2 1.927354 1_555
Fe2 O17 1.961999 1_565
Fe2 O11 1.972426 1_565
Fe2 O7 2.260299 1_556
Fe3 O16 1.888532 1_555
Fe3 O3 1.961024 1_555
Fe3 O9 2.024000 1_555
Fe3 O0 2.025502 1_555
Fe3 O8 2.087953 1_555
Fe4 O6 1.976159 1_555
Fe4 O20 2.109029 1_555
Fe4 O14 2.111252 1_555
Fe4 O23 2.148006 1_555
Fe4 O15 2.305707 1_555
Fe5 O22 1.835118 1_555
Fe5 O7 1.957185 1_555
Fe5 O21 2.026755 1_565
Fe5 O17 2.037515 1_564
Fe5 O12 2.104297 1_565
Fe6 O4 1.924935 1_655
Fe6 O15 1.941981 1_555
Fe6 O20 1.951159 1_555
Fe6 O12 1.958186 1_555
Fe6 O21 2.216834 1_555
Fe7 O13 1.898401 1_555
Fe7 O5 1.929147 1_655
Fe7 O14 1.950947 1_555
Fe7 O18 2.036742 1_556
Fe7 O23 2.172137 1_555
B0 O6 1.360262 1_555
B0 O23 1.410362 1_455
B0 O8 1.412079 1_555
B1 O22 1.352265 1_455
B1 O9 1.383662 1_555
B1 O7 1.419150 1_555
B2 O3 1.369883 1_545
B2 O4 1.387423 1_555
B2 O12 1.398145 1_555
B3 O13 1.371006 1_555
B3 O5 1.387208 1_555
B3 O2 1.389935 1_555
B4 O19 1.353624 1_555
B4 O11 1.397597 1_565
B4 O20 1.401967 1_565
B5 O10 1.362816 1_555
B5 O18 1.385875 1_555
B5 O21 1.431451 1_555
B6 O16 1.353212 1_555
B6 O15 1.405572 1_555
B6 O0 1.406911 1_655
B7 O1 1.354715 1_655
B7 O14 1.382332 1_555
B7 O17 1.406447 1_555
