# generated using pymatgen
data_MnNi(PO4)2
_symmetry_space_group_name_H-M   'P 1'
_cell_length_a   8.41702423
_cell_length_b   8.41702423
_cell_length_c   8.41702395
_cell_angle_alpha   60.78946587
_cell_angle_beta   60.78946587
_cell_angle_gamma   60.78946495
_symmetry_Int_Tables_number   1
_chemical_formula_structural   MnNi(PO4)2
_chemical_formula_sum   'Mn3 Ni3 P6 O24'
_cell_volume   429.16716480
_cell_formula_units_Z   3
loop_
 _symmetry_equiv_pos_site_id
 _symmetry_equiv_pos_as_xyz
  1  'x, y, z'
loop_
 _atom_site_type_symbol
 _atom_site_label
 _atom_site_symmetry_multiplicity
 _atom_site_fract_x
 _atom_site_fract_y
 _atom_site_fract_z
 _atom_site_occupancy
  Mn  Mn0  1  0.64166900  0.64166900  0.64166900  1
  Mn  Mn1  1  0.85884000  0.85884000  0.85884000  1
  Mn  Mn2  1  0.35828800  0.35828800  0.35828800  1
  Ni  Ni0  1  0.00283200  0.00283200  0.00283200  1
  Ni  Ni1  1  0.14117400  0.14117400  0.14117400  1
  Ni  Ni2  1  0.50060400  0.50060400  0.50060400  1
  P  P0  1  0.95862100  0.24813800  0.54202200  1
  P  P1  1  0.54202200  0.95862100  0.24813800  1
  P  P2  1  0.24813800  0.54202200  0.95862100  1
  P  P3  1  0.74930800  0.45838800  0.03925200  1
  P  P4  1  0.45838800  0.03925200  0.74930800  1
  P  P5  1  0.03925200  0.74930800  0.45838800  1
  O  O0  1  0.51009200  0.12070200  0.30836100  1
  O  O1  1  0.30836100  0.51009200  0.12070200  1
  O  O2  1  0.12070200  0.30836100  0.51009200  1
  O  O3  1  0.94314800  0.08602400  0.74617100  1
  O  O4  1  0.98435100  0.18826700  0.38881900  1
  O  O5  1  0.75681000  0.41484600  0.56241900  1
  O  O6  1  0.74617100  0.94314800  0.08602400  1
  O  O7  1  0.56241900  0.75681000  0.41484600  1
  O  O8  1  0.80933700  0.62054900  0.00755800  1
  O  O9  1  0.41484600  0.56241900  0.75681000  1
  O  O10  1  0.90436200  0.26039500  0.05650900  1
  O  O11  1  0.62054900  0.00755800  0.80933700  1
  O  O12  1  0.38881900  0.98435100  0.18826700  1
  O  O13  1  0.08602400  0.74617100  0.94314800  1
  O  O14  1  0.57967100  0.45175800  0.23953600  1
  O  O15  1  0.18826700  0.38881900  0.98435100  1
  O  O16  1  0.45175800  0.23953600  0.57967100  1
  O  O17  1  0.26039500  0.05650900  0.90436200  1
  O  O18  1  0.23953600  0.57967100  0.45175800  1
  O  O19  1  0.00755800  0.80933700  0.62054900  1
  O  O20  1  0.05650900  0.90436200  0.26039500  1
  O  O21  1  0.87993800  0.68175300  0.49948800  1
  O  O22  1  0.68175300  0.49948800  0.87993800  1
  O  O23  1  0.49948800  0.87993800  0.68175300  1
loop_
_geom_bond_atom_site_label_1
_geom_bond_atom_site_label_2
_geom_bond_distance
_geom_bond_site_symmetry_2
Mn0 O22 1.868654 1_555
Mn0 O23 1.868654 1_555
Mn0 O21 1.868654 1_555
Mn0 O7 1.958375 1_555
Mn0 O5 1.958375 1_555
Mn0 O9 1.958375 1_555
Mn1 O19 1.902490 1_655
Mn1 O11 1.902490 1_565
Mn1 O8 1.902490 1_556
Mn1 O6 1.989244 1_556
Mn1 O13 1.989244 1_655
Mn1 O3 1.989244 1_565
Mn2 O1 1.900126 1_555
Mn2 O0 1.900126 1_555
Mn2 O2 1.900126 1_555
Mn2 O16 1.983855 1_555
Mn2 O18 1.983855 1_555
Mn2 O14 1.983855 1_555
Ni0 O20 2.104201 1_545
Ni0 O10 2.104201 1_455
Ni0 O17 2.104201 1_554
Ni0 O3 2.156182 1_454
Ni0 O13 2.156182 1_544
Ni0 O6 2.156183 1_445
Ni1 O4 1.963314 1_455
Ni1 O12 1.963314 1_545
Ni1 O15 1.963314 1_554
Ni1 O17 2.055246 1_554
Ni1 O10 2.055246 1_455
Ni1 O20 2.055246 1_545
Ni2 O14 2.151266 1_555
Ni2 O18 2.151266 1_555
Ni2 O16 2.151266 1_555
Ni2 O9 2.156723 1_555
Ni2 O5 2.156723 1_555
Ni2 O7 2.156723 1_555
O0 P1 1.540928 1_545
O1 P2 1.540927 1_554
O2 P0 1.540928 1_455
O3 P0 1.580517 1_555
O4 P0 1.489584 1_555
O5 P0 1.583632 1_555
O6 P1 1.580517 1_555
O7 P1 1.583632 1_555
O8 P3 1.541303 1_555
O9 P2 1.583632 1_555
O10 P3 1.525630 1_555
O11 P4 1.541303 1_555
O12 P1 1.489584 1_555
O13 P2 1.580517 1_555
O14 P3 1.587552 1_555
O15 P2 1.489584 1_555
O16 P4 1.587552 1_555
O17 P4 1.525630 1_555
O18 P5 1.587552 1_555
O19 P5 1.541303 1_555
O20 P5 1.525630 1_555
O21 P5 1.529897 1_655
O22 P3 1.529897 1_556
O23 P4 1.529897 1_565
