# generated using pymatgen
data_Mn(IO3)2
_symmetry_space_group_name_H-M   'P 1'
_cell_length_a   10.92594319
_cell_length_b   6.69677824
_cell_length_c   8.62965324
_cell_angle_alpha   61.29272591
_cell_angle_beta   90.00000000
_cell_angle_gamma   90.00000000
_symmetry_Int_Tables_number   1
_chemical_formula_structural   Mn(IO3)2
_chemical_formula_sum   'Mn4 I8 O24'
_cell_volume   553.80896068
_cell_formula_units_Z   4
loop_
 _symmetry_equiv_pos_site_id
 _symmetry_equiv_pos_as_xyz
  1  'x, y, z'
loop_
 _atom_site_type_symbol
 _atom_site_label
 _atom_site_symmetry_multiplicity
 _atom_site_fract_x
 _atom_site_fract_y
 _atom_site_fract_z
 _atom_site_occupancy
  Mn  Mn0  1  0.90651118  0.12726039  0.08068292  1
  Mn  Mn1  1  0.40651118  0.87273961  0.41931708  1
  Mn  Mn2  1  0.59348882  0.12726039  0.58068292  1
  Mn  Mn3  1  0.09348882  0.87273961  0.91931708  1
  I  I0  1  0.21265599  0.35041710  0.92527860  1
  I  I1  1  0.71265599  0.64958290  0.57472140  1
  I  I2  1  0.08083114  0.76081653  0.48630112  1
  I  I3  1  0.58083114  0.23918347  0.01369888  1
  I  I4  1  0.41916886  0.76081653  0.98630112  1
  I  I5  1  0.91916886  0.23918347  0.51369888  1
  I  I6  1  0.28734401  0.35041710  0.42527860  1
  I  I7  1  0.78734401  0.64958290  0.07472140  1
  O  O0  1  0.08297006  0.14969823  0.97695813  1
  O  O1  1  0.89816633  0.38943109  0.64036714  1
  O  O2  1  0.61798626  0.41344599  0.60385779  1
  O  O3  1  0.22684851  0.43498196  0.69344121  1
  O  O4  1  0.72684851  0.56501804  0.80655879  1
  O  O5  1  0.71631523  0.05818481  0.08830327  1
  O  O6  1  0.46536925  0.03358146  0.15501005  1
  O  O7  1  0.11798626  0.58655401  0.89614221  1
  O  O8  1  0.96536925  0.96641854  0.34498995  1
  O  O9  1  0.21631523  0.94181519  0.41169673  1
  O  O10  1  0.39816633  0.61056891  0.85963286  1
  O  O11  1  0.58297006  0.85030177  0.52304187  1
  O  O12  1  0.41702994  0.14969823  0.47695813  1
  O  O13  1  0.60183367  0.38943109  0.14036714  1
  O  O14  1  0.78368477  0.05818481  0.58830327  1
  O  O15  1  0.03463075  0.03358146  0.65501005  1
  O  O16  1  0.88201374  0.41344599  0.10385779  1
  O  O17  1  0.53463075  0.96641854  0.84498995  1
  O  O18  1  0.28368477  0.94181519  0.91169673  1
  O  O19  1  0.27315149  0.43498196  0.19344121  1
  O  O20  1  0.77315149  0.56501804  0.30655879  1
  O  O21  1  0.38201374  0.58655401  0.39614221  1
  O  O22  1  0.10183367  0.61056891  0.35963286  1
  O  O23  1  0.91702994  0.85030177  0.02304187  1
loop_
_geom_bond_atom_site_label_1
_geom_bond_atom_site_label_2
_geom_bond_distance
_geom_bond_site_symmetry_2
Mn0 O16 2.037868 1_555
Mn0 O0 2.100403 1_654
Mn0 O8 2.101426 1_545
Mn0 O5 2.123078 1_555
Mn0 O23 2.141719 1_545
Mn1 O21 2.037868 1_555
Mn1 O11 2.100403 1_555
Mn1 O6 2.101426 1_565
Mn1 O9 2.123078 1_555
Mn1 O12 2.141719 1_565
Mn2 O2 2.037868 1_555
Mn2 O12 2.100403 1_555
Mn2 O17 2.101426 1_545
Mn2 O14 2.123078 1_555
Mn2 O11 2.141719 1_545
Mn3 O7 2.037868 1_555
Mn3 O23 2.100403 1_456
Mn3 O15 2.101426 1_565
Mn3 O18 2.123078 1_555
Mn3 O0 2.141719 1_565
I0 O7 1.803283 1_555
I0 O3 1.805274 1_555
I0 O0 1.854055 1_555
I0 O10 2.552686 1_555
I1 O2 1.803283 1_555
I1 O4 1.805274 1_555
I1 O11 1.854055 1_555
I1 O1 2.552686 1_555
I2 O22 1.821130 1_555
I2 O9 1.823536 1_555
I2 O8 1.833390 1_455
I3 O13 1.821130 1_555
I3 O5 1.823536 1_555
I3 O6 1.833390 1_555
I4 O10 1.821130 1_555
I4 O18 1.823536 1_555
I4 O17 1.833390 1_555
I5 O1 1.821130 1_555
I5 O14 1.823536 1_555
I5 O15 1.833390 1_655
I6 O21 1.803283 1_555
I6 O19 1.805274 1_555
I6 O12 1.854055 1_555
I6 O22 2.552686 1_555
I7 O16 1.803283 1_555
I7 O20 1.805274 1_555
I7 O23 1.854055 1_555
I7 O13 2.552686 1_555
