# generated using pymatgen
data_Li2MnV(PO4)3
_symmetry_space_group_name_H-M   'P 1'
_cell_length_a   8.97359838
_cell_length_b   8.53523951
_cell_length_c   8.22387562
_cell_angle_alpha   60.25520980
_cell_angle_beta   63.27808266
_cell_angle_gamma   92.26671631
_symmetry_Int_Tables_number   1
_chemical_formula_structural   Li2MnV(PO4)3
_chemical_formula_sum   'Li4 Mn2 V2 P6 O24'
_cell_volume   459.61552078
_cell_formula_units_Z   2
loop_
 _symmetry_equiv_pos_site_id
 _symmetry_equiv_pos_as_xyz
  1  'x, y, z'
loop_
 _atom_site_type_symbol
 _atom_site_label
 _atom_site_symmetry_multiplicity
 _atom_site_fract_x
 _atom_site_fract_y
 _atom_site_fract_z
 _atom_site_occupancy
  Li  Li0  1  0.14119300  0.73231400  0.18298100  1
  Li  Li1  1  0.13218200  0.06771400  0.60404900  1
  Li  Li2  1  0.86781800  0.93228600  0.39595100  1
  Li  Li3  1  0.85880700  0.26768600  0.81701900  1
  Mn  Mn0  1  0.05125200  0.35433100  0.29500200  1
  Mn  Mn1  1  0.94874800  0.64566900  0.70499800  1
  V  V0  1  0.56355500  0.84711400  0.29729000  1
  V  V1  1  0.43644500  0.15288600  0.70271000  1
  P  P0  1  0.25481900  0.03097000  0.21578800  1
  P  P1  1  0.24607200  0.45462200  0.50688800  1
  P  P2  1  0.24861900  0.74890700  0.78593100  1
  P  P3  1  0.75138100  0.25109300  0.21406900  1
  P  P4  1  0.75392800  0.54537800  0.49311100  1
  P  P5  1  0.74518100  0.96903000  0.78421200  1
  O  O0  1  0.09139000  0.83904200  0.36622000  1
  O  O1  1  0.28812700  0.11775100  0.97970000  1
  O  O2  1  0.20521500  0.15909600  0.29515500  1
  O  O3  1  0.20886200  0.49527600  0.32317400  1
  O  O4  1  0.08752400  0.44534200  0.69697300  1
  O  O5  1  0.10806600  0.79100000  0.72182000  1
  O  O6  1  0.42126900  0.98816600  0.20648900  1
  O  O7  1  0.27468000  0.25631500  0.60308900  1
  O  O8  1  0.41609900  0.61232000  0.39610800  1
  O  O9  1  0.19770700  0.54123600  0.97131300  1
  O  O10  1  0.26966500  0.88791400  0.84977900  1
  O  O11  1  0.42761300  0.80499000  0.57646800  1
  O  O12  1  0.57238700  0.19501000  0.42353200  1
  O  O13  1  0.73033500  0.11208600  0.15022100  1
  O  O14  1  0.80229300  0.45876300  0.02868700  1
  O  O15  1  0.58390100  0.38768000  0.60389200  1
  O  O16  1  0.72532000  0.74368500  0.39691100  1
  O  O17  1  0.57873100  0.01183400  0.79351100  1
  O  O18  1  0.89193400  0.20900000  0.27818000  1
  O  O19  1  0.91247600  0.55465800  0.30302700  1
  O  O20  1  0.79113800  0.50472400  0.67682600  1
  O  O21  1  0.79478500  0.84090400  0.70484500  1
  O  O22  1  0.71187300  0.88224900  0.02030000  1
  O  O23  1  0.90861000  0.16095800  0.63378000  1
loop_
_geom_bond_atom_site_label_1
_geom_bond_atom_site_label_2
_geom_bond_distance
_geom_bond_site_symmetry_2
Li0 O19 1.983050 1_455
Li0 O10 2.007086 1_554
Li0 O0 2.022149 1_555
Li0 O3 2.050233 1_555
Li1 O2 1.996823 1_555
Li1 O7 2.010468 1_555
Li1 O5 2.016017 1_545
Li1 O23 2.143930 1_455
Li2 O21 1.996823 1_555
Li2 O16 2.010468 1_555
Li2 O18 2.016017 1_565
Li2 O0 2.143930 1_655
Li3 O4 1.983050 1_655
Li3 O13 2.007086 1_556
Li3 O23 2.022149 1_555
Li3 O20 2.050233 1_555
Mn0 O18 1.951820 1_455
Mn0 O9 1.957645 1_554
Mn0 O3 1.984407 1_555
Mn0 O23 2.046360 1_455
Mn0 O19 2.164537 1_455
Mn0 O2 2.206182 1_555
Mn1 O5 1.951820 1_655
Mn1 O14 1.957646 1_556
Mn1 O20 1.984407 1_555
Mn1 O0 2.046360 1_655
Mn1 O4 2.164537 1_655
Mn1 O21 2.206182 1_555
O0 P0 1.591273 1_565
O1 P0 1.562439 1_556
O1 V1 1.901142 1_555
O2 P0 1.518416 1_555
O3 P1 1.567544 1_555
O4 P1 1.530438 1_555
O5 P2 1.563259 1_555
O6 P0 1.529213 1_565
O6 V0 1.929837 1_555
O7 P1 1.563643 1_555
O7 V1 2.002736 1_555
O8 P1 1.529805 1_555
O8 V0 1.906456 1_555
O9 P2 1.517547 1_555
O10 P2 1.551994 1_555
O10 V1 2.051263 1_565
O11 P2 1.552124 1_555
O11 V0 1.875122 1_555
O12 P3 1.552124 1_555
O12 V1 1.875122 1_555
O13 P3 1.551994 1_555
O13 V0 2.051263 1_545
O14 P3 1.517542 1_555
O15 P4 1.529803 1_555
O15 V1 1.906456 1_555
O16 P4 1.563642 1_555
O16 V0 2.002736 1_555
O17 P5 1.529213 1_545
O17 V1 1.929837 1_555
O18 P3 1.563259 1_555
O19 P4 1.530433 1_555
O20 P4 1.567552 1_555
O21 P5 1.518416 1_555
O22 P5 1.562439 1_554
O22 V0 1.901142 1_555
O23 P5 1.591273 1_545
