# generated using pymatgen
data_Y13Tm3O24
_symmetry_space_group_name_H-M   'P 1'
_cell_length_a   9.14272702
_cell_length_b   9.14843561
_cell_length_c   9.15180214
_cell_angle_alpha   109.47800989
_cell_angle_beta   109.45416346
_cell_angle_gamma   109.41525061
_symmetry_Int_Tables_number   1
_chemical_formula_structural   Y13Tm3O24
_chemical_formula_sum   'Y13 Tm3 O24'
_cell_volume   589.74155979
_cell_formula_units_Z   1
loop_
 _symmetry_equiv_pos_site_id
 _symmetry_equiv_pos_as_xyz
  1  'x, y, z'
loop_
 _atom_site_type_symbol
 _atom_site_label
 _atom_site_symmetry_multiplicity
 _atom_site_fract_x
 _atom_site_fract_y
 _atom_site_fract_z
 _atom_site_occupancy
  Y  Y0  1  0.03147023  0.28098822  0.24973325  1
  Y  Y1  1  0.99876206  0.50017322  0.99993156  1
  Y  Y2  1  0.28265362  0.24848306  0.03207551  1
  Y  Y3  1  0.21658119  0.75057516  0.46810817  1
  Y  Y4  1  0.74989349  0.53388414  0.28205208  1
  Y  Y5  1  0.74941351  0.03193122  0.78273306  1
  Y  Y6  1  0.50041586  0.50046992  0.50099583  1
  Y  Y7  1  0.46633607  0.21657109  0.75047290  1
  Y  Y8  1  0.53439954  0.78410399  0.24897991  1
  Y  Y9  1  0.25084070  0.46742028  0.71820424  1
  Y  Y10  1  0.24952212  0.96677353  0.21671228  1
  Y  Y11  1  0.78341994  0.24943190  0.53189667  1
  Y  Y12  1  0.96728161  0.71831478  0.75027848  1
  Tm  Tm0  1  0.99977498  0.99985058  0.49863925  1
  Tm  Tm1  1  0.50051944  0.99946983  0.99991606  1
  Tm  Tm2  1  0.71679082  0.75153426  0.96739958  1
  O  O0  1  0.95746264  0.48940433  0.22884857  1
  O  O1  1  0.54330619  0.26795909  0.03271936  1
  O  O2  1  0.27099489  0.54181344  0.51071953  1
  O  O3  1  0.96516892  0.73981782  0.01060428  1
  O  O4  1  0.77490694  0.76501306  0.22797161  1
  O  O5  1  0.46678811  0.95669228  0.73175341  1
  O  O6  1  0.23626578  0.01089533  0.46773542  1
  O  O7  1  0.26161054  0.22920393  0.27184842  1
  O  O8  1  0.00900498  0.77543418  0.54230379  1
  O  O9  1  0.48934150  0.53218973  0.26016116  1
  O  O10  1  0.76802360  0.02945695  0.04245060  1
  O  O11  1  0.72805011  0.27034976  0.75949255  1
  O  O12  1  0.27119181  0.72893456  0.23920349  1
  O  O13  1  0.23229376  0.96644197  0.95701313  1
  O  O14  1  0.51424827  0.47182881  0.74423211  1
  O  O15  1  0.99032021  0.22524860  0.45760256  1
  O  O16  1  0.76423171  0.98849250  0.53203587  1
  O  O17  1  0.73790008  0.77061041  0.73083170  1
  O  O18  1  0.22491218  0.23495150  0.76813730  1
  O  O19  1  0.53325188  0.04324546  0.26820346  1
  O  O20  1  0.72905768  0.45827099  0.48938171  1
  O  O21  1  0.03109892  0.26037792  0.98934945  1
  O  O22  1  0.45956737  0.73220006  0.96700545  1
  O  O23  1  0.04292778  0.51119316  0.77226824  1
loop_
_geom_bond_atom_site_label_1
_geom_bond_atom_site_label_2
_geom_bond_distance
_geom_bond_site_symmetry_2
O0 Y4 2.236264 1_555
O0 Y0 2.268124 1_655
O0 Y1 2.276215 1_554
O0 Y3 2.325563 1_655
O1 Y4 2.250553 1_555
O1 Tm1 2.251125 1_544
O1 Y7 2.268889 1_554
O1 Y2 2.327765 1_555
O2 Y3 2.246375 1_555
O2 Y9 2.261491 1_555
O2 Y6 2.275949 1_555
O2 Y0 2.331388 1_555
O3 Tm2 2.217340 1_554
O3 Y10 2.271741 1_655
O3 Y1 2.288057 1_554
O3 Y12 2.331473 1_554
O4 Tm2 2.213744 1_554
O4 Tm0 2.258450 1_555
O4 Y4 2.284745 1_555
O4 Y8 2.327474 1_555
O5 Y3 2.243186 1_555
O5 Tm1 2.246404 1_555
O5 Y5 2.273476 1_565
O5 Y7 2.327483 1_565
O6 Tm0 2.246404 1_445
O6 Y10 2.248300 1_545
O6 Y7 2.270844 1_555
O6 Y3 2.329148 1_545
O7 Y10 2.238158 1_545
O7 Y0 2.266199 1_555
O7 Y6 2.280492 1_555
O7 Y2 2.323805 1_555
O8 Tm0 2.240917 1_455
O8 Y12 2.248486 1_455
O8 Y3 2.270864 1_555
O8 Y4 2.327957 1_455
O9 Y8 2.246247 1_555
O9 Y2 2.272304 1_555
O9 Y6 2.291247 1_555
O9 Y4 2.317440 1_555
O10 Tm2 2.232725 1_544
O10 Y0 2.248499 1_655
O10 Tm1 2.248752 1_544
O10 Y5 2.334115 1_554
O11 Y7 2.243428 1_555
O11 Y11 2.265472 1_555
O11 Y1 2.283786 1_555
O11 Y5 2.325032 1_555
O12 Y8 2.252260 1_555
O12 Y3 2.272201 1_555
O12 Y1 2.285611 1_454
O12 Y10 2.318204 1_555
O13 Y12 2.242502 1_455
O13 Tm1 2.246374 1_555
O13 Y2 2.271331 1_566
O13 Y10 2.327897 1_556
O14 Tm2 2.234604 1_555
O14 Y7 2.252529 1_555
O14 Y6 2.294218 1_555
O14 Y9 2.324867 1_555
O15 Tm0 2.239164 1_545
O15 Y0 2.239811 1_655
O15 Y11 2.263660 1_555
O15 Y9 2.335338 1_655
O16 Tm0 2.247810 1_555
O16 Y5 2.252783 1_565
O16 Y8 2.270248 1_555
O16 Y11 2.335208 1_565
O17 Y5 2.234756 1_565
O17 Y12 2.265812 1_555
O17 Y6 2.273781 1_555
O17 Tm2 2.294108 1_555
O18 Y2 2.244201 1_556
O18 Tm0 2.254627 1_445
O18 Y9 2.274445 1_555
O18 Y7 2.322235 1_555
O19 Y11 2.243341 1_555
O19 Tm1 2.248028 1_544
O19 Y10 2.280357 1_545
O19 Y8 2.321871 1_545
O20 Y11 2.246522 1_555
O20 Y4 2.267940 1_555
O20 Y6 2.277566 1_555
O20 Y12 2.325394 1_555
O21 Y2 2.247219 1_556
O21 Y5 2.262370 1_455
O21 Y1 2.284275 1_455
O21 Y0 2.325662 1_556
O22 Tm1 2.243778 1_555
O22 Y9 2.246804 1_555
O22 Y8 2.267977 1_556
O22 Tm2 2.297669 1_555
O23 Y9 2.240311 1_555
O23 Y12 2.267616 1_455
O23 Y1 2.277660 1_455
O23 Y11 2.331533 1_455
