# generated using pymatgen
data_Mn3Nb2Fe3O16
_symmetry_space_group_name_H-M   'P 1'
_cell_length_a   5.94637897
_cell_length_b   5.94637897
_cell_length_c   9.34218145
_cell_angle_alpha   88.90151358
_cell_angle_beta   88.90151358
_cell_angle_gamma   59.57061042
_symmetry_Int_Tables_number   1
_chemical_formula_structural   Mn3Nb2Fe3O16
_chemical_formula_sum   'Mn3 Nb2 Fe3 O16'
_cell_volume   284.76243576
_cell_formula_units_Z   1
loop_
 _symmetry_equiv_pos_site_id
 _symmetry_equiv_pos_as_xyz
  1  'x, y, z'
loop_
 _atom_site_type_symbol
 _atom_site_label
 _atom_site_symmetry_multiplicity
 _atom_site_fract_x
 _atom_site_fract_y
 _atom_site_fract_z
 _atom_site_occupancy
  Mn  Mn0  1  0.17125000  0.17125000  0.78616500  1
  Mn  Mn1  1  0.83280600  0.33880700  0.28736100  1
  Mn  Mn2  1  0.33880700  0.83280600  0.28736100  1
  Nb  Nb0  1  0.33121500  0.33121500  0.50370700  1
  Nb  Nb1  1  0.66677300  0.66677300  0.00092700  1
  Fe  Fe0  1  0.66691600  0.17066400  0.78780500  1
  Fe  Fe1  1  0.17066400  0.66691600  0.78780500  1
  Fe  Fe2  1  0.83359500  0.83359500  0.28659000  1
  O  O0  1  0.66320100  0.17072400  0.40080700  1
  O  O1  1  0.47731900  0.47731900  0.65670200  1
  O  O2  1  0.32758000  0.32758000  0.89268500  1
  O  O3  1  0.00773700  0.00773700  0.69141600  1
  O  O4  1  0.00623100  0.00623100  0.19101900  1
  O  O5  1  0.17072400  0.66320100  0.40080700  1
  O  O6  1  0.46739300  0.03991000  0.66274600  1
  O  O7  1  0.03991000  0.46739300  0.66274600  1
  O  O8  1  0.83254500  0.83254500  0.90545300  1
  O  O9  1  0.16680700  0.16680700  0.39557500  1
  O  O10  1  0.95509100  0.51189400  0.16497800  1
  O  O11  1  0.51189400  0.95509100  0.16497800  1
  O  O12  1  0.66089500  0.66089500  0.39146100  1
  O  O13  1  0.83786100  0.33839600  0.90168100  1
  O  O14  1  0.52103200  0.52103200  0.17227400  1
  O  O15  1  0.33839600  0.83786100  0.90168100  1
loop_
_geom_bond_atom_site_label_1
_geom_bond_atom_site_label_2
_geom_bond_distance
_geom_bond_site_symmetry_2
Mn0 O7 1.898410 1_555
Mn0 O6 1.898410 1_555
Mn0 O2 1.914384 1_555
Mn0 O3 1.922997 1_555
Mn0 O13 2.011417 1_455
Mn0 O15 2.011417 1_545
Mn1 O10 1.891135 1_555
Mn1 O12 1.925895 1_555
Mn1 O4 1.936845 1_655
Mn1 O14 1.940110 1_555
Mn1 O9 1.998094 1_655
Mn1 O0 2.019613 1_555
Mn2 O11 1.891135 1_555
Mn2 O12 1.925895 1_555
Mn2 O4 1.936845 1_565
Mn2 O14 1.940110 1_555
Mn2 O9 1.998094 1_565
Mn2 O5 2.019613 1_555
Nb0 O5 1.945776 1_555
Nb0 O0 1.945776 1_555
Nb0 O9 1.993963 1_555
Nb0 O6 2.095325 1_555
Nb0 O7 2.095325 1_555
Nb0 O1 2.100549 1_555
Nb1 O8 1.912010 1_554
Nb1 O15 1.930932 1_554
Nb1 O13 1.930932 1_554
Nb1 O11 2.140931 1_555
Nb1 O10 2.140931 1_555
Nb1 O14 2.172306 1_555
Fe0 O3 1.957392 1_655
Fe0 O2 1.988551 1_555
Fe0 O1 1.995278 1_555
Fe0 O8 2.042395 1_545
Fe0 O13 2.066155 1_555
Fe0 O6 2.097509 1_555
Fe1 O3 1.957392 1_565
Fe1 O2 1.988551 1_555
Fe1 O1 1.995278 1_555
Fe1 O8 2.042395 1_455
Fe1 O15 2.066155 1_555
Fe1 O7 2.097509 1_555
Fe2 O4 1.975348 1_665
Fe2 O12 2.014989 1_555
Fe2 O10 2.030775 1_555
Fe2 O11 2.030775 1_555
Fe2 O0 2.041334 1_565
Fe2 O5 2.041334 1_655
