# generated using pymatgen
data_V4(OF3)3
_symmetry_space_group_name_H-M   'P 1'
_cell_length_a   5.11179541
_cell_length_b   5.29217935
_cell_length_c   16.94943795
_cell_angle_alpha   89.12234858
_cell_angle_beta   97.87488569
_cell_angle_gamma   118.90930243
_symmetry_Int_Tables_number   1
_chemical_formula_structural   V4(OF3)3
_chemical_formula_sum   'V8 O6 F18'
_cell_volume   396.91539832
_cell_formula_units_Z   2
loop_
 _symmetry_equiv_pos_site_id
 _symmetry_equiv_pos_as_xyz
  1  'x, y, z'
loop_
 _atom_site_type_symbol
 _atom_site_label
 _atom_site_symmetry_multiplicity
 _atom_site_fract_x
 _atom_site_fract_y
 _atom_site_fract_z
 _atom_site_occupancy
  V  V0  1  0.75945260  0.35461698  0.11817433  1
  V  V1  1  0.74255989  0.91485508  0.62214669  1
  V  V2  1  0.51894386  0.71699521  0.24678635  1
  V  V3  1  0.51146101  0.25049128  0.74809616  1
  V  V4  1  0.25263950  0.08919119  0.37888350  1
  V  V5  1  0.24592242  0.64186448  0.88211848  1
  V  V6  1  0.00250004  -0.00190917  -0.00016332  1
  V  V7  1  0.99610509  0.49785453  0.49978835  1
  O  O0  1  0.78113798  0.17171452  0.55899570  1
  O  O1  1  0.83208816  0.20324380  0.04412360  1
  O  O2  1  0.17808304  0.79155845  0.95703991  1
  O  O3  1  0.66570629  0.54158109  0.20761223  1
  O  O4  1  0.65661295  0.06906219  0.70668045  1
  O  O5  1  0.21280772  0.82656278  0.43905164  1
  F  F0  1  0.32158659  0.15322859  0.08844256  1
  F  F1  1  0.76611057  0.67782421  0.05937731  1
  F  F2  1  0.73908459  0.07449112  0.19416635  1
  F  F3  1  0.32890015  0.94459602  0.28777463  1
  F  F4  1  0.31257902  0.65516702  0.58905116  1
  F  F5  1  0.32296394  0.45841138  0.79284440  1
  F  F6  1  0.17982961  0.60489540  0.16179361  1
  F  F7  1  0.16814116  0.10382590  0.66264288  1
  F  F8  1  0.19066706  0.30954098  0.45921508  1
  F  F9  1  0.27721120  0.42042630  0.31217903  1
  F  F10  1  0.71695849  0.59572752  0.69234162  1
  F  F11  1  0.82161951  0.90771644  0.33889257  1
  F  F12  1  0.81057710  0.69082216  0.54218369  1
  F  F13  1  0.81916635  0.40393853  0.84133584  1
  F  F14  1  0.68440084  0.34227176  0.40912452  1
  F  F15  1  0.26194962  0.93179888  0.80938913  1
  F  F16  1  0.23779556  0.31590642  0.93936064  1
  F  F17  1  0.68444108  0.84172697  0.91055190  1
loop_
_geom_bond_atom_site_label_1
_geom_bond_atom_site_label_2
_geom_bond_distance
_geom_bond_site_symmetry_2
O0 V1 1.669281 1_545
O0 V7 1.899733 1_555
O1 V0 1.673625 1_555
O1 V6 1.902528 1_655
O2 V5 1.666595 1_555
O2 V6 1.917712 1_566
O3 V2 1.641408 1_555
O3 V0 2.051857 1_555
O4 V3 1.678507 1_555
O4 V1 1.861966 1_545
O5 V4 1.659248 1_565
O5 V7 1.925489 1_455
F0 V6 1.913580 1_555
F0 V0 1.949533 1_555
F1 V6 1.911256 1_665
F1 V0 1.954692 1_555
F2 V0 1.922653 1_555
F2 V2 1.950917 1_545
F3 V4 1.900473 1_565
F3 V2 2.054054 1_555
F4 V7 1.914412 1_455
F4 V1 1.949280 1_555
F5 V5 1.991294 1_555
F5 V3 1.991332 1_555
F6 V0 1.939437 1_455
F6 V2 1.944163 1_555
F7 V1 1.926744 1_445
F7 V3 1.949646 1_555
F8 V7 1.903152 1_455
F8 V4 1.959110 1_555
F9 V2 1.914580 1_555
F9 V4 2.032784 1_555
F10 V3 1.923053 1_555
F10 V1 2.013057 1_555
F11 V2 1.930368 1_555
F11 V4 1.949642 1_665
F12 V7 1.898496 1_555
F12 V1 1.985049 1_555
F13 V3 1.937594 1_555
F13 V5 1.944188 1_655
F14 V7 1.917703 1_555
F14 V4 1.944416 1_555
F15 V5 1.931021 1_555
F15 V3 1.944266 1_565
F16 V6 1.911904 1_556
F16 V5 1.951734 1_555
F17 V6 1.918768 1_666
F17 V5 1.950145 1_555
