# generated using pymatgen
data_Li4Cr3(CO3)6
_symmetry_space_group_name_H-M   'P 1'
_cell_length_a   4.70874100
_cell_length_b   6.06685496
_cell_length_c   12.08051018
_cell_angle_alpha   100.54127364
_cell_angle_beta   90.03609766
_cell_angle_gamma   112.65207866
_symmetry_Int_Tables_number   1
_chemical_formula_structural   Li4Cr3(CO3)6
_chemical_formula_sum   'Li4 Cr3 C6 O18'
_cell_volume   312.14802594
_cell_formula_units_Z   1
loop_
 _symmetry_equiv_pos_site_id
 _symmetry_equiv_pos_as_xyz
  1  'x, y, z'
loop_
 _atom_site_type_symbol
 _atom_site_label
 _atom_site_symmetry_multiplicity
 _atom_site_fract_x
 _atom_site_fract_y
 _atom_site_fract_z
 _atom_site_occupancy
  Li  Li0  1  0.24253000  0.49824600  0.92864000  1
  Li  Li1  1  0.39928000  0.80700200  0.38749400  1
  Li  Li2  1  0.60072000  0.19299800  0.61250600  1
  Li  Li3  1  0.75747000  0.50175400  0.07136000  1
  Cr  Cr0  1  0.33513400  0.67200200  0.66819500  1
  Cr  Cr1  1  0.66486600  0.32799800  0.33180500  1
  Cr  Cr2  1  0.00000000  0.00000000  0.00000000  1
  C  C0  1  0.11962600  0.24536000  0.47033800  1
  C  C1  1  0.45600100  0.90359800  0.13722000  1
  C  C2  1  0.21826100  0.42899000  0.19890100  1
  C  C3  1  0.78173900  0.57101000  0.80109900  1
  C  C4  1  0.54399900  0.09640200  0.86278000  1
  C  C5  1  0.88037400  0.75464000  0.52966200  1
  O  O0  1  0.72201800  0.89470900  0.12713600  1
  O  O1  1  0.61313700  0.77496400  0.53771000  1
  O  O2  1  0.39981100  0.49891200  0.29177100  1
  O  O3  1  0.31179800  0.37502300  0.10296800  1
  O  O4  1  0.05664000  0.34764700  0.56582600  1
  O  O5  1  0.39139400  0.00896100  0.23330200  1
  O  O6  1  0.91514900  0.15447600  0.38566800  1
  O  O7  1  0.24091700  0.80029100  0.05404300  1
  O  O8  1  0.06022100  0.57338500  0.79351900  1
  O  O9  1  0.93977900  0.42661500  0.20648100  1
  O  O10  1  0.75908300  0.19970900  0.94595700  1
  O  O11  1  0.08485100  0.84552400  0.61433200  1
  O  O12  1  0.60860600  0.99103900  0.76669800  1
  O  O13  1  0.94336000  0.65235300  0.43417400  1
  O  O14  1  0.68820200  0.62497700  0.89703200  1
  O  O15  1  0.60018900  0.50108800  0.70822900  1
  O  O16  1  0.38686300  0.22503600  0.46229000  1
  O  O17  1  0.27798200  0.10529100  0.87286400  1
loop_
_geom_bond_atom_site_label_1
_geom_bond_atom_site_label_2
_geom_bond_distance
_geom_bond_site_symmetry_2
Li0 O14 2.001620 1_555
Li0 O8 2.044789 1_555
Li0 O7 2.155924 1_556
Li0 O10 2.338730 1_455
Li0 O3 2.421438 1_556
Li0 O17 2.425754 1_555
Li1 O2 2.010886 1_555
Li1 O13 2.109670 1_455
Li1 O1 2.149983 1_555
Li1 O5 2.417101 1_565
Li1 O6 2.533322 1_565
Li1 O16 2.554946 1_565
Li2 O15 2.010886 1_555
Li2 O4 2.109670 1_655
Li2 O16 2.149983 1_555
Li2 O12 2.417101 1_545
Li2 O11 2.533322 1_545
Li2 O1 2.554946 1_545
Li3 O3 2.001620 1_555
Li3 O9 2.044789 1_555
Li3 O10 2.155924 1_554
Li3 O7 2.338730 1_655
Li3 O14 2.421438 1_554
Li3 O0 2.425754 1_555
Cr0 O15 2.011551 1_555
Cr0 O12 2.013970 1_555
Cr0 O8 2.015720 1_555
Cr0 O11 2.031223 1_555
Cr0 O4 2.059411 1_555
Cr0 O1 2.078850 1_555
Cr1 O2 2.011551 1_555
Cr1 O5 2.013970 1_555
Cr1 O9 2.015720 1_555
Cr1 O6 2.031223 1_555
Cr1 O13 2.059411 1_555
Cr1 O16 2.078850 1_555
Cr2 O17 2.048836 1_554
Cr2 O0 2.048836 1_445
Cr2 O7 2.127985 1_545
Cr2 O10 2.127985 1_454
Cr2 O3 2.295342 1_555
Cr2 O14 2.295342 1_444
C0 O6 1.288711 1_455
C0 O4 1.297691 1_555
C0 O16 1.312776 1_555
C1 O0 1.279292 1_555
C1 O7 1.306733 1_555
C1 O5 1.314224 1_565
C2 O3 1.271679 1_555
C2 O9 1.309267 1_455
C2 O2 1.309496 1_555
C3 O14 1.271679 1_555
C3 O8 1.309267 1_655
C3 O15 1.309496 1_555
C4 O17 1.279292 1_555
C4 O10 1.306733 1_555
C4 O12 1.314224 1_545
C5 O11 1.288711 1_655
C5 O13 1.297691 1_555
C5 O1 1.312776 1_555
