# generated using pymatgen
data_LiLa5Ti8O24
_symmetry_space_group_name_H-M   'P 1'
_cell_length_a   8.70633216
_cell_length_b   8.70633216
_cell_length_c   8.76476493
_cell_angle_alpha   66.62453514
_cell_angle_beta   66.62453514
_cell_angle_gamma   53.17564950
_symmetry_Int_Tables_number   1
_chemical_formula_structural   LiLa5Ti8O24
_chemical_formula_sum   'Li1 La5 Ti8 O24'
_cell_volume   476.60520132
_cell_formula_units_Z   1
loop_
 _symmetry_equiv_pos_site_id
 _symmetry_equiv_pos_as_xyz
  1  'x, y, z'
loop_
 _atom_site_type_symbol
 _atom_site_label
 _atom_site_symmetry_multiplicity
 _atom_site_fract_x
 _atom_site_fract_y
 _atom_site_fract_z
 _atom_site_occupancy
  Li  Li0  1  0.50755000  0.50755000  0.00038400  1
  La  La0  1  0.37714000  0.37714000  0.50131200  1
  La  La1  1  0.12453800  0.12453800  0.49806700  1
  La  La2  1  0.87212800  0.87212800  0.50215500  1
  La  La3  1  0.75121400  0.75121400  0.00020600  1
  La  La4  1  0.62647700  0.62647700  0.49852000  1
  Ti  Ti0  1  0.56339900  0.06983200  0.23988900  1
  Ti  Ti1  1  0.68394500  0.18964400  0.76021800  1
  Ti  Ti2  1  0.18964400  0.68394500  0.76021800  1
  Ti  Ti3  1  0.93876500  0.42889400  0.75962000  1
  Ti  Ti4  1  0.81848200  0.30864800  0.24021800  1
  Ti  Ti5  1  0.06983200  0.56339900  0.23988900  1
  Ti  Ti6  1  0.42889400  0.93876500  0.75962000  1
  Ti  Ti7  1  0.30864800  0.81848200  0.24021800  1
  O  O0  1  0.67563600  0.18994000  0.26822200  1
  O  O1  1  0.63044300  0.10782900  0.99998800  1
  O  O2  1  0.57604500  0.05512300  0.73562600  1
  O  O3  1  0.30587300  0.30587300  0.27496100  1
  O  O4  1  0.05720400  0.05720400  0.27322300  1
  O  O5  1  0.19557100  0.19557100  0.72277000  1
  O  O6  1  0.44260300  0.44260300  0.73246600  1
  O  O7  1  0.92482400  0.44184200  0.26456200  1
  O  O8  1  0.84762500  0.40842400  0.00003700  1
  O  O9  1  0.18994000  0.67563600  0.26822200  1
  O  O10  1  0.81520900  0.31922500  0.73108500  1
  O  O11  1  0.05512300  0.57604500  0.73562600  1
  O  O12  1  0.10782900  0.63044300  0.99998800  1
  O  O13  1  0.99346800  0.50617500  0.49970100  1
  O  O14  1  0.74813700  0.25077700  0.50025200  1
  O  O15  1  0.93728800  0.93728800  0.73259800  1
  O  O16  1  0.56154900  0.56154900  0.26765100  1
  O  O17  1  0.80478300  0.80478300  0.26156200  1
  O  O18  1  0.69373300  0.69373300  0.73528900  1
  O  O19  1  0.50617500  0.99346800  0.49970100  1
  O  O20  1  0.44184200  0.92482400  0.26456200  1
  O  O21  1  0.25077700  0.74813700  0.50025200  1
  O  O22  1  0.40842400  0.84762500  0.00003700  1
  O  O23  1  0.31922500  0.81520900  0.73108500  1
loop_
_geom_bond_atom_site_label_1
_geom_bond_atom_site_label_2
_geom_bond_distance
_geom_bond_site_symmetry_2
Li0 O22 2.538323 1_555
Li0 O8 2.538323 1_555
La0 O5 2.625149 1_555
La0 O0 2.633575 1_555
La0 O9 2.633575 1_555
La0 O6 2.641273 1_555
La0 O3 2.668511 1_555
La0 O16 2.687262 1_555
La0 O14 2.714417 1_555
La0 O21 2.714417 1_555
La0 O11 2.740452 1_555
La0 O2 2.740452 1_555
La0 O19 2.819010 1_545
La0 O13 2.819010 1_455
La1 O4 2.610833 1_555
La1 O3 2.626249 1_555
La1 O5 2.652392 1_555
La1 O23 2.684688 1_545
La1 O10 2.684688 1_455
La1 O15 2.721867 1_445
La1 O7 2.724521 1_455
La1 O20 2.724521 1_545
La1 O14 2.756250 1_455
La1 O21 2.756250 1_545
La1 O19 2.796809 1_545
La1 O13 2.796809 1_455
La2 O2 2.617040 1_565
La2 O11 2.617040 1_655
La2 O18 2.618208 1_555
La2 O15 2.631999 1_555
La2 O4 2.683318 1_665
La2 O19 2.696173 1_555
La2 O13 2.696173 1_555
La2 O9 2.719195 1_655
La2 O0 2.719195 1_565
La2 O17 2.740194 1_555
La2 O14 2.781755 1_565
La2 O21 2.781755 1_655
La3 O22 2.571199 1_555
La3 O8 2.571199 1_555
La3 O12 2.613222 1_654
La3 O1 2.613222 1_564
La3 O17 2.763824 1_555
La3 O11 2.793708 1_654
La3 O2 2.793708 1_564
La3 O7 2.802617 1_555
La3 O20 2.802617 1_555
La3 O15 2.804655 1_554
La3 O18 2.834896 1_554
La3 O16 2.841462 1_555
La4 O17 2.627803 1_555
La4 O20 2.630555 1_555
La4 O7 2.630555 1_555
La4 O16 2.632883 1_555
La4 O23 2.659461 1_555
La4 O10 2.659461 1_555
La4 O6 2.681909 1_555
La4 O19 2.704092 1_555
La4 O13 2.704092 1_555
La4 O18 2.707727 1_555
La4 O21 2.764341 1_555
La4 O14 2.764341 1_555
O0 Ti0 1.932236 1_555
O0 Ti4 1.942254 1_555
O1 Ti1 1.890479 1_555
O1 Ti0 1.891295 1_556
O2 Ti6 1.970983 1_545
O2 Ti1 1.995116 1_555
O3 Ti0 1.943151 1_555
O3 Ti5 1.943151 1_555
O4 Ti7 1.927759 1_545
O4 Ti4 1.927759 1_455
O5 Ti3 1.932092 1_455
O5 Ti6 1.932092 1_545
O6 Ti2 1.938510 1_555
O6 Ti1 1.938510 1_555
O7 Ti4 1.971691 1_555
O7 Ti5 1.990994 1_655
O8 Ti4 1.907839 1_555
O8 Ti3 1.909559 1_554
O9 Ti5 1.932236 1_555
O9 Ti7 1.942254 1_555
O10 Ti1 1.931171 1_555
O10 Ti3 1.940516 1_555
O11 Ti3 1.970983 1_455
O11 Ti2 1.995116 1_555
O12 Ti2 1.890479 1_555
O12 Ti5 1.891295 1_556
O13 Ti5 2.042371 1_655
O13 Ti3 2.043597 1_555
O14 Ti1 2.042340 1_555
O14 Ti4 2.043155 1_555
O15 Ti1 1.984963 1_565
O15 Ti2 1.984963 1_655
O16 Ti4 1.999732 1_555
O16 Ti7 1.999732 1_555
O17 Ti5 1.983260 1_655
O17 Ti0 1.983260 1_565
O18 Ti6 1.996867 1_555
O18 Ti3 1.996867 1_555
O19 Ti0 2.042371 1_565
O19 Ti6 2.043597 1_555
O20 Ti7 1.971691 1_555
O20 Ti0 1.990994 1_565
O21 Ti2 2.042340 1_555
O21 Ti7 2.043155 1_555
O22 Ti7 1.907839 1_555
O22 Ti6 1.909559 1_554
O23 Ti2 1.931171 1_555
O23 Ti6 1.940516 1_555
