# generated using pymatgen
data_LaMg2H7
_symmetry_space_group_name_H-M   'P 1'
_cell_length_a   6.33773359
_cell_length_b   6.33773359
_cell_length_c   9.53622980
_cell_angle_alpha   90.00000000
_cell_angle_beta   90.00000000
_cell_angle_gamma   90.00000000
_symmetry_Int_Tables_number   1
_chemical_formula_structural   LaMg2H7
_chemical_formula_sum   'La4 Mg8 H28'
_cell_volume   383.04047461
_cell_formula_units_Z   4
loop_
 _symmetry_equiv_pos_site_id
 _symmetry_equiv_pos_as_xyz
  1  'x, y, z'
loop_
 _atom_site_type_symbol
 _atom_site_label
 _atom_site_symmetry_multiplicity
 _atom_site_fract_x
 _atom_site_fract_y
 _atom_site_fract_z
 _atom_site_occupancy
  La  La0  1  0.77077018  0.22922982  0.75000000  1
  La  La1  1  0.22922982  0.77077018  0.25000000  1
  La  La2  1  0.72922982  0.72922982  0.50000000  1
  La  La3  1  0.27077018  0.27077018  -0.00000000  1
  Mg  Mg0  1  0.52397345  0.23751680  0.39728218  1
  Mg  Mg1  1  0.47602655  0.76248320  0.89728218  1
  Mg  Mg2  1  0.73751680  0.97602655  0.14728218  1
  Mg  Mg3  1  0.26248320  0.02397345  0.64728218  1
  Mg  Mg4  1  0.76248320  0.47602655  0.10271782  1
  Mg  Mg5  1  0.23751680  0.52397345  0.60271782  1
  Mg  Mg6  1  0.97602655  0.73751680  0.85271782  1
  Mg  Mg7  1  0.02397345  0.26248320  0.35271782  1
  H  H0  1  0.53234457  0.46808624  0.62133077  1
  H  H1  1  0.46765543  0.53191376  0.12133077  1
  H  H2  1  0.96808624  0.96765543  0.37133077  1
  H  H3  1  0.03191376  0.03234457  0.87133077  1
  H  H4  1  0.53191376  0.46765543  0.87866923  1
  H  H5  1  0.46808624  0.53234457  0.37866923  1
  H  H6  1  0.96765543  0.96808624  0.62866923  1
  H  H7  1  0.03234457  0.03191376  0.12866923  1
  H  H8  1  0.56823312  0.06481681  0.57127083  1
  H  H9  1  0.43176688  0.93518319  0.07127083  1
  H  H10  1  0.56481681  0.93176688  0.32127083  1
  H  H11  1  0.43518319  0.06823312  0.82127083  1
  H  H12  1  0.93518319  0.43176688  0.92872917  1
  H  H13  1  0.06481681  0.56823312  0.42872917  1
  H  H14  1  0.93176688  0.56481681  0.67872917  1
  H  H15  1  0.06823312  0.43518319  0.17872917  1
  H  H16  1  0.80114884  0.33626153  0.49396394  1
  H  H17  1  0.19885116  0.66373847  0.99396394  1
  H  H18  1  0.83626153  0.69885116  0.24396394  1
  H  H19  1  0.16373847  0.30114884  0.74396394  1
  H  H20  1  0.66373847  0.19885116  0.00603606  1
  H  H21  1  0.33626153  0.80114884  0.50603606  1
  H  H22  1  0.69885116  0.83626153  0.75603606  1
  H  H23  1  0.30114884  0.16373847  0.25603606  1
  H  H24  1  0.25804665  0.74195335  0.75000000  1
  H  H25  1  0.74195335  0.25804665  0.25000000  1
  H  H26  1  0.24195335  0.24195335  0.50000000  1
  H  H27  1  0.75804665  0.75804665  -0.00000000  1
loop_
_geom_bond_atom_site_label_1
_geom_bond_atom_site_label_2
_geom_bond_distance
_geom_bond_site_symmetry_2
H0 Mg5 1.910079 1_555
H0 La2 2.373810 1_555
H0 La0 2.465877 1_555
H1 Mg4 1.910079 1_555
H1 La3 2.373810 1_555
H1 La1 2.465877 1_555
H2 Mg7 1.910079 1_665
H2 La1 2.373810 1_655
H2 La2 2.465877 1_555
H3 Mg6 1.910079 1_445
H3 La0 2.373810 1_455
H3 La3 2.465877 1_556
H4 Mg1 1.910079 1_555
H4 La3 2.373810 1_556
H4 La0 2.465877 1_555
H5 Mg0 1.910079 1_555
H5 La2 2.373810 1_555
H5 La1 2.465877 1_555
H6 Mg3 1.910079 1_665
H6 La0 2.373810 1_565
H6 La2 2.465877 1_555
H7 Mg2 1.910079 1_445
H7 La1 2.373810 1_545
H7 La3 2.465877 1_555
H8 Mg0 2.007387 1_555
H8 Mg3 2.085030 1_555
H8 La0 2.374544 1_555
H8 La2 2.454912 1_545
H9 Mg1 2.007387 1_554
H9 Mg2 2.085030 1_555
H9 La1 2.374544 1_555
H9 La3 2.454912 1_565
H10 Mg2 2.007387 1_555
H10 Mg0 2.085030 1_565
H10 La2 2.374544 1_555
H10 La1 2.454912 1_555
H11 Mg3 2.007387 1_555
H11 Mg1 2.085030 1_545
H11 La3 2.374544 1_556
H11 La0 2.454912 1_555
H12 Mg4 2.007387 1_556
H12 Mg6 2.085030 1_555
H12 La0 2.374544 1_555
H12 La3 2.454912 1_656
H13 Mg5 2.007387 1_555
H13 Mg7 2.085030 1_555
H13 La1 2.374544 1_555
H13 La2 2.454912 1_455
H14 Mg6 2.007387 1_555
H14 Mg5 2.085030 1_655
H14 La2 2.374544 1_555
H14 La0 2.454912 1_555
H15 Mg7 2.007387 1_555
H15 Mg4 2.085030 1_455
H15 La3 2.374544 1_555
H15 La1 2.454912 1_555
H16 Mg7 2.006800 1_655
H16 Mg0 2.080279 1_555
H16 La2 2.532548 1_555
H16 La0 2.541400 1_555
H17 Mg6 2.006800 1_455
H17 Mg1 2.080279 1_555
H17 La3 2.532548 1_556
H17 La1 2.541400 1_556
H18 Mg4 2.006800 1_555
H18 Mg2 2.080279 1_555
H18 La1 2.532548 1_655
H18 La2 2.541400 1_555
H19 Mg5 2.006800 1_555
H19 Mg3 2.080279 1_555
H19 La0 2.532548 1_455
H19 La3 2.541400 1_556
H20 Mg2 2.006800 1_545
H20 Mg4 2.080279 1_555
H20 La3 2.532548 1_555
H20 La0 2.541400 1_554
H21 Mg3 2.006800 1_565
H21 Mg5 2.080279 1_555
H21 La2 2.532548 1_555
H21 La1 2.541400 1_555
H22 Mg1 2.006800 1_555
H22 Mg6 2.080279 1_555
H22 La0 2.532548 1_565
H22 La2 2.541400 1_555
H23 Mg0 2.006800 1_555
H23 Mg7 2.080279 1_555
H23 La1 2.532548 1_545
H23 La3 2.541400 1_555
H24 Mg1 1.974369 1_555
H24 Mg5 1.974369 1_555
H24 Mg6 2.038376 1_455
H24 Mg3 2.038376 1_565
H25 Mg4 1.974369 1_555
H25 Mg0 1.974369 1_555
H25 Mg2 2.038376 1_545
H25 Mg7 2.038376 1_655
H26 Mg7 1.974369 1_555
H26 Mg3 1.974369 1_555
H26 Mg5 2.038376 1_555
H26 Mg0 2.038376 1_555
H27 Mg2 1.974369 1_555
H27 Mg6 1.974369 1_554
H27 Mg1 2.038376 1_554
H27 Mg4 2.038376 1_555
