# generated using pymatgen
data_KAsF6
_symmetry_space_group_name_H-M   'P 1'
_cell_length_a   4.85748141
_cell_length_b   4.85748177
_cell_length_c   4.85748214
_cell_angle_alpha   98.10185864
_cell_angle_beta   98.10185282
_cell_angle_gamma   98.10184360
_symmetry_Int_Tables_number   1
_chemical_formula_structural   KAsF6
_chemical_formula_sum   'K1 As1 F6'
_cell_volume   110.81444438
_cell_formula_units_Z   1
loop_
 _symmetry_equiv_pos_site_id
 _symmetry_equiv_pos_as_xyz
  1  'x, y, z'
loop_
 _atom_site_type_symbol
 _atom_site_label
 _atom_site_symmetry_multiplicity
 _atom_site_fract_x
 _atom_site_fract_y
 _atom_site_fract_z
 _atom_site_occupancy
  K  K0  1  0.50000000  0.50000000  0.50000000  1
  As  As0  1  0.00000000  -0.00000000  0.00000000  1
  F  F0  1  0.74550096  0.07931381  0.74550096  1
  F  F1  1  0.07931381  0.74550096  0.74550096  1
  F  F2  1  0.25449904  0.25449904  0.92068619  1
  F  F3  1  0.92068619  0.25449904  0.25449904  1
  F  F4  1  0.25449904  0.92068619  0.25449904  1
  F  F5  1  0.74550096  0.74550096  0.07931381  1
loop_
_geom_bond_atom_site_label_1
_geom_bond_atom_site_label_2
_geom_bond_distance
_geom_bond_site_symmetry_2
As0 F1 1.744322 1_544
As0 F3 1.744322 1_455
As0 F0 1.744322 1_454
As0 F4 1.744322 1_545
As0 F2 1.744322 1_554
As0 F5 1.744322 1_445
F0 K0 2.827170 1_555
F0 K0 2.910367 1_545
F1 K0 2.827170 1_555
F1 K0 2.910367 1_455
F2 K0 2.827170 1_555
F2 K0 2.910367 1_556
F3 K0 2.827170 1_555
F3 K0 2.910367 1_655
F4 K0 2.827170 1_555
F4 K0 2.910367 1_565
F5 K0 2.827170 1_555
F5 K0 2.910367 1_554
