# generated using pymatgen
data_Mn12O7F17
_symmetry_space_group_name_H-M   'P 1'
_cell_length_a   4.80704400
_cell_length_b   5.82572794
_cell_length_c   15.85170910
_cell_angle_alpha   89.62594407
_cell_angle_beta   89.77093134
_cell_angle_gamma   87.46904596
_symmetry_Int_Tables_number   1
_chemical_formula_structural   Mn12O7F17
_chemical_formula_sum   'Mn12 O7 F17'
_cell_volume   443.47412373
_cell_formula_units_Z   1
loop_
 _symmetry_equiv_pos_site_id
 _symmetry_equiv_pos_as_xyz
  1  'x, y, z'
loop_
 _atom_site_type_symbol
 _atom_site_label
 _atom_site_symmetry_multiplicity
 _atom_site_fract_x
 _atom_site_fract_y
 _atom_site_fract_z
 _atom_site_occupancy
  Mn  Mn0  1  0.96557300  0.85023900  0.41851000  1
  Mn  Mn1  1  0.95775200  0.16095700  0.24510300  1
  Mn  Mn2  1  0.01709000  0.84870200  0.08228100  1
  Mn  Mn3  1  0.95413800  0.82523500  0.75779800  1
  Mn  Mn4  1  0.00744100  0.16190300  0.57954800  1
  Mn  Mn5  1  0.99087500  0.15230900  0.91018000  1
  Mn  Mn6  1  0.52080700  0.66285100  0.57739100  1
  Mn  Mn7  1  0.49655300  0.64662000  0.92123200  1
  Mn  Mn8  1  0.49383200  0.64455000  0.25341300  1
  Mn  Mn9  1  0.50906100  0.34926100  0.08480200  1
  Mn  Mn10  1  0.55454700  0.34686900  0.41688000  1
  Mn  Mn11  1  0.52173700  0.34396800  0.75682800  1
  O  O0  1  0.77806900  0.12285700  0.13596500  1
  O  O1  1  0.77731900  0.11035500  0.47166100  1
  O  O2  1  0.76708600  0.11457000  0.80617800  1
  O  O3  1  0.70436900  0.37550900  0.30546500  1
  O  O4  1  0.73176500  0.62395100  0.47158100  1
  O  O5  1  0.69956900  0.59986900  0.81454200  1
  O  O6  1  0.30126900  0.61807100  0.02928700  1
  F  F0  1  0.74890200  0.87911200  0.30249900  1
  F  F1  1  0.77726200  0.89155000  0.63994200  1
  F  F2  1  0.77712700  0.87837500  0.97128200  1
  F  F3  1  0.74702200  0.61466700  0.14163900  1
  F  F4  1  0.74404600  0.39981100  0.64049800  1
  F  F5  1  0.73756600  0.38222500  0.97552000  1
  F  F6  1  0.26394300  0.39010500  0.19104600  1
  F  F7  1  0.24178900  0.61369500  0.36697900  1
  F  F8  1  0.30168800  0.37592300  0.52172200  1
  F  F9  1  0.25464000  0.39252300  0.86470100  1
  F  F10  1  0.27187500  0.61637400  0.69323300  1
  F  F11  1  0.22967200  0.89280500  0.19752700  1
  F  F12  1  0.24057500  0.88450700  0.52839000  1
  F  F13  1  0.18798400  0.09776900  0.35302600  1
  F  F14  1  0.23699800  0.12058000  0.01765200  1
  F  F15  1  0.23614100  0.87593700  0.86145400  1
  F  F16  1  0.25391600  0.13539300  0.69424200  1
loop_
_geom_bond_atom_site_label_1
_geom_bond_atom_site_label_2
_geom_bond_distance
_geom_bond_site_symmetry_2
Mn0 O1 1.927325 1_565
Mn0 O4 1.953880 1_555
Mn1 O0 1.955044 1_555
Mn1 O3 1.957873 1_555
Mn2 O6 2.054386 1_555
Mn2 O0 2.107864 1_465
Mn3 O2 2.028634 1_565
Mn3 O5 2.036669 1_555
Mn4 O1 2.071185 1_455
Mn5 O2 1.990809 1_555
Mn6 O4 1.965712 1_555
Mn7 O6 1.959587 1_556
Mn7 O5 1.963705 1_555
Mn8 O3 2.002846 1_555
Mn9 O0 1.978234 1_555
Mn9 O6 2.018769 1_555
Mn10 O1 1.913336 1_555
Mn10 O3 1.913713 1_555
Mn10 O4 2.056424 1_555
Mn11 O2 1.908788 1_555
Mn11 O5 1.981633 1_555
F0 Mn8 2.036083 1_555
F0 Mn0 2.119136 1_555
F0 Mn1 2.156498 1_565
F1 Mn3 2.082472 1_555
F1 Mn6 2.109534 1_555
F1 Mn4 2.178808 1_665
F2 Mn2 2.109750 1_656
F2 Mn7 2.110634 1_555
F2 Mn5 2.158088 1_565
F3 Mn2 2.135292 1_655
F3 Mn8 2.149187 1_555
F3 Mn9 2.166457 1_555
F4 Mn4 2.076122 1_655
F4 Mn6 2.084197 1_555
F4 Mn11 2.157639 1_555
F5 Mn5 2.052692 1_555
F5 Mn9 2.059950 1_556
F5 Mn7 2.070841 1_555
F6 Mn9 2.060571 1_555
F6 Mn8 2.137389 1_555
F6 Mn1 2.198021 1_455
F7 Mn0 2.042959 1_455
F7 Mn8 2.176829 1_555
F7 Mn10 2.255976 1_555
F8 Mn10 2.058505 1_555
F8 Mn4 2.127429 1_555
F8 Mn6 2.205563 1_555
F9 Mn5 2.054746 1_455
F9 Mn7 2.127039 1_555
F9 Mn11 2.146910 1_555
F10 Mn3 2.168065 1_455
F10 Mn11 2.190384 1_555
F10 Mn6 2.209470 1_555
F11 Mn8 2.078225 1_555
F11 Mn2 2.119407 1_555
F11 Mn1 2.131881 1_465
F12 Mn6 1.981691 1_555
F12 Mn4 2.091655 1_565
F12 Mn0 2.206235 1_455
F13 Mn1 2.063497 1_455
F13 Mn0 2.099477 1_445
F13 Mn10 2.548472 1_555
F14 Mn5 2.080611 1_454
F14 Mn2 2.189466 1_545
F14 Mn9 2.191301 1_555
F15 Mn7 2.023595 1_555
F15 Mn5 2.102442 1_465
F15 Mn3 2.164318 1_455
F16 Mn11 2.069373 1_555
F16 Mn4 2.174974 1_555
F16 Mn3 2.559506 1_445
