# generated using pymatgen
data_Li3FePCO7
_symmetry_space_group_name_H-M   'P 1'
_cell_length_a   6.49054100
_cell_length_b   8.53719311
_cell_length_c   9.95816563
_cell_angle_alpha   95.17599816
_cell_angle_beta   89.96159440
_cell_angle_gamma   90.44466925
_symmetry_Int_Tables_number   1
_chemical_formula_structural   Li3FePCO7
_chemical_formula_sum   'Li12 Fe4 P4 C4 O28'
_cell_volume   549.52533039
_cell_formula_units_Z   4
loop_
 _symmetry_equiv_pos_site_id
 _symmetry_equiv_pos_as_xyz
  1  'x, y, z'
loop_
 _atom_site_type_symbol
 _atom_site_label
 _atom_site_symmetry_multiplicity
 _atom_site_fract_x
 _atom_site_fract_y
 _atom_site_fract_z
 _atom_site_occupancy
  Li  Li0  1  0.74333700  0.89641400  0.38976600  1
  Li  Li1  1  0.74575100  0.90376500  0.87934900  1
  Li  Li2  1  0.51396800  0.72401800  0.13198200  1
  Li  Li3  1  0.98654600  0.72552900  0.61173200  1
  Li  Li4  1  0.51535400  0.72433600  0.61248300  1
  Li  Li5  1  0.25315300  0.65375500  0.39989800  1
  Li  Li6  1  0.47250300  0.28084600  0.37710000  1
  Li  Li7  1  0.02855300  0.28076800  0.37671800  1
  Li  Li8  1  0.47554400  0.27498200  0.87227600  1
  Li  Li9  1  0.02127600  0.27343700  0.87373000  1
  Li  Li10  1  0.25079600  0.09798800  0.11852100  1
  Li  Li11  1  0.25102100  0.09852000  0.61427200  1
  Fe  Fe0  1  0.00177100  0.73347000  0.14018400  1
  Fe  Fe1  1  0.25335500  0.66200400  0.88576900  1
  Fe  Fe2  1  0.74955100  0.33530300  0.10577400  1
  Fe  Fe3  1  0.75042300  0.33411500  0.60480800  1
  P  P0  1  0.75062800  0.59099500  0.36156900  1
  P  P1  1  0.74867100  0.58800900  0.86079200  1
  P  P2  1  0.25008800  0.40996000  0.14193000  1
  P  P3  1  0.24987800  0.41398000  0.64093300  1
  C  C0  1  0.24394900  0.96288500  0.35027400  1
  C  C1  1  0.24845100  0.96496100  0.85120300  1
  C  C2  1  0.75086300  0.03654600  0.15063700  1
  C  C3  1  0.75013500  0.03564100  0.64992800  1
  O  O0  1  0.25009400  0.92900200  0.47221300  1
  O  O1  1  0.75247700  0.89063100  0.18403700  1
  O  O2  1  0.24681600  0.93114600  0.97568700  1
  O  O3  1  0.23616500  0.84962200  0.25047900  1
  O  O4  1  0.75074100  0.89008400  0.67833800  1
  O  O5  1  0.25046000  0.84946800  0.75605700  1
  O  O6  1  0.94126300  0.69116400  0.40822500  1
  O  O7  1  0.56104700  0.68942400  0.40891900  1
  O  O8  1  0.93732200  0.68881900  0.92032600  1
  O  O9  1  0.56437900  0.69141500  0.91537000  1
  O  O10  1  0.25079700  0.57630300  0.08817500  1
  O  O11  1  0.75533100  0.57177000  0.20067700  1
  O  O12  1  0.25044800  0.57959700  0.59363000  1
  O  O13  1  0.75429100  0.57326100  0.70420300  1
  O  O14  1  0.25104900  0.42750600  0.29685900  1
  O  O15  1  0.75022600  0.42324600  0.40915400  1
  O  O16  1  0.24823600  0.42582400  0.79923500  1
  O  O17  1  0.74729400  0.42209900  0.90986000  1
  O  O18  1  0.06275600  0.30913700  0.08546200  1
  O  O19  1  0.43692300  0.31199800  0.08352500  1
  O  O20  1  0.43618700  0.31095000  0.58819000  1
  O  O21  1  0.06358800  0.31036800  0.58677100  1
  O  O22  1  0.74895400  0.15065500  0.24518800  1
  O  O23  1  0.24963500  0.10794500  0.31830800  1
  O  O24  1  0.74971800  0.14919300  0.74720600  1
  O  O25  1  0.74975900  0.06633500  0.02618900  1
  O  O26  1  0.24912300  0.10882900  0.81957100  1
  O  O27  1  0.74935900  0.07198000  0.52652200  1
loop_
_geom_bond_atom_site_label_1
_geom_bond_atom_site_label_2
_geom_bond_distance
_geom_bond_site_symmetry_2
Li0 O27 1.932234 1_565
Li0 O1 2.045652 1_555
Li0 O7 2.141727 1_555
Li0 O6 2.201793 1_555
Li1 O25 1.923130 1_566
Li1 O4 1.994815 1_555
Li1 O9 2.210118 1_555
Li1 O8 2.291530 1_555
Li2 O1 2.126565 1_555
Li2 O10 2.136958 1_555
Li2 O9 2.174757 1_554
Li2 O11 2.192030 1_555
Li2 O3 2.364796 1_555
Li3 O6 2.042443 1_555
Li3 O12 2.123849 1_655
Li3 O4 2.149378 1_555
Li3 O13 2.234712 1_555
Li3 O5 2.412489 1_655
Li4 O7 2.043911 1_555
Li4 O12 2.108078 1_555
Li4 O4 2.137019 1_555
Li4 O13 2.268981 1_555
Li4 O5 2.427137 1_555
Li5 O7 2.019964 1_555
Li5 O6 2.052276 1_455
Li5 O12 2.084024 1_555
Li5 O14 2.103771 1_555
Li5 O3 2.339706 1_555
Li5 O0 2.395014 1_555
Li6 O23 2.103837 1_555
Li6 O20 2.107867 1_555
Li6 O14 2.117105 1_555
Li6 O15 2.173894 1_555
Li6 O22 2.438204 1_555
Li7 O21 2.096503 1_555
Li7 O14 2.106506 1_555
Li7 O23 2.109776 1_555
Li7 O15 2.193107 1_455
Li7 O22 2.439702 1_455
Li8 O26 2.069205 1_555
Li8 O19 2.113913 1_556
Li8 O16 2.136348 1_555
Li8 O17 2.170304 1_555
Li8 O24 2.378348 1_555
Li9 O26 2.084982 1_555
Li9 O18 2.120030 1_556
Li9 O16 2.134416 1_555
Li9 O17 2.203250 1_455
Li9 O24 2.356264 1_455
Li10 O2 1.920034 1_544
Li10 O23 1.983662 1_555
Li10 O18 2.233641 1_555
Li10 O19 2.235849 1_555
Li11 O0 1.930325 1_545
Li11 O26 2.038380 1_555
Li11 O20 2.202629 1_555
Li11 O21 2.224843 1_555
Fe0 O3 2.070371 1_555
Fe0 O1 2.129795 1_455
Fe0 O10 2.142007 1_555
Fe0 O11 2.222957 1_455
Fe0 O8 2.227522 1_454
Fe1 O9 2.050541 1_555
Fe1 O8 2.090570 1_455
Fe1 O16 2.120068 1_555
Fe1 O5 2.145612 1_555
Fe1 O10 2.205457 1_556
Fe1 O2 2.390255 1_555
Fe2 O19 2.047536 1_555
Fe2 O18 2.054682 1_655
Fe2 O17 2.148607 1_554
Fe2 O11 2.150486 1_555
Fe2 O22 2.192520 1_555
Fe2 O25 2.360608 1_555
Fe3 O21 2.050415 1_655
Fe3 O20 2.052948 1_555
Fe3 O15 2.154674 1_555
Fe3 O13 2.187057 1_555
Fe3 O24 2.215164 1_555
Fe3 O27 2.302383 1_555
C0 O0 1.274121 1_555
C0 O23 1.306423 1_565
C0 O3 1.323275 1_555
C1 O26 1.295187 1_565
C1 O2 1.297939 1_555
C1 O5 1.304485 1_555
C2 O25 1.287413 1_555
C2 O22 1.292424 1_555
C2 O1 1.318134 1_545
C3 O27 1.294326 1_555
C3 O4 1.299130 1_545
C3 O24 1.307200 1_555
O6 P0 1.546219 1_555
O7 P0 1.544771 1_555
O8 P1 1.576067 1_555
O9 P1 1.560274 1_555
O10 P2 1.562151 1_555
O11 P0 1.596072 1_555
O12 P3 1.530070 1_555
O13 P1 1.553478 1_555
O14 P2 1.536566 1_555
O15 P0 1.548502 1_555
O16 P3 1.570542 1_555
O17 P1 1.539388 1_555
O18 P2 1.559745 1_555
O19 P2 1.560537 1_555
O20 P3 1.563366 1_555
O21 P3 1.559972 1_555
