# generated using pymatgen
data_Li2Ni(PO3)4
_symmetry_space_group_name_H-M   'P 1'
_cell_length_a   9.12555036
_cell_length_b   12.88696273
_cell_length_c   9.37787802
_cell_angle_alpha   68.65550263
_cell_angle_beta   90.00048359
_cell_angle_gamma   110.86212616
_symmetry_Int_Tables_number   1
_chemical_formula_structural   Li2Ni(PO3)4
_chemical_formula_sum   'Li8 Ni4 P16 O48'
_cell_volume   949.15301966
_cell_formula_units_Z   4
loop_
 _symmetry_equiv_pos_site_id
 _symmetry_equiv_pos_as_xyz
  1  'x, y, z'
loop_
 _atom_site_type_symbol
 _atom_site_label
 _atom_site_symmetry_multiplicity
 _atom_site_fract_x
 _atom_site_fract_y
 _atom_site_fract_z
 _atom_site_occupancy
  Li  Li0  1  0.50008500  0.99998700  0.15158400  1
  Li  Li1  1  0.75000100  0.49995800  0.40161900  1
  Li  Li2  1  0.00006700  0.99994600  0.65164300  1
  Li  Li3  1  0.24997200  0.50002600  0.90154500  1
  Li  Li4  1  0.49993300  0.99999700  0.85234000  1
  Li  Li5  1  0.74993300  0.49990400  0.10236200  1
  Li  Li6  1  0.99995000  0.00003500  0.35237600  1
  Li  Li7  1  0.24997600  0.49991500  0.60239000  1
  Ni  Ni0  1  0.87506300  0.25016500  0.18548400  1
  Ni  Ni1  1  0.12473400  0.74999400  0.43538200  1
  Ni  Ni2  1  0.37508100  0.25007500  0.68533400  1
  Ni  Ni3  1  0.62498500  0.74998600  0.93560100  1
  P  P0  1  0.79814500  0.00282000  0.94862000  1
  P  P1  1  0.04814400  0.50287100  0.19863100  1
  P  P2  1  0.29811100  0.00276700  0.44865300  1
  P  P3  1  0.54807700  0.50281700  0.69867300  1
  P  P4  1  0.45191600  0.49717900  0.20150600  1
  P  P5  1  0.70194400  0.99721900  0.45158400  1
  P  P6  1  0.95187500  0.49715500  0.70146800  1
  P  P7  1  0.20195800  0.99723400  0.95156900  1
  P  P8  1  0.60115700  0.18284000  0.45463600  1
  P  P9  1  0.85115100  0.68280500  0.70468200  1
  P  P10  1  0.10119200  0.18286100  0.95463400  1
  P  P11  1  0.35118400  0.68281300  0.20471000  1
  P  P12  1  0.64879400  0.31715000  0.88746300  1
  P  P13  1  0.89881500  0.81716900  0.13749800  1
  P  P14  1  0.14881800  0.31717200  0.38742300  1
  P  P15  1  0.39879600  0.81711600  0.63753800  1
  O  O0  1  0.66608400  0.03930500  0.97597100  1
  O  O1  1  0.91602400  0.53932000  0.22606500  1
  O  O2  1  0.16608700  0.03930600  0.47599600  1
  O  O3  1  0.41600000  0.53929400  0.72608600  1
  O  O4  1  0.58399200  0.46068000  0.26542100  1
  O  O5  1  0.83399500  0.96071600  0.51546300  1
  O  O6  1  0.08396300  0.46070600  0.76534700  1
  O  O7  1  0.33397400  0.96071100  0.01544700  1
  O  O8  1  0.45905900  0.12117100  0.37092700  1
  O  O9  1  0.70904100  0.62119900  0.62092800  1
  O  O10  1  0.95906100  0.12120300  0.87092900  1
  O  O11  1  0.20910800  0.62123300  0.12089600  1
  O  O12  1  0.29099500  0.37879000  0.24210700  1
  O  O13  1  0.54104700  0.87881600  0.49224600  1
  O  O14  1  0.79093300  0.37875500  0.74215200  1
  O  O15  1  0.04104600  0.87881200  0.99226200  1
  O  O16  1  0.03016900  0.43402400  0.09436900  1
  O  O17  1  0.28013200  0.93388500  0.34440600  1
  O  O18  1  0.53011200  0.43398900  0.59438700  1
  O  O19  1  0.78021300  0.93391200  0.84443200  1
  O  O20  1  0.71993900  0.06613200  0.27842800  1
  O  O21  1  0.96978600  0.56599300  0.52834100  1
  O  O22  1  0.21990100  0.06606900  0.77841200  1
  O  O23  1  0.46989900  0.56605500  0.02837300  1
  O  O24  1  0.73336800  0.28102100  0.33139200  1
  O  O25  1  0.98336100  0.78097600  0.58147800  1
  O  O26  1  0.23336300  0.28098200  0.83135900  1
  O  O27  1  0.48341900  0.78097700  0.08157600  1
  O  O28  1  0.51661600  0.21903200  0.86235800  1
  O  O29  1  0.76666200  0.71899900  0.11246900  1
  O  O30  1  0.01660900  0.21903600  0.36236700  1
  O  O31  1  0.26660900  0.71900800  0.61240000  1
  O  O32  1  0.03396100  0.20619300  0.07943600  1
  O  O33  1  0.28382900  0.70604500  0.32959700  1
  O  O34  1  0.53392600  0.20616800  0.57944800  1
  O  O35  1  0.78394300  0.70608400  0.82960100  1
  O  O36  1  0.71602400  0.29390900  0.03564400  1
  O  O37  1  0.96596100  0.79386900  0.28570900  1
  O  O38  1  0.21599600  0.29386300  0.53564100  1
  O  O39  1  0.46598500  0.79382400  0.78572500  1
  O  O40  1  0.16002000  0.07161000  0.04268600  1
  O  O41  1  0.40998200  0.57153400  0.29266200  1
  O  O42  1  0.66002100  0.07161900  0.54270500  1
  O  O43  1  0.91001600  0.57156300  0.79259500  1
  O  O44  1  0.58995800  0.42839300  0.86421100  1
  O  O45  1  0.84000400  0.92841500  0.11422200  1
  O  O46  1  0.08995500  0.42841200  0.36418500  1
  O  O47  1  0.33999800  0.92841500  0.61421200  1
loop_
_geom_bond_atom_site_label_1
_geom_bond_atom_site_label_2
_geom_bond_distance
_geom_bond_site_symmetry_2
Li0 O7 2.026770 1_555
Li0 O0 2.027209 1_564
Li0 O17 2.384369 1_555
Li0 O20 2.384698 1_565
Li1 O4 2.026575 1_555
Li1 O1 2.026777 1_555
Li1 O21 2.383190 1_555
Li1 O18 2.384009 1_555
Li2 O5 2.026700 1_455
Li2 O2 2.027396 1_565
Li2 O19 2.383721 1_455
Li2 O22 2.384058 1_565
Li3 O3 2.026543 1_555
Li3 O6 2.026690 1_555
Li3 O16 2.383685 1_556
Li3 O23 2.384722 1_556
Li4 O7 1.944173 1_556
Li4 O0 1.944269 1_565
Li5 O4 1.943991 1_555
Li5 O1 1.944639 1_555
Li6 O5 1.943889 1_545
Li6 O2 1.944015 1_655
Li7 O6 1.943839 1_555
Li7 O3 1.944078 1_555
Ni0 O36 2.098736 1_555
Ni0 O32 2.099581 1_655
Ni0 O24 2.112974 1_555
Ni0 O30 2.113191 1_655
Ni0 O16 2.117814 1_655
Ni0 O20 2.119503 1_555
Ni1 O37 2.096389 1_455
Ni1 O33 2.099383 1_555
Ni1 O25 2.113287 1_455
Ni1 O31 2.115912 1_555
Ni1 O21 2.118770 1_455
Ni1 O17 2.118843 1_555
Ni2 O34 2.097755 1_555
Ni2 O38 2.098433 1_555
Ni2 O28 2.113935 1_555
Ni2 O26 2.114325 1_555
Ni2 O18 2.118157 1_555
Ni2 O22 2.119392 1_555
Ni3 O39 2.098978 1_555
Ni3 O35 2.099134 1_555
Ni3 O29 2.113679 1_556
Ni3 O27 2.113743 1_556
Ni3 O23 2.118442 1_556
Ni3 O19 2.118747 1_555
O0 P0 1.493508 1_555
O1 P1 1.493918 1_655
O2 P2 1.493639 1_555
O3 P3 1.493741 1_555
O4 P4 1.493890 1_555
O5 P5 1.493607 1_555
O6 P6 1.493600 1_455
O7 P7 1.493428 1_554
O8 P2 1.615843 1_555
O8 P8 1.627716 1_555
O9 P3 1.615817 1_555
O9 P9 1.627755 1_555
O10 P0 1.615517 1_555
O10 P10 1.627825 1_655
O11 P1 1.615689 1_555
O11 P11 1.627806 1_555
O12 P4 1.615714 1_555
O12 P14 1.627733 1_555
O13 P5 1.615624 1_555
O13 P15 1.627899 1_555
O14 P6 1.615816 1_555
O14 P12 1.627503 1_555
O15 P7 1.615802 1_555
O15 P13 1.627513 1_456
O16 P1 1.515890 1_555
O17 P2 1.516118 1_565
O18 P3 1.515901 1_555
O19 P0 1.515949 1_565
O20 P5 1.516198 1_545
O21 P6 1.515890 1_555
O22 P7 1.516096 1_545
O23 P4 1.515949 1_555
O24 P8 1.496851 1_555
O25 P9 1.496637 1_555
O26 P10 1.496588 1_555
O27 P11 1.496422 1_555
O28 P12 1.496518 1_555
O29 P13 1.496484 1_555
O30 P14 1.496590 1_555
O31 P15 1.496625 1_555
O32 P10 1.491365 1_554
O33 P11 1.491780 1_555
O34 P8 1.491413 1_555
O35 P9 1.491773 1_555
O36 P12 1.491657 1_554
O37 P13 1.491534 1_555
O38 P14 1.491733 1_555
O39 P15 1.491530 1_555
O40 P7 1.628729 1_544
O40 P10 1.646782 1_554
O41 P4 1.628749 1_555
O41 P11 1.646725 1_555
O42 P5 1.628962 1_545
O42 P8 1.646709 1_555
O43 P6 1.628833 1_555
O43 P9 1.646663 1_555
O44 P3 1.628831 1_555
O44 P12 1.646707 1_555
O45 P0 1.629106 1_564
O45 P13 1.646557 1_555
O46 P1 1.628805 1_555
O46 P14 1.646852 1_555
O47 P2 1.628699 1_565
O47 P15 1.647036 1_555
