# generated using pymatgen
data_Na2CoO3
_symmetry_space_group_name_H-M   'P 1'
_cell_length_a   10.00836500
_cell_length_b   4.95584600
_cell_length_c   6.42964100
_cell_angle_alpha   85.92899853
_cell_angle_beta   90.00000000
_cell_angle_gamma   90.00000000
_symmetry_Int_Tables_number   1
_chemical_formula_structural   Na2CoO3
_chemical_formula_sum   'Na8 Co4 O12'
_cell_volume   318.10499184
_cell_formula_units_Z   4
loop_
 _symmetry_equiv_pos_site_id
 _symmetry_equiv_pos_as_xyz
  1  'x, y, z'
loop_
 _atom_site_type_symbol
 _atom_site_label
 _atom_site_symmetry_multiplicity
 _atom_site_fract_x
 _atom_site_fract_y
 _atom_site_fract_z
 _atom_site_occupancy
  Na  Na0  1  0.72990800  0.25719900  0.85783600  1
  Na  Na1  1  0.77009200  0.25719900  0.35783600  1
  Na  Na2  1  0.39998900  0.27335700  0.88524000  1
  Na  Na3  1  0.10001100  0.27335700  0.38524000  1
  Na  Na4  1  0.89998900  0.72664300  0.61476000  1
  Na  Na5  1  0.60001100  0.72664300  0.11476000  1
  Na  Na6  1  0.22990800  0.74280100  0.64216400  1
  Na  Na7  1  0.27009200  0.74280100  0.14216400  1
  Co  Co0  1  0.03468400  0.16600500  0.84134400  1
  Co  Co1  1  0.46531600  0.16600500  0.34134400  1
  Co  Co2  1  0.53468400  0.83399500  0.65865600  1
  Co  Co3  1  0.96531600  0.83399500  0.15865600  1
  O  O0  1  0.54992100  0.21630500  0.59205500  1
  O  O1  1  0.95007900  0.21630500  0.09205500  1
  O  O2  1  0.91669900  0.23566200  0.64212100  1
  O  O3  1  0.58330100  0.23566200  0.14212100  1
  O  O4  1  0.18790800  0.25809300  0.73641500  1
  O  O5  1  0.31209200  0.25809300  0.23641500  1
  O  O6  1  0.68790800  0.74190700  0.76358500  1
  O  O7  1  0.81209200  0.74190700  0.26358500  1
  O  O8  1  0.41669900  0.76433800  0.85787900  1
  O  O9  1  0.08330100  0.76433800  0.35787900  1
  O  O10  1  0.04992100  0.78369500  0.90794500  1
  O  O11  1  0.45007900  0.78369500  0.40794500  1
loop_
_geom_bond_atom_site_label_1
_geom_bond_atom_site_label_2
_geom_bond_distance
_geom_bond_site_symmetry_2
Na0 O2 2.334743 1_555
Na0 O3 2.340446 1_556
Na0 O6 2.471338 1_555
Na0 O0 2.501092 1_555
Na0 O1 2.668566 1_556
Na0 O6 2.699089 1_545
Na1 O3 2.334743 1_555
Na1 O2 2.340446 1_555
Na1 O7 2.471338 1_555
Na1 O1 2.501092 1_555
Na1 O0 2.668566 1_555
Na1 O7 2.699089 1_545
Na2 O4 2.331738 1_555
Na2 O5 2.419421 1_556
Na2 O8 2.432844 1_555
Na2 O0 2.441485 1_555
Na2 O3 2.466779 1_556
Na2 O8 2.546672 1_545
Na3 O5 2.331738 1_555
Na3 O4 2.419421 1_555
Na3 O9 2.432844 1_555
Na3 O1 2.441485 1_455
Na3 O2 2.466779 1_455
Na3 O9 2.546672 1_545
Na4 O6 2.331738 1_555
Na4 O7 2.419421 1_555
Na4 O2 2.432844 1_555
Na4 O10 2.441485 1_655
Na4 O9 2.466779 1_655
Na4 O2 2.546672 1_565
Na5 O7 2.331738 1_555
Na5 O6 2.419421 1_554
Na5 O3 2.432844 1_555
Na5 O11 2.441485 1_555
Na5 O8 2.466779 1_554
Na5 O3 2.546672 1_565
Na6 O8 2.334743 1_555
Na6 O9 2.340446 1_555
Na6 O4 2.471338 1_555
Na6 O10 2.501092 1_555
Na6 O11 2.668566 1_555
Na6 O4 2.699089 1_565
Na7 O9 2.334743 1_555
Na7 O8 2.340446 1_554
Na7 O5 2.471338 1_555
Na7 O11 2.501092 1_555
Na7 O10 2.668566 1_554
Na7 O5 2.699089 1_565
Co0 O4 1.723778 1_555
Co0 O2 1.758280 1_455
Co0 O1 1.853288 1_456
Co0 O10 1.918646 1_545
Co1 O5 1.723778 1_555
Co1 O3 1.758280 1_555
Co1 O0 1.853288 1_555
Co1 O11 1.918646 1_545
Co2 O6 1.723778 1_555
Co2 O8 1.758280 1_555
Co2 O11 1.853288 1_555
Co2 O0 1.918646 1_565
Co3 O7 1.723778 1_555
Co3 O9 1.758280 1_655
Co3 O10 1.853288 1_654
Co3 O1 1.918646 1_565
