# generated using pymatgen
data_LiMnF3
_symmetry_space_group_name_H-M   'P 1'
_cell_length_a   7.16530100
_cell_length_b   7.24248800
_cell_length_c   15.56412025
_cell_angle_alpha   84.10873549
_cell_angle_beta   90.00000000
_cell_angle_gamma   90.00000000
_symmetry_Int_Tables_number   1
_chemical_formula_structural   LiMnF3
_chemical_formula_sum   'Li12 Mn12 F36'
_cell_volume   803.42804261
_cell_formula_units_Z   12
loop_
 _symmetry_equiv_pos_site_id
 _symmetry_equiv_pos_as_xyz
  1  'x, y, z'
loop_
 _atom_site_type_symbol
 _atom_site_label
 _atom_site_symmetry_multiplicity
 _atom_site_fract_x
 _atom_site_fract_y
 _atom_site_fract_z
 _atom_site_occupancy
  Li  Li0  1  0.61433800  0.24539000  0.08393000  1
  Li  Li1  1  0.13512800  0.24063900  0.08617500  1
  Li  Li2  1  0.87338200  0.45020000  0.20487200  1
  Li  Li3  1  0.37338200  0.54980000  0.29512800  1
  Li  Li4  1  0.63512800  0.75936100  0.41382500  1
  Li  Li5  1  0.11433800  0.75461000  0.41607000  1
  Li  Li6  1  0.88566200  0.24539000  0.58393000  1
  Li  Li7  1  0.36487200  0.24063900  0.58617500  1
  Li  Li8  1  0.62661800  0.45020000  0.70487200  1
  Li  Li9  1  0.12661800  0.54980000  0.79512800  1
  Li  Li10  1  0.86487200  0.75936100  0.91382500  1
  Li  Li11  1  0.38566200  0.75461000  0.91607000  1
  Mn  Mn0  1  0.12384700  0.74487400  0.11432000  1
  Mn  Mn1  1  0.63165700  0.75172000  0.10676100  1
  Mn  Mn2  1  0.37418200  0.04096200  0.23082200  1
  Mn  Mn3  1  0.87418200  0.95903800  0.26917800  1
  Mn  Mn4  1  0.13165700  0.24828000  0.39323900  1
  Mn  Mn5  1  0.62384700  0.25512600  0.38568000  1
  Mn  Mn6  1  0.37615300  0.74487400  0.61432000  1
  Mn  Mn7  1  0.86834300  0.75172000  0.60676100  1
  Mn  Mn8  1  0.12581800  0.04096200  0.73082200  1
  Mn  Mn9  1  0.62581800  0.95903800  0.76917800  1
  Mn  Mn10  1  0.36834300  0.24828000  0.89323900  1
  Mn  Mn11  1  0.87615300  0.25512600  0.88568000  1
  F  F0  1  0.88743400  0.78739700  0.03221600  1
  F  F1  1  0.36961400  0.76737500  0.03633900  1
  F  F2  1  0.37593900  0.18400400  0.10816800  1
  F  F3  1  0.67511500  0.01178800  0.15958500  1
  F  F4  1  0.66660200  0.46792700  0.12842400  1
  F  F5  1  0.08166700  0.01106300  0.16593000  1
  F  F6  1  0.08445000  0.46063000  0.13255400  1
  F  F7  1  0.87538600  0.70730700  0.21089300  1
  F  F8  1  0.37608300  0.74984400  0.20657600  1
  F  F9  1  0.87608300  0.25015600  0.29342400  1
  F  F10  1  0.37538600  0.29269300  0.28910700  1
  F  F11  1  0.58445000  0.53937000  0.36744600  1
  F  F12  1  0.58166700  0.98893700  0.33407000  1
  F  F13  1  0.16660200  0.53207300  0.37157600  1
  F  F14  1  0.17511500  0.98821200  0.34041500  1
  F  F15  1  0.87593900  0.81599600  0.39183200  1
  F  F16  1  0.86961400  0.23262500  0.46366100  1
  F  F17  1  0.38743400  0.21260300  0.46778400  1
  F  F18  1  0.61256600  0.78739700  0.53221600  1
  F  F19  1  0.13038600  0.76737500  0.53633900  1
  F  F20  1  0.12406100  0.18400400  0.60816800  1
  F  F21  1  0.82488500  0.01178800  0.65958500  1
  F  F22  1  0.83339800  0.46792700  0.62842400  1
  F  F23  1  0.41833300  0.01106300  0.66593000  1
  F  F24  1  0.41555000  0.46063000  0.63255400  1
  F  F25  1  0.62461400  0.70730700  0.71089300  1
  F  F26  1  0.12391700  0.74984400  0.70657600  1
  F  F27  1  0.62391700  0.25015600  0.79342400  1
  F  F28  1  0.12461400  0.29269300  0.78910700  1
  F  F29  1  0.91555000  0.53937000  0.86744600  1
  F  F30  1  0.91833300  0.98893700  0.83407000  1
  F  F31  1  0.33339800  0.53207300  0.87157600  1
  F  F32  1  0.32488500  0.98821200  0.84041500  1
  F  F33  1  0.62406100  0.81599600  0.89183200  1
  F  F34  1  0.63038600  0.23262500  0.96366100  1
  F  F35  1  0.11256600  0.21260300  0.96778400  1
loop_
_geom_bond_atom_site_label_1
_geom_bond_atom_site_label_2
_geom_bond_distance
_geom_bond_site_symmetry_2
F0 Li10 1.881366 1_554
F0 Mn0 2.125220 1_655
F0 Mn1 2.170302 1_555
F1 Li11 1.887123 1_554
F1 Mn0 2.135448 1_555
F1 Mn1 2.171205 1_555
F2 Li0 1.795408 1_555
F2 Li1 1.798301 1_555
F2 Mn2 2.076467 1_555
F3 Li0 2.007385 1_555
F3 Mn1 2.153723 1_545
F3 Mn3 2.226253 1_545
F3 Mn2 2.443679 1_555
F4 Li0 1.856496 1_555
F4 Li2 1.896343 1_555
F4 Mn1 2.063650 1_555
F5 Li1 2.007110 1_555
F5 Mn0 2.184299 1_545
F5 Mn3 2.193231 1_445
F5 Mn2 2.346252 1_555
F6 Li1 1.851369 1_555
F6 Li2 1.882127 1_455
F6 Mn0 2.068398 1_555
F7 Li2 1.874088 1_555
F7 Mn3 2.118118 1_555
F7 Mn0 2.327825 1_655
F7 Mn1 2.381822 1_555
F8 Li3 1.894482 1_555
F8 Mn2 2.179760 1_565
F8 Mn0 2.310881 1_555
F8 Mn1 2.400593 1_555
F9 Li2 1.894482 1_555
F9 Mn3 2.179760 1_545
F9 Mn5 2.310881 1_555
F9 Mn4 2.400593 1_655
F10 Li3 1.874088 1_555
F10 Mn2 2.118118 1_555
F10 Mn5 2.327825 1_555
F10 Mn4 2.381822 1_555
F11 Li4 1.851369 1_555
F11 Li3 1.882127 1_555
F11 Mn5 2.068398 1_555
F12 Li4 2.007110 1_555
F12 Mn5 2.184299 1_565
F12 Mn2 2.193231 1_565
F12 Mn3 2.346252 1_555
F13 Li5 1.856496 1_555
F13 Li3 1.896343 1_555
F13 Mn4 2.063650 1_555
F14 Li5 2.007385 1_555
F14 Mn4 2.153723 1_565
F14 Mn2 2.226253 1_565
F14 Mn3 2.443679 1_455
F15 Li5 1.795408 1_655
F15 Li4 1.798301 1_555
F15 Mn3 2.076467 1_555
F16 Li6 1.887123 1_555
F16 Mn5 2.135448 1_555
F16 Mn4 2.171205 1_655
F17 Li7 1.881366 1_555
F17 Mn5 2.125220 1_555
F17 Mn4 2.170302 1_555
F18 Li4 1.881366 1_555
F18 Mn6 2.125220 1_555
F18 Mn7 2.170302 1_555
F19 Li5 1.887123 1_555
F19 Mn6 2.135448 1_555
F19 Mn7 2.171205 1_455
F20 Li6 1.795408 1_455
F20 Li7 1.798301 1_555
F20 Mn8 2.076467 1_555
F21 Li6 2.007385 1_555
F21 Mn7 2.153723 1_545
F21 Mn9 2.226253 1_545
F21 Mn8 2.443679 1_655
F22 Li6 1.856496 1_555
F22 Li8 1.896343 1_555
F22 Mn7 2.063650 1_555
F23 Li7 2.007110 1_555
F23 Mn6 2.184299 1_545
F23 Mn9 2.193231 1_545
F23 Mn8 2.346252 1_555
F24 Li7 1.851369 1_555
F24 Li8 1.882127 1_555
F24 Mn6 2.068398 1_555
F25 Li8 1.874088 1_555
F25 Mn9 2.118118 1_555
F25 Mn6 2.327825 1_555
F25 Mn7 2.381822 1_555
F26 Li9 1.894482 1_555
F26 Mn8 2.179760 1_565
F26 Mn6 2.310881 1_555
F26 Mn7 2.400593 1_455
F27 Li8 1.894482 1_555
F27 Mn9 2.179760 1_545
F27 Mn11 2.310881 1_555
F27 Mn10 2.400593 1_555
F28 Li9 1.874088 1_555
F28 Mn8 2.118118 1_555
F28 Mn11 2.327825 1_455
F28 Mn10 2.381822 1_555
F29 Li10 1.851369 1_555
F29 Li9 1.882127 1_655
F29 Mn11 2.068398 1_555
F30 Li10 2.007110 1_555
F30 Mn11 2.184299 1_565
F30 Mn8 2.193231 1_665
F30 Mn9 2.346252 1_555
F31 Li11 1.856496 1_555
F31 Li9 1.896343 1_555
F31 Mn10 2.063650 1_555
F32 Li11 2.007385 1_555
F32 Mn10 2.153723 1_565
F32 Mn8 2.226253 1_565
F32 Mn9 2.443679 1_555
F33 Li11 1.795408 1_555
F33 Li10 1.798301 1_555
F33 Mn9 2.076467 1_555
F34 Li0 1.887123 1_556
F34 Mn11 2.135448 1_555
F34 Mn10 2.171205 1_555
F35 Li1 1.881366 1_556
F35 Mn11 2.125220 1_455
F35 Mn10 2.170302 1_555
