# generated using pymatgen
data_Li3V3P8O29
_symmetry_space_group_name_H-M   'P 1'
_cell_length_a   9.75332700
_cell_length_b   9.77538635
_cell_length_c   14.20128947
_cell_angle_alpha   89.93225358
_cell_angle_beta   90.30613487
_cell_angle_gamma   119.91400844
_symmetry_Int_Tables_number   1
_chemical_formula_structural   Li3V3P8O29
_chemical_formula_sum   'Li6 V6 P16 O58'
_cell_volume   1173.58340945
_cell_formula_units_Z   2
loop_
 _symmetry_equiv_pos_site_id
 _symmetry_equiv_pos_as_xyz
  1  'x, y, z'
loop_
 _atom_site_type_symbol
 _atom_site_label
 _atom_site_symmetry_multiplicity
 _atom_site_fract_x
 _atom_site_fract_y
 _atom_site_fract_z
 _atom_site_occupancy
  Li  Li0  1  0.68902600  0.91213900  0.94138500  1
  Li  Li1  1  0.23192800  0.90542900  0.44720900  1
  Li  Li2  1  0.22857900  0.32055200  0.94032500  1
  Li  Li3  1  0.09353300  0.32787600  0.44344200  1
  Li  Li4  1  0.30224300  0.08046200  0.05600600  1
  Li  Li5  1  0.95198000  0.97020700  0.50511300  1
  V  V0  1  0.99962300  0.56728900  0.75454800  1
  V  V1  1  0.00002300  0.43723200  0.24440400  1
  V  V2  1  0.56749800  0.56896300  0.25562000  1
  V  V3  1  0.44056800  0.43662100  0.74304500  1
  V  V4  1  0.56738000  0.00341300  0.74551800  1
  V  V5  1  0.43770100  0.99818700  0.25276800  1
  P  P0  1  0.68392800  0.91021100  0.15896900  1
  P  P1  1  0.69549000  0.77909500  0.65741500  1
  P  P2  1  0.22200700  0.91035900  0.66083500  1
  P  P3  1  0.33803700  0.66664000  0.86834500  1
  P  P4  1  0.33021600  0.66454300  0.36920000  1
  P  P5  1  0.08578900  0.77415400  0.15434000  1
  P  P6  1  0.91944700  0.69271400  0.33933500  1
  P  P7  1  0.23316100  0.31975500  0.15816700  1
  P  P8  1  0.77193800  0.68635400  0.84153300  1
  P  P9  1  0.08516500  0.31469100  0.65773400  1
  P  P10  1  0.91398600  0.22658400  0.83969200  1
  P  P11  1  0.67093400  0.33538200  0.63053200  1
  P  P12  1  0.66050600  0.33273100  0.13312600  1
  P  P13  1  0.78284900  0.08893000  0.34013800  1
  P  P14  1  0.30856300  0.22358500  0.34063600  1
  P  P15  1  0.32009900  0.09201800  0.84043500  1
  O  O0  1  0.79596700  0.00738200  0.42431000  1
  O  O1  1  0.65405700  0.91277200  0.66981000  1
  O  O2  1  0.76171100  0.76721000  0.92675100  1
  O  O3  1  0.65853500  0.74224000  0.17145800  1
  O  O4  1  0.52206000  0.90196500  0.18280100  1
  O  O5  1  0.48454200  0.81941400  0.82813500  1
  O  O6  1  0.38129900  0.91014700  0.67427400  1
  O  O7  1  0.24917400  0.01233900  0.93069200  1
  O  O8  1  0.25826100  0.91792200  0.16388700  1
  O  O9  1  0.48108700  0.66971900  0.32625300  1
  O  O10  1  0.53803500  0.61826200  0.66768400  1
  O  O11  1  0.32478800  0.81427800  0.32865200  1
  O  O12  1  0.33429900  0.66100600  0.97299500  1
  O  O13  1  0.32586900  0.66533000  0.47379500  1
  O  O14  1  0.18539700  0.66003700  0.82329200  1
  O  O15  1  0.38370300  0.47864000  0.17929100  1
  O  O16  1  0.34052100  0.52003800  0.82464700  1
  O  O17  1  0.08346000  0.73994100  0.67111600  1
  O  O18  1  0.99874600  0.79424600  0.24551300  1
  O  O19  1  0.00620300  0.78932400  0.42304500  1
  O  O20  1  0.00500800  0.76640700  0.06532100  1
  O  O21  1  0.09392700  0.61962200  0.17669200  1
  O  O22  1  0.18454700  0.51258000  0.32692100  1
  O  O23  1  0.91290400  0.65517200  0.83628900  1
  O  O24  1  0.08429200  0.47017100  0.67320300  1
  O  O25  1  0.25807300  0.34737800  0.67079000  1
  O  O26  1  0.79798700  0.79504500  0.74975500  1
  O  O27  1  0.78846700  0.79876500  0.57182000  1
  O  O28  1  0.20580000  0.21408400  0.42021900  1
  O  O29  1  0.74471700  0.65502300  0.33482400  1
  O  O30  1  0.92060900  0.53551700  0.32643700  1
  O  O31  1  0.08800700  0.34363900  0.16627100  1
  O  O32  1  0.81460700  0.48094200  0.67677400  1
  O  O33  1  0.90656500  0.38012600  0.82439200  1
  O  O34  1  0.00963100  0.23340400  0.92285800  1
  O  O35  1  0.01855200  0.23370000  0.56620300  1
  O  O36  1  0.98874600  0.20060300  0.74369400  1
  O  O37  1  0.91892500  0.26353100  0.33494500  1
  O  O38  1  0.65676400  0.47483000  0.18061000  1
  O  O39  1  0.61885600  0.52673900  0.82044700  1
  O  O40  1  0.81309800  0.33758000  0.17690900  1
  O  O41  1  0.65225300  0.32613100  0.02911300  1
  O  O42  1  0.66541500  0.32920500  0.52650000  1
  O  O43  1  0.66950600  0.18465300  0.67506800  1
  O  O44  1  0.46545900  0.38280800  0.33074400  1
  O  O45  1  0.51875200  0.33119500  0.67448800  1
  O  O46  1  0.74320800  0.08262200  0.83966200  1
  O  O47  1  0.80067900  0.01100600  0.24349800  1
  O  O48  1  0.74392400  0.98619600  0.06680400  1
  O  O49  1  0.62061100  0.08532400  0.32676400  1
  O  O50  1  0.51384400  0.17947900  0.17714900  1
  O  O51  1  0.47861700  0.09732500  0.81878000  1
  O  O52  1  0.34363500  0.26118500  0.83550800  1
  O  O53  1  0.24321000  0.24776900  0.06732400  1
  O  O54  1  0.21431000  0.20054400  0.24166800  1
  O  O55  1  0.34252700  0.08351900  0.34052700  1
  O  O56  1  0.21499600  0.98378000  0.57035500  1
  O  O57  1  0.20733600  0.00233400  0.75077100  1
loop_
_geom_bond_atom_site_label_1
_geom_bond_atom_site_label_2
_geom_bond_distance
_geom_bond_site_symmetry_2
Li0 O2 1.885978 1_555
Li0 O48 1.894566 1_556
Li0 O46 2.065802 1_565
Li0 O5 2.356258 1_555
Li1 O19 1.937384 1_555
Li1 O56 1.950568 1_555
Li1 O55 2.151237 1_565
Li1 O11 2.296453 1_555
Li2 O34 1.878261 1_555
Li2 O53 1.968462 1_556
Li2 O52 2.116897 1_555
Li2 O16 2.362522 1_555
Li3 O35 1.939068 1_555
Li3 O28 1.940272 1_555
Li3 O37 2.139108 1_455
Li3 O22 2.279525 1_555
Li4 O7 1.878188 1_554
Li4 O53 1.993238 1_555
Li4 O8 2.092180 1_545
Li4 O50 2.475785 1_555
Li5 O27 1.896334 1_555
Li5 O0 2.072708 1_565
Li5 O19 2.389288 1_655
Li5 O35 2.477881 1_665
O0 P13 1.475989 1_555
O1 P1 1.558804 1_555
O1 V4 1.847916 1_565
O2 P8 1.476978 1_555
O3 P0 1.543721 1_555
O3 V2 1.895393 1_555
O4 P0 1.578675 1_555
O4 V5 1.825333 1_555
O5 P3 1.573679 1_555
O5 V4 1.954537 1_565
O6 P2 1.565320 1_555
O6 V4 1.865731 1_565
O7 P15 1.482510 1_555
O8 P5 1.569479 1_555
O8 V5 1.970009 1_555
O9 P4 1.573243 1_555
O9 V2 1.877728 1_555
O10 P1 1.563707 1_555
O10 V3 1.877415 1_555
O11 P4 1.597444 1_555
O11 V5 1.907762 1_555
O12 P3 1.487088 1_555
O13 P4 1.486354 1_555
O14 P3 1.588700 1_555
O14 V0 1.844671 1_455
O15 P7 1.542727 1_555
O15 V2 1.889677 1_555
O16 P3 1.573638 1_555
O16 V3 1.941129 1_555
O17 P2 1.542338 1_555
O17 V0 1.884171 1_455
O18 P6 1.612697 1_555
O18 P5 1.616911 1_655
O19 P6 1.488613 1_455
O20 P5 1.467900 1_555
O21 P5 1.583410 1_555
O21 V1 1.821814 1_555
O22 P4 1.572801 1_555
O22 V1 1.952460 1_555
O23 P8 1.551747 1_555
O23 V0 1.881093 1_555
O24 P9 1.540154 1_555
O24 V0 1.926781 1_455
O25 P9 1.562004 1_555
O25 V3 1.848237 1_555
O26 P1 1.604471 1_555
O26 P8 1.619640 1_555
O27 P1 1.474523 1_555
O28 P14 1.486443 1_555
O29 P6 1.554596 1_555
O29 V2 1.868599 1_555
O30 P6 1.553404 1_555
O30 V1 1.906490 1_655
O31 P7 1.550337 1_555
O31 V1 1.897444 1_555
O32 P11 1.556657 1_555
O32 V0 1.910596 1_555
O33 P10 1.553275 1_555
O33 V0 1.871915 1_555
O34 P10 1.481878 1_455
O35 P9 1.489606 1_555
O36 P9 1.606659 1_655
O36 P10 1.628158 1_555
O37 P13 1.556090 1_555
O37 V1 1.956587 1_655
O38 P12 1.561610 1_555
O38 V2 1.884354 1_555
O39 P8 1.557624 1_555
O39 V3 1.860664 1_555
O40 P12 1.588599 1_555
O40 V1 1.844912 1_655
O41 P12 1.478613 1_555
O42 P11 1.478289 1_555
O43 P11 1.596446 1_555
O43 V4 1.838022 1_555
O44 P14 1.552479 1_555
O44 V2 1.908014 1_555
O45 P11 1.594891 1_555
O45 V3 1.840003 1_555
O46 P10 1.554636 1_555
O46 V4 1.995364 1_555
O47 P0 1.605501 1_545
O47 P13 1.622081 1_555
O48 P0 1.476356 1_555
O49 P13 1.575548 1_555
O49 V5 1.865169 1_545
O50 P12 1.597275 1_555
O50 V5 1.880632 1_545
O51 P15 1.553276 1_555
O51 V4 1.865292 1_555
O52 P15 1.553545 1_555
O52 V3 1.987438 1_555
O53 P7 1.497131 1_555
O54 P7 1.607278 1_555
O54 P14 1.628370 1_555
O55 P14 1.561038 1_555
O55 V5 1.974296 1_545
O56 P2 1.488851 1_555
O57 P2 1.610306 1_545
O57 P15 1.620362 1_555
