# generated using pymatgen
data_Li3AlFeO4
_symmetry_space_group_name_H-M   'P 1'
_cell_length_a   10.19113664
_cell_length_b   10.19113664
_cell_length_c   10.19113664
_cell_angle_alpha   116.65272919
_cell_angle_beta   116.65272919
_cell_angle_gamma   95.90252813
_symmetry_Int_Tables_number   1
_chemical_formula_structural   Li3AlFeO4
_chemical_formula_sum   'Li24 Al8 Fe8 O32'
_cell_volume   781.80743086
_cell_formula_units_Z   8
loop_
 _symmetry_equiv_pos_site_id
 _symmetry_equiv_pos_as_xyz
  1  'x, y, z'
loop_
 _atom_site_type_symbol
 _atom_site_label
 _atom_site_symmetry_multiplicity
 _atom_site_fract_x
 _atom_site_fract_y
 _atom_site_fract_z
 _atom_site_occupancy
  Li  Li0  1  0.92931400  0.10611200  0.15599900  1
  Li  Li1  1  0.82068600  0.14388800  0.34400100  1
  Li  Li2  1  0.89388800  0.04988600  0.82320100  1
  Li  Li3  1  0.52331500  0.17931400  0.32320100  1
  Li  Li4  1  0.44190800  0.29236900  0.13257700  1
  Li  Li5  1  0.71544100  0.56458600  0.14042600  1
  Li  Li6  1  0.22668500  0.07068600  0.17679900  1
  Li  Li7  1  0.85611200  0.20011400  0.67679900  1
  Li  Li8  1  0.70763100  0.84020800  0.14953900  1
  Li  Li9  1  0.43541400  0.57584000  0.15085500  1
  Li  Li10  1  0.79988600  0.47668500  0.65599900  1
  Li  Li11  1  0.95011400  0.77331500  0.84400100  1
  Li  Li12  1  0.31458600  0.67416000  0.34914500  1
  Li  Li13  1  0.42498500  0.28455900  0.84914500  1
  Li  Li14  1  0.04236900  0.40979200  0.35046100  1
  Li  Li15  1  0.69066900  0.55809200  0.85046100  1
  Li  Li16  1  0.03455900  0.68541400  0.35957400  1
  Li  Li17  1  0.42416000  0.57501500  0.85957400  1
  Li  Li18  1  0.59020800  0.94066900  0.63257700  1
  Li  Li19  1  0.30809200  0.95763100  0.36742300  1
  Li  Li20  1  0.15979200  0.30933100  0.86742300  1
  Li  Li21  1  0.32584000  0.67498500  0.64042600  1
  Li  Li22  1  0.05933100  0.69190800  0.64953900  1
  Li  Li23  1  0.32501500  0.96544100  0.65085500  1
  Al  Al0  1  0.74899600  0.41402600  0.30156500  1
  Al  Al1  1  0.16402600  0.36246100  0.16503000  1
  Al  Al2  1  0.55256900  0.25100400  0.66503000  1
  Al  Al3  1  0.58597400  0.88753900  0.33497000  1
  Al  Al4  1  0.63753900  0.80256900  0.80156500  1
  Al  Al5  1  0.00100400  0.83597400  0.19843500  1
  Al  Al6  1  0.11246100  0.44743100  0.69843500  1
  Al  Al7  1  0.19743100  0.99899600  0.83497000  1
  Fe  Fe0  1  0.45032400  0.92533000  0.99852800  1
  Fe  Fe1  1  0.54820500  0.54967600  0.47500700  1
  Fe  Fe2  1  0.67533000  0.17680200  0.97500700  1
  Fe  Fe3  1  0.82319800  0.79820500  0.49852800  1
  Fe  Fe4  1  0.29967600  0.32467000  0.50147200  1
  Fe  Fe5  1  0.07467000  0.07319800  0.52499300  1
  Fe  Fe6  1  0.20179500  0.70032400  0.02499300  1
  Fe  Fe7  1  0.92680200  0.45179500  0.00147200  1
  O  O0  1  0.83170400  0.26774900  0.24272500  1
  O  O1  1  0.33898000  0.08170400  0.06395500  1
  O  O2  1  0.59807800  0.35485600  0.08132600  1
  O  O3  1  0.86469000  0.64127600  0.09294600  1
  O  O4  1  0.88531000  0.60872400  0.40705400  1
  O  O5  1  0.64800500  0.39324300  0.39947500  1
  O  O6  1  0.41102000  0.16829600  0.43604500  1
  O  O7  1  0.35872400  0.45167000  0.22341400  1
  O  O8  1  0.52174400  0.11469000  0.72341400  1
  O  O9  1  0.91829600  0.98225100  0.25727500  1
  O  O10  1  0.14324300  0.24376800  0.24523800  1
  O  O11  1  0.75147000  0.35199500  0.74523800  1
  O  O12  1  0.64514400  0.72647000  0.24322200  1
  O  O13  1  0.10485600  0.52353000  0.25677800  1
  O  O14  1  0.48324800  0.40192200  0.75677800  1
  O  O15  1  0.60675700  0.00623200  0.25476200  1
  O  O16  1  0.72497500  0.66102000  0.74272500  1
  O  O17  1  0.39127600  0.79833000  0.27658600  1
  O  O18  1  0.22825600  0.13531000  0.77658600  1
  O  O19  1  0.73225100  0.97497500  0.56395500  1
  O  O20  1  0.47647000  0.73324800  0.58132600  1
  O  O21  1  0.10199500  0.85675700  0.10052500  1
  O  O22  1  0.99376800  0.24853000  0.60052500  1
  O  O23  1  0.20167000  0.47825600  0.59294600  1
  O  O24  1  0.54833000  0.77174400  0.90705400  1
  O  O25  1  0.75623200  0.00147000  0.89947500  1
  O  O26  1  0.27353000  0.51675200  0.91867400  1
  O  O27  1  0.15192200  0.89514400  0.41867400  1
  O  O28  1  0.01774900  0.27502500  0.93604500  1
  O  O29  1  0.02502500  0.58898000  0.75727500  1
  O  O30  1  0.26675200  0.84807800  0.74322200  1
  O  O31  1  0.99853000  0.89800500  0.75476200  1
loop_
_geom_bond_atom_site_label_1
_geom_bond_atom_site_label_2
_geom_bond_distance
_geom_bond_site_symmetry_2
Li0 O9 1.978613 1_545
Li0 O10 1.998945 1_655
Li0 O25 2.014401 1_554
Li0 O0 2.074562 1_555
Li1 O0 1.978613 1_555
Li1 O15 1.998945 1_555
Li1 O22 2.014401 1_555
Li1 O9 2.074562 1_545
Li2 O28 1.978627 1_655
Li2 O25 1.998949 1_555
Li2 O31 2.014392 1_545
Li2 O19 2.074554 1_545
Li3 O6 1.978630 1_555
Li3 O5 1.998941 1_555
Li3 O15 2.014400 1_555
Li3 O1 2.074552 1_555
Li4 O1 1.931397 1_555
Li4 O7 1.962157 1_555
Li4 O2 2.011743 1_555
Li4 O5 2.188263 1_555
Li5 O12 1.923105 1_555
Li5 O3 1.978269 1_555
Li5 O2 2.008656 1_555
Li5 O4 2.259577 1_555
Li6 O1 1.978630 1_555
Li6 O21 1.998941 1_545
Li6 O10 2.014400 1_555
Li6 O6 2.074552 1_555
Li7 O19 1.978627 1_545
Li7 O22 1.998949 1_555
Li7 O11 2.014392 1_555
Li7 O28 2.074554 1_655
Li8 O9 1.931400 1_555
Li8 O24 1.962157 1_554
Li8 O12 2.011743 1_555
Li8 O15 2.188263 1_565
Li9 O26 1.923105 1_554
Li9 O7 1.978269 1_555
Li9 O12 2.008656 1_555
Li9 O17 2.259577 1_555
Li10 O29 1.978632 1_655
Li10 O11 1.998941 1_555
Li10 O5 2.014400 1_555
Li10 O16 2.074554 1_555
Li11 O16 1.978632 1_555
Li11 O31 1.998941 1_555
Li11 O21 2.014400 1_656
Li11 O29 2.074554 1_655
Li12 O20 1.923105 1_555
Li12 O17 1.978269 1_555
Li12 O13 2.008656 1_555
Li12 O7 2.259577 1_555
Li13 O2 1.923105 1_556
Li13 O18 1.978269 1_555
Li13 O14 2.008656 1_555
Li13 O8 2.259577 1_555
Li14 O0 1.931400 1_455
Li14 O23 1.962157 1_555
Li14 O13 2.011743 1_555
Li14 O10 2.188263 1_555
Li15 O16 1.931388 1_555
Li15 O3 1.962157 1_556
Li15 O14 2.011743 1_555
Li15 O11 2.188263 1_555
Li16 O13 1.923105 1_555
Li16 O4 1.978269 1_455
Li16 O27 2.008656 1_555
Li16 O3 2.259577 1_455
Li17 O14 1.923105 1_555
Li17 O24 1.978269 1_555
Li17 O26 2.008656 1_555
Li17 O23 2.259577 1_555
Li18 O19 1.931397 1_555
Li18 O8 1.962157 1_565
Li18 O20 2.011743 1_555
Li18 O25 2.188263 1_565
Li19 O6 1.931397 1_565
Li19 O17 1.962157 1_555
Li19 O27 2.011743 1_555
Li19 O21 2.188263 1_555
Li20 O28 1.931397 1_555
Li20 O18 1.962157 1_555
Li20 O26 2.011743 1_555
Li20 O22 2.188263 1_455
Li21 O30 1.923105 1_555
Li21 O23 1.978269 1_555
Li21 O20 2.008656 1_555
Li21 O24 2.259577 1_555
Li22 O29 1.931388 1_555
Li22 O4 1.962157 1_455
Li22 O30 2.011743 1_555
Li22 O31 2.188263 1_455
Li23 O27 1.923105 1_555
Li23 O8 1.978269 1_565
Li23 O30 2.008656 1_555
Li23 O18 2.259577 1_565
Al0 O5 1.779297 1_555
Al0 O4 1.789434 1_555
Al0 O0 1.789474 1_555
Al0 O2 1.806867 1_555
Al1 O10 1.779297 1_555
Al1 O7 1.789434 1_555
Al1 O28 1.789475 1_554
Al1 O13 1.806867 1_555
Al2 O11 1.779297 1_555
Al2 O8 1.789434 1_555
Al2 O6 1.789475 1_555
Al2 O14 1.806867 1_555
Al3 O15 1.779297 1_565
Al3 O17 1.789434 1_555
Al3 O19 1.789475 1_555
Al3 O12 1.806867 1_555
Al4 O25 1.779297 1_565
Al4 O24 1.789434 1_555
Al4 O16 1.789473 1_555
Al4 O20 1.806867 1_555
Al5 O21 1.779297 1_555
Al5 O3 1.789434 1_455
Al5 O9 1.789474 1_455
Al5 O27 1.806867 1_555
Al6 O22 1.779297 1_455
Al6 O23 1.789434 1_555
Al6 O29 1.789473 1_555
Al6 O26 1.806867 1_555
Al7 O31 1.779297 1_455
Al7 O18 1.789434 1_565
Al7 O1 1.789475 1_566
Al7 O30 1.806867 1_555
Fe0 O15 2.025701 1_566
Fe0 O24 2.040669 1_555
Fe0 O1 2.090272 1_566
Fe0 O30 2.093254 1_555
Fe1 O5 2.025696 1_555
Fe1 O7 2.040679 1_555
Fe1 O16 2.090270 1_555
Fe1 O20 2.093258 1_555
Fe2 O25 2.025703 1_555
Fe2 O8 2.040677 1_555
Fe2 O0 2.090272 1_556
Fe2 O2 2.093251 1_556
Fe3 O31 2.025703 1_555
Fe3 O4 2.040677 1_555
Fe3 O19 2.090265 1_555
Fe3 O12 2.093251 1_555
Fe4 O10 2.025701 1_555
Fe4 O23 2.040669 1_555
Fe4 O6 2.090272 1_555
Fe4 O14 2.093254 1_555
Fe5 O22 2.025703 1_455
Fe5 O18 2.040677 1_555
Fe5 O9 2.090272 1_445
Fe5 O27 2.093251 1_545
Fe6 O21 2.025696 1_555
Fe6 O17 2.040679 1_555
Fe6 O29 2.090270 1_554
Fe6 O26 2.093258 1_554
Fe7 O11 2.025703 1_554
Fe7 O3 2.040677 1_555
Fe7 O28 2.090265 1_654
Fe7 O13 2.093251 1_655
