# generated using pymatgen
data_Hf2N2O
_symmetry_space_group_name_H-M   'P 1'
_cell_length_a   6.78214100
_cell_length_b   5.83132700
_cell_length_c   5.91886290
_cell_angle_alpha   89.73375481
_cell_angle_beta   90.00000000
_cell_angle_gamma   90.00000000
_symmetry_Int_Tables_number   1
_chemical_formula_structural   Hf2N2O
_chemical_formula_sum   'Hf8 N8 O4'
_cell_volume   234.08188282
_cell_formula_units_Z   4
loop_
 _symmetry_equiv_pos_site_id
 _symmetry_equiv_pos_as_xyz
  1  'x, y, z'
loop_
 _atom_site_type_symbol
 _atom_site_label
 _atom_site_symmetry_multiplicity
 _atom_site_fract_x
 _atom_site_fract_y
 _atom_site_fract_z
 _atom_site_occupancy
  Hf  Hf0  1  0.11861200  0.74570600  0.42222200  1
  Hf  Hf1  1  0.13279000  0.23021400  0.09263400  1
  Hf  Hf2  1  0.36721000  0.23021400  0.59263400  1
  Hf  Hf3  1  0.38138800  0.74570600  0.92222200  1
  Hf  Hf4  1  0.63279000  0.76978600  0.40736600  1
  Hf  Hf5  1  0.61861200  0.25429400  0.07777800  1
  Hf  Hf6  1  0.88138800  0.25429400  0.57777800  1
  Hf  Hf7  1  0.86721000  0.76978600  0.90736600  1
  N  N0  1  0.12655200  0.99631400  0.74126100  1
  N  N1  1  0.13265900  0.36823400  0.41261300  1
  N  N2  1  0.37344800  0.99631400  0.24126100  1
  N  N3  1  0.36734100  0.36823400  0.91261300  1
  N  N4  1  0.62655200  0.00368600  0.75873900  1
  N  N5  1  0.63265900  0.63176600  0.08738700  1
  N  N6  1  0.86734100  0.63176600  0.58738700  1
  N  N7  1  0.87344800  0.00368600  0.25873900  1
  O  O0  1  0.11709500  0.65319300  0.08059200  1
  O  O1  1  0.38290500  0.65319300  0.58059200  1
  O  O2  1  0.61709500  0.34680700  0.41940800  1
  O  O3  1  0.88290500  0.34680700  0.91940800  1
loop_
_geom_bond_atom_site_label_1
_geom_bond_atom_site_label_2
_geom_bond_distance
_geom_bond_site_symmetry_2
Hf0 N6 2.072497 1_455
Hf0 O1 2.092356 1_555
Hf0 O0 2.095234 1_555
Hf0 N1 2.204221 1_555
Hf0 N0 2.393748 1_555
Hf0 N7 2.439384 1_465
Hf0 N2 2.501086 1_555
Hf1 N1 2.061271 1_555
Hf1 N3 2.075004 1_554
Hf1 O3 2.092657 1_454
Hf1 N2 2.299365 1_545
Hf1 N7 2.406898 1_455
Hf1 O0 2.469523 1_555
Hf1 N0 2.492745 1_544
Hf2 N3 2.061271 1_555
Hf2 N1 2.075004 1_555
Hf2 O2 2.092657 1_555
Hf2 N0 2.299365 1_545
Hf2 N4 2.406898 1_555
Hf2 O1 2.469523 1_555
Hf2 N2 2.492745 1_545
Hf3 N5 2.072497 1_556
Hf3 O0 2.092356 1_556
Hf3 O1 2.095234 1_555
Hf3 N3 2.204221 1_555
Hf3 N2 2.393748 1_556
Hf3 N4 2.439384 1_565
Hf3 N0 2.501086 1_555
Hf4 N5 2.061271 1_555
Hf4 N6 2.075004 1_555
Hf4 O1 2.092657 1_555
Hf4 N7 2.299365 1_565
Hf4 N2 2.406898 1_555
Hf4 O2 2.469523 1_555
Hf4 N4 2.492745 1_565
Hf5 N3 2.072497 1_554
Hf5 O3 2.092356 1_554
Hf5 O2 2.095234 1_555
Hf5 N5 2.204221 1_555
Hf5 N4 2.393748 1_554
Hf5 N2 2.439384 1_545
Hf5 N7 2.501086 1_555
Hf6 N1 2.072497 1_655
Hf6 O2 2.092356 1_555
Hf6 O3 2.095234 1_555
Hf6 N6 2.204221 1_555
Hf6 N7 2.393748 1_555
Hf6 N0 2.439384 1_645
Hf6 N4 2.501086 1_555
Hf7 N6 2.061271 1_555
Hf7 N5 2.075004 1_556
Hf7 O0 2.092657 1_656
Hf7 N4 2.299365 1_565
Hf7 N0 2.406898 1_655
Hf7 O3 2.469523 1_555
Hf7 N7 2.492745 1_566
