# generated using pymatgen
data_Li24Ti7Cr5O36
_symmetry_space_group_name_H-M   'P 1'
_cell_length_a   5.06155300
_cell_length_b   9.81615878
_cell_length_c   13.43502822
_cell_angle_alpha   80.81990090
_cell_angle_beta   79.22514199
_cell_angle_gamma   85.44132500
_symmetry_Int_Tables_number   1
_chemical_formula_structural   Li24Ti7Cr5O36
_chemical_formula_sum   'Li24 Ti7 Cr5 O36'
_cell_volume   646.50258215
_cell_formula_units_Z   1
loop_
 _symmetry_equiv_pos_site_id
 _symmetry_equiv_pos_as_xyz
  1  'x, y, z'
loop_
 _atom_site_type_symbol
 _atom_site_label
 _atom_site_symmetry_multiplicity
 _atom_site_fract_x
 _atom_site_fract_y
 _atom_site_fract_z
 _atom_site_occupancy
  Li  Li0  1  0.67413800  0.00011700  0.16514900  1
  Li  Li1  1  0.56017800  0.00075100  0.38736000  1
  Li  Li2  1  0.24983200  0.75010700  0.74933500  1
  Li  Li3  1  0.58220300  0.75038300  0.08483400  1
  Li  Li4  1  0.06697300  0.49943900  0.88863700  1
  Li  Li5  1  0.39851700  0.49972400  0.22052900  1
  Li  Li6  1  0.17160600  0.50104300  0.66612000  1
  Li  Li7  1  0.50690900  0.49860800  0.99929400  1
  Li  Li8  1  0.26308700  0.49986300  0.44703900  1
  Li  Li9  1  0.08050500  0.25005300  0.58282100  1
  Li  Li10  1  0.00891500  0.00027400  0.49875200  1
  Li  Li11  1  0.76726000  0.00099300  0.94720100  1
  Li  Li12  1  0.10356900  0.99931300  0.27977100  1
  Li  Li13  1  0.89382600  0.00202300  0.71909200  1
  Li  Li14  1  0.22743200  0.99959500  0.05363300  1
  Li  Li15  1  0.91645300  0.74994000  0.41706800  1
  Li  Li16  1  0.73002700  0.49996900  0.55384700  1
  Li  Li17  1  0.83949300  0.49998800  0.33227600  1
  Li  Li18  1  0.59632000  0.49915500  0.77907200  1
  Li  Li19  1  0.92942400  0.50132900  0.11239500  1
  Li  Li20  1  0.41405800  0.24978600  0.91619300  1
  Li  Li21  1  0.33739000  0.00009300  0.83293600  1
  Li  Li22  1  0.74772900  0.24993100  0.24893200  1
  Li  Li23  1  0.43692900  0.99869700  0.61395900  1
  Ti  Ti0  1  0.47483400  0.74927200  0.30425300  1
  Ti  Ti1  1  0.97409100  0.24963100  0.80651100  1
  Ti  Ti2  1  0.30789800  0.24904000  0.13988300  1
  Ti  Ti3  1  0.69554900  0.74924500  0.86063000  1
  Ti  Ti4  1  0.80623300  0.75035700  0.63791100  1
  Ti  Ti5  1  0.64061700  0.24971600  0.47292100  1
  Ti  Ti6  1  0.13634900  0.75115600  0.97435400  1
  Cr  Cr0  1  0.86034800  0.25068500  0.02695900  1
  Cr  Cr1  1  0.36347000  0.75003200  0.52566300  1
  Cr  Cr2  1  0.19334200  0.25050200  0.36001200  1
  Cr  Cr3  1  0.02985800  0.74945600  0.19625300  1
  Cr  Cr4  1  0.52641800  0.25060700  0.69333800  1
  O  O0  1  0.92536700  0.86155800  0.07364900  1
  O  O1  1  0.71201800  0.63344100  0.21563800  1
  O  O2  1  0.42677200  0.36147900  0.57444900  1
  O  O3  1  0.49495100  0.36198700  0.35634300  1
  O  O4  1  0.61571500  0.36638500  0.11939800  1
  O  O5  1  0.26125100  0.86185000  0.40524700  1
  O  O6  1  0.22210400  0.13571700  0.71436800  1
  O  O7  1  0.33026000  0.13869900  0.47514800  1
  O  O8  1  0.55629000  0.13564300  0.04748700  1
  O  O9  1  0.00022300  0.86357100  0.85739400  1
  O  O10  1  0.12010000  0.86491600  0.61752200  1
  O  O11  1  0.33526000  0.86377700  0.19031900  1
  O  O12  1  0.40823900  0.13559800  0.26115400  1
  O  O13  1  0.83222000  0.63631500  0.97742400  1
  O  O14  1  0.05352300  0.63548200  0.54651700  1
  O  O15  1  0.16093900  0.63802700  0.30905900  1
  O  O16  1  0.90394100  0.63608700  0.76180000  1
  O  O17  1  0.23578700  0.63838100  0.09898300  1
  O  O18  1  0.76086400  0.36182800  0.90788500  1
  O  O19  1  0.09452400  0.36138200  0.24098500  1
  O  O20  1  0.82791900  0.36182200  0.68989400  1
  O  O21  1  0.94870500  0.36666700  0.45233600  1
  O  O22  1  0.16270000  0.36180600  0.02314500  1
  O  O23  1  0.59511100  0.86332900  0.73681900  1
  O  O24  1  0.66342100  0.13847200  0.80899700  1
  O  O25  1  0.88938700  0.13553600  0.38079800  1
  O  O26  1  0.99667200  0.13860100  0.14213300  1
  O  O27  1  0.45209300  0.86578000  0.95190600  1
  O  O28  1  0.66302500  0.86243500  0.52117600  1
  O  O29  1  0.79268800  0.86438400  0.28326800  1
  O  O30  1  0.74084800  0.13631000  0.59454700  1
  O  O31  1  0.38014600  0.63409000  0.88312800  1
  O  O32  1  0.49836000  0.63803000  0.64232800  1
  O  O33  1  0.57055700  0.63693200  0.42960800  1
  O  O34  1  0.28225600  0.36652700  0.78599100  1
  O  O35  1  0.07397700  0.13628400  0.92823100  1
loop_
_geom_bond_atom_site_label_1
_geom_bond_atom_site_label_2
_geom_bond_distance
_geom_bond_site_symmetry_2
Li0 O8 2.044488 1_555
Li0 O29 2.051326 1_545
Li0 O26 2.153732 1_555
Li0 O0 2.156893 1_545
Li0 O11 2.202544 1_545
Li0 O12 2.203949 1_555
Li1 O5 2.072081 1_545
Li1 O7 2.079639 1_555
Li1 O25 2.189333 1_555
Li1 O28 2.192102 1_545
Li1 O12 2.197308 1_555
Li1 O29 2.205475 1_545
Li2 O23 2.111164 1_555
Li2 O32 2.113782 1_555
Li2 O16 2.118467 1_455
Li2 O10 2.125500 1_555
Li2 O9 2.133263 1_555
Li2 O31 2.152625 1_555
Li3 O0 2.093301 1_555
Li3 O11 2.104653 1_555
Li3 O17 2.105808 1_555
Li3 O1 2.122717 1_555
Li3 O13 2.131927 1_554
Li3 O27 2.140543 1_554
Li4 O18 2.088920 1_455
Li4 O13 2.089897 1_455
Li4 O31 2.126771 1_555
Li4 O34 2.139533 1_555
Li4 O22 2.184041 1_556
Li4 O16 2.237073 1_455
Li5 O19 2.083780 1_555
Li5 O15 2.103508 1_555
Li5 O1 2.123610 1_555
Li5 O4 2.132608 1_555
Li5 O17 2.193874 1_555
Li5 O3 2.199230 1_555
Li6 O34 2.047434 1_555
Li6 O14 2.058615 1_555
Li6 O32 2.159720 1_555
Li6 O2 2.173505 1_555
Li6 O16 2.202775 1_455
Li6 O20 2.242031 1_455
Li7 O4 2.035191 1_556
Li7 O31 2.047586 1_555
Li7 O18 2.150517 1_555
Li7 O13 2.161244 1_555
Li7 O22 2.228725 1_556
Li7 O17 2.271409 1_556
Li8 O33 2.093616 1_555
Li8 O3 2.105427 1_555
Li8 O14 2.120556 1_555
Li8 O21 2.122582 1_455
Li8 O15 2.233348 1_555
Li8 O2 2.251933 1_555
Li9 O30 2.091600 1_455
Li9 O2 2.114837 1_555
Li9 O7 2.118164 1_555
Li9 O20 2.121453 1_455
Li9 O21 2.122314 1_455
Li9 O6 2.147007 1_555
Li10 O10 2.041748 1_545
Li10 O25 2.049314 1_455
Li10 O7 2.147881 1_555
Li10 O5 2.173614 1_545
Li10 O30 2.210879 1_455
Li10 O28 2.244075 1_445
Li11 O35 2.076194 1_655
Li11 O9 2.097713 1_645
Li11 O8 2.123334 1_556
Li11 O27 2.140681 1_545
Li11 O0 2.234307 1_546
Li11 O24 2.235545 1_555
Li12 O12 2.075402 1_565
Li12 O11 2.079626 1_555
Li12 O29 2.125157 1_455
Li12 O25 2.145716 1_465
Li12 O5 2.214871 1_555
Li12 O26 2.243076 1_465
Li13 O23 2.070118 1_545
Li13 O24 2.086680 1_555
Li13 O10 2.177568 1_645
Li13 O30 2.180684 1_555
Li13 O6 2.183540 1_655
Li13 O9 2.245357 1_645
Li14 O0 2.074905 1_455
Li14 O26 2.094015 1_465
Li14 O27 2.154219 1_554
Li14 O8 2.197213 1_565
Li14 O35 2.201006 1_564
Li14 O11 2.219348 1_555
Li15 O28 2.101903 1_555
Li15 O5 2.103142 1_655
Li15 O33 2.112568 1_555
Li15 O15 2.113058 1_655
Li15 O14 2.114731 1_655
Li15 O29 2.133232 1_555
Li16 O2 2.081709 1_555
Li16 O32 2.089254 1_555
Li16 O21 2.138237 1_555
Li16 O14 2.168956 1_655
Li16 O33 2.204620 1_555
Li16 O20 2.205951 1_555
Li17 O21 2.040809 1_555
Li17 O1 2.043693 1_555
Li17 O15 2.146245 1_655
Li17 O19 2.164042 1_655
Li17 O33 2.230343 1_555
Li17 O3 2.237359 1_555
Li18 O20 2.089493 1_555
Li18 O16 2.093566 1_555
Li18 O34 2.113216 1_555
Li18 O31 2.166690 1_555
Li18 O32 2.216620 1_555
Li18 O18 2.263157 1_555
Li19 O17 2.096841 1_655
Li19 O22 2.108376 1_655
Li19 O4 2.126853 1_555
Li19 O1 2.143142 1_555
Li19 O13 2.179288 1_554
Li19 O19 2.273805 1_655
Li20 O35 2.091356 1_555
Li20 O24 2.112902 1_555
Li20 O22 2.119129 1_556
Li20 O34 2.119761 1_555
Li20 O18 2.120819 1_555
Li20 O8 2.145023 1_556
Li21 O27 2.045240 1_545
Li21 O6 2.048855 1_555
Li21 O24 2.165703 1_555
Li21 O23 2.194635 1_545
Li21 O35 2.197398 1_555
Li21 O9 2.197660 1_545
Li22 O12 2.093207 1_555
Li22 O26 2.108603 1_555
Li22 O4 2.111980 1_555
Li22 O19 2.118337 1_655
Li22 O3 2.126446 1_555
Li22 O25 2.150791 1_555
Li23 O30 2.080153 1_565
Li23 O28 2.099502 1_555
Li23 O10 2.141146 1_555
Li23 O6 2.146901 1_565
Li23 O23 2.180934 1_555
Li23 O7 2.258069 1_565
Cr0 O18 1.913124 1_554
Cr0 O8 1.933401 1_555
Cr0 O22 1.937179 1_655
Cr0 O26 1.953533 1_555
Cr0 O35 1.983845 1_654
Cr0 O4 2.004240 1_555
Cr1 O28 1.931446 1_555
Cr1 O5 1.935411 1_555
Cr1 O33 1.939856 1_555
Cr1 O14 1.954376 1_555
Cr1 O32 1.965348 1_555
Cr1 O10 1.991750 1_555
Cr2 O19 1.910290 1_555
Cr2 O25 1.932169 1_455
Cr2 O3 1.936698 1_555
Cr2 O7 1.953390 1_555
Cr2 O12 1.990512 1_555
Cr2 O21 2.006149 1_455
Cr3 O15 1.914464 1_555
Cr3 O17 1.935906 1_555
Cr3 O29 1.939405 1_455
Cr3 O11 1.963751 1_555
Cr3 O0 1.964363 1_455
Cr3 O1 1.998199 1_455
Cr4 O2 1.910351 1_555
Cr4 O6 1.932869 1_555
Cr4 O20 1.935236 1_555
Cr4 O24 1.960317 1_555
Cr4 O30 1.985283 1_555
Cr4 O34 2.006197 1_555
O0 Ti6 1.959380 1_654
O1 Ti0 1.957546 1_555
O2 Ti5 1.993096 1_555
O3 Ti5 1.990751 1_555
O4 Ti2 1.963117 1_555
O5 Ti0 1.992748 1_555
O6 Ti1 1.999057 1_455
O7 Ti5 1.974920 1_555
O8 Ti2 1.998885 1_555
O9 Ti3 1.968230 1_455
O9 Ti6 1.972884 1_555
O10 Ti4 1.971397 1_455
O11 Ti0 1.958228 1_555
O12 Ti2 1.947591 1_555
O13 Ti6 1.969624 1_655
O13 Ti3 1.974466 1_555
O14 Ti4 1.997175 1_455
O15 Ti0 1.983895 1_555
O16 Ti3 1.967259 1_555
O16 Ti4 1.974098 1_555
O17 Ti6 1.979268 1_554
O18 Ti1 1.993180 1_555
O19 Ti2 1.991890 1_555
O20 Ti1 1.992054 1_555
O21 Ti5 1.961674 1_555
O22 Ti2 1.993222 1_555
O23 Ti4 1.971894 1_555
O23 Ti3 1.977566 1_555
O24 Ti1 1.976331 1_555
O25 Ti5 2.002281 1_555
O26 Ti2 1.975067 1_655
O27 Ti6 1.976969 1_555
O27 Ti3 1.997339 1_555
O28 Ti4 1.985756 1_555
O29 Ti0 1.990571 1_555
O30 Ti5 1.951027 1_555
O31 Ti3 1.978666 1_555
O31 Ti6 2.000975 1_555
O32 Ti4 1.966040 1_555
O33 Ti0 1.978568 1_555
O34 Ti1 1.961743 1_455
O35 Ti1 1.951143 1_455
