# generated using pymatgen
data_Li3Fe3SbO8
_symmetry_space_group_name_H-M   'P 1'
_cell_length_a   6.10987205
_cell_length_b   6.10987205
_cell_length_c   6.10987219
_cell_angle_alpha   59.81896614
_cell_angle_beta   59.81896614
_cell_angle_gamma   59.81896796
_symmetry_Int_Tables_number   1
_chemical_formula_structural   Li3Fe3SbO8
_chemical_formula_sum   'Li3 Fe3 Sb1 O8'
_cell_volume   160.61759219
_cell_formula_units_Z   1
loop_
 _symmetry_equiv_pos_site_id
 _symmetry_equiv_pos_as_xyz
  1  'x, y, z'
loop_
 _atom_site_type_symbol
 _atom_site_label
 _atom_site_symmetry_multiplicity
 _atom_site_fract_x
 _atom_site_fract_y
 _atom_site_fract_z
 _atom_site_occupancy
  Li  Li0  1  0.50000000  0.00000000  0.00000000  1
  Li  Li1  1  0.00000000  0.00000000  0.50000000  1
  Li  Li2  1  0.00000000  0.50000000  0.00000000  1
  Fe  Fe0  1  0.00000000  0.50000000  0.50000000  1
  Fe  Fe1  1  0.50000000  0.50000000  0.00000000  1
  Fe  Fe2  1  0.50000000  0.00000000  0.50000000  1
  Sb  Sb0  1  0.00000000  0.00000000  0.00000000  1
  O  O0  1  0.25895700  0.25895700  0.25895700  1
  O  O1  1  0.24333200  0.76736100  0.76736100  1
  O  O2  1  0.76736100  0.76736100  0.24333200  1
  O  O3  1  0.74104300  0.74104300  0.74104300  1
  O  O4  1  0.76736100  0.24333200  0.76736100  1
  O  O5  1  0.75666800  0.23263900  0.23263900  1
  O  O6  1  0.23263900  0.23263900  0.75666800  1
  O  O7  1  0.23263900  0.75666800  0.23263900  1
loop_
_geom_bond_atom_site_label_1
_geom_bond_atom_site_label_2
_geom_bond_distance
_geom_bond_site_symmetry_2
Li0 O7 2.209458 1_545
Li0 O4 2.209458 1_554
Li0 O2 2.209458 1_545
Li0 O6 2.209458 1_554
Li0 O0 2.237602 1_555
Li0 O3 2.237602 1_544
Li1 O4 2.209458 1_455
Li1 O1 2.209458 1_545
Li1 O5 2.209458 1_455
Li1 O7 2.209458 1_545
Li1 O0 2.237602 1_555
Li1 O3 2.237602 1_445
Li2 O5 2.209458 1_455
Li2 O1 2.209458 1_554
Li2 O2 2.209458 1_455
Li2 O6 2.209458 1_554
Li2 O3 2.237602 1_454
Li2 O0 2.237602 1_555
Fe0 O0 2.082377 1_555
Fe0 O3 2.082377 1_455
Fe0 O4 2.116362 1_455
Fe0 O7 2.116362 1_555
Fe0 O6 2.116362 1_555
Fe0 O2 2.116362 1_455
Fe1 O0 2.082377 1_555
Fe1 O3 2.082377 1_554
Fe1 O5 2.116362 1_555
Fe1 O1 2.116362 1_554
Fe1 O7 2.116362 1_555
Fe1 O4 2.116362 1_554
Fe2 O0 2.082377 1_555
Fe2 O3 2.082377 1_545
Fe2 O1 2.116362 1_545
Fe2 O5 2.116362 1_555
Fe2 O6 2.116362 1_555
Fe2 O2 2.116362 1_545
O1 Sb0 2.008216 1_566
O2 Sb0 2.008216 1_665
O4 Sb0 2.008216 1_656
O5 Sb0 2.008216 1_655
O6 Sb0 2.008216 1_556
O7 Sb0 2.008216 1_565
