# generated using pymatgen
data_Na4CoO4
_symmetry_space_group_name_H-M   'P 1'
_cell_length_a   10.06936000
_cell_length_b   6.06736425
_cell_length_c   17.84961048
_cell_angle_alpha   90.17019252
_cell_angle_beta   92.44344296
_cell_angle_gamma   90.01650684
_symmetry_Int_Tables_number   1
_chemical_formula_structural   Na4CoO4
_chemical_formula_sum   'Na32 Co8 O32'
_cell_volume   1089.51617625
_cell_formula_units_Z   8
loop_
 _symmetry_equiv_pos_site_id
 _symmetry_equiv_pos_as_xyz
  1  'x, y, z'
loop_
 _atom_site_type_symbol
 _atom_site_label
 _atom_site_symmetry_multiplicity
 _atom_site_fract_x
 _atom_site_fract_y
 _atom_site_fract_z
 _atom_site_occupancy
  Na  Na0  1  0.13837400  0.18328500  0.86139900  1
  Na  Na1  1  0.14830100  0.33343200  0.36075600  1
  Na  Na2  1  0.20359300  0.64106600  0.14013600  1
  Na  Na3  1  0.27148800  0.50803200  0.61049500  1
  Na  Na4  1  0.23950000  0.57368700  0.78207400  1
  Na  Na5  1  0.25154800  0.93770100  0.28731300  1
  Na  Na6  1  0.32898900  0.40245700  0.00442500  1
  Na  Na7  1  0.31422700  0.06190400  0.50276900  1
  Na  Na8  1  0.39063300  0.34257800  0.23533900  1
  Na  Na9  1  0.36789800  0.11488800  0.73704100  1
  Na  Na10  1  0.35295600  0.86131000  0.91844400  1
  Na  Na11  1  0.37248700  0.62210700  0.41384700  1
  Na  Na12  1  0.54780100  0.06779400  0.05638900  1
  Na  Na13  1  0.56264300  0.42271300  0.55659100  1
  Na  Na14  1  0.59482700  0.86936600  0.25599900  1
  Na  Na15  1  0.58967600  0.61866700  0.75460200  1
  Na  Na16  1  0.65183100  0.59183900  0.00371300  1
  Na  Na17  1  0.66928700  0.91049700  0.50684500  1
  Na  Na18  1  0.68334900  0.09848800  0.68487600  1
  Na  Na19  1  0.68765100  0.39052600  0.17905800  1
  Na  Na20  1  0.69898000  0.55560100  0.37408400  1
  Na  Na21  1  0.68857200  0.94076100  0.87414800  1
  Na  Na22  1  0.80550400  0.08909500  0.36707600  1
  Na  Na23  1  0.79790900  0.41010900  0.86509300  1
  Na  Na24  1  0.84145500  0.58975600  0.67369000  1
  Na  Na25  1  0.84794500  0.91804000  0.17482600  1
  Na  Na26  1  0.91527400  0.40846500  0.50396100  1
  Na  Na27  1  0.90475100  0.08704500  0.00639900  1
  Na  Na28  1  0.97454000  0.00818100  0.74042700  1
  Na  Na29  1  0.95535200  0.45399200  0.24584700  1
  Na  Na30  1  0.97535200  0.58806300  0.04797600  1
  Na  Na31  1  0.01330200  0.89794600  0.54660800  1
  Co  Co0  1  0.07003200  0.18491900  0.13481400  1
  Co  Co1  1  0.05230400  0.31240500  0.63652100  1
  Co  Co2  1  0.47642300  0.66900800  0.12482600  1
  Co  Co3  1  0.47206000  0.83163400  0.62136800  1
  Co  Co4  1  0.53268800  0.15150800  0.37867500  1
  Co  Co5  1  0.52349300  0.33915900  0.87757400  1
  Co  Co6  1  0.95937000  0.69601600  0.37509900  1
  Co  Co7  1  0.94894100  0.81005600  0.87401300  1
  O  O0  1  0.04448100  0.89563000  0.11684700  1
  O  O1  1  0.04042700  0.60468000  0.62111800  1
  O  O2  1  0.15425400  0.26562700  0.22320000  1
  O  O3  1  0.14992800  0.25726400  0.72249900  1
  O  O4  1  0.12883000  0.21410800  0.55302100  1
  O  O5  1  0.13553600  0.33203400  0.05834100  1
  O  O6  1  0.13609000  0.73743100  0.37385900  1
  O  O7  1  0.12514100  0.77256000  0.86732600  1
  O  O8  1  0.36039600  0.23444800  0.37990500  1
  O  O9  1  0.35385300  0.24515900  0.88073500  1
  O  O10  1  0.39743900  0.77100600  0.04094400  1
  O  O11  1  0.40158500  0.70762900  0.53705200  1
  O  O12  1  0.38761200  0.73647000  0.70211600  1
  O  O13  1  0.39110400  0.73229400  0.21010100  1
  O  O14  1  0.48337600  0.37402500  0.11522000  1
  O  O15  1  0.47055800  0.12757200  0.61484300  1
  O  O16  1  0.54935100  0.85569300  0.38329400  1
  O  O17  1  0.53563100  0.63691800  0.88138700  1
  O  O18  1  0.60781500  0.24440200  0.29227600  1
  O  O19  1  0.59976100  0.24513900  0.79237500  1
  O  O20  1  0.63062500  0.23232600  0.95376700  1
  O  O21  1  0.64060900  0.26569700  0.45310500  1
  O  O22  1  0.64784600  0.77268700  0.13140800  1
  O  O23  1  0.64490900  0.73532800  0.62969600  1
  O  O24  1  0.88264700  0.20653000  0.63845600  1
  O  O25  1  0.89323100  0.28933300  0.13520500  1
  O  O26  1  0.86887300  0.79311300  0.45430700  1
  O  O27  1  0.85542200  0.71195000  0.95220900  1
  O  O28  1  0.84571700  0.72366300  0.79193800  1
  O  O29  1  0.85709800  0.78077600  0.29285900  1
  O  O30  1  0.93204100  0.39734100  0.37434200  1
  O  O31  1  0.92504200  0.10707600  0.87523000  1
loop_
_geom_bond_atom_site_label_1
_geom_bond_atom_site_label_2
_geom_bond_distance
_geom_bond_site_symmetry_2
Na0 O9 2.214208 1_555
Na0 O31 2.221369 1_455
Na0 O7 2.498335 1_545
Na0 O3 2.528471 1_555
Na1 O8 2.231206 1_555
Na1 O30 2.235187 1_455
Na1 O6 2.465252 1_555
Na1 O2 2.491587 1_555
Na2 O0 2.252497 1_555
Na2 O13 2.285873 1_555
Na2 O5 2.452467 1_555
Na2 O2 2.777817 1_555
Na2 O10 2.805064 1_555
Na3 O11 2.248589 1_555
Na3 O12 2.405280 1_555
Na3 O1 2.414704 1_555
Na3 O4 2.481577 1_555
Na3 O3 2.834746 1_555
Na4 O7 2.288425 1_555
Na4 O12 2.329315 1_555
Na4 O3 2.352704 1_555
Na4 O9 2.872231 1_555
Na5 O6 2.319057 1_555
Na5 O13 2.362900 1_555
Na5 O2 2.479349 1_565
Na5 O8 2.645984 1_565
Na6 O5 2.250568 1_555
Na6 O10 2.419163 1_555
Na6 O9 2.425437 1_554
Na6 O14 2.469332 1_555
Na7 O4 2.298104 1_555
Na7 O11 2.394088 1_545
Na7 O8 2.494387 1_555
Na7 O15 2.522897 1_555
Na8 O14 2.382987 1_555
Na8 O13 2.408435 1_555
Na8 O2 2.425902 1_555
Na8 O18 2.446425 1_555
Na8 O8 2.694208 1_555
Na9 O3 2.363193 1_555
Na9 O12 2.387877 1_545
Na9 O15 2.454645 1_555
Na9 O19 2.616989 1_555
Na9 O9 2.691153 1_555
Na10 O10 2.281600 1_556
Na10 O17 2.403002 1_555
Na10 O9 2.426308 1_565
Na10 O7 2.490504 1_555
Na11 O11 2.264862 1_555
Na11 O16 2.358728 1_555
Na11 O8 2.428824 1_555
Na11 O6 2.554264 1_555
Na12 O14 2.241200 1_555
Na12 O20 2.277736 1_554
Na12 O10 2.360261 1_545
Na12 O22 2.431901 1_545
Na13 O21 2.247140 1_555
Na13 O15 2.289087 1_555
Na13 O11 2.386849 1_555
Na13 O23 2.424629 1_555
Na14 O13 2.328649 1_555
Na14 O16 2.338615 1_555
Na14 O18 2.366023 1_565
Na14 O22 2.380861 1_555
Na14 O29 2.747893 1_555
Na15 O12 2.317472 1_555
Na15 O17 2.352323 1_555
Na15 O19 2.367389 1_555
Na15 O23 2.428164 1_555
Na15 O28 2.710526 1_555
Na16 O20 2.360169 1_554
Na16 O27 2.396391 1_554
Na16 O17 2.448936 1_554
Na16 O22 2.528599 1_555
Na16 O10 2.885730 1_555
Na17 O26 2.362868 1_555
Na17 O21 2.374262 1_565
Na17 O23 2.461296 1_555
Na17 O16 2.490158 1_555
Na18 O24 2.299516 1_555
Na18 O19 2.304341 1_555
Na18 O23 2.434978 1_545
Na18 O15 2.440895 1_555
Na19 O14 2.310566 1_555
Na19 O25 2.326126 1_555
Na19 O18 2.380141 1_555
Na19 O22 2.498731 1_555
Na20 O21 2.348127 1_555
Na20 O16 2.373434 1_555
Na20 O18 2.531490 1_555
Na20 O30 2.535705 1_555
Na20 O29 2.590530 1_555
Na20 O26 2.613648 1_555
Na21 O20 2.354998 1_565
Na21 O17 2.409084 1_555
Na21 O19 2.499287 1_565
Na21 O27 2.550420 1_555
Na21 O28 2.565130 1_555
Na21 O31 2.585124 1_565
Na22 O30 2.262999 1_555
Na22 O29 2.359836 1_545
Na22 O26 2.447262 1_545
Na22 O18 2.532785 1_555
Na22 O21 2.543951 1_555
Na23 O31 2.244013 1_555
Na23 O28 2.371488 1_555
Na23 O27 2.452142 1_555
Na23 O19 2.537295 1_555
Na23 O20 2.596643 1_555
Na24 O1 2.250240 1_655
Na24 O28 2.258092 1_555
Na24 O23 2.277320 1_555
Na24 O24 2.447061 1_555
Na25 O29 2.266010 1_555
Na25 O0 2.275933 1_655
Na25 O22 2.302140 1_555
Na25 O25 2.412351 1_565
Na26 O30 2.327749 1_555
Na26 O26 2.535363 1_555
Na26 O4 2.574603 1_655
Na26 O1 2.671745 1_655
Na26 O24 2.730724 1_555
Na26 O21 3.000559 1_555
Na27 O31 2.362359 1_554
Na27 O27 2.511389 1_544
Na27 O25 2.609970 1_555
Na27 O0 2.644447 1_645
Na27 O5 2.876720 1_655
Na27 O20 3.010631 1_554
Na28 O24 2.342533 1_555
Na28 O3 2.356863 1_655
Na28 O28 2.370208 1_545
Na28 O31 2.547943 1_555
Na29 O25 2.274258 1_555
Na29 O30 2.341862 1_555
Na29 O2 2.355517 1_655
Na29 O29 2.382476 1_555
Na30 O27 2.185760 1_554
Na30 O5 2.242022 1_655
Na30 O0 2.321816 1_655
Na30 O25 2.553211 1_555
Na31 O1 2.234478 1_555
Na31 O26 2.241183 1_455
Na31 O4 2.243250 1_565
Na31 O24 2.844504 1_465
Co0 O5 1.782895 1_555
Co0 O0 1.799780 1_545
Co0 O2 1.824578 1_555
Co0 O25 1.890092 1_455
Co1 O1 1.798566 1_555
Co1 O4 1.806600 1_555
Co1 O3 1.818811 1_555
Co1 O24 1.826690 1_455
Co2 O10 1.778078 1_555
Co2 O14 1.799124 1_555
Co2 O13 1.819503 1_555
Co2 O22 1.835933 1_555
Co3 O11 1.799060 1_555
Co3 O15 1.799708 1_565
Co3 O12 1.800841 1_555
Co3 O23 1.836257 1_555
Co4 O16 1.804492 1_545
Co4 O8 1.807534 1_555
Co4 O21 1.815750 1_555
Co4 O18 1.836483 1_555
Co5 O9 1.803924 1_555
Co5 O17 1.811588 1_555
Co5 O20 1.820452 1_555
Co5 O19 1.822804 1_555
Co6 O6 1.798119 1_655
Co6 O26 1.811511 1_555
Co6 O29 1.831874 1_555
Co6 O30 1.832790 1_555
Co7 O7 1.797775 1_655
Co7 O27 1.818220 1_555
Co7 O31 1.818382 1_565
Co7 O28 1.834842 1_555
