# generated using pymatgen
data_Li32Ti11Cr5O48
_symmetry_space_group_name_H-M   'P 1'
_cell_length_a   5.07979460
_cell_length_b   5.07979537
_cell_length_c   38.67694755
_cell_angle_alpha   88.85672302
_cell_angle_beta   91.14327740
_cell_angle_gamma   60.06032259
_symmetry_Int_Tables_number   1
_chemical_formula_structural   Li32Ti11Cr5O48
_chemical_formula_sum   'Li32 Ti11 Cr5 O48'
_cell_volume   864.15853090
_cell_formula_units_Z   1
loop_
 _symmetry_equiv_pos_site_id
 _symmetry_equiv_pos_as_xyz
  1  'x, y, z'
loop_
 _atom_site_type_symbol
 _atom_site_label
 _atom_site_symmetry_multiplicity
 _atom_site_fract_x
 _atom_site_fract_y
 _atom_site_fract_z
 _atom_site_occupancy
  Li  Li0  1  0.09125820  0.08919920  0.24982119  1
  Li  Li1  1  0.99715621  0.49967736  0.00004251  1
  Li  Li2  1  0.06124630  0.43788730  0.18747994  1
  Li  Li3  1  0.12241316  0.37318312  0.37513407  1
  Li  Li4  1  0.18584175  0.31587829  0.56249809  1
  Li  Li5  1  0.25177684  0.25074923  0.75013116  1
  Li  Li6  1  0.31239806  0.18756443  0.93741705  1
  Li  Li7  1  0.03459135  0.78748936  0.12502836  1
  Li  Li8  1  0.37030692  0.12289173  0.12508238  1
  Li  Li9  1  0.16248936  0.65959135  0.49997164  1
  Li  Li10  1  0.28727965  0.53215819  0.87484119  1
  Li  Li11  1  0.43751237  0.06251237  0.31250000  1
  Li  Li12  1  0.49789173  0.99530692  0.49991762  1
  Li  Li13  1  0.40994184  0.41236711  0.24984219  1
  Li  Li14  1  0.53148390  0.29110770  0.62479368  1
  Li  Li15  1  0.21789943  0.96079345  0.62507430  1
  Li  Li16  1  0.33579345  0.84289943  0.99992570  1
  Li  Li17  1  0.66610770  0.15648390  0.00020632  1
  Li  Li18  1  0.78736711  0.03494184  0.37515781  1
  Li  Li19  1  0.46419920  0.71625820  0.37517881  1
  Li  Li20  1  0.59149270  0.58743993  0.75012243  1
  Li  Li21  1  0.56256443  0.93739806  0.68758295  1
  Li  Li22  1  0.72002939  0.46473146  0.12514234  1
  Li  Li23  1  0.83973146  0.34502939  0.49985766  1
  Li  Li24  1  0.62574923  0.87677684  0.87486884  1
  Li  Li25  1  0.96243993  0.21649270  0.87487757  1
  Li  Li26  1  0.69087829  0.81084175  0.06250191  1
  Li  Li27  1  0.74818312  0.74741316  0.24986593  1
  Li  Li28  1  0.81288730  0.68624630  0.43752006  1
  Li  Li29  1  0.87467736  0.62215621  0.62495749  1
  Li  Li30  1  0.93640768  0.56140768  0.81250000  1
  Li  Li31  1  0.90715819  0.91227965  0.75015881  1
  Ti  Ti0  1  0.10481241  0.72981241  0.31250000  1
  Ti  Ti1  1  0.22974422  0.60493596  0.68768250  1
  Ti  Ti2  1  0.35007019  0.48250758  0.06234826  1
  Ti  Ti3  1  0.48034351  0.35672650  0.43752438  1
  Ti  Ti4  1  0.27180798  0.89680798  0.81250000  1
  Ti  Ti5  1  0.73172650  0.10534351  0.18747562  1
  Ti  Ti6  1  0.64439969  0.52007105  0.93733642  1
  Ti  Ti7  1  0.76978677  0.39478677  0.31250000  1
  Ti  Ti8  1  0.89507105  0.26939969  0.68766358  1
  Ti  Ti9  1  0.85750758  0.97507019  0.56265174  1
  Ti  Ti10  1  0.97993596  0.85474422  0.93731750  1
  Cr  Cr0  1  0.02281777  0.14415521  0.06257505  1
  Cr  Cr1  1  0.14450558  0.01997639  0.43757729  1
  Cr  Cr2  1  0.60516506  0.23016506  0.81250000  1
  Cr  Cr3  1  0.39497639  0.76950558  0.18742271  1
  Cr  Cr4  1  0.51915521  0.64781777  0.56242495  1
  O  O0  1  0.09153941  0.05323464  0.34091562  1
  O  O1  1  0.05490257  0.09006148  0.15917962  1
  O  O2  1  0.07240568  0.42762671  0.28355065  1
  O  O3  1  0.19740567  0.30224606  0.65870867  1
  O  O4  1  0.05499292  0.45048708  0.09171719  1
  O  O5  1  0.17767379  0.31923559  0.46621435  1
  O  O6  1  0.30461153  0.19783100  0.84131899  1
  O  O7  1  0.31469886  0.17541023  0.03390269  1
  O  O8  1  0.44231545  0.05138591  0.40903528  1
  O  O9  1  0.07734853  0.78190715  0.21572989  1
  O  O10  1  0.42638591  0.06731545  0.21596472  1
  O  O11  1  0.19199852  0.66031107  0.59121335  1
  O  O12  1  0.32198413  0.53323570  0.96583684  1
  O  O13  1  0.03531107  0.81699852  0.03378665  1
  O  O14  1  0.15690715  0.70234853  0.40927011  1
  O  O15  1  0.28943090  0.56405733  0.78449057  1
  O  O16  1  0.21636444  0.92772743  0.71616993  1
  O  O17  1  0.18955163  0.95874627  0.53449926  1
  O  O18  1  0.30272743  0.84136444  0.90883007  1
  O  O19  1  0.44680194  0.40841116  0.34103085  1
  O  O20  1  0.57164273  0.28319694  0.71603433  1
  O  O21  1  0.40752157  0.45492324  0.15920368  1
  O  O22  1  0.53424862  0.32781039  0.53452367  1
  O  O23  1  0.65819694  0.19664273  0.90896567  1
  O  O24  1  0.33374627  0.81455163  0.09050074  1
  O  O25  1  0.46506148  0.67990257  0.46582038  1
  O  O26  1  0.58999518  0.55203965  0.84073203  1
  O  O27  1  0.42823464  0.71653941  0.28408438  1
  O  O28  1  0.55327477  0.59178250  0.65926226  1
  O  O29  1  0.70281039  0.15924862  0.09047633  1
  O  O30  1  0.82992324  0.03252157  0.46579632  1
  O  O31  1  0.78341116  0.07180193  0.28396915  1
  O  O32  1  0.71474591  0.42905238  0.21583177  1
  O  O33  1  0.83581915  0.30907854  0.59045637  1
  O  O34  1  0.96678250  0.17827477  0.96573774  1
  O  O35  1  0.68407854  0.46081915  0.03454363  1
  O  O36  1  0.80405238  0.33974591  0.40916823  1
  O  O37  1  0.57283100  0.92961153  0.78368101  1
  O  O38  1  0.92703965  0.21499518  0.78426797  1
  O  O39  1  0.55041023  0.93969886  0.59109731  1
  O  O40  1  0.67724606  0.82240567  0.96629133  1
  O  O41  1  0.69423559  0.80267379  0.15878565  1
  O  O42  1  0.82548708  0.67999292  0.53328281  1
  O  O43  1  0.94712590  0.55282324  0.90840576  1
  O  O44  1  0.80262671  0.69740568  0.34144935  1
  O  O45  1  0.92782324  0.57212590  0.71659424  1
  O  O46  1  0.93905733  0.91443090  0.84050943  1
  O  O47  1  0.90823570  0.94698413  0.65916316  1
loop_
_geom_bond_atom_site_label_1
_geom_bond_atom_site_label_2
_geom_bond_distance
_geom_bond_site_symmetry_2
Li0 O9 2.090151 1_545
Li0 O31 2.100795 1_455
Li0 O10 2.128619 1_555
Li0 O2 2.143974 1_555
Li0 O27 2.201073 1_545
Li0 O32 2.209046 1_455
Li1 O40 2.050172 1_554
Li1 O7 2.051278 1_655
Li1 O13 2.173688 1_655
Li1 O35 2.176324 1_555
Li1 O34 2.186210 1_554
Li1 O12 2.204743 1_654
Li2 O1 2.110356 1_555
Li2 O32 2.111043 1_455
Li2 O9 2.114180 1_555
Li2 O21 2.126635 1_555
Li2 O41 2.127949 1_455
Li2 O10 2.132645 1_555
Li3 O44 2.051365 1_455
Li3 O8 2.051829 1_555
Li3 O36 2.174206 1_455
Li3 O0 2.179370 1_555
Li3 O19 2.204269 1_555
Li3 O14 2.222847 1_555
Li4 O11 2.103924 1_555
Li4 O33 2.113875 1_455
Li4 O22 2.118376 1_555
Li4 O42 2.122074 1_455
Li4 O17 2.123511 1_545
Li4 O39 2.146218 1_545
Li5 O37 2.044555 1_545
Li5 O45 2.050461 1_455
Li5 O15 2.171113 1_555
Li5 O20 2.179590 1_555
Li5 O16 2.195770 1_545
Li5 O38 2.207663 1_455
Li6 O34 2.107543 1_455
Li6 O12 2.110486 1_555
Li6 O23 2.110593 1_555
Li6 O18 2.116439 1_545
Li6 O40 2.127447 1_545
Li6 O43 2.131182 1_455
Li7 O1 2.086046 1_565
Li7 O24 2.096129 1_555
Li7 O4 2.125444 1_555
Li7 O41 2.158894 1_455
Li7 O21 2.192339 1_555
Li7 O29 2.196614 1_465
Li8 O4 2.042386 1_555
Li8 O41 2.052040 1_545
Li8 O24 2.154250 1_545
Li8 O1 2.162463 1_555
Li8 O21 2.240379 1_555
Li8 O29 2.251707 1_555
Li9 O25 2.086046 1_555
Li9 O17 2.096129 1_555
Li9 O42 2.125443 1_455
Li9 O5 2.158894 1_555
Li9 O30 2.192339 1_465
Li9 O22 2.196614 1_555
Li10 O26 2.084674 1_555
Li10 O18 2.098266 1_555
Li10 O6 2.125135 1_555
Li10 O43 2.143794 1_455
Li10 O23 2.191451 1_555
Li10 O46 2.244483 1_455
Li11 O0 2.111038 1_555
Li11 O27 2.111038 1_545
Li11 O31 2.113138 1_555
Li11 O19 2.113138 1_555
Li11 O44 2.129335 1_545
Li11 O2 2.129335 1_555
Li12 O42 2.042386 1_555
Li12 O5 2.052040 1_565
Li12 O17 2.154250 1_555
Li12 O25 2.162464 1_555
Li12 O30 2.240379 1_565
Li12 O22 2.251708 1_565
Li13 O32 2.083914 1_555
Li13 O27 2.090485 1_555
Li13 O2 2.146211 1_555
Li13 O10 2.178520 1_555
Li13 O9 2.182992 1_555
Li13 O31 2.206162 1_555
Li14 O28 2.089614 1_555
Li14 O33 2.092855 1_555
Li14 O3 2.144704 1_555
Li14 O11 2.182485 1_555
Li14 O39 2.195637 1_545
Li14 O47 2.225284 1_545
Li15 O11 2.082231 1_555
Li15 O47 2.099255 1_455
Li15 O39 2.122488 1_555
Li15 O3 2.151009 1_565
Li15 O28 2.188178 1_555
Li15 O33 2.250346 1_465
Li16 O13 2.082230 1_556
Li16 O12 2.099255 1_555
Li16 O7 2.122488 1_566
Li16 O40 2.151009 1_555
Li16 O34 2.188178 1_465
Li16 O35 2.250346 1_556
Li17 O34 2.089614 1_554
Li17 O35 2.092855 1_555
Li17 O40 2.144704 1_544
Li17 O13 2.182485 1_645
Li17 O7 2.195637 1_555
Li17 O12 2.225284 1_554
Li18 O36 2.083914 1_555
Li18 O0 2.090485 1_655
Li18 O44 2.146211 1_545
Li18 O8 2.178520 1_555
Li18 O14 2.182992 1_645
Li18 O19 2.206162 1_555
Li19 O14 2.090151 1_555
Li19 O19 2.100795 1_555
Li19 O8 2.128619 1_565
Li19 O44 2.143974 1_555
Li19 O0 2.201073 1_565
Li19 O36 2.209046 1_555
Li20 O20 2.090099 1_555
Li20 O15 2.095820 1_555
Li20 O45 2.136906 1_555
Li20 O37 2.155299 1_555
Li20 O38 2.195545 1_555
Li20 O16 2.205740 1_555
Li21 O28 2.107544 1_555
Li21 O47 2.110486 1_555
Li21 O20 2.110593 1_565
Li21 O16 2.116439 1_555
Li21 O3 2.127447 1_565
Li21 O45 2.131182 1_555
Li22 O21 2.101870 1_555
Li22 O29 2.104095 1_555
Li22 O41 2.128085 1_555
Li22 O4 2.130821 1_655
Li22 O1 2.197288 1_655
Li22 O24 2.263365 1_555
Li23 O30 2.101871 1_555
Li23 O22 2.104095 1_555
Li23 O5 2.128085 1_655
Li23 O42 2.130821 1_555
Li23 O25 2.197288 1_555
Li23 O17 2.263365 1_645
Li24 O6 2.044555 1_565
Li24 O43 2.050461 1_555
Li24 O46 2.171113 1_555
Li24 O23 2.179590 1_565
Li24 O18 2.195770 1_555
Li24 O26 2.207663 1_555
Li25 O23 2.090099 1_555
Li25 O46 2.095820 1_545
Li25 O43 2.136907 1_555
Li25 O6 2.155299 1_655
Li25 O26 2.195545 1_555
Li25 O18 2.205740 1_645
Li26 O13 2.103924 1_655
Li26 O35 2.113875 1_555
Li26 O29 2.118376 1_565
Li26 O4 2.122074 1_655
Li26 O24 2.123511 1_555
Li26 O7 2.146218 1_565
Li27 O2 2.051365 1_655
Li27 O10 2.051829 1_565
Li27 O32 2.174206 1_555
Li27 O27 2.179369 1_555
Li27 O31 2.204269 1_565
Li27 O9 2.222847 1_655
Li28 O25 2.110356 1_555
Li28 O36 2.111043 1_555
Li28 O14 2.114180 1_655
Li28 O30 2.126636 1_565
Li28 O5 2.127949 1_655
Li28 O8 2.132645 1_565
Li29 O3 2.050172 1_655
Li29 O39 2.051278 1_555
Li29 O11 2.173688 1_655
Li29 O33 2.176325 1_555
Li29 O28 2.186209 1_555
Li29 O47 2.204743 1_555
Li30 O26 2.109342 1_555
Li30 O38 2.109342 1_555
Li30 O15 2.119120 1_655
Li30 O46 2.119120 1_555
Li30 O6 2.130339 1_655
Li30 O37 2.130339 1_555
Li31 O38 2.084674 1_565
Li31 O16 2.098265 1_655
Li31 O37 2.125135 1_555
Li31 O45 2.143794 1_555
Li31 O20 2.191451 1_565
Li31 O15 2.244482 1_655
Cr0 O24 1.919548 1_545
Cr0 O7 1.935704 1_555
Cr0 O29 1.939534 1_455
Cr0 O35 1.953701 1_455
Cr0 O13 1.994255 1_545
Cr0 O4 2.008756 1_555
Cr1 O30 1.928638 1_455
Cr1 O14 1.943644 1_545
Cr1 O8 1.957867 1_555
Cr1 O25 1.968481 1_545
Cr1 O5 1.970150 1_555
Cr1 O36 1.971204 1_455
Cr2 O46 1.940287 1_545
Cr2 O15 1.940287 1_555
Cr2 O38 1.954608 1_555
Cr2 O26 1.954608 1_555
Cr2 O6 1.977691 1_555
Cr2 O37 1.977691 1_545
Cr3 O21 1.928638 1_555
Cr3 O9 1.943643 1_555
Cr3 O10 1.957867 1_565
Cr3 O1 1.968481 1_565
Cr3 O41 1.970150 1_555
Cr3 O32 1.971204 1_555
Cr4 O17 1.919548 1_555
Cr4 O39 1.935704 1_555
Cr4 O22 1.939535 1_555
Cr4 O33 1.953701 1_555
Cr4 O11 1.994255 1_555
Cr4 O42 2.008756 1_555
O0 Ti0 1.968765 1_545
O0 Ti7 1.977664 1_455
O1 Ti5 1.961299 1_455
O2 Ti0 1.987608 1_555
O2 Ti7 1.990431 1_455
O3 Ti8 1.989378 1_455
O3 Ti1 1.990109 1_555
O4 Ti2 1.966587 1_555
O5 Ti3 1.995846 1_555
O6 Ti4 1.980750 1_545
O7 Ti2 2.004160 1_555
O8 Ti3 2.004005 1_555
O9 Ti5 1.987089 1_465
O10 Ti5 2.004005 1_555
O11 Ti9 1.951079 1_455
O12 Ti6 1.966627 1_555
O12 Ti10 1.980437 1_455
O13 Ti2 1.951079 1_555
O14 Ti3 1.987089 1_555
O15 Ti4 1.991137 1_555
O16 Ti1 1.967512 1_555
O16 Ti8 1.978895 1_465
O17 Ti9 1.993681 1_455
O18 Ti10 1.967512 1_455
O18 Ti6 1.978895 1_555
O19 Ti7 1.968834 1_555
O19 Ti0 1.980329 1_555
O20 Ti8 1.966804 1_555
O20 Ti1 1.977151 1_555
O21 Ti5 1.998206 1_555
O22 Ti9 2.001158 1_545
O23 Ti6 1.966805 1_555
O23 Ti10 1.977151 1_545
O24 Ti2 1.993682 1_555
O25 Ti3 1.961299 1_555
O26 Ti4 1.974770 1_555
O27 Ti0 1.968764 1_555
O27 Ti7 1.977664 1_555
O28 Ti1 1.969549 1_555
O28 Ti8 1.979148 1_555
O29 Ti2 2.001158 1_555
O30 Ti3 1.998206 1_555
O31 Ti7 1.968835 1_555
O31 Ti0 1.980329 1_645
O32 Ti5 1.961730 1_555
O33 Ti9 1.984526 1_545
O34 Ti10 1.969549 1_545
O34 Ti6 1.979148 1_555
O35 Ti2 1.984525 1_555
O36 Ti3 1.961730 1_555
O37 Ti4 1.980750 1_555
O38 Ti4 1.974770 1_645
O39 Ti9 2.004160 1_555
O40 Ti6 1.989378 1_555
O40 Ti10 1.990109 1_555
O41 Ti5 1.995847 1_565
O42 Ti9 1.966587 1_555
O43 Ti10 1.986597 1_555
O43 Ti6 1.990260 1_555
O44 Ti0 1.987608 1_655
O44 Ti7 1.990431 1_555
O45 Ti1 1.986597 1_655
O45 Ti8 1.990260 1_555
O46 Ti4 1.991137 1_655
O47 Ti8 1.966627 1_565
O47 Ti1 1.980437 1_655
