# generated using pymatgen
data_Li6V2O5F2
_symmetry_space_group_name_H-M   'P 1'
_cell_length_a   5.95996500
_cell_length_b   5.20524600
_cell_length_c   10.11934469
_cell_angle_alpha   70.30715719
_cell_angle_beta   90.00000000
_cell_angle_gamma   90.00000000
_symmetry_Int_Tables_number   1
_chemical_formula_structural   Li6V2O5F2
_chemical_formula_sum   'Li12 V4 O10 F4'
_cell_volume   295.57215338
_cell_formula_units_Z   2
loop_
 _symmetry_equiv_pos_site_id
 _symmetry_equiv_pos_as_xyz
  1  'x, y, z'
loop_
 _atom_site_type_symbol
 _atom_site_label
 _atom_site_symmetry_multiplicity
 _atom_site_fract_x
 _atom_site_fract_y
 _atom_site_fract_z
 _atom_site_occupancy
  Li  Li0  1  0.03672300  0.19963100  0.13513100  1
  Li  Li1  1  0.48671700  0.23615200  0.14768000  1
  Li  Li2  1  0.76118300  0.82527800  0.13071900  1
  Li  Li3  1  0.97744100  0.79179600  0.36847700  1
  Li  Li4  1  0.53600300  0.76875400  0.34746200  1
  Li  Li5  1  0.23564300  0.16640600  0.37120300  1
  Li  Li6  1  0.23881700  0.82527800  0.63071900  1
  Li  Li7  1  0.96327700  0.19963100  0.63513100  1
  Li  Li8  1  0.51328300  0.23615200  0.64768000  1
  Li  Li9  1  0.76435700  0.16640600  0.87120300  1
  Li  Li10  1  0.02255900  0.79179600  0.86847700  1
  Li  Li11  1  0.46399700  0.76875400  0.84746200  1
  V  V0  1  0.26736900  0.73446200  0.12885900  1
  V  V1  1  0.75202400  0.26715300  0.37058300  1
  V  V2  1  0.73263100  0.73446200  0.62885900  1
  V  V3  1  0.24797600  0.26715300  0.87058300  1
  O  O0  1  0.25434400  0.49981500  0.99980900  1
  O  O1  1  0.02760400  0.99171400  0.00378600  1
  O  O2  1  0.26014800  0.94849100  0.25425600  1
  O  O3  1  0.76063900  0.05057300  0.24668000  1
  O  O4  1  0.53452500  0.52330600  0.23393700  1
  O  O5  1  0.97239600  0.99171400  0.50378600  1
  O  O6  1  0.74565600  0.49981500  0.49980900  1
  O  O7  1  0.46547500  0.52330600  0.73393700  1
  O  O8  1  0.73985200  0.94849100  0.75425600  1
  O  O9  1  0.23936100  0.05057300  0.74668000  1
  F  F0  1  0.03494000  0.47857600  0.26565500  1
  F  F1  1  0.49053600  0.01789100  0.49576100  1
  F  F2  1  0.96506000  0.47857600  0.76565500  1
  F  F3  1  0.50946400  0.01789100  0.99576100  1
loop_
_geom_bond_atom_site_label_1
_geom_bond_atom_site_label_2
_geom_bond_distance
_geom_bond_site_symmetry_2
Li0 O2 1.968036 1_545
Li0 O1 1.977440 1_545
Li0 O3 1.998359 1_455
Li0 O0 2.134683 1_554
Li1 O3 1.987415 1_555
Li1 O4 1.989101 1_555
Li1 O2 2.034760 1_545
Li1 O0 2.157923 1_554
Li2 O3 1.918255 1_565
Li2 O1 2.042488 1_655
Li2 O4 2.068822 1_555
Li3 O3 1.970835 1_565
Li3 O5 1.979622 1_555
Li3 O2 2.050569 1_655
Li3 O6 2.150158 1_555
Li4 O2 1.968046 1_555
Li4 O4 1.985271 1_555
Li4 O3 1.994033 1_565
Li4 O6 2.107892 1_555
Li5 O2 1.900832 1_545
Li5 O5 2.065491 1_445
Li6 O9 1.918255 1_565
Li6 O5 2.042488 1_455
Li6 O7 2.068822 1_555
Li7 O8 1.968036 1_545
Li7 O5 1.977440 1_545
Li7 O9 1.998359 1_655
Li7 O6 2.134683 1_555
Li8 O9 1.987415 1_555
Li8 O7 1.989101 1_555
Li8 O8 2.034760 1_545
Li8 O6 2.157923 1_555
Li9 O8 1.900832 1_545
Li9 O1 2.065491 1_646
Li10 O9 1.970835 1_565
Li10 O1 1.979622 1_556
Li10 O8 2.050569 1_455
Li10 O0 2.150158 1_555
Li11 O8 1.968046 1_555
Li11 O7 1.985271 1_555
Li11 O9 1.994033 1_565
Li11 O0 2.107892 1_555
O0 V3 2.060456 1_555
O0 V0 2.068377 1_556
O1 V0 2.072383 1_555
O1 V3 2.072454 1_564
O2 V0 1.950890 1_555
O3 V1 1.948909 1_555
O4 V0 2.021455 1_555
O4 V1 2.031657 1_555
O5 V2 2.072383 1_555
O5 V1 2.072454 1_565
O6 V1 2.060456 1_555
O6 V2 2.068377 1_555
O7 V2 2.021455 1_555
O7 V3 2.031657 1_555
O8 V2 1.950890 1_555
O9 V3 1.948909 1_555
F0 Li5 2.010556 1_555
F0 V0 2.089657 1_555
F0 V1 2.096230 1_455
F0 Li3 2.236408 1_455
F0 Li0 2.268352 1_555
F0 Li2 2.474392 1_455
F1 Li5 1.958945 1_555
F1 Li6 2.048953 1_545
F1 V1 2.146890 1_555
F1 V2 2.175619 1_545
F1 Li8 2.202172 1_555
F1 Li4 2.306261 1_545
F2 Li9 2.010556 1_555
F2 V2 2.089657 1_555
F2 V3 2.096230 1_655
F2 Li10 2.236408 1_655
F2 Li7 2.268352 1_555
F2 Li6 2.474392 1_655
F3 Li9 1.958945 1_555
F3 Li2 2.048953 1_546
F3 V3 2.146890 1_555
F3 V0 2.175619 1_546
F3 Li1 2.202172 1_556
F3 Li11 2.306261 1_545
