# generated using pymatgen
data_Ti
_symmetry_space_group_name_H-M   'P 1'
_cell_length_a   9.13475084
_cell_length_b   9.13474848
_cell_length_c   5.65248854
_cell_angle_alpha   90.00000000
_cell_angle_beta   90.00000000
_cell_angle_gamma   119.99999364
_symmetry_Int_Tables_number   1
_chemical_formula_structural   Ti
_chemical_formula_sum   Ti24
_cell_volume   408.47327742
_cell_formula_units_Z   24
loop_
 _symmetry_equiv_pos_site_id
 _symmetry_equiv_pos_as_xyz
  1  'x, y, z'
loop_
 _atom_site_type_symbol
 _atom_site_label
 _atom_site_symmetry_multiplicity
 _atom_site_fract_x
 _atom_site_fract_y
 _atom_site_fract_z
 _atom_site_occupancy
  Ti  Ti0_0  1  0.00000000  0.00000000  0.00000000  1
  Ti  Ti0_1  1  0.00000000  0.00000000  0.50000000  1
  Ti  Ti0_2  1  0.00000000  0.50000000  0.00000000  1
  Ti  Ti0_3  1  0.00000000  0.50000000  0.50000000  1
  Ti  Ti0_4  1  0.50000000  0.00000000  0.00000000  1
  Ti  Ti0_5  1  0.50000000  0.00000000  0.50000000  1
  Ti  Ti0_6  1  0.50000000  0.50000000  0.00000000  1
  Ti  Ti0_7  1  0.50000000  0.50000000  0.50000000  1
  Ti  Ti1_0  1  0.16666650  0.33333350  0.25000000  1
  Ti  Ti1_1  1  0.16666650  0.33333350  0.75000000  1
  Ti  Ti1_2  1  0.16666650  0.83333350  0.25000000  1
  Ti  Ti1_3  1  0.16666650  0.83333350  0.75000000  1
  Ti  Ti1_4  1  0.66666650  0.33333350  0.25000000  1
  Ti  Ti1_5  1  0.66666650  0.33333350  0.75000000  1
  Ti  Ti1_6  1  0.66666650  0.83333350  0.25000000  1
  Ti  Ti1_7  1  0.66666650  0.83333350  0.75000000  1
  Ti  Ti2_0  1  0.33333350  0.16666650  0.25000000  1
  Ti  Ti2_1  1  0.33333350  0.16666650  0.75000000  1
  Ti  Ti2_2  1  0.33333350  0.66666650  0.25000000  1
  Ti  Ti2_3  1  0.33333350  0.66666650  0.75000000  1
  Ti  Ti2_4  1  0.83333350  0.16666650  0.25000000  1
  Ti  Ti2_5  1  0.83333350  0.16666650  0.75000000  1
  Ti  Ti2_6  1  0.83333350  0.66666650  0.25000000  1
  Ti  Ti2_7  1  0.83333350  0.66666650  0.75000000  1
loop_
_geom_bond_atom_site_label_1
_geom_bond_atom_site_label_2
_geom_bond_distance
_geom_bond_site_symmetry_2
Ti0_0 Ti0_1 2.826244 1_555
Ti0_0 Ti0_1 2.826244 1_554
Ti0_0 Ti2_4 2.991745 1_455
Ti0_0 Ti2_5 2.991745 1_454
Ti0_0 Ti1_2 2.991745 1_545
Ti0_0 Ti1_3 2.991745 1_544
Ti0_0 Ti1_0 2.991748 1_555
Ti0_0 Ti1_1 2.991748 1_554
Ti0_0 Ti2_6 2.991748 1_445
Ti0_0 Ti2_7 2.991748 1_444
Ti0_0 Ti2_1 2.991749 1_554
Ti0_0 Ti2_0 2.991749 1_555
Ti0_0 Ti1_6 2.991749 1_445
Ti0_0 Ti1_7 2.991749 1_444
Ti0_1 Ti2_4 2.991745 1_455
Ti0_1 Ti2_5 2.991745 1_455
Ti0_1 Ti1_2 2.991745 1_545
Ti0_1 Ti1_3 2.991745 1_545
Ti0_1 Ti1_0 2.991748 1_555
Ti0_1 Ti1_1 2.991748 1_555
Ti0_1 Ti2_6 2.991748 1_445
Ti0_1 Ti2_7 2.991748 1_445
Ti0_1 Ti2_0 2.991749 1_555
Ti0_1 Ti2_1 2.991749 1_555
Ti0_1 Ti1_6 2.991749 1_445
Ti0_1 Ti1_7 2.991749 1_445
Ti0_2 Ti0_3 2.826244 1_554
Ti0_2 Ti0_3 2.826244 1_555
Ti0_2 Ti2_7 2.991745 1_454
Ti0_2 Ti1_0 2.991745 1_555
Ti0_2 Ti1_1 2.991745 1_554
Ti0_2 Ti2_6 2.991745 1_455
Ti0_2 Ti2_5 2.991748 1_454
Ti0_2 Ti2_4 2.991748 1_455
Ti0_2 Ti1_2 2.991748 1_555
Ti0_2 Ti1_3 2.991748 1_554
Ti0_2 Ti2_2 2.991749 1_555
Ti0_2 Ti2_3 2.991749 1_554
Ti0_2 Ti1_4 2.991749 1_455
Ti0_2 Ti1_5 2.991749 1_454
Ti0_3 Ti2_7 2.991745 1_455
Ti0_3 Ti1_0 2.991745 1_555
Ti0_3 Ti1_1 2.991745 1_555
Ti0_3 Ti2_6 2.991745 1_455
Ti0_3 Ti2_4 2.991748 1_455
Ti0_3 Ti2_5 2.991748 1_455
Ti0_3 Ti1_2 2.991748 1_555
Ti0_3 Ti1_3 2.991748 1_555
Ti0_3 Ti2_2 2.991749 1_555
Ti0_3 Ti2_3 2.991749 1_555
Ti0_3 Ti1_5 2.991749 1_455
Ti0_3 Ti1_4 2.991749 1_455
Ti0_4 Ti0_5 2.826244 1_554
Ti0_4 Ti0_5 2.826244 1_555
Ti0_4 Ti2_0 2.991745 1_555
Ti0_4 Ti2_1 2.991745 1_554
Ti0_4 Ti1_7 2.991745 1_544
Ti0_4 Ti1_6 2.991745 1_545
Ti0_4 Ti1_5 2.991748 1_554
Ti0_4 Ti1_4 2.991748 1_555
Ti0_4 Ti2_3 2.991748 1_544
Ti0_4 Ti2_2 2.991748 1_545
Ti0_4 Ti1_3 2.991749 1_544
Ti0_4 Ti1_2 2.991749 1_545
Ti0_4 Ti2_5 2.991749 1_554
Ti0_4 Ti2_4 2.991749 1_555
Ti0_5 Ti2_0 2.991745 1_555
Ti0_5 Ti2_1 2.991745 1_555
Ti0_5 Ti1_7 2.991745 1_545
Ti0_5 Ti1_6 2.991745 1_545
Ti0_5 Ti1_5 2.991748 1_555
Ti0_5 Ti1_4 2.991748 1_555
Ti0_5 Ti2_3 2.991748 1_545
Ti0_5 Ti2_2 2.991748 1_545
Ti0_5 Ti1_3 2.991749 1_545
Ti0_5 Ti1_2 2.991749 1_545
Ti0_5 Ti2_5 2.991749 1_555
Ti0_5 Ti2_4 2.991749 1_555
Ti0_6 Ti0_7 2.826244 1_554
Ti0_6 Ti0_7 2.826244 1_555
Ti0_6 Ti1_4 2.991745 1_555
Ti0_6 Ti2_3 2.991745 1_554
Ti0_6 Ti1_5 2.991745 1_554
Ti0_6 Ti2_2 2.991745 1_555
Ti0_6 Ti1_7 2.991748 1_554
Ti0_6 Ti1_6 2.991748 1_555
Ti0_6 Ti2_0 2.991748 1_555
Ti0_6 Ti2_1 2.991748 1_554
Ti0_6 Ti1_0 2.991749 1_555
Ti0_6 Ti1_1 2.991749 1_554
Ti0_6 Ti2_7 2.991749 1_554
Ti0_6 Ti2_6 2.991749 1_555
Ti0_7 Ti1_5 2.991745 1_555
Ti0_7 Ti1_4 2.991745 1_555
Ti0_7 Ti2_2 2.991745 1_555
Ti0_7 Ti2_3 2.991745 1_555
Ti0_7 Ti1_6 2.991748 1_555
Ti0_7 Ti1_7 2.991748 1_555
Ti0_7 Ti2_0 2.991748 1_555
Ti0_7 Ti2_1 2.991748 1_555
Ti0_7 Ti1_0 2.991749 1_555
Ti0_7 Ti1_1 2.991749 1_555
Ti0_7 Ti2_6 2.991749 1_555
Ti0_7 Ti2_7 2.991749 1_555
Ti1_0 Ti2_2 2.636972 1_555
Ti1_0 Ti2_4 2.636973 1_455
Ti1_0 Ti2_0 2.636980 1_555
Ti1_0 Ti1_1 2.826244 1_554
Ti1_0 Ti1_1 2.826244 1_555
Ti1_1 Ti2_3 2.636972 1_555
Ti1_1 Ti2_5 2.636973 1_455
Ti1_1 Ti2_1 2.636980 1_555
Ti1_2 Ti2_0 2.636972 1_565
Ti1_2 Ti2_6 2.636973 1_455
Ti1_2 Ti2_2 2.636980 1_555
Ti1_2 Ti1_3 2.826244 1_555
Ti1_2 Ti1_3 2.826244 1_554
Ti1_3 Ti2_1 2.636972 1_565
Ti1_3 Ti2_7 2.636973 1_455
Ti1_3 Ti2_3 2.636980 1_555
Ti1_4 Ti2_6 2.636972 1_555
Ti1_4 Ti2_0 2.636973 1_555
Ti1_4 Ti2_4 2.636980 1_555
Ti1_4 Ti1_5 2.826244 1_554
Ti1_4 Ti1_5 2.826244 1_555
Ti1_5 Ti2_7 2.636972 1_555
Ti1_5 Ti2_1 2.636973 1_555
Ti1_5 Ti2_5 2.636980 1_555
Ti1_6 Ti2_4 2.636972 1_565
Ti1_6 Ti2_2 2.636973 1_555
Ti1_6 Ti2_6 2.636980 1_555
Ti1_6 Ti1_7 2.826244 1_554
Ti1_6 Ti1_7 2.826244 1_555
Ti1_7 Ti2_5 2.636972 1_565
Ti1_7 Ti2_3 2.636973 1_555
Ti1_7 Ti2_7 2.636980 1_555
Ti2_0 Ti2_1 2.826244 1_554
Ti2_0 Ti2_1 2.826244 1_555
Ti2_2 Ti2_3 2.826244 1_554
Ti2_2 Ti2_3 2.826244 1_555
Ti2_4 Ti2_5 2.826244 1_555
Ti2_4 Ti2_5 2.826244 1_554
Ti2_6 Ti2_7 2.826244 1_555
Ti2_6 Ti2_7 2.826244 1_554
