# generated using pymatgen
data_CaMg5P3CO16
_symmetry_space_group_name_H-M   'P 1'
_cell_length_a   6.36529100
_cell_length_b   8.81042671
_cell_length_c   10.94957525
_cell_angle_alpha   95.21107219
_cell_angle_beta   101.15154397
_cell_angle_gamma   93.30388468
_symmetry_Int_Tables_number   1
_chemical_formula_structural   CaMg5P3CO16
_chemical_formula_sum   'Ca2 Mg10 P6 C2 O32'
_cell_volume   598.19864937
_cell_formula_units_Z   2
loop_
 _symmetry_equiv_pos_site_id
 _symmetry_equiv_pos_as_xyz
  1  'x, y, z'
loop_
 _atom_site_type_symbol
 _atom_site_label
 _atom_site_symmetry_multiplicity
 _atom_site_fract_x
 _atom_site_fract_y
 _atom_site_fract_z
 _atom_site_occupancy
  Ca  Ca0  1  0.87602300  0.68367700  0.93671600  1
  Ca  Ca1  1  0.12397700  0.31632300  0.06328400  1
  Mg  Mg0  1  0.30981900  0.03620400  0.90073100  1
  Mg  Mg1  1  0.69018100  0.96379600  0.09926900  1
  Mg  Mg2  1  0.65571600  0.47010800  0.38046800  1
  Mg  Mg3  1  0.34428400  0.52989200  0.61953200  1
  Mg  Mg4  1  0.08505700  0.82119200  0.67170600  1
  Mg  Mg5  1  0.91494300  0.17880800  0.32829400  1
  Mg  Mg6  1  0.58926700  0.35110300  0.81830200  1
  Mg  Mg7  1  0.41073300  0.64889700  0.18169800  1
  Mg  Mg8  1  0.66951600  0.13167800  0.54937800  1
  Mg  Mg9  1  0.33048400  0.86832200  0.45062200  1
  P  P0  1  0.20165300  0.96821500  0.17046800  1
  P  P1  1  0.79834700  0.03178500  0.82953200  1
  P  P2  1  0.78818900  0.84122100  0.39137500  1
  P  P3  1  0.21181100  0.15877900  0.60862500  1
  P  P4  1  0.36883700  0.66918200  0.92541300  1
  P  P5  1  0.63116300  0.33081800  0.07458700  1
  C  C0  1  0.85125700  0.51505900  0.66152700  1
  C  C1  1  0.14874300  0.48494100  0.33847300  1
  O  O0  1  0.36841600  0.00435200  0.08858400  1
  O  O1  1  0.63158400  0.99564800  0.91141600  1
  O  O2  1  0.99070200  0.88954300  0.08784100  1
  O  O3  1  0.00929800  0.11045700  0.91215900  1
  O  O4  1  0.15965800  0.12267300  0.23820200  1
  O  O5  1  0.84034200  0.87732700  0.76179800  1
  O  O6  1  0.29918200  0.85137700  0.26123600  1
  O  O7  1  0.70081800  0.14862300  0.73876400  1
  O  O8  1  0.01552100  0.82314000  0.46725000  1
  O  O9  1  0.98447900  0.17686000  0.53275000  1
  O  O10  1  0.65516000  0.90924400  0.48452700  1
  O  O11  1  0.34484000  0.09075600  0.51547300  1
  O  O12  1  0.79564000  0.95117300  0.28970300  1
  O  O13  1  0.20436000  0.04882700  0.71029700  1
  O  O14  1  0.67391900  0.68439600  0.32905100  1
  O  O15  1  0.32608100  0.31560400  0.67094900  1
  O  O16  1  0.56032600  0.73359500  0.03527100  1
  O  O17  1  0.43967400  0.26640500  0.96472900  1
  O  O18  1  0.23768500  0.79416000  0.86312700  1
  O  O19  1  0.76231500  0.20584000  0.13687300  1
  O  O20  1  0.46545600  0.57230400  0.82740000  1
  O  O21  1  0.53454400  0.42769600  0.17260000  1
  O  O22  1  0.21884100  0.57746800  0.99455500  1
  O  O23  1  0.78115900  0.42253200  0.00544500  1
  O  O24  1  0.64718600  0.24429500  0.39458100  1
  O  O25  1  0.35281400  0.75570500  0.60541900  1
  O  O26  1  0.84602900  0.48071300  0.77324500  1
  O  O27  1  0.15397100  0.51928700  0.22675500  1
  O  O28  1  0.02391900  0.58172100  0.63749300  1
  O  O29  1  0.97608100  0.41827900  0.36250700  1
  O  O30  1  0.67882500  0.48627600  0.57530800  1
  O  O31  1  0.32117500  0.51372400  0.42469200  1
loop_
_geom_bond_atom_site_label_1
_geom_bond_atom_site_label_2
_geom_bond_distance
_geom_bond_site_symmetry_2
Ca0 O2 2.322882 1_556
Ca0 O26 2.384330 1_555
Ca0 O22 2.418031 1_655
Ca0 O16 2.500104 1_556
Ca0 O23 2.560233 1_556
Ca0 O5 2.664727 1_555
Ca0 O18 2.738259 1_655
Ca0 O20 2.739780 1_555
Ca1 O3 2.322882 1_554
Ca1 O27 2.384330 1_555
Ca1 O23 2.418031 1_455
Ca1 O17 2.500104 1_554
Ca1 O22 2.560233 1_554
Ca1 O4 2.664727 1_555
Ca1 O19 2.738259 1_455
Ca1 O21 2.739780 1_555
Mg0 O0 2.066134 1_556
Mg0 O13 2.078515 1_555
Mg0 O3 2.079615 1_555
Mg0 O1 2.082174 1_545
Mg0 O18 2.140671 1_545
Mg0 O17 2.147624 1_555
Mg1 O1 2.066134 1_554
Mg1 O12 2.078515 1_555
Mg1 O2 2.079615 1_555
Mg1 O0 2.082174 1_565
Mg1 O19 2.140671 1_565
Mg1 O16 2.147624 1_555
Mg2 O24 2.007888 1_555
Mg2 O14 2.021858 1_555
Mg2 O30 2.101043 1_555
Mg2 O29 2.156790 1_555
Mg2 O21 2.246829 1_555
Mg2 O31 2.318639 1_555
Mg3 O25 2.007888 1_555
Mg3 O15 2.021858 1_555
Mg3 O31 2.101043 1_555
Mg3 O28 2.156790 1_555
Mg3 O20 2.246829 1_555
Mg3 O30 2.318639 1_555
Mg4 O5 2.058797 1_455
Mg4 O25 2.068885 1_555
Mg4 O13 2.079400 1_565
Mg4 O28 2.109173 1_555
Mg4 O18 2.173337 1_555
Mg4 O8 2.198313 1_555
Mg5 O4 2.058797 1_655
Mg5 O24 2.068885 1_555
Mg5 O12 2.079400 1_545
Mg5 O29 2.109173 1_555
Mg5 O19 2.173337 1_555
Mg5 O9 2.198313 1_555
Mg6 O15 2.076041 1_555
Mg6 O26 2.101818 1_555
Mg6 O7 2.132619 1_555
Mg6 O20 2.145056 1_555
Mg6 O17 2.181770 1_555
Mg6 O23 2.189963 1_556
Mg7 O14 2.076041 1_555
Mg7 O27 2.101818 1_555
Mg7 O6 2.132619 1_555
Mg7 O21 2.145056 1_555
Mg7 O16 2.181770 1_555
Mg7 O22 2.189963 1_554
Mg8 O10 2.013611 1_545
Mg8 O24 2.026357 1_555
Mg8 O11 2.032711 1_555
Mg8 O7 2.035367 1_555
Mg8 O9 2.067203 1_555
Mg9 O11 2.013611 1_565
Mg9 O25 2.026357 1_555
Mg9 O10 2.032711 1_555
Mg9 O6 2.035367 1_555
Mg9 O8 2.067203 1_555
C0 O26 1.292624 1_555
C0 O30 1.297639 1_555
C0 O28 1.299095 1_655
C1 O27 1.292624 1_555
C1 O31 1.297639 1_555
C1 O29 1.299095 1_455
O0 P0 1.553403 1_545
O1 P1 1.553403 1_565
O2 P0 1.552703 1_655
O3 P1 1.552703 1_455
O4 P0 1.551992 1_545
O5 P1 1.551992 1_565
O6 P0 1.566418 1_555
O7 P1 1.566418 1_555
O8 P2 1.547612 1_455
O9 P3 1.547612 1_655
O10 P2 1.548572 1_555
O11 P3 1.548572 1_555
O12 P2 1.546306 1_555
O13 P3 1.546306 1_555
O14 P2 1.557151 1_555
O15 P3 1.557151 1_555
O16 P4 1.576018 1_554
O17 P5 1.576018 1_556
O18 P4 1.548107 1_555
O19 P5 1.548107 1_555
O20 P4 1.551752 1_555
O21 P5 1.551752 1_555
O22 P4 1.561881 1_555
O23 P5 1.561881 1_555
