# generated using pymatgen
data_Na4Co2O5
_symmetry_space_group_name_H-M   'P 1'
_cell_length_a   5.74818400
_cell_length_b   9.09549100
_cell_length_c   12.68343078
_cell_angle_alpha   63.28710214
_cell_angle_beta   90.00000000
_cell_angle_gamma   90.00000000
_symmetry_Int_Tables_number   1
_chemical_formula_structural   Na4Co2O5
_chemical_formula_sum   'Na16 Co8 O20'
_cell_volume   592.34729364
_cell_formula_units_Z   4
loop_
 _symmetry_equiv_pos_site_id
 _symmetry_equiv_pos_as_xyz
  1  'x, y, z'
loop_
 _atom_site_type_symbol
 _atom_site_label
 _atom_site_symmetry_multiplicity
 _atom_site_fract_x
 _atom_site_fract_y
 _atom_site_fract_z
 _atom_site_occupancy
  Na  Na0  1  0.92890100  0.19909500  0.96211400  1
  Na  Na1  1  0.58626300  0.70529900  0.95954300  1
  Na  Na2  1  0.11976100  0.60916500  0.86921200  1
  Na  Na3  1  0.37218600  0.12507500  0.85988300  1
  Na  Na4  1  0.61976100  0.39083500  0.63078800  1
  Na  Na5  1  0.87218600  0.87492500  0.64011700  1
  Na  Na6  1  0.42890100  0.80090500  0.53788600  1
  Na  Na7  1  0.91373700  0.70529900  0.45954300  1
  Na  Na8  1  0.08626300  0.29470100  0.54045700  1
  Na  Na9  1  0.57109900  0.19909500  0.46211400  1
  Na  Na10  1  0.12781400  0.12507500  0.35988300  1
  Na  Na11  1  0.38023900  0.60916500  0.36921200  1
  Na  Na12  1  0.62781400  0.87492500  0.14011700  1
  Na  Na13  1  0.88023900  0.39083500  0.13078800  1
  Na  Na14  1  0.41373700  0.29470100  0.04045700  1
  Na  Na15  1  0.07109900  0.80090500  0.03788600  1
  Co  Co0  1  0.61263500  0.53608100  0.80638200  1
  Co  Co1  1  0.11263500  0.46391900  0.69361800  1
  Co  Co2  1  0.83987400  0.04728800  0.79868400  1
  Co  Co3  1  0.33987400  0.95271200  0.70131600  1
  Co  Co4  1  0.66012600  0.04728800  0.29868400  1
  Co  Co5  1  0.16012600  0.95271200  0.20131600  1
  Co  Co6  1  0.88736500  0.53608100  0.30638200  1
  Co  Co7  1  0.38736500  0.46391900  0.19361800  1
  O  O0  1  0.76847900  0.45179100  0.94290400  1
  O  O1  1  0.34454200  0.41319100  0.81961900  1
  O  O2  1  0.73890000  0.96168200  0.94808900  1
  O  O3  1  0.08606300  0.89371700  0.80631700  1
  O  O4  1  0.51050800  0.75480000  0.75719300  1
  O  O5  1  0.84454200  0.58680900  0.68038100  1
  O  O6  1  0.01050800  0.24520000  0.74280700  1
  O  O7  1  0.58606300  0.10628300  0.69368300  1
  O  O8  1  0.26847900  0.54820900  0.55709600  1
  O  O9  1  0.23890000  0.03831800  0.55191100  1
  O  O10  1  0.76110000  0.96168200  0.44808900  1
  O  O11  1  0.73152100  0.45179100  0.44290400  1
  O  O12  1  0.41393700  0.89371700  0.30631700  1
  O  O13  1  0.98949200  0.75480000  0.25719300  1
  O  O14  1  0.15545800  0.41319100  0.31961900  1
  O  O15  1  0.48949200  0.24520000  0.24280700  1
  O  O16  1  0.91393700  0.10628300  0.19368300  1
  O  O17  1  0.26110000  0.03831800  0.05191100  1
  O  O18  1  0.65545800  0.58680900  0.18038100  1
  O  O19  1  0.23152100  0.54820900  0.05709600  1
loop_
_geom_bond_atom_site_label_1
_geom_bond_atom_site_label_2
_geom_bond_distance
_geom_bond_site_symmetry_2
Na0 O17 2.363177 1_656
Na0 O0 2.385131 1_555
Na0 O2 2.496549 1_545
Na0 O6 2.661640 1_655
Na0 O16 2.667852 1_556
Na1 O2 2.433975 1_555
Na1 O4 2.437283 1_555
Na1 O19 2.478115 1_556
Na1 O18 2.539937 1_556
Na1 O0 2.625969 1_555
Na2 O19 2.282767 1_556
Na2 O3 2.348654 1_555
Na2 O0 2.407694 1_455
Na2 O1 2.500073 1_555
Na2 O4 2.669486 1_555
Na3 O17 2.287916 1_556
Na3 O1 2.439303 1_555
Na3 O6 2.502469 1_555
Na3 O7 2.511609 1_555
Na3 O2 2.531574 1_545
Na4 O11 2.282767 1_555
Na4 O7 2.348654 1_555
Na4 O8 2.407694 1_555
Na4 O5 2.500073 1_555
Na4 O6 2.669486 1_655
Na5 O10 2.287916 1_555
Na5 O5 2.439303 1_555
Na5 O4 2.502469 1_555
Na5 O3 2.511609 1_655
Na5 O9 2.531574 1_665
Na6 O10 2.363177 1_555
Na6 O8 2.385131 1_555
Na6 O9 2.496549 1_565
Na6 O4 2.661640 1_555
Na6 O12 2.667852 1_555
Na7 O10 2.433975 1_555
Na7 O13 2.437283 1_555
Na7 O8 2.478115 1_655
Na7 O5 2.539937 1_555
Na7 O11 2.625969 1_555
Na8 O9 2.433975 1_555
Na8 O6 2.437283 1_555
Na8 O11 2.478115 1_455
Na8 O14 2.539937 1_555
Na8 O8 2.625969 1_555
Na9 O9 2.363177 1_555
Na9 O11 2.385131 1_555
Na9 O10 2.496549 1_545
Na9 O15 2.661640 1_555
Na9 O7 2.667852 1_555
Na10 O9 2.287916 1_555
Na10 O14 2.439303 1_555
Na10 O15 2.502469 1_555
Na10 O16 2.511609 1_455
Na10 O10 2.531574 1_445
Na11 O8 2.282767 1_555
Na11 O12 2.348654 1_555
Na11 O11 2.407694 1_555
Na11 O14 2.500073 1_555
Na11 O13 2.669486 1_455
Na12 O2 2.287916 1_554
Na12 O18 2.439303 1_555
Na12 O13 2.502469 1_555
Na12 O12 2.511609 1_555
Na12 O17 2.531574 1_565
Na13 O0 2.282767 1_554
Na13 O16 2.348654 1_555
Na13 O19 2.407694 1_655
Na13 O18 2.500073 1_555
Na13 O15 2.669486 1_555
Na14 O17 2.433975 1_555
Na14 O15 2.437283 1_555
Na14 O0 2.478115 1_554
Na14 O1 2.539937 1_554
Na14 O19 2.625969 1_555
Na15 O2 2.363177 1_454
Na15 O19 2.385131 1_555
Na15 O17 2.496549 1_565
Na15 O13 2.661640 1_455
Na15 O3 2.667852 1_554
Co0 O0 1.787481 1_555
Co0 O1 1.866456 1_555
Co0 O4 1.890917 1_555
Co0 O5 1.970018 1_555
Co1 O8 1.787481 1_555
Co1 O5 1.866456 1_455
Co1 O6 1.890917 1_555
Co1 O1 1.970018 1_555
Co2 O2 1.790960 1_545
Co2 O7 1.883513 1_555
Co2 O6 1.886197 1_655
Co2 O3 1.959969 1_645
Co3 O9 1.790960 1_565
Co3 O3 1.883513 1_555
Co3 O4 1.886197 1_555
Co3 O7 1.959969 1_565
Co4 O10 1.790960 1_545
Co4 O16 1.883513 1_555
Co4 O15 1.886197 1_555
Co4 O12 1.959969 1_545
Co5 O17 1.790960 1_565
Co5 O12 1.883513 1_555
Co5 O13 1.886197 1_455
Co5 O16 1.959969 1_465
Co6 O11 1.787481 1_555
Co6 O14 1.866456 1_655
Co6 O13 1.890917 1_555
Co6 O18 1.970018 1_555
Co7 O19 1.787481 1_555
Co7 O18 1.866456 1_555
Co7 O15 1.890917 1_555
Co7 O14 1.970018 1_555
