# generated using pymatgen
data_Li6V3P8O29
_symmetry_space_group_name_H-M   'P 1'
_cell_length_a   9.80343493
_cell_length_b   9.85072888
_cell_length_c   13.86376787
_cell_angle_alpha   90.12022897
_cell_angle_beta   90.47266323
_cell_angle_gamma   59.88071848
_symmetry_Int_Tables_number   1
_chemical_formula_structural   Li6V3P8O29
_chemical_formula_sum   'Li12 V6 P16 O58'
_cell_volume   1158.02863558
_cell_formula_units_Z   2
loop_
 _symmetry_equiv_pos_site_id
 _symmetry_equiv_pos_as_xyz
  1  'x, y, z'
loop_
 _atom_site_type_symbol
 _atom_site_label
 _atom_site_symmetry_multiplicity
 _atom_site_fract_x
 _atom_site_fract_y
 _atom_site_fract_z
 _atom_site_occupancy
  Li  Li0  1  0.77159800  0.90581500  0.55835000  1
  Li  Li1  1  0.67280300  0.66576700  0.88374700  1
  Li  Li2  1  0.76571000  0.32987500  0.06516900  1
  Li  Li3  1  0.33154800  0.90087200  0.06529600  1
  Li  Li4  1  0.68257500  0.22864800  0.43816800  1
  Li  Li5  1  0.32326100  0.77242800  0.55827800  1
  Li  Li6  1  0.66360200  0.09892400  0.94056800  1
  Li  Li7  1  0.23357000  0.66114500  0.94174100  1
  Li  Li8  1  0.09491600  0.67572700  0.43786000  1
  Li  Li9  1  0.22537200  0.09673200  0.44044400  1
  Li  Li10  1  0.10127000  0.23661200  0.94013200  1
  Li  Li11  1  0.99158300  0.98027900  0.00621900  1
  V  V0  1  0.56706800  0.43304600  0.25187700  1
  V  V1  1  0.43106900  0.56593800  0.74744100  1
  V  V2  1  0.56729800  0.00201600  0.74834600  1
  V  V3  1  0.43332400  0.00187600  0.25172400  1
  V  V4  1  0.99603900  0.56643100  0.24563500  1
  V  V5  1  0.00002600  0.43313900  0.74628600  1
  P  P0  1  0.91345100  0.77463100  0.84302300  1
  P  P1  1  0.77166000  0.91219500  0.34115800  1
  P  P2  1  0.91458400  0.31729000  0.34327400  1
  P  P3  1  0.66510600  0.66511900  0.12624500  1
  P  P4  1  0.66481900  0.66949000  0.62664500  1
  P  P5  1  0.77464600  0.31494900  0.84340400  1
  P  P6  1  0.68309500  0.23069500  0.65635400  1
  P  P7  1  0.31760000  0.90862500  0.84263800  1
  P  P8  1  0.68361000  0.08917000  0.15614000  1
  P  P9  1  0.32029600  0.76936500  0.34159000  1
  P  P10  1  0.22592200  0.68463200  0.15734400  1
  P  P11  1  0.33183100  0.33489200  0.37234500  1
  P  P12  1  0.33293300  0.33449600  0.87388300  1
  P  P13  1  0.08563000  0.68115000  0.65632600  1
  P  P14  1  0.22814100  0.08782700  0.65735000  1
  P  P15  1  0.08580900  0.22828700  0.15736100  1
  O  O0  1  0.99711200  0.75758700  0.56481000  1
  O  O1  1  0.91743700  0.74854000  0.34231200  1
  O  O2  1  0.77115900  0.01298500  0.06494200  1
  O  O3  1  0.74292900  0.91980400  0.84182000  1
  O  O4  1  0.89923100  0.62603200  0.83437900  1
  O  O5  1  0.81164600  0.66904000  0.17032100  1
  O  O6  1  0.90409900  0.47603500  0.32629000  1
  O  O7  1  0.00263600  0.22427100  0.06513300  1
  O  O8  1  0.92217000  0.33190600  0.84389200  1
  O  O9  1  0.67311100  0.81568200  0.66728900  1
  O  O10  1  0.61992800  0.90271500  0.32195000  1
  O  O11  1  0.81235700  0.52323800  0.67614400  1
  O  O12  1  0.66657000  0.66299300  0.01744800  1
  O  O13  1  0.66429000  0.67026800  0.51944500  1
  O  O14  1  0.67599800  0.51018900  0.16383700  1
  O  O15  1  0.48189100  0.89128400  0.83112400  1
  O  O16  1  0.51257400  0.81195200  0.16349400  1
  O  O17  1  0.74725600  0.33631900  0.34173800  1
  O  O18  1  0.79159300  0.20987200  0.74995400  1
  O  O19  1  0.75229500  0.24369700  0.56490000  1
  O  O20  1  0.77154800  0.22727900  0.93249500  1
  O  O21  1  0.62673300  0.47899300  0.83115200  1
  O  O22  1  0.51248400  0.67377700  0.66731700  1
  O  O23  1  0.66096300  0.25716600  0.16149000  1
  O  O24  1  0.48089000  0.62020100  0.32396000  1
  O  O25  1  0.33790500  0.91672600  0.34329600  1
  O  O26  1  0.79276800  0.00036700  0.24944200  1
  O  O27  1  0.75377400  0.00356700  0.43194900  1
  O  O28  1  0.24698300  0.99504900  0.56730400  1
  O  O29  1  0.66514600  0.08275300  0.65977900  1
  O  O30  1  0.52220100  0.38145400  0.67922900  1
  O  O31  1  0.33750500  0.74180700  0.84133700  1
  O  O32  1  0.48626900  0.32653600  0.33187000  1
  O  O33  1  0.38160700  0.53012000  0.16986600  1
  O  O34  1  0.22462600  0.77487100  0.06746300  1
  O  O35  1  0.24313900  0.75569800  0.43163600  1
  O  O36  1  0.20905100  0.79474600  0.24951600  1
  O  O37  1  0.24952100  0.66961600  0.65784900  1
  O  O38  1  0.48593500  0.18873500  0.83378400  1
  O  O39  1  0.52755700  0.09245300  0.16956500  1
  O  O40  1  0.32363800  0.48804700  0.83379700  1
  O  O41  1  0.33113700  0.33287800  0.98172300  1
  O  O42  1  0.33338000  0.33524900  0.48023100  1
  O  O43  1  0.18352700  0.48560400  0.32964100  1
  O  O44  1  0.38299800  0.09139100  0.67865700  1
  O  O45  1  0.32558900  0.18683900  0.33255500  1
  O  O46  1  0.08353400  0.66280500  0.15985700  1
  O  O47  1  0.99244700  0.79402100  0.74590400  1
  O  O48  1  0.00591400  0.78449000  0.92686300  1
  O  O49  1  0.10319900  0.51988200  0.67454500  1
  O  O50  1  0.18363400  0.32997000  0.83149400  1
  O  O51  1  0.09582900  0.37765800  0.16834300  1
  O  O52  1  0.25417500  0.08106700  0.16038900  1
  O  O53  1  0.23048600  0.99648800  0.93232800  1
  O  O54  1  0.20998500  0.99678500  0.75000300  1
  O  O55  1  0.08719000  0.25189500  0.65867200  1
  O  O56  1  0.00903400  0.22817600  0.42896200  1
  O  O57  1  0.99432400  0.20990800  0.24619800  1
loop_
_geom_bond_atom_site_label_1
_geom_bond_atom_site_label_2
_geom_bond_distance
_geom_bond_site_symmetry_2
Li0 O0 1.945580 1_555
Li0 O27 1.965150 1_565
Li0 O29 2.071910 1_565
Li0 O9 2.211693 1_555
Li1 O12 1.855820 1_556
Li1 O4 2.168176 1_555
Li1 O15 2.186718 1_555
Li1 O21 2.223430 1_555
Li2 O7 2.012990 1_655
Li2 O23 2.028663 1_555
Li2 O14 2.059491 1_555
Li2 O20 2.084182 1_554
Li3 O34 1.986607 1_555
Li3 O52 2.029683 1_565
Li3 O16 2.043324 1_555
Li3 O53 2.075481 1_554
Li4 O19 1.912306 1_555
Li4 O27 1.964095 1_555
Li4 O17 2.002297 1_555
Li4 O32 2.214035 1_555
Li5 O28 1.933547 1_555
Li5 O35 1.957722 1_555
Li5 O37 2.052071 1_555
Li5 O22 2.195778 1_555
Li6 O2 1.970265 1_556
Li6 O20 2.019031 1_555
Li6 O3 2.054903 1_545
Li6 O38 2.103455 1_555
Li7 O48 1.942110 1_555
Li7 O34 2.048524 1_556
Li7 O40 2.103988 1_555
Li7 O31 2.108964 1_555
Li8 O35 1.972486 1_555
Li8 O0 1.978162 1_455
Li8 O1 2.002483 1_455
Li8 O43 2.211353 1_555
Li9 O56 1.854508 1_555
Li9 O28 1.982344 1_545
Li9 O25 2.055842 1_545
Li9 O45 2.212555 1_555
Li10 O8 2.014124 1_455
Li10 O7 2.024726 1_556
Li10 O53 2.050728 1_545
Li10 O50 2.130088 1_555
Li11 O48 2.161382 1_654
Li11 O2 2.182969 1_565
Li11 O34 2.317422 1_655
Li11 O20 2.514859 1_564
Li11 O7 2.589853 1_665
Li11 O53 2.641169 1_654
O0 P13 1.503270 1_655
O1 P1 1.526133 1_555
O1 V4 2.056195 1_555
O2 P8 1.505297 1_555
O3 P0 1.562154 1_555
O3 V2 1.966710 1_565
O4 P0 1.542827 1_555
O4 V5 2.050444 1_655
O5 P3 1.574737 1_555
O5 V4 1.875940 1_555
O6 P2 1.533351 1_555
O6 V4 1.918842 1_555
O7 P15 1.521926 1_555
O8 P5 1.536830 1_555
O8 V5 2.048097 1_655
O9 P4 1.584716 1_555
O9 V2 1.951334 1_565
O10 P1 1.557256 1_555
O10 V3 1.851982 1_565
O11 P4 1.592171 1_555
O11 V5 1.858371 1_655
O12 P3 1.508524 1_555
O13 P4 1.486185 1_555
O14 P3 1.565596 1_555
O14 V0 2.011831 1_555
O15 P7 1.541672 1_555
O15 V2 2.036071 1_565
O16 P3 1.560051 1_555
O16 V3 2.036506 1_565
O17 P2 1.554770 1_555
O17 V0 1.964634 1_555
O18 P5 1.613331 1_555
O18 P6 1.617623 1_555
O19 P6 1.478602 1_555
O20 P5 1.517805 1_555
O21 P5 1.545393 1_555
O21 V1 2.019527 1_555
O22 P4 1.581294 1_555
O22 V1 1.967213 1_555
O23 P8 1.557064 1_555
O23 V0 1.956699 1_555
O24 P9 1.542923 1_555
O24 V0 1.885305 1_555
O25 P9 1.545582 1_555
O25 V3 2.000460 1_565
O26 P1 1.613492 1_545
O26 P8 1.620494 1_555
O27 P1 1.505232 1_545
O28 P14 1.502473 1_565
O29 P6 1.553974 1_555
O29 V2 1.962025 1_555
O30 P6 1.565044 1_555
O30 V1 1.836396 1_555
O31 P7 1.554633 1_555
O31 V1 1.988134 1_555
O32 P11 1.581981 1_555
O32 V0 1.952332 1_555
O33 P10 1.530214 1_555
O33 V0 1.933496 1_555
O34 P10 1.528441 1_555
O35 P9 1.505723 1_555
O36 P9 1.608115 1_555
O36 P10 1.629251 1_555
O37 P13 1.552761 1_555
O37 V1 1.974357 1_555
O38 P12 1.571466 1_555
O38 V2 1.989067 1_555
O39 P8 1.526815 1_555
O39 V3 1.948278 1_555
O40 P12 1.571446 1_555
O40 V1 1.991718 1_555
O41 P12 1.495530 1_555
O42 P11 1.495673 1_555
O43 P11 1.578493 1_555
O43 V4 1.966856 1_455
O44 P14 1.561813 1_555
O44 V2 1.830666 1_555
O45 P11 1.587672 1_555
O45 V3 1.941831 1_555
O46 P10 1.515917 1_555
O46 V4 1.972317 1_455
O47 P13 1.614494 1_655
O47 P0 1.617360 1_555
O48 P0 1.500872 1_455
O49 P13 1.530850 1_555
O49 V5 1.905241 1_555
O50 P12 1.593984 1_555
O50 V5 1.949958 1_555
O51 P15 1.530280 1_555
O51 V4 1.935566 1_455
O52 P15 1.557586 1_555
O52 V3 1.972027 1_555
O53 P7 1.515184 1_555
O54 P7 1.606045 1_555
O54 P14 1.629351 1_565
O55 P14 1.510223 1_555
O55 V5 1.967253 1_555
O56 P2 1.486499 1_455
O57 P15 1.592528 1_655
O57 P2 1.650091 1_555
