# generated using pymatgen
data_Li3Fe4(PO4)6
_symmetry_space_group_name_H-M   'P 1'
_cell_length_a   8.64030500
_cell_length_b   8.68119379
_cell_length_c   8.81867241
_cell_angle_alpha   60.60732310
_cell_angle_beta   60.72090707
_cell_angle_gamma   60.50050314
_symmetry_Int_Tables_number   1
_chemical_formula_structural   Li3Fe4(PO4)6
_chemical_formula_sum   'Li3 Fe4 P6 O24'
_cell_volume   474.16720608
_cell_formula_units_Z   1
loop_
 _symmetry_equiv_pos_site_id
 _symmetry_equiv_pos_as_xyz
  1  'x, y, z'
loop_
 _atom_site_type_symbol
 _atom_site_label
 _atom_site_symmetry_multiplicity
 _atom_site_fract_x
 _atom_site_fract_y
 _atom_site_fract_z
 _atom_site_occupancy
  Li  Li0  1  0.96394000  0.82851700  0.55482300  1
  Li  Li1  1  0.63617200  0.34457100  0.05019000  1
  Li  Li2  1  0.10254100  0.29580600  0.34294500  1
  Fe  Fe0  1  0.15194500  0.12920600  0.07094000  1
  Fe  Fe1  1  0.64255100  0.64265200  0.56893900  1
  Fe  Fe2  1  0.84995100  0.86413600  0.93386700  1
  Fe  Fe3  1  0.35708300  0.36350700  0.43542600  1
  P  P0  1  0.24909500  0.54072700  0.74149900  1
  P  P1  1  0.53153800  0.95926100  0.75602400  1
  P  P2  1  0.47268000  0.04149400  0.24140700  1
  P  P3  1  0.03734800  0.74519100  0.25851200  1
  P  P4  1  0.75553200  0.46368900  0.25540900  1
  P  P5  1  0.95801200  0.24487100  0.75254100  1
  O  O0  1  0.99413200  0.19884800  0.92802300  1
  O  O1  1  0.87310400  0.70863600  0.44573100  1
  O  O2  1  0.23552000  0.35628200  0.89873200  1
  O  O3  1  0.53887400  0.79172000  0.72815700  1
  O  O4  1  0.27394500  0.54123500  0.55530400  1
  O  O5  1  0.06444600  0.90736600  0.26256100  1
  O  O6  1  0.38084600  0.96409000  0.94397200  1
  O  O7  1  0.06659800  0.70922100  0.77217000  1
  O  O8  1  0.41453800  0.56866100  0.74026100  1
  O  O9  1  0.76861300  0.41322800  0.76524800  1
  O  O10  1  0.72933900  0.92068700  0.74902300  1
  O  O11  1  0.48608000  0.14729300  0.60333000  1
  O  O12  1  0.50560000  0.85436300  0.39943900  1
  O  O13  1  0.21380800  0.56604800  0.25775300  1
  O  O14  1  0.27726400  0.08078500  0.24116200  1
  O  O15  1  0.60253500  0.41769300  0.25710800  1
  O  O16  1  0.62883800  0.04327300  0.05395600  1
  O  O17  1  0.94855300  0.30722400  0.21845100  1
  O  O18  1  0.94276400  0.07733800  0.74754000  1
  O  O19  1  0.72653300  0.46658100  0.44207200  1
  O  O20  1  0.45531300  0.21116400  0.27231300  1
  O  O21  1  0.75389800  0.65322600  0.09968900  1
  O  O22  1  0.11562600  0.29435100  0.56863500  1
  O  O23  1  0.99129900  0.79703700  0.08949300  1
loop_
_geom_bond_atom_site_label_1
_geom_bond_atom_site_label_2
_geom_bond_distance
_geom_bond_site_symmetry_2
Li0 O10 2.008545 1_555
Li0 O7 2.083961 1_655
Li0 O5 2.128360 1_655
Li0 O1 2.269436 1_555
Li1 O20 2.044921 1_555
Li1 O15 2.062443 1_555
Li1 O9 2.089963 1_554
Li1 O0 2.559731 1_554
Li2 O14 2.028063 1_555
Li2 O22 2.041616 1_555
Li2 O17 2.043883 1_455
Fe0 O6 1.958915 1_544
Fe0 O0 1.983528 1_454
Fe0 O2 2.025935 1_554
Fe0 O14 2.030953 1_555
Fe0 O5 2.031211 1_545
Fe0 O17 2.057046 1_455
Fe1 O3 1.964743 1_555
Fe1 O1 1.967917 1_555
Fe1 O12 1.975862 1_555
Fe1 O19 1.976562 1_555
Fe1 O8 1.989671 1_555
Fe1 O9 2.115095 1_555
Fe2 O21 1.964903 1_556
Fe2 O23 1.966854 1_556
Fe2 O16 1.975223 1_566
Fe2 O18 1.989053 1_565
Fe2 O7 2.034266 1_655
Fe2 O10 2.087203 1_555
Fe3 O4 1.944447 1_555
Fe3 O11 1.945170 1_555
Fe3 O20 2.026389 1_555
Fe3 O13 2.031855 1_555
Fe3 O15 2.046013 1_555
Fe3 O22 2.058386 1_555
O0 P5 1.547430 1_555
O1 P3 1.574151 1_655
O2 P0 1.531924 1_555
O3 P1 1.557136 1_555
O4 P0 1.546364 1_555
O5 P3 1.555749 1_555
O6 P1 1.532246 1_555
O7 P0 1.548812 1_555
O8 P0 1.557517 1_555
O9 P5 1.566074 1_555
O10 P1 1.546057 1_555
O11 P1 1.536350 1_545
O12 P2 1.540310 1_565
O13 P3 1.551871 1_555
O14 P2 1.550125 1_555
O15 P4 1.549771 1_555
O16 P2 1.538569 1_555
O17 P4 1.550661 1_555
O18 P5 1.546574 1_555
O19 P4 1.550504 1_555
O20 P2 1.550074 1_555
O21 P4 1.539972 1_555
O22 P5 1.549618 1_455
O23 P3 1.525695 1_655
