# generated using pymatgen
data_YLuO3
_symmetry_space_group_name_H-M   'P 1'
_cell_length_a   3.66709215
_cell_length_b   3.66709215
_cell_length_c   12.75038900
_cell_angle_alpha   90.00000000
_cell_angle_beta   90.00000000
_cell_angle_gamma   120.00000266
_symmetry_Int_Tables_number   1
_chemical_formula_structural   YLuO3
_chemical_formula_sum   'Y2 Lu2 O6'
_cell_volume   148.49016885
_cell_formula_units_Z   2
loop_
 _symmetry_equiv_pos_site_id
 _symmetry_equiv_pos_as_xyz
  1  'x, y, z'
loop_
 _atom_site_type_symbol
 _atom_site_label
 _atom_site_symmetry_multiplicity
 _atom_site_fract_x
 _atom_site_fract_y
 _atom_site_fract_z
 _atom_site_occupancy
  Y  Y0  1  0.00000000  0.00000000  0.00000000  1
  Y  Y1  1  0.00000000  0.00000000  0.50000000  1
  Lu  Lu0  1  0.33333300  0.66666700  0.25000000  1
  Lu  Lu1  1  0.66666700  0.33333300  0.75000000  1
  O  O0  1  0.33333300  0.66666700  0.07903600  1
  O  O1  1  0.33333300  0.66666700  0.42096400  1
  O  O2  1  0.00000000  0.00000000  0.25000000  1
  O  O3  1  0.00000000  0.00000000  0.75000000  1
  O  O4  1  0.66666700  0.33333300  0.92096400  1
  O  O5  1  0.66666700  0.33333300  0.57903600  1
loop_
_geom_bond_atom_site_label_1
_geom_bond_atom_site_label_2
_geom_bond_distance
_geom_bond_site_symmetry_2
Lu0 O2 2.117195 1_565
Lu0 O2 2.117198 1_555
Lu0 O2 2.117198 1_665
Lu0 O1 2.179858 1_555
Lu0 O0 2.179858 1_555
Lu1 O3 2.117195 1_655
Lu1 O3 2.117198 1_665
Lu1 O3 2.117198 1_555
Lu1 O4 2.179858 1_555
Lu1 O5 2.179858 1_555
O0 Y0 2.344793 1_565
O0 Y0 2.344795 1_665
O0 Y0 2.344795 1_555
O1 Y1 2.344793 1_565
O1 Y1 2.344795 1_665
O1 Y1 2.344795 1_555
O4 Y0 2.344793 1_656
O4 Y0 2.344795 1_666
O4 Y0 2.344795 1_556
O5 Y1 2.344793 1_655
O5 Y1 2.344795 1_665
O5 Y1 2.344795 1_555
