# generated using pymatgen
data_Li2MnF4
_symmetry_space_group_name_H-M   'P 1'
_cell_length_a   8.10741255
_cell_length_b   8.10741255
_cell_length_c   8.10741255
_cell_angle_alpha   136.10333983
_cell_angle_beta   115.58322597
_cell_angle_gamma   81.23319681
_symmetry_Int_Tables_number   1
_chemical_formula_structural   Li2MnF4
_chemical_formula_sum   'Li8 Mn4 F16'
_cell_volume   322.35026982
_cell_formula_units_Z   4
loop_
 _symmetry_equiv_pos_site_id
 _symmetry_equiv_pos_as_xyz
  1  'x, y, z'
loop_
 _atom_site_type_symbol
 _atom_site_label
 _atom_site_symmetry_multiplicity
 _atom_site_fract_x
 _atom_site_fract_y
 _atom_site_fract_z
 _atom_site_occupancy
  Li  Li0  1  0.50000000  0.50000000  0.00000000  1
  Li  Li1  1  0.11276600  0.61276600  0.00000000  1
  Li  Li2  1  0.88723400  0.88723400  0.50000000  1
  Li  Li3  1  0.00000000  0.00000000  0.00000000  1
  Li  Li4  1  0.24529000  0.25000000  0.99529000  1
  Li  Li5  1  0.75471000  0.75000000  0.00471000  1
  Li  Li6  1  0.11276600  0.11276600  0.50000000  1
  Li  Li7  1  0.88723400  0.38723400  0.00000000  1
  Mn  Mn0  1  0.23392900  0.61216100  0.62176800  1
  Mn  Mn1  1  0.50960600  0.88783900  0.62176800  1
  Mn  Mn2  1  0.49039400  0.11216100  0.37823200  1
  Mn  Mn3  1  0.76607100  0.38783900  0.37823200  1
  F  F0  1  0.36601600  0.60433800  0.21819600  1
  F  F1  1  0.24470500  0.48294300  0.76176100  1
  F  F2  1  0.50762900  0.75000000  0.75762900  1
  F  F3  1  0.88614300  0.64782000  0.78180400  1
  F  F4  1  0.11385700  0.89566200  0.76167700  1
  F  F5  1  0.36601600  0.14782000  0.76167700  1
  F  F6  1  0.77881800  0.01705700  0.76176100  1
  F  F7  1  0.98704900  0.75000000  0.23704900  1
  F  F8  1  0.01295100  0.25000000  0.76295100  1
  F  F9  1  0.22118200  0.98294300  0.23823900  1
  F  F10  1  0.63398400  0.85218000  0.23832300  1
  F  F11  1  0.88614300  0.10433800  0.23832300  1
  F  F12  1  0.11385700  0.35218000  0.21819600  1
  F  F13  1  0.75529500  0.51705700  0.23823900  1
  F  F14  1  0.49237100  0.25000000  0.24237100  1
  F  F15  1  0.63398400  0.39566200  0.78180400  1
loop_
_geom_bond_atom_site_label_1
_geom_bond_atom_site_label_2
_geom_bond_distance
_geom_bond_site_symmetry_2
F0 Mn1 2.007837 1_555
F0 Li0 2.061014 1_555
F0 Li4 2.079444 1_554
F0 Li1 2.084290 1_555
F1 Mn0 1.998351 1_555
F1 Li0 2.069652 1_556
F1 Li6 2.119912 1_555
F1 Li1 2.119916 1_556
F2 Mn1 2.063264 1_555
F2 Mn0 2.063267 1_555
F2 Li5 2.135399 1_556
F3 Mn3 2.007837 1_555
F3 Li3 2.061012 1_666
F3 Li5 2.079451 1_556
F3 Li1 2.084286 1_656
F4 Mn0 2.007843 1_555
F4 Li3 2.061014 1_566
F4 Li4 2.079444 1_565
F4 Li2 2.084281 1_455
F5 Mn1 2.007832 1_545
F5 Li0 2.061012 1_556
F5 Li4 2.079451 1_555
F5 Li6 2.084286 1_555
F6 Mn1 1.998361 1_545
F6 Li3 2.069657 1_656
F6 Li2 2.119910 1_545
F6 Li7 2.119910 1_556
F7 Li5 2.007991 1_555
F7 Li6 2.057834 1_665
F7 Li7 2.057834 1_555
F7 Li1 2.057834 1_655
F7 Li2 2.057834 1_555
F8 Li4 2.007991 1_555
F8 Li7 2.057834 1_456
F8 Li2 2.057834 1_445
F8 Li6 2.057834 1_555
F8 Li1 2.057834 1_556
F9 Mn2 1.998361 1_565
F9 Li3 2.069657 1_565
F9 Li1 2.119910 1_555
F9 Li6 2.119910 1_565
F10 Mn2 2.007832 1_565
F10 Li0 2.061012 1_555
F10 Li5 2.079451 1_555
F10 Li2 2.084286 1_555
F11 Mn3 2.007843 1_555
F11 Li3 2.061014 1_655
F11 Li5 2.079444 1_545
F11 Li6 2.084281 1_655
F12 Mn0 2.007837 1_555
F12 Li3 2.061012 1_555
F12 Li4 2.079451 1_554
F12 Li7 2.084286 1_455
F13 Mn3 1.998351 1_555
F13 Li0 2.069652 1_555
F13 Li2 2.119912 1_555
F13 Li7 2.119916 1_555
F14 Mn2 2.063264 1_555
F14 Mn3 2.063267 1_555
F14 Li4 2.135399 1_554
F15 Mn2 2.007837 1_555
F15 Li0 2.061014 1_556
F15 Li5 2.079444 1_556
F15 Li7 2.084290 1_556
