# generated using pymatgen
data_Li2FePCO7
_symmetry_space_group_name_H-M   'P 1'
_cell_length_a   6.49056900
_cell_length_b   8.34698300
_cell_length_c   10.19444289
_cell_angle_alpha   85.00471222
_cell_angle_beta   90.00000000
_cell_angle_gamma   90.00000000
_symmetry_Int_Tables_number   1
_chemical_formula_structural   Li2FePCO7
_chemical_formula_sum   'Li8 Fe4 P4 C4 O28'
_cell_volume   550.20324448
_cell_formula_units_Z   4
loop_
 _symmetry_equiv_pos_site_id
 _symmetry_equiv_pos_as_xyz
  1  'x, y, z'
loop_
 _atom_site_type_symbol
 _atom_site_label
 _atom_site_symmetry_multiplicity
 _atom_site_fract_x
 _atom_site_fract_y
 _atom_site_fract_z
 _atom_site_occupancy
  Li  Li0  1  0.74912900  0.90244700  0.36890800  1
  Li  Li1  1  0.75087100  0.90244700  0.86890800  1
  Li  Li2  1  0.53568500  0.72169200  0.62250300  1
  Li  Li3  1  0.96431500  0.72169200  0.12250300  1
  Li  Li4  1  0.46431500  0.27830800  0.37749700  1
  Li  Li5  1  0.03568500  0.27830800  0.87749700  1
  Li  Li6  1  0.25087100  0.09755300  0.63109200  1
  Li  Li7  1  0.24912900  0.09755300  0.13109200  1
  Fe  Fe0  1  0.25068600  0.67075200  0.35059200  1
  Fe  Fe1  1  0.24931400  0.67075200  0.85059200  1
  Fe  Fe2  1  0.74931400  0.32924800  0.64940800  1
  Fe  Fe3  1  0.75068600  0.32924800  0.14940800  1
  P  P0  1  0.74195800  0.57993800  0.38838400  1
  P  P1  1  0.75804200  0.57993800  0.88838400  1
  P  P2  1  0.25804200  0.42006200  0.61161600  1
  P  P3  1  0.24195800  0.42006200  0.11161600  1
  C  C0  1  0.25902900  0.96031000  0.39918100  1
  C  C1  1  0.24097100  0.96031000  0.89918100  1
  C  C2  1  0.74097100  0.03969000  0.60081900  1
  C  C3  1  0.75902900  0.03969000  0.10081900  1
  O  O0  1  0.23949900  0.92431400  0.27668900  1
  O  O1  1  0.71864400  0.89807100  0.56740600  1
  O  O2  1  0.26050100  0.92431400  0.77668900  1
  O  O3  1  0.25513500  0.83597300  0.48745300  1
  O  O4  1  0.78135600  0.89807100  0.06740600  1
  O  O5  1  0.24486500  0.83597300  0.98745300  1
  O  O6  1  0.93216000  0.68309600  0.34187500  1
  O  O7  1  0.55857500  0.69511000  0.35323100  1
  O  O8  1  0.94142500  0.69511000  0.85323100  1
  O  O9  1  0.56784000  0.68309600  0.84187500  1
  O  O10  1  0.27625900  0.57851400  0.67805700  1
  O  O11  1  0.74082800  0.53822600  0.54050400  1
  O  O12  1  0.22374100  0.57851400  0.17805700  1
  O  O13  1  0.75917200  0.53822600  0.04050400  1
  O  O14  1  0.25917200  0.46177400  0.45949600  1
  O  O15  1  0.72374100  0.42148600  0.32194300  1
  O  O16  1  0.24082800  0.46177400  0.95949600  1
  O  O17  1  0.77625900  0.42148600  0.82194300  1
  O  O18  1  0.44142500  0.30489000  0.64676900  1
  O  O19  1  0.06784000  0.31690400  0.65812500  1
  O  O20  1  0.43216000  0.31690400  0.15812500  1
  O  O21  1  0.05857500  0.30489000  0.14676900  1
  O  O22  1  0.74486500  0.16402700  0.51254700  1
  O  O23  1  0.28135600  0.10192900  0.43259400  1
  O  O24  1  0.75513500  0.16402700  0.01254700  1
  O  O25  1  0.76050100  0.07568600  0.72331100  1
  O  O26  1  0.21864400  0.10192900  0.93259400  1
  O  O27  1  0.73949900  0.07568600  0.22331100  1
loop_
_geom_bond_atom_site_label_1
_geom_bond_atom_site_label_2
_geom_bond_distance
_geom_bond_site_symmetry_2
Li0 O27 1.980960 1_565
Li0 O1 2.030388 1_555
Li0 O7 2.144412 1_555
Li0 O6 2.219768 1_555
Li1 O25 1.980960 1_565
Li1 O4 2.030388 1_556
Li1 O8 2.144412 1_555
Li1 O9 2.219768 1_555
Li2 O1 1.936266 1_555
Li2 O10 2.113387 1_555
Li2 O9 2.241261 1_555
Li2 O11 2.244938 1_555
Li2 O3 2.427441 1_555
Li3 O4 1.936266 1_555
Li3 O12 2.113387 1_655
Li3 O6 2.241261 1_555
Li3 O13 2.244938 1_555
Li3 O5 2.427441 1_654
Li4 O23 1.936266 1_555
Li4 O15 2.113387 1_555
Li4 O20 2.241261 1_555
Li4 O14 2.244938 1_555
Li4 O22 2.427441 1_555
Li5 O26 1.936266 1_555
Li5 O17 2.113387 1_455
Li5 O19 2.241261 1_555
Li5 O16 2.244938 1_555
Li5 O24 2.427441 1_456
Li6 O2 1.980960 1_545
Li6 O23 2.030388 1_555
Li6 O18 2.144412 1_555
Li6 O19 2.219768 1_555
Li7 O0 1.980960 1_545
Li7 O26 2.030388 1_554
Li7 O21 2.144412 1_555
Li7 O20 2.219768 1_555
Fe0 O14 1.985212 1_555
Fe0 O12 1.988190 1_555
Fe0 O7 2.009108 1_555
Fe0 O3 2.045598 1_555
Fe0 O6 2.071503 1_455
Fe0 O0 2.185103 1_555
Fe1 O16 1.985212 1_555
Fe1 O10 1.988190 1_555
Fe1 O8 2.009108 1_455
Fe1 O5 2.045598 1_555
Fe1 O9 2.071503 1_555
Fe1 O2 2.185103 1_555
Fe2 O11 1.985212 1_555
Fe2 O17 1.988190 1_555
Fe2 O18 2.009108 1_555
Fe2 O22 2.045598 1_555
Fe2 O19 2.071503 1_655
Fe2 O25 2.185103 1_555
Fe3 O13 1.985212 1_555
Fe3 O15 1.988190 1_555
Fe3 O21 2.009108 1_655
Fe3 O24 2.045598 1_555
Fe3 O20 2.071503 1_555
Fe3 O27 2.185103 1_555
C0 O23 1.266684 1_565
C0 O3 1.313353 1_555
C0 O0 1.315685 1_555
C1 O26 1.266684 1_565
C1 O5 1.313353 1_555
C1 O2 1.315685 1_555
C2 O1 1.266684 1_545
C2 O22 1.313353 1_555
C2 O25 1.315685 1_555
C3 O4 1.266684 1_545
C3 O24 1.313353 1_555
C3 O27 1.315685 1_555
O6 P0 1.555366 1_555
O7 P0 1.552199 1_555
O8 P1 1.552199 1_555
O9 P1 1.555366 1_555
O10 P2 1.542084 1_555
O11 P0 1.559539 1_555
O12 P3 1.542084 1_555
O13 P1 1.559539 1_554
O14 P2 1.559539 1_555
O15 P0 1.542084 1_555
O16 P3 1.559539 1_556
O17 P1 1.542084 1_555
O18 P2 1.552199 1_555
O19 P2 1.555366 1_555
O20 P3 1.555366 1_555
O21 P3 1.552199 1_555
