# generated using pymatgen
data_V4(OF3)3
_symmetry_space_group_name_H-M   'P 1'
_cell_length_a   5.09172957
_cell_length_b   5.28667450
_cell_length_c   17.05014324
_cell_angle_alpha   89.15560630
_cell_angle_beta   98.33591270
_cell_angle_gamma   118.87047784
_symmetry_Int_Tables_number   1
_chemical_formula_structural   V4(OF3)3
_chemical_formula_sum   'V8 O6 F18'
_cell_volume   396.86257887
_cell_formula_units_Z   2
loop_
 _symmetry_equiv_pos_site_id
 _symmetry_equiv_pos_as_xyz
  1  'x, y, z'
loop_
 _atom_site_type_symbol
 _atom_site_label
 _atom_site_symmetry_multiplicity
 _atom_site_fract_x
 _atom_site_fract_y
 _atom_site_fract_z
 _atom_site_occupancy
  V  V0  1  0.24488613  0.62056920  0.87461919  1
  V  V1  1  0.25978363  0.15598179  0.37203973  1
  V  V2  1  0.54388156  0.26231348  0.74812492  1
  V  V3  1  0.49223704  0.72498634  0.25167258  1
  V  V4  1  0.75478569  0.89799958  0.62521009  1
  V  V5  1  0.71734538  0.37826120  0.12813693  1
  V  V6  1  0.95176781  0.97700017  0.99950630  1
  V  V7  1  0.01198013  0.50096442  0.49139341  1
  O  O0  1  0.08019128  0.34404370  0.41835883  1
  O  O1  1  0.59046339  0.78725578  0.95861612  1
  O  O2  1  0.45748688  0.44328238  0.31596754  1
  O  O3  1  0.61293878  0.08120432  0.66729374  1
  O  O4  1  0.57524194  0.56407393  0.16769850  1
  O  O5  1  0.90240061  0.45736490  0.79309459  1
  F  F0  1  0.08982789  0.84834740  0.91493956  1
  F  F1  1  0.02752235  0.32086171  0.94176843  1
  F  F2  1  0.02579982  0.82396262  0.43382019  1
  F  F3  1  0.47096540  0.92926895  0.81231703  1
  F  F4  1  0.09885353  0.02294496  0.70890198  1
  F  F5  1  0.06666787  0.52833506  0.21395484  1
  F  F6  1  0.39628702  0.39543809  0.83267397  1
  F  F7  1  0.42878408  0.92183662  0.33927150  1
  F  F8  1  0.44164692  0.74405715  0.53288357  1
  F  F9  1  0.52597770  0.54866858  0.68068266  1
  F  F10  1  0.57282003  0.29295412  0.46386484  1
  F  F11  1  0.40665466  0.19682682  0.03837353  1
  F  F12  1  0.92994968  0.67818057  0.58044808  1
  F  F13  1  0.92435707  0.96095172  0.28611702  1
  F  F14  1  0.51402146  0.04228413  0.18888975  1
  F  F15  1  0.96865370  0.67717193  0.06361771  1
  F  F16  1  0.00402445  0.21552608  0.56497295  1
  F  F17  1  0.91179408  0.15708632  0.09076793  1
loop_
_geom_bond_atom_site_label_1
_geom_bond_atom_site_label_2
_geom_bond_distance
_geom_bond_site_symmetry_2
O0 V7 1.671399 1_555
O0 V1 1.886490 1_555
O1 V6 1.656311 1_555
O1 V0 1.932084 1_555
O2 V1 1.730345 1_555
O2 V3 1.790154 1_555
O3 V4 1.679531 1_545
O3 V2 1.855875 1_555
O4 V5 1.670599 1_555
O4 V3 1.873716 1_555
O5 V2 1.668324 1_555
O5 V0 1.896608 1_655
F0 V0 1.909417 1_555
F0 V6 1.954548 1_455
F1 V0 1.914880 1_555
F1 V6 1.950087 1_445
F2 V7 1.933648 1_555
F2 V1 1.974830 1_565
F3 V0 1.899010 1_555
F3 V2 1.966106 1_565
F4 V4 1.930581 1_445
F4 V2 1.999936 1_555
F5 V3 1.905265 1_555
F5 V5 1.962384 1_455
F6 V0 1.895590 1_555
F6 V2 1.998246 1_555
F7 V1 1.942491 1_565
F7 V3 1.982065 1_555
F8 V4 1.933781 1_555
F8 V7 1.949691 1_555
F9 V2 1.916752 1_555
F9 V4 1.962867 1_555
F10 V1 1.926491 1_555
F10 V7 1.940626 1_655
F11 V5 1.908126 1_555
F11 V6 2.032906 1_444
F12 V4 1.988173 1_555
F12 V7 1.990332 1_655
F13 V3 1.933539 1_555
F13 V1 1.935143 1_665
F14 V3 1.942639 1_545
F14 V5 1.944390 1_555
F15 V5 1.936218 1_555
F15 V6 1.941156 1_554
F16 V7 1.937154 1_555
F16 V4 1.937312 1_445
F17 V6 1.921371 1_544
F17 V5 2.018967 1_555
