# generated using pymatgen
data_Sn(PO3)2
_symmetry_space_group_name_H-M   'P 1'
_cell_length_a   8.07929323
_cell_length_b   8.07929323
_cell_length_c   11.34132251
_cell_angle_alpha   64.04924756
_cell_angle_beta   64.04924756
_cell_angle_gamma   68.92494480
_symmetry_Int_Tables_number   1
_chemical_formula_structural   Sn(PO3)2
_chemical_formula_sum   'Sn4 P8 O24'
_cell_volume   585.46230983
_cell_formula_units_Z   4
loop_
 _symmetry_equiv_pos_site_id
 _symmetry_equiv_pos_as_xyz
  1  'x, y, z'
loop_
 _atom_site_type_symbol
 _atom_site_label
 _atom_site_symmetry_multiplicity
 _atom_site_fract_x
 _atom_site_fract_y
 _atom_site_fract_z
 _atom_site_occupancy
  Sn  Sn0  1  0.01134100  0.98865900  0.25000000  1
  Sn  Sn1  1  0.00000000  0.50000000  0.50000000  1
  Sn  Sn2  1  0.50000000  0.00000000  0.00000000  1
  Sn  Sn3  1  0.98865900  0.01134100  0.75000000  1
  P  P0  1  0.68849500  0.67909800  0.81074300  1
  P  P1  1  0.27169600  0.70615500  0.97950000  1
  P  P2  1  0.67909800  0.68849500  0.31074300  1
  P  P3  1  0.29384500  0.72830400  0.52050000  1
  P  P4  1  0.70615500  0.27169600  0.47950000  1
  P  P5  1  0.32090200  0.31150500  0.68925700  1
  P  P6  1  0.72830400  0.29384500  0.02050000  1
  P  P7  1  0.31150500  0.32090200  0.18925700  1
  O  O0  1  0.78660400  0.64114000  0.67655400  1
  O  O1  1  0.29098600  0.78393000  0.07102600  1
  O  O2  1  0.46811000  0.68289400  0.85404000  1
  O  O3  1  0.85345900  0.71068600  0.31729600  1
  O  O4  1  0.11867800  0.80683100  0.91544300  1
  O  O5  1  0.78393000  0.29098600  0.57102600  1
  O  O6  1  0.24669800  0.49129800  0.06250700  1
  O  O7  1  0.19316900  0.88132200  0.58455700  1
  O  O8  1  0.50870200  0.75330200  0.43749300  1
  O  O9  1  0.64114000  0.78660400  0.17655400  1
  O  O10  1  0.31710600  0.53189000  0.64596000  1
  O  O11  1  0.28931400  0.14654100  0.18270400  1
  O  O12  1  0.71068600  0.85345900  0.81729600  1
  O  O13  1  0.68289400  0.46811000  0.35404000  1
  O  O14  1  0.35886000  0.21339600  0.82344600  1
  O  O15  1  0.49129800  0.24669800  0.56250700  1
  O  O16  1  0.80683100  0.11867800  0.41544300  1
  O  O17  1  0.75330200  0.50870200  0.93749300  1
  O  O18  1  0.21607000  0.70901400  0.42897400  1
  O  O19  1  0.88132200  0.19316900  0.08455700  1
  O  O20  1  0.14654100  0.28931400  0.68270400  1
  O  O21  1  0.53189000  0.31710600  0.14596000  1
  O  O22  1  0.70901400  0.21607000  0.92897400  1
  O  O23  1  0.21339600  0.35886000  0.32344600  1
loop_
_geom_bond_atom_site_label_1
_geom_bond_atom_site_label_2
_geom_bond_distance
_geom_bond_site_symmetry_2
O0 P0 1.488740 1_555
O0 Sn1 2.417699 1_655
O1 P1 1.509803 1_554
O1 Sn2 2.499369 1_565
O2 P0 1.618992 1_555
O2 P1 1.619111 1_555
O3 P2 1.518905 1_555
O3 Sn1 2.490704 1_655
O3 Sn0 2.638444 1_655
O4 P1 1.504481 1_555
O4 Sn3 2.262219 1_465
O5 P4 1.509803 1_555
O5 Sn1 2.499369 1_655
O6 P1 1.611169 1_554
O6 P7 1.626089 1_555
O7 P3 1.504481 1_555
O7 Sn3 2.262219 1_465
O8 P3 1.611169 1_555
O8 P2 1.626089 1_555
O9 P2 1.488740 1_555
O9 Sn2 2.417699 1_565
O10 P5 1.618992 1_555
O10 P3 1.619111 1_555
O11 P7 1.518905 1_555
O11 Sn2 2.490704 1_555
O11 Sn0 2.638444 1_545
O12 P0 1.518905 1_555
O12 Sn2 2.490704 1_566
O12 Sn3 2.638444 1_565
O13 P2 1.618992 1_555
O13 P4 1.619111 1_555
O14 P5 1.488740 1_555
O14 Sn2 2.417699 1_556
O15 P4 1.611169 1_555
O15 P5 1.626089 1_555
O16 P4 1.504481 1_555
O16 Sn0 2.262219 1_645
O17 P6 1.611169 1_556
O17 P0 1.626089 1_555
O18 P3 1.509803 1_555
O18 Sn1 2.499369 1_555
O19 P6 1.504481 1_555
O19 Sn0 2.262219 1_645
O20 P5 1.518905 1_555
O20 Sn1 2.490704 1_555
O20 Sn3 2.638444 1_455
O21 P7 1.618992 1_555
O21 P6 1.619111 1_555
O22 P6 1.509803 1_556
O22 Sn2 2.499369 1_556
O23 P7 1.488740 1_555
O23 Sn1 2.417699 1_555
