# generated using pymatgen
data_Li2AgF4
_symmetry_space_group_name_H-M   'P 1'
_cell_length_a   8.94437916
_cell_length_b   8.94437916
_cell_length_c   8.94437880
_cell_angle_alpha   105.18632209
_cell_angle_beta   105.18632209
_cell_angle_gamma   105.18632045
_symmetry_Int_Tables_number   1
_chemical_formula_structural   Li2AgF4
_chemical_formula_sum   'Li12 Ag6 F24'
_cell_volume   623.06998669
_cell_formula_units_Z   6
loop_
 _symmetry_equiv_pos_site_id
 _symmetry_equiv_pos_as_xyz
  1  'x, y, z'
loop_
 _atom_site_type_symbol
 _atom_site_label
 _atom_site_symmetry_multiplicity
 _atom_site_fract_x
 _atom_site_fract_y
 _atom_site_fract_z
 _atom_site_occupancy
  Li  Li0  1  0.28554500  0.09887700  0.85430000  1
  Li  Li1  1  0.14570000  0.71445500  0.90112300  1
  Li  Li2  1  0.38923600  0.54973000  0.81106200  1
  Li  Li3  1  0.45027000  0.18893800  0.61076400  1
  Li  Li4  1  0.90112300  0.14570000  0.71445500  1
  Li  Li5  1  0.18893800  0.61076400  0.45027000  1
  Li  Li6  1  0.81106200  0.38923600  0.54973000  1
  Li  Li7  1  0.09887700  0.85430000  0.28554500  1
  Li  Li8  1  0.54973000  0.81106200  0.38923600  1
  Li  Li9  1  0.61076400  0.45027000  0.18893800  1
  Li  Li10  1  0.85430000  0.28554500  0.09887700  1
  Li  Li11  1  0.71445500  0.90112300  0.14570000  1
  Ag  Ag0  1  0.81684600  0.53130200  0.88586800  1
  Ag  Ag1  1  0.53130200  0.88586800  0.81684600  1
  Ag  Ag2  1  0.11413200  0.18315400  0.46869800  1
  Ag  Ag3  1  0.88586800  0.81684600  0.53130200  1
  Ag  Ag4  1  0.46869800  0.11413200  0.18315400  1
  Ag  Ag5  1  0.18315400  0.46869800  0.11413200  1
  F  F0  1  0.26115000  0.56777000  0.94550400  1
  F  F1  1  0.06899500  0.04369200  0.71344100  1
  F  F2  1  0.28655900  0.93100500  0.95630800  1
  F  F3  1  0.43223000  0.05449600  0.73885000  1
  F  F4  1  0.95630800  0.28655900  0.93100500  1
  F  F5  1  0.61519000  0.71886900  0.92308000  1
  F  F6  1  0.33670200  0.33315500  0.67838700  1
  F  F7  1  0.32161300  0.66329800  0.66684500  1
  F  F8  1  0.66684500  0.32161300  0.66329800  1
  F  F9  1  0.92308000  0.61519000  0.71886900  1
  F  F10  1  0.28113100  0.07692000  0.38481000  1
  F  F11  1  0.94550400  0.26115000  0.56777000  1
  F  F12  1  0.05449600  0.73885000  0.43223000  1
  F  F13  1  0.71886900  0.92308000  0.61519000  1
  F  F14  1  0.07692000  0.38481000  0.28113100  1
  F  F15  1  0.33315500  0.67838700  0.33670200  1
  F  F16  1  0.67838700  0.33670200  0.33315500  1
  F  F17  1  0.66329800  0.66684500  0.32161300  1
  F  F18  1  0.38481000  0.28113100  0.07692000  1
  F  F19  1  0.04369200  0.71344100  0.06899500  1
  F  F20  1  0.56777000  0.94550400  0.26115000  1
  F  F21  1  0.71344100  0.06899500  0.04369200  1
  F  F22  1  0.93100500  0.95630800  0.28655900  1
  F  F23  1  0.73885000  0.43223000  0.05449600  1
loop_
_geom_bond_atom_site_label_1
_geom_bond_atom_site_label_2
_geom_bond_distance
_geom_bond_site_symmetry_2
Ag0 F23 2.115286 1_556
Ag0 F19 2.140732 1_656
Ag0 F8 2.146376 1_555
Ag0 F9 2.157376 1_555
Ag1 F3 2.115286 1_565
Ag1 F21 2.140732 1_566
Ag1 F7 2.146376 1_555
Ag1 F5 2.157376 1_555
Ag2 F11 2.115286 1_455
Ag2 F22 2.140732 1_445
Ag2 F6 2.146376 1_555
Ag2 F10 2.157376 1_555
Ag3 F12 2.115286 1_655
Ag3 F1 2.140732 1_665
Ag3 F17 2.146376 1_555
Ag3 F13 2.157376 1_555
Ag4 F20 2.115286 1_545
Ag4 F2 2.140732 1_544
Ag4 F16 2.146376 1_555
Ag4 F18 2.157376 1_555
Ag5 F0 2.115286 1_554
Ag5 F4 2.140732 1_454
Ag5 F15 2.146376 1_555
Ag5 F14 2.157376 1_555
F0 Li2 1.871235 1_555
F0 Li1 1.926960 1_555
F1 Li0 1.864767 1_555
F1 Li4 1.951318 1_455
F2 Li1 1.864767 1_555
F2 Li0 1.951318 1_565
F3 Li3 1.871235 1_555
F3 Li0 1.926960 1_555
F4 Li4 1.864767 1_555
F4 Li10 1.951318 1_556
F5 Li2 1.979944 1_555
F5 Li11 2.006343 1_556
F6 Li2 1.846106 1_555
F6 Li3 1.913432 1_555
F7 Li5 1.846106 1_555
F7 Li2 1.913432 1_555
F8 Li3 1.846106 1_555
F8 Li6 1.913432 1_555
F9 Li6 1.979944 1_555
F9 Li1 2.006343 1_655
F10 Li3 1.979944 1_555
F10 Li7 2.006343 1_545
F11 Li6 1.871235 1_555
F11 Li4 1.926960 1_555
F12 Li5 1.871235 1_555
F12 Li7 1.926960 1_555
F13 Li8 1.979944 1_555
F13 Li4 2.006343 1_565
F14 Li5 1.979944 1_555
F14 Li10 2.006343 1_455
F15 Li8 1.846106 1_555
F15 Li5 1.913432 1_555
F16 Li6 1.846106 1_555
F16 Li9 1.913432 1_555
F17 Li9 1.846106 1_555
F17 Li8 1.913432 1_555
F18 Li9 1.979944 1_555
F18 Li0 2.006343 1_554
F19 Li7 1.864767 1_555
F19 Li1 1.951318 1_554
F20 Li8 1.871235 1_555
F20 Li11 1.926960 1_555
F21 Li10 1.864767 1_555
F21 Li11 1.951318 1_545
F22 Li11 1.864767 1_555
F22 Li7 1.951318 1_655
F23 Li9 1.871235 1_555
F23 Li10 1.926960 1_555
