# generated using pymatgen
data_LiNi5O5F
_symmetry_space_group_name_H-M   'P 1'
_cell_length_a   2.96783800
_cell_length_b   2.96783800
_cell_length_c   12.74738900
_cell_angle_alpha   90.00000000
_cell_angle_beta   90.00000000
_cell_angle_gamma   90.00000000
_symmetry_Int_Tables_number   1
_chemical_formula_structural   LiNi5O5F
_chemical_formula_sum   'Li1 Ni5 O5 F1'
_cell_volume   112.27979768
_cell_formula_units_Z   1
loop_
 _symmetry_equiv_pos_site_id
 _symmetry_equiv_pos_as_xyz
  1  'x, y, z'
loop_
 _atom_site_type_symbol
 _atom_site_label
 _atom_site_symmetry_multiplicity
 _atom_site_fract_x
 _atom_site_fract_y
 _atom_site_fract_z
 _atom_site_occupancy
  Li  Li0  1  0.50000000  0.50000000  0.50000000  1
  Ni  Ni0  1  0.00000000  0.00000000  0.66980000  1
  Ni  Ni1  1  0.50000000  0.50000000  0.83300400  1
  Ni  Ni2  1  0.00000000  0.00000000  0.00000000  1
  Ni  Ni3  1  0.50000000  0.50000000  0.16699600  1
  Ni  Ni4  1  0.00000000  0.00000000  0.33020000  1
  O  O0  1  0.50000000  0.50000000  0.66647200  1
  O  O1  1  0.00000000  0.00000000  0.83356900  1
  O  O2  1  0.50000000  0.50000000  0.00000000  1
  O  O3  1  0.00000000  0.00000000  0.16643100  1
  O  O4  1  0.50000000  0.50000000  0.33352800  1
  F  F0  1  0.00000000  0.00000000  0.50000000  1
loop_
_geom_bond_atom_site_label_1
_geom_bond_atom_site_label_2
_geom_bond_distance
_geom_bond_site_symmetry_2
Li0 O0 2.122083 1_555
Li0 O4 2.122083 1_555
Ni0 O1 2.087627 1_555
Ni0 O0 2.099007 1_545
Ni0 O0 2.099007 1_555
Ni0 O0 2.099007 1_445
Ni0 O0 2.099007 1_455
Ni1 O1 2.098591 1_565
Ni1 O1 2.098591 1_665
Ni1 O1 2.098591 1_655
Ni1 O1 2.098591 1_555
Ni1 O0 2.122848 1_555
Ni1 O2 2.128763 1_556
Ni2 O2 2.098578 1_555
Ni2 O2 2.098578 1_545
Ni2 O2 2.098578 1_455
Ni2 O2 2.098578 1_445
Ni2 O1 2.121561 1_554
Ni2 O3 2.121561 1_555
Ni3 O3 2.098591 1_665
Ni3 O3 2.098591 1_555
Ni3 O3 2.098591 1_655
Ni3 O3 2.098591 1_565
Ni3 O4 2.122848 1_555
Ni3 O2 2.128763 1_555
Ni4 O3 2.087627 1_555
Ni4 O4 2.099007 1_555
Ni4 O4 2.099007 1_545
Ni4 O4 2.099007 1_445
Ni4 O4 2.099007 1_455
F0 Li0 2.098578 1_445
F0 Li0 2.098578 1_545
F0 Li0 2.098578 1_455
F0 Li0 2.098578 1_555
F0 Ni0 2.164507 1_555
F0 Ni4 2.164507 1_555
