# generated using pymatgen
data_Fe3OF5
_symmetry_space_group_name_H-M   'P 1'
_cell_length_a   5.78408694
_cell_length_b   5.78408694
_cell_length_c   7.50100418
_cell_angle_alpha   72.93901148
_cell_angle_beta   72.93901148
_cell_angle_gamma   72.17315444
_symmetry_Int_Tables_number   1
_chemical_formula_structural   Fe3OF5
_chemical_formula_sum   'Fe6 O2 F10'
_cell_volume   222.60170611
_cell_formula_units_Z   2
loop_
 _symmetry_equiv_pos_site_id
 _symmetry_equiv_pos_as_xyz
  1  'x, y, z'
loop_
 _atom_site_type_symbol
 _atom_site_label
 _atom_site_symmetry_multiplicity
 _atom_site_fract_x
 _atom_site_fract_y
 _atom_site_fract_z
 _atom_site_occupancy
  Fe  Fe0  1  0.50000000  0.50000000  0.00000000  1
  Fe  Fe1  1  0.14571000  0.14571000  0.84911800  1
  Fe  Fe2  1  0.50000000  0.50000000  0.50000000  1
  Fe  Fe3  1  0.16375700  0.16375700  0.32747100  1
  Fe  Fe4  1  0.83624300  0.83624300  0.67252900  1
  Fe  Fe5  1  0.85429000  0.85429000  0.15088200  1
  O  O0  1  0.06640600  0.06640600  0.12397300  1
  O  O1  1  0.93359400  0.93359400  0.87602700  1
  F  F0  1  0.46441700  0.86337100  0.82377000  1
  F  F1  1  0.79848200  0.20151800  0.50000000  1
  F  F2  1  0.74282900  0.74282900  0.44644900  1
  F  F3  1  0.38338500  0.38338500  0.81068200  1
  F  F4  1  0.61661500  0.61661500  0.18931800  1
  F  F5  1  0.25717100  0.25717100  0.55355100  1
  F  F6  1  0.20151800  0.79848200  0.50000000  1
  F  F7  1  0.86337100  0.46441700  0.82377000  1
  F  F8  1  0.53558300  0.13662900  0.17623000  1
  F  F9  1  0.13662900  0.53558300  0.17623000  1
loop_
_geom_bond_atom_site_label_1
_geom_bond_atom_site_label_2
_geom_bond_distance
_geom_bond_site_symmetry_2
Fe1 O1 1.918939 1_445
Fe1 O0 1.921033 1_556
Fe3 O0 2.041318 1_555
Fe4 O1 2.041318 1_555
Fe5 O0 1.918939 1_665
Fe5 O1 1.921033 1_554
F0 Fe1 2.057812 1_565
F0 Fe4 2.098378 1_555
F0 Fe0 2.114648 1_556
F1 Fe2 2.033778 1_555
F1 Fe3 2.113120 1_655
F1 Fe4 2.113120 1_545
F2 Fe5 2.079343 1_555
F2 Fe2 2.156991 1_555
F2 Fe4 2.171121 1_555
F3 Fe0 2.080676 1_556
F3 Fe1 2.134224 1_555
F3 Fe2 2.185103 1_555
F4 Fe0 2.080676 1_555
F4 Fe5 2.134224 1_555
F4 Fe2 2.185103 1_555
F5 Fe1 2.079343 1_555
F5 Fe2 2.156991 1_555
F5 Fe3 2.171121 1_555
F6 Fe2 2.033778 1_555
F6 Fe3 2.113120 1_565
F6 Fe4 2.113120 1_455
F7 Fe1 2.057812 1_655
F7 Fe4 2.098378 1_555
F7 Fe0 2.114648 1_556
F8 Fe5 2.057812 1_545
F8 Fe3 2.098378 1_555
F8 Fe0 2.114648 1_555
F9 Fe5 2.057812 1_455
F9 Fe3 2.098378 1_555
F9 Fe0 2.114648 1_555
