# generated using pymatgen
data_In3NO3
_symmetry_space_group_name_H-M   'P 1'
_cell_length_a   6.59776632
_cell_length_b   6.59776632
_cell_length_c   6.59776551
_cell_angle_alpha   59.32398050
_cell_angle_beta   59.32398050
_cell_angle_gamma   59.32398327
_symmetry_Int_Tables_number   1
_chemical_formula_structural   In3NO3
_chemical_formula_sum   'In6 N2 O6'
_cell_volume   199.95838950
_cell_formula_units_Z   2
loop_
 _symmetry_equiv_pos_site_id
 _symmetry_equiv_pos_as_xyz
  1  'x, y, z'
loop_
 _atom_site_type_symbol
 _atom_site_label
 _atom_site_symmetry_multiplicity
 _atom_site_fract_x
 _atom_site_fract_y
 _atom_site_fract_z
 _atom_site_occupancy
  In  In0  1  0.50000000  0.00000000  0.50000000  1
  In  In1  1  0.86489500  0.86489500  0.86489500  1
  In  In2  1  0.50000000  0.50000000  0.50000000  1
  In  In3  1  0.13510500  0.13510500  0.13510500  1
  In  In4  1  0.50000000  0.50000000  0.00000000  1
  In  In5  1  0.00000000  0.50000000  0.50000000  1
  N  N0  1  0.73373200  0.73373200  0.73373200  1
  N  N1  1  0.26626800  0.26626800  0.26626800  1
  O  O0  1  0.73281900  0.26055500  0.26055500  1
  O  O1  1  0.26055500  0.26055500  0.73281900  1
  O  O2  1  0.73944500  0.26718100  0.73944500  1
  O  O3  1  0.73944500  0.73944500  0.26718100  1
  O  O4  1  0.26718100  0.73944500  0.73944500  1
  O  O5  1  0.26055500  0.73281900  0.26055500  1
loop_
_geom_bond_atom_site_label_1
_geom_bond_atom_site_label_2
_geom_bond_distance
_geom_bond_site_symmetry_2
In0 N1 2.177238 1_555
In0 N0 2.177238 1_545
In0 O1 2.292980 1_555
In0 O3 2.292980 1_545
In0 O4 2.292980 1_545
In0 O0 2.292980 1_555
In1 N0 2.130512 1_555
In1 O3 2.151908 1_556
In1 O4 2.151909 1_655
In1 O2 2.151909 1_565
In2 O4 2.223836 1_555
In2 O5 2.223836 1_555
In2 O2 2.223836 1_555
In2 O0 2.223836 1_555
In2 O3 2.223836 1_555
In2 O1 2.223836 1_555
In3 N1 2.130512 1_555
In3 O1 2.151908 1_554
In3 O0 2.151909 1_455
In3 O5 2.151909 1_545
In4 N1 2.177238 1_555
In4 N0 2.177238 1_554
In4 O2 2.292980 1_554
In4 O4 2.292980 1_554
In4 O5 2.292980 1_555
In4 O0 2.292980 1_555
In5 N1 2.177238 1_555
In5 N0 2.177238 1_455
In5 O1 2.292980 1_555
In5 O3 2.292980 1_455
In5 O2 2.292980 1_455
In5 O5 2.292980 1_555
