# generated using pymatgen
data_NaMn6Al3H42(SO19)2
_symmetry_space_group_name_H-M   'P 1'
_cell_length_a   12.35774419
_cell_length_b   12.35774419
_cell_length_c   12.35774403
_cell_angle_alpha   45.72092403
_cell_angle_beta   45.72092403
_cell_angle_gamma   45.72092896
_symmetry_Int_Tables_number   1
_chemical_formula_structural   NaMn6Al3H42(SO19)2
_chemical_formula_sum   'Na1 Mn6 Al3 H42 S2 O38'
_cell_volume   881.80899902
_cell_formula_units_Z   1
loop_
 _symmetry_equiv_pos_site_id
 _symmetry_equiv_pos_as_xyz
  1  'x, y, z'
loop_
 _atom_site_type_symbol
 _atom_site_label
 _atom_site_symmetry_multiplicity
 _atom_site_fract_x
 _atom_site_fract_y
 _atom_site_fract_z
 _atom_site_occupancy
  Na  Na0  1  0.00000000  0.00000000  0.00000000  1
  Mn  Mn0  1  0.16611000  0.49634900  0.83380100  1
  Mn  Mn1  1  0.83380100  0.16611000  0.49634900  1
  Mn  Mn2  1  0.49634900  0.83380100  0.16611000  1
  Mn  Mn3  1  0.83389000  0.50365100  0.16619900  1
  Mn  Mn4  1  0.16619900  0.83389000  0.50365100  1
  Mn  Mn5  1  0.50365100  0.16619900  0.83389000  1
  Al  Al0  1  0.83596000  0.83596000  0.83596000  1
  Al  Al1  1  0.16404000  0.16404000  0.16404000  1
  Al  Al2  1  0.50000000  0.50000000  0.50000000  1
  H  H0  1  0.03997500  0.32625900  0.31013600  1
  H  H1  1  0.31013600  0.03997500  0.32625900  1
  H  H2  1  0.32625900  0.31013600  0.03997500  1
  H  H3  1  0.96002500  0.67374100  0.68986400  1
  H  H4  1  0.68986400  0.96002500  0.67374100  1
  H  H5  1  0.67374100  0.68986400  0.96002500  1
  H  H6  1  0.00780400  0.97908400  0.69940900  1
  H  H7  1  0.69940900  0.00780400  0.97908400  1
  H  H8  1  0.97908400  0.69940900  0.00780400  1
  H  H9  1  0.99219600  0.02091600  0.30059100  1
  H  H10  1  0.30059100  0.99219600  0.02091600  1
  H  H11  1  0.02091600  0.30059100  0.99219600  1
  H  H12  1  0.36267700  0.62655100  0.68983500  1
  H  H13  1  0.68983500  0.36267700  0.62655100  1
  H  H14  1  0.62655100  0.68983500  0.36267700  1
  H  H15  1  0.63732300  0.37344900  0.31016500  1
  H  H16  1  0.31016500  0.63732300  0.37344900  1
  H  H17  1  0.37344900  0.31016500  0.63732300  1
  H  H18  1  0.47008800  0.63800900  0.78431300  1
  H  H19  1  0.78431300  0.47008800  0.63800900  1
  H  H20  1  0.63800900  0.78431300  0.47008800  1
  H  H21  1  0.52991200  0.36199100  0.21568700  1
  H  H22  1  0.21568700  0.52991200  0.36199100  1
  H  H23  1  0.36199100  0.21568700  0.52991200  1
  H  H24  1  0.34872100  0.54967300  0.93960300  1
  H  H25  1  0.93960300  0.34872100  0.54967300  1
  H  H26  1  0.54967300  0.93960300  0.34872100  1
  H  H27  1  0.65127900  0.45032700  0.06039700  1
  H  H28  1  0.06039700  0.65127900  0.45032700  1
  H  H29  1  0.45032700  0.06039700  0.65127900  1
  H  H30  1  0.20932400  0.85395400  0.77732000  1
  H  H31  1  0.77732000  0.20932400  0.85395400  1
  H  H32  1  0.85395400  0.77732000  0.20932400  1
  H  H33  1  0.79067600  0.14604600  0.22268000  1
  H  H34  1  0.22268000  0.79067600  0.14604600  1
  H  H35  1  0.14604600  0.22268000  0.79067600  1
  H  H36  1  0.19933400  0.02986400  0.63172700  1
  H  H37  1  0.63172700  0.19933400  0.02986400  1
  H  H38  1  0.02986400  0.63172700  0.19933400  1
  H  H39  1  0.80066600  0.97013600  0.36827300  1
  H  H40  1  0.36827300  0.80066600  0.97013600  1
  H  H41  1  0.97013600  0.36827300  0.80066600  1
  S  S0  1  0.29532600  0.29532600  0.29532600  1
  S  S1  1  0.70467400  0.70467400  0.70467400  1
  O  O0  1  0.65935300  0.65935300  0.65935300  1
  O  O1  1  0.34064700  0.34064700  0.34064700  1
  O  O2  1  0.11395300  0.39231300  0.33516500  1
  O  O3  1  0.33516500  0.11395300  0.39231300  1
  O  O4  1  0.39231300  0.33516500  0.11395300  1
  O  O5  1  0.88604700  0.60768700  0.66483500  1
  O  O6  1  0.66483500  0.88604700  0.60768700  1
  O  O7  1  0.60768700  0.66483500  0.88604700  1
  O  O8  1  0.00072300  0.29503300  0.29213900  1
  O  O9  1  0.29213900  0.00072300  0.29503300  1
  O  O10  1  0.29503300  0.29213900  0.00072300  1
  O  O11  1  0.99927700  0.70496700  0.70786100  1
  O  O12  1  0.70786100  0.99927700  0.70496700  1
  O  O13  1  0.70496700  0.70786100  0.99927700  1
  O  O14  1  0.96516200  0.96465500  0.66780000  1
  O  O15  1  0.66780000  0.96516200  0.96465500  1
  O  O16  1  0.96465500  0.66780000  0.96516200  1
  O  O17  1  0.03483800  0.03534500  0.33220000  1
  O  O18  1  0.33220000  0.03483800  0.03534500  1
  O  O19  1  0.03534500  0.33220000  0.03483800  1
  O  O20  1  0.33408000  0.62144700  0.63670900  1
  O  O21  1  0.63670900  0.33408000  0.62144700  1
  O  O22  1  0.62144700  0.63670900  0.33408000  1
  O  O23  1  0.66592000  0.37855300  0.36329100  1
  O  O24  1  0.36329100  0.66592000  0.37855300  1
  O  O25  1  0.37855300  0.36329100  0.66592000  1
  O  O26  1  0.36398700  0.64091400  0.82828100  1
  O  O27  1  0.82828100  0.36398700  0.64091400  1
  O  O28  1  0.64091400  0.82828100  0.36398700  1
  O  O29  1  0.63601300  0.35908600  0.17171900  1
  O  O30  1  0.17171900  0.63601300  0.35908600  1
  O  O31  1  0.35908600  0.17171900  0.63601300  1
  O  O32  1  0.13114200  0.97253800  0.74413100  1
  O  O33  1  0.74413100  0.13114200  0.97253800  1
  O  O34  1  0.97253800  0.74413100  0.13114200  1
  O  O35  1  0.86885800  0.02746200  0.25586900  1
  O  O36  1  0.25586900  0.86885800  0.02746200  1
  O  O37  1  0.02746200  0.25586900  0.86885800  1
loop_
_geom_bond_atom_site_label_1
_geom_bond_atom_site_label_2
_geom_bond_distance
_geom_bond_site_symmetry_2
Na0 O35 2.512931 1_455
Na0 O32 2.512931 1_544
Na0 O37 2.512931 1_554
Na0 O34 2.512931 1_445
Na0 O36 2.512931 1_545
Na0 O33 2.512931 1_454
Mn0 O11 2.185262 1_455
Mn0 O20 2.189668 1_555
Mn0 O19 2.198385 1_556
Mn0 O10 2.206376 1_556
Mn0 O25 2.242915 1_555
Mn0 O16 2.261971 1_455
Mn1 O12 2.185262 1_545
Mn1 O21 2.189668 1_555
Mn1 O17 2.198385 1_655
Mn1 O8 2.206376 1_655
Mn1 O23 2.242916 1_555
Mn1 O14 2.261971 1_545
Mn2 O13 2.185262 1_554
Mn2 O22 2.189668 1_555
Mn2 O18 2.198385 1_565
Mn2 O9 2.206376 1_565
Mn2 O24 2.242915 1_555
Mn2 O15 2.261971 1_554
Mn3 O8 2.185262 1_655
Mn3 O23 2.189668 1_555
Mn3 O16 2.198385 1_554
Mn3 O13 2.206376 1_554
Mn3 O22 2.242915 1_555
Mn3 O19 2.261971 1_655
Mn4 O9 2.185262 1_565
Mn4 O24 2.189668 1_555
Mn4 O14 2.198385 1_455
Mn4 O11 2.206376 1_455
Mn4 O20 2.242916 1_555
Mn4 O17 2.261971 1_565
Mn5 O10 2.185262 1_556
Mn5 O25 2.189668 1_555
Mn5 O15 2.198385 1_545
Mn5 O12 2.206376 1_545
Mn5 O21 2.242915 1_555
Mn5 O18 2.261971 1_556
Al0 O14 1.922241 1_555
Al0 O16 1.922241 1_555
Al0 O15 1.922241 1_555
Al0 O13 1.937746 1_555
Al0 O12 1.937746 1_555
Al0 O11 1.937746 1_555
Al1 O17 1.922241 1_555
Al1 O19 1.922241 1_555
Al1 O18 1.922241 1_555
Al1 O10 1.937746 1_555
Al1 O9 1.937746 1_555
Al1 O8 1.937746 1_555
Al2 O22 1.928067 1_555
Al2 O25 1.928067 1_555
Al2 O20 1.928067 1_555
Al2 O23 1.928067 1_555
Al2 O21 1.928067 1_555
Al2 O24 1.928067 1_555
H0 O8 0.982590 1_555
H1 O9 0.982590 1_555
H2 O10 0.982590 1_555
H3 O11 0.982590 1_555
H4 O12 0.982590 1_555
H5 O13 0.982590 1_555
H6 O14 0.988903 1_455
H7 O15 0.988903 1_545
H8 O16 0.988903 1_554
H9 O17 0.988903 1_655
H10 O18 0.988903 1_565
H11 O19 0.988903 1_556
H12 O20 0.986297 1_555
H13 O21 0.986297 1_555
H14 O22 0.986297 1_555
H15 O23 0.986297 1_555
H16 O24 0.986297 1_555
H17 O25 0.986297 1_555
H18 O26 0.991178 1_555
H19 O27 0.991178 1_555
H20 O28 0.991178 1_555
H21 O29 0.991178 1_555
H22 O30 0.991178 1_555
H23 O31 0.991178 1_555
H24 O26 0.983977 1_555
H25 O27 0.983977 1_555
H26 O28 0.983977 1_555
H27 O29 0.983977 1_555
H28 O30 0.983977 1_555
H29 O31 0.983977 1_555
H30 O32 0.993122 1_555
H31 O33 0.993122 1_555
H32 O34 0.993122 1_555
H33 O35 0.993122 1_555
H34 O36 0.993122 1_555
H35 O37 0.993122 1_555
H36 O32 0.983149 1_545
H37 O33 0.983149 1_554
H38 O34 0.983149 1_455
H39 O35 0.983149 1_565
H40 O36 0.983149 1_556
H41 O37 0.983149 1_655
O0 S1 1.501657 1_555
O1 S0 1.501657 1_555
O2 S0 1.494899 1_555
O3 S0 1.494899 1_555
O4 S0 1.494899 1_555
O5 S1 1.494899 1_555
O6 S1 1.494899 1_555
O7 S1 1.494899 1_555
