# generated using pymatgen
data_K4Ti2H2O5F8
_symmetry_space_group_name_H-M   'P 1'
_cell_length_a   9.29117343
_cell_length_b   9.29117343
_cell_length_c   12.59588411
_cell_angle_alpha   63.32122186
_cell_angle_beta   63.32122186
_cell_angle_gamma   41.67257981
_symmetry_Int_Tables_number   1
_chemical_formula_structural   K4Ti2H2O5F8
_chemical_formula_sum   'K8 Ti4 H4 O10 F16'
_cell_volume   634.06070626
_cell_formula_units_Z   2
loop_
 _symmetry_equiv_pos_site_id
 _symmetry_equiv_pos_as_xyz
  1  'x, y, z'
loop_
 _atom_site_type_symbol
 _atom_site_label
 _atom_site_symmetry_multiplicity
 _atom_site_fract_x
 _atom_site_fract_y
 _atom_site_fract_z
 _atom_site_occupancy
  K  K0  1  0.95632800  0.40973400  0.17115300  1
  K  K1  1  0.59026600  0.04367200  0.32884700  1
  K  K2  1  0.04367200  0.59026600  0.82884700  1
  K  K3  1  0.40973400  0.95632800  0.67115300  1
  K  K4  1  0.82487400  0.31478100  0.86441900  1
  K  K5  1  0.68521900  0.17512600  0.63558100  1
  K  K6  1  0.17512600  0.68521900  0.13558100  1
  K  K7  1  0.31478100  0.82487400  0.36441900  1
  Ti  Ti0  1  0.00066500  0.65926300  0.53194200  1
  Ti  Ti1  1  0.34073700  0.99933500  0.96805800  1
  Ti  Ti2  1  0.99933500  0.34073700  0.46805800  1
  Ti  Ti3  1  0.65926300  0.00066500  0.03194200  1
  H  H0  1  0.45727100  0.59577200  0.67990200  1
  H  H1  1  0.40422800  0.54272900  0.82009800  1
  H  H2  1  0.54272900  0.40422800  0.32009800  1
  H  H3  1  0.59577200  0.45727100  0.17990200  1
  O  O0  1  0.52868900  0.25935400  0.07220400  1
  O  O1  1  0.74064600  0.47131100  0.42779600  1
  O  O2  1  0.47131100  0.74064600  0.92779600  1
  O  O3  1  0.25935400  0.52868900  0.57220400  1
  O  O4  1  0.76473400  0.07683200  0.07615800  1
  O  O5  1  0.92316800  0.23526600  0.42384200  1
  O  O6  1  0.23526600  0.92316800  0.92384200  1
  O  O7  1  0.07683200  0.76473400  0.57615800  1
  O  O8  1  0.34206100  0.65793900  0.75000000  1
  O  O9  1  0.65793900  0.34206100  0.25000000  1
  F  F0  1  0.71843600  0.09467400  0.86184500  1
  F  F1  1  0.90532600  0.28156400  0.63815500  1
  F  F2  1  0.28156400  0.90532600  0.13815500  1
  F  F3  1  0.09467400  0.71843600  0.36184500  1
  F  F4  1  0.96774100  0.71806300  0.02195700  1
  F  F5  1  0.28193700  0.03225900  0.47804300  1
  F  F6  1  0.03225900  0.28193700  0.97804300  1
  F  F7  1  0.71806300  0.96774100  0.52195700  1
  F  F8  1  0.59896400  0.87360600  0.19379500  1
  F  F9  1  0.12639400  0.40103600  0.30620500  1
  F  F10  1  0.40103600  0.12639400  0.80620500  1
  F  F11  1  0.87360600  0.59896400  0.69379500  1
  F  F12  1  0.34601900  0.19192500  0.01467200  1
  F  F13  1  0.80807500  0.65398100  0.48532800  1
  F  F14  1  0.65398100  0.80807500  0.98532800  1
  F  F15  1  0.19192500  0.34601900  0.51467200  1
loop_
_geom_bond_atom_site_label_1
_geom_bond_atom_site_label_2
_geom_bond_distance
_geom_bond_site_symmetry_2
K0 O5 2.843514 1_555
K0 O9 2.939170 1_555
K0 O1 2.987305 1_555
K1 O4 2.843514 1_555
K1 O9 2.939170 1_555
K1 O0 2.987305 1_555
K2 O7 2.843514 1_555
K2 O8 2.939170 1_555
K2 O3 2.987305 1_555
K3 O6 2.843514 1_555
K3 O8 2.939170 1_555
K3 O2 2.987305 1_555
K4 O4 2.743276 1_556
K4 O6 2.780166 1_645
K4 O2 2.854517 1_555
K4 O0 3.021154 1_556
K5 O5 2.743276 1_555
K5 O7 2.780166 1_645
K5 O3 2.854517 1_555
K5 O1 3.021154 1_555
K6 O6 2.743276 1_554
K6 O4 2.780166 1_465
K6 O0 2.854517 1_555
K6 O2 3.021154 1_554
K7 O7 2.743276 1_555
K7 O5 2.780166 1_465
K7 O1 2.854517 1_555
K7 O3 3.021154 1_555
H0 O8 0.971924 1_555
H0 K5 2.933219 1_555
H0 K3 2.988552 1_555
H1 O8 0.971924 1_555
H1 K4 2.933219 1_555
H1 K2 2.988552 1_555
H2 O9 0.971924 1_555
H2 K7 2.933219 1_555
H2 K1 2.988552 1_555
H3 O9 0.971924 1_555
H3 K6 2.933219 1_555
H3 K0 2.988552 1_555
O0 O4 1.467742 1_555
O0 Ti3 1.921426 1_555
O1 O5 1.467742 1_555
O1 Ti2 1.921426 1_555
O2 O6 1.467742 1_555
O2 Ti1 1.921426 1_555
O3 O7 1.467742 1_555
O3 Ti0 1.921426 1_555
O4 Ti3 1.910844 1_555
O5 Ti2 1.910844 1_555
O6 Ti1 1.910844 1_555
O7 Ti0 1.910844 1_555
F0 Ti3 1.906506 1_556
F0 K5 2.703454 1_555
F0 K4 2.875923 1_555
F0 K2 3.276054 1_645
F1 Ti2 1.906506 1_555
F1 K4 2.703454 1_555
F1 K5 2.875923 1_555
F1 K3 3.276054 1_645
F2 Ti1 1.906506 1_554
F2 K7 2.703454 1_555
F2 K6 2.875923 1_555
F2 K0 3.276054 1_465
F3 Ti0 1.906506 1_555
F3 K6 2.703454 1_555
F3 K7 2.875923 1_555
F3 K1 3.276054 1_465
F4 Ti3 1.963433 1_565
F4 K6 2.657055 1_655
F4 K0 2.681440 1_555
F4 K2 2.761388 1_654
F5 Ti2 1.963433 1_455
F5 K7 2.657055 1_545
F5 K1 2.681440 1_555
F5 K3 2.761388 1_545
F6 Ti1 1.963433 1_545
F6 K4 2.657055 1_455
F6 K2 2.681440 1_555
F6 K0 2.761388 1_456
F7 Ti0 1.963433 1_655
F7 K5 2.657055 1_565
F7 K3 2.681440 1_555
F7 K1 2.761388 1_565
F8 Ti3 1.914415 1_565
F8 K1 2.737975 1_565
F8 K7 2.758998 1_555
F8 K0 2.925120 1_555
F9 Ti2 1.914415 1_455
F9 K0 2.737975 1_455
F9 K6 2.758998 1_555
F9 K1 2.925120 1_555
F10 Ti1 1.914415 1_545
F10 K3 2.737975 1_545
F10 K5 2.758998 1_555
F10 K2 2.925120 1_555
F11 Ti0 1.914415 1_655
F11 K2 2.737975 1_655
F11 K4 2.758998 1_555
F11 K3 2.925120 1_555
F12 Ti3 2.042221 1_555
F12 Ti1 2.156283 1_544
F12 K0 2.704980 1_455
F12 K2 3.108235 1_554
F13 Ti2 2.042221 1_555
F13 Ti0 2.156283 1_655
F13 K1 2.704980 1_565
F13 K3 3.108235 1_555
F14 Ti1 2.042221 1_555
F14 Ti3 2.156283 1_566
F14 K2 2.704980 1_655
F14 K0 3.108235 1_556
F15 Ti0 2.042221 1_555
F15 Ti2 2.156283 1_455
F15 K3 2.704980 1_545
F15 K1 3.108235 1_555
