# generated using pymatgen
data_Mn2VFe3(PO4)6
_symmetry_space_group_name_H-M   'P 1'
_cell_length_a   8.62569822
_cell_length_b   8.62569822
_cell_length_c   8.62569796
_cell_angle_alpha   60.12671954
_cell_angle_beta   60.12671954
_cell_angle_gamma   60.12671720
_symmetry_Int_Tables_number   1
_chemical_formula_structural   Mn2VFe3(PO4)6
_chemical_formula_sum   'Mn2 V1 Fe3 P6 O24'
_cell_volume   455.10616996
_cell_formula_units_Z   1
loop_
 _symmetry_equiv_pos_site_id
 _symmetry_equiv_pos_as_xyz
  1  'x, y, z'
loop_
 _atom_site_type_symbol
 _atom_site_label
 _atom_site_symmetry_multiplicity
 _atom_site_fract_x
 _atom_site_fract_y
 _atom_site_fract_z
 _atom_site_occupancy
  Mn  Mn0  1  0.99786700  0.99786700  0.99786700  1
  Mn  Mn1  1  0.49882600  0.49882600  0.49882600  1
  V  V0  1  0.14528400  0.14528400  0.14528400  1
  Fe  Fe0  1  0.64530600  0.64530600  0.64530600  1
  Fe  Fe1  1  0.85387400  0.85387400  0.85387400  1
  Fe  Fe2  1  0.35614300  0.35614300  0.35614300  1
  P  P0  1  0.95717600  0.25196500  0.54353300  1
  P  P1  1  0.54353300  0.95717600  0.25196500  1
  P  P2  1  0.25196500  0.54353300  0.95717600  1
  P  P3  1  0.75214100  0.45591000  0.04366200  1
  P  P4  1  0.45591000  0.04366200  0.75214100  1
  P  P5  1  0.04366200  0.75214100  0.45591000  1
  O  O0  1  0.50089100  0.11258200  0.31649500  1
  O  O1  1  0.31649500  0.50089100  0.11258200  1
  O  O2  1  0.11258200  0.31649500  0.50089100  1
  O  O3  1  0.94223800  0.08667800  0.73372700  1
  O  O4  1  0.01182300  0.18473100  0.37503600  1
  O  O5  1  0.76454800  0.41190800  0.54754400  1
  O  O6  1  0.73372700  0.94223800  0.08667800  1
  O  O7  1  0.54754400  0.76454800  0.41190800  1
  O  O8  1  0.81668000  0.61097200  0.00418200  1
  O  O9  1  0.41190800  0.54754400  0.76454800  1
  O  O10  1  0.92029400  0.25807900  0.06596800  1
  O  O11  1  0.61097200  0.00418200  0.81668000  1
  O  O12  1  0.37503600  0.01182300  0.18473100  1
  O  O13  1  0.08667800  0.73372700  0.94223800  1
  O  O14  1  0.59204800  0.43469100  0.23848400  1
  O  O15  1  0.18473100  0.37503600  0.01182300  1
  O  O16  1  0.43469100  0.23848400  0.59204800  1
  O  O17  1  0.25807900  0.06596800  0.92029400  1
  O  O18  1  0.23848400  0.59204800  0.43469100  1
  O  O19  1  0.00418200  0.81668000  0.61097200  1
  O  O20  1  0.06596800  0.92029400  0.25807900  1
  O  O21  1  0.88323500  0.70026300  0.48520800  1
  O  O22  1  0.70026300  0.48520800  0.88323500  1
  O  O23  1  0.48520800  0.88323500  0.70026300  1
loop_
_geom_bond_atom_site_label_1
_geom_bond_atom_site_label_2
_geom_bond_distance
_geom_bond_site_symmetry_2
Mn0 O3 2.234360 1_565
Mn0 O13 2.234360 1_655
Mn0 O6 2.234360 1_556
Mn0 O20 2.292680 1_656
Mn0 O10 2.292680 1_566
Mn0 O17 2.292680 1_665
Mn1 O9 2.219445 1_555
Mn1 O5 2.219445 1_555
Mn1 O7 2.219445 1_555
Mn1 O14 2.234075 1_555
Mn1 O18 2.234075 1_555
Mn1 O16 2.234076 1_555
Fe0 O22 1.958943 1_555
Fe0 O23 1.958943 1_555
Fe0 O21 1.958943 1_555
Fe0 O7 2.141604 1_555
Fe0 O5 2.141604 1_555
Fe0 O9 2.141604 1_555
Fe1 O19 1.929495 1_655
Fe1 O11 1.929495 1_565
Fe1 O8 1.929495 1_556
Fe1 O6 2.086178 1_556
Fe1 O13 2.086178 1_655
Fe1 O3 2.086178 1_565
Fe2 O1 1.940855 1_555
Fe2 O0 1.940855 1_555
Fe2 O2 1.940855 1_555
Fe2 O16 2.064175 1_555
Fe2 O18 2.064175 1_555
Fe2 O14 2.064175 1_555
O0 P1 1.513333 1_545
O1 P2 1.513333 1_554
O2 P0 1.513333 1_455
O3 P0 1.543734 1_555
O4 P0 1.598680 1_455
O4 V0 1.837746 1_555
O5 P0 1.540150 1_555
O6 P1 1.543734 1_555
O7 P1 1.540150 1_555
O8 P3 1.521177 1_555
O9 P2 1.540150 1_555
O10 P3 1.593124 1_555
O10 V0 1.989874 1_655
O11 P4 1.521177 1_555
O12 P1 1.598680 1_545
O12 V0 1.837746 1_555
O13 P2 1.543734 1_555
O14 P3 1.548582 1_555
O15 P2 1.598680 1_554
O15 V0 1.837746 1_555
O16 P4 1.548582 1_555
O17 P4 1.593124 1_555
O17 V0 1.989874 1_556
O18 P5 1.548582 1_555
O19 P5 1.521177 1_555
O20 P5 1.593124 1_555
O20 V0 1.989874 1_565
O21 P5 1.528015 1_655
O22 P3 1.528015 1_556
O23 P4 1.528015 1_565
