# generated using pymatgen
data_Li8MnFe7(BO3)8
_symmetry_space_group_name_H-M   'P 1'
_cell_length_a   5.97357000
_cell_length_b   9.08444229
_cell_length_c   9.71304613
_cell_angle_alpha   81.39135390
_cell_angle_beta   79.05391957
_cell_angle_gamma   75.85212365
_symmetry_Int_Tables_number   1
_chemical_formula_structural   Li8MnFe7(BO3)8
_chemical_formula_sum   'Li8 Mn1 Fe7 B8 O24'
_cell_volume   498.84576532
_cell_formula_units_Z   1
loop_
 _symmetry_equiv_pos_site_id
 _symmetry_equiv_pos_as_xyz
  1  'x, y, z'
loop_
 _atom_site_type_symbol
 _atom_site_label
 _atom_site_symmetry_multiplicity
 _atom_site_fract_x
 _atom_site_fract_y
 _atom_site_fract_z
 _atom_site_occupancy
  Li  Li0  1  0.19937200  0.68922400  0.12069200  1
  Li  Li1  1  0.29794000  0.31449600  0.37750000  1
  Li  Li2  1  0.04960400  0.81204200  0.62841400  1
  Li  Li3  1  0.44936800  0.18665900  0.87329500  1
  Li  Li4  1  0.55092200  0.81289200  0.12850900  1
  Li  Li5  1  0.94955300  0.18731100  0.37129500  1
  Li  Li6  1  0.69782800  0.68813500  0.62050800  1
  Li  Li7  1  0.80342200  0.31027900  0.87907000  1
  Mn  Mn0  1  0.63155400  0.37583200  0.60667300  1
  Fe  Fe0  1  0.12985200  0.37900700  0.10178300  1
  Fe  Fe1  1  0.12257700  0.11687100  0.64239100  1
  Fe  Fe2  1  0.61651800  0.12707400  0.14821500  1
  Fe  Fe3  1  0.37018100  0.62586500  0.38768200  1
  Fe  Fe4  1  0.38106700  0.87258300  0.86121900  1
  Fe  Fe5  1  0.88099200  0.87067800  0.35906600  1
  Fe  Fe6  1  0.86746900  0.62886100  0.88921700  1
  B  B0  1  0.14513500  0.04025500  0.11295300  1
  B  B1  1  0.10129900  0.45982400  0.63758600  1
  B  B2  1  0.60559700  0.46081900  0.13769300  1
  B  B3  1  0.35223400  0.96123300  0.38813900  1
  B  B4  1  0.64882800  0.03780000  0.61238800  1
  B  B5  1  0.39738400  0.53925300  0.86352000  1
  B  B6  1  0.89821700  0.53982100  0.35991800  1
  B  B7  1  0.85125800  0.96100300  0.88929300  1
  O  O0  1  0.25611600  0.15931200  0.05859000  1
  O  O1  1  0.01038400  0.65900900  0.30302800  1
  O  O2  1  0.27186600  0.10464100  0.43452900  1
  O  O3  1  0.01712900  0.60185700  0.68709000  1
  O  O4  1  0.23061100  0.89817800  0.06378200  1
  O  O5  1  0.29177200  0.44009900  0.52778900  1
  O  O6  1  0.04408400  0.93680400  0.78015200  1
  O  O7  1  0.49486900  0.34213100  0.19444400  1
  O  O8  1  0.24140500  0.84206700  0.44528400  1
  O  O9  1  0.45779700  0.06119600  0.72200400  1
  O  O10  1  0.20449600  0.56484800  0.97236200  1
  O  O11  1  0.51956600  0.60316100  0.18555600  1
  O  O12  1  0.48076500  0.39663500  0.81844300  1
  O  O13  1  0.79505100  0.43893200  0.02752000  1
  O  O14  1  0.54354900  0.93650200  0.27852600  1
  O  O15  1  0.76292500  0.15476200  0.55607700  1
  O  O16  1  0.50635700  0.65927200  0.80571100  1
  O  O17  1  0.95431600  0.06122000  0.22236100  1
  O  O18  1  0.70592300  0.56694100  0.46802100  1
  O  O19  1  0.76702800  0.10171600  0.93764200  1
  O  O20  1  0.98067600  0.39738500  0.31322400  1
  O  O21  1  0.73071500  0.89534700  0.56437900  1
  O  O22  1  0.99204100  0.34000800  0.69155200  1
  O  O23  1  0.74238900  0.84016200  0.94491200  1
loop_
_geom_bond_atom_site_label_1
_geom_bond_atom_site_label_2
_geom_bond_distance
_geom_bond_site_symmetry_2
Li0 O1 1.932111 1_555
Li0 O4 1.939980 1_555
Li0 O10 1.951149 1_554
Li0 O11 2.060527 1_555
Li1 O2 1.939528 1_555
Li1 O7 1.955676 1_555
Li1 O5 1.972787 1_555
Li1 O20 2.039494 1_455
Li2 O8 1.945411 1_555
Li2 O3 1.954895 1_555
Li2 O6 1.980207 1_555
Li2 O21 2.047572 1_455
Li3 O12 1.946880 1_555
Li3 O0 1.962365 1_556
Li3 O9 1.976427 1_555
Li3 O19 2.043783 1_555
Li4 O23 1.944556 1_554
Li4 O11 1.947108 1_555
Li4 O14 1.956375 1_555
Li4 O4 2.059844 1_555
Li5 O15 1.947812 1_555
Li5 O20 1.950921 1_555
Li5 O17 1.967248 1_555
Li5 O2 2.062136 1_655
Li6 O21 1.926693 1_555
Li6 O16 1.958816 1_555
Li6 O18 1.960393 1_555
Li6 O3 2.063129 1_655
Li7 O19 1.947416 1_555
Li7 O22 1.970275 1_555
Li7 O13 1.973850 1_556
Li7 O12 2.056868 1_555
Mn0 O15 2.066199 1_555
Mn0 O12 2.099419 1_555
Mn0 O18 2.115426 1_555
Mn0 O5 2.219246 1_555
Mn0 O22 2.382020 1_555
Fe0 O0 2.030456 1_555
Fe0 O10 2.036926 1_554
Fe0 O20 2.091575 1_455
Fe0 O13 2.171303 1_455
Fe0 O7 2.444296 1_555
Fe1 O6 2.041467 1_545
Fe1 O2 2.053978 1_555
Fe1 O22 2.078640 1_455
Fe1 O9 2.199886 1_555
Fe1 O15 2.381832 1_455
Fe2 O7 1.997801 1_555
Fe2 O14 2.071861 1_545
Fe2 O19 2.094310 1_554
Fe2 O17 2.186573 1_555
Fe2 O0 2.409506 1_555
Fe3 O11 2.014734 1_555
Fe3 O8 2.046778 1_555
Fe3 O5 2.091908 1_555
Fe3 O18 2.205061 1_555
Fe3 O1 2.380504 1_555
Fe4 O16 2.014072 1_555
Fe4 O4 2.023894 1_556
Fe4 O9 2.104604 1_565
Fe4 O6 2.214235 1_555
Fe4 O23 2.385390 1_555
Fe5 O1 2.004546 1_655
Fe5 O21 2.046595 1_555
Fe5 O17 2.100690 1_565
Fe5 O14 2.214120 1_555
Fe5 O8 2.397929 1_655
Fe6 O23 1.997957 1_555
Fe6 O3 2.020955 1_655
Fe6 O13 2.102146 1_556
Fe6 O10 2.224435 1_655
Fe6 O16 2.386096 1_555
B0 O4 1.387249 1_545
B0 O0 1.390941 1_555
B0 O17 1.399756 1_455
B1 O3 1.387671 1_555
B1 O22 1.389973 1_455
B1 O5 1.400274 1_555
B2 O11 1.384453 1_555
B2 O7 1.391454 1_555
B2 O13 1.399726 1_555
B3 O2 1.385130 1_565
B3 O8 1.396151 1_555
B3 O14 1.405022 1_555
B4 O21 1.384201 1_545
B4 O15 1.389653 1_555
B4 O9 1.403116 1_555
B5 O12 1.374742 1_555
B5 O16 1.397379 1_555
B5 O10 1.406896 1_555
B6 O20 1.379097 1_555
B6 O1 1.400566 1_655
B6 O18 1.401333 1_555
B7 O19 1.372338 1_565
B7 O23 1.399259 1_555
B7 O6 1.407535 1_655
