# generated using pymatgen
data_Li3V2O6
_symmetry_space_group_name_H-M   'P 1'
_cell_length_a   4.98571500
_cell_length_b   5.09131080
_cell_length_c   5.16367733
_cell_angle_alpha   100.25780335
_cell_angle_beta   101.62566310
_cell_angle_gamma   118.43429586
_symmetry_Int_Tables_number   1
_chemical_formula_structural   Li3V2O6
_chemical_formula_sum   'Li3 V2 O6'
_cell_volume   107.03095813
_cell_formula_units_Z   1
loop_
 _symmetry_equiv_pos_site_id
 _symmetry_equiv_pos_as_xyz
  1  'x, y, z'
loop_
 _atom_site_type_symbol
 _atom_site_label
 _atom_site_symmetry_multiplicity
 _atom_site_fract_x
 _atom_site_fract_y
 _atom_site_fract_z
 _atom_site_occupancy
  Li  Li0  1  0.00418600  0.49522800  0.99765400  1
  Li  Li1  1  0.65202800  0.84941700  0.99755700  1
  Li  Li2  1  0.35465500  0.15215400  0.00561000  1
  V  V0  1  0.83310600  0.67039000  0.48934100  1
  V  V1  1  0.16748700  0.31850100  0.51034100  1
  O  O0  1  0.80859700  0.29350800  0.25982400  1
  O  O1  1  0.20233800  0.69922600  0.73394100  1
  O  O2  1  0.96516300  0.09411800  0.72649500  1
  O  O3  1  0.42678900  0.54360000  0.27264900  1
  O  O4  1  0.57494900  0.45431900  0.73015800  1
  O  O5  1  0.05845400  0.93366700  0.27363300  1
loop_
_geom_bond_atom_site_label_1
_geom_bond_atom_site_label_2
_geom_bond_distance
_geom_bond_site_symmetry_2
Li0 O0 1.977842 1_456
Li0 O1 1.994445 1_555
Li0 O2 2.159231 1_455
Li0 O3 2.166066 1_556
Li0 O4 2.193811 1_455
Li0 O5 2.285467 1_556
Li1 O5 2.027929 1_656
Li1 O4 2.039939 1_555
Li1 O1 2.056932 1_555
Li1 O0 2.087615 1_566
Li1 O3 2.338519 1_556
Li1 O2 2.366030 1_565
Li2 O2 2.027166 1_454
Li2 O3 2.035060 1_555
Li2 O0 2.068410 1_555
Li2 O1 2.147805 1_544
Li2 O5 2.267450 1_545
Li2 O4 2.322921 1_554
O0 V1 1.919091 1_655
O0 V0 2.002452 1_555
O1 V0 1.935242 1_455
O1 V1 1.980390 1_555
O2 V1 1.838180 1_655
O2 V0 1.992157 1_545
O3 V0 1.832038 1_555
O3 V1 2.054443 1_555
O4 V1 1.829438 1_555
O4 V0 2.048654 1_555
O5 V1 1.869054 1_565
O5 V0 1.975259 1_455
