# generated using pymatgen
data_Li2(NiO2)3
_symmetry_space_group_name_H-M   'P 1'
_cell_length_a   4.94154545
_cell_length_b   4.94154545
_cell_length_c   9.79242805
_cell_angle_alpha   89.60848928
_cell_angle_beta   89.60848928
_cell_angle_gamma   59.08782568
_symmetry_Int_Tables_number   1
_chemical_formula_structural   Li2(NiO2)3
_chemical_formula_sum   'Li4 Ni6 O12'
_cell_volume   205.14809072
_cell_formula_units_Z   2
loop_
 _symmetry_equiv_pos_site_id
 _symmetry_equiv_pos_as_xyz
  1  'x, y, z'
loop_
 _atom_site_type_symbol
 _atom_site_label
 _atom_site_symmetry_multiplicity
 _atom_site_fract_x
 _atom_site_fract_y
 _atom_site_fract_z
 _atom_site_occupancy
  Li  Li0  1  0.20551800  0.65341300  0.50264800  1
  Li  Li1  1  0.98333400  0.53981800  0.00372800  1
  Li  Li2  1  0.65341300  0.20551800  0.00264800  1
  Li  Li3  1  0.53981800  0.98333400  0.50372800  1
  Ni  Ni0  1  0.29867300  0.58342000  0.24498700  1
  Ni  Ni1  1  0.25275700  0.96551200  0.75519500  1
  Ni  Ni2  1  0.96551200  0.25275700  0.25519500  1
  Ni  Ni3  1  0.91659600  0.63296400  0.74672600  1
  Ni  Ni4  1  0.63296400  0.91659600  0.24672600  1
  Ni  Ni5  1  0.58342000  0.29867300  0.74498700  1
  O  O0  1  0.66704200  0.57526900  0.14521400  1
  O  O1  1  0.57526900  0.66704200  0.64521400  1
  O  O2  1  0.30106300  0.91103200  0.34893500  1
  O  O3  1  0.24360900  0.60529400  0.85366100  1
  O  O4  1  0.95232300  0.91983800  0.14630500  1
  O  O5  1  0.91103200  0.30106300  0.84893500  1
  O  O6  1  0.93845100  0.60449000  0.35696800  1
  O  O7  1  0.91983800  0.95232300  0.64630500  1
  O  O8  1  0.60529400  0.24360900  0.35366100  1
  O  O9  1  0.60449000  0.93845100  0.85696800  1
  O  O10  1  0.31678500  0.25756200  0.14196300  1
  O  O11  1  0.25756200  0.31678500  0.64196300  1
loop_
_geom_bond_atom_site_label_1
_geom_bond_atom_site_label_2
_geom_bond_distance
_geom_bond_site_symmetry_2
Li0 O7 2.003107 1_455
Li0 O6 2.047789 1_455
Li0 O11 2.056359 1_555
Li0 O2 2.165845 1_555
Li0 O1 2.335500 1_555
Li0 O8 2.454119 1_555
Li1 O0 2.021276 1_555
Li1 O10 2.033778 1_655
Li1 O5 2.069351 1_554
Li1 O3 2.076926 1_654
Li1 O4 2.288336 1_555
Li1 O9 2.378974 1_554
Li2 O4 2.003107 1_545
Li2 O9 2.047789 1_544
Li2 O10 2.056359 1_555
Li2 O5 2.165845 1_554
Li2 O0 2.335500 1_555
Li2 O3 2.454119 1_554
Li3 O1 2.021276 1_555
Li3 O11 2.033778 1_565
Li3 O2 2.069351 1_555
Li3 O8 2.076926 1_565
Li3 O7 2.288336 1_555
Li3 O6 2.378974 1_555
Ni0 O10 1.868575 1_555
Ni0 O8 1.905635 1_555
Ni0 O2 1.923399 1_555
Ni0 O4 1.924582 1_455
Ni0 O6 2.041164 1_455
Ni0 O0 2.042211 1_555
Ni1 O1 1.859651 1_555
Ni1 O5 1.888473 1_465
Ni1 O9 1.953243 1_555
Ni1 O7 1.995693 1_455
Ni1 O3 2.039340 1_555
Ni1 O11 2.063694 1_565
Ni2 O0 1.859651 1_555
Ni2 O2 1.888473 1_645
Ni2 O6 1.953243 1_555
Ni2 O4 1.995693 1_545
Ni2 O8 2.039340 1_555
Ni2 O10 2.063694 1_655
Ni3 O9 1.852103 1_555
Ni3 O7 1.860726 1_555
Ni3 O3 1.876345 1_655
Ni3 O1 1.894779 1_555
Ni3 O11 1.904200 1_655
Ni3 O5 1.927685 1_555
Ni4 O6 1.852103 1_555
Ni4 O4 1.860726 1_555
Ni4 O8 1.876345 1_565
Ni4 O0 1.894779 1_555
Ni4 O10 1.904200 1_565
Ni4 O2 1.927685 1_555
Ni5 O11 1.868575 1_555
Ni5 O3 1.905635 1_555
Ni5 O5 1.923399 1_555
Ni5 O7 1.924582 1_545
Ni5 O9 2.041164 1_545
Ni5 O1 2.042211 1_555
