# generated using pymatgen
data_Na5CrO4
_symmetry_space_group_name_H-M   'P 1'
_cell_length_a   6.02218700
_cell_length_b   10.77020700
_cell_length_c   17.96886500
_cell_angle_alpha   90.00000000
_cell_angle_beta   90.00000000
_cell_angle_gamma   90.00000000
_symmetry_Int_Tables_number   1
_chemical_formula_structural   Na5CrO4
_chemical_formula_sum   'Na40 Cr8 O32'
_cell_volume   1165.46418814
_cell_formula_units_Z   8
loop_
 _symmetry_equiv_pos_site_id
 _symmetry_equiv_pos_as_xyz
  1  'x, y, z'
loop_
 _atom_site_type_symbol
 _atom_site_label
 _atom_site_symmetry_multiplicity
 _atom_site_fract_x
 _atom_site_fract_y
 _atom_site_fract_z
 _atom_site_occupancy
  Na  Na0  1  0.91712200  0.92796200  0.43640000  1
  Na  Na1  1  0.58287800  0.92796200  0.93640000  1
  Na  Na2  1  0.40310300  0.92591400  0.75248200  1
  Na  Na3  1  0.09689700  0.92591400  0.25248200  1
  Na  Na4  1  0.08150900  0.83818900  0.00157500  1
  Na  Na5  1  0.41849100  0.83818900  0.50157500  1
  Na  Na6  1  0.89320400  0.82308700  0.82692700  1
  Na  Na7  1  0.60679600  0.82308700  0.32692700  1
  Na  Na8  1  0.40573600  0.80480900  0.13889000  1
  Na  Na9  1  0.09426400  0.80480900  0.63889000  1
  Na  Na10  1  0.90573600  0.69519100  0.13889000  1
  Na  Na11  1  0.59426400  0.69519100  0.63889000  1
  Na  Na12  1  0.39320400  0.67691300  0.82692700  1
  Na  Na13  1  0.10679600  0.67691300  0.32692700  1
  Na  Na14  1  0.58150900  0.66181100  0.00157500  1
  Na  Na15  1  0.91849100  0.66181100  0.50157500  1
  Na  Na16  1  0.59689700  0.57408600  0.25248200  1
  Na  Na17  1  0.90310300  0.57408600  0.75248200  1
  Na  Na18  1  0.08287800  0.57203800  0.93640000  1
  Na  Na19  1  0.41712200  0.57203800  0.43640000  1
  Na  Na20  1  0.91712200  0.42796200  0.06360000  1
  Na  Na21  1  0.58287800  0.42796200  0.56360000  1
  Na  Na22  1  0.09689700  0.42591400  0.24751800  1
  Na  Na23  1  0.40310300  0.42591400  0.74751800  1
  Na  Na24  1  0.41849100  0.33818900  0.99842500  1
  Na  Na25  1  0.08150900  0.33818900  0.49842500  1
  Na  Na26  1  0.60679600  0.32308700  0.17307300  1
  Na  Na27  1  0.89320400  0.32308700  0.67307300  1
  Na  Na28  1  0.40573600  0.30480900  0.36111000  1
  Na  Na29  1  0.09426400  0.30480900  0.86111000  1
  Na  Na30  1  0.90573600  0.19519100  0.36111000  1
  Na  Na31  1  0.59426400  0.19519100  0.86111000  1
  Na  Na32  1  0.39320400  0.17691300  0.67307300  1
  Na  Na33  1  0.10679600  0.17691300  0.17307300  1
  Na  Na34  1  0.58150900  0.16181100  0.49842500  1
  Na  Na35  1  0.91849100  0.16181100  0.99842500  1
  Na  Na36  1  0.90310300  0.07408600  0.74751800  1
  Na  Na37  1  0.59689700  0.07408600  0.24751800  1
  Na  Na38  1  0.08287800  0.07203800  0.56360000  1
  Na  Na39  1  0.41712200  0.07203800  0.06360000  1
  Cr  Cr0  1  0.82412100  0.95979000  0.12201800  1
  Cr  Cr1  1  0.67587900  0.95979000  0.62201800  1
  Cr  Cr2  1  0.32412100  0.54021000  0.12201800  1
  Cr  Cr3  1  0.17587900  0.54021000  0.62201800  1
  Cr  Cr4  1  0.82412100  0.45979000  0.37798200  1
  Cr  Cr5  1  0.67587900  0.45979000  0.87798200  1
  Cr  Cr6  1  0.32412100  0.04021000  0.37798200  1
  Cr  Cr7  1  0.17587900  0.04021000  0.87798200  1
  O  O0  1  0.14020900  0.96959500  0.12015200  1
  O  O1  1  0.35979100  0.96959500  0.62015200  1
  O  O2  1  0.72950400  0.86943800  0.20886200  1
  O  O3  1  0.77049600  0.86943800  0.70886200  1
  O  O4  1  0.69014300  0.85503300  0.04876500  1
  O  O5  1  0.80985700  0.85503300  0.54876500  1
  O  O6  1  0.24948300  0.86374900  0.37538000  1
  O  O7  1  0.25051700  0.86374900  0.87538000  1
  O  O8  1  0.74948300  0.63625100  0.37538000  1
  O  O9  1  0.75051700  0.63625100  0.87538000  1
  O  O10  1  0.19014300  0.64496700  0.04876500  1
  O  O11  1  0.30985700  0.64496700  0.54876500  1
  O  O12  1  0.27049600  0.63056200  0.70886200  1
  O  O13  1  0.22950400  0.63056200  0.20886200  1
  O  O14  1  0.64020900  0.53040500  0.12015200  1
  O  O15  1  0.85979100  0.53040500  0.62015200  1
  O  O16  1  0.14020900  0.46959500  0.37984800  1
  O  O17  1  0.35979100  0.46959500  0.87984800  1
  O  O18  1  0.77049600  0.36943800  0.79113800  1
  O  O19  1  0.72950400  0.36943800  0.29113800  1
  O  O20  1  0.80985700  0.35503300  0.95123500  1
  O  O21  1  0.69014300  0.35503300  0.45123500  1
  O  O22  1  0.24948300  0.36374900  0.12462000  1
  O  O23  1  0.25051700  0.36374900  0.62462000  1
  O  O24  1  0.75051700  0.13625100  0.62462000  1
  O  O25  1  0.74948300  0.13625100  0.12462000  1
  O  O26  1  0.19014300  0.14496700  0.45123500  1
  O  O27  1  0.30985700  0.14496700  0.95123500  1
  O  O28  1  0.27049600  0.13056200  0.79113800  1
  O  O29  1  0.22950400  0.13056200  0.29113800  1
  O  O30  1  0.64020900  0.03040500  0.37984800  1
  O  O31  1  0.85979100  0.03040500  0.87984800  1
loop_
_geom_bond_atom_site_label_1
_geom_bond_atom_site_label_2
_geom_bond_distance
_geom_bond_site_symmetry_2
Na0 O30 2.242971 1_565
Na0 O5 2.260724 1_555
Na0 O6 2.384676 1_655
Na0 O26 2.869991 1_665
Na1 O31 2.242971 1_565
Na1 O4 2.260724 1_556
Na1 O7 2.384676 1_555
Na1 O27 2.869991 1_565
Na2 O3 2.424772 1_555
Na2 O1 2.437906 1_555
Na2 O28 2.445051 1_565
Na2 O7 2.483829 1_555
Na3 O2 2.424772 1_455
Na3 O0 2.437906 1_555
Na3 O29 2.445051 1_565
Na3 O6 2.483829 1_555
Na4 O10 2.340459 1_555
Na4 O7 2.500724 1_554
Na4 O4 2.511336 1_455
Na4 O0 2.582210 1_555
Na5 O11 2.340459 1_555
Na5 O6 2.500724 1_555
Na5 O5 2.511336 1_555
Na5 O1 2.582210 1_555
Na6 O3 2.301309 1_555
Na6 O9 2.354910 1_555
Na6 O7 2.362220 1_655
Na6 O31 2.435244 1_565
Na7 O2 2.301309 1_555
Na7 O8 2.354910 1_555
Na7 O6 2.362220 1_555
Na7 O30 2.435244 1_565
Na8 O0 2.412505 1_555
Na8 O4 2.418412 1_555
Na8 O2 2.422198 1_555
Na8 O13 2.495821 1_555
Na8 O10 2.696657 1_555
Na9 O1 2.412505 1_555
Na9 O5 2.418412 1_455
Na9 O3 2.422198 1_455
Na9 O12 2.495821 1_555
Na9 O11 2.696657 1_555
Na10 O14 2.412505 1_555
Na10 O10 2.418412 1_655
Na10 O13 2.422198 1_655
Na10 O2 2.495821 1_555
Na10 O4 2.696657 1_555
Na11 O15 2.412505 1_555
Na11 O11 2.418412 1_555
Na11 O12 2.422198 1_555
Na11 O3 2.495821 1_555
Na11 O5 2.696657 1_555
Na12 O12 2.301309 1_555
Na12 O7 2.354910 1_555
Na12 O9 2.362220 1_555
Na12 O17 2.435244 1_555
Na13 O13 2.301309 1_555
Na13 O6 2.354910 1_555
Na13 O8 2.362220 1_455
Na13 O16 2.435244 1_555
Na14 O4 2.340459 1_555
Na14 O9 2.500724 1_554
Na14 O10 2.511336 1_555
Na14 O14 2.582210 1_555
Na15 O5 2.340459 1_555
Na15 O8 2.500724 1_555
Na15 O11 2.511336 1_655
Na15 O15 2.582210 1_555
Na16 O13 2.424772 1_555
Na16 O14 2.437906 1_555
Na16 O19 2.445051 1_555
Na16 O8 2.483829 1_555
Na17 O12 2.424772 1_655
Na17 O15 2.437906 1_555
Na17 O18 2.445051 1_555
Na17 O9 2.483829 1_555
Na18 O17 2.242971 1_555
Na18 O10 2.260724 1_556
Na18 O9 2.384676 1_455
Na18 O20 2.869991 1_455
Na19 O16 2.242971 1_555
Na19 O11 2.260724 1_555
Na19 O8 2.384676 1_555
Na19 O21 2.869991 1_555
Na20 O14 2.242971 1_555
Na20 O20 2.260724 1_554
Na20 O22 2.384676 1_655
Na20 O10 2.869991 1_655
Na21 O15 2.242971 1_555
Na21 O21 2.260724 1_555
Na21 O23 2.384676 1_555
Na21 O11 2.869991 1_555
Na22 O19 2.424772 1_455
Na22 O16 2.437906 1_555
Na22 O13 2.445051 1_555
Na22 O22 2.483829 1_555
Na23 O18 2.424772 1_555
Na23 O17 2.437906 1_555
Na23 O12 2.445051 1_555
Na23 O23 2.483829 1_555
Na24 O27 2.340459 1_555
Na24 O22 2.500724 1_556
Na24 O20 2.511336 1_555
Na24 O17 2.582210 1_555
Na25 O26 2.340459 1_555
Na25 O23 2.500724 1_555
Na25 O21 2.511336 1_455
Na25 O16 2.582210 1_555
Na26 O19 2.301309 1_555
Na26 O25 2.354910 1_555
Na26 O22 2.362220 1_555
Na26 O14 2.435244 1_555
Na27 O18 2.301309 1_555
Na27 O24 2.354910 1_555
Na27 O23 2.362220 1_655
Na27 O15 2.435244 1_555
Na28 O16 2.412505 1_555
Na28 O21 2.418412 1_555
Na28 O19 2.422198 1_555
Na28 O29 2.495821 1_555
Na28 O26 2.696657 1_555
Na29 O17 2.412505 1_555
Na29 O20 2.418412 1_455
Na29 O18 2.422198 1_455
Na29 O28 2.495821 1_555
Na29 O27 2.696657 1_555
Na30 O30 2.412505 1_555
Na30 O26 2.418412 1_655
Na30 O29 2.422198 1_655
Na30 O19 2.495821 1_555
Na30 O21 2.696657 1_555
Na31 O31 2.412505 1_555
Na31 O27 2.418412 1_555
Na31 O28 2.422198 1_555
Na31 O18 2.495821 1_555
Na31 O20 2.696657 1_555
Na32 O28 2.301309 1_555
Na32 O23 2.354910 1_555
Na32 O24 2.362220 1_555
Na32 O1 2.435244 1_545
Na33 O29 2.301309 1_555
Na33 O22 2.354910 1_555
Na33 O25 2.362220 1_455
Na33 O0 2.435244 1_545
Na34 O21 2.340459 1_555
Na34 O24 2.500724 1_555
Na34 O26 2.511336 1_555
Na34 O30 2.582210 1_555
Na35 O20 2.340459 1_555
Na35 O25 2.500724 1_556
Na35 O27 2.511336 1_655
Na35 O31 2.582210 1_555
Na36 O28 2.424772 1_655
Na36 O31 2.437906 1_555
Na36 O3 2.445051 1_545
Na36 O24 2.483829 1_555
Na37 O29 2.424772 1_555
Na37 O30 2.437906 1_555
Na37 O2 2.445051 1_545
Na37 O25 2.483829 1_555
Na38 O1 2.242971 1_545
Na38 O26 2.260724 1_555
Na38 O24 2.384676 1_455
Na38 O5 2.869991 1_445
Na39 O0 2.242971 1_545
Na39 O27 2.260724 1_554
Na39 O25 2.384676 1_555
Na39 O4 2.869991 1_545
Cr0 O0 1.906763 1_655
Cr0 O4 1.912204 1_555
Cr0 O2 1.925289 1_555
Cr0 O25 1.953511 1_565
Cr1 O1 1.906763 1_555
Cr1 O5 1.912204 1_555
Cr1 O3 1.925289 1_555
Cr1 O24 1.953511 1_565
Cr2 O14 1.906763 1_555
Cr2 O10 1.912204 1_555
Cr2 O13 1.925289 1_555
Cr2 O22 1.953511 1_555
Cr3 O15 1.906763 1_455
Cr3 O11 1.912204 1_555
Cr3 O12 1.925289 1_555
Cr3 O23 1.953511 1_555
Cr4 O16 1.906763 1_655
Cr4 O21 1.912204 1_555
Cr4 O19 1.925289 1_555
Cr4 O8 1.953511 1_555
Cr5 O17 1.906763 1_555
Cr5 O20 1.912204 1_555
Cr5 O18 1.925289 1_555
Cr5 O9 1.953511 1_555
Cr6 O30 1.906763 1_555
Cr6 O26 1.912204 1_555
Cr6 O29 1.925289 1_555
Cr6 O6 1.953511 1_545
Cr7 O31 1.906763 1_455
Cr7 O27 1.912204 1_555
Cr7 O28 1.925289 1_555
Cr7 O7 1.953511 1_545
