# generated using pymatgen
data_Li6Fe5WO12
_symmetry_space_group_name_H-M   'P 1'
_cell_length_a   5.21538906
_cell_length_b   5.21538906
_cell_length_c   10.29711896
_cell_angle_alpha   85.59927771
_cell_angle_beta   85.59927771
_cell_angle_gamma   120.41718039
_symmetry_Int_Tables_number   1
_chemical_formula_structural   Li6Fe5WO12
_chemical_formula_sum   'Li6 Fe5 W1 O12'
_cell_volume   238.63642978
_cell_formula_units_Z   1
loop_
 _symmetry_equiv_pos_site_id
 _symmetry_equiv_pos_as_xyz
  1  'x, y, z'
loop_
 _atom_site_type_symbol
 _atom_site_label
 _atom_site_symmetry_multiplicity
 _atom_site_fract_x
 _atom_site_fract_y
 _atom_site_fract_z
 _atom_site_occupancy
  Li  Li0  1  0.05670800  0.70699100  0.75593500  1
  Li  Li1  1  0.29229600  0.94310800  0.24587200  1
  Li  Li2  1  0.61829000  0.61829000  0.24591000  1
  Li  Li3  1  0.38059400  0.38059400  0.75020700  1
  Li  Li4  1  0.70699100  0.05670800  0.75593500  1
  Li  Li5  1  0.94310800  0.29229600  0.24587200  1
  Fe  Fe0  1  0.66189700  0.32630500  0.99972000  1
  Fe  Fe1  1  0.50022600  0.50022600  0.49935000  1
  Fe  Fe2  1  0.32630500  0.66189700  0.99972000  1
  Fe  Fe3  1  0.83340600  0.16612000  0.50020500  1
  Fe  Fe4  1  0.16612000  0.83340600  0.50020500  1
  W  W0  1  0.01169000  0.01169000  0.00085600  1
  O  O0  1  0.03205000  0.34749500  0.87749200  1
  O  O1  1  0.65438700  0.97971400  0.11628200  1
  O  O2  1  0.79645300  0.46259400  0.61276400  1
  O  O3  1  0.86807200  0.86807200  0.38971500  1
  O  O4  1  0.53845800  0.20354600  0.38715200  1
  O  O5  1  0.71645600  0.71645600  0.89284100  1
  O  O6  1  0.27182200  0.27182200  0.12065700  1
  O  O7  1  0.46259400  0.79645300  0.61276400  1
  O  O8  1  0.13132800  0.13132800  0.60962200  1
  O  O9  1  0.20354600  0.53845800  0.38715200  1
  O  O10  1  0.34749500  0.03205000  0.87749200  1
  O  O11  1  0.97971400  0.65438700  0.11628200  1
loop_
_geom_bond_atom_site_label_1
_geom_bond_atom_site_label_2
_geom_bond_distance
_geom_bond_site_symmetry_2
Li0 O0 2.114131 1_555
Li0 O2 2.117552 1_455
Li0 O10 2.180442 1_565
Li0 O5 2.203243 1_455
Li0 O7 2.299474 1_555
Li0 O8 2.417699 1_565
Li1 O4 2.105623 1_565
Li1 O6 2.116643 1_565
Li1 O1 2.142994 1_555
Li1 O11 2.205046 1_455
Li1 O9 2.284910 1_555
Li1 O3 2.402818 1_455
Li2 O3 2.111982 1_555
Li2 O11 2.141543 1_555
Li2 O1 2.141543 1_555
Li2 O4 2.340884 1_555
Li2 O9 2.340884 1_555
Li2 O6 2.367018 1_555
Li3 O10 2.081808 1_555
Li3 O0 2.081808 1_555
Li3 O8 2.083747 1_555
Li3 O7 2.320926 1_555
Li3 O2 2.320926 1_555
Li3 O5 2.444673 1_555
Li4 O10 2.114131 1_555
Li4 O7 2.117552 1_545
Li4 O0 2.180442 1_655
Li4 O5 2.203243 1_545
Li4 O2 2.299474 1_555
Li4 O8 2.417699 1_655
Li5 O9 2.105623 1_655
Li5 O6 2.116643 1_655
Li5 O11 2.142994 1_555
Li5 O1 2.205046 1_545
Li5 O4 2.284910 1_555
Li5 O3 2.402818 1_545
Fe0 O1 2.073096 1_546
Fe0 O5 2.110577 1_555
Fe0 O10 2.166329 1_555
Fe0 O0 2.170905 1_655
Fe0 O6 2.177575 1_556
Fe0 O11 2.205547 1_556
Fe1 O3 2.060073 1_555
Fe1 O8 2.067316 1_555
Fe1 O9 2.078472 1_555
Fe1 O4 2.078472 1_555
Fe1 O7 2.082773 1_555
Fe1 O2 2.082773 1_555
Fe2 O11 2.073096 1_456
Fe2 O5 2.110577 1_555
Fe2 O0 2.166329 1_555
Fe2 O10 2.170905 1_565
Fe2 O6 2.177575 1_556
Fe2 O1 2.205547 1_556
Fe3 O8 2.058963 1_655
Fe3 O3 2.065865 1_545
Fe3 O4 2.074493 1_555
Fe3 O2 2.076972 1_555
Fe3 O7 2.082809 1_545
Fe3 O9 2.089261 1_655
Fe4 O8 2.058963 1_565
Fe4 O3 2.065865 1_455
Fe4 O9 2.074493 1_555
Fe4 O7 2.076972 1_555
Fe4 O2 2.082809 1_455
Fe4 O4 2.089261 1_565
O0 W0 2.035126 1_556
O1 W0 2.056215 1_665
O5 W0 2.025771 1_666
O6 W0 1.962881 1_555
O10 W0 2.035126 1_556
O11 W0 2.056215 1_665
