# generated using pymatgen
data_Sb8Cl2O21
_symmetry_space_group_name_H-M   'P 1'
_cell_length_a   12.31615143
_cell_length_b   12.31615143
_cell_length_c   20.68993589
_cell_angle_alpha   48.73541756
_cell_angle_beta   48.73541756
_cell_angle_gamma   27.94133149
_symmetry_Int_Tables_number   1
_chemical_formula_structural   Sb8Cl2O21
_chemical_formula_sum   'Sb16 Cl4 O42'
_cell_volume   1078.71722900
_cell_formula_units_Z   2
loop_
 _symmetry_equiv_pos_site_id
 _symmetry_equiv_pos_as_xyz
  1  'x, y, z'
loop_
 _atom_site_type_symbol
 _atom_site_label
 _atom_site_symmetry_multiplicity
 _atom_site_fract_x
 _atom_site_fract_y
 _atom_site_fract_z
 _atom_site_occupancy
  Sb  Sb0  1  0.49703900  0.86297400  0.35519900  1
  Sb  Sb1  1  0.86297400  0.49703900  0.85519900  1
  Sb  Sb2  1  0.50296100  0.13702600  0.64480100  1
  Sb  Sb3  1  0.13702600  0.50296100  0.14480100  1
  Sb  Sb4  1  0.23341200  0.66359900  0.50432700  1
  Sb  Sb5  1  0.66359900  0.23341200  0.00432700  1
  Sb  Sb6  1  0.76658800  0.33640100  0.49567300  1
  Sb  Sb7  1  0.33640100  0.76658800  0.99567300  1
  Sb  Sb8  1  0.09731400  0.72376800  0.70423700  1
  Sb  Sb9  1  0.72376800  0.09731400  0.20423700  1
  Sb  Sb10  1  0.90268600  0.27623200  0.29576300  1
  Sb  Sb11  1  0.27623200  0.90268600  0.79576300  1
  Sb  Sb12  1  0.42816400  0.98653500  0.16313900  1
  Sb  Sb13  1  0.98653500  0.42816400  0.66313900  1
  Sb  Sb14  1  0.57183600  0.01346500  0.83686100  1
  Sb  Sb15  1  0.01346500  0.57183600  0.33686100  1
  Cl  Cl0  1  0.93847200  0.32289000  0.06872900  1
  Cl  Cl1  1  0.32289000  0.93847200  0.56872900  1
  Cl  Cl2  1  0.06152800  0.67711000  0.93127100  1
  Cl  Cl3  1  0.67711000  0.06152800  0.43127100  1
  O  O0  1  0.19076900  0.45870400  0.60617900  1
  O  O1  1  0.45870400  0.19076900  0.10617900  1
  O  O2  1  0.80923100  0.54129600  0.39382100  1
  O  O3  1  0.54129600  0.80923100  0.89382100  1
  O  O4  1  0.47135800  0.65237100  0.44146400  1
  O  O5  1  0.65237100  0.47135800  0.94146400  1
  O  O6  1  0.52864200  0.34762900  0.55853600  1
  O  O7  1  0.34762900  0.52864200  0.05853600  1
  O  O8  1  0.88586100  0.70740900  0.78861200  1
  O  O9  1  0.70740900  0.88586100  0.28861200  1
  O  O10  1  0.11413900  0.29259100  0.21138800  1
  O  O11  1  0.29259100  0.11413900  0.71138800  1
  O  O12  1  0.21766000  0.95822600  0.26619700  1
  O  O13  1  0.95822600  0.21766000  0.76619700  1
  O  O14  1  0.78234000  0.04177400  0.73380300  1
  O  O15  1  0.04177400  0.78234000  0.23380300  1
  O  O16  1  0.02857500  0.84033600  0.59375300  1
  O  O17  1  0.84033600  0.02857500  0.09375300  1
  O  O18  1  0.97142500  0.15966400  0.40624700  1
  O  O19  1  0.15966400  0.97142500  0.90624700  1
  O  O20  1  0.61251700  0.78344400  0.24947100  1
  O  O21  1  0.78344400  0.61251700  0.74947100  1
  O  O22  1  0.38748300  0.21655600  0.75052900  1
  O  O23  1  0.21655600  0.38748300  0.25052900  1
  O  O24  1  0.83178800  0.29705700  0.07740100  1
  O  O25  1  0.29705700  0.83178800  0.57740100  1
  O  O26  1  0.16821200  0.70294300  0.92259900  1
  O  O27  1  0.70294300  0.16821200  0.42259900  1
  O  O28  1  0.48108700  0.91492300  0.48302300  1
  O  O29  1  0.91492300  0.48108700  0.98302300  1
  O  O30  1  0.51891300  0.08507700  0.51697700  1
  O  O31  1  0.08507700  0.51891300  0.01697700  1
  O  O32  1  0.80849300  0.42823100  0.13923600  1
  O  O33  1  0.42823100  0.80849300  0.63923600  1
  O  O34  1  0.19150700  0.57176900  0.86076400  1
  O  O35  1  0.57176900  0.19150700  0.36076400  1
  O  O36  1  0.18757500  0.09101900  0.07228800  1
  O  O37  1  0.09101900  0.18757500  0.57228800  1
  O  O38  1  0.81242500  0.90898100  0.92771200  1
  O  O39  1  0.90898100  0.81242500  0.42771200  1
  O  O40  1  0.24158300  0.75841700  0.25000000  1
  O  O41  1  0.75841700  0.24158300  0.75000000  1
loop_
_geom_bond_atom_site_label_1
_geom_bond_atom_site_label_2
_geom_bond_distance
_geom_bond_site_symmetry_2
Cl0 O36 1.453877 1_655
Cl0 O32 1.456178 1_555
Cl0 O29 1.465375 1_554
Cl0 O24 1.487348 1_555
Cl1 O37 1.453877 1_565
Cl1 O33 1.456178 1_555
Cl1 O28 1.465375 1_555
Cl1 O25 1.487348 1_555
Cl2 O38 1.453877 1_455
Cl2 O34 1.456178 1_555
Cl2 O31 1.465375 1_556
Cl2 O26 1.487348 1_555
Cl3 O39 1.453877 1_545
Cl3 O35 1.456178 1_555
Cl3 O30 1.465375 1_555
Cl3 O27 1.487348 1_555
O0 Sb2 2.020048 1_555
O0 Sb4 2.225290 1_555
O0 Sb13 2.243699 1_455
O1 Sb3 2.020048 1_555
O1 Sb5 2.225290 1_555
O1 Sb12 2.243699 1_545
O2 Sb0 2.020048 1_555
O2 Sb6 2.225290 1_555
O2 Sb15 2.243699 1_655
O3 Sb1 2.020048 1_555
O3 Sb7 2.225290 1_555
O3 Sb14 2.243699 1_565
O4 Sb6 2.060164 1_555
O4 Sb0 2.147498 1_555
O4 Sb4 2.189175 1_555
O5 Sb7 2.060164 1_555
O5 Sb1 2.147498 1_555
O5 Sb5 2.189175 1_556
O6 Sb4 2.060164 1_555
O6 Sb2 2.147498 1_555
O6 Sb6 2.189175 1_555
O7 Sb5 2.060164 1_555
O7 Sb3 2.147498 1_555
O7 Sb7 2.189175 1_554
O8 Sb14 2.067812 1_565
O8 Sb8 2.082450 1_655
O8 Sb1 2.181786 1_555
O9 Sb15 2.067812 1_655
O9 Sb9 2.082450 1_565
O9 Sb0 2.181786 1_555
O10 Sb12 2.067812 1_545
O10 Sb10 2.082450 1_455
O10 Sb3 2.181786 1_555
O11 Sb13 2.067812 1_455
O11 Sb11 2.082450 1_545
O11 Sb2 2.181786 1_555
O12 Sb10 1.986963 1_465
O12 Sb12 2.171215 1_555
O13 Sb11 1.986963 1_645
O13 Sb13 2.171215 1_555
O14 Sb8 1.986963 1_645
O14 Sb14 2.171215 1_555
O15 Sb9 1.986963 1_465
O15 Sb15 2.171215 1_555
O16 Sb4 1.994677 1_555
O16 Sb8 2.019786 1_555
O17 Sb5 1.994677 1_555
O17 Sb9 2.019786 1_555
O18 Sb6 1.994677 1_555
O18 Sb10 2.019786 1_555
O19 Sb7 1.994677 1_555
O19 Sb11 2.019786 1_555
O20 Sb12 2.006020 1_555
O20 Sb0 2.007105 1_555
O21 Sb13 2.006020 1_555
O21 Sb1 2.007105 1_555
O22 Sb14 2.006020 1_555
O22 Sb2 2.007105 1_555
O23 Sb15 2.006020 1_555
O23 Sb3 2.007105 1_555
