# generated using pymatgen
data_LiBiP2O7
_symmetry_space_group_name_H-M   'P 1'
_cell_length_a   10.36410100
_cell_length_b   7.57068800
_cell_length_c   8.07028241
_cell_angle_alpha   89.33143677
_cell_angle_beta   90.00000000
_cell_angle_gamma   90.00000000
_symmetry_Int_Tables_number   1
_chemical_formula_structural   LiBiP2O7
_chemical_formula_sum   'Li4 Bi4 P8 O28'
_cell_volume   633.17848711
_cell_formula_units_Z   4
loop_
 _symmetry_equiv_pos_site_id
 _symmetry_equiv_pos_as_xyz
  1  'x, y, z'
loop_
 _atom_site_type_symbol
 _atom_site_label
 _atom_site_symmetry_multiplicity
 _atom_site_fract_x
 _atom_site_fract_y
 _atom_site_fract_z
 _atom_site_occupancy
  Li  Li0  1  0.60325900  0.30800100  0.96695100  1
  Li  Li1  1  0.89674100  0.80800100  0.96695100  1
  Li  Li2  1  0.10325900  0.19199900  0.03304900  1
  Li  Li3  1  0.39674100  0.69199900  0.03304900  1
  Bi  Bi0  1  0.35429300  0.38787500  0.63374900  1
  Bi  Bi1  1  0.14570700  0.88787500  0.63374900  1
  Bi  Bi2  1  0.85429300  0.11212500  0.36625100  1
  Bi  Bi3  1  0.64570700  0.61212500  0.36625100  1
  P  P0  1  0.40607800  0.01803000  0.79815900  1
  P  P1  1  0.09392200  0.51803000  0.79815900  1
  P  P2  1  0.96063400  0.19608900  0.70193300  1
  P  P3  1  0.53936600  0.69608900  0.70193300  1
  P  P4  1  0.46063400  0.30391100  0.29806700  1
  P  P5  1  0.03936600  0.80391100  0.29806700  1
  P  P6  1  0.90607800  0.48197000  0.20184100  1
  P  P7  1  0.59392200  0.98197000  0.20184100  1
  O  O0  1  0.18583700  0.40662100  0.90384600  1
  O  O1  1  0.31416300  0.90662100  0.90384600  1
  O  O2  1  0.45935500  0.19204200  0.86040600  1
  O  O3  1  0.04064500  0.69204200  0.86040600  1
  O  O4  1  0.02290000  0.07790800  0.83668400  1
  O  O5  1  0.47710000  0.57790800  0.83668400  1
  O  O6  1  0.96736800  0.39911500  0.75746900  1
  O  O7  1  0.53263200  0.89911500  0.75746900  1
  O  O8  1  0.82100700  0.15669600  0.65760500  1
  O  O9  1  0.67899300  0.65669600  0.65760500  1
  O  O10  1  0.33611700  0.06223800  0.62889100  1
  O  O11  1  0.16388300  0.56223800  0.62889100  1
  O  O12  1  0.04554600  0.17236100  0.54119300  1
  O  O13  1  0.45445400  0.67236100  0.54119300  1
  O  O14  1  0.54554600  0.32763900  0.45880700  1
  O  O15  1  0.95445400  0.82763900  0.45880700  1
  O  O16  1  0.83611700  0.43776200  0.37110900  1
  O  O17  1  0.66388300  0.93776200  0.37110900  1
  O  O18  1  0.32100700  0.34330400  0.34239500  1
  O  O19  1  0.17899300  0.84330400  0.34239500  1
  O  O20  1  0.46736800  0.10088500  0.24253100  1
  O  O21  1  0.03263200  0.60088500  0.24253100  1
  O  O22  1  0.52290000  0.42209200  0.16331600  1
  O  O23  1  0.97710000  0.92209200  0.16331600  1
  O  O24  1  0.95935500  0.30795800  0.13959400  1
  O  O25  1  0.54064500  0.80795800  0.13959400  1
  O  O26  1  0.68583700  0.09337900  0.09615400  1
  O  O27  1  0.81416300  0.59337900  0.09615400  1
loop_
_geom_bond_atom_site_label_1
_geom_bond_atom_site_label_2
_geom_bond_distance
_geom_bond_site_symmetry_2
Li0 O2 1.937014 1_555
Li0 O22 1.995741 1_556
Li0 O26 2.102442 1_556
Li1 O3 1.937014 1_655
Li1 O23 1.995741 1_556
Li1 O27 2.102442 1_556
Li2 O24 1.937014 1_455
Li2 O4 1.995741 1_554
Li2 O0 2.102442 1_554
Li3 O25 1.937014 1_555
Li3 O5 1.995741 1_554
Li3 O1 2.102442 1_554
Bi0 O11 2.374295 1_555
Bi0 O18 2.404172 1_555
Bi0 O10 2.473250 1_555
Bi0 O14 2.478958 1_555
Bi0 O13 2.497331 1_555
Bi0 O5 2.535147 1_555
Bi0 O2 2.581928 1_555
Bi0 O0 2.797652 1_555
Bi1 O10 2.374295 1_565
Bi1 O19 2.404172 1_555
Bi1 O11 2.473250 1_555
Bi1 O15 2.478958 1_455
Bi1 O12 2.497331 1_565
Bi1 O4 2.535147 1_565
Bi1 O3 2.581928 1_555
Bi1 O1 2.797652 1_555
Bi2 O17 2.374295 1_545
Bi2 O8 2.404172 1_555
Bi2 O16 2.473250 1_555
Bi2 O12 2.478958 1_655
Bi2 O15 2.497331 1_545
Bi2 O23 2.535147 1_545
Bi2 O24 2.581928 1_555
Bi2 O26 2.797652 1_555
Bi3 O16 2.374295 1_555
Bi3 O9 2.404172 1_555
Bi3 O17 2.473250 1_555
Bi3 O13 2.478958 1_555
Bi3 O14 2.497331 1_555
Bi3 O22 2.535147 1_555
Bi3 O25 2.581928 1_555
Bi3 O27 2.797652 1_555
O0 P1 1.526291 1_555
O1 P0 1.526291 1_565
O2 P0 1.519279 1_555
O3 P1 1.519279 1_555
O4 P2 1.541708 1_455
O5 P3 1.541708 1_555
O6 P2 1.607587 1_555
O6 P1 1.626517 1_655
O7 P3 1.607587 1_555
O7 P0 1.626517 1_565
O8 P2 1.521030 1_555
O9 P3 1.521030 1_555
O10 P0 1.578973 1_555
O11 P1 1.578973 1_555
O12 P2 1.579539 1_455
O13 P3 1.579539 1_555
O14 P4 1.579539 1_555
O15 P5 1.579539 1_655
O16 P6 1.578973 1_555
O17 P7 1.578973 1_555
O18 P4 1.521030 1_555
O19 P5 1.521030 1_555
O20 P4 1.607587 1_555
O20 P7 1.626517 1_545
O21 P5 1.607587 1_555
O21 P6 1.626517 1_455
O22 P4 1.541708 1_555
O23 P5 1.541708 1_655
O24 P6 1.519279 1_555
O25 P7 1.519279 1_555
O26 P7 1.526291 1_545
O27 P6 1.526291 1_555
