# generated using pymatgen
data_Li3Mn4(BO3)4
_symmetry_space_group_name_H-M   'P 1'
_cell_length_a   9.09877900
_cell_length_b   9.12448579
_cell_length_c   11.60714173
_cell_angle_alpha   66.95304665
_cell_angle_beta   68.42102164
_cell_angle_gamma   60.29080125
_symmetry_Int_Tables_number   1
_chemical_formula_structural   Li3Mn4(BO3)4
_chemical_formula_sum   'Li9 Mn12 B12 O36'
_cell_volume   751.74846160
_cell_formula_units_Z   3
loop_
 _symmetry_equiv_pos_site_id
 _symmetry_equiv_pos_as_xyz
  1  'x, y, z'
loop_
 _atom_site_type_symbol
 _atom_site_label
 _atom_site_symmetry_multiplicity
 _atom_site_fract_x
 _atom_site_fract_y
 _atom_site_fract_z
 _atom_site_occupancy
  Li  Li0  1  0.22735100  0.03009100  0.66152600  1
  Li  Li1  1  0.38892000  0.25322400  0.15636600  1
  Li  Li2  1  0.03650900  0.90332700  0.17110100  1
  Li  Li3  1  0.26083100  0.41571900  0.91419300  1
  Li  Li4  1  0.43257800  0.57623000  0.40866200  1
  Li  Li5  1  0.55233900  0.38832700  0.67750100  1
  Li  Li6  1  0.72403200  0.56575800  0.16039000  1
  Li  Li7  1  0.74485300  0.92265000  0.40732400  1
  Li  Li8  1  0.86901300  0.71137400  0.67183800  1
  Mn  Mn0  1  0.07455000  0.23385100  0.13216700  1
  Mn  Mn1  1  0.26087800  0.07068400  0.88561100  1
  Mn  Mn2  1  0.09963000  0.58861600  0.38372300  1
  Mn  Mn3  1  0.55754000  0.09474700  0.62897900  1
  Mn  Mn4  1  0.39472100  0.58702500  0.12695300  1
  Mn  Mn5  1  0.79057300  0.26246900  0.38365300  1
  Mn  Mn6  1  0.22192200  0.72064500  0.63026500  1
  Mn  Mn7  1  0.62147400  0.44570200  0.88142200  1
  Mn  Mn8  1  0.39844000  0.94826900  0.38280600  1
  Mn  Mn9  1  0.90886600  0.38290300  0.62798300  1
  Mn  Mn10  1  0.70823000  0.91236200  0.13055700  1
  Mn  Mn11  1  0.91555600  0.76339900  0.88208000  1
  B  B0  1  0.06560900  0.57958100  0.12606800  1
  B  B1  1  0.44679500  0.27222800  0.37302700  1
  B  B2  1  0.24422000  0.39020500  0.62127900  1
  B  B3  1  0.73918300  0.23854900  0.12686300  1
  B  B4  1  0.58665400  0.10735800  0.87668100  1
  B  B5  1  0.09682600  0.92497100  0.37472400  1
  B  B6  1  0.90540900  0.05831800  0.63093500  1
  B  B7  1  0.39684900  0.90630800  0.12735400  1
  B  B8  1  0.26366900  0.74169500  0.86794900  1
  B  B9  1  0.75126200  0.62037400  0.37106700  1
  B  B10  1  0.56565300  0.73973000  0.62996700  1
  B  B11  1  0.94411600  0.41498700  0.87284500  1
  O  O0  1  0.05149300  0.10363700  0.33762300  1
  O  O1  1  0.01090900  0.13000900  0.61915800  1
  O  O2  1  0.16747500  0.41471700  0.10671100  1
  O  O3  1  0.39103300  0.18781900  0.33742400  1
  O  O4  1  0.12296200  0.65573400  0.17369200  1
  O  O5  1  0.29934300  0.20791100  0.65360100  1
  O  O6  1  0.59047900  0.34963200  0.07301600  1
  O  O7  1  0.08044300  0.49753700  0.59438700  1
  O  O8  1  0.80905000  0.06340600  0.14069700  1
  O  O9  1  0.58757100  0.17668200  0.43743900  1
  O  O10  1  0.09883600  0.31910400  0.91537200  1
  O  O11  1  0.37584900  0.45434100  0.34046700  1
  O  O12  1  0.52705600  0.04391400  0.81685600  1
  O  O13  1  0.99795000  0.85699300  0.36485700  1
  O  O14  1  0.35343900  0.46024000  0.61226400  1
  O  O15  1  0.80303000  0.31581400  0.16871800  1
  O  O16  1  0.23693600  0.98621500  0.09194000  1
  O  O17  1  0.74137700  0.17306800  0.59875600  1
  O  O18  1  0.50212500  0.73634900  0.13079300  1
  O  O19  1  0.51979000  0.28168600  0.86612800  1
  O  O20  1  0.25013400  0.81318500  0.41986500  1
  O  O21  1  0.71587700  0.98149300  0.94454900  1
  O  O22  1  0.19200600  0.66253200  0.83519100  1
  O  O23  1  0.67858700  0.53026800  0.35549500  1
  O  O24  1  0.44450100  0.00872500  0.15953600  1
  O  O25  1  0.62953100  0.55603800  0.69008000  1
  O  O26  1  0.90146500  0.67487900  0.09438900  1
  O  O27  1  0.41259400  0.81898500  0.58673800  1
  O  O28  1  0.19950700  0.91705700  0.84388200  1
  O  O29  1  0.88130700  0.53913600  0.43629000  1
  O  O30  1  0.40404800  0.63458900  0.92777900  1
  O  O31  1  0.68591600  0.80578300  0.32102500  1
  O  O32  1  0.87501500  0.32780600  0.84335100  1
  O  O33  1  0.65561700  0.83418100  0.61074800  1
  O  O34  1  0.85483800  0.59076800  0.85748900  1
  O  O35  1  0.94916500  0.87953300  0.67081300  1
loop_
_geom_bond_atom_site_label_1
_geom_bond_atom_site_label_2
_geom_bond_distance
_geom_bond_site_symmetry_2
Li0 O1 1.879650 1_555
Li0 O28 1.939935 1_545
Li0 O5 1.990571 1_555
Li0 O27 2.078395 1_545
Li1 O3 1.951784 1_555
Li1 O2 1.951823 1_555
Li1 O24 2.016251 1_555
Li1 O6 2.168127 1_555
Li2 O8 1.917959 1_465
Li2 O4 1.981471 1_555
Li2 O13 2.044948 1_455
Li2 O16 2.081438 1_555
Li3 O22 1.926741 1_555
Li3 O19 2.017357 1_555
Li3 O10 2.052693 1_555
Li3 O2 2.076171 1_556
Li4 O11 1.920607 1_555
Li4 O23 1.955291 1_555
Li4 O20 1.987724 1_555
Li4 O14 2.183769 1_555
Li5 O14 1.929000 1_555
Li5 O19 1.992167 1_555
Li5 O25 2.042564 1_555
Li5 O17 2.133609 1_555
Li6 O18 1.895774 1_555
Li6 O15 1.995205 1_555
Li6 O26 2.066625 1_555
Li6 O23 2.067379 1_555
Li7 O13 1.983400 1_555
Li7 O31 2.055795 1_555
Li7 O9 2.126358 1_565
Li7 O33 2.152469 1_555
Li8 O33 1.939703 1_555
Li8 O34 1.987636 1_555
Li8 O35 1.993674 1_555
Li8 O7 2.167204 1_655
Mn0 O2 2.084036 1_555
Mn0 O15 2.118677 1_455
Mn0 O16 2.125114 1_545
Mn0 O0 2.191649 1_555
Mn0 O10 2.283593 1_554
Mn1 O28 2.004436 1_545
Mn1 O10 2.087333 1_555
Mn1 O12 2.169489 1_555
Mn1 O16 2.171273 1_546
Mn1 O5 2.458328 1_555
Mn2 O29 2.074589 1_455
Mn2 O13 2.093818 1_455
Mn2 O11 2.137986 1_555
Mn2 O7 2.222364 1_555
Mn2 O4 2.223173 1_555
Mn3 O12 1.984499 1_555
Mn3 O17 1.997150 1_555
Mn3 O5 1.999934 1_555
Mn3 O9 2.007634 1_555
Mn3 O33 2.155414 1_545
Mn4 O18 2.052506 1_555
Mn4 O4 2.131785 1_555
Mn4 O30 2.155639 1_554
Mn4 O6 2.161892 1_555
Mn4 O11 2.276167 1_555
Mn5 O23 2.065832 1_555
Mn5 O0 2.069993 1_655
Mn5 O9 2.148581 1_555
Mn5 O17 2.246033 1_555
Mn5 O15 2.317242 1_555
Mn6 O14 2.123161 1_555
Mn6 O35 2.142717 1_455
Mn6 O27 2.147917 1_555
Mn6 O22 2.166174 1_555
Mn6 O20 2.209546 1_555
Mn7 O30 1.933181 1_555
Mn7 O32 1.958800 1_555
Mn7 O6 2.012678 1_556
Mn7 O25 2.038185 1_555
Mn7 O19 2.197375 1_555
Mn8 O3 2.009532 1_565
Mn8 O20 2.081266 1_555
Mn8 O27 2.213260 1_555
Mn8 O31 2.241838 1_555
Mn8 O24 2.346677 1_565
Mn9 O1 2.046641 1_655
Mn9 O7 2.129479 1_655
Mn9 O29 2.149030 1_555
Mn9 O25 2.244811 1_555
Mn9 O32 2.280304 1_555
Mn10 O21 1.982624 1_554
Mn10 O31 2.014130 1_555
Mn10 O24 2.047175 1_565
Mn10 O8 2.052891 1_565
Mn10 O26 2.087108 1_555
Mn11 O34 2.049003 1_555
Mn11 O21 2.088974 1_555
Mn11 O22 2.135616 1_655
Mn11 O35 2.228173 1_555
Mn11 O26 2.247977 1_556
B0 O2 1.379101 1_555
B0 O4 1.390341 1_555
B0 O26 1.410054 1_455
B1 O3 1.346158 1_555
B1 O11 1.394728 1_555
B1 O9 1.430701 1_555
B2 O14 1.381116 1_555
B2 O7 1.390471 1_555
B2 O5 1.407802 1_555
B3 O8 1.360512 1_555
B3 O15 1.397227 1_555
B3 O6 1.419632 1_555
B4 O19 1.363219 1_555
B4 O21 1.398732 1_545
B4 O12 1.419236 1_555
B5 O13 1.375403 1_455
B5 O0 1.388424 1_565
B5 O20 1.403421 1_555
B6 O1 1.350520 1_655
B6 O35 1.390879 1_545
B6 O17 1.420645 1_555
B7 O18 1.353270 1_555
B7 O16 1.404059 1_555
B7 O24 1.412399 1_565
B8 O28 1.350266 1_555
B8 O30 1.397350 1_555
B8 O22 1.398474 1_555
B9 O29 1.368514 1_555
B9 O23 1.374422 1_555
B9 O31 1.428489 1_555
B10 O33 1.370012 1_555
B10 O27 1.394939 1_555
B10 O25 1.432126 1_555
B11 O34 1.362135 1_555
B11 O10 1.393951 1_655
B11 O32 1.418657 1_555
