# generated using pymatgen
data_Li3FePCO7
_symmetry_space_group_name_H-M   'P 1'
_cell_length_a   8.08730234
_cell_length_b   8.08733080
_cell_length_c   8.64278762
_cell_angle_alpha   92.59438775
_cell_angle_beta   87.41037702
_cell_angle_gamma   74.23936532
_symmetry_Int_Tables_number   1
_chemical_formula_structural   Li3FePCO7
_chemical_formula_sum   'Li12 Fe4 P4 C4 O28'
_cell_volume   542.49739922
_cell_formula_units_Z   4
loop_
 _symmetry_equiv_pos_site_id
 _symmetry_equiv_pos_as_xyz
  1  'x, y, z'
loop_
 _atom_site_type_symbol
 _atom_site_label
 _atom_site_symmetry_multiplicity
 _atom_site_fract_x
 _atom_site_fract_y
 _atom_site_fract_z
 _atom_site_occupancy
  Li  Li0  1  0.52339100  0.74573900  0.11153600  1
  Li  Li1  1  0.02321600  0.24551600  0.11148300  1
  Li  Li2  1  0.49552200  0.27335600  0.88842300  1
  Li  Li3  1  0.99554100  0.77336900  0.88847000  1
  Li  Li4  1  0.36205700  0.11777800  0.28906800  1
  Li  Li5  1  0.86215300  0.61766900  0.28899600  1
  Li  Li6  1  0.86780200  0.11215300  0.71102700  1
  Li  Li7  1  0.36783600  0.61208700  0.71094700  1
  Li  Li8  1  0.75945800  0.97899600  0.36327400  1
  Li  Li9  1  0.25941600  0.47899300  0.36334300  1
  Li  Li10  1  0.22896000  0.00955900  0.63677000  1
  Li  Li11  1  0.72897600  0.50945500  0.63666500  1
  Fe  Fe0  1  0.12333000  0.86781200  0.25757300  1
  Fe  Fe1  1  0.11787400  0.37326900  0.74229400  1
  Fe  Fe2  1  0.62285900  0.36814000  0.25748100  1
  Fe  Fe3  1  0.61817500  0.87308100  0.74255000  1
  P  P0  1  0.48537800  0.76134700  0.40892100  1
  P  P1  1  0.98524900  0.26128300  0.40881600  1
  P  P2  1  0.51129000  0.23525500  0.59112400  1
  P  P3  1  0.01142300  0.73526000  0.59112000  1
  C  C0  1  0.73708800  0.02778300  0.04427700  1
  C  C1  1  0.23717100  0.52776700  0.04425000  1
  C  C2  1  0.27771000  0.98705500  0.95571700  1
  C  C3  1  0.77778800  0.48708800  0.95577000  1
  O  O0  1  0.86980400  0.90446600  0.06553000  1
  O  O1  1  0.36983400  0.40450800  0.06551000  1
  O  O2  1  0.15430200  0.11980600  0.93446300  1
  O  O3  1  0.65443100  0.61990900  0.93450800  1
  O  O4  1  0.30890500  0.93615700  0.09738200  1
  O  O5  1  0.80890000  0.43614400  0.09737400  1
  O  O6  1  0.68611900  0.05893800  0.90261900  1
  O  O7  1  0.18612300  0.55895200  0.90262000  1
  O  O8  1  0.64717900  0.12322800  0.16077100  1
  O  O9  1  0.14721100  0.62322500  0.16076200  1
  O  O10  1  0.37319900  0.89723000  0.83925000  1
  O  O11  1  0.87318900  0.39720100  0.83925000  1
  O  O12  1  0.45046700  0.60599600  0.31439900  1
  O  O13  1  0.95062300  0.10586300  0.31425500  1
  O  O14  1  0.35588200  0.20063200  0.68576600  1
  O  O15  1  0.85609800  0.70048100  0.68581400  1
  O  O16  1  0.63241500  0.80526500  0.31322800  1
  O  O17  1  0.13216900  0.30549200  0.31321700  1
  O  O18  1  0.55540400  0.38232400  0.68667100  1
  O  O19  1  0.05545200  0.88229900  0.68666500  1
  O  O20  1  0.46528500  0.27778900  0.42280300  1
  O  O21  1  0.96529000  0.77783500  0.42283400  1
  O  O22  1  0.52812200  0.71532300  0.57719900  1
  O  O23  1  0.02793000  0.21533400  0.57716000  1
  O  O24  1  0.31819200  0.91491200  0.41388600  1
  O  O25  1  0.81801500  0.41477400  0.41377800  1
  O  O26  1  0.66480500  0.06805800  0.58622900  1
  O  O27  1  0.16499600  0.56805500  0.58615900  1
loop_
_geom_bond_atom_site_label_1
_geom_bond_atom_site_label_2
_geom_bond_distance
_geom_bond_site_symmetry_2
Li0 O3 1.904280 1_554
Li0 O4 1.995110 1_555
Li0 O16 2.083590 1_555
Li0 O12 2.268731 1_555
Li1 O2 1.904031 1_554
Li1 O5 1.995063 1_455
Li1 O17 2.084720 1_555
Li1 O13 2.266711 1_455
Li2 O1 1.904603 1_556
Li2 O6 1.995578 1_555
Li2 O18 2.084775 1_555
Li2 O14 2.266138 1_555
Li3 O0 1.904398 1_556
Li3 O7 1.995453 1_655
Li3 O19 2.085074 1_655
Li3 O15 2.265647 1_555
Li4 O17 2.051277 1_555
Li4 O20 2.060627 1_555
Li4 O24 2.103126 1_545
Li4 O4 2.296507 1_545
Li4 O8 2.525290 1_555
Li5 O16 2.049979 1_555
Li5 O21 2.061569 1_555
Li5 O25 2.103947 1_555
Li5 O5 2.295930 1_555
Li5 O9 2.524853 1_655
Li6 O19 2.050881 1_645
Li6 O23 2.061799 1_655
Li6 O26 2.104508 1_555
Li6 O6 2.296579 1_555
Li6 O11 2.524274 1_555
Li7 O18 2.050020 1_555
Li7 O22 2.062411 1_555
Li7 O27 2.103201 1_555
Li7 O7 2.296974 1_555
Li7 O10 2.525184 1_555
Li8 O16 1.996531 1_555
Li8 O26 2.063843 1_565
Li8 O21 2.089191 1_555
Li8 O13 2.112867 1_565
Li8 O8 2.236369 1_565
Li9 O17 1.996305 1_555
Li9 O27 2.062321 1_555
Li9 O20 2.089295 1_555
Li9 O12 2.112719 1_555
Li9 O9 2.236745 1_555
Li10 O19 1.996055 1_545
Li10 O24 2.063560 1_545
Li10 O23 2.088447 1_555
Li10 O14 2.112461 1_555
Li10 O10 2.236334 1_545
Li11 O18 1.995938 1_555
Li11 O25 2.063325 1_555
Li11 O22 2.087685 1_555
Li11 O15 2.113509 1_555
Li11 O11 2.236806 1_555
Fe0 O9 2.068365 1_555
Fe0 O13 2.071055 1_465
Fe0 O21 2.153496 1_455
Fe0 O4 2.192463 1_555
Fe0 O24 2.219375 1_555
Fe0 O0 2.658675 1_455
Fe1 O11 2.069513 1_455
Fe1 O14 2.070356 1_555
Fe1 O23 2.151974 1_555
Fe1 O7 2.193343 1_555
Fe1 O27 2.218082 1_555
Fe1 O2 2.659231 1_555
Fe2 O12 2.069183 1_555
Fe2 O8 2.069799 1_555
Fe2 O20 2.152975 1_555
Fe2 O5 2.193466 1_555
Fe2 O25 2.219885 1_555
Fe2 O1 2.655308 1_555
Fe3 O15 2.070021 1_555
Fe3 O10 2.070548 1_555
Fe3 O22 2.152726 1_555
Fe3 O6 2.191855 1_565
Fe3 O26 2.218973 1_565
Fe3 O3 2.656308 1_555
C0 O0 1.277994 1_545
C0 O8 1.302624 1_555
C0 O6 1.322673 1_554
C1 O1 1.277473 1_555
C1 O9 1.302928 1_555
C1 O7 1.322673 1_554
C2 O2 1.278588 1_565
C2 O10 1.302357 1_555
C2 O4 1.322618 1_556
C3 O3 1.278731 1_555
C3 O11 1.302580 1_555
C3 O5 1.322131 1_556
O12 P0 1.564031 1_555
O13 P1 1.563688 1_555
O14 P2 1.564007 1_555
O15 P3 1.564205 1_655
O16 P0 1.546405 1_555
O17 P1 1.546318 1_455
O18 P2 1.546639 1_555
O19 P3 1.546116 1_555
O20 P2 1.548475 1_555
O21 P3 1.548481 1_655
O22 P0 1.548494 1_555
O23 P1 1.548805 1_455
O24 P0 1.565278 1_555
O25 P1 1.565197 1_555
O26 P2 1.565139 1_555
O27 P3 1.565415 1_555
