# generated using pymatgen
data_Sm2V2O7
_symmetry_space_group_name_H-M   'P 1'
_cell_length_a   7.25011998
_cell_length_b   7.25011998
_cell_length_c   7.25011998
_cell_angle_alpha   60.00000000
_cell_angle_beta   60.00000000
_cell_angle_gamma   60.00000000
_symmetry_Int_Tables_number   1
_chemical_formula_structural   Sm2V2O7
_chemical_formula_sum   'Sm4 V4 O14'
_cell_volume   269.47630421
_cell_formula_units_Z   2
loop_
 _symmetry_equiv_pos_site_id
 _symmetry_equiv_pos_as_xyz
  1  'x, y, z'
loop_
 _atom_site_type_symbol
 _atom_site_label
 _atom_site_symmetry_multiplicity
 _atom_site_fract_x
 _atom_site_fract_y
 _atom_site_fract_z
 _atom_site_occupancy
  Sm  Sm0  1  0.12500000  0.12500000  0.12500000  1
  Sm  Sm1  1  0.62500000  0.12500000  0.12500000  1
  Sm  Sm2  1  0.12500000  0.62500000  0.12500000  1
  Sm  Sm3  1  0.12500000  0.12500000  0.62500000  1
  V  V0  1  0.62500000  0.62500000  0.12500000  1
  V  V1  1  0.62500000  0.62500000  0.62500000  1
  V  V2  1  0.62500000  0.12500000  0.62500000  1
  V  V3  1  0.12500000  0.62500000  0.62500000  1
  O  O0  1  0.70314700  0.70314700  0.29685300  1
  O  O1  1  0.95314700  0.54685300  0.54685300  1
  O  O2  1  0.95314700  0.54685300  0.95314700  1
  O  O3  1  0.25000000  0.25000000  0.25000000  1
  O  O4  1  0.54685300  0.95314700  0.54685300  1
  O  O5  1  0.95314700  0.95314700  0.54685300  1
  O  O6  1  0.70314700  0.29685300  0.29685300  1
  O  O7  1  0.54685300  0.95314700  0.95314700  1
  O  O8  1  0.29685300  0.70314700  0.29685300  1
  O  O9  1  0.00000000  0.00000000  0.00000000  1
  O  O10  1  0.70314700  0.29685300  0.70314700  1
  O  O11  1  0.29685300  0.29685300  0.70314700  1
  O  O12  1  0.29685300  0.70314700  0.70314700  1
  O  O13  1  0.54685300  0.54685300  0.95314700  1
loop_
_geom_bond_atom_site_label_1
_geom_bond_atom_site_label_2
_geom_bond_distance
_geom_bond_site_symmetry_2
O0 V0 1.981737 1_555
O0 V1 1.981737 1_555
O0 Sm1 2.527859 1_565
O0 Sm2 2.527859 1_655
O1 V1 1.981737 1_555
O1 V3 1.981737 1_655
O1 Sm2 2.527859 1_655
O1 Sm3 2.527859 1_655
O2 V3 1.981737 1_655
O2 V0 1.981737 1_556
O2 Sm2 2.527859 1_656
O2 Sm0 2.527859 1_656
O3 Sm3 2.219887 1_555
O3 Sm2 2.219887 1_555
O3 Sm1 2.219887 1_555
O3 Sm0 2.219887 1_555
O4 V2 1.981737 1_565
O4 V1 1.981737 1_555
O4 Sm1 2.527859 1_565
O4 Sm3 2.527859 1_565
O5 V3 1.981737 1_655
O5 V2 1.981737 1_565
O5 Sm0 2.527859 1_665
O5 Sm3 2.527859 1_665
O6 V0 1.981737 1_555
O6 V2 1.981737 1_555
O6 Sm1 2.527859 1_555
O6 Sm0 2.527859 1_655
O7 V0 1.981737 1_556
O7 V2 1.981737 1_565
O7 Sm0 2.527859 1_566
O7 Sm1 2.527859 1_566
O8 V3 1.981737 1_555
O8 V0 1.981737 1_555
O8 Sm2 2.527859 1_555
O8 Sm0 2.527859 1_565
O9 Sm3 2.219887 1_554
O9 Sm2 2.219887 1_545
O9 Sm1 2.219887 1_455
O9 Sm0 2.219887 1_555
O10 V2 1.981737 1_555
O10 V1 1.981737 1_555
O10 Sm3 2.527859 1_655
O10 Sm1 2.527859 1_556
O11 V2 1.981737 1_555
O11 V3 1.981737 1_555
O11 Sm3 2.527859 1_555
O11 Sm0 2.527859 1_556
O12 V3 1.981737 1_555
O12 V1 1.981737 1_555
O12 Sm3 2.527859 1_565
O12 Sm2 2.527859 1_556
O13 V1 1.981737 1_555
O13 V0 1.981737 1_556
O13 Sm2 2.527859 1_556
O13 Sm1 2.527859 1_556
