# generated using pymatgen
data_BPH9C2
_symmetry_space_group_name_H-M   'P 1'
_cell_length_a   7.78153500
_cell_length_b   6.61556800
_cell_length_c   12.18343214
_cell_angle_alpha   60.07916948
_cell_angle_beta   90.00000000
_cell_angle_gamma   90.00000000
_symmetry_Int_Tables_number   1
_chemical_formula_structural   BPH9C2
_chemical_formula_sum   'B4 P4 H36 C8'
_cell_volume   543.59894521
_cell_formula_units_Z   4
loop_
 _symmetry_equiv_pos_site_id
 _symmetry_equiv_pos_as_xyz
  1  'x, y, z'
loop_
 _atom_site_type_symbol
 _atom_site_label
 _atom_site_symmetry_multiplicity
 _atom_site_fract_x
 _atom_site_fract_y
 _atom_site_fract_z
 _atom_site_occupancy
  B  B0  1  0.74884300  0.37476000  0.90576600  1
  B  B1  1  0.24884300  0.62524000  0.59423400  1
  B  B2  1  0.75115700  0.37476000  0.40576600  1
  B  B3  1  0.25115700  0.62524000  0.09423400  1
  P  P0  1  0.38456400  0.41852500  0.06000500  1
  P  P1  1  0.11543600  0.41852500  0.56000500  1
  P  P2  1  0.88456400  0.58147500  0.43999500  1
  P  P3  1  0.61543600  0.58147500  0.93999500  1
  H  H0  1  0.55761700  0.22650700  0.25126500  1
  H  H1  1  0.84537100  0.81980700  0.53989100  1
  H  H2  1  0.15676600  0.69602100  0.64856100  1
  H  H3  1  0.86437300  0.49913200  0.83821200  1
  H  H4  1  0.22150700  0.44376100  0.88369900  1
  H  H5  1  0.36552700  0.07124800  0.26366200  1
  H  H6  1  0.30240500  0.77892800  0.49285400  1
  H  H7  1  0.15279000  0.20812700  0.03092400  1
  H  H8  1  0.80240500  0.22107200  0.00714600  1
  H  H9  1  0.54374800  0.05147700  0.17664100  1
  H  H10  1  0.04374800  0.94852300  0.32335900  1
  H  H11  1  0.65279000  0.79187300  0.46907600  1
  H  H12  1  0.72150700  0.55623900  0.61630100  1
  H  H13  1  0.36437300  0.50086800  0.66178800  1
  H  H14  1  0.65676600  0.30397900  0.85143900  1
  H  H15  1  0.34537100  0.18019300  0.96010900  1
  H  H16  1  0.86552700  0.92875200  0.23633800  1
  H  H17  1  0.05761700  0.77349300  0.24873500  1
  H  H18  1  0.94238300  0.22650700  0.75126500  1
  H  H19  1  0.13447300  0.07124800  0.76366200  1
  H  H20  1  0.65462900  0.81980700  0.03989100  1
  H  H21  1  0.34323400  0.69602100  0.14856100  1
  H  H22  1  0.63562700  0.49913200  0.33821200  1
  H  H23  1  0.27849300  0.44376100  0.38369900  1
  H  H24  1  0.34721000  0.20812700  0.53092400  1
  H  H25  1  0.95625200  0.05147700  0.67664100  1
  H  H26  1  0.45625200  0.94852300  0.82335900  1
  H  H27  1  0.19759500  0.77892800  0.99285400  1
  H  H28  1  0.84721000  0.79187300  0.96907600  1
  H  H29  1  0.69759500  0.22107200  0.50714600  1
  H  H30  1  0.63447300  0.92875200  0.73633800  1
  H  H31  1  0.77849300  0.55623900  0.11630100  1
  H  H32  1  0.13562700  0.50086800  0.16178800  1
  H  H33  1  0.84323400  0.30397900  0.35143900  1
  H  H34  1  0.15462900  0.18019300  0.46010900  1
  H  H35  1  0.44238300  0.77349300  0.74873500  1
  C  C0  1  0.47283200  0.16752600  0.20062000  1
  C  C1  1  0.26612900  0.30164000  0.97511700  1
  C  C2  1  0.76612900  0.69836000  0.52488300  1
  C  C3  1  0.97283200  0.83247400  0.29938000  1
  C  C4  1  0.02716800  0.16752600  0.70062000  1
  C  C5  1  0.23387100  0.30164000  0.47511700  1
  C  C6  1  0.73387100  0.69836000  0.02488300  1
  C  C7  1  0.52716800  0.83247400  0.79938000  1
loop_
_geom_bond_atom_site_label_1
_geom_bond_atom_site_label_2
_geom_bond_distance
_geom_bond_site_symmetry_2
B0 H14 1.216522 1_555
B0 H8 1.216658 1_556
B0 H3 1.219432 1_555
B0 P3 1.921114 1_555
B1 H2 1.216522 1_555
B1 H6 1.216658 1_555
B1 H13 1.219432 1_555
B1 P1 1.921114 1_555
B2 H33 1.216522 1_555
B2 H29 1.216658 1_555
B2 H22 1.219432 1_555
B2 P2 1.921114 1_555
B3 H21 1.216522 1_555
B3 H27 1.216658 1_554
B3 H32 1.219432 1_555
B3 P0 1.921114 1_555
P0 P3 2.225998 1_554
P1 P2 2.225998 1_455
C0 H9 1.096829 1_555
C0 H5 1.097632 1_555
C0 H0 1.099291 1_555
C0 P0 1.823757 1_555
C1 H4 1.095625 1_555
C1 H7 1.096917 1_556
C1 H15 1.098059 1_555
C1 P0 1.820640 1_556
C2 H12 1.095625 1_555
C2 H11 1.096917 1_555
C2 H1 1.098059 1_555
C2 P2 1.820640 1_555
C3 H10 1.096829 1_655
C3 H16 1.097632 1_555
C3 H17 1.099291 1_655
C3 P2 1.823757 1_555
C4 H25 1.096829 1_455
C4 H19 1.097632 1_555
C4 H18 1.099291 1_455
C4 P1 1.823757 1_555
C5 H23 1.095625 1_555
C5 H24 1.096917 1_555
C5 H34 1.098059 1_555
C5 P1 1.820640 1_555
C6 H31 1.095625 1_555
C6 H28 1.096917 1_554
C6 H20 1.098059 1_555
C6 P3 1.820640 1_554
C7 H26 1.096829 1_555
C7 H30 1.097632 1_555
C7 H35 1.099291 1_555
C7 P3 1.823757 1_555
