# generated using pymatgen
data_Tm2Te5O13
_symmetry_space_group_name_H-M   'P 1'
_cell_length_a   6.95121100
_cell_length_b   8.73573703
_cell_length_c   10.69560570
_cell_angle_alpha   89.00120903
_cell_angle_beta   87.11704145
_cell_angle_gamma   74.73381650
_symmetry_Int_Tables_number   1
_chemical_formula_structural   Tm2Te5O13
_chemical_formula_sum   'Tm4 Te10 O26'
_cell_volume   625.76234066
_cell_formula_units_Z   2
loop_
 _symmetry_equiv_pos_site_id
 _symmetry_equiv_pos_as_xyz
  1  'x, y, z'
loop_
 _atom_site_type_symbol
 _atom_site_label
 _atom_site_symmetry_multiplicity
 _atom_site_fract_x
 _atom_site_fract_y
 _atom_site_fract_z
 _atom_site_occupancy
  Tm  Tm0  1  0.44066500  0.47579400  0.82040600  1
  Tm  Tm1  1  0.55086200  0.52737100  0.17318000  1
  Tm  Tm2  1  0.00488400  0.26544100  0.75343200  1
  Tm  Tm3  1  0.00659400  0.74141400  0.24042600  1
  Te  Te0  1  0.26968900  0.39331500  0.49589900  1
  Te  Te1  1  0.45164000  0.90141000  0.29672600  1
  Te  Te2  1  0.29795200  0.87982000  0.97574800  1
  Te  Te3  1  0.72086900  0.61183800  0.51369800  1
  Te  Te4  1  0.84147500  0.18907200  0.35298000  1
  Te  Te5  1  0.71140200  0.13250500  0.02701200  1
  Te  Te6  1  0.15587900  0.80857400  0.64518300  1
  Te  Te7  1  0.11900200  0.35792700  0.11508200  1
  Te  Te8  1  0.56303700  0.10455800  0.70264400  1
  Te  Te9  1  0.88388700  0.64835900  0.88895000  1
  O  O0  1  0.32015300  0.73050800  0.28111600  1
  O  O1  1  0.64754500  0.01154600  0.87443300  1
  O  O2  1  0.34155200  0.51201200  0.62190000  1
  O  O3  1  0.05400100  0.81148600  0.04153500  1
  O  O4  1  0.33225900  0.22383200  0.78189400  1
  O  O5  1  0.46186500  0.19378500  0.51993500  1
  O  O6  1  0.93515400  0.97744000  0.30553500  1
  O  O7  1  0.46677500  0.67828300  0.99624300  1
  O  O8  1  0.07379100  0.01032400  0.68787600  1
  O  O9  1  0.12869100  0.48488400  0.88741200  1
  O  O10  1  0.67632900  0.77455800  0.22647100  1
  O  O11  1  0.95962500  0.65391500  0.42553900  1
  O  O12  1  0.94342900  0.17282800  0.96373300  1
  O  O13  1  0.92417100  0.73071200  0.71771500  1
  O  O14  1  0.52400600  0.32641800  0.00166000  1
  O  O15  1  0.87896900  0.50759000  0.10239900  1
  O  O16  1  0.03801500  0.35863800  0.56603200  1
  O  O17  1  0.65247000  0.48642800  0.38075200  1
  O  O18  1  0.34449200  0.98924000  0.12520200  1
  O  O19  1  0.66248200  0.25878400  0.22301600  1
  O  O20  1  0.06273100  0.27177700  0.27931400  1
  O  O21  1  0.75943800  0.50949800  0.81840700  1
  O  O22  1  0.22735100  0.50821800  0.18248700  1
  O  O23  1  0.54104600  0.80824600  0.48387000  1
  O  O24  1  0.68584200  0.26709100  0.72115700  1
  O  O25  1  0.34234900  0.73903400  0.77746300  1
loop_
_geom_bond_atom_site_label_1
_geom_bond_atom_site_label_2
_geom_bond_distance
_geom_bond_site_symmetry_2
O0 Te1 1.958264 1_555
O0 Tm3 2.221220 1_555
O0 Tm1 2.332419 1_555
O1 Te8 2.046080 1_555
O1 Te5 2.087280 1_556
O2 Te0 1.878854 1_555
O2 Tm0 2.256419 1_555
O2 Te6 2.582405 1_555
O3 Te2 2.031116 1_554
O3 Tm3 2.235810 1_555
O3 Te9 2.693511 1_454
O4 Te8 1.841558 1_555
O4 Tm2 2.243574 1_555
O4 Tm0 2.553138 1_555
O5 Te0 1.918733 1_555
O5 Te8 2.171970 1_555
O6 Te4 1.861440 1_565
O6 Tm3 2.111610 1_655
O7 Te2 1.857214 1_555
O7 Tm1 2.297716 1_556
O7 Tm0 2.649201 1_555
O8 Te6 1.764239 1_545
O8 Tm2 2.268572 1_555
O9 Te9 1.911459 1_455
O9 Tm0 2.231076 1_555
O9 Tm2 2.749112 1_555
O10 Te1 1.797655 1_555
O10 Tm3 2.249325 1_655
O10 Tm1 2.614005 1_555
O11 Te3 1.982515 1_555
O11 Tm3 2.150460 1_655
O12 Te5 1.834274 1_556
O12 Tm2 2.432751 1_655
O13 Te9 1.989670 1_555
O13 Te6 2.022746 1_655
O14 Te5 1.870136 1_555
O14 Tm0 2.328806 1_554
O14 Tm1 2.607923 1_555
O15 Te7 1.838346 1_655
O15 Tm1 2.329826 1_555
O15 Te9 2.577156 1_554
O15 Tm3 2.886157 1_655
O16 Te0 1.837210 1_555
O16 Tm2 2.174564 1_555
O17 Te3 1.960819 1_555
O17 Tm1 2.356413 1_555
O17 Te4 2.598544 1_555
O18 Te2 1.960018 1_554
O18 Te1 2.072788 1_555
O19 Te4 1.896473 1_555
O19 Tm1 2.330364 1_555
O19 Te5 2.353453 1_555
O20 Te7 1.960792 1_555
O20 Te4 1.987872 1_455
O21 Te9 1.854532 1_555
O21 Tm0 2.309925 1_555
O21 Tm2 2.440537 1_655
O22 Te7 1.849067 1_555
O22 Tm3 2.278352 1_555
O22 Tm1 2.295652 1_555
O23 Te3 1.870757 1_555
O23 Te1 2.203874 1_555
O24 Te8 1.857135 1_555
O24 Tm2 2.257807 1_655
O24 Tm0 2.367400 1_555
O25 Te6 1.946972 1_555
O25 Tm0 2.265679 1_555
O25 Te2 2.435311 1_555
