# generated using pymatgen
data_Li5Mn8(BO3)8
_symmetry_space_group_name_H-M   'P 1'
_cell_length_a   5.25554900
_cell_length_b   9.17346940
_cell_length_c   10.48408911
_cell_angle_alpha   89.63934762
_cell_angle_beta   88.59801633
_cell_angle_gamma   88.88646998
_symmetry_Int_Tables_number   1
_chemical_formula_structural   Li5Mn8(BO3)8
_chemical_formula_sum   'Li5 Mn8 B8 O24'
_cell_volume   505.19959907
_cell_formula_units_Z   1
loop_
 _symmetry_equiv_pos_site_id
 _symmetry_equiv_pos_as_xyz
  1  'x, y, z'
loop_
 _atom_site_type_symbol
 _atom_site_label
 _atom_site_symmetry_multiplicity
 _atom_site_fract_x
 _atom_site_fract_y
 _atom_site_fract_z
 _atom_site_occupancy
  Li  Li0  1  0.07137100  0.07093500  0.34537800  1
  Li  Li1  1  0.92722800  0.01134700  0.73033000  1
  Li  Li2  1  0.42461900  0.41662500  0.09732300  1
  Li  Li3  1  0.55625300  0.58463300  0.33233400  1
  Li  Li4  1  0.61068800  0.57175300  0.83444800  1
  Mn  Mn0  1  0.08812700  0.73902900  0.37558800  1
  Mn  Mn1  1  0.10779900  0.40140300  0.87005800  1
  Mn  Mn2  1  0.43314900  0.08891300  0.12917400  1
  Mn  Mn3  1  0.44605900  0.75328400  0.61632000  1
  Mn  Mn4  1  0.56211100  0.25150700  0.37627500  1
  Mn  Mn5  1  0.52698900  0.91191300  0.87681200  1
  Mn  Mn6  1  0.91223000  0.59603000  0.11406300  1
  Mn  Mn7  1  0.90881800  0.27897700  0.61743700  1
  B  B0  1  0.06852100  0.42961400  0.37767700  1
  B  B1  1  0.06787800  0.74364500  0.86642800  1
  B  B2  1  0.38510300  0.75047700  0.12776700  1
  B  B3  1  0.42764000  0.08754000  0.63149600  1
  B  B4  1  0.59024700  0.91319400  0.37283400  1
  B  B5  1  0.61653300  0.24771000  0.87433700  1
  B  B6  1  0.92488200  0.26539900  0.14063000  1
  B  B7  1  0.95205900  0.57961800  0.62305500  1
  O  O0  1  0.06507800  0.14719100  0.17501800  1
  O  O1  1  0.08391800  0.69095000  0.55833800  1
  O  O2  1  0.04111500  0.38263300  0.07637100  1
  O  O3  1  0.09277100  0.45475500  0.66097900  1
  O  O4  1  0.14493700  0.76180300  0.19000000  1
  O  O5  1  0.17310300  0.10013300  0.62444300  1
  O  O6  1  0.32454200  0.43167000  0.36429800  1
  O  O7  1  0.33316600  0.73611600  0.83057500  1
  O  O8  1  0.44936800  0.03392300  0.33305200  1
  O  O9  1  0.51813700  0.12065700  0.92719200  1
  O  O10  1  0.45947600  0.78407200  0.40711600  1
  O  O11  1  0.49950700  0.38024500  0.89733200  1
  O  O12  1  0.52315800  0.62296800  0.13679000  1
  O  O13  1  0.58900200  0.18809300  0.57360100  1
  O  O14  1  0.46651600  0.87215600  0.05950500  1
  O  O15  1  0.54952700  0.96590400  0.69199200  1
  O  O16  1  0.66307300  0.27532300  0.17217500  1
  O  O17  1  0.70110700  0.59068300  0.65282400  1
  O  O18  1  0.84688500  0.91387900  0.38322600  1
  O  O19  1  0.84648300  0.23691200  0.80249700  1
  O  O20  1  0.91703100  0.54833200  0.33678600  1
  O  O21  1  0.96168800  0.61468000  0.91179600  1
  O  O22  1  0.94112800  0.30859700  0.43082900  1
  O  O23  1  0.92762000  0.86757200  0.85621700  1
loop_
_geom_bond_atom_site_label_1
_geom_bond_atom_site_label_2
_geom_bond_distance
_geom_bond_site_symmetry_2
Li0 O18 1.913397 1_445
Li0 O0 1.914875 1_555
Li0 O8 2.010040 1_555
Li0 O22 2.441499 1_455
Li1 O23 1.859988 1_545
Li1 O5 1.877468 1_655
Li1 O15 2.085420 1_545
Li1 O19 2.236973 1_555
Li2 O16 1.959275 1_555
Li2 O12 2.020112 1_555
Li2 O2 2.062711 1_555
Li2 O11 2.150779 1_554
Li3 O6 1.898621 1_555
Li3 O20 1.920367 1_555
Li3 O10 2.045239 1_555
Li3 O12 2.088739 1_555
Li4 O17 1.958717 1_555
Li4 O11 1.966943 1_555
Li4 O7 2.078223 1_555
Li4 O21 2.078709 1_555
Mn0 O1 1.963062 1_555
Mn0 O4 1.971674 1_555
Mn0 O18 2.025893 1_455
Mn0 O20 2.030342 1_455
Mn0 O10 2.038022 1_555
Mn1 O11 2.090458 1_555
Mn1 O21 2.131886 1_455
Mn1 O2 2.188977 1_556
Mn1 O19 2.192343 1_455
Mn1 O3 2.245910 1_555
Mn2 O0 2.043606 1_555
Mn2 O14 2.125209 1_545
Mn2 O16 2.168936 1_555
Mn2 O9 2.172448 1_554
Mn2 O8 2.196407 1_555
Mn3 O17 2.026896 1_555
Mn3 O1 2.102892 1_555
Mn3 O15 2.193451 1_555
Mn3 O10 2.209247 1_555
Mn3 O7 2.314414 1_555
Mn4 O6 2.056939 1_555
Mn4 O8 2.147311 1_555
Mn4 O13 2.152720 1_555
Mn4 O22 2.160857 1_555
Mn4 O16 2.202520 1_555
Mn5 O14 1.966872 1_556
Mn5 O9 1.988990 1_565
Mn5 O7 1.992781 1_555
Mn5 O15 1.998216 1_555
Mn5 O23 2.142645 1_555
Mn6 O12 2.063069 1_555
Mn6 O2 2.095767 1_655
Mn6 O21 2.136330 1_554
Mn6 O4 2.139463 1_655
Mn6 O20 2.373633 1_555
Mn7 O13 1.956658 1_555
Mn7 O3 1.958222 1_655
Mn7 O22 1.977137 1_555
Mn7 O19 1.996230 1_555
Mn7 O5 2.130998 1_655
B0 O6 1.349889 1_555
B0 O20 1.407420 1_455
B0 O22 1.412109 1_455
B1 O23 1.347958 1_455
B1 O21 1.393882 1_455
B1 O7 1.435580 1_555
B2 O12 1.368414 1_555
B2 O14 1.390940 1_555
B2 O4 1.408940 1_555
B3 O5 1.344271 1_555
B3 O13 1.391628 1_555
B3 O15 1.428589 1_545
B4 O18 1.355960 1_555
B4 O8 1.387851 1_565
B4 O10 1.420827 1_555
B5 O11 1.371840 1_555
B5 O9 1.390751 1_555
B5 O19 1.410439 1_555
B6 O0 1.351207 1_655
B6 O2 1.407082 1_655
B6 O16 1.408597 1_555
B7 O17 1.349902 1_555
B7 O1 1.406922 1_655
B7 O3 1.411633 1_655
