# generated using pymatgen
data_LiNiPO4
_symmetry_space_group_name_H-M   'P 1'
_cell_length_a   5.55995800
_cell_length_b   7.93027200
_cell_length_c   5.78955100
_cell_angle_alpha   89.99978999
_cell_angle_beta   90.00002020
_cell_angle_gamma   90.00000722
_symmetry_Int_Tables_number   1
_chemical_formula_structural   LiNiPO4
_chemical_formula_sum   'Li4 Ni4 P4 O16'
_cell_volume   255.27276255
_cell_formula_units_Z   4
loop_
 _symmetry_equiv_pos_site_id
 _symmetry_equiv_pos_as_xyz
  1  'x, y, z'
loop_
 _atom_site_type_symbol
 _atom_site_label
 _atom_site_symmetry_multiplicity
 _atom_site_fract_x
 _atom_site_fract_y
 _atom_site_fract_z
 _atom_site_occupancy
  Li  Li0  1  0.00000500  0.99999500  0.00000000  1
  Li  Li1  1  0.49999500  0.50000500  0.50000000  1
  Li  Li2  1  0.49999500  0.99999500  0.00000000  1
  Li  Li3  1  0.00000500  0.50000500  0.50000000  1
  Ni  Ni0  1  0.25000000  0.75000000  0.75000000  1
  Ni  Ni1  1  0.25000000  0.75000000  0.25000000  1
  Ni  Ni2  1  0.75000000  0.25000000  0.25000000  1
  Ni  Ni3  1  0.75000000  0.25000000  0.75000000  1
  P  P0  1  0.25000000  0.12030000  0.50000000  1
  P  P1  1  0.75000000  0.62032400  0.00000100  1
  P  P2  1  0.25000000  0.37969900  0.99999900  1
  P  P3  1  0.75000000  0.87967700  0.49999900  1
  O  O0  1  0.24999900  0.01161900  0.27699800  1
  O  O1  1  0.74999900  0.51163300  0.77698100  1
  O  O2  1  0.25000100  0.48838100  0.77700000  1
  O  O3  1  0.75000000  0.98836600  0.27698300  1
  O  O4  1  0.25000000  0.01162000  0.72300200  1
  O  O5  1  0.75000000  0.51163300  0.22301600  1
  O  O6  1  0.25000100  0.48838200  0.22300300  1
  O  O7  1  0.75000100  0.98836600  0.72302000  1
  O  O8  1  0.02085300  0.23940400  0.49999900  1
  O  O9  1  0.52084200  0.73939600  0.00000000  1
  O  O10  1  0.47914700  0.23940400  0.49999900  1
  O  O11  1  0.97915700  0.73939700  0.99999800  1
  O  O12  1  0.02085300  0.26059400  0.00000100  1
  O  O13  1  0.52084300  0.76060400  0.50000200  1
  O  O14  1  0.47914700  0.26059500  0.00000200  1
  O  O15  1  0.97915800  0.76060500  0.49999900  1
loop_
_geom_bond_atom_site_label_1
_geom_bond_atom_site_label_2
_geom_bond_distance
_geom_bond_site_symmetry_2
Li0 O11 2.069861 1_454
Li0 O12 2.069869 1_565
Li0 O7 2.124179 1_454
Li0 O3 2.124196 1_455
Li0 O0 2.124220 1_565
Li0 O4 2.124224 1_564
Li1 O13 2.069869 1_555
Li1 O10 2.069885 1_555
Li1 O1 2.124183 1_555
Li1 O5 2.124200 1_555
Li1 O6 2.124215 1_555
Li1 O2 2.124229 1_555
Li2 O9 2.069869 1_555
Li2 O14 2.069877 1_565
Li2 O7 2.124187 1_554
Li2 O3 2.124195 1_555
Li2 O4 2.124223 1_564
Li2 O0 2.124228 1_565
Li3 O15 2.069877 1_455
Li3 O8 2.069885 1_555
Li3 O1 2.124191 1_455
Li3 O5 2.124199 1_455
Li3 O6 2.124223 1_555
Li3 O2 2.124235 1_555
Ni0 O2 2.080590 1_555
Ni0 O4 2.080597 1_565
Ni0 O11 2.090366 1_455
Ni0 O13 2.090366 1_555
Ni0 O9 2.090370 1_556
Ni0 O15 2.090374 1_455
Ni1 O6 2.080582 1_555
Ni1 O0 2.080590 1_565
Ni1 O15 2.090367 1_455
Ni1 O9 2.090371 1_555
Ni1 O11 2.090382 1_454
Ni1 O13 2.090382 1_555
Ni2 O5 2.080694 1_555
Ni2 O3 2.080701 1_545
Ni2 O14 2.090403 1_555
Ni2 O8 2.090407 1_655
Ni2 O12 2.090407 1_655
Ni2 O10 2.090408 1_555
Ni3 O1 2.080693 1_555
Ni3 O7 2.080701 1_545
Ni3 O12 2.090415 1_656
Ni3 O10 2.090416 1_555
Ni3 O8 2.090416 1_655
Ni3 O14 2.090420 1_556
O0 P0 1.552327 1_555
O1 P1 1.552458 1_556
O2 P2 1.552312 1_555
O3 P3 1.552424 1_555
O4 P0 1.552317 1_555
O5 P1 1.552428 1_555
O6 P2 1.552345 1_554
O7 P3 1.552454 1_555
O8 P0 1.585979 1_555
O9 P1 1.585877 1_555
O10 P0 1.585979 1_555
O11 P1 1.585877 1_556
O12 P2 1.585984 1_554
O13 P3 1.585877 1_555
O14 P2 1.585979 1_554
O15 P3 1.585877 1_555
