# generated using pymatgen
data_LiV2(OF)3
_symmetry_space_group_name_H-M   'P 1'
_cell_length_a   5.10357900
_cell_length_b   5.14437892
_cell_length_c   5.30063210
_cell_angle_alpha   92.49453749
_cell_angle_beta   116.42818765
_cell_angle_gamma   118.09652046
_symmetry_Int_Tables_number   1
_chemical_formula_structural   LiV2(OF)3
_chemical_formula_sum   'Li1 V2 O3 F3'
_cell_volume   104.13960597
_cell_formula_units_Z   1
loop_
 _symmetry_equiv_pos_site_id
 _symmetry_equiv_pos_as_xyz
  1  'x, y, z'
loop_
 _atom_site_type_symbol
 _atom_site_label
 _atom_site_symmetry_multiplicity
 _atom_site_fract_x
 _atom_site_fract_y
 _atom_site_fract_z
 _atom_site_occupancy
  Li  Li0  1  0.58199000  0.80828400  0.34309500  1
  V  V0  1  0.99368200  0.48432400  0.52677900  1
  V  V1  1  0.00330200  0.01308700  0.00030000  1
  O  O0  1  0.07098400  0.83858200  0.75176600  1
  O  O1  1  0.89422200  0.24606700  0.72963400  1
  O  O2  1  0.89690500  0.14326900  0.23777600  1
  F  F0  1  0.14352500  0.76080800  0.27183900  1
  F  F1  1  0.50937800  0.39072400  0.24505600  1
  F  F2  1  0.49496700  0.64444700  0.74610800  1
loop_
_geom_bond_atom_site_label_1
_geom_bond_atom_site_label_2
_geom_bond_distance
_geom_bond_site_symmetry_2
Li0 O2 2.034225 1_565
Li0 O1 2.262969 1_565
Li0 O0 2.395187 1_655
O0 V1 1.804141 1_566
O0 V0 1.901035 1_455
O1 V0 1.711927 1_555
O1 V1 1.967731 1_656
O2 V1 1.790379 1_655
O2 V0 1.986273 1_555
F0 Li0 1.983587 1_555
F0 V1 2.094917 1_565
F0 V0 2.120536 1_455
F1 Li0 2.000816 1_555
F1 V0 2.025314 1_555
F1 V1 2.049339 1_555
F2 V0 1.964524 1_455
F2 V1 2.043092 1_666
F2 Li0 2.473815 1_555
