# generated using pymatgen
data_Mn27Nb13O60
_symmetry_space_group_name_H-M   'P 1'
_cell_length_a   5.72062629
_cell_length_b   5.70424155
_cell_length_c   56.89407155
_cell_angle_alpha   55.91149598
_cell_angle_beta   55.85153667
_cell_angle_gamma   56.15992577
_symmetry_Int_Tables_number   1
_chemical_formula_structural   Mn27Nb13O60
_chemical_formula_sum   'Mn27 Nb13 O60'
_cell_volume   1190.31395197
_cell_formula_units_Z   1
loop_
 _symmetry_equiv_pos_site_id
 _symmetry_equiv_pos_as_xyz
  1  'x, y, z'
loop_
 _atom_site_type_symbol
 _atom_site_label
 _atom_site_symmetry_multiplicity
 _atom_site_fract_x
 _atom_site_fract_y
 _atom_site_fract_z
 _atom_site_occupancy
  Mn  Mn0  1  0.28302900  0.28171700  0.02767300  1
  Mn  Mn1  1  0.28266200  0.28645400  0.12809400  1
  Mn  Mn2  1  0.78486600  0.77892400  0.07790200  1
  Mn  Mn3  1  0.28313700  0.28435800  0.22855900  1
  Mn  Mn4  1  0.78604200  0.78465000  0.17827400  1
  Mn  Mn5  1  0.28069600  0.28940800  0.32846500  1
  Mn  Mn6  1  0.78306200  0.78381400  0.27847700  1
  Mn  Mn7  1  0.26923100  0.27526300  0.43153200  1
  Mn  Mn8  1  0.48388200  0.49158000  0.45427300  1
  Mn  Mn9  1  0.78504500  0.77065400  0.37967700  1
  Mn  Mn10  1  0.28399100  0.28420700  0.53130500  1
  Mn  Mn11  1  0.49545500  0.49758900  0.55287200  1
  Mn  Mn12  1  0.78400200  0.77315500  0.48188200  1
  Mn  Mn13  1  0.27615400  0.28663100  0.63201300  1
  Mn  Mn14  1  0.49308600  0.49562000  0.65180800  1
  Mn  Mn15  1  0.78491700  0.78248500  0.58070900  1
  Mn  Mn16  1  0.99889900  0.98562100  0.69969000  1
  Mn  Mn17  1  0.31390100  0.30051000  0.72806900  1
  Mn  Mn18  1  0.51262300  0.51120900  0.74796000  1
  Mn  Mn19  1  0.79979100  0.78034700  0.68025100  1
  Mn  Mn20  1  0.29331300  0.29280000  0.82609200  1
  Mn  Mn21  1  0.50796600  0.50782000  0.84836100  1
  Mn  Mn22  1  0.80011700  0.80844600  0.77643400  1
  Mn  Mn23  1  0.30360400  0.29870300  0.92395800  1
  Mn  Mn24  1  0.51837700  0.50686100  0.94684500  1
  Mn  Mn25  1  0.79148200  0.79432300  0.87749100  1
  Mn  Mn26  1  0.78600500  0.80902700  0.97447700  1
  Nb  Nb0  1  0.00120200  0.02433800  0.99571700  1
  Nb  Nb1  1  0.50560800  0.49628200  0.04810500  1
  Nb  Nb2  1  0.49525100  0.49320300  0.14942300  1
  Nb  Nb3  1  0.99323200  0.99550700  0.09917600  1
  Nb  Nb4  1  0.49403600  0.49333100  0.24980000  1
  Nb  Nb5  1  0.99196000  0.99371400  0.30001800  1
  Nb  Nb6  1  0.99452200  0.99420600  0.19958200  1
  Nb  Nb7  1  0.49330700  0.49137200  0.35091000  1
  Nb  Nb8  1  0.99257000  0.97702100  0.40354600  1
  Nb  Nb9  1  0.99001500  0.98526700  0.50252100  1
  Nb  Nb10  1  0.98497900  0.99438800  0.60206400  1
  Nb  Nb11  1  0.01035500  0.00361800  0.79865500  1
  Nb  Nb12  1  0.01003000  0.00682500  0.89699800  1
  O  O0  1  0.11727400  0.35994900  0.07279500  1
  O  O1  1  0.35631900  0.71782100  0.01299100  1
  O  O2  1  0.71299300  0.11490700  0.03754500  1
  O  O3  1  0.22515200  0.85275900  0.06229200  1
  O  O4  1  0.61446400  0.22073900  0.08616300  1
  O  O5  1  0.11530600  0.36405700  0.17238000  1
  O  O6  1  0.86003400  0.60136900  0.02480400  1
  O  O7  1  0.36296600  0.72118100  0.11168300  1
  O  O8  1  0.71967500  0.11959200  0.13632200  1
  O  O9  1  0.21964300  0.86753800  0.16137800  1
  O  O10  1  0.61631200  0.21942200  0.18668000  1
  O  O11  1  0.11758200  0.36383500  0.27253200  1
  O  O12  1  0.86183400  0.61827500  0.12247100  1
  O  O13  1  0.36574600  0.72164400  0.21143600  1
  O  O14  1  0.71954000  0.11720400  0.23655200  1
  O  O15  1  0.21868800  0.86599300  0.26173900  1
  O  O16  1  0.62050300  0.22072100  0.28644700  1
  O  O17  1  0.11947000  0.35813800  0.37126200  1
  O  O18  1  0.86480900  0.61510100  0.22234600  1
  O  O19  1  0.37047100  0.71219100  0.31110800  1
  O  O20  1  0.72502400  0.11979600  0.33670500  1
  O  O21  1  0.22883800  0.86787600  0.35896200  1
  O  O22  1  0.61418200  0.23386800  0.38585000  1
  O  O23  1  0.09161100  0.36013000  0.47222400  1
  O  O24  1  0.85563500  0.61770600  0.32260200  1
  O  O25  1  0.36520200  0.73631100  0.40921700  1
  O  O26  1  0.72706100  0.10439300  0.43631400  1
  O  O27  1  0.18374100  0.89166500  0.46184300  1
  O  O28  1  0.59624200  0.18482800  0.49240300  1
  O  O29  1  0.09263100  0.35925100  0.57191700  1
  O  O30  1  0.88346100  0.63684600  0.41803600  1
  O  O31  1  0.36556200  0.70209400  0.51055800  1
  O  O32  1  0.72581500  0.09270800  0.53806100  1
  O  O33  1  0.17920300  0.91217300  0.56055700  1
  O  O34  1  0.57953300  0.19231800  0.59376100  1
  O  O35  1  0.09774400  0.37213400  0.67057500  1
  O  O36  1  0.88924100  0.61125600  0.52112100  1
  O  O37  1  0.36059100  0.70993000  0.61040300  1
  O  O38  1  0.72438600  0.09450700  0.63791500  1
  O  O39  1  0.19828000  0.89424100  0.66124200  1
  O  O40  1  0.60861300  0.17614100  0.69071600  1
  O  O41  1  0.09540900  0.37910700  0.77078200  1
  O  O42  1  0.88734100  0.60988500  0.61974500  1
  O  O43  1  0.39263100  0.69071900  0.71037300  1
  O  O44  1  0.70501900  0.10386700  0.73685600  1
  O  O45  1  0.21091600  0.91807600  0.75708300  1
  O  O46  1  0.61390500  0.20726500  0.78609700  1
  O  O47  1  0.10024000  0.37472100  0.87161400  1
  O  O48  1  0.92367800  0.59474800  0.72016600  1
  O  O49  1  0.36966800  0.73318000  0.80800300  1
  O  O50  1  0.72250400  0.10069300  0.83474700  1
  O  O51  1  0.20694900  0.89594300  0.86032800  1
  O  O52  1  0.63207000  0.19373300  0.88669100  1
  O  O53  1  0.09427300  0.37165900  0.97551400  1
  O  O54  1  0.90170700  0.62655600  0.81565500  1
  O  O55  1  0.35952800  0.73142500  0.90998100  1
  O  O56  1  0.71032000  0.10921900  0.93571300  1
  O  O57  1  0.20203500  0.88058200  0.96352000  1
  O  O58  1  0.62316600  0.19041100  0.98962500  1
  O  O59  1  0.89586000  0.61536000  0.92004100  1
loop_
_geom_bond_atom_site_label_1
_geom_bond_atom_site_label_2
_geom_bond_distance
_geom_bond_site_symmetry_2
Mn0 O58 2.037063 1_554
Mn0 O6 2.098205 1_455
Mn0 O3 2.178096 1_545
Mn0 O1 2.345431 1_555
Mn0 O2 2.369819 1_555
Mn0 O0 2.401803 1_555
Mn1 O9 2.132312 1_545
Mn1 O4 2.135609 1_555
Mn1 O12 2.142757 1_455
Mn1 O7 2.328950 1_555
Mn1 O5 2.351818 1_555
Mn1 O8 2.353559 1_555
Mn2 O2 2.088925 1_565
Mn2 O0 2.123369 1_655
Mn2 O7 2.143721 1_555
Mn2 O3 2.358158 1_655
Mn2 O4 2.366405 1_565
Mn2 O12 2.379666 1_555
Mn3 O15 2.131519 1_545
Mn3 O10 2.133453 1_555
Mn3 O18 2.141242 1_455
Mn3 O13 2.338041 1_555
Mn3 O14 2.342181 1_555
Mn3 O11 2.344058 1_555
Mn4 O5 2.139149 1_655
Mn4 O13 2.139925 1_555
Mn4 O8 2.142217 1_565
Mn4 O9 2.328116 1_655
Mn4 O10 2.334174 1_565
Mn4 O18 2.343153 1_555
Mn5 O21 2.102428 1_545
Mn5 O16 2.152125 1_555
Mn5 O24 2.160956 1_455
Mn5 O17 2.253703 1_555
Mn5 O19 2.279367 1_555
Mn5 O20 2.388968 1_555
Mn6 O19 2.118677 1_555
Mn6 O14 2.134679 1_565
Mn6 O11 2.142741 1_655
Mn6 O24 2.331975 1_555
Mn6 O15 2.339513 1_655
Mn6 O16 2.343861 1_565
Mn7 O27 2.004048 1_545
Mn7 O23 2.166593 1_555
Mn7 O30 2.184376 1_455
Mn7 O22 2.261813 1_555
Mn7 O26 2.354390 1_555
Mn7 O25 2.431588 1_555
Mn8 O28 2.058849 1_555
Mn8 O27 2.061373 1_555
Mn8 O30 2.250777 1_555
Mn8 O23 2.254685 1_555
Mn8 O26 2.317120 1_555
Mn8 O25 2.422356 1_555
Mn9 O25 2.062689 1_555
Mn9 O17 2.155685 1_655
Mn9 O30 2.167028 1_555
Mn9 O20 2.187329 1_565
Mn9 O21 2.370279 1_655
Mn9 O22 2.416353 1_565
Mn10 O33 1.992619 1_545
Mn10 O28 2.061762 1_555
Mn10 O29 2.113648 1_555
Mn10 O36 2.116791 1_455
Mn10 O31 2.181670 1_555
Mn10 O32 2.296590 1_555
Mn11 O34 2.111384 1_555
Mn11 O36 2.122155 1_555
Mn11 O33 2.136065 1_555
Mn11 O32 2.307762 1_555
Mn11 O29 2.317465 1_555
Mn11 O31 2.367175 1_555
Mn12 O31 2.123901 1_555
Mn12 O23 2.167337 1_655
Mn12 O36 2.185825 1_555
Mn12 O27 2.217406 1_655
Mn12 O28 2.251897 1_565
Mn12 O26 2.273569 1_565
Mn13 O34 2.017407 1_555
Mn13 O39 2.019977 1_545
Mn13 O35 2.055270 1_555
Mn13 O42 2.137028 1_455
Mn13 O37 2.209015 1_555
Mn13 O38 2.305018 1_555
Mn14 O39 2.093665 1_555
Mn14 O40 2.106437 1_555
Mn14 O42 2.127148 1_555
Mn14 O35 2.229631 1_555
Mn14 O38 2.256532 1_555
Mn14 O37 2.315761 1_555
Mn15 O32 2.138889 1_565
Mn15 O42 2.147673 1_555
Mn15 O37 2.156128 1_555
Mn15 O29 2.193017 1_655
Mn15 O33 2.225689 1_655
Mn15 O34 2.303127 1_565
Mn16 O44 2.024187 1_565
Mn16 O48 2.026762 1_555
Mn16 O35 2.041501 1_665
Mn16 O39 2.042677 1_655
Mn16 O40 2.093319 1_565
Mn16 O43 2.107927 1_655
Mn17 O48 2.027423 1_455
Mn17 O45 2.033202 1_545
Mn17 O40 2.048769 1_555
Mn17 O43 2.065506 1_555
Mn17 O44 2.084764 1_555
Mn17 O41 2.203599 1_555
Mn18 O46 2.031075 1_555
Mn18 O48 2.117986 1_555
Mn18 O43 2.122114 1_555
Mn18 O45 2.125549 1_555
Mn18 O44 2.241883 1_555
Mn18 O41 2.318911 1_555
Mn19 O43 2.118094 1_555
Mn19 O35 2.143238 1_655
Mn19 O38 2.160139 1_565
Mn19 O40 2.161839 1_565
Mn19 O39 2.209607 1_655
Mn19 O48 2.248649 1_555
Mn20 O46 2.083772 1_555
Mn20 O51 2.094110 1_545
Mn20 O54 2.114674 1_455
Mn20 O50 2.286352 1_555
Mn20 O49 2.319419 1_555
Mn20 O47 2.390884 1_555
Mn21 O52 2.100356 1_555
Mn21 O51 2.111335 1_555
Mn21 O54 2.139075 1_555
Mn21 O49 2.269075 1_555
Mn21 O47 2.269157 1_555
Mn21 O50 2.296561 1_555
Mn22 O44 2.075295 1_565
Mn22 O54 2.140721 1_555
Mn22 O41 2.149442 1_655
Mn22 O46 2.158206 1_565
Mn22 O49 2.195818 1_555
Mn22 O45 2.255247 1_655
Mn23 O52 2.020405 1_555
Mn23 O59 2.047674 1_455
Mn23 O57 2.269345 1_545
Mn23 O56 2.272600 1_555
Mn23 O55 2.284973 1_555
Mn23 O53 2.660989 1_555
Mn24 O59 2.026139 1_555
Mn24 O55 2.167297 1_555
Mn24 O57 2.182293 1_555
Mn24 O56 2.192578 1_555
Mn24 O58 2.247164 1_555
Mn24 O53 2.317874 1_555
Mn25 O47 2.118017 1_655
Mn25 O50 2.160830 1_565
Mn25 O55 2.183496 1_555
Mn25 O52 2.187061 1_565
Mn25 O51 2.287526 1_655
Mn25 O59 2.330854 1_555
Mn26 O56 1.999161 1_565
Mn26 O53 2.095078 1_655
Mn26 O1 2.283357 1_556
Mn26 O58 2.299263 1_565
Mn26 O57 2.313102 1_655
Mn26 O6 2.604179 1_556
Nb0 O53 1.861430 1_555
Nb0 O57 1.902556 1_545
Nb0 O58 1.971328 1_455
Nb0 O1 2.123481 1_546
Nb0 O2 2.161723 1_456
Nb0 O6 2.325088 1_446
Nb1 O6 1.916487 1_555
Nb1 O3 2.028010 1_555
Nb1 O4 2.038479 1_555
Nb1 O1 2.049620 1_555
Nb1 O2 2.071579 1_555
Nb1 O0 2.170094 1_555
Nb2 O12 2.021867 1_555
Nb2 O10 2.035794 1_555
Nb2 O9 2.045102 1_555
Nb2 O8 2.098732 1_555
Nb2 O7 2.114800 1_555
Nb2 O5 2.119072 1_555
Nb3 O0 2.006898 1_665
Nb3 O8 2.036294 1_565
Nb3 O7 2.045474 1_655
Nb3 O3 2.100807 1_655
Nb3 O12 2.106677 1_555
Nb3 O4 2.127915 1_565
Nb4 O16 2.023578 1_555
Nb4 O18 2.031342 1_555
Nb4 O15 2.037015 1_555
Nb4 O11 2.104765 1_555
Nb4 O14 2.115190 1_555
Nb4 O13 2.132200 1_555
Nb5 O20 2.021631 1_565
Nb5 O11 2.036314 1_665
Nb5 O19 2.047148 1_655
Nb5 O16 2.108325 1_565
Nb5 O24 2.123266 1_555
Nb5 O15 2.123903 1_655
Nb6 O5 2.021523 1_665
Nb6 O14 2.025173 1_565
Nb6 O13 2.034002 1_655
Nb6 O18 2.114998 1_555
Nb6 O9 2.118140 1_655
Nb6 O10 2.121466 1_565
Nb7 O22 1.930356 1_555
Nb7 O21 1.953757 1_555
Nb7 O24 2.006062 1_555
Nb7 O20 2.119206 1_555
Nb7 O17 2.129690 1_555
Nb7 O19 2.193547 1_555
Nb8 O26 1.849525 1_565
Nb8 O25 1.883924 1_655
Nb8 O30 1.952592 1_555
Nb8 O17 2.100385 1_665
Nb8 O22 2.259824 1_565
Nb8 O21 2.373313 1_655
Nb9 O32 1.917015 1_565
Nb9 O31 1.960527 1_655
Nb9 O23 2.002287 1_665
Nb9 O36 2.039113 1_555
Nb9 O28 2.137018 1_565
Nb9 O27 2.171648 1_655
Nb10 O38 1.911214 1_565
Nb10 O37 1.968102 1_655
Nb10 O29 1.973055 1_665
Nb10 O42 2.096402 1_555
Nb10 O34 2.143167 1_565
Nb10 O33 2.178649 1_655
Nb11 O49 1.914083 1_545
Nb11 O50 1.922916 1_455
Nb11 O41 1.956072 1_555
Nb11 O54 2.104767 1_445
Nb11 O45 2.184541 1_545
Nb11 O46 2.226667 1_455
Nb12 O47 1.930845 1_555
Nb12 O55 1.967230 1_545
Nb12 O51 2.017128 1_545
Nb12 O56 2.054123 1_455
Nb12 O52 2.076229 1_455
Nb12 O59 2.124412 1_445
