# generated using pymatgen
data_NaNiP2HO7
_symmetry_space_group_name_H-M   'P 1'
_cell_length_a   6.52505200
_cell_length_b   6.52977844
_cell_length_c   18.36861259
_cell_angle_alpha   84.08027626
_cell_angle_beta   86.61173576
_cell_angle_gamma   88.45839117
_symmetry_Int_Tables_number   1
_chemical_formula_structural   NaNiP2HO7
_chemical_formula_sum   'Na6 Ni6 P12 H6 O42'
_cell_volume   776.92919324
_cell_formula_units_Z   6
loop_
 _symmetry_equiv_pos_site_id
 _symmetry_equiv_pos_as_xyz
  1  'x, y, z'
loop_
 _atom_site_type_symbol
 _atom_site_label
 _atom_site_symmetry_multiplicity
 _atom_site_fract_x
 _atom_site_fract_y
 _atom_site_fract_z
 _atom_site_occupancy
  Na  Na0  1  0.51905400  0.88284900  0.74711100  1
  Na  Na1  1  0.18567900  0.88288000  0.41378100  1
  Na  Na2  1  0.77910800  0.83613700  0.08649700  1
  Na  Na3  1  0.22064000  0.16358800  0.91349400  1
  Na  Na4  1  0.88830100  0.16443900  0.57972200  1
  Na  Na5  1  0.55513100  0.16476100  0.24622400  1
  Ni  Ni0  1  0.99216000  0.64101300  0.70301700  1
  Ni  Ni1  1  0.65897300  0.64090200  0.36979300  1
  Ni  Ni2  1  0.68006600  0.35834400  0.96405400  1
  Ni  Ni3  1  0.32008300  0.64198800  0.03573700  1
  Ni  Ni4  1  0.34679300  0.35993000  0.63056800  1
  Ni  Ni5  1  0.01310900  0.35968400  0.29699400  1
  P  P0  1  0.67228700  0.85868200  0.92780200  1
  P  P1  1  0.33887700  0.85800900  0.59468100  1
  P  P2  1  0.00556600  0.85785400  0.26118200  1
  P  P3  1  0.04560900  0.62068100  0.87840400  1
  P  P4  1  0.71243800  0.62078700  0.54514600  1
  P  P5  1  0.37890100  0.62116900  0.21206500  1
  P  P6  1  0.62053000  0.38106200  0.78786300  1
  P  P7  1  0.28718000  0.38103500  0.45449600  1
  P  P8  1  0.95454300  0.37890200  0.12124100  1
  P  P9  1  0.99417000  0.14246100  0.73910400  1
  P  P10  1  0.66081700  0.14245000  0.40577000  1
  P  P11  1  0.32758800  0.14148000  0.07231500  1
  H  H0  1  0.34430700  0.79928100  0.89760900  1
  H  H1  1  0.01112700  0.79948100  0.56430000  1
  H  H2  1  0.67884300  0.80067300  0.23179100  1
  H  H3  1  0.31652300  0.19787100  0.76885600  1
  H  H4  1  0.98326100  0.19793000  0.43548000  1
  H  H5  1  0.65448300  0.19946800  0.10153800  1
  O  O0  1  0.49468200  0.90811000  0.87622600  1
  O  O1  1  0.92640200  0.96102500  0.70167500  1
  O  O2  1  0.86108400  0.79263200  0.87448800  1
  O  O3  1  0.16110200  0.90844000  0.54317600  1
  O  O4  1  0.59307700  0.96101300  0.36834300  1
  O  O5  1  0.20767400  0.70657300  0.92658100  1
  O  O6  1  0.62117100  0.66995500  0.98361300  1
  O  O7  1  0.52766500  0.79240100  0.54122800  1
  O  O8  1  0.82671000  0.90783600  0.21002000  1
  O  O9  1  0.26399000  0.96061300  0.03413700  1
  O  O10  1  0.87417800  0.70687800  0.59338200  1
  O  O11  1  0.28825500  0.66928700  0.65013100  1
  O  O12  1  0.19431400  0.79220600  0.20790700  1
  O  O13  1  0.13122000  0.61481100  0.80058200  1
  O  O14  1  0.70625700  0.57969200  0.74951800  1
  O  O15  1  0.54027000  0.70645300  0.26048900  1
  O  O16  1  0.95499400  0.66918500  0.31668900  1
  O  O17  1  0.79791200  0.61479700  0.46729800  1
  O  O18  1  0.37293300  0.57968000  0.41619200  1
  O  O19  1  0.96319500  0.42083500  0.91732300  1
  O  O20  1  0.53428100  0.38336500  0.86602700  1
  O  O21  1  0.46567700  0.61709800  0.13398200  1
  O  O22  1  0.03684800  0.57953600  0.08314500  1
  O  O23  1  0.62996200  0.42076600  0.58394800  1
  O  O24  1  0.20073200  0.38341000  0.53263100  1
  O  O25  1  0.04600800  0.32949700  0.68287700  1
  O  O26  1  0.46162700  0.29235900  0.73950900  1
  O  O27  1  0.29656400  0.42051500  0.25023900  1
  O  O28  1  0.86722500  0.38284100  0.19931500  1
  O  O29  1  0.80499100  0.20769300  0.79211500  1
  O  O30  1  0.71264700  0.32949300  0.34955000  1
  O  O31  1  0.12830400  0.29229200  0.40612900  1
  O  O32  1  0.73603400  0.03927800  0.96616900  1
  O  O33  1  0.17356200  0.09358600  0.79010600  1
  O  O34  1  0.47164200  0.20769900  0.45877900  1
  O  O35  1  0.37862200  0.33011000  0.01650400  1
  O  O36  1  0.79273400  0.29383700  0.07302000  1
  O  O37  1  0.40361200  0.03977800  0.63233800  1
  O  O38  1  0.84023000  0.09356900  0.45676400  1
  O  O39  1  0.13878900  0.20757200  0.12554500  1
  O  O40  1  0.07002000  0.03979800  0.29877800  1
  O  O41  1  0.50618900  0.09249900  0.12363200  1
loop_
_geom_bond_atom_site_label_1
_geom_bond_atom_site_label_2
_geom_bond_distance
_geom_bond_site_symmetry_2
Na0 O14 2.295839 1_555
Na0 O0 2.389976 1_555
Na0 O37 2.400544 1_565
Na0 O1 2.782954 1_555
Na1 O18 2.296243 1_555
Na1 O3 2.395436 1_555
Na1 O40 2.404625 1_565
Na1 O4 2.783219 1_555
Na2 O22 2.344571 1_655
Na2 O8 2.402920 1_555
Na2 O32 2.484425 1_564
Na2 O41 2.523956 1_565
Na2 O6 2.554291 1_554
Na2 O21 2.584248 1_555
Na3 O19 2.346701 1_455
Na3 O33 2.396606 1_555
Na3 O9 2.489094 1_546
Na3 O0 2.525741 1_545
Na3 O35 2.557431 1_556
Na3 O20 2.587852 1_555
Na4 O23 2.347023 1_555
Na4 O38 2.391821 1_555
Na4 O1 2.505685 1_545
Na4 O3 2.518652 1_645
Na4 O25 2.553879 1_655
Na4 O24 2.577194 1_655
Na5 O27 2.345210 1_555
Na5 O41 2.389083 1_555
Na5 O4 2.509072 1_545
Na5 O8 2.515531 1_545
Na5 O30 2.554768 1_555
Na5 O28 2.571543 1_555
Ni0 O14 2.037503 1_555
Ni0 O13 2.045717 1_655
Ni0 O11 2.114448 1_655
Ni0 O1 2.119801 1_555
Ni0 O25 2.121179 1_655
Ni0 O10 2.195444 1_555
Ni1 O18 2.037544 1_555
Ni1 O17 2.044355 1_555
Ni1 O16 2.115614 1_555
Ni1 O4 2.120439 1_555
Ni1 O30 2.120852 1_555
Ni1 O15 2.191565 1_555
Ni2 O19 2.024153 1_555
Ni2 O20 2.075387 1_555
Ni2 O32 2.102285 1_555
Ni2 O6 2.123526 1_555
Ni2 O35 2.142408 1_556
Ni2 O36 2.169672 1_556
Ni3 O22 2.029101 1_555
Ni3 O21 2.078327 1_555
Ni3 O9 2.100287 1_555
Ni3 O35 2.123350 1_555
Ni3 O6 2.137910 1_554
Ni3 O5 2.172283 1_554
Ni4 O23 2.021730 1_555
Ni4 O24 2.075093 1_555
Ni4 O11 2.108921 1_555
Ni4 O37 2.110567 1_555
Ni4 O25 2.138539 1_555
Ni4 O26 2.176656 1_555
Ni5 O27 2.024260 1_555
Ni5 O28 2.070364 1_455
Ni5 O40 2.108928 1_555
Ni5 O16 2.110062 1_455
Ni5 O30 2.138299 1_455
Ni5 O31 2.180742 1_555
H0 O5 1.162333 1_555
H0 O0 1.247565 1_555
H0 Na3 2.531252 1_565
H1 O10 1.164276 1_455
H1 O3 1.245007 1_555
H1 Na4 2.532065 1_465
H2 O15 1.175014 1_555
H2 O8 1.230239 1_555
H2 Na5 2.524966 1_565
H3 O33 1.192704 1_555
H3 O26 1.212522 1_555
H4 O38 1.193476 1_555
H4 O31 1.211844 1_655
H5 O36 1.172759 1_555
H5 O41 1.233028 1_555
H5 Na2 2.524096 1_545
O0 P0 1.546378 1_555
O1 P9 1.517877 1_565
O2 P0 1.605797 1_555
O2 P3 1.623699 1_655
O3 P1 1.547251 1_555
O4 P10 1.517801 1_565
O5 P3 1.568713 1_555
O6 P0 1.549839 1_555
O7 P1 1.606373 1_555
O7 P4 1.623408 1_555
O8 P2 1.548409 1_655
O9 P11 1.513412 1_565
O10 P4 1.568453 1_555
O11 P1 1.545430 1_555
O12 P2 1.604327 1_555
O12 P5 1.620101 1_555
O13 P3 1.507548 1_555
O14 P6 1.515013 1_555
O15 P5 1.566657 1_555
O16 P2 1.545703 1_655
O17 P4 1.507800 1_555
O18 P7 1.514888 1_555
O19 P3 1.517573 1_655
O20 P6 1.512234 1_555
O21 P5 1.513115 1_555
O22 P8 1.516173 1_455
O23 P4 1.517878 1_555
O24 P7 1.512197 1_555
O25 P9 1.547075 1_455
O26 P6 1.564200 1_555
O27 P5 1.516858 1_555
O28 P8 1.513999 1_555
O29 P9 1.602665 1_555
O29 P6 1.629699 1_555
O30 P10 1.547025 1_555
O31 P7 1.564347 1_555
O32 P0 1.514196 1_545
O33 P9 1.548397 1_455
O34 P10 1.602658 1_555
O34 P7 1.629571 1_555
O35 P11 1.549269 1_555
O36 P8 1.565698 1_555
O37 P1 1.515420 1_545
O38 P10 1.548417 1_555
O39 P11 1.604978 1_555
O39 P8 1.619811 1_455
O40 P2 1.515159 1_545
O41 P11 1.548079 1_555
