# generated using pymatgen
data_Be(BO2)4
_symmetry_space_group_name_H-M   'P 1'
_cell_length_a   4.34357000
_cell_length_b   7.34249300
_cell_length_c   19.29521242
_cell_angle_alpha   70.07815690
_cell_angle_beta   90.00000000
_cell_angle_gamma   90.00000000
_symmetry_Int_Tables_number   1
_chemical_formula_structural   Be(BO2)4
_chemical_formula_sum   'Be4 B16 O32'
_cell_volume   578.55001880
_cell_formula_units_Z   4
loop_
 _symmetry_equiv_pos_site_id
 _symmetry_equiv_pos_as_xyz
  1  'x, y, z'
loop_
 _atom_site_type_symbol
 _atom_site_label
 _atom_site_symmetry_multiplicity
 _atom_site_fract_x
 _atom_site_fract_y
 _atom_site_fract_z
 _atom_site_occupancy
  Be  Be0  1  0.40220800  0.62185000  0.74064900  1
  Be  Be1  1  0.09779200  0.62185000  0.24064900  1
  Be  Be2  1  0.59779200  0.37815000  0.25935100  1
  Be  Be3  1  0.90220800  0.37815000  0.75935100  1
  B  B0  1  0.08388800  0.78379600  0.35163000  1
  B  B1  1  0.41611200  0.78379600  0.85163000  1
  B  B2  1  0.91611200  0.21620400  0.64837000  1
  B  B3  1  0.58388800  0.21620400  0.14837000  1
  B  B4  1  0.58118100  0.68040900  0.30521400  1
  B  B5  1  0.91881900  0.68040900  0.80521400  1
  B  B6  1  0.41881900  0.31959100  0.69478600  1
  B  B7  1  0.08118100  0.31959100  0.19478600  1
  B  B8  1  0.86983400  0.76518500  0.47430200  1
  B  B9  1  0.63016600  0.76518500  0.97430200  1
  B  B10  1  0.13016600  0.23481500  0.52569800  1
  B  B11  1  0.36983400  0.23481500  0.02569800  1
  B  B12  1  0.78256700  0.05145200  0.37247900  1
  B  B13  1  0.71743300  0.05145200  0.87247900  1
  B  B14  1  0.21743300  0.94854800  0.62752100  1
  B  B15  1  0.28256700  0.94854800  0.12752100  1
  O  O0  1  0.99211500  0.98971300  0.33073700  1
  O  O1  1  0.50788500  0.98971300  0.83073700  1
  O  O2  1  0.00788500  0.01028700  0.66926300  1
  O  O3  1  0.49211500  0.01028700  0.16926300  1
  O  O4  1  0.01199900  0.68007200  0.42950500  1
  O  O5  1  0.48800100  0.68007200  0.92950500  1
  O  O6  1  0.98800100  0.31992800  0.57049500  1
  O  O7  1  0.51199900  0.31992800  0.07049500  1
  O  O8  1  0.76223000  0.95525700  0.44788900  1
  O  O9  1  0.73777000  0.95525700  0.94788900  1
  O  O10  1  0.23777000  0.04474300  0.55211100  1
  O  O11  1  0.26223000  0.04474300  0.05211100  1
  O  O12  1  0.44479100  0.56676600  0.27021900  1
  O  O13  1  0.05520900  0.56676600  0.77021900  1
  O  O14  1  0.55520900  0.43323400  0.72978100  1
  O  O15  1  0.94479100  0.43323400  0.22978100  1
  O  O16  1  0.60313500  0.20263400  0.33571000  1
  O  O17  1  0.89686500  0.20263400  0.83571000  1
  O  O18  1  0.39686500  0.79736600  0.66429000  1
  O  O19  1  0.10313500  0.79736600  0.16429000  1
  O  O20  1  0.90523700  0.69018600  0.30431700  1
  O  O21  1  0.59476300  0.69018600  0.80431700  1
  O  O22  1  0.09476300  0.30981400  0.69568300  1
  O  O23  1  0.40523700  0.30981400  0.19568300  1
  O  O24  1  0.41167900  0.77876800  0.33992400  1
  O  O25  1  0.08832100  0.77876800  0.83992400  1
  O  O26  1  0.58832100  0.22123200  0.66007600  1
  O  O27  1  0.91167900  0.22123200  0.16007600  1
  O  O28  1  0.82316200  0.66433100  0.54796500  1
  O  O29  1  0.67683800  0.66433100  0.04796500  1
  O  O30  1  0.17683800  0.33566900  0.45203500  1
  O  O31  1  0.32316200  0.33566900  0.95203500  1
loop_
_geom_bond_atom_site_label_1
_geom_bond_atom_site_label_2
_geom_bond_distance
_geom_bond_site_symmetry_2
Be0 O18 1.593170 1_555
Be0 O14 1.612923 1_555
Be0 O13 1.613554 1_555
Be0 O21 1.697212 1_555
Be1 O19 1.593170 1_555
Be1 O15 1.612923 1_455
Be1 O12 1.613554 1_555
Be1 O20 1.697212 1_455
Be2 O16 1.593170 1_555
Be2 O12 1.612923 1_555
Be2 O15 1.613554 1_555
Be2 O23 1.697212 1_555
Be3 O17 1.593170 1_555
Be3 O13 1.612923 1_655
Be3 O14 1.613554 1_555
Be3 O22 1.697212 1_655
B0 O24 1.444029 1_555
B0 O4 1.468165 1_555
B0 O0 1.480548 1_455
B0 O20 1.528265 1_455
B1 O25 1.444029 1_555
B1 O5 1.468165 1_555
B1 O1 1.480548 1_555
B1 O21 1.528265 1_555
B2 O26 1.444029 1_555
B2 O6 1.468165 1_555
B2 O2 1.480548 1_655
B2 O22 1.528265 1_655
B3 O27 1.444029 1_555
B3 O7 1.468165 1_555
B3 O3 1.480548 1_555
B3 O23 1.528265 1_555
B4 O24 1.357127 1_555
B4 O12 1.373729 1_555
B4 O20 1.409195 1_555
B5 O25 1.357127 1_655
B5 O13 1.373729 1_655
B5 O21 1.409195 1_555
B6 O26 1.357127 1_555
B6 O14 1.373729 1_555
B6 O22 1.409195 1_555
B7 O27 1.357127 1_455
B7 O15 1.373729 1_455
B7 O23 1.409195 1_555
B8 O4 1.373722 1_655
B8 O28 1.375648 1_555
B8 O8 1.393264 1_555
B9 O5 1.373722 1_555
B9 O29 1.375648 1_556
B9 O9 1.393264 1_555
B10 O6 1.373722 1_455
B10 O30 1.375648 1_555
B10 O10 1.393264 1_555
B11 O7 1.373722 1_555
B11 O31 1.375648 1_554
B11 O11 1.393264 1_555
B12 O16 1.343984 1_555
B12 O8 1.386899 1_545
B12 O0 1.389768 1_545
B13 O17 1.343984 1_555
B13 O9 1.386899 1_545
B13 O1 1.389768 1_545
B14 O18 1.343984 1_555
B14 O10 1.386899 1_565
B14 O2 1.389768 1_565
B15 O19 1.343984 1_555
B15 O11 1.386899 1_565
B15 O3 1.389768 1_565
