# generated using pymatgen
data_Na2BiO3
_symmetry_space_group_name_H-M   'P 1'
_cell_length_a   5.88544550
_cell_length_b   5.88544550
_cell_length_c   11.11578078
_cell_angle_alpha   85.17890228
_cell_angle_beta   85.17890228
_cell_angle_gamma   119.87594597
_symmetry_Int_Tables_number   1
_chemical_formula_structural   Na2BiO3
_chemical_formula_sum   'Na8 Bi4 O12'
_cell_volume   329.13251305
_cell_formula_units_Z   4
loop_
 _symmetry_equiv_pos_site_id
 _symmetry_equiv_pos_as_xyz
  1  'x, y, z'
loop_
 _atom_site_type_symbol
 _atom_site_label
 _atom_site_symmetry_multiplicity
 _atom_site_fract_x
 _atom_site_fract_y
 _atom_site_fract_z
 _atom_site_occupancy
  Na  Na0  1  0.84862340  0.67858932  0.00133239  1
  Na  Na1  1  0.67858932  0.84862340  0.50133239  1
  Na  Na2  1  0.00000000  0.50000000  0.50000000  1
  Na  Na3  1  0.91620219  0.08379781  0.75000000  1
  Na  Na4  1  0.08379781  0.91620219  0.25000000  1
  Na  Na5  1  0.32141068  0.15137660  0.49866761  1
  Na  Na6  1  0.50000000  0.00000000  0.00000000  1
  Na  Na7  1  0.15137660  0.32141068  0.99866761  1
  Bi  Bi0  1  0.58217305  0.41782695  0.75000000  1
  Bi  Bi1  1  0.24938181  0.75061819  0.75000000  1
  Bi  Bi2  1  0.41782695  0.58217305  0.25000000  1
  Bi  Bi3  1  0.75061819  0.24938181  0.25000000  1
  O  O0  1  0.98059893  0.77866389  0.63715991  1
  O  O1  1  0.90969757  0.42057929  0.85946088  1
  O  O2  1  0.77866389  0.98059893  0.13715991  1
  O  O3  1  0.50451703  0.70284735  0.86419147  1
  O  O4  1  0.42057929  0.90969757  0.35946088  1
  O  O5  1  0.70284735  0.50451703  0.36419147  1
  O  O6  1  0.29715265  0.49548297  0.63580853  1
  O  O7  1  0.57942071  0.09030243  0.64053912  1
  O  O8  1  0.49548297  0.29715265  0.13580853  1
  O  O9  1  0.22133611  0.01940107  0.86284009  1
  O  O10  1  0.09030243  0.57942071  0.14053912  1
  O  O11  1  0.01940107  0.22133611  0.36284009  1
loop_
_geom_bond_atom_site_label_1
_geom_bond_atom_site_label_2
_geom_bond_distance
_geom_bond_site_symmetry_2
Na0 O9 2.394776 1_664
Na0 O1 2.402716 1_554
Na0 O10 2.409041 1_655
Na0 O8 2.420586 1_555
Na0 O2 2.585381 1_555
Na0 O3 2.686297 1_554
Na1 O11 2.394776 1_665
Na1 O4 2.402716 1_555
Na1 O7 2.409041 1_565
Na1 O6 2.420586 1_555
Na1 O0 2.585381 1_555
Na1 O5 2.686297 1_555
Na2 O11 2.367483 1_555
Na2 O0 2.367483 1_455
Na2 O5 2.412793 1_455
Na2 O6 2.412793 1_555
Na2 O4 2.674394 1_555
Na2 O7 2.674394 1_455
Na3 O1 2.425662 1_555
Na3 O7 2.425662 1_555
Na3 O0 2.432859 1_545
Na3 O9 2.432859 1_655
Na3 O6 2.470096 1_655
Na3 O3 2.470096 1_545
Na4 O4 2.425662 1_555
Na4 O10 2.425662 1_555
Na4 O2 2.432859 1_455
Na4 O11 2.432859 1_565
Na4 O5 2.470096 1_455
Na4 O8 2.470096 1_565
Na5 O0 2.394776 1_445
Na5 O7 2.402716 1_555
Na5 O4 2.409041 1_545
Na5 O5 2.420586 1_555
Na5 O11 2.585381 1_555
Na5 O6 2.686297 1_555
Na6 O2 2.367483 1_545
Na6 O9 2.367483 1_554
Na6 O8 2.412793 1_555
Na6 O3 2.412793 1_544
Na6 O1 2.674394 1_554
Na6 O10 2.674394 1_545
Na7 O2 2.394776 1_446
Na7 O10 2.402716 1_556
Na7 O1 2.409041 1_455
Na7 O3 2.420586 1_555
Na7 O9 2.585381 1_555
Na7 O8 2.686297 1_556
Bi0 O7 2.358585 1_555
Bi0 O1 2.358585 1_555
Bi0 O3 2.378692 1_555
Bi0 O6 2.378692 1_555
Bi0 O9 2.382988 1_555
Bi0 O0 2.382988 1_555
Bi1 O7 2.139018 1_565
Bi1 O1 2.139018 1_455
Bi1 O6 2.150808 1_555
Bi1 O3 2.150808 1_555
Bi1 O0 2.159123 1_455
Bi1 O9 2.159123 1_565
Bi2 O10 2.358585 1_555
Bi2 O4 2.358585 1_555
Bi2 O8 2.378692 1_555
Bi2 O5 2.378692 1_555
Bi2 O2 2.382988 1_555
Bi2 O11 2.382988 1_555
Bi3 O10 2.139018 1_655
Bi3 O4 2.139018 1_545
Bi3 O8 2.150808 1_555
Bi3 O5 2.150808 1_555
Bi3 O2 2.159123 1_545
Bi3 O11 2.159123 1_655
