# generated using pymatgen
data_LiFe2(BO3)2
_symmetry_space_group_name_H-M   'P 1'
_cell_length_a   5.25018500
_cell_length_b   9.10989222
_cell_length_c   11.41870618
_cell_angle_alpha   113.16487256
_cell_angle_beta   102.95340992
_cell_angle_gamma   89.43100098
_symmetry_Int_Tables_number   1
_chemical_formula_structural   LiFe2(BO3)2
_chemical_formula_sum   'Li4 Fe8 B8 O24'
_cell_volume   487.46227823
_cell_formula_units_Z   4
loop_
 _symmetry_equiv_pos_site_id
 _symmetry_equiv_pos_as_xyz
  1  'x, y, z'
loop_
 _atom_site_type_symbol
 _atom_site_label
 _atom_site_symmetry_multiplicity
 _atom_site_fract_x
 _atom_site_fract_y
 _atom_site_fract_z
 _atom_site_occupancy
  Li  Li0  1  0.02773700  0.03699200  0.41497700  1
  Li  Li1  1  0.48816000  0.51213600  0.66640900  1
  Li  Li2  1  0.26105300  0.24113700  0.15315500  1
  Li  Li3  1  0.77023700  0.74711900  0.16139200  1
  Fe  Fe0  1  0.01138900  0.36094300  0.38157700  1
  Fe  Fe1  1  0.26888000  0.93437600  0.87459300  1
  Fe  Fe2  1  0.48014500  0.14881800  0.63331900  1
  Fe  Fe3  1  0.23894900  0.56731900  0.12688800  1
  Fe  Fe4  1  0.77331400  0.42602000  0.87246600  1
  Fe  Fe5  1  0.52825600  0.84280000  0.38834900  1
  Fe  Fe6  1  0.96107800  0.66563800  0.62744600  1
  Fe  Fe7  1  0.75084000  0.05731100  0.12566600  1
  B  B0  1  0.02500100  0.68324100  0.36717400  1
  B  B1  1  0.26419600  0.60362300  0.87931300  1
  B  B2  1  0.47110000  0.81382500  0.63220300  1
  B  B3  1  0.24259800  0.89291400  0.12822900  1
  B  B4  1  0.50777600  0.18029700  0.37354500  1
  B  B5  1  0.77524400  0.10513400  0.88377100  1
  B  B6  1  0.98305800  0.31926700  0.62301900  1
  B  B7  1  0.73294100  0.40080500  0.13026400  1
  O  O0  1  0.03678100  0.09544300  0.89313200  1
  O  O1  1  0.13862200  0.72027600  0.84725400  1
  O  O2  1  0.13598900  0.51904800  0.93307900  1
  O  O3  1  0.10069800  0.18189200  0.60837600  1
  O  O4  1  0.08089300  0.43046800  0.58143000  1
  O  O5  1  0.24685100  0.84686300  0.68305900  1
  O  O6  1  0.24665800  0.65309000  0.31556400  1
  O  O7  1  0.50458300  0.56264900  0.85608800  1
  O  O8  1  0.64466000  0.21601300  0.84082000  1
  O  O9  1  0.42402100  0.07158200  0.41595500  1
  O  O10  1  0.34451100  0.29104700  0.35079500  1
  O  O11  1  0.63564900  0.01306600  0.92466500  1
  O  O12  1  0.34841700  0.00331300  0.09117600  1
  O  O13  1  0.59119000  0.67829200  0.62691200  1
  O  O14  1  0.56140100  0.91690900  0.58619500  1
  O  O15  1  0.40211100  0.77782000  0.15402600  1
  O  O16  1  0.47341800  0.40523900  0.13079000  1
  O  O17  1  0.75954300  0.35468100  0.67573700  1
  O  O18  1  0.76186800  0.17802000  0.34947300  1
  O  O19  1  0.94457100  0.58224500  0.41837900  1
  O  O20  1  0.88926100  0.81060200  0.36091900  1
  O  O21  1  0.84737800  0.50208600  0.08460900  1
  O  O22  1  0.88925900  0.30007500  0.17513600  1
  O  O23  1  0.99009600  0.89489300  0.14155100  1
loop_
_geom_bond_atom_site_label_1
_geom_bond_atom_site_label_2
_geom_bond_distance
_geom_bond_site_symmetry_2
Li0 O20 1.997508 1_445
Li0 O3 2.025686 1_555
Li0 O18 2.100195 1_455
Li0 O9 2.104282 1_555
Li1 O13 1.857394 1_555
Li1 O7 2.010768 1_555
Li1 O17 2.027438 1_555
Li1 O4 2.144888 1_555
Li2 O16 2.001087 1_555
Li2 O10 2.060382 1_555
Li2 O22 2.062605 1_455
Li2 O12 2.079578 1_555
Li3 O23 1.893164 1_555
Li3 O15 1.937946 1_555
Li3 O20 2.061077 1_555
Li3 O21 2.125328 1_555
Fe0 O10 1.914476 1_555
Fe0 O19 1.936380 1_455
Fe0 O18 1.993722 1_455
Fe0 O4 2.058207 1_555
Fe0 O22 2.139269 1_455
Fe1 O0 1.875751 1_565
Fe1 O11 1.939100 1_565
Fe1 O1 1.954752 1_555
Fe1 O5 1.987177 1_555
Fe1 O12 2.237246 1_566
Fe2 O3 1.985409 1_555
Fe2 O14 2.031137 1_545
Fe2 O8 2.164872 1_555
Fe2 O17 2.219214 1_555
Fe2 O9 2.246011 1_555
Fe3 O16 1.920566 1_555
Fe3 O6 1.972529 1_555
Fe3 O15 1.988288 1_555
Fe3 O2 2.021365 1_554
Fe3 O21 2.041131 1_455
Fe4 O7 1.898621 1_555
Fe4 O8 1.902437 1_555
Fe4 O2 1.950034 1_655
Fe4 O17 2.062373 1_555
Fe4 O21 2.182156 1_556
Fe5 O20 1.989796 1_555
Fe5 O14 2.053274 1_555
Fe5 O6 2.057463 1_555
Fe5 O9 2.068926 1_565
Fe5 O15 2.432167 1_555
Fe6 O13 1.943042 1_555
Fe6 O5 2.043813 1_655
Fe6 O4 2.120690 1_655
Fe6 O19 2.182984 1_555
Fe6 O1 2.322452 1_655
Fe7 O23 1.967770 1_545
Fe7 O12 2.087145 1_555
Fe7 O11 2.109678 1_554
Fe7 O22 2.145507 1_555
Fe7 O18 2.338279 1_555
B0 O20 1.372993 1_455
B0 O19 1.381428 1_455
B0 O6 1.396709 1_555
B1 O7 1.365764 1_555
B1 O1 1.371839 1_555
B1 O2 1.411148 1_555
B2 O13 1.366954 1_555
B2 O14 1.375242 1_555
B2 O5 1.405677 1_555
B3 O23 1.366995 1_455
B3 O12 1.396569 1_565
B3 O15 1.415071 1_555
B4 O9 1.374840 1_555
B4 O10 1.381791 1_555
B4 O18 1.419499 1_555
B5 O0 1.357898 1_655
B5 O11 1.390118 1_555
B5 O8 1.398614 1_555
B6 O3 1.357175 1_655
B6 O17 1.414187 1_555
B6 O4 1.419075 1_655
B7 O16 1.364030 1_555
B7 O22 1.394482 1_555
B7 O21 1.419125 1_555
