# generated using pymatgen
data_K2MoH2S2O9
_symmetry_space_group_name_H-M   'P 1'
_cell_length_a   10.13282654
_cell_length_b   10.13282654
_cell_length_c   10.22661882
_cell_angle_alpha   85.69462791
_cell_angle_beta   85.69462791
_cell_angle_gamma   61.23397456
_symmetry_Int_Tables_number   1
_chemical_formula_structural   K2MoH2S2O9
_chemical_formula_sum   'K8 Mo4 H8 S8 O36'
_cell_volume   916.92148229
_cell_formula_units_Z   4
loop_
 _symmetry_equiv_pos_site_id
 _symmetry_equiv_pos_as_xyz
  1  'x, y, z'
loop_
 _atom_site_type_symbol
 _atom_site_label
 _atom_site_symmetry_multiplicity
 _atom_site_fract_x
 _atom_site_fract_y
 _atom_site_fract_z
 _atom_site_occupancy
  K  K0  1  0.34786800  0.65213200  0.75000000  1
  K  K1  1  0.65213200  0.34786800  0.25000000  1
  K  K2  1  0.21666700  0.49409900  0.09034900  1
  K  K3  1  0.50590100  0.78333300  0.40965100  1
  K  K4  1  0.78333300  0.50590100  0.90965100  1
  K  K5  1  0.49409900  0.21666700  0.59034900  1
  K  K6  1  0.06953700  0.93046300  0.25000000  1
  K  K7  1  0.93046300  0.06953700  0.75000000  1
  Mo  Mo0  1  0.04448600  0.45881900  0.59875900  1
  Mo  Mo1  1  0.54118100  0.95551400  0.90124100  1
  Mo  Mo2  1  0.95551400  0.54118100  0.40124100  1
  Mo  Mo3  1  0.45881900  0.04448600  0.09875900  1
  H  H0  1  0.02207200  0.79299100  0.93362100  1
  H  H1  1  0.20700900  0.97792800  0.56637900  1
  H  H2  1  0.97792800  0.20700900  0.06637900  1
  H  H3  1  0.79299100  0.02207200  0.43362100  1
  H  H4  1  0.00469300  0.71634000  0.81305100  1
  H  H5  1  0.28366000  0.99530700  0.68694900  1
  H  H6  1  0.99530700  0.28366000  0.18694900  1
  H  H7  1  0.71634000  0.00469300  0.31305100  1
  S  S0  1  0.75029000  0.42020500  0.56711100  1
  S  S1  1  0.57979500  0.24971000  0.93288900  1
  S  S2  1  0.24971000  0.57979500  0.43288900  1
  S  S3  1  0.42020500  0.75029000  0.06711100  1
  S  S4  1  0.21542700  0.19263400  0.39521000  1
  S  S5  1  0.80736600  0.78457300  0.10479000  1
  S  S6  1  0.78457300  0.80736600  0.60479000  1
  S  S7  1  0.19263400  0.21542700  0.89521000  1
  O  O0  1  0.88927600  0.36896300  0.64842700  1
  O  O1  1  0.63103700  0.11072400  0.85157300  1
  O  O2  1  0.11072400  0.63103700  0.35157300  1
  O  O3  1  0.36896300  0.88927600  0.14842700  1
  O  O4  1  0.78849800  0.46420900  0.42828800  1
  O  O5  1  0.53579100  0.21150200  0.07171200  1
  O  O6  1  0.21150200  0.53579100  0.57171200  1
  O  O7  1  0.46420900  0.78849800  0.92828800  1
  O  O8  1  0.72204900  0.29152200  0.55980500  1
  O  O9  1  0.70847800  0.27795100  0.94019500  1
  O  O10  1  0.27795100  0.70847800  0.44019500  1
  O  O11  1  0.29152200  0.72204900  0.05980500  1
  O  O12  1  0.62250200  0.55202900  0.62479700  1
  O  O13  1  0.44797100  0.37749800  0.87520300  1
  O  O14  1  0.37749800  0.44797100  0.37520300  1
  O  O15  1  0.55202900  0.62250200  0.12479700  1
  O  O16  1  0.21636900  0.24404100  0.53103200  1
  O  O17  1  0.75595900  0.78363100  0.96896800  1
  O  O18  1  0.78363100  0.75595900  0.46896800  1
  O  O19  1  0.24404100  0.21636900  0.03103200  1
  O  O20  1  0.11918400  0.33257200  0.30985200  1
  O  O21  1  0.66742800  0.88081600  0.19014800  1
  O  O22  1  0.88081600  0.66742800  0.69014800  1
  O  O23  1  0.33257200  0.11918400  0.80985200  1
  O  O24  1  0.14947700  0.09010500  0.40575600  1
  O  O25  1  0.90989500  0.85052300  0.09424400  1
  O  O26  1  0.85052300  0.90989500  0.59424400  1
  O  O27  1  0.09010500  0.14947700  0.90575600  1
  O  O28  1  0.37222200  0.11856100  0.34122700  1
  O  O29  1  0.88143900  0.62777800  0.15877300  1
  O  O30  1  0.62777800  0.88143900  0.65877300  1
  O  O31  1  0.11856100  0.37222200  0.84122700  1
  O  O32  1  0.06975400  0.75062200  0.84851100  1
  O  O33  1  0.24937800  0.93024600  0.65148900  1
  O  O34  1  0.93024600  0.24937800  0.15148900  1
  O  O35  1  0.75062200  0.06975400  0.34851100  1
loop_
_geom_bond_atom_site_label_1
_geom_bond_atom_site_label_2
_geom_bond_distance
_geom_bond_site_symmetry_2
K0 O32 2.640137 1_555
K0 O33 2.640137 1_555
K0 O13 2.712128 1_555
K0 O12 2.712128 1_555
K0 O6 2.981971 1_555
K0 O7 2.981971 1_555
K0 O11 3.246822 1_556
K0 O10 3.246822 1_555
K1 O35 2.640137 1_555
K1 O34 2.640137 1_555
K1 O14 2.712128 1_555
K1 O15 2.712128 1_555
K1 O5 2.981971 1_555
K1 O4 2.981971 1_555
K1 O8 3.246822 1_555
K1 O9 3.246822 1_554
K2 O11 2.747772 1_555
K2 O19 2.800775 1_555
K2 O13 2.946344 1_554
K2 O2 2.984402 1_555
K2 O29 3.036401 1_455
K2 O20 3.060239 1_555
K2 O5 3.125663 1_555
K3 O10 2.747772 1_555
K3 O18 2.800775 1_555
K3 O12 2.946344 1_555
K3 O3 2.984402 1_555
K3 O28 3.036401 1_565
K3 O21 3.060239 1_555
K3 O4 3.125663 1_555
K4 O9 2.747772 1_555
K4 O17 2.800775 1_555
K4 O15 2.946344 1_556
K4 O0 2.984402 1_555
K4 O31 3.036401 1_655
K4 O22 3.060239 1_555
K4 O7 3.125663 1_555
K5 O8 2.747772 1_555
K5 O16 2.800775 1_555
K5 O14 2.946344 1_555
K5 O1 2.984402 1_555
K5 O30 3.036401 1_545
K5 O23 3.060239 1_555
K5 O6 3.125663 1_555
K6 O24 2.766180 1_565
K6 O25 2.766180 1_455
K6 O10 2.947959 1_555
K6 O11 2.947959 1_555
K6 O35 2.963874 1_465
K6 O34 2.963874 1_465
K6 O2 2.971820 1_555
K6 O3 2.971820 1_555
K7 O27 2.766180 1_655
K7 O26 2.766180 1_545
K7 O8 2.947959 1_555
K7 O9 2.947959 1_555
K7 O32 2.963874 1_645
K7 O33 2.963874 1_645
K7 O1 2.971820 1_555
K7 O0 2.971820 1_555
Mo0 O16 2.155572 1_555
Mo0 O6 2.171766 1_555
Mo0 O0 2.179280 1_455
Mo0 O22 2.186758 1_455
Mo0 Mo2 2.210337 1_455
Mo0 O31 2.607826 1_555
Mo1 O17 2.155572 1_555
Mo1 O7 2.171766 1_555
Mo1 O1 2.179280 1_565
Mo1 O23 2.186758 1_565
Mo1 Mo3 2.210337 1_566
Mo1 O30 2.607826 1_555
Mo2 O18 2.155572 1_555
Mo2 O4 2.171766 1_555
Mo2 O2 2.179280 1_655
Mo2 O20 2.186758 1_655
Mo2 O29 2.607826 1_555
Mo3 O19 2.155572 1_555
Mo3 O5 2.171766 1_555
Mo3 O3 2.179280 1_545
Mo3 O21 2.186758 1_545
Mo3 O28 2.607826 1_555
H0 O32 0.984200 1_555
H1 O33 0.984200 1_555
H2 O34 0.984200 1_555
H3 O35 0.984200 1_555
H4 O32 0.980819 1_555
H5 O33 0.980819 1_555
H6 O34 0.980819 1_555
H7 O35 0.980819 1_555
O0 S0 1.533532 1_555
O1 S1 1.533532 1_555
O2 S2 1.533532 1_555
O3 S3 1.533532 1_555
O4 S0 1.533884 1_555
O5 S1 1.533884 1_554
O6 S2 1.533884 1_555
O7 S3 1.533884 1_556
O8 S0 1.471275 1_555
O9 S1 1.471275 1_555
O10 S2 1.471275 1_555
O11 S3 1.471275 1_555
O12 S0 1.465548 1_555
O13 S1 1.465548 1_555
O14 S2 1.465548 1_555
O15 S3 1.465548 1_555
O16 S4 1.521892 1_555
O17 S5 1.521892 1_556
O18 S6 1.521892 1_555
O19 S7 1.521892 1_554
O20 S4 1.527979 1_555
O21 S5 1.527979 1_555
O22 S6 1.527979 1_555
O23 S7 1.527979 1_555
O24 S4 1.475837 1_555
O25 S5 1.475837 1_555
O26 S6 1.475837 1_555
O27 S7 1.475837 1_555
O28 S4 1.474832 1_555
O29 S5 1.474832 1_555
O30 S6 1.474832 1_555
O31 S7 1.474832 1_555
