# generated using pymatgen
data_Rb5FeO4
_symmetry_space_group_name_H-M   'P 1'
_cell_length_a   7.11007700
_cell_length_b   12.19755300
_cell_length_c   21.62294200
_cell_angle_alpha   90.00000000
_cell_angle_beta   90.00000000
_cell_angle_gamma   90.00000000
_symmetry_Int_Tables_number   1
_chemical_formula_structural   Rb5FeO4
_chemical_formula_sum   'Rb40 Fe8 O32'
_cell_volume   1875.26134386
_cell_formula_units_Z   8
loop_
 _symmetry_equiv_pos_site_id
 _symmetry_equiv_pos_as_xyz
  1  'x, y, z'
loop_
 _atom_site_type_symbol
 _atom_site_label
 _atom_site_symmetry_multiplicity
 _atom_site_fract_x
 _atom_site_fract_y
 _atom_site_fract_z
 _atom_site_occupancy
  Rb  Rb0  1  0.91876300  0.93975000  0.43420700  1
  Rb  Rb1  1  0.58123700  0.93975000  0.93420700  1
  Rb  Rb2  1  0.39418700  0.91871600  0.74947200  1
  Rb  Rb3  1  0.10581300  0.91871600  0.24947200  1
  Rb  Rb4  1  0.42493900  0.85546600  0.50091300  1
  Rb  Rb5  1  0.07506100  0.85546600  0.00091300  1
  Rb  Rb6  1  0.90028000  0.82917500  0.82755700  1
  Rb  Rb7  1  0.59972000  0.82917500  0.32755700  1
  Rb  Rb8  1  0.43153100  0.79497300  0.13669600  1
  Rb  Rb9  1  0.06846900  0.79497300  0.63669600  1
  Rb  Rb10  1  0.93153100  0.70502700  0.13669600  1
  Rb  Rb11  1  0.56846900  0.70502700  0.63669600  1
  Rb  Rb12  1  0.09972000  0.67082500  0.32755700  1
  Rb  Rb13  1  0.40028000  0.67082500  0.82755700  1
  Rb  Rb14  1  0.57506100  0.64453400  0.00091300  1
  Rb  Rb15  1  0.92493900  0.64453400  0.50091300  1
  Rb  Rb16  1  0.60581300  0.58128400  0.24947200  1
  Rb  Rb17  1  0.89418700  0.58128400  0.74947200  1
  Rb  Rb18  1  0.08123700  0.56025000  0.93420700  1
  Rb  Rb19  1  0.41876300  0.56025000  0.43420700  1
  Rb  Rb20  1  0.91876300  0.43975000  0.06579300  1
  Rb  Rb21  1  0.58123700  0.43975000  0.56579300  1
  Rb  Rb22  1  0.39418700  0.41871600  0.75052800  1
  Rb  Rb23  1  0.10581300  0.41871600  0.25052800  1
  Rb  Rb24  1  0.42493900  0.35546600  0.99908700  1
  Rb  Rb25  1  0.07506100  0.35546600  0.49908700  1
  Rb  Rb26  1  0.90028000  0.32917500  0.67244300  1
  Rb  Rb27  1  0.59972000  0.32917500  0.17244300  1
  Rb  Rb28  1  0.06846900  0.29497300  0.86330400  1
  Rb  Rb29  1  0.43153100  0.29497300  0.36330400  1
  Rb  Rb30  1  0.93153100  0.20502700  0.36330400  1
  Rb  Rb31  1  0.56846900  0.20502700  0.86330400  1
  Rb  Rb32  1  0.40028000  0.17082500  0.67244300  1
  Rb  Rb33  1  0.09972000  0.17082500  0.17244300  1
  Rb  Rb34  1  0.57506100  0.14453400  0.49908700  1
  Rb  Rb35  1  0.92493900  0.14453400  0.99908700  1
  Rb  Rb36  1  0.89418700  0.08128400  0.75052800  1
  Rb  Rb37  1  0.60581300  0.08128400  0.25052800  1
  Rb  Rb38  1  0.08123700  0.06025000  0.56579300  1
  Rb  Rb39  1  0.41876300  0.06025000  0.06579300  1
  Fe  Fe0  1  0.82202200  0.96509100  0.12477700  1
  Fe  Fe1  1  0.67797800  0.96509100  0.62477700  1
  Fe  Fe2  1  0.32202200  0.53490900  0.12477700  1
  Fe  Fe3  1  0.17797800  0.53490900  0.62477700  1
  Fe  Fe4  1  0.67797800  0.46509100  0.87522300  1
  Fe  Fe5  1  0.82202200  0.46509100  0.37522300  1
  Fe  Fe6  1  0.32202200  0.03490900  0.37522300  1
  Fe  Fe7  1  0.17797800  0.03490900  0.87522300  1
  O  O0  1  0.09520500  0.95712800  0.11803000  1
  O  O1  1  0.40479500  0.95712800  0.61803000  1
  O  O2  1  0.74278800  0.89091200  0.19985900  1
  O  O3  1  0.75721200  0.89091200  0.69985900  1
  O  O4  1  0.71011600  0.89029800  0.05417300  1
  O  O5  1  0.78988400  0.89029800  0.55417300  1
  O  O6  1  0.24883700  0.88212700  0.37283600  1
  O  O7  1  0.25116300  0.88212700  0.87283600  1
  O  O8  1  0.75116300  0.61787300  0.87283600  1
  O  O9  1  0.74883700  0.61787300  0.37283600  1
  O  O10  1  0.21011600  0.60970200  0.05417300  1
  O  O11  1  0.28988400  0.60970200  0.55417300  1
  O  O12  1  0.25721200  0.60908800  0.69985900  1
  O  O13  1  0.24278800  0.60908800  0.19985900  1
  O  O14  1  0.59520500  0.54287200  0.11803000  1
  O  O15  1  0.90479500  0.54287200  0.61803000  1
  O  O16  1  0.40479500  0.45712800  0.88197000  1
  O  O17  1  0.09520500  0.45712800  0.38197000  1
  O  O18  1  0.75721200  0.39091200  0.80014100  1
  O  O19  1  0.74278800  0.39091200  0.30014100  1
  O  O20  1  0.78988400  0.39029800  0.94582700  1
  O  O21  1  0.71011600  0.39029800  0.44582700  1
  O  O22  1  0.24883700  0.38212700  0.12716400  1
  O  O23  1  0.25116300  0.38212700  0.62716400  1
  O  O24  1  0.75116300  0.11787300  0.62716400  1
  O  O25  1  0.74883700  0.11787300  0.12716400  1
  O  O26  1  0.21011600  0.10970200  0.44582700  1
  O  O27  1  0.28988400  0.10970200  0.94582700  1
  O  O28  1  0.25721200  0.10908800  0.80014100  1
  O  O29  1  0.24278800  0.10908800  0.30014100  1
  O  O30  1  0.59520500  0.04287200  0.38197000  1
  O  O31  1  0.90479500  0.04287200  0.88197000  1
loop_
_geom_bond_atom_site_label_1
_geom_bond_atom_site_label_2
_geom_bond_distance
_geom_bond_site_symmetry_2
Fe0 O25 1.935539 1_565
Fe0 O2 1.942105 1_555
Fe0 O4 1.948348 1_555
Fe0 O0 1.950244 1_655
Fe1 O24 1.935539 1_565
Fe1 O3 1.942105 1_555
Fe1 O5 1.948348 1_555
Fe1 O1 1.950244 1_555
Fe2 O22 1.935539 1_555
Fe2 O13 1.942105 1_555
Fe2 O10 1.948348 1_555
Fe2 O14 1.950244 1_555
Fe3 O23 1.935539 1_555
Fe3 O12 1.942105 1_555
Fe3 O11 1.948348 1_555
Fe3 O15 1.950244 1_455
Fe4 O8 1.935539 1_555
Fe4 O18 1.942105 1_555
Fe4 O20 1.948348 1_555
Fe4 O16 1.950244 1_555
Fe5 O9 1.935539 1_555
Fe5 O19 1.942105 1_555
Fe5 O21 1.948348 1_555
Fe5 O17 1.950244 1_655
Fe6 O6 1.935539 1_545
Fe6 O29 1.942105 1_555
Fe6 O26 1.948348 1_555
Fe6 O30 1.950244 1_555
Fe7 O7 1.935539 1_545
Fe7 O28 1.942105 1_555
Fe7 O27 1.948348 1_555
Fe7 O31 1.950244 1_455
O0 Rb5 2.823350 1_555
O0 Rb39 2.854884 1_565
O0 Rb33 2.860001 1_565
O0 Rb3 2.881510 1_555
O0 Rb8 3.129425 1_555
O0 Rb10 3.312537 1_455
O1 Rb4 2.823350 1_555
O1 Rb38 2.854884 1_565
O1 Rb32 2.860001 1_565
O1 Rb2 2.881510 1_555
O1 Rb9 3.129425 1_555
O1 Rb11 3.312537 1_555
O2 Rb37 2.746065 1_565
O2 Rb3 2.815694 1_655
O2 Rb8 2.851734 1_555
O2 Rb10 2.967671 1_555
O2 Rb7 3.037446 1_555
O3 Rb36 2.746065 1_565
O3 Rb2 2.815694 1_555
O3 Rb9 2.851734 1_655
O3 Rb11 2.967671 1_555
O3 Rb6 3.037446 1_555
O4 Rb1 2.816460 1_554
O4 Rb5 2.870488 1_655
O4 Rb8 2.908506 1_555
O4 Rb39 2.941384 1_565
O4 Rb10 3.281666 1_555
O4 Rb14 3.351817 1_555
O5 Rb0 2.816460 1_555
O5 Rb4 2.870488 1_555
O5 Rb9 2.908506 1_655
O5 Rb38 2.941384 1_665
O5 Rb11 3.281666 1_555
O5 Rb15 3.351817 1_555
O6 Rb7 2.756771 1_555
O6 Rb0 2.786164 1_455
O6 Rb3 2.889430 1_555
O6 Rb12 2.953893 1_555
O6 Rb4 3.056647 1_555
O7 Rb6 2.756771 1_455
O7 Rb1 2.786164 1_555
O7 Rb2 2.889430 1_555
O7 Rb13 2.953893 1_555
O7 Rb5 3.056647 1_556
O8 Rb13 2.756771 1_555
O8 Rb18 2.786164 1_655
O8 Rb17 2.889430 1_555
O8 Rb6 2.953893 1_555
O8 Rb14 3.056647 1_556
O9 Rb12 2.756771 1_655
O9 Rb19 2.786164 1_555
O9 Rb16 2.889430 1_555
O9 Rb7 2.953893 1_555
O9 Rb15 3.056647 1_555
O10 Rb18 2.816460 1_554
O10 Rb14 2.870488 1_555
O10 Rb10 2.908506 1_455
O10 Rb20 2.941384 1_455
O10 Rb8 3.281666 1_555
O10 Rb5 3.351817 1_555
O11 Rb19 2.816460 1_555
O11 Rb15 2.870488 1_455
O11 Rb11 2.908506 1_555
O11 Rb21 2.941384 1_555
O11 Rb9 3.281666 1_555
O11 Rb4 3.351817 1_555
O12 Rb22 2.746065 1_555
O12 Rb17 2.815694 1_455
O12 Rb11 2.851734 1_555
O12 Rb9 2.967671 1_555
O12 Rb13 3.037446 1_555
O13 Rb23 2.746065 1_555
O13 Rb16 2.815694 1_555
O13 Rb10 2.851734 1_455
O13 Rb8 2.967671 1_555
O13 Rb12 3.037446 1_555
O14 Rb14 2.823350 1_555
O14 Rb20 2.854884 1_555
O14 Rb27 2.860001 1_555
O14 Rb16 2.881510 1_555
O14 Rb10 3.129425 1_555
O14 Rb8 3.312537 1_555
O15 Rb15 2.823350 1_555
O15 Rb21 2.854884 1_555
O15 Rb26 2.860001 1_555
O15 Rb17 2.881510 1_555
O15 Rb11 3.129425 1_555
O15 Rb9 3.312537 1_655
O16 Rb24 2.823350 1_555
O16 Rb18 2.854884 1_555
O16 Rb13 2.860001 1_555
O16 Rb22 2.881510 1_555
O16 Rb28 3.129425 1_555
O16 Rb31 3.312537 1_555
O17 Rb25 2.823350 1_555
O17 Rb19 2.854884 1_555
O17 Rb12 2.860001 1_555
O17 Rb23 2.881510 1_555
O17 Rb29 3.129425 1_555
O17 Rb30 3.312537 1_455
O18 Rb17 2.746065 1_555
O18 Rb22 2.815694 1_555
O18 Rb28 2.851734 1_655
O18 Rb31 2.967671 1_555
O18 Rb26 3.037446 1_555
O19 Rb16 2.746065 1_555
O19 Rb23 2.815694 1_655
O19 Rb29 2.851734 1_555
O19 Rb30 2.967671 1_555
O19 Rb27 3.037446 1_555
O20 Rb20 2.816460 1_556
O20 Rb24 2.870488 1_555
O20 Rb28 2.908506 1_655
O20 Rb18 2.941384 1_655
O20 Rb31 3.281666 1_555
O20 Rb35 3.351817 1_555
O21 Rb21 2.816460 1_555
O21 Rb25 2.870488 1_655
O21 Rb29 2.908506 1_555
O21 Rb19 2.941384 1_555
O21 Rb30 3.281666 1_555
O21 Rb34 3.351817 1_555
O22 Rb27 2.756771 1_555
O22 Rb20 2.786164 1_455
O22 Rb23 2.889430 1_555
O22 Rb33 2.953893 1_555
O22 Rb24 3.056647 1_554
O23 Rb26 2.756771 1_455
O23 Rb21 2.786164 1_555
O23 Rb22 2.889430 1_555
O23 Rb32 2.953893 1_555
O23 Rb25 3.056647 1_555
O24 Rb32 2.756771 1_555
O24 Rb38 2.786164 1_655
O24 Rb36 2.889430 1_555
O24 Rb26 2.953893 1_555
O24 Rb34 3.056647 1_555
O25 Rb33 2.756771 1_655
O25 Rb39 2.786164 1_555
O25 Rb37 2.889430 1_555
O25 Rb27 2.953893 1_555
O25 Rb35 3.056647 1_554
O26 Rb38 2.816460 1_555
O26 Rb34 2.870488 1_555
O26 Rb30 2.908506 1_455
O26 Rb0 2.941384 1_445
O26 Rb29 3.281666 1_555
O26 Rb25 3.351817 1_555
O27 Rb39 2.816460 1_556
O27 Rb35 2.870488 1_455
O27 Rb31 2.908506 1_555
O27 Rb1 2.941384 1_545
O27 Rb28 3.281666 1_555
O27 Rb24 3.351817 1_555
O28 Rb2 2.746065 1_545
O28 Rb36 2.815694 1_455
O28 Rb31 2.851734 1_555
O28 Rb28 2.967671 1_555
O28 Rb32 3.037446 1_555
O29 Rb3 2.746065 1_545
O29 Rb37 2.815694 1_555
O29 Rb30 2.851734 1_455
O29 Rb29 2.967671 1_555
O29 Rb33 3.037446 1_555
O30 Rb34 2.823350 1_555
O30 Rb0 2.854884 1_545
O30 Rb7 2.860001 1_545
O30 Rb37 2.881510 1_555
O30 Rb30 3.129425 1_555
O30 Rb29 3.312537 1_555
O31 Rb35 2.823350 1_555
O31 Rb1 2.854884 1_545
O31 Rb6 2.860001 1_545
O31 Rb36 2.881510 1_555
O31 Rb31 3.129425 1_555
O31 Rb28 3.312537 1_655
