# generated using pymatgen
data_Li4V5Cr2O12
_symmetry_space_group_name_H-M   'P 1'
_cell_length_a   9.14871600
_cell_length_b   5.11076700
_cell_length_c   9.92793580
_cell_angle_alpha   78.05665813
_cell_angle_beta   90.00000000
_cell_angle_gamma   90.00000000
_symmetry_Int_Tables_number   1
_chemical_formula_structural   Li4V5Cr2O12
_chemical_formula_sum   'Li8 V10 Cr4 O24'
_cell_volume   454.15138734
_cell_formula_units_Z   2
loop_
 _symmetry_equiv_pos_site_id
 _symmetry_equiv_pos_as_xyz
  1  'x, y, z'
loop_
 _atom_site_type_symbol
 _atom_site_label
 _atom_site_symmetry_multiplicity
 _atom_site_fract_x
 _atom_site_fract_y
 _atom_site_fract_z
 _atom_site_occupancy
  Li  Li0  1  0.91391600  0.00554100  0.73882500  1
  Li  Li1  1  0.92193000  0.49598900  0.25623600  1
  Li  Li2  1  0.58152700  0.75938400  0.50221700  1
  Li  Li3  1  0.58567000  0.50546600  0.26209100  1
  Li  Li4  1  0.41391600  0.99445900  0.26117500  1
  Li  Li5  1  0.42193000  0.50401100  0.74376400  1
  Li  Li6  1  0.08152700  0.24061600  0.49778300  1
  Li  Li7  1  0.08567000  0.49453400  0.73790900  1
  V  V0  1  0.92125500  0.26217000  0.00276800  1
  V  V1  1  0.92694800  0.74932100  0.49296700  1
  V  V2  1  0.74889300  0.99677900  0.25491100  1
  V  V3  1  0.74109200  0.50996500  0.74078600  1
  V  V4  1  0.57458800  0.25433700  0.00455500  1
  V  V5  1  0.42694800  0.25067900  0.50703300  1
  V  V6  1  0.24889300  0.00322100  0.74508900  1
  V  V7  1  0.42125500  0.73783000  0.99723200  1
  V  V8  1  0.24109200  0.49003500  0.25921400  1
  V  V9  1  0.07458800  0.74566300  0.99544500  1
  Cr  Cr0  1  0.74979900  0.24682000  0.50264700  1
  Cr  Cr1  1  0.74558600  0.76008200  0.99538100  1
  Cr  Cr2  1  0.24558600  0.23991800  0.00461900  1
  Cr  Cr3  1  0.24979900  0.75318000  0.49735300  1
  O  O0  1  0.89392500  0.12005800  0.37815000  1
  O  O1  1  0.89945400  0.87969200  0.11069400  1
  O  O2  1  0.77051300  0.86317100  0.61453700  1
  O  O3  1  0.90346700  0.38198900  0.61914500  1
  O  O4  1  0.75399700  0.14799900  0.88756400  1
  O  O5  1  0.89793900  0.63226200  0.87611900  1
  O  O6  1  0.76156500  0.62847900  0.37539200  1
  O  O7  1  0.59170400  0.13444600  0.38498000  1
  O  O8  1  0.59343900  0.86642800  0.12273900  1
  O  O9  1  0.75034400  0.37201100  0.12104600  1
  O  O10  1  0.59561100  0.38463500  0.61856400  1
  O  O11  1  0.58892400  0.62858400  0.88163900  1
  O  O12  1  0.39392500  0.87994200  0.62185000  1
  O  O13  1  0.39945400  0.12030800  0.88930600  1
  O  O14  1  0.27051300  0.13682900  0.38546300  1
  O  O15  1  0.40346700  0.61801100  0.38085500  1
  O  O16  1  0.25399700  0.85200100  0.11243600  1
  O  O17  1  0.39793900  0.36773800  0.12388100  1
  O  O18  1  0.26156500  0.37152100  0.62460800  1
  O  O19  1  0.09170400  0.86555400  0.61502000  1
  O  O20  1  0.09343900  0.13357200  0.87726100  1
  O  O21  1  0.25034400  0.62798900  0.87895400  1
  O  O22  1  0.09561100  0.61536500  0.38143600  1
  O  O23  1  0.08892400  0.37141600  0.11836100  1
loop_
_geom_bond_atom_site_label_1
_geom_bond_atom_site_label_2
_geom_bond_distance
_geom_bond_site_symmetry_2
Li0 O2 2.035883 1_545
Li0 O3 2.043599 1_555
Li0 O5 2.107721 1_545
Li0 O19 2.243252 1_645
Li0 O4 2.301336 1_555
Li0 O20 2.320947 1_655
Li1 O0 2.063856 1_555
Li1 O6 2.083732 1_555
Li1 O22 2.180797 1_655
Li1 O1 2.191558 1_555
Li1 O23 2.230202 1_655
Li1 O9 2.240333 1_555
Li2 O10 2.025682 1_555
Li2 O7 2.028374 1_565
Li2 O2 2.181513 1_555
Li2 O15 2.233334 1_555
Li2 O12 2.244753 1_555
Li2 O6 2.257121 1_555
Li3 O7 2.032140 1_555
Li3 O8 2.065426 1_555
Li3 O6 2.131382 1_555
Li3 O15 2.186415 1_555
Li3 O9 2.256326 1_555
Li3 O17 2.393280 1_555
Li4 O14 2.035883 1_565
Li4 O15 2.043599 1_555
Li4 O17 2.107721 1_565
Li4 O7 2.243252 1_565
Li4 O16 2.301336 1_555
Li4 O8 2.320947 1_555
Li5 O12 2.063856 1_555
Li5 O18 2.083732 1_555
Li5 O10 2.180797 1_555
Li5 O13 2.191558 1_555
Li5 O11 2.230202 1_555
Li5 O21 2.240333 1_555
Li6 O22 2.025682 1_555
Li6 O19 2.028374 1_545
Li6 O14 2.181513 1_555
Li6 O3 2.233334 1_455
Li6 O0 2.244753 1_455
Li6 O18 2.257121 1_555
Li7 O19 2.032140 1_555
Li7 O20 2.065426 1_555
Li7 O18 2.131382 1_555
Li7 O3 2.186415 1_455
Li7 O21 2.256326 1_555
Li7 O5 2.393280 1_455
Cr0 O0 2.004356 1_555
Cr0 O7 2.015978 1_555
Cr0 O3 2.030287 1_555
Cr0 O10 2.036127 1_555
Cr0 O2 2.052535 1_545
Cr0 O6 2.095827 1_555
Cr1 O1 1.988857 1_556
Cr1 O5 2.022763 1_555
Cr1 O11 2.023642 1_555
Cr1 O8 2.028810 1_556
Cr1 O4 2.050335 1_565
Cr1 O9 2.113740 1_556
Cr2 O13 1.988857 1_554
Cr2 O17 2.022763 1_555
Cr2 O23 2.023642 1_555
Cr2 O20 2.028810 1_554
Cr2 O16 2.050335 1_545
Cr2 O21 2.113740 1_554
Cr3 O12 2.004356 1_555
Cr3 O19 2.015978 1_555
Cr3 O15 2.030287 1_555
Cr3 O22 2.036127 1_555
Cr3 O14 2.052535 1_565
Cr3 O18 2.095827 1_555
O0 V2 1.993374 1_545
O0 V1 2.021582 1_545
O1 V0 2.035201 1_565
O1 V2 2.158709 1_555
O1 V9 2.161011 1_654
O2 V3 1.991374 1_555
O2 V1 2.033273 1_555
O3 V1 2.041190 1_555
O3 V3 2.102353 1_555
O4 V0 2.065509 1_556
O4 V3 2.108049 1_555
O4 V4 2.144696 1_556
O5 V0 2.054199 1_556
O5 V3 2.145348 1_555
O5 V9 2.152976 1_655
O6 V2 2.013788 1_555
O6 V1 2.081257 1_555
O7 V5 2.095490 1_555
O7 V2 2.146307 1_545
O8 V4 2.091418 1_565
O8 V2 2.133107 1_555
O8 V7 2.192016 1_554
O9 V2 2.095048 1_545
O9 V0 2.100415 1_555
O9 V4 2.138356 1_555
O10 V3 1.993942 1_555
O10 V5 2.095116 1_555
O11 V4 2.049068 1_556
O11 V7 2.060809 1_555
O11 V3 2.147537 1_555
O12 V6 1.993374 1_565
O12 V5 2.021582 1_565
O13 V7 2.035201 1_545
O13 V6 2.158709 1_555
O13 V4 2.161011 1_556
O14 V8 1.991374 1_555
O14 V5 2.033273 1_555
O15 V5 2.041190 1_555
O15 V8 2.102353 1_555
O16 V7 2.065509 1_554
O16 V8 2.108049 1_555
O16 V9 2.144696 1_554
O17 V7 2.054199 1_554
O17 V8 2.145348 1_555
O17 V4 2.152976 1_555
O18 V6 2.013788 1_555
O18 V5 2.081257 1_555
O19 V1 2.095490 1_455
O19 V6 2.146307 1_565
O20 V9 2.091418 1_545
O20 V6 2.133107 1_555
O20 V0 2.192016 1_456
O21 V6 2.095048 1_565
O21 V7 2.100415 1_555
O21 V9 2.138356 1_555
O22 V8 1.993942 1_555
O22 V1 2.095116 1_455
O23 V9 2.049068 1_554
O23 V0 2.060809 1_455
O23 V8 2.147537 1_555
