# generated using pymatgen
data_Li7Bi(BO4)2
_symmetry_space_group_name_H-M   'P 1'
_cell_length_a   8.04078188
_cell_length_b   8.04078188
_cell_length_c   7.53857815
_cell_angle_alpha   89.10081510
_cell_angle_beta   89.10081510
_cell_angle_gamma   46.91590537
_symmetry_Int_Tables_number   1
_chemical_formula_structural   Li7Bi(BO4)2
_chemical_formula_sum   'Li14 Bi2 B4 O16'
_cell_volume   355.92183054
_cell_formula_units_Z   2
loop_
 _symmetry_equiv_pos_site_id
 _symmetry_equiv_pos_as_xyz
  1  'x, y, z'
loop_
 _atom_site_type_symbol
 _atom_site_label
 _atom_site_symmetry_multiplicity
 _atom_site_fract_x
 _atom_site_fract_y
 _atom_site_fract_z
 _atom_site_occupancy
  Li  Li0  1  0.18677300  0.67444100  0.36930400  1
  Li  Li1  1  0.67444100  0.18677300  0.36930400  1
  Li  Li2  1  0.92455600  0.92455600  0.72328100  1
  Li  Li3  1  0.35702500  0.35702500  0.15030500  1
  Li  Li4  1  0.06830800  0.56920400  0.87412900  1
  Li  Li5  1  0.56920400  0.06830800  0.87412900  1
  Li  Li6  1  0.43079600  0.93169200  0.12587100  1
  Li  Li7  1  0.93169200  0.43079600  0.12587100  1
  Li  Li8  1  0.64297500  0.64297500  0.84969500  1
  Li  Li9  1  0.07544400  0.07544400  0.27671900  1
  Li  Li10  1  0.81322700  0.32555900  0.63069600  1
  Li  Li11  1  0.32555900  0.81322700  0.63069600  1
  Li  Li12  1  0.00000000  0.00000000  0.00000000  1
  Li  Li13  1  0.50000000  0.50000000  0.00000000  1
  Bi  Bi0  1  0.73491600  0.73491600  0.43571900  1
  Bi  Bi1  1  0.26508400  0.26508400  0.56428100  1
  B  B0  1  0.42735300  0.42735300  0.73452100  1
  B  B1  1  0.86243600  0.86243600  0.15489400  1
  B  B2  1  0.13756400  0.13756400  0.84510600  1
  B  B3  1  0.57264700  0.57264700  0.26547900  1
  O  O0  1  0.47613800  0.47613800  0.25969100  1
  O  O1  1  0.94977600  0.94977600  0.24373000  1
  O  O2  1  0.19182000  0.58181700  0.62781000  1
  O  O3  1  0.58181700  0.19182000  0.62781000  1
  O  O4  1  0.38205800  0.38205800  0.90809000  1
  O  O5  1  0.86771400  0.86771400  0.96423700  1
  O  O6  1  0.00008000  0.61069500  0.22751200  1
  O  O7  1  0.61069500  0.00008000  0.22751200  1
  O  O8  1  0.38930500  0.99992000  0.77248800  1
  O  O9  1  0.99992000  0.38930500  0.77248800  1
  O  O10  1  0.13228600  0.13228600  0.03576300  1
  O  O11  1  0.61794200  0.61794200  0.09191000  1
  O  O12  1  0.41818300  0.80818000  0.37219000  1
  O  O13  1  0.80818000  0.41818300  0.37219000  1
  O  O14  1  0.05022400  0.05022400  0.75627000  1
  O  O15  1  0.52386200  0.52386200  0.74030900  1
loop_
_geom_bond_atom_site_label_1
_geom_bond_atom_site_label_2
_geom_bond_distance
_geom_bond_site_symmetry_2
Li0 O0 1.884558 1_555
Li0 O1 1.912121 1_455
Li0 O2 2.066316 1_555
Li0 O6 2.185749 1_555
Li1 O0 1.884558 1_555
Li1 O1 1.912121 1_545
Li1 O3 2.066316 1_555
Li1 O7 2.185749 1_555
Li2 O14 1.874730 1_665
Li2 O5 1.987615 1_555
Li2 O3 2.157310 1_565
Li2 O2 2.157310 1_655
Li3 O4 1.856725 1_554
Li3 O0 1.953805 1_555
Li3 O6 2.173453 1_555
Li3 O7 2.173453 1_555
Li4 O4 1.875195 1_555
Li4 O5 1.884685 1_455
Li4 O9 2.028947 1_455
Li4 O2 2.125669 1_555
Li5 O4 1.875195 1_555
Li5 O5 1.884685 1_545
Li5 O8 2.028947 1_545
Li5 O3 2.125669 1_555
Li6 O11 1.875195 1_555
Li6 O10 1.884685 1_565
Li6 O7 2.028947 1_565
Li6 O12 2.125669 1_555
Li7 O11 1.875195 1_555
Li7 O10 1.884685 1_655
Li7 O6 2.028947 1_655
Li7 O13 2.125669 1_555
Li8 O11 1.856725 1_556
Li8 O15 1.953805 1_555
Li8 O9 2.173453 1_555
Li8 O8 2.173453 1_555
Li9 O1 1.874730 1_445
Li9 O10 1.987615 1_555
Li9 O13 2.157310 1_455
Li9 O12 2.157310 1_545
Li10 O15 1.884558 1_555
Li10 O14 1.912121 1_655
Li10 O13 2.066316 1_555
Li10 O9 2.185749 1_555
Li11 O15 1.884558 1_555
Li11 O14 1.912121 1_565
Li11 O12 2.066316 1_555
Li11 O8 2.185749 1_555
Li12 O14 1.969353 1_554
Li12 O1 1.969353 1_445
Li12 O10 1.974642 1_555
Li12 O5 1.974642 1_444
Li13 O4 1.883797 1_554
Li13 O11 1.883797 1_555
Li13 O15 1.983163 1_554
Li13 O0 1.983163 1_555
Bi0 O7 2.245441 1_565
Bi0 O6 2.245441 1_655
Bi0 O12 2.245504 1_555
Bi0 O13 2.245504 1_555
Bi1 O8 2.245441 1_545
Bi1 O9 2.245441 1_455
Bi1 O3 2.245504 1_555
Bi1 O2 2.245504 1_555
B0 O15 1.425160 1_555
B0 O4 1.458996 1_555
B0 O3 1.606076 1_555
B0 O2 1.606076 1_555
B1 O5 1.438060 1_554
B1 O1 1.462258 1_555
B1 O6 1.595505 1_655
B1 O7 1.595505 1_565
B2 O10 1.438060 1_556
B2 O14 1.462258 1_555
B2 O9 1.595505 1_455
B2 O8 1.595505 1_545
B3 O0 1.425160 1_555
B3 O11 1.458996 1_555
B3 O13 1.606076 1_555
B3 O12 1.606076 1_555
