# generated using pymatgen
data_Li3V5O12
_symmetry_space_group_name_H-M   'P 1'
_cell_length_a   9.27413300
_cell_length_b   8.90402400
_cell_length_c   15.22604547
_cell_angle_alpha   55.33540939
_cell_angle_beta   90.00000000
_cell_angle_gamma   90.00000000
_symmetry_Int_Tables_number   1
_chemical_formula_structural   Li3V5O12
_chemical_formula_sum   'Li12 V20 O48'
_cell_volume   1034.14253853
_cell_formula_units_Z   4
loop_
 _symmetry_equiv_pos_site_id
 _symmetry_equiv_pos_as_xyz
  1  'x, y, z'
loop_
 _atom_site_type_symbol
 _atom_site_label
 _atom_site_symmetry_multiplicity
 _atom_site_fract_x
 _atom_site_fract_y
 _atom_site_fract_z
 _atom_site_occupancy
  Li  Li0  1  0.91254400  0.37484200  0.69766300  1
  Li  Li1  1  0.48873600  0.71792000  0.34682700  1
  Li  Li2  1  0.22418700  0.99900000  0.18108100  1
  Li  Li3  1  0.72418700  0.00100000  0.31891900  1
  Li  Li4  1  0.41254400  0.62515800  0.80233700  1
  Li  Li5  1  0.98873600  0.28208000  0.15317300  1
  Li  Li6  1  0.01126400  0.71792000  0.84682700  1
  Li  Li7  1  0.58745600  0.37484200  0.19766300  1
  Li  Li8  1  0.27581300  0.99900000  0.68108100  1
  Li  Li9  1  0.77581300  0.00100000  0.81891900  1
  Li  Li10  1  0.51126400  0.28208000  0.65317300  1
  Li  Li11  1  0.08745600  0.62515800  0.30233700  1
  V  V0  1  0.97641000  0.35816900  0.89063500  1
  V  V1  1  0.47641000  0.64183100  0.60936500  1
  V  V2  1  0.03119600  0.87213200  0.38166500  1
  V  V3  1  0.53119600  0.12786800  0.11833500  1
  V  V4  1  0.46880400  0.87213200  0.88166500  1
  V  V5  1  0.96880400  0.12786800  0.61833500  1
  V  V6  1  0.52359000  0.35816900  0.39063500  1
  V  V7  1  0.02359000  0.64183100  0.10936500  1
  V  V8  1  0.75315600  0.54654300  0.48981800  1
  V  V9  1  0.61849300  0.26369400  0.85128200  1
  V  V10  1  0.88455500  0.96997200  0.14107700  1
  V  V11  1  0.11849300  0.73630600  0.64871800  1
  V  V12  1  0.38455500  0.03002800  0.35892300  1
  V  V13  1  0.25315600  0.45345700  0.01018200  1
  V  V14  1  0.74684400  0.54654300  0.98981800  1
  V  V15  1  0.61544500  0.96997200  0.64107700  1
  V  V16  1  0.88150700  0.26369400  0.35128200  1
  V  V17  1  0.11544500  0.03002800  0.85892300  1
  V  V18  1  0.38150700  0.73630600  0.14871800  1
  V  V19  1  0.24684400  0.45345700  0.51018200  1
  O  O0  1  0.12006800  0.62530700  0.43893500  1
  O  O1  1  0.11017600  0.16446900  0.90508700  1
  O  O2  1  0.34419900  0.45644500  0.60718900  1
  O  O3  1  0.42342700  0.88046400  0.19182000  1
  O  O4  1  0.63636100  0.50939500  0.59016900  1
  O  O5  1  0.80807100  0.28427700  0.83905800  1
  O  O6  1  0.57435100  0.16095500  0.98144300  1
  O  O7  1  0.01317600  0.88180000  0.24400100  1
  O  O8  1  0.71573100  0.98812000  0.18745800  1
  O  O9  1  0.83130900  0.76302800  0.42765300  1
  O  O10  1  0.52621200  0.47086000  0.77189900  1
  O  O11  1  0.02621200  0.52914000  0.72810100  1
  O  O12  1  0.94622600  0.19427300  0.05010200  1
  O  O13  1  0.44622600  0.80572700  0.44989800  1
  O  O14  1  0.33130900  0.23697200  0.07234700  1
  O  O15  1  0.21573100  0.01188000  0.31254200  1
  O  O16  1  0.07435100  0.83904500  0.51855700  1
  O  O17  1  0.51317600  0.11820000  0.25599900  1
  O  O18  1  0.30807100  0.71572300  0.66094200  1
  O  O19  1  0.13636100  0.49060500  0.90983100  1
  O  O20  1  0.84419900  0.54355500  0.89281100  1
  O  O21  1  0.61017600  0.83553100  0.59491300  1
  O  O22  1  0.92342700  0.11953600  0.30818000  1
  O  O23  1  0.62006800  0.37469300  0.06106500  1
  O  O24  1  0.37993200  0.62530700  0.93893500  1
  O  O25  1  0.07657300  0.88046400  0.69182000  1
  O  O26  1  0.38982400  0.16446900  0.40508700  1
  O  O27  1  0.15580100  0.45644500  0.10718900  1
  O  O28  1  0.86363900  0.50939500  0.09016900  1
  O  O29  1  0.69192900  0.28427700  0.33905800  1
  O  O30  1  0.48682400  0.88180000  0.74400100  1
  O  O31  1  0.92564900  0.16095500  0.48144300  1
  O  O32  1  0.78426900  0.98812000  0.68745800  1
  O  O33  1  0.66869100  0.76302800  0.92765300  1
  O  O34  1  0.55377400  0.19427300  0.55010200  1
  O  O35  1  0.05377400  0.80572700  0.94989800  1
  O  O36  1  0.97378800  0.47086000  0.27189900  1
  O  O37  1  0.47378800  0.52914000  0.22810100  1
  O  O38  1  0.16869100  0.23697200  0.57234700  1
  O  O39  1  0.28426900  0.01188000  0.81254200  1
  O  O40  1  0.98682400  0.11820000  0.75599900  1
  O  O41  1  0.42564900  0.83904500  0.01855700  1
  O  O42  1  0.19192900  0.71572300  0.16094200  1
  O  O43  1  0.36363900  0.49060500  0.40983100  1
  O  O44  1  0.57657300  0.11953600  0.80818000  1
  O  O45  1  0.65580100  0.54355500  0.39281100  1
  O  O46  1  0.88982400  0.83553100  0.09491300  1
  O  O47  1  0.87993200  0.37469300  0.56106500  1
loop_
_geom_bond_atom_site_label_1
_geom_bond_atom_site_label_2
_geom_bond_distance
_geom_bond_site_symmetry_2
Li0 O11 1.984412 1_655
Li0 O40 2.043648 1_555
Li0 O5 2.061333 1_555
Li0 O47 2.102470 1_555
Li1 O45 2.016105 1_555
Li1 O3 2.036209 1_555
Li1 O43 2.038184 1_555
Li1 O13 2.150661 1_555
Li2 O14 2.056008 1_565
Li2 O15 2.070497 1_565
Li2 O3 2.087744 1_555
Li2 O7 2.167760 1_555
Li3 O9 2.056008 1_545
Li3 O8 2.070497 1_545
Li3 O22 2.087744 1_555
Li3 O17 2.167760 1_555
Li4 O10 1.984412 1_555
Li4 O30 2.043648 1_555
Li4 O18 2.061333 1_555
Li4 O24 2.102470 1_555
Li5 O27 2.016105 1_655
Li5 O22 2.036209 1_555
Li5 O28 2.038184 1_555
Li5 O12 2.150661 1_555
Li6 O20 2.016105 1_455
Li6 O25 2.036209 1_555
Li6 O19 2.038184 1_555
Li6 O35 2.150661 1_555
Li7 O37 1.984412 1_555
Li7 O17 2.043648 1_555
Li7 O29 2.061333 1_555
Li7 O23 2.102470 1_555
Li8 O38 2.056008 1_565
Li8 O39 2.070497 1_565
Li8 O25 2.087744 1_555
Li8 O30 2.167760 1_555
Li9 O33 2.056008 1_545
Li9 O32 2.070497 1_545
Li9 O44 2.087744 1_555
Li9 O40 2.167760 1_555
Li10 O2 2.016105 1_555
Li10 O44 2.036209 1_555
Li10 O4 2.038184 1_555
Li10 O34 2.150661 1_555
Li11 O36 1.984412 1_455
Li11 O7 2.043648 1_555
Li11 O42 2.061333 1_555
Li11 O0 2.102470 1_555
O0 V19 1.735601 1_555
O0 V2 2.022310 1_555
O1 V17 1.698987 1_555
O1 V0 2.032320 1_455
O2 V19 1.744200 1_555
O2 V1 2.071590 1_555
O3 V18 1.785407 1_555
O3 V3 2.073588 1_565
O4 V8 1.744245 1_555
O4 V1 2.017060 1_555
O5 V9 1.766521 1_555
O5 V0 2.018586 1_555
O6 V9 1.694044 1_555
O6 V3 1.973034 1_556
O7 V10 1.759426 1_455
O7 V2 2.055146 1_555
O8 V10 1.762397 1_555
O8 V3 2.023656 1_565
O9 V8 1.749681 1_555
O9 V2 2.024042 1_655
O10 V9 1.749210 1_555
O10 V1 2.090368 1_555
O11 V11 1.749210 1_555
O11 V0 2.090368 1_455
O12 V10 1.757163 1_545
O12 V0 2.018106 1_554
O13 V12 1.757163 1_565
O13 V1 2.018106 1_555
O14 V13 1.749681 1_555
O14 V3 2.024042 1_555
O15 V12 1.762397 1_555
O15 V2 2.023656 1_545
O16 V11 1.694044 1_555
O16 V2 1.973034 1_555
O17 V12 1.759426 1_555
O17 V3 2.055146 1_555
O18 V11 1.766521 1_555
O18 V1 2.018586 1_555
O19 V13 1.744245 1_556
O19 V0 2.017060 1_455
O20 V14 1.744200 1_555
O20 V0 2.071590 1_555
O21 V15 1.698987 1_555
O21 V1 2.032320 1_555
O22 V16 1.785407 1_555
O22 V2 2.073588 1_645
O23 V14 1.735601 1_554
O23 V3 2.022310 1_555
O24 V13 1.735601 1_556
O24 V4 2.022310 1_555
O25 V11 1.785407 1_555
O25 V5 2.073588 1_465
O26 V12 1.698987 1_555
O26 V6 2.032320 1_555
O27 V13 1.744200 1_555
O27 V7 2.071590 1_555
O28 V14 1.744245 1_554
O28 V7 2.017060 1_655
O29 V16 1.766521 1_555
O29 V6 2.018586 1_555
O30 V15 1.759426 1_555
O30 V4 2.055146 1_555
O31 V16 1.694044 1_555
O31 V5 1.973034 1_555
O32 V15 1.762397 1_555
O32 V5 2.023656 1_565
O33 V14 1.749681 1_555
O33 V4 2.024042 1_555
O34 V15 1.757163 1_545
O34 V6 2.018106 1_555
O35 V17 1.757163 1_565
O35 V7 2.018106 1_556
O36 V16 1.749210 1_555
O36 V7 2.090368 1_655
O37 V18 1.749210 1_555
O37 V6 2.090368 1_555
O38 V19 1.749681 1_555
O38 V5 2.024042 1_455
O39 V17 1.762397 1_555
O39 V4 2.023656 1_545
O40 V17 1.759426 1_655
O40 V5 2.055146 1_555
O41 V18 1.694044 1_555
O41 V4 1.973034 1_554
O42 V18 1.766521 1_555
O42 V7 2.018586 1_555
O43 V19 1.744245 1_555
O43 V6 2.017060 1_555
O44 V9 1.785407 1_555
O44 V4 2.073588 1_545
O45 V8 1.744200 1_555
O45 V6 2.071590 1_555
O46 V10 1.698987 1_555
O46 V7 2.032320 1_655
O47 V8 1.735601 1_555
O47 V5 2.022310 1_555
