# generated using pymatgen
data_Li10Mn3Cr3(NiO8)2
_symmetry_space_group_name_H-M   'P 1'
_cell_length_a   5.91736000
_cell_length_b   5.98685480
_cell_length_c   9.80622628
_cell_angle_alpha   90.87883864
_cell_angle_beta   90.90461926
_cell_angle_gamma   119.08516758
_symmetry_Int_Tables_number   1
_chemical_formula_structural   Li10Mn3Cr3(NiO8)2
_chemical_formula_sum   'Li10 Mn3 Cr3 Ni2 O16'
_cell_volume   303.44823602
_cell_formula_units_Z   1
loop_
 _symmetry_equiv_pos_site_id
 _symmetry_equiv_pos_as_xyz
  1  'x, y, z'
loop_
 _atom_site_type_symbol
 _atom_site_label
 _atom_site_symmetry_multiplicity
 _atom_site_fract_x
 _atom_site_fract_y
 _atom_site_fract_z
 _atom_site_occupancy
  Li  Li0  1  0.01577600  0.99422800  0.48247100  1
  Li  Li1  1  0.19658700  0.39774300  0.06251100  1
  Li  Li2  1  0.35520700  0.67734900  0.28328200  1
  Li  Li3  1  0.68706300  0.33600200  0.78327200  1
  Li  Li4  1  0.81708700  0.18613800  0.56313900  1
  Li  Li5  1  0.40009800  0.18157500  0.56491300  1
  Li  Li6  1  0.21554100  0.81316700  0.05405800  1
  Li  Li7  1  0.61788400  0.79656400  0.05763400  1
  Li  Li8  1  0.80262300  0.59830700  0.55463000  1
  Li  Li9  1  0.01765200  0.01134600  0.98348200  1
  Mn  Mn0  1  0.84920100  0.17619600  0.28619300  1
  Mn  Mn1  1  0.67882700  0.83056800  0.78440600  1
  Mn  Mn2  1  0.84647500  0.66565500  0.28461000  1
  Cr  Cr0  1  0.18539700  0.33733800  0.78666100  1
  Cr  Cr1  1  0.35240800  0.17159800  0.28586900  1
  Cr  Cr2  1  0.18399600  0.83085800  0.78534500  1
  Ni  Ni0  1  0.34321400  0.65423500  0.53037600  1
  Ni  Ni1  1  0.67877200  0.33599300  0.02952400  1
  O  O0  1  0.34124100  0.16099300  0.90400400  1
  O  O1  1  0.16855400  0.31901500  0.40333700  1
  O  O2  1  0.53179200  0.02539000  0.16721000  1
  O  O3  1  0.03095100  0.50763400  0.66642600  1
  O  O4  1  0.18108200  0.84132500  0.39482800  1
  O  O5  1  0.85272500  0.16419500  0.89642400  1
  O  O6  1  0.50587800  0.50462100  0.67229300  1
  O  O7  1  0.52146700  0.49299600  0.17117500  1
  O  O8  1  0.32870400  0.65696500  0.90879200  1
  O  O9  1  0.67379900  0.30390000  0.40865200  1
  O  O10  1  0.50528500  0.97001100  0.66988000  1
  O  O11  1  0.99940100  0.52166900  0.16159600  1
  O  O12  1  0.68519200  0.80089600  0.41141400  1
  O  O13  1  0.85279800  0.68771000  0.89937300  1
  O  O14  1  0.04280900  0.01406300  0.66870300  1
  O  O15  1  0.02117800  0.03612400  0.17044100  1
loop_
_geom_bond_atom_site_label_1
_geom_bond_atom_site_label_2
_geom_bond_distance
_geom_bond_site_symmetry_2
Li0 O14 1.827696 1_565
Li0 O12 1.839243 1_455
Li0 O4 1.845647 1_555
Li0 O1 1.886738 1_565
Li1 O11 1.926489 1_455
Li1 O7 2.001812 1_555
Li1 O8 2.054588 1_554
Li1 O15 2.191999 1_555
Li1 O5 2.409849 1_454
Li1 O0 2.512301 1_554
Li2 O4 2.051323 1_555
Li2 O12 2.104406 1_555
Li2 O7 2.108841 1_555
Li2 O11 2.168913 1_455
Li2 O2 2.173162 1_565
Li2 O1 2.241226 1_555
Li3 O5 2.056961 1_555
Li3 O6 2.098103 1_555
Li3 O13 2.138978 1_555
Li3 O3 2.141605 1_655
Li3 O0 2.171882 1_555
Li3 O10 2.188744 1_545
Li4 O3 1.965619 1_655
Li4 O10 1.988861 1_545
Li4 O9 2.020984 1_555
Li4 O14 2.289925 1_655
Li4 O1 2.438551 1_655
Li4 O12 2.500053 1_545
Li5 O10 1.958942 1_545
Li5 O6 1.995201 1_555
Li5 O9 2.113545 1_555
Li5 O14 2.132933 1_555
Li5 O4 2.423187 1_545
Li5 O1 2.476349 1_555
Li6 O11 1.929365 1_455
Li6 O2 1.981690 1_565
Li6 O8 1.987516 1_554
Li6 O0 2.382744 1_564
Li6 O13 2.401512 1_454
Li6 O15 2.427809 1_565
Li7 O2 1.985330 1_565
Li7 O7 1.985506 1_555
Li7 O8 2.061630 1_554
Li7 O15 2.348648 1_665
Li7 O13 2.383979 1_554
Li7 O5 2.544987 1_564
Li8 O6 1.963561 1_555
Li8 O3 2.001641 1_655
Li8 O9 2.078172 1_555
Li8 O12 2.183370 1_555
Li8 O14 2.427309 1_665
Li8 O4 2.569186 1_655
Li9 O15 1.836055 1_556
Li9 O5 1.839715 1_455
Li9 O13 1.863872 1_445
Li9 O0 1.864735 1_555
Mn0 O15 1.965765 1_655
Mn0 O9 1.971433 1_555
Mn0 O1 1.988011 1_655
Mn0 O2 1.988484 1_555
Mn0 O11 2.210262 1_555
Mn0 O12 2.345291 1_545
Mn1 O10 1.959229 1_555
Mn1 O13 1.977674 1_555
Mn1 O6 2.005262 1_555
Mn1 O5 2.038088 1_565
Mn1 O8 2.210340 1_555
Mn1 O14 2.224437 1_665
Mn2 O11 1.943730 1_555
Mn2 O12 1.967344 1_555
Mn2 O7 1.992225 1_555
Mn2 O4 2.016846 1_655
Mn2 O15 2.263837 1_665
Mn2 O9 2.276576 1_555
Cr0 O14 2.026963 1_555
Cr0 O6 2.027874 1_555
Cr0 O8 2.033514 1_555
Cr0 O3 2.042936 1_555
Cr0 O5 2.055595 1_455
Cr0 O0 2.058990 1_555
Cr1 O9 2.031702 1_555
Cr1 O15 2.033946 1_555
Cr1 O2 2.039112 1_555
Cr1 O7 2.049060 1_555
Cr1 O4 2.056515 1_545
Cr1 O1 2.057013 1_555
Cr2 O14 2.026948 1_565
Cr2 O3 2.029358 1_555
Cr2 O10 2.036575 1_555
Cr2 O8 2.038410 1_555
Cr2 O0 2.057541 1_565
Cr2 O13 2.071560 1_455
Ni0 O10 2.117014 1_555
Ni0 O6 2.121249 1_555
Ni0 O3 2.121690 1_555
Ni0 O1 2.124595 1_555
Ni0 O12 2.146005 1_555
Ni0 O4 2.234273 1_555
Ni1 O11 2.083388 1_555
Ni1 O0 2.109573 1_554
Ni1 O7 2.128581 1_555
Ni1 O2 2.139865 1_555
Ni1 O5 2.202618 1_554
Ni1 O13 2.266945 1_554
