# generated using pymatgen
data_Li5V3P8O29
_symmetry_space_group_name_H-M   'P 1'
_cell_length_a   9.83530016
_cell_length_b   9.83539712
_cell_length_c   13.99497160
_cell_angle_alpha   90.15542576
_cell_angle_beta   90.15300736
_cell_angle_gamma   59.87056248
_symmetry_Int_Tables_number   1
_chemical_formula_structural   Li5V3P8O29
_chemical_formula_sum   'Li10 V6 P16 O58'
_cell_volume   1170.87935323
_cell_formula_units_Z   2
loop_
 _symmetry_equiv_pos_site_id
 _symmetry_equiv_pos_as_xyz
  1  'x, y, z'
loop_
 _atom_site_type_symbol
 _atom_site_label
 _atom_site_symmetry_multiplicity
 _atom_site_fract_x
 _atom_site_fract_y
 _atom_site_fract_z
 _atom_site_occupancy
  Li  Li0  1  0.91513800  0.77455900  0.05841800  1
  Li  Li1  1  0.90521100  0.32286400  0.56292300  1
  Li  Li2  1  0.66880800  0.66819300  0.88252700  1
  Li  Li3  1  0.77659200  0.31584000  0.05776400  1
  Li  Li4  1  0.31132500  0.91347700  0.05794300  1
  Li  Li5  1  0.68121900  0.22341800  0.44399100  1
  Li  Li6  1  0.32348400  0.77097300  0.56263200  1
  Li  Li7  1  0.67839200  0.09444000  0.93689300  1
  Li  Li8  1  0.08857300  0.68261400  0.44153900  1
  Li  Li9  1  0.22725000  0.09415500  0.44177900  1
  V  V0  1  0.56512500  0.43252700  0.24958300  1
  V  V1  1  0.42639500  0.56617100  0.75383800  1
  V  V2  1  0.56959500  0.99518900  0.74403900  1
  V  V3  1  0.43289400  0.00102300  0.25125700  1
  V  V4  1  0.99898300  0.56713600  0.24735500  1
  V  V5  1  0.00240100  0.43288700  0.75356000  1
  P  P0  1  0.91050100  0.77229500  0.84289400  1
  P  P1  1  0.76957900  0.91367700  0.34071400  1
  P  P2  1  0.91181200  0.32126500  0.34252700  1
  P  P3  1  0.66486700  0.66682300  0.12646600  1
  P  P4  1  0.66425200  0.66319900  0.62747100  1
  P  P5  1  0.77105000  0.31987000  0.84139000  1
  P  P6  1  0.68150800  0.23054500  0.65863900  1
  P  P7  1  0.32099000  0.91052100  0.84183800  1
  P  P8  1  0.67907400  0.08759000  0.15733400  1
  P  P9  1  0.31934600  0.76783300  0.34242000  1
  P  P10  1  0.22988100  0.68412400  0.15784000  1
  P  P11  1  0.33128800  0.33610500  0.37249700  1
  P  P12  1  0.33691000  0.32758000  0.87238100  1
  P  P13  1  0.08585900  0.68104900  0.65861200  1
  P  P14  1  0.23059200  0.08832500  0.65883200  1
  P  P15  1  0.08585400  0.23030100  0.15921100  1
  O  O0  1  0.01148500  0.75796000  0.56661000  1
  O  O1  1  0.91490300  0.74523900  0.33751400  1
  O  O2  1  0.75761500  0.00483000  0.06627100  1
  O  O3  1  0.74623200  0.92155600  0.83997100  1
  O  O4  1  0.88600200  0.62841000  0.82482300  1
  O  O5  1  0.81310600  0.67195400  0.16404000  1
  O  O6  1  0.89749700  0.48052800  0.32363900  1
  O  O7  1  0.99369200  0.23814200  0.07359500  1
  O  O8  1  0.91280700  0.34278300  0.84088600  1
  O  O9  1  0.66403600  0.81218900  0.67258600  1
  O  O10  1  0.61755800  0.90498800  0.32248700  1
  O  O11  1  0.81497000  0.51410900  0.66783700  1
  O  O12  1  0.66748600  0.66077300  0.01907300  1
  O  O13  1  0.65850900  0.66635500  0.52105900  1
  O  O14  1  0.66927900  0.51243000  0.16726000  1
  O  O15  1  0.48668200  0.88996200  0.82744400  1
  O  O16  1  0.51322500  0.81222900  0.16528200  1
  O  O17  1  0.74523000  0.33723600  0.33783100  1
  O  O18  1  0.79054700  0.21160100  0.75027700  1
  O  O19  1  0.75613600  0.24719300  0.56901100  1
  O  O20  1  0.75326700  0.24512200  0.93053900  1
  O  O21  1  0.62099500  0.48565400  0.82559200  1
  O  O22  1  0.51290100  0.66703500  0.66965000  1
  O  O23  1  0.66333400  0.25433700  0.16246400  1
  O  O24  1  0.48021200  0.61665800  0.32120200  1
  O  O25  1  0.33661100  0.91491800  0.34128700  1
  O  O26  1  0.79283400  0.99392400  0.24529200  1
  O  O27  1  0.76237600  0.00605000  0.42609600  1
  O  O28  1  0.24315200  0.99729700  0.56885100  1
  O  O29  1  0.65815900  0.09006600  0.65982400  1
  O  O30  1  0.52471200  0.38521700  0.67923600  1
  O  O31  1  0.34378900  0.74116600  0.83304500  1
  O  O32  1  0.48655800  0.33159500  0.32870300  1
  O  O33  1  0.38269900  0.52200200  0.17800000  1
  O  O34  1  0.24288600  0.76571800  0.07294300  1
  O  O35  1  0.24773100  0.75207000  0.43307200  1
  O  O36  1  0.20787000  0.78684800  0.25389100  1
  O  O37  1  0.25556700  0.66051600  0.66462800  1
  O  O38  1  0.48575500  0.17884700  0.83151100  1
  O  O39  1  0.51933800  0.10296300  0.17582400  1
  O  O40  1  0.33992000  0.47658800  0.82596200  1
  O  O41  1  0.34160500  0.33576500  0.97812900  1
  O  O42  1  0.34083400  0.33475700  0.47881700  1
  O  O43  1  0.18749900  0.48821700  0.33207500  1
  O  O44  1  0.37707500  0.10264400  0.67487900  1
  O  O45  1  0.32700200  0.18761700  0.33371500  1
  O  O46  1  0.08467800  0.66341900  0.15880000  1
  O  O47  1  0.99967200  0.78895000  0.75065400  1
  O  O48  1  0.99557200  0.75887200  0.93350300  1
  O  O49  1  0.09511700  0.52228500  0.67432900  1
  O  O50  1  0.18597800  0.33574200  0.82881600  1
  O  O51  1  0.09532300  0.38190600  0.17701800  1
  O  O52  1  0.25452500  0.08497200  0.16218000  1
  O  O53  1  0.24544100  0.98932400  0.93275500  1
  O  O54  1  0.21205500  0.99849100  0.75055900  1
  O  O55  1  0.08029700  0.25076700  0.65931700  1
  O  O56  1  0.99637300  0.24279000  0.43342600  1
  O  O57  1  0.00579500  0.20683400  0.25454900  1
loop_
_geom_bond_atom_site_label_1
_geom_bond_atom_site_label_2
_geom_bond_distance
_geom_bond_site_symmetry_2
Li0 O48 1.894508 1_554
Li0 O2 2.004675 1_565
Li0 O46 2.028524 1_655
Li0 O5 2.289790 1_555
Li1 O19 1.951259 1_555
Li1 O56 2.000163 1_555
Li1 O55 2.013701 1_655
Li1 O11 2.190343 1_555
Li2 O12 1.912876 1_556
Li2 O4 2.129992 1_555
Li2 O15 2.154032 1_555
Li2 O21 2.217454 1_555
Li3 O7 1.884839 1_555
Li3 O20 1.964155 1_554
Li3 O23 2.108021 1_555
Li3 O14 2.268174 1_555
Li4 O53 1.887232 1_554
Li4 O34 1.895680 1_555
Li4 O52 2.080921 1_565
Li4 O16 2.280017 1_555
Li5 O27 1.885598 1_555
Li5 O19 1.955184 1_555
Li5 O17 2.139714 1_555
Li5 O32 2.312701 1_555
Li6 O28 1.954621 1_555
Li6 O35 2.001834 1_555
Li6 O37 2.099056 1_555
Li6 O22 2.200079 1_555
Li7 O20 1.960436 1_555
Li7 O2 1.993497 1_556
Li7 O3 2.007415 1_545
Li7 O38 2.206045 1_555
Li8 O0 1.903624 1_555
Li8 O35 2.001508 1_555
Li8 O1 2.086095 1_455
Li8 O43 2.252480 1_555
Li9 O28 1.988141 1_545
Li9 O56 1.993493 1_455
Li9 O25 2.081730 1_545
Li9 O45 2.239552 1_555
O0 P13 1.486564 1_555
O1 P1 1.553138 1_555
O1 V4 1.970724 1_555
O2 P8 1.500609 1_555
O3 P0 1.544660 1_555
O3 V2 2.018624 1_555
O4 P0 1.569959 1_555
O4 V5 1.946514 1_655
O5 P3 1.573016 1_555
O5 V4 1.966614 1_555
O6 P2 1.524467 1_555
O6 V4 1.930245 1_555
O7 P15 1.479112 1_655
O8 P5 1.519928 1_555
O8 V5 1.962405 1_655
O9 P4 1.593059 1_555
O9 V2 1.849089 1_555
O10 P1 1.560139 1_555
O10 V3 1.859516 1_565
O11 P4 1.576255 1_555
O11 V5 1.997671 1_655
O12 P3 1.503756 1_555
O13 P4 1.489970 1_555
O14 P3 1.603788 1_555
O14 V0 1.952877 1_555
O15 P7 1.551736 1_555
O15 V2 1.989348 1_555
O16 P3 1.556786 1_555
O16 V3 2.009988 1_565
O17 P2 1.566656 1_555
O17 V0 1.967082 1_555
O18 P5 1.607980 1_555
O18 P6 1.619540 1_555
O19 P6 1.505193 1_555
O20 P5 1.504295 1_555
O21 P5 1.571639 1_555
O21 V1 1.941952 1_555
O22 P4 1.585541 1_555
O22 V1 1.988776 1_555
O23 P8 1.569501 1_555
O23 V0 1.945830 1_555
O24 P9 1.562255 1_555
O24 V0 1.859589 1_555
O25 P9 1.539025 1_555
O25 V3 2.004680 1_565
O26 P8 1.606192 1_565
O26 P1 1.627019 1_555
O27 P1 1.479262 1_545
O28 P14 1.512048 1_565
O29 P6 1.510196 1_555
O29 V2 1.961130 1_545
O30 P6 1.555744 1_555
O30 V1 1.860166 1_555
O31 P7 1.569702 1_555
O31 V1 1.855218 1_555
O32 P11 1.626829 1_555
O32 V0 1.894539 1_555
O33 P10 1.573336 1_555
O33 V0 1.845891 1_555
O34 P10 1.476845 1_555
O35 P9 1.498382 1_555
O36 P9 1.600076 1_555
O36 P10 1.627637 1_555
O37 P13 1.579496 1_555
O37 V1 1.916402 1_555
O38 P12 1.568512 1_555
O38 V2 1.984819 1_545
O39 P8 1.523651 1_555
O39 V3 1.925840 1_555
O40 P12 1.618508 1_555
O40 V1 1.811137 1_555
O41 P12 1.483764 1_555
O42 P11 1.490330 1_555
O43 P11 1.560302 1_555
O43 V4 1.998613 1_455
O44 P14 1.532217 1_555
O44 V2 1.904169 1_545
O45 P11 1.576902 1_555
O45 V3 1.964828 1_555
O46 P10 1.540533 1_555
O46 V4 1.989042 1_455
O47 P13 1.612257 1_655
O47 P0 1.616736 1_555
O48 P0 1.486555 1_555
O49 P13 1.534273 1_555
O49 V5 1.910441 1_555
O50 P12 1.567671 1_555
O50 V5 1.882961 1_555
O51 P15 1.559299 1_555
O51 V4 1.856896 1_455
O52 P15 1.554455 1_555
O52 V3 1.962954 1_555
O53 P7 1.480990 1_555
O54 P7 1.611350 1_555
O54 P14 1.622022 1_565
O55 P14 1.538431 1_555
O55 V5 2.037132 1_555
O56 P2 1.503656 1_555
O57 P2 1.609737 1_455
O57 P15 1.625804 1_555
