# generated using pymatgen
data_NaCoPO4
_symmetry_space_group_name_H-M   'P 1'
_cell_length_a   5.00488400
_cell_length_b   6.27910200
_cell_length_c   10.29222700
_cell_angle_alpha   90.00000000
_cell_angle_beta   90.00000000
_cell_angle_gamma   90.00000000
_symmetry_Int_Tables_number   1
_chemical_formula_structural   NaCoPO4
_chemical_formula_sum   'Na4 Co4 P4 O16'
_cell_volume   323.44534881
_cell_formula_units_Z   4
loop_
 _symmetry_equiv_pos_site_id
 _symmetry_equiv_pos_as_xyz
  1  'x, y, z'
loop_
 _atom_site_type_symbol
 _atom_site_label
 _atom_site_symmetry_multiplicity
 _atom_site_fract_x
 _atom_site_fract_y
 _atom_site_fract_z
 _atom_site_occupancy
  Na  Na0  1  0.00000000  0.50000000  0.00000000  1
  Na  Na1  1  0.00000000  0.00000000  0.00000000  1
  Na  Na2  1  0.50000000  0.00000000  0.50000000  1
  Na  Na3  1  0.50000000  0.50000000  0.50000000  1
  Co  Co0  1  0.49026700  0.75000000  0.21936500  1
  Co  Co1  1  0.99026700  0.25000000  0.28063500  1
  Co  Co2  1  0.00973300  0.75000000  0.71936500  1
  Co  Co3  1  0.50973300  0.25000000  0.78063500  1
  P  P0  1  0.43350100  0.25000000  0.10621000  1
  P  P1  1  0.93350100  0.75000000  0.39379000  1
  P  P2  1  0.06649900  0.25000000  0.60621000  1
  P  P3  1  0.56649900  0.75000000  0.89379000  1
  O  O0  1  0.66240000  0.75000000  0.03816900  1
  O  O1  1  0.74125300  0.25000000  0.11392400  1
  O  O2  1  0.29895800  0.05394200  0.17556500  1
  O  O3  1  0.29895800  0.44605800  0.17556500  1
  O  O4  1  0.79895800  0.55394200  0.32443500  1
  O  O5  1  0.79895800  0.94605800  0.32443500  1
  O  O6  1  0.24125300  0.75000000  0.38607600  1
  O  O7  1  0.16240000  0.25000000  0.46183100  1
  O  O8  1  0.83760000  0.75000000  0.53816900  1
  O  O9  1  0.75874700  0.25000000  0.61392400  1
  O  O10  1  0.20104200  0.05394200  0.67556500  1
  O  O11  1  0.20104200  0.44605800  0.67556500  1
  O  O12  1  0.70104200  0.55394200  0.82443500  1
  O  O13  1  0.70104200  0.94605800  0.82443500  1
  O  O14  1  0.25874700  0.75000000  0.88607600  1
  O  O15  1  0.33760000  0.25000000  0.96183100  1
loop_
_geom_bond_atom_site_label_1
_geom_bond_atom_site_label_2
_geom_bond_distance
_geom_bond_site_symmetry_2
Na0 O0 2.339537 1_455
Na0 O15 2.339537 1_554
Na0 O1 2.348627 1_455
Na0 O14 2.348627 1_554
Na0 O3 2.370353 1_555
Na0 O12 2.370353 1_454
Na1 O0 2.339537 1_445
Na1 O15 2.339537 1_554
Na1 O1 2.348627 1_455
Na1 O14 2.348627 1_544
Na1 O13 2.370353 1_444
Na1 O2 2.370353 1_555
Na2 O8 2.339537 1_545
Na2 O7 2.339537 1_555
Na2 O6 2.348627 1_545
Na2 O9 2.348627 1_555
Na2 O10 2.370353 1_555
Na2 O5 2.370353 1_545
Na3 O8 2.339537 1_555
Na3 O7 2.339537 1_555
Na3 O6 2.348627 1_555
Na3 O9 2.348627 1_555
Na3 O11 2.370353 1_555
Na3 O4 2.370353 1_555
Co0 O0 2.054284 1_555
Co0 O6 2.120682 1_555
Co0 O2 2.182268 1_565
Co0 O3 2.182268 1_555
Co0 O5 2.252082 1_555
Co0 O4 2.252082 1_555
Co1 O7 2.054284 1_655
Co1 O1 2.120682 1_555
Co1 O5 2.182268 1_545
Co1 O4 2.182268 1_555
Co1 O2 2.252082 1_655
Co1 O3 2.252082 1_655
Co2 O8 2.054284 1_455
Co2 O14 2.120682 1_555
Co2 O10 2.182268 1_565
Co2 O11 2.182268 1_555
Co2 O12 2.252082 1_455
Co2 O13 2.252082 1_455
Co3 O15 2.054284 1_555
Co3 O9 2.120682 1_555
Co3 O13 2.182268 1_545
Co3 O12 2.182268 1_555
Co3 O11 2.252082 1_555
Co3 O10 2.252082 1_555
O0 P3 1.561575 1_554
O1 P0 1.542308 1_555
O2 P0 1.574323 1_555
O3 P0 1.574323 1_555
O4 P1 1.574323 1_555
O5 P1 1.574323 1_555
O6 P1 1.542308 1_455
O7 P2 1.561575 1_555
O8 P1 1.561575 1_555
O9 P2 1.542308 1_655
O10 P2 1.574323 1_555
O11 P2 1.574323 1_555
O12 P3 1.574323 1_555
O13 P3 1.574323 1_555
O14 P3 1.542308 1_555
O15 P0 1.561575 1_556
