# generated using pymatgen
data_Li2MnF4
_symmetry_space_group_name_H-M   'P 1'
_cell_length_a   7.41473400
_cell_length_b   8.93550800
_cell_length_c   9.95782700
_cell_angle_alpha   90.00000000
_cell_angle_beta   90.00000000
_cell_angle_gamma   90.00000000
_symmetry_Int_Tables_number   1
_chemical_formula_structural   Li2MnF4
_chemical_formula_sum   'Li16 Mn8 F32'
_cell_volume   659.75000231
_cell_formula_units_Z   8
loop_
 _symmetry_equiv_pos_site_id
 _symmetry_equiv_pos_as_xyz
  1  'x, y, z'
loop_
 _atom_site_type_symbol
 _atom_site_label
 _atom_site_symmetry_multiplicity
 _atom_site_fract_x
 _atom_site_fract_y
 _atom_site_fract_z
 _atom_site_occupancy
  Li  Li0  1  0.81133100  0.25479200  0.09168000  1
  Li  Li1  1  0.21478700  0.25054300  0.10687300  1
  Li  Li2  1  0.78849200  0.92274700  0.13458400  1
  Li  Li3  1  0.26448400  0.92438000  0.15643100  1
  Li  Li4  1  0.76448400  0.42438000  0.34356900  1
  Li  Li5  1  0.28849200  0.42274700  0.36541600  1
  Li  Li6  1  0.71478700  0.75054300  0.39312700  1
  Li  Li7  1  0.31133100  0.75479200  0.40832000  1
  Li  Li8  1  0.68866900  0.25479200  0.59168000  1
  Li  Li9  1  0.28521300  0.25054300  0.60687300  1
  Li  Li10  1  0.71150800  0.92274700  0.63458400  1
  Li  Li11  1  0.23551600  0.92438000  0.65643100  1
  Li  Li12  1  0.73551600  0.42438000  0.84356900  1
  Li  Li13  1  0.21150800  0.42274700  0.86541600  1
  Li  Li14  1  0.78521300  0.75054300  0.89312700  1
  Li  Li15  1  0.18866900  0.75479200  0.90832000  1
  Mn  Mn0  1  0.48512500  0.57961400  0.11318600  1
  Mn  Mn1  1  0.99136200  0.64172400  0.19266000  1
  Mn  Mn2  1  0.49136200  0.14172400  0.30734000  1
  Mn  Mn3  1  0.98512500  0.07961400  0.38681400  1
  Mn  Mn4  1  0.01487500  0.57961400  0.61318600  1
  Mn  Mn5  1  0.50863800  0.64172400  0.69266000  1
  Mn  Mn6  1  0.00863800  0.14172400  0.80734000  1
  Mn  Mn7  1  0.51487500  0.07961400  0.88681400  1
  F  F0  1  0.01944700  0.18297000  0.01103200  1
  F  F1  1  0.28354300  0.43693000  0.04290100  1
  F  F2  1  0.34419000  0.76974200  0.05152800  1
  F  F3  1  0.39096600  0.09557300  0.08773700  1
  F  F4  1  0.86557500  0.43675200  0.17013300  1
  F  F5  1  0.02085700  0.89178400  0.22354700  1
  F  F6  1  0.74771000  0.10827000  0.22199800  1
  F  F7  1  0.69416700  0.72438200  0.20014400  1
  F  F8  1  0.19416700  0.22438200  0.29985600  1
  F  F9  1  0.24771000  0.60827000  0.27800200  1
  F  F10  1  0.52085700  0.39178400  0.27645300  1
  F  F11  1  0.36557500  0.93675200  0.32986700  1
  F  F12  1  0.89096600  0.59557300  0.41226300  1
  F  F13  1  0.84419000  0.26974200  0.44847200  1
  F  F14  1  0.78354300  0.93693000  0.45709900  1
  F  F15  1  0.51944700  0.68297000  0.48896800  1
  F  F16  1  0.48055300  0.18297000  0.51103200  1
  F  F17  1  0.21645700  0.43693000  0.54290100  1
  F  F18  1  0.15581000  0.76974200  0.55152800  1
  F  F19  1  0.10903400  0.09557300  0.58773700  1
  F  F20  1  0.63442500  0.43675200  0.67013300  1
  F  F21  1  0.47914300  0.89178400  0.72354700  1
  F  F22  1  0.75229000  0.10827000  0.72199800  1
  F  F23  1  0.80583300  0.72438200  0.70014400  1
  F  F24  1  0.30583300  0.22438200  0.79985600  1
  F  F25  1  0.25229000  0.60827000  0.77800200  1
  F  F26  1  0.97914300  0.39178400  0.77645300  1
  F  F27  1  0.13442500  0.93675200  0.82986700  1
  F  F28  1  0.60903400  0.59557300  0.91226300  1
  F  F29  1  0.65581000  0.26974200  0.94847200  1
  F  F30  1  0.71645700  0.93693000  0.95709900  1
  F  F31  1  0.98055300  0.68297000  0.98896800  1
loop_
_geom_bond_atom_site_label_1
_geom_bond_atom_site_label_2
_geom_bond_distance
_geom_bond_site_symmetry_2
F0 Li1 1.836638 1_555
F0 Li0 1.854193 1_455
F0 Mn6 2.063099 1_554
F1 Li13 1.850655 1_554
F1 Li1 1.854580 1_555
F1 Mn0 2.085523 1_555
F2 Li3 1.830237 1_555
F2 Li15 1.838800 1_554
F2 Mn0 2.086915 1_555
F3 Li1 1.913185 1_555
F3 Li3 1.920263 1_545
F3 Mn7 2.206234 1_554
F3 Mn2 2.346521 1_555
F4 Li0 1.848146 1_555
F4 Li4 1.885935 1_555
F4 Mn1 2.067536 1_555
F5 Li3 1.947995 1_555
F5 Li2 1.956986 1_455
F5 Mn1 2.266060 1_455
F5 Mn3 2.351649 1_465
F6 Li2 1.896638 1_545
F6 Li0 1.902800 1_555
F6 Mn2 2.103429 1_555
F6 Mn3 2.420337 1_555
F7 Li6 1.941885 1_555
F7 Li2 2.014218 1_555
F7 Mn0 2.196728 1_555
F7 Mn1 2.325300 1_555
F8 Li1 1.941885 1_555
F8 Li5 2.014218 1_555
F8 Mn3 2.196728 1_455
F8 Mn2 2.325300 1_555
F9 Li5 1.896638 1_555
F9 Li7 1.902800 1_555
F9 Mn1 2.103429 1_455
F9 Mn0 2.420337 1_555
F10 Li4 1.947995 1_555
F10 Li5 1.956986 1_555
F10 Mn2 2.266060 1_555
F10 Mn0 2.351649 1_555
F11 Li7 1.848146 1_555
F11 Li3 1.885935 1_555
F11 Mn2 2.067536 1_565
F12 Li6 1.913185 1_555
F12 Li4 1.920263 1_555
F12 Mn4 2.206234 1_655
F12 Mn1 2.346521 1_555
F13 Li4 1.830237 1_555
F13 Li8 1.838800 1_555
F13 Mn3 2.086915 1_555
F14 Li10 1.850655 1_555
F14 Li6 1.854580 1_555
F14 Mn3 2.085523 1_565
F15 Li6 1.836638 1_555
F15 Li7 1.854193 1_555
F15 Mn5 2.063099 1_555
F16 Li9 1.836638 1_555
F16 Li8 1.854193 1_555
F16 Mn2 2.063099 1_555
F17 Li5 1.850655 1_555
F17 Li9 1.854580 1_555
F17 Mn4 2.085523 1_555
F18 Li11 1.830237 1_555
F18 Li7 1.838800 1_555
F18 Mn4 2.086915 1_555
F19 Li9 1.913185 1_555
F19 Li11 1.920263 1_545
F19 Mn3 2.206234 1_455
F19 Mn6 2.346521 1_555
F20 Li8 1.848146 1_555
F20 Li12 1.885935 1_555
F20 Mn5 2.067536 1_555
F21 Li11 1.947995 1_555
F21 Li10 1.956986 1_555
F21 Mn5 2.266060 1_555
F21 Mn7 2.351649 1_565
F22 Li10 1.896638 1_545
F22 Li8 1.902800 1_555
F22 Mn6 2.103429 1_655
F22 Mn7 2.420337 1_555
F23 Li14 1.941885 1_555
F23 Li10 2.014218 1_555
F23 Mn4 2.196728 1_655
F23 Mn5 2.325300 1_555
F24 Li9 1.941885 1_555
F24 Li13 2.014218 1_555
F24 Mn7 2.196728 1_555
F24 Mn6 2.325300 1_555
F25 Li13 1.896638 1_555
F25 Li15 1.902800 1_555
F25 Mn5 2.103429 1_555
F25 Mn4 2.420337 1_555
F26 Li12 1.947995 1_555
F26 Li13 1.956986 1_655
F26 Mn6 2.266060 1_655
F26 Mn4 2.351649 1_655
F27 Li15 1.848146 1_555
F27 Li11 1.885935 1_555
F27 Mn6 2.067536 1_565
F28 Li14 1.913185 1_555
F28 Li12 1.920263 1_555
F28 Mn0 2.206234 1_556
F28 Mn5 2.346521 1_555
F29 Li12 1.830237 1_555
F29 Li0 1.838800 1_556
F29 Mn7 2.086915 1_555
F30 Li2 1.850655 1_556
F30 Li14 1.854580 1_555
F30 Mn7 2.085523 1_565
F31 Li14 1.836638 1_555
F31 Li15 1.854193 1_655
F31 Mn1 2.063099 1_556
