# generated using pymatgen
data_Mn2Fe3P6WO24
_symmetry_space_group_name_H-M   'P 1'
_cell_length_a   8.68598980
_cell_length_b   8.68598980
_cell_length_c   8.68599022
_cell_angle_alpha   60.04383919
_cell_angle_beta   60.04383919
_cell_angle_gamma   60.04383342
_symmetry_Int_Tables_number   1
_chemical_formula_structural   Mn2Fe3P6WO24
_chemical_formula_sum   'Mn2 Fe3 P6 W1 O24'
_cell_volume   463.84649608
_cell_formula_units_Z   1
loop_
 _symmetry_equiv_pos_site_id
 _symmetry_equiv_pos_as_xyz
  1  'x, y, z'
loop_
 _atom_site_type_symbol
 _atom_site_label
 _atom_site_symmetry_multiplicity
 _atom_site_fract_x
 _atom_site_fract_y
 _atom_site_fract_z
 _atom_site_occupancy
  Mn  Mn0  1  0.99546900  0.99546900  0.99546900  1
  Mn  Mn1  1  0.49941400  0.49941400  0.49941400  1
  Fe  Fe0  1  0.64472100  0.64472100  0.64472100  1
  Fe  Fe1  1  0.85378700  0.85378700  0.85378700  1
  Fe  Fe2  1  0.35533100  0.35533100  0.35533100  1
  P  P0  1  0.95562400  0.25329900  0.54719400  1
  P  P1  1  0.54719400  0.95562400  0.25329900  1
  P  P2  1  0.25329900  0.54719400  0.95562400  1
  P  P3  1  0.74539000  0.46225000  0.04294300  1
  P  P4  1  0.46225000  0.04294300  0.74539000  1
  P  P5  1  0.04294300  0.74539000  0.46225000  1
  W  W0  1  0.14367800  0.14367800  0.14367800  1
  O  O0  1  0.50243000  0.11255700  0.31508300  1
  O  O1  1  0.31508300  0.50243000  0.11255700  1
  O  O2  1  0.11255700  0.31508300  0.50243000  1
  O  O3  1  0.94110500  0.08705000  0.73535500  1
  O  O4  1  0.99910900  0.18488500  0.38721100  1
  O  O5  1  0.76379900  0.41349900  0.55371500  1
  O  O6  1  0.73535500  0.94110500  0.08705000  1
  O  O7  1  0.55371500  0.76379900  0.41349900  1
  O  O8  1  0.81310500  0.61271700  0.00428300  1
  O  O9  1  0.41349900  0.55371500  0.76379900  1
  O  O10  1  0.91275000  0.26248400  0.06503900  1
  O  O11  1  0.61271700  0.00428300  0.81310500  1
  O  O12  1  0.38721100  0.99910900  0.18488500  1
  O  O13  1  0.08705000  0.73535500  0.94110500  1
  O  O14  1  0.58835900  0.43839200  0.23769800  1
  O  O15  1  0.18488500  0.38721100  0.99910900  1
  O  O16  1  0.43839200  0.23769800  0.58835900  1
  O  O17  1  0.26248400  0.06503900  0.91275000  1
  O  O18  1  0.23769800  0.58835900  0.43839200  1
  O  O19  1  0.00428300  0.81310500  0.61271700  1
  O  O20  1  0.06503900  0.91275000  0.26248400  1
  O  O21  1  0.88335000  0.69625500  0.49065800  1
  O  O22  1  0.69625500  0.49065800  0.88335000  1
  O  O23  1  0.49065800  0.88335000  0.69625500  1
loop_
_geom_bond_atom_site_label_1
_geom_bond_atom_site_label_2
_geom_bond_distance
_geom_bond_site_symmetry_2
Mn0 O13 2.203605 1_655
Mn0 O6 2.203605 1_556
Mn0 O3 2.203605 1_565
Mn0 O10 2.358466 1_566
Mn0 O17 2.358466 1_665
Mn0 O20 2.358466 1_656
Mn1 O5 2.252053 1_555
Mn1 O7 2.252054 1_555
Mn1 O9 2.252054 1_555
Mn1 O18 2.255207 1_555
Mn1 O16 2.255207 1_555
Mn1 O14 2.255207 1_555
Fe0 O23 1.961035 1_555
Fe0 O21 1.961035 1_555
Fe0 O22 1.961035 1_555
Fe0 O5 2.103024 1_555
Fe0 O7 2.103025 1_555
Fe0 O9 2.103025 1_555
Fe1 O11 1.939655 1_565
Fe1 O8 1.939655 1_556
Fe1 O19 1.939655 1_655
Fe1 O13 2.100619 1_655
Fe1 O6 2.100619 1_556
Fe1 O3 2.100619 1_565
Fe2 O0 1.949581 1_555
Fe2 O2 1.949582 1_555
Fe2 O1 1.949582 1_555
Fe2 O18 2.078029 1_555
Fe2 O14 2.078029 1_555
Fe2 O16 2.078029 1_555
O0 P1 1.513320 1_545
O1 P2 1.513320 1_554
O2 P0 1.513320 1_455
O3 P0 1.546405 1_555
O4 P0 1.582135 1_555
O4 W0 1.958079 1_655
O5 P0 1.544246 1_555
O6 P1 1.546405 1_555
O7 P1 1.544246 1_555
O8 P3 1.516243 1_555
O9 P2 1.544246 1_555
O10 P3 1.608678 1_555
O10 W0 2.037654 1_655
O11 P4 1.516243 1_555
O12 P1 1.582135 1_555
O12 W0 1.958079 1_565
O13 P2 1.546405 1_555
O14 P3 1.546901 1_555
O15 P2 1.582135 1_555
O15 W0 1.958079 1_556
O16 P4 1.546901 1_555
O17 P4 1.608678 1_555
O17 W0 2.037655 1_556
O18 P5 1.546901 1_555
O19 P5 1.516243 1_555
O20 P5 1.608678 1_555
O20 W0 2.037655 1_565
O21 P5 1.519445 1_655
O22 P3 1.519445 1_556
O23 P4 1.519445 1_565
