# generated using pymatgen
data_Li2Cr4O13
_symmetry_space_group_name_H-M   'P 1'
_cell_length_a   9.60754200
_cell_length_b   8.51344300
_cell_length_c   14.87174384
_cell_angle_alpha   77.30957460
_cell_angle_beta   90.00000000
_cell_angle_gamma   90.00000000
_symmetry_Int_Tables_number   1
_chemical_formula_structural   Li2Cr4O13
_chemical_formula_sum   'Li8 Cr16 O52'
_cell_volume   1186.69311310
_cell_formula_units_Z   4
loop_
 _symmetry_equiv_pos_site_id
 _symmetry_equiv_pos_as_xyz
  1  'x, y, z'
loop_
 _atom_site_type_symbol
 _atom_site_label
 _atom_site_symmetry_multiplicity
 _atom_site_fract_x
 _atom_site_fract_y
 _atom_site_fract_z
 _atom_site_occupancy
  Li  Li0  1  0.00073100  0.68945000  0.98284500  1
  Li  Li1  1  0.00126600  0.80920300  0.50682600  1
  Li  Li2  1  0.49926900  0.68945000  0.48284500  1
  Li  Li3  1  0.49873400  0.80920300  0.00682600  1
  Li  Li4  1  0.50126600  0.19079700  0.99317400  1
  Li  Li5  1  0.50073100  0.31055000  0.51715500  1
  Li  Li6  1  0.99873400  0.19079700  0.49317400  1
  Li  Li7  1  0.99926900  0.31055000  0.01715500  1
  Cr  Cr0  1  0.71089100  0.95887900  0.59147100  1
  Cr  Cr1  1  0.75863600  0.86231100  0.81891500  1
  Cr  Cr2  1  0.27682500  0.74968000  0.67576200  1
  Cr  Cr3  1  0.78910900  0.95887900  0.09147100  1
  Cr  Cr4  1  0.74136400  0.86231100  0.31891500  1
  Cr  Cr5  1  0.28507000  0.52994900  0.90453600  1
  Cr  Cr6  1  0.22317500  0.74968000  0.17576200  1
  Cr  Cr7  1  0.78507000  0.47005100  0.59546400  1
  Cr  Cr8  1  0.21493000  0.52994900  0.40453600  1
  Cr  Cr9  1  0.77682500  0.25032000  0.82423800  1
  Cr  Cr10  1  0.71493000  0.47005100  0.09546400  1
  Cr  Cr11  1  0.25863600  0.13768900  0.68108500  1
  Cr  Cr12  1  0.21089100  0.04112100  0.90852900  1
  Cr  Cr13  1  0.72317500  0.25032000  0.32423800  1
  Cr  Cr14  1  0.24136400  0.13768900  0.18108500  1
  Cr  Cr15  1  0.28910900  0.04112100  0.40852900  1
  O  O0  1  0.33177400  0.94470600  0.68678900  1
  O  O1  1  0.13901000  0.86932000  0.90732200  1
  O  O2  1  0.87019500  0.99148100  0.55092100  1
  O  O3  1  0.62304400  0.84111500  0.88345800  1
  O  O4  1  0.71198000  0.84095800  0.71036800  1
  O  O5  1  0.62004600  0.86749600  0.52668900  1
  O  O6  1  0.87144500  0.72605900  0.86051100  1
  O  O7  1  0.16822600  0.94470600  0.18678900  1
  O  O8  1  0.36099000  0.86932000  0.40732200  1
  O  O9  1  0.62980500  0.99148100  0.05092100  1
  O  O10  1  0.37725200  0.64517600  0.95426000  1
  O  O11  1  0.12313300  0.76572200  0.63234100  1
  O  O12  1  0.87695600  0.84111500  0.38345800  1
  O  O13  1  0.78802000  0.84095800  0.21036800  1
  O  O14  1  0.38198100  0.68864000  0.60695100  1
  O  O15  1  0.27782200  0.61803500  0.78071900  1
  O  O16  1  0.87995400  0.86749600  0.02668900  1
  O  O17  1  0.85859400  0.64508500  0.58045900  1
  O  O18  1  0.12687600  0.50797200  0.94781500  1
  O  O19  1  0.62855500  0.72605900  0.36051100  1
  O  O20  1  0.12274800  0.64517600  0.45426000  1
  O  O21  1  0.37686700  0.76572200  0.13234100  1
  O  O22  1  0.11801900  0.68864000  0.10695100  1
  O  O23  1  0.22217800  0.61803500  0.28071900  1
  O  O24  1  0.62687600  0.49202800  0.55218500  1
  O  O25  1  0.35859400  0.35491500  0.91954100  1
  O  O26  1  0.64140600  0.64508500  0.08045900  1
  O  O27  1  0.37312400  0.50797200  0.44781500  1
  O  O28  1  0.77782200  0.38196500  0.71928100  1
  O  O29  1  0.88198100  0.31136000  0.89304900  1
  O  O30  1  0.62313300  0.23427800  0.86765900  1
  O  O31  1  0.87725200  0.35482400  0.54574000  1
  O  O32  1  0.37144500  0.27394100  0.63948900  1
  O  O33  1  0.87312400  0.49202800  0.05218500  1
  O  O34  1  0.14140600  0.35491500  0.41954100  1
  O  O35  1  0.12004600  0.13250400  0.97331100  1
  O  O36  1  0.72217800  0.38196500  0.21928100  1
  O  O37  1  0.61801900  0.31136000  0.39304900  1
  O  O38  1  0.21198000  0.15904200  0.78963200  1
  O  O39  1  0.12304400  0.15888500  0.61654200  1
  O  O40  1  0.87686700  0.23427800  0.36765900  1
  O  O41  1  0.62274800  0.35482400  0.04574000  1
  O  O42  1  0.37019500  0.00851900  0.94907900  1
  O  O43  1  0.63901000  0.13068000  0.59267800  1
  O  O44  1  0.83177400  0.05529400  0.81321100  1
  O  O45  1  0.12855500  0.27394100  0.13948900  1
  O  O46  1  0.37995400  0.13250400  0.47331100  1
  O  O47  1  0.28802000  0.15904200  0.28963200  1
  O  O48  1  0.37695600  0.15888500  0.11654200  1
  O  O49  1  0.12980500  0.00851900  0.44907900  1
  O  O50  1  0.86099000  0.13068000  0.09267800  1
  O  O51  1  0.66822600  0.05529400  0.31321100  1
loop_
_geom_bond_atom_site_label_1
_geom_bond_atom_site_label_2
_geom_bond_distance
_geom_bond_site_symmetry_2
Li0 O18 2.116807 1_555
Li0 O16 2.122136 1_456
Li0 O1 2.148419 1_555
Li0 O33 2.151702 1_456
Li0 O22 2.161192 1_556
Li0 O6 2.168132 1_455
Li1 O17 2.087579 1_455
Li1 O20 2.098338 1_555
Li1 O49 2.121721 1_565
Li1 O12 2.155761 1_455
Li1 O11 2.165319 1_555
Li1 O2 2.207042 1_455
Li2 O27 2.116807 1_555
Li2 O5 2.122136 1_555
Li2 O8 2.148419 1_555
Li2 O24 2.151702 1_555
Li2 O14 2.161192 1_555
Li2 O19 2.168132 1_555
Li3 O26 2.087579 1_555
Li3 O10 2.098338 1_554
Li3 O42 2.121721 1_564
Li3 O3 2.155761 1_554
Li3 O21 2.165319 1_555
Li3 O9 2.207042 1_555
Li4 O25 2.087579 1_555
Li4 O41 2.098338 1_556
Li4 O9 2.121721 1_546
Li4 O48 2.155761 1_556
Li4 O30 2.165319 1_555
Li4 O42 2.207042 1_555
Li5 O24 2.116807 1_555
Li5 O46 2.122136 1_555
Li5 O43 2.148419 1_555
Li5 O27 2.151702 1_555
Li5 O37 2.161192 1_555
Li5 O32 2.168132 1_555
Li6 O34 2.087579 1_655
Li6 O31 2.098338 1_555
Li6 O2 2.121721 1_545
Li6 O39 2.155761 1_655
Li6 O40 2.165319 1_555
Li6 O49 2.207042 1_655
Li7 O33 2.116807 1_555
Li7 O35 2.122136 1_654
Li7 O50 2.148419 1_555
Li7 O18 2.151702 1_654
Li7 O29 2.161192 1_554
Li7 O45 2.168132 1_655
Cr0 O5 1.620040 1_555
Cr0 O43 1.621122 1_565
Cr0 O2 1.646103 1_555
Cr0 O4 1.831549 1_555
Cr1 O3 1.604633 1_555
Cr1 O6 1.608601 1_555
Cr1 O4 1.723026 1_555
Cr1 O44 1.771722 1_565
Cr2 O14 1.603624 1_555
Cr2 O11 1.605380 1_555
Cr2 O15 1.709956 1_555
Cr2 O0 1.783807 1_555
Cr3 O16 1.620040 1_555
Cr3 O50 1.621122 1_565
Cr3 O9 1.646103 1_555
Cr3 O13 1.831549 1_555
Cr4 O12 1.604633 1_555
Cr4 O19 1.608601 1_555
Cr4 O13 1.723026 1_555
Cr4 O51 1.771722 1_565
Cr5 O10 1.616242 1_555
Cr5 O25 1.619629 1_555
Cr5 O18 1.645090 1_555
Cr5 O15 1.830621 1_555
Cr6 O22 1.603624 1_555
Cr6 O21 1.605380 1_555
Cr6 O23 1.709956 1_555
Cr6 O7 1.783807 1_555
Cr7 O31 1.616242 1_555
Cr7 O17 1.619629 1_555
Cr7 O24 1.645090 1_555
Cr7 O28 1.830621 1_555
Cr8 O20 1.616242 1_555
Cr8 O34 1.619629 1_555
Cr8 O27 1.645090 1_555
Cr8 O23 1.830621 1_555
Cr9 O29 1.603624 1_555
Cr9 O30 1.605380 1_555
Cr9 O28 1.709956 1_555
Cr9 O44 1.783807 1_555
Cr10 O41 1.616242 1_555
Cr10 O26 1.619629 1_555
Cr10 O33 1.645090 1_555
Cr10 O36 1.830621 1_555
Cr11 O39 1.604633 1_555
Cr11 O32 1.608601 1_555
Cr11 O38 1.723026 1_555
Cr11 O0 1.771722 1_545
Cr12 O35 1.620040 1_555
Cr12 O1 1.621122 1_545
Cr12 O42 1.646103 1_555
Cr12 O38 1.831549 1_555
Cr13 O37 1.603624 1_555
Cr13 O40 1.605380 1_555
Cr13 O36 1.709956 1_555
Cr13 O51 1.783807 1_555
Cr14 O48 1.604633 1_555
Cr14 O45 1.608601 1_555
Cr14 O47 1.723026 1_555
Cr14 O7 1.771722 1_545
Cr15 O46 1.620040 1_555
Cr15 O8 1.621122 1_545
Cr15 O49 1.646103 1_555
Cr15 O47 1.831549 1_555
