# generated using pymatgen
data_Li4Ti3Mn3Cr2O16
_symmetry_space_group_name_H-M   'P 1'
_cell_length_a   5.89473778
_cell_length_b   5.89473778
_cell_length_c   9.58415781
_cell_angle_alpha   89.67405175
_cell_angle_beta   89.67405175
_cell_angle_gamma   60.96107266
_symmetry_Int_Tables_number   1
_chemical_formula_structural   Li4Ti3Mn3Cr2O16
_chemical_formula_sum   'Li4 Ti3 Mn3 Cr2 O16'
_cell_volume   291.15821361
_cell_formula_units_Z   1
loop_
 _symmetry_equiv_pos_site_id
 _symmetry_equiv_pos_as_xyz
  1  'x, y, z'
loop_
 _atom_site_type_symbol
 _atom_site_label
 _atom_site_symmetry_multiplicity
 _atom_site_fract_x
 _atom_site_fract_y
 _atom_site_fract_z
 _atom_site_occupancy
  Li  Li0  1  0.67135800  0.67135800  0.10972600  1
  Li  Li1  1  0.99901500  0.99901500  0.00477900  1
  Li  Li2  1  0.99172100  0.99172100  0.50319000  1
  Li  Li3  1  0.33060200  0.33060200  0.60649600  1
  Ti  Ti0  1  0.33777900  0.83176400  0.78553900  1
  Ti  Ti1  1  0.83176400  0.33777900  0.78553900  1
  Ti  Ti2  1  0.16708300  0.16708300  0.28828100  1
  Mn  Mn0  1  0.83093000  0.83093000  0.78816000  1
  Mn  Mn1  1  0.17189000  0.65854200  0.28639000  1
  Mn  Mn2  1  0.65854200  0.17189000  0.28639000  1
  Cr  Cr0  1  0.66458900  0.66458900  0.51360600  1
  Cr  Cr1  1  0.33946500  0.33946500  0.01748200  1
  O  O0  1  0.32172700  0.83843100  0.39642600  1
  O  O1  1  0.51708200  0.51708200  0.66476500  1
  O  O2  1  0.66948400  0.66948400  0.89370400  1
  O  O3  1  0.99638500  0.99638500  0.69080400  1
  O  O4  1  0.99759900  0.99759900  0.19175100  1
  O  O5  1  0.83843100  0.32172700  0.39642600  1
  O  O6  1  0.50804800  0.95625300  0.65480100  1
  O  O7  1  0.95625300  0.50804800  0.65480100  1
  O  O8  1  0.16625700  0.16625700  0.89318100  1
  O  O9  1  0.83126600  0.83126600  0.39819400  1
  O  O10  1  0.04486100  0.47843500  0.16326500  1
  O  O11  1  0.47843500  0.04486100  0.16326500  1
  O  O12  1  0.33187100  0.33187100  0.39438300  1
  O  O13  1  0.18165500  0.67258800  0.90148100  1
  O  O14  1  0.48463100  0.48463100  0.15816500  1
  O  O15  1  0.67258800  0.18165500  0.90148100  1
loop_
_geom_bond_atom_site_label_1
_geom_bond_atom_site_label_2
_geom_bond_distance
_geom_bond_site_symmetry_2
Li0 O14 1.950178 1_555
Li0 O10 1.994881 1_655
Li0 O11 1.994881 1_565
Li0 O2 2.070602 1_554
Li1 O4 1.791932 1_555
Li1 O13 1.959643 1_654
Li1 O15 1.959643 1_564
Li1 O8 2.001826 1_664
Li2 O3 1.799059 1_555
Li2 O9 1.921463 1_555
Li2 O5 1.982201 1_565
Li2 O0 1.982201 1_655
Li3 O1 1.978794 1_555
Li3 O6 1.982675 1_545
Li3 O7 1.982675 1_455
Li3 O12 2.032880 1_555
Mn0 O3 1.917254 1_555
Mn0 O2 1.921453 1_555
Mn0 O6 2.110418 1_555
Mn0 O7 2.110418 1_555
Mn0 O13 2.113221 1_655
Mn0 O15 2.113221 1_565
Mn1 O4 1.967074 1_455
Mn1 O10 1.968879 1_555
Mn1 O12 1.973365 1_555
Mn1 O0 1.987294 1_555
Mn1 O14 2.028208 1_555
Mn1 O9 2.054201 1_455
Mn2 O4 1.967074 1_545
Mn2 O11 1.968879 1_555
Mn2 O12 1.973365 1_555
Mn2 O5 1.987294 1_555
Mn2 O14 2.028208 1_555
Mn2 O9 2.054201 1_545
Cr0 O9 2.016588 1_555
Cr0 O7 2.027500 1_555
Cr0 O6 2.027500 1_555
Cr0 O1 2.077560 1_555
Cr0 O0 2.097203 1_555
Cr0 O5 2.097203 1_555
Cr1 O14 2.004898 1_555
Cr1 O15 2.042293 1_554
Cr1 O13 2.042293 1_554
Cr1 O11 2.059955 1_555
Cr1 O10 2.059955 1_555
Cr1 O8 2.131645 1_554
O0 Ti2 1.982903 1_565
O1 Ti0 2.001257 1_555
O1 Ti1 2.001257 1_555
O2 Ti0 2.002237 1_555
O2 Ti1 2.002237 1_555
O3 Ti1 1.982634 1_565
O3 Ti0 1.982634 1_655
O4 Ti2 1.960153 1_665
O5 Ti2 1.982903 1_655
O6 Ti0 1.950952 1_555
O7 Ti1 1.950952 1_555
O8 Ti0 2.012529 1_545
O8 Ti1 2.012529 1_455
O10 Ti2 2.006056 1_555
O11 Ti2 2.006056 1_555
O12 Ti2 1.964628 1_555
O13 Ti0 1.943445 1_555
O15 Ti1 1.943445 1_555
