# generated using pymatgen
data_Li4Ti3Nb3Cr2O16
_symmetry_space_group_name_H-M   'P 1'
_cell_length_a   6.00472656
_cell_length_b   6.00472656
_cell_length_c   9.93942991
_cell_angle_alpha   89.48554606
_cell_angle_beta   89.48554606
_cell_angle_gamma   59.56774658
_symmetry_Int_Tables_number   1
_chemical_formula_structural   Li4Ti3Nb3Cr2O16
_chemical_formula_sum   'Li4 Ti3 Nb3 Cr2 O16'
_cell_volume   308.99194963
_cell_formula_units_Z   1
loop_
 _symmetry_equiv_pos_site_id
 _symmetry_equiv_pos_as_xyz
  1  'x, y, z'
loop_
 _atom_site_type_symbol
 _atom_site_label
 _atom_site_symmetry_multiplicity
 _atom_site_fract_x
 _atom_site_fract_y
 _atom_site_fract_z
 _atom_site_occupancy
  Li  Li0  1  0.66586000  0.66586000  0.89968700  1
  Li  Li1  1  0.01148000  0.01148000  0.99338100  1
  Li  Li2  1  0.00624900  0.00624900  0.49698500  1
  Li  Li3  1  0.33104300  0.33104300  0.39110100  1
  Ti  Ti0  1  0.83124000  0.33813800  0.21666400  1
  Ti  Ti1  1  0.33813800  0.83124000  0.21666400  1
  Ti  Ti2  1  0.16498100  0.16498100  0.71830300  1
  Nb  Nb0  1  0.83361200  0.83361200  0.21138900  1
  Nb  Nb1  1  0.64058700  0.18742000  0.70982700  1
  Nb  Nb2  1  0.18742000  0.64058700  0.70982700  1
  Cr  Cr0  1  0.66936800  0.66936800  0.48370200  1
  Cr  Cr1  1  0.33226000  0.33226000  0.98936500  1
  O  O0  1  0.83254600  0.33059200  0.60228700  1
  O  O1  1  0.52135000  0.52135000  0.33486100  1
  O  O2  1  0.66479700  0.66479700  0.10452200  1
  O  O3  1  0.00576800  0.00576800  0.31635000  1
  O  O4  1  0.00071100  0.00071100  0.81227300  1
  O  O5  1  0.33059200  0.83254600  0.60228700  1
  O  O6  1  0.96086300  0.51798000  0.33876700  1
  O  O7  1  0.51798000  0.96086300  0.33876700  1
  O  O8  1  0.16313300  0.16313300  0.10728000  1
  O  O9  1  0.83676500  0.83676500  0.59580700  1
  O  O10  1  0.47752100  0.03425400  0.83421700  1
  O  O11  1  0.03425400  0.47752100  0.83421700  1
  O  O12  1  0.31254600  0.31254600  0.58816700  1
  O  O13  1  0.67839500  0.16569400  0.10377000  1
  O  O14  1  0.48328600  0.48328600  0.85369200  1
  O  O15  1  0.16569400  0.67839500  0.10377000  1
loop_
_geom_bond_atom_site_label_1
_geom_bond_atom_site_label_2
_geom_bond_distance
_geom_bond_site_symmetry_2
Li0 O14 1.961718 1_555
Li0 O10 2.012182 1_565
Li0 O11 2.012182 1_655
Li0 O2 2.035859 1_556
Li1 O4 1.804765 1_555
Li1 O8 1.953775 1_556
Li1 O13 2.040656 1_456
Li1 O15 2.040656 1_546
Li2 O3 1.795468 1_555
Li2 O5 1.983835 1_545
Li2 O0 1.983835 1_455
Li2 O9 2.012351 1_445
Li3 O12 1.966203 1_555
Li3 O6 1.988511 1_455
Li3 O7 1.988511 1_545
Li3 O1 2.055269 1_555
Nb0 O13 2.021386 1_565
Nb0 O15 2.021386 1_655
Nb0 O2 2.064708 1_555
Nb0 O6 2.070285 1_555
Nb0 O7 2.070285 1_555
Nb0 O3 2.084936 1_665
Nb1 O0 2.043402 1_555
Nb1 O10 2.050218 1_555
Nb1 O14 2.101091 1_555
Nb1 O12 2.105712 1_555
Nb1 O4 2.129083 1_655
Nb1 O9 2.147485 1_545
Nb2 O5 2.043402 1_555
Nb2 O11 2.050218 1_555
Nb2 O14 2.101091 1_555
Nb2 O12 2.105712 1_555
Nb2 O4 2.129083 1_565
Nb2 O9 2.147485 1_455
Cr0 O9 2.079926 1_555
Cr0 O7 2.081267 1_555
Cr0 O6 2.081267 1_555
Cr0 O0 2.108552 1_555
Cr0 O5 2.108552 1_555
Cr0 O1 2.148504 1_555
Cr1 O14 2.062165 1_555
Cr1 O8 2.106750 1_556
Cr1 O15 2.128247 1_556
Cr1 O13 2.128247 1_556
Cr1 O10 2.187500 1_555
Cr1 O11 2.187500 1_555
O0 Ti2 2.076811 1_655
O1 Ti0 1.990778 1_555
O1 Ti1 1.990778 1_555
O2 Ti0 2.020775 1_555
O2 Ti1 2.020775 1_555
O3 Ti0 1.981789 1_455
O3 Ti1 1.981789 1_545
O4 Ti2 1.941881 1_555
O5 Ti2 2.076811 1_565
O6 Ti0 2.033944 1_555
O7 Ti1 2.033944 1_555
O8 Ti1 2.029313 1_545
O8 Ti0 2.029313 1_455
O10 Ti2 1.998958 1_555
O11 Ti2 1.998958 1_555
O12 Ti2 1.999403 1_555
O13 Ti0 2.043472 1_555
O15 Ti1 2.043472 1_555
