# generated using pymatgen
data_Hf2N2O
_symmetry_space_group_name_H-M   'P 1'
_cell_length_a   14.39928104
_cell_length_b   14.39928104
_cell_length_c   14.39928104
_cell_angle_alpha   154.22856705
_cell_angle_beta   154.22856705
_cell_angle_gamma   36.76747182
_symmetry_Int_Tables_number   1
_chemical_formula_structural   Hf2N2O
_chemical_formula_sum   'Hf16 N16 O8'
_cell_volume   563.59908470
_cell_formula_units_Z   8
loop_
 _symmetry_equiv_pos_site_id
 _symmetry_equiv_pos_as_xyz
  1  'x, y, z'
loop_
 _atom_site_type_symbol
 _atom_site_label
 _atom_site_symmetry_multiplicity
 _atom_site_fract_x
 _atom_site_fract_y
 _atom_site_fract_z
 _atom_site_occupancy
  Hf  Hf0  1  0.87500000  0.12500000  0.75000000  1
  Hf  Hf1  1  0.37500000  0.12500000  0.25000000  1
  Hf  Hf2  1  0.87500000  0.62500000  0.75000000  1
  Hf  Hf3  1  0.20756100  0.45852900  0.25096800  1
  Hf  Hf4  1  0.54147100  0.79243900  0.74903200  1
  Hf  Hf5  1  0.41832200  0.91832200  0.50000000  1
  Hf  Hf6  1  0.04340800  0.79243900  0.25096800  1
  Hf  Hf7  1  0.66832200  0.66832200  0.00000000  1
  Hf  Hf8  1  0.20756100  0.95659200  0.74903200  1
  Hf  Hf9  1  0.87500000  0.12500000  0.25000000  1
  Hf  Hf10  1  0.54243900  0.29340800  0.75096800  1
  Hf  Hf11  1  0.08167800  0.58167800  0.50000000  1
  Hf  Hf12  1  0.33167800  0.33167800  0.00000000  1
  Hf  Hf13  1  0.20852900  0.45756100  0.75096800  1
  Hf  Hf14  1  0.70659200  0.45756100  0.24903200  1
  Hf  Hf15  1  0.54243900  0.79147100  0.24903200  1
  N  N0  1  0.12603600  0.36254200  0.23650600  1
  N  N1  1  0.28778100  0.55360300  0.26582200  1
  N  N2  1  0.97804100  0.71221900  0.26582200  1
  N  N3  1  0.44639700  0.71221900  0.73417800  1
  N  N4  1  0.11046900  0.87396400  0.23650600  1
  N  N5  1  0.63745800  0.87396400  0.76349400  1
  N  N6  1  0.28778100  0.02195900  0.73417800  1
  N  N7  1  0.62396400  0.36046900  0.73650600  1
  N  N8  1  0.12603600  0.88953100  0.76349400  1
  N  N9  1  0.46221900  0.22804100  0.76582200  1
  N  N10  1  0.11254200  0.37603600  0.73650600  1
  N  N11  1  0.30360300  0.53778100  0.76582200  1
  N  N12  1  0.77195900  0.53778100  0.23417800  1
  N  N13  1  0.63953100  0.37603600  0.26349400  1
  N  N14  1  0.46221900  0.69639700  0.23417800  1
  N  N15  1  0.62396400  0.88745800  0.26349400  1
  O  O0  1  0.79948000  0.59172800  0.79224800  1
  O  O1  1  0.34172800  0.04948000  0.29224800  1
  O  O2  1  0.75723300  0.04948000  0.70775200  1
  O  O3  1  0.79948000  0.00723300  0.20775200  1
  O  O4  1  0.95052000  0.24276700  0.29224800  1
  O  O5  1  0.99276700  0.20052000  0.79224800  1
  O  O6  1  0.40827200  0.20052000  0.20775200  1
  O  O7  1  0.95052000  0.65827200  0.70775200  1
loop_
_geom_bond_atom_site_label_1
_geom_bond_atom_site_label_2
_geom_bond_distance
_geom_bond_site_symmetry_2
Hf0 O5 2.081619 1_555
Hf0 O2 2.081619 1_555
Hf0 N8 2.210367 1_645
Hf0 N7 2.210367 1_555
Hf0 N0 2.210372 1_656
Hf0 N15 2.210372 1_545
Hf1 O6 2.081633 1_555
Hf1 O1 2.081633 1_555
Hf1 N15 2.210372 1_545
Hf1 N0 2.210372 1_555
Hf1 N7 2.210372 1_555
Hf1 N8 2.210372 1_544
Hf2 O0 2.081633 1_555
Hf2 O7 2.081633 1_555
Hf2 N10 2.210372 1_655
Hf2 N5 2.210372 1_555
Hf2 N4 2.210372 1_656
Hf2 N13 2.210372 1_555
Hf3 O6 2.101211 1_555
Hf3 O5 2.101212 1_454
Hf3 N1 2.194394 1_555
Hf3 N2 2.199097 1_455
Hf3 N3 2.199097 1_555
Hf3 N0 2.229919 1_555
Hf4 O0 2.101211 1_555
Hf4 O3 2.101212 1_566
Hf4 N3 2.194394 1_555
Hf4 N1 2.199097 1_555
Hf4 N6 2.199097 1_565
Hf4 N5 2.229919 1_555
Hf5 N5 2.081637 1_555
Hf5 N4 2.081647 1_555
Hf5 N9 2.086540 1_565
Hf5 N14 2.086540 1_555
Hf6 O0 2.101210 1_454
Hf6 O3 2.101220 1_465
Hf6 N2 2.194408 1_455
Hf6 N1 2.199093 1_555
Hf6 N6 2.199098 1_565
Hf6 N4 2.229892 1_555
Hf7 N15 2.081637 1_555
Hf7 N7 2.081647 1_554
Hf7 N2 2.086540 1_555
Hf7 N3 2.086540 1_554
Hf8 O6 2.101210 1_566
Hf8 O5 2.101220 1_465
Hf8 N6 2.194408 1_565
Hf8 N3 2.199093 1_555
Hf8 N2 2.199098 1_455
Hf8 N8 2.229892 1_555
Hf9 O4 2.081619 1_555
Hf9 O3 2.081619 1_555
Hf9 N4 2.210367 1_645
Hf9 N13 2.210367 1_555
Hf9 N5 2.210372 1_544
Hf9 N10 2.210372 1_655
Hf10 O1 2.101210 1_555
Hf10 O2 2.101220 1_555
Hf10 N9 2.194408 1_555
Hf10 N11 2.199093 1_555
Hf10 N12 2.199098 1_556
Hf10 N7 2.229892 1_555
Hf11 N0 2.081637 1_555
Hf11 N8 2.081647 1_555
Hf11 N11 2.086540 1_555
Hf11 N12 2.086540 1_455
Hf12 N10 2.081637 1_554
Hf12 N13 2.081647 1_555
Hf12 N6 2.086540 1_554
Hf12 N1 2.086540 1_555
Hf13 O7 2.101211 1_455
Hf13 O4 2.101212 1_455
Hf13 N11 2.194394 1_555
Hf13 N14 2.199097 1_556
Hf13 N9 2.199097 1_555
Hf13 N10 2.229919 1_555
Hf14 O7 2.101210 1_555
Hf14 O4 2.101220 1_555
Hf14 N12 2.194408 1_555
Hf14 N14 2.199093 1_555
Hf14 N9 2.199098 1_554
Hf14 N13 2.229892 1_555
Hf15 O1 2.101211 1_565
Hf15 O2 2.101212 1_565
Hf15 N14 2.194394 1_555
Hf15 N12 2.199097 1_555
Hf15 N11 2.199097 1_554
Hf15 N15 2.229919 1_555
