# generated using pymatgen
data_Mn3Fe(PO4)4
_symmetry_space_group_name_H-M   'P 1'
_cell_length_a   6.01260700
_cell_length_b   4.92070600
_cell_length_c   9.85369837
_cell_angle_alpha   89.72637329
_cell_angle_beta   90.00000000
_cell_angle_gamma   90.00000000
_symmetry_Int_Tables_number   1
_chemical_formula_structural   Mn3Fe(PO4)4
_chemical_formula_sum   'Mn3 Fe1 P4 O16'
_cell_volume   291.53086907
_cell_formula_units_Z   1
loop_
 _symmetry_equiv_pos_site_id
 _symmetry_equiv_pos_as_xyz
  1  'x, y, z'
loop_
 _atom_site_type_symbol
 _atom_site_label
 _atom_site_symmetry_multiplicity
 _atom_site_fract_x
 _atom_site_fract_y
 _atom_site_fract_z
 _atom_site_occupancy
  Mn  Mn0  1  0.50000000  0.92902100  0.28532200  1
  Mn  Mn1  1  0.50000000  0.56680900  0.78229000  1
  Mn  Mn2  1  0.00000000  0.43110500  0.21486500  1
  Fe  Fe0  1  0.00000000  0.04347500  0.72298200  1
  P  P0  1  0.00000000  0.91266400  0.39965100  1
  P  P1  1  0.00000000  0.58700800  0.90320700  1
  P  P2  1  0.50000000  0.41701500  0.09937400  1
  P  P3  1  0.50000000  0.08629200  0.59977600  1
  O  O0  1  0.00000000  0.85264200  0.55220400  1
  O  O1  1  0.20058800  0.77089200  0.32799600  1
  O  O2  1  0.79941200  0.77089200  0.32799600  1
  O  O3  1  0.50000000  0.77373900  0.61910700  1
  O  O4  1  0.50000000  0.72696000  0.11982400  1
  O  O5  1  0.19804000  0.73687000  0.82917700  1
  O  O6  1  0.80196000  0.73687000  0.82917700  1
  O  O7  1  0.00000000  0.65397100  0.05504000  1
  O  O8  1  0.50000000  0.35907700  0.94561000  1
  O  O9  1  0.70054700  0.27261000  0.16959800  1
  O  O10  1  0.29945300  0.27261000  0.16959800  1
  O  O11  1  0.00000000  0.28152300  0.88045200  1
  O  O12  1  0.00000000  0.22341100  0.37861800  1
  O  O13  1  0.70280300  0.22470400  0.67096700  1
  O  O14  1  0.29719700  0.22470400  0.67096700  1
  O  O15  1  0.50000000  0.14513400  0.44619900  1
loop_
_geom_bond_atom_site_label_1
_geom_bond_atom_site_label_2
_geom_bond_distance
_geom_bond_site_symmetry_2
Mn0 O15 1.913099 1_565
Mn0 O4 1.914024 1_555
Mn0 O2 2.005001 1_555
Mn0 O1 2.005001 1_555
Mn0 O10 2.365235 1_565
Mn0 O9 2.365235 1_565
Mn1 O3 1.899132 1_555
Mn1 O8 1.902373 1_555
Mn1 O6 2.052729 1_555
Mn1 O5 2.052729 1_555
Mn1 O13 2.354066 1_555
Mn1 O14 2.354066 1_555
Mn2 O12 1.905873 1_555
Mn2 O7 1.914777 1_555
Mn2 O9 2.013036 1_455
Mn2 O10 2.013036 1_555
Mn2 O2 2.347471 1_455
Mn2 O1 2.347471 1_555
Fe0 O0 1.930978 1_545
Fe0 O11 1.948617 1_555
Fe0 O14 2.060754 1_555
Fe0 O13 2.060754 1_455
Fe0 O6 2.184942 1_445
Fe0 O5 2.184942 1_545
O0 P0 1.530567 1_555
O1 P0 1.563483 1_555
O2 P0 1.563483 1_655
O3 P3 1.548829 1_565
O4 P2 1.539356 1_555
O5 P1 1.577542 1_555
O6 P1 1.577542 1_655
O7 P1 1.533508 1_554
O8 P2 1.543071 1_556
O9 P2 1.559813 1_555
O10 P2 1.559813 1_555
O11 P1 1.520891 1_555
O12 P0 1.542095 1_545
O13 P3 1.564420 1_555
O14 P3 1.564420 1_555
O15 P3 1.539393 1_555
