# generated using pymatgen
data_Li2CrCSO7
_symmetry_space_group_name_H-M   'P 1'
_cell_length_a   6.44567800
_cell_length_b   10.26051418
_cell_length_c   8.98859677
_cell_angle_alpha   87.56221380
_cell_angle_beta   90.00003626
_cell_angle_gamma   89.99983690
_symmetry_Int_Tables_number   1
_chemical_formula_structural   Li2CrCSO7
_chemical_formula_sum   'Li8 Cr4 C4 S4 O28'
_cell_volume   593.93157357
_cell_formula_units_Z   4
loop_
 _symmetry_equiv_pos_site_id
 _symmetry_equiv_pos_as_xyz
  1  'x, y, z'
loop_
 _atom_site_type_symbol
 _atom_site_label
 _atom_site_symmetry_multiplicity
 _atom_site_fract_x
 _atom_site_fract_y
 _atom_site_fract_z
 _atom_site_occupancy
  Li  Li0  1  0.97463500  0.10846100  0.18072600  1
  Li  Li1  1  0.97459500  0.60842100  0.18067800  1
  Li  Li2  1  0.52527800  0.10847400  0.18075400  1
  Li  Li3  1  0.52534200  0.60839300  0.18071000  1
  Li  Li4  1  0.47462300  0.39156600  0.81928900  1
  Li  Li5  1  0.47462000  0.89158400  0.81932000  1
  Li  Li6  1  0.02530400  0.39157800  0.81925400  1
  Li  Li7  1  0.02530400  0.89159300  0.81927500  1
  Cr  Cr0  1  0.75000600  0.88129300  0.36048400  1
  Cr  Cr1  1  0.25004500  0.61887500  0.63944900  1
  Cr  Cr2  1  0.75011600  0.38119000  0.36072200  1
  Cr  Cr3  1  0.25005300  0.11878400  0.63954700  1
  C  C0  1  0.74999800  0.36129100  0.06212100  1
  C  C1  1  0.74998100  0.86134700  0.06205800  1
  C  C2  1  0.24999200  0.13869800  0.93795300  1
  C  C3  1  0.24999000  0.63864800  0.93787100  1
  S  S0  1  0.25007900  0.35336400  0.42392400  1
  S  S1  1  0.24995700  0.85345600  0.42385700  1
  S  S2  1  0.74998500  0.14657000  0.57617700  1
  S  S3  1  0.75004300  0.64657800  0.57602400  1
  O  O0  1  0.24997500  0.12556300  0.08030800  1
  O  O1  1  0.24998300  0.62545900  0.08022800  1
  O  O2  1  0.74997900  0.37444800  0.91975600  1
  O  O3  1  0.74998500  0.87450400  0.91969000  1
  O  O4  1  0.75001700  0.46625800  0.14406900  1
  O  O5  1  0.74997200  0.96632600  0.14398900  1
  O  O6  1  0.25001200  0.03370200  0.85604000  1
  O  O7  1  0.25000200  0.53370600  0.85588500  1
  O  O8  1  0.74999700  0.24903500  0.13388000  1
  O  O9  1  0.74998400  0.74910600  0.13383000  1
  O  O10  1  0.24999000  0.25092800  0.86615000  1
  O  O11  1  0.24998500  0.75091100  0.86612600  1
  O  O12  1  0.74996800  0.10712300  0.41899700  1
  O  O13  1  0.74999500  0.60714200  0.41883200  1
  O  O14  1  0.25000700  0.39287200  0.58108800  1
  O  O15  1  0.24998000  0.89286100  0.58106000  1
  O  O16  1  0.25003300  0.20677500  0.42445700  1
  O  O17  1  0.25000500  0.70687000  0.42431200  1
  O  O18  1  0.74997900  0.29316600  0.57565500  1
  O  O19  1  0.75000000  0.79315600  0.57554300  1
  O  O20  1  0.06662100  0.40563400  0.34111800  1
  O  O21  1  0.06647500  0.90576600  0.34111600  1
  O  O22  1  0.43357200  0.40562200  0.34114700  1
  O  O23  1  0.43341300  0.90578600  0.34112100  1
  O  O24  1  0.56652300  0.09428700  0.65896500  1
  O  O25  1  0.56657400  0.59425900  0.65877700  1
  O  O26  1  0.93346900  0.09428800  0.65892800  1
  O  O27  1  0.93356100  0.59428600  0.65874000  1
loop_
_geom_bond_atom_site_label_1
_geom_bond_atom_site_label_2
_geom_bond_distance
_geom_bond_site_symmetry_2
Li0 O0 1.995442 1_655
Li0 O8 2.074266 1_555
Li0 O5 2.091386 1_545
Li0 O21 2.549349 1_645
Li0 O12 2.584908 1_555
Li1 O1 1.995801 1_655
Li1 O9 2.074930 1_555
Li1 O4 2.090994 1_555
Li1 O20 2.550613 1_655
Li1 O13 2.583813 1_555
Li2 O0 1.995331 1_555
Li2 O8 2.074588 1_555
Li2 O5 2.091660 1_545
Li2 O23 2.549223 1_545
Li2 O12 2.584777 1_555
Li3 O1 1.995781 1_555
Li3 O9 2.075322 1_555
Li3 O4 2.091273 1_555
Li3 O22 2.550089 1_555
Li3 O13 2.583773 1_555
Li4 O2 1.995740 1_555
Li4 O10 2.074724 1_555
Li4 O7 2.090992 1_555
Li4 O25 2.550084 1_555
Li4 O14 2.584211 1_555
Li5 O3 1.995374 1_555
Li5 O11 2.074894 1_555
Li5 O6 2.090984 1_565
Li5 O24 2.549344 1_565
Li5 O15 2.584746 1_555
Li6 O2 1.995714 1_455
Li6 O10 2.075095 1_555
Li6 O7 2.091313 1_555
Li6 O27 2.549901 1_455
Li6 O14 2.584270 1_555
Li7 O3 1.995300 1_455
Li7 O11 2.075228 1_555
Li7 O6 2.091446 1_565
Li7 O26 2.549136 1_465
Li7 O15 2.584545 1_555
Cr0 O21 2.061714 1_655
Cr0 O23 2.062524 1_555
Cr0 O5 2.098489 1_555
Cr0 O19 2.099022 1_555
Cr0 O12 2.397790 1_565
Cr0 O9 2.495041 1_555
Cr1 O27 2.061896 1_455
Cr1 O25 2.062240 1_555
Cr1 O7 2.098532 1_555
Cr1 O17 2.099085 1_555
Cr1 O14 2.399167 1_555
Cr1 O11 2.494319 1_555
Cr2 O20 2.062077 1_655
Cr2 O22 2.062289 1_555
Cr2 O18 2.097546 1_555
Cr2 O4 2.099916 1_555
Cr2 O13 2.398071 1_555
Cr2 O8 2.496270 1_555
Cr3 O24 2.061783 1_555
Cr3 O26 2.062484 1_455
Cr3 O6 2.098661 1_555
Cr3 O16 2.098688 1_555
Cr3 O15 2.398660 1_545
Cr3 O10 2.494401 1_555
C0 O2 1.281040 1_554
C0 O8 1.295953 1_555
C0 O4 1.330423 1_555
C1 O3 1.281066 1_554
C1 O9 1.295873 1_555
C1 O5 1.330436 1_555
C2 O0 1.280936 1_556
C2 O10 1.295904 1_555
C2 O6 1.330486 1_555
C3 O1 1.280989 1_556
C3 O11 1.295957 1_555
C3 O7 1.330410 1_555
O12 S2 1.486118 1_555
O13 S3 1.486187 1_555
O14 S0 1.486176 1_555
O15 S1 1.486182 1_555
O16 S0 1.503882 1_555
O17 S1 1.503879 1_555
O18 S2 1.503958 1_555
O19 S3 1.503788 1_555
O20 S0 1.485262 1_555
O21 S1 1.485241 1_555
O22 S0 1.485276 1_555
O23 S1 1.485159 1_555
O24 S2 1.485252 1_555
O25 S3 1.485261 1_555
O26 S2 1.485197 1_555
O27 S3 1.485254 1_555
