# generated using pymatgen
data_LiMnP2HO7
_symmetry_space_group_name_H-M   'P 1'
_cell_length_a   6.45219900
_cell_length_b   8.73044371
_cell_length_c   9.94216452
_cell_angle_alpha   91.52301622
_cell_angle_beta   107.86096054
_cell_angle_gamma   102.10452341
_symmetry_Int_Tables_number   1
_chemical_formula_structural   LiMnP2HO7
_chemical_formula_sum   'Li4 Mn4 P8 H4 O28'
_cell_volume   518.71198028
_cell_formula_units_Z   4
loop_
 _symmetry_equiv_pos_site_id
 _symmetry_equiv_pos_as_xyz
  1  'x, y, z'
loop_
 _atom_site_type_symbol
 _atom_site_label
 _atom_site_symmetry_multiplicity
 _atom_site_fract_x
 _atom_site_fract_y
 _atom_site_fract_z
 _atom_site_occupancy
  Li  Li0  1  0.27526700  0.52024200  0.87451100  1
  Li  Li1  1  0.72473300  0.47975800  0.12548900  1
  Li  Li2  1  0.31417800  0.00660300  0.38410400  1
  Li  Li3  1  0.68582200  0.99339700  0.61589600  1
  Mn  Mn0  1  0.20729300  0.92289100  0.80915900  1
  Mn  Mn1  1  0.35854800  0.46851000  0.28472100  1
  Mn  Mn2  1  0.79270700  0.07710900  0.19084100  1
  Mn  Mn3  1  0.64145200  0.53149000  0.71527900  1
  P  P0  1  0.19520600  0.74700200  0.13447800  1
  P  P1  1  0.80479400  0.25299800  0.86552200  1
  P  P2  1  0.24041100  0.21151000  0.06177400  1
  P  P3  1  0.25366300  0.72349000  0.56537100  1
  P  P4  1  0.75958900  0.78849000  0.93822600  1
  P  P5  1  0.74633700  0.27651000  0.43462900  1
  P  P6  1  0.18299100  0.24311800  0.62742000  1
  P  P7  1  0.81700900  0.75688200  0.37258000  1
  H  H0  1  0.56622900  0.20619600  0.98832100  1
  H  H1  1  0.59122800  0.71994700  0.50353600  1
  H  H2  1  0.43377100  0.79380400  0.01167900  1
  H  H3  1  0.40877200  0.28005300  0.49646400  1
  O  O0  1  0.27542200  0.72685500  0.99799100  1
  O  O1  1  0.63501000  0.61610100  0.92949400  1
  O  O2  1  0.89432300  0.41655900  0.82676500  1
  O  O3  1  0.63418000  0.13651100  0.75317200  1
  O  O4  1  0.10567700  0.58344100  0.17323500  1
  O  O5  1  0.64344100  0.63187600  0.26230500  1
  O  O6  1  0.36499000  0.38389900  0.07050600  1
  O  O7  1  0.72457800  0.27314500  0.00200900  1
  O  O8  1  0.01372800  0.17449700  0.92881600  1
  O  O9  1  0.82733400  0.81454100  0.80346700  1
  O  O10  1  0.36559400  0.09609600  0.01660200  1
  O  O11  1  0.01617700  0.66836800  0.43947700  1
  O  O12  1  0.78755900  0.29651800  0.29094300  1
  O  O13  1  0.39299800  0.60786600  0.53363700  1
  O  O14  1  0.63440600  0.90390400  0.98339800  1
  O  O15  1  0.17266600  0.18545900  0.19653300  1
  O  O16  1  0.98627200  0.82550300  0.07118400  1
  O  O17  1  0.60700200  0.39213400  0.46636300  1
  O  O18  1  0.21244100  0.70348200  0.70905700  1
  O  O19  1  0.98382300  0.33163200  0.56052300  1
  O  O20  1  0.26459600  0.20552100  0.49864100  1
  O  O21  1  0.64429500  0.10781100  0.44670900  1
  O  O22  1  0.36582000  0.86348900  0.24682800  1
  O  O23  1  0.90960300  0.90908600  0.32040600  1
  O  O24  1  0.35655900  0.36812400  0.73769500  1
  O  O25  1  0.09039700  0.09091400  0.67959400  1
  O  O26  1  0.35570500  0.89218900  0.55329100  1
  O  O27  1  0.73540400  0.79447900  0.50135900  1
loop_
_geom_bond_atom_site_label_1
_geom_bond_atom_site_label_2
_geom_bond_distance
_geom_bond_site_symmetry_2
Li0 O24 2.126708 1_555
Li0 O0 2.154460 1_555
Li0 O1 2.183928 1_555
Li0 O6 2.295529 1_556
Li0 O2 2.326899 1_455
Li0 O18 2.330735 1_555
Li1 O5 2.126708 1_555
Li1 O7 2.154460 1_555
Li1 O6 2.183928 1_555
Li1 O1 2.295529 1_554
Li1 O4 2.326899 1_655
Li1 O12 2.330735 1_555
Li2 O26 1.955523 1_545
Li2 O22 1.974284 1_545
Li2 O21 2.018212 1_555
Li2 O20 2.183200 1_555
Li2 O23 2.442392 1_445
Li2 O15 2.541240 1_555
Li3 O21 1.955523 1_565
Li3 O3 1.974284 1_565
Li3 O26 2.018212 1_555
Li3 O27 2.183200 1_555
Li3 O25 2.442392 1_665
Li3 O9 2.541240 1_555
Mn0 O25 2.085316 1_565
Mn0 O18 2.146275 1_555
Mn0 O10 2.340461 1_566
Mn0 O9 2.418197 1_455
Mn1 O4 2.129272 1_555
Mn1 O5 2.152085 1_555
Mn1 O17 2.238806 1_555
Mn1 O6 2.250961 1_555
Mn1 O15 2.512093 1_555
Mn1 O13 2.653898 1_555
Mn2 O23 2.085316 1_545
Mn2 O12 2.146275 1_555
Mn2 O14 2.340461 1_544
Mn2 O15 2.418197 1_655
Mn3 O2 2.129272 1_555
Mn3 O24 2.152085 1_555
Mn3 O13 2.238806 1_555
Mn3 O1 2.250961 1_555
Mn3 O9 2.512093 1_555
Mn3 O17 2.653898 1_555
H0 O7 1.031530 1_556
H0 O10 1.547454 1_556
H1 O27 1.023954 1_555
H1 O13 1.551911 1_555
H2 O0 1.031530 1_554
H2 O14 1.547454 1_554
H3 O20 1.023954 1_555
H3 O17 1.551911 1_555
O0 P0 1.611370 1_556
O1 P4 1.536767 1_555
O2 P1 1.530059 1_555
O3 P1 1.486473 1_555
O4 P0 1.530059 1_555
O5 P7 1.522467 1_555
O6 P2 1.536767 1_555
O7 P1 1.611370 1_554
O8 P1 1.604075 1_455
O8 P2 1.607520 1_556
O9 P4 1.539994 1_555
O10 P2 1.552147 1_555
O11 P7 1.615689 1_455
O11 P3 1.621246 1_555
O12 P5 1.539110 1_555
O13 P3 1.569849 1_555
O14 P4 1.552147 1_555
O15 P2 1.539994 1_555
O16 P0 1.604075 1_655
O16 P4 1.607520 1_554
O17 P5 1.569849 1_555
O18 P3 1.539110 1_555
O19 P6 1.615689 1_655
O19 P5 1.621246 1_555
O20 P6 1.577315 1_555
O21 P5 1.506096 1_555
O22 P0 1.486473 1_555
O23 P7 1.511796 1_555
O24 P6 1.522467 1_555
O25 P6 1.511796 1_555
O26 P3 1.506096 1_555
O27 P7 1.577315 1_555
