# generated using pymatgen
data_LiMn3Al2(HO2)6
_symmetry_space_group_name_H-M   'P 1'
_cell_length_a   5.15911142
_cell_length_b   5.15911142
_cell_length_c   19.14171039
_cell_angle_alpha   87.33181192
_cell_angle_beta   87.33181192
_cell_angle_gamma   120.70495238
_symmetry_Int_Tables_number   1
_chemical_formula_structural   LiMn3Al2(HO2)6
_chemical_formula_sum   'Li2 Mn6 Al4 H12 O24'
_cell_volume   436.11438212
_cell_formula_units_Z   2
loop_
 _symmetry_equiv_pos_site_id
 _symmetry_equiv_pos_as_xyz
  1  'x, y, z'
loop_
 _atom_site_type_symbol
 _atom_site_label
 _atom_site_symmetry_multiplicity
 _atom_site_fract_x
 _atom_site_fract_y
 _atom_site_fract_z
 _atom_site_occupancy
  Li  Li0  1  0.08351100  0.25031800  0.75003800  1
  Li  Li1  1  0.25031800  0.08351100  0.25003800  1
  Mn  Mn0  1  0.16602900  0.66328900  0.50002600  1
  Mn  Mn1  1  0.33318200  0.49989600  0.00003500  1
  Mn  Mn2  1  0.49989600  0.33318200  0.50003500  1
  Mn  Mn3  1  0.66328900  0.16602900  0.00002600  1
  Mn  Mn4  1  0.83394500  0.00321300  0.50001800  1
  Mn  Mn5  1  0.00321300  0.83394500  0.00001800  1
  Al  Al0  1  0.41716000  0.91677600  0.74997100  1
  Al  Al1  1  0.58306200  0.74917000  0.24997200  1
  Al  Al2  1  0.91677600  0.41716000  0.24997100  1
  Al  Al3  1  0.74917000  0.58306200  0.74997200  1
  H  H0  1  0.20925800  0.39764200  0.35330500  1
  H  H1  1  0.04615900  0.56451500  0.85324800  1
  H  H2  1  0.11872200  0.93672700  0.64681200  1
  H  H3  1  0.28523800  0.77587200  0.14677500  1
  H  H4  1  0.56451500  0.04615900  0.35324800  1
  H  H5  1  0.39764200  0.20925800  0.85330500  1
  H  H6  1  0.46589900  0.63463700  0.64697600  1
  H  H7  1  0.63463700  0.46589900  0.14697600  1
  H  H8  1  0.86737300  0.70069100  0.35302300  1
  H  H9  1  0.70069100  0.86737300  0.85302300  1
  H  H10  1  0.93672700  0.11872200  0.14681200  1
  H  H11  1  0.77587200  0.28523800  0.64677500  1
  O  O0  1  0.15805500  0.35440600  0.44592500  1
  O  O1  1  0.23096200  0.42773500  0.30155400  1
  O  O2  1  0.06429000  0.59493300  0.80166300  1
  O  O3  1  0.00944100  0.52061300  0.94864500  1
  O  O4  1  0.10196200  0.90472000  0.69825600  1
  O  O5  1  0.14781200  0.98210400  0.54998800  1
  O  O6  1  0.31215700  0.84211100  0.05413200  1
  O  O7  1  0.26904000  0.73728500  0.19824900  1
  O  O8  1  0.59493300  0.06429000  0.30166300  1
  O  O9  1  0.52061300  0.00944100  0.44864500  1
  O  O10  1  0.35440600  0.15805500  0.94592500  1
  O  O11  1  0.42773500  0.23096200  0.80155400  1
  O  O12  1  0.63130800  0.46435300  0.19847600  1
  O  O13  1  0.65708700  0.47944600  0.05140100  1
  O  O14  1  0.46435300  0.63130800  0.69847600  1
  O  O15  1  0.47944600  0.65708700  0.55140100  1
  O  O16  1  0.68421300  0.85201600  0.95005400  1
  O  O17  1  0.86905300  0.70252200  0.30161100  1
  O  O18  1  0.70252200  0.86905300  0.80161100  1
  O  O19  1  0.85201600  0.68421300  0.45005400  1
  O  O20  1  0.73728500  0.26904000  0.69824900  1
  O  O21  1  0.84211100  0.31215700  0.55413200  1
  O  O22  1  0.90472000  0.10196200  0.19825600  1
  O  O23  1  0.98210400  0.14781200  0.04998800  1
loop_
_geom_bond_atom_site_label_1
_geom_bond_atom_site_label_2
_geom_bond_distance
_geom_bond_site_symmetry_2
Li0 O14 2.095931 1_555
Li0 O18 2.096963 1_445
Li0 O11 2.114507 1_555
Li0 O2 2.117028 1_555
Li0 O4 2.121232 1_545
Li0 O20 2.124801 1_455
Li1 O12 2.095931 1_555
Li1 O17 2.096963 1_445
Li1 O1 2.114507 1_555
Li1 O8 2.117028 1_555
Li1 O22 2.121232 1_455
Li1 O7 2.124801 1_545
Mn0 O0 1.924638 1_555
Mn0 O21 1.928612 1_455
Mn0 O15 1.944377 1_555
Mn0 O9 1.958493 1_565
Mn0 O19 1.965805 1_455
Mn0 O5 1.981106 1_555
Mn1 O23 1.952315 1_455
Mn1 O16 1.952507 1_554
Mn1 O13 2.023287 1_555
Mn1 O3 2.023408 1_554
Mn1 O10 2.133488 1_554
Mn1 O6 2.134585 1_555
Mn2 O5 1.952315 1_545
Mn2 O19 1.952507 1_555
Mn2 O15 2.023287 1_555
Mn2 O9 2.023408 1_555
Mn2 O0 2.133488 1_555
Mn2 O21 2.134585 1_555
Mn3 O10 1.924638 1_554
Mn3 O6 1.928612 1_545
Mn3 O13 1.944377 1_555
Mn3 O3 1.958493 1_654
Mn3 O16 1.965805 1_544
Mn3 O23 1.981106 1_555
Mn4 O21 1.924675 1_555
Mn4 O0 1.929007 1_655
Mn4 O9 1.944033 1_555
Mn4 O15 1.958258 1_545
Mn4 O5 1.965558 1_645
Mn4 O19 1.981625 1_545
Mn5 O6 1.924675 1_555
Mn5 O10 1.929007 1_564
Mn5 O3 1.944033 1_554
Mn5 O13 1.958258 1_455
Mn5 O23 1.965558 1_465
Mn5 O16 1.981625 1_454
Al0 O20 1.904125 1_565
Al0 O2 1.908563 1_555
Al0 O11 1.915465 1_565
Al0 O14 1.918052 1_555
Al0 O4 1.918449 1_555
Al0 O18 1.920448 1_555
Al1 O1 1.904967 1_555
Al1 O22 1.908225 1_565
Al1 O7 1.913681 1_555
Al1 O12 1.917881 1_555
Al1 O8 1.918209 1_565
Al1 O17 1.920472 1_555
Al2 O7 1.904125 1_655
Al2 O8 1.908563 1_555
Al2 O1 1.915465 1_655
Al2 O12 1.918052 1_555
Al2 O22 1.918449 1_555
Al2 O17 1.920448 1_555
Al3 O11 1.904967 1_555
Al3 O4 1.908225 1_655
Al3 O20 1.913681 1_555
Al3 O14 1.917881 1_555
Al3 O2 1.918209 1_655
Al3 O18 1.920472 1_555
H0 O1 0.987692 1_555
H1 O2 0.985072 1_555
H2 O4 0.983250 1_555
H3 O7 0.987175 1_555
H4 O8 0.985072 1_555
H5 O11 0.987692 1_555
H6 O14 0.984738 1_555
H7 O12 0.984738 1_555
H8 O17 0.983311 1_555
H9 O18 0.983311 1_555
H10 O22 0.983250 1_555
H11 O20 0.987175 1_555
