# generated using pymatgen
data_Li3FeS3
_symmetry_space_group_name_H-M   'P 1'
_cell_length_a   6.69106989
_cell_length_b   6.69106989
_cell_length_c   6.31516784
_cell_angle_alpha   83.52175352
_cell_angle_beta   83.52175352
_cell_angle_gamma   116.33365272
_symmetry_Int_Tables_number   1
_chemical_formula_structural   Li3FeS3
_chemical_formula_sum   'Li6 Fe2 S6'
_cell_volume   247.52726187
_cell_formula_units_Z   2
loop_
 _symmetry_equiv_pos_site_id
 _symmetry_equiv_pos_as_xyz
  1  'x, y, z'
loop_
 _atom_site_type_symbol
 _atom_site_label
 _atom_site_symmetry_multiplicity
 _atom_site_fract_x
 _atom_site_fract_y
 _atom_site_fract_z
 _atom_site_occupancy
  Li  Li0  1  0.58457700  0.58457700  0.65776400  1
  Li  Li1  1  0.17442500  0.82557500  0.50000000  1
  Li  Li2  1  0.82557500  0.17442500  0.50000000  1
  Li  Li3  1  0.74932300  0.25067700  0.00000000  1
  Li  Li4  1  0.25067700  0.74932300  0.00000000  1
  Li  Li5  1  0.41542300  0.41542300  0.34223600  1
  Fe  Fe0  1  0.82495700  0.82495700  0.13527400  1
  Fe  Fe1  1  0.17504300  0.17504300  0.86472600  1
  S  S0  1  0.88307600  0.88307600  0.76926200  1
  S  S1  1  0.83187500  0.50899500  0.26209300  1
  S  S2  1  0.50899500  0.83187500  0.26209300  1
  S  S3  1  0.16812500  0.49100500  0.73790700  1
  S  S4  1  0.49100500  0.16812500  0.73790700  1
  S  S5  1  0.11692400  0.11692400  0.23073800  1
loop_
_geom_bond_atom_site_label_1
_geom_bond_atom_site_label_2
_geom_bond_distance
_geom_bond_site_symmetry_2
Li0 S0 2.359999 1_555
Li0 S4 2.544646 1_555
Li0 S3 2.544646 1_555
Li1 S3 2.532500 1_555
Li1 S2 2.532500 1_555
Li1 S0 2.627708 1_455
Li1 S5 2.627708 1_565
Li2 S4 2.532500 1_555
Li2 S1 2.532500 1_555
Li2 S0 2.627708 1_545
Li2 S5 2.627708 1_655
Li3 S4 2.457019 1_554
Li3 S1 2.457019 1_555
Li3 S2 2.744609 1_545
Li3 S3 2.744609 1_654
Li4 S3 2.457019 1_554
Li4 S2 2.457019 1_555
Li4 S1 2.744609 1_455
Li4 S4 2.744609 1_564
Li5 S5 2.359999 1_555
Li5 S2 2.544646 1_555
Li5 S1 2.544646 1_555
Fe0 S2 2.196861 1_555
Fe0 S1 2.196861 1_555
Fe0 S0 2.259496 1_554
Fe0 S5 2.267583 1_665
Fe1 S4 2.196861 1_555
Fe1 S3 2.196861 1_555
Fe1 S5 2.259496 1_556
Fe1 S0 2.267583 1_445
