# generated using pymatgen
data_Li4MnFe3(BO3)4
_symmetry_space_group_name_H-M   'P 1'
_cell_length_a   5.16208600
_cell_length_b   6.18446440
_cell_length_c   8.08296314
_cell_angle_alpha   78.40415664
_cell_angle_beta   88.54470272
_cell_angle_gamma   87.94630377
_symmetry_Int_Tables_number   1
_chemical_formula_structural   Li4MnFe3(BO3)4
_chemical_formula_sum   'Li4 Mn1 Fe3 B4 O12'
_cell_volume   252.57370692
_cell_formula_units_Z   1
loop_
 _symmetry_equiv_pos_site_id
 _symmetry_equiv_pos_as_xyz
  1  'x, y, z'
loop_
 _atom_site_type_symbol
 _atom_site_label
 _atom_site_symmetry_multiplicity
 _atom_site_fract_x
 _atom_site_fract_y
 _atom_site_fract_z
 _atom_site_occupancy
  Li  Li0  1  0.91421100  0.52357200  0.14745900  1
  Li  Li1  1  0.41865800  0.02669100  0.65004300  1
  Li  Li2  1  0.58398400  0.97754100  0.35057500  1
  Li  Li3  1  0.08407700  0.47456500  0.85069100  1
  Mn  Mn0  1  0.09694300  0.73795000  0.49036000  1
  Fe  Fe0  1  0.40924800  0.75912400  0.01212600  1
  Fe  Fe1  1  0.90643400  0.25187800  0.50998200  1
  Fe  Fe2  1  0.58813700  0.24197600  0.98784700  1
  B  B0  1  0.09331000  0.09311900  0.16880100  1
  B  B1  1  0.40223500  0.40978600  0.32989900  1
  B  B2  1  0.59842300  0.58766300  0.66954100  1
  B  B3  1  0.90526600  0.91049800  0.83244500  1
  O  O0  1  0.97909700  0.25053100  0.04466400  1
  O  O1  1  0.95502800  0.00290000  0.31495800  1
  O  O2  1  0.35594300  0.02795200  0.15213800  1
  O  O3  1  0.54174900  0.50673200  0.18561800  1
  O  O4  1  0.51810200  0.25104900  0.45247500  1
  O  O5  1  0.14036600  0.47209300  0.34605900  1
  O  O6  1  0.85697300  0.51866800  0.65296900  1
  O  O7  1  0.48844500  0.75290100  0.54776400  1
  O  O8  1  0.45614400  0.49462700  0.81343600  1
  O  O9  1  0.64276200  0.97307100  0.84901700  1
  O  O10  1  0.04432400  0.00529800  0.68718400  1
  O  O11  1  0.02014100  0.74981700  0.95394600  1
loop_
_geom_bond_atom_site_label_1
_geom_bond_atom_site_label_2
_geom_bond_distance
_geom_bond_site_symmetry_2
Li0 O3 1.942678 1_555
Li0 O11 1.958298 1_654
Li0 O5 1.975921 1_655
Li0 O0 2.040428 1_555
Li1 O10 1.953068 1_555
Li1 O4 1.964077 1_555
Li1 O9 1.971671 1_545
Li1 O7 2.045537 1_545
Li2 O1 1.936867 1_565
Li2 O7 1.957737 1_555
Li2 O2 1.980953 1_565
Li2 O4 2.039576 1_565
Li3 O8 1.941036 1_555
Li3 O0 1.951653 1_456
Li3 O6 1.974826 1_455
Li3 O11 2.054306 1_555
Mn0 O1 2.065056 1_465
Mn0 O7 2.094378 1_555
Mn0 O6 2.102924 1_455
Mn0 O5 2.201202 1_555
Mn0 O10 2.518311 1_565
Fe0 O3 1.990735 1_555
Fe0 O9 2.067425 1_554
Fe0 O11 2.079928 1_554
Fe0 O2 2.197358 1_565
Fe0 O8 2.514277 1_554
Fe1 O10 1.994895 1_655
Fe1 O4 2.069674 1_555
Fe1 O5 2.092795 1_655
Fe1 O6 2.201079 1_555
Fe1 O1 2.418032 1_555
Fe2 O8 1.995007 1_555
Fe2 O2 2.068415 1_556
Fe2 O0 2.085957 1_556
Fe2 O9 2.192026 1_545
Fe2 O3 2.509679 1_556
B0 O0 1.377803 1_455
B0 O1 1.391848 1_455
B0 O2 1.411371 1_555
B1 O4 1.378449 1_555
B1 O3 1.394773 1_555
B1 O5 1.402432 1_555
B2 O7 1.384885 1_555
B2 O8 1.393250 1_555
B2 O6 1.398000 1_555
B3 O11 1.377912 1_655
B3 O10 1.395789 1_665
B3 O9 1.406393 1_555
