# generated using pymatgen
data_FeOF
_symmetry_space_group_name_H-M   'P 1'
_cell_length_a   3.09227700
_cell_length_b   14.13453000
_cell_length_c   14.13535281
_cell_angle_alpha   89.98062085
_cell_angle_beta   90.00000000
_cell_angle_gamma   90.00000000
_symmetry_Int_Tables_number   1
_chemical_formula_structural   FeOF
_chemical_formula_sum   'Fe18 O18 F18'
_cell_volume   617.82629760
_cell_formula_units_Z   18
loop_
 _symmetry_equiv_pos_site_id
 _symmetry_equiv_pos_as_xyz
  1  'x, y, z'
loop_
 _atom_site_type_symbol
 _atom_site_label
 _atom_site_symmetry_multiplicity
 _atom_site_fract_x
 _atom_site_fract_y
 _atom_site_fract_z
 _atom_site_occupancy
  Fe  Fe0  1  0.00000000  0.00619200  0.98415900  1
  Fe  Fe1  1  0.00000000  0.99319900  0.67461800  1
  Fe  Fe2  1  0.00000000  0.98514500  0.34213000  1
  Fe  Fe3  1  0.50000000  0.84387800  0.83744500  1
  Fe  Fe4  1  0.50000000  0.82177300  0.49633200  1
  Fe  Fe5  1  0.50000000  0.84422000  0.17087000  1
  Fe  Fe6  1  0.00000000  0.64950900  0.00047800  1
  Fe  Fe7  1  0.00000000  0.66371100  0.65725000  1
  Fe  Fe8  1  0.00000000  0.66857900  0.33950000  1
  Fe  Fe9  1  0.50000000  0.49864600  0.51687500  1
  Fe  Fe10  1  0.50000000  0.51690400  0.82877900  1
  Fe  Fe11  1  0.50000000  0.49296000  0.14903300  1
  Fe  Fe12  1  0.00000000  0.32978900  0.00409900  1
  Fe  Fe13  1  0.00000000  0.33276300  0.65561800  1
  Fe  Fe14  1  0.00000000  0.32106400  0.33499400  1
  Fe  Fe15  1  0.50000000  0.17871100  0.85127300  1
  Fe  Fe16  1  0.50000000  0.18108500  0.50235300  1
  Fe  Fe17  1  0.50000000  0.18215200  0.16503300  1
  O  O0  1  0.50000000  0.93578500  0.73147200  1
  O  O1  1  0.50000000  0.93063600  0.40427100  1
  O  O2  1  0.00000000  0.89625500  0.90288100  1
  O  O3  1  0.00000000  0.89649000  0.23162600  1
  O  O4  1  0.00000000  0.76251100  0.42813500  1
  O  O5  1  0.50000000  0.73825100  0.60043600  1
  O  O6  1  0.50000000  0.60168100  0.72698900  1
  O  O7  1  0.50000000  0.60688300  0.07217100  1
  O  O8  1  0.00000000  0.56484100  0.89804600  1
  O  O9  1  0.00000000  0.56740500  0.55669400  1
  O  O10  1  0.00000000  0.43002200  0.09830100  1
  O  O11  1  0.50000000  0.39551500  0.60178500  1
  O  O12  1  0.50000000  0.26931400  0.40073500  1
  O  O13  1  0.50000000  0.26730600  0.06069200  1
  O  O14  1  0.00000000  0.24083300  0.90067400  1
  O  O15  1  0.00000000  0.22710700  0.57062800  1
  O  O16  1  0.00000000  0.23145200  0.23212000  1
  O  O17  1  0.50000000  0.06755800  0.93215400  1
  F  F0  1  0.50000000  0.93652000  0.06434500  1
  F  F1  1  0.00000000  0.90346900  0.56352400  1
  F  F2  1  0.00000000  0.76934600  0.77270600  1
  F  F3  1  0.00000000  0.77325200  0.10043200  1
  F  F4  1  0.50000000  0.73218500  0.93616800  1
  F  F5  1  0.50000000  0.72604900  0.26197100  1
  F  F6  1  0.50000000  0.59519300  0.39177300  1
  F  F7  1  0.00000000  0.56568600  0.23645600  1
  F  F8  1  0.00000000  0.42879000  0.76877100  1
  F  F9  1  0.00000000  0.43572300  0.42949200  1
  F  F10  1  0.50000000  0.39732500  0.93593600  1
  F  F11  1  0.50000000  0.40368900  0.27033900  1
  F  F12  1  0.50000000  0.26575800  0.73307400  1
  F  F13  1  0.00000000  0.10685400  0.76500100  1
  F  F14  1  0.00000000  0.10071000  0.43488000  1
  F  F15  1  0.00000000  0.09434700  0.10433500  1
  F  F16  1  0.50000000  0.06291100  0.59969600  1
  F  F17  1  0.50000000  0.06206700  0.27045400  1
loop_
_geom_bond_atom_site_label_1
_geom_bond_atom_site_label_2
_geom_bond_distance
_geom_bond_site_symmetry_2
Fe0 O17 1.919074 1_455
Fe0 O17 1.919074 1_555
Fe0 O2 1.932820 1_545
Fe1 O0 1.922114 1_555
Fe1 O0 1.922114 1_455
Fe2 O1 1.937848 1_455
Fe2 O1 1.937848 1_555
Fe2 O3 2.002863 1_555
Fe3 O2 1.947984 1_555
Fe3 O2 1.947984 1_655
Fe3 O0 1.982460 1_555
Fe4 O5 1.886255 1_555
Fe4 O4 2.005494 1_555
Fe4 O4 2.005494 1_655
Fe4 O1 2.014881 1_555
Fe5 O3 1.916864 1_555
Fe5 O3 1.916864 1_655
Fe6 O8 1.878780 1_554
Fe6 O7 1.944255 1_555
Fe6 O7 1.944255 1_455
Fe7 O9 1.968412 1_555
Fe7 O6 2.032351 1_455
Fe7 O6 2.032351 1_555
Fe7 O5 2.035919 1_555
Fe7 O5 2.035919 1_455
Fe8 O4 1.825814 1_555
Fe9 O11 1.887932 1_555
Fe9 O9 1.911090 1_555
Fe9 O9 1.911090 1_655
Fe10 O6 1.872156 1_555
Fe10 O8 1.951603 1_555
Fe10 O8 1.951603 1_655
Fe11 O10 1.922659 1_655
Fe11 O10 1.922659 1_555
Fe11 O7 1.942199 1_555
Fe12 O14 1.928593 1_554
Fe12 O10 1.944620 1_555
Fe12 O13 1.951920 1_455
Fe12 O13 1.951920 1_555
Fe13 O15 1.916957 1_555
Fe13 O11 1.938001 1_555
Fe13 O11 1.938001 1_455
Fe14 O16 1.928772 1_555
Fe14 O12 1.946450 1_455
Fe14 O12 1.946450 1_555
Fe15 O14 1.910388 1_555
Fe15 O14 1.910388 1_655
Fe15 O17 1.942735 1_555
Fe16 O12 1.901907 1_555
Fe16 O15 1.935334 1_655
Fe16 O15 1.935334 1_555
Fe17 O13 1.903366 1_555
Fe17 O16 1.943151 1_555
Fe17 O16 1.943151 1_655
F0 Fe5 1.991993 1_555
F0 Fe0 2.155066 1_664
F0 Fe0 2.155066 1_564
F1 Fe1 2.018890 1_555
F1 Fe4 2.150996 1_555
F1 Fe4 2.150996 1_455
F2 Fe3 2.082890 1_455
F2 Fe3 2.082890 1_555
F2 Fe7 2.212343 1_555
F3 Fe5 2.094941 1_555
F3 Fe5 2.094941 1_455
F3 Fe6 2.248797 1_555
F4 Fe3 2.106720 1_555
F4 Fe6 2.140510 1_656
F4 Fe6 2.140510 1_556
F5 Fe8 2.061744 1_555
F5 Fe8 2.061744 1_655
F5 Fe5 2.108721 1_555
F6 Fe8 2.002982 1_555
F6 Fe8 2.002982 1_655
F6 Fe9 2.233322 1_555
F7 Fe8 2.058671 1_555
F7 Fe11 2.230509 1_555
F7 Fe11 2.230509 1_455
F8 Fe13 2.098091 1_555
F8 Fe10 2.159145 1_555
F8 Fe10 2.159145 1_455
F9 Fe14 2.100532 1_555
F9 Fe9 2.169790 1_555
F9 Fe9 2.169790 1_455
F10 Fe12 2.056578 1_556
F10 Fe12 2.056578 1_656
F10 Fe10 2.269216 1_555
F11 Fe11 2.128589 1_555
F11 Fe14 2.142191 1_555
F11 Fe14 2.142191 1_655
F12 Fe15 2.074593 1_555
F12 Fe13 2.117911 1_555
F12 Fe13 2.117911 1_655
F13 Fe1 2.052889 1_545
F13 Fe15 2.215875 1_555
F13 Fe15 2.215875 1_455
F14 Fe2 2.094873 1_545
F14 Fe16 2.142793 1_455
F14 Fe16 2.142793 1_555
F15 Fe0 2.107061 1_554
F15 Fe17 2.160484 1_555
F15 Fe17 2.160484 1_455
F16 Fe1 2.117151 1_545
F16 Fe1 2.117151 1_645
F16 Fe16 2.163741 1_555
F17 Fe2 2.144395 1_645
F17 Fe2 2.144395 1_545
F17 Fe17 2.258286 1_555
