# generated using pymatgen
data_ReH12C2S2N4Cl5O3
_symmetry_space_group_name_H-M   'P 1'
_cell_length_a   7.17671500
_cell_length_b   13.81933500
_cell_length_c   16.61524857
_cell_angle_alpha   78.17851951
_cell_angle_beta   90.00000000
_cell_angle_gamma   90.00000000
_symmetry_Int_Tables_number   1
_chemical_formula_structural   ReH12C2S2N4Cl5O3
_chemical_formula_sum   'Re4 H48 C8 S8 N16 Cl20 O12'
_cell_volume   1612.90764771
_cell_formula_units_Z   4
loop_
 _symmetry_equiv_pos_site_id
 _symmetry_equiv_pos_as_xyz
  1  'x, y, z'
loop_
 _atom_site_type_symbol
 _atom_site_label
 _atom_site_symmetry_multiplicity
 _atom_site_fract_x
 _atom_site_fract_y
 _atom_site_fract_z
 _atom_site_occupancy
  Re  Re0  1  0.75661100  0.80271300  0.97973000  1
  Re  Re1  1  0.25661100  0.19728700  0.52027000  1
  Re  Re2  1  0.24338900  0.19728700  0.02027000  1
  Re  Re3  1  0.74338900  0.80271300  0.47973000  1
  H  H0  1  0.20958100  0.91651900  0.82045800  1
  H  H1  1  0.70958100  0.08348100  0.67954200  1
  H  H2  1  0.79041900  0.08348100  0.17954200  1
  H  H3  1  0.29041900  0.91651900  0.32045800  1
  H  H4  1  0.31893500  0.79957700  0.83026600  1
  H  H5  1  0.81893500  0.20042300  0.66973400  1
  H  H6  1  0.68106500  0.20042300  0.16973400  1
  H  H7  1  0.18106500  0.79957700  0.33026600  1
  H  H8  1  0.09199100  0.99435300  0.68933200  1
  H  H9  1  0.59199100  0.00564700  0.81066800  1
  H  H10  1  0.90800900  0.00564700  0.31066800  1
  H  H11  1  0.40800900  0.99435300  0.18933200  1
  H  H12  1  0.07756800  0.92593300  0.61169800  1
  H  H13  1  0.57756800  0.07406700  0.88830200  1
  H  H14  1  0.92243200  0.07406700  0.38830200  1
  H  H15  1  0.42243200  0.92593300  0.11169800  1
  H  H16  1  0.09771100  0.46023600  0.90229100  1
  H  H17  1  0.59771100  0.53976400  0.59770900  1
  H  H18  1  0.90228900  0.53976400  0.09770900  1
  H  H19  1  0.40228900  0.46023600  0.40229100  1
  H  H20  1  0.33625900  0.48898500  0.88571100  1
  H  H21  1  0.83625900  0.51101500  0.61428900  1
  H  H22  1  0.66374100  0.51101500  0.11428900  1
  H  H23  1  0.16374100  0.48898500  0.38571100  1
  H  H24  1  0.87481100  0.56773100  0.81588100  1
  H  H25  1  0.37481100  0.43226900  0.68411900  1
  H  H26  1  0.12518900  0.43226900  0.18411900  1
  H  H27  1  0.62518900  0.56773100  0.31588100  1
  H  H28  1  0.96517500  0.66161000  0.73667500  1
  H  H29  1  0.46517500  0.33839000  0.76332500  1
  H  H30  1  0.03482500  0.33839000  0.26332500  1
  H  H31  1  0.53482500  0.66161000  0.23667500  1
  H  H32  1  0.60545000  0.62417100  0.93595300  1
  H  H33  1  0.10545000  0.37582900  0.56404700  1
  H  H34  1  0.39455000  0.37582900  0.06404700  1
  H  H35  1  0.89455000  0.62417100  0.43595300  1
  H  H36  1  0.48563900  0.63421500  0.01326100  1
  H  H37  1  0.98563900  0.36578500  0.48673900  1
  H  H38  1  0.51436100  0.36578500  0.98673900  1
  H  H39  1  0.01436100  0.63421500  0.51326100  1
  H  H40  1  0.65968900  0.91525900  0.65138000  1
  H  H41  1  0.15968900  0.08474100  0.84862000  1
  H  H42  1  0.34031100  0.08474100  0.34862000  1
  H  H43  1  0.84031100  0.91525900  0.15138000  1
  H  H44  1  0.54096100  0.00060800  0.60151900  1
  H  H45  1  0.04096100  0.99939200  0.89848100  1
  H  H46  1  0.45903900  0.99939200  0.39848100  1
  H  H47  1  0.95903900  0.00060800  0.10151900  1
  C  C0  1  0.19868700  0.85437100  0.71947600  1
  C  C1  1  0.69868700  0.14562900  0.78052400  1
  C  C2  1  0.80131300  0.14562900  0.28052400  1
  C  C3  1  0.30131300  0.85437100  0.21947600  1
  C  C4  1  0.15851700  0.58004900  0.81008400  1
  C  C5  1  0.65851700  0.41995100  0.68991600  1
  C  C6  1  0.84148300  0.41995100  0.18991600  1
  C  C7  1  0.34148300  0.58004900  0.31008400  1
  S  S0  1  0.24807500  0.75237000  0.67212400  1
  S  S1  1  0.74807500  0.24763000  0.82787600  1
  S  S2  1  0.75192500  0.24763000  0.32787600  1
  S  S3  1  0.25192500  0.75237000  0.17212400  1
  S  S4  1  0.35850600  0.64847900  0.76479400  1
  S  S5  1  0.85850600  0.35152100  0.73520600  1
  S  S6  1  0.64149400  0.35152100  0.23520600  1
  S  S7  1  0.14149400  0.64847900  0.26479400  1
  N  N0  1  0.24540500  0.85597800  0.79553300  1
  N  N1  1  0.74540500  0.14402200  0.70446700  1
  N  N2  1  0.75459500  0.14402200  0.20446700  1
  N  N3  1  0.25459500  0.85597800  0.29553300  1
  N  N4  1  0.11263500  0.92911000  0.67087100  1
  N  N5  1  0.61263500  0.07089000  0.82912900  1
  N  N6  1  0.88736500  0.07089000  0.32912900  1
  N  N7  1  0.38736500  0.92911000  0.17087100  1
  N  N8  1  0.19877400  0.50471000  0.87050200  1
  N  N9  1  0.69877400  0.49529000  0.62949800  1
  N  N10  1  0.80122600  0.49529000  0.12949800  1
  N  N11  1  0.30122600  0.50471000  0.37050200  1
  N  N12  1  0.98799800  0.60457700  0.78536800  1
  N  N13  1  0.48799800  0.39542300  0.71463200  1
  N  N14  1  0.01200200  0.39542300  0.21463200  1
  N  N15  1  0.51200200  0.60457700  0.28536800  1
  Cl  Cl0  1  0.73897200  0.74931100  0.12509500  1
  Cl  Cl1  1  0.23897200  0.25068900  0.37490500  1
  Cl  Cl2  1  0.26102800  0.25068900  0.87490500  1
  Cl  Cl3  1  0.76102800  0.74931100  0.62509500  1
  Cl  Cl4  1  0.73387600  0.81718800  0.83554900  1
  Cl  Cl5  1  0.23387600  0.18281200  0.66445100  1
  Cl  Cl6  1  0.26612400  0.18281200  0.16445100  1
  Cl  Cl7  1  0.76612400  0.81718800  0.33554900  1
  Cl  Cl8  1  0.45607000  0.87582200  0.98213500  1
  Cl  Cl9  1  0.95607000  0.12417800  0.51786500  1
  Cl  Cl10  1  0.54393000  0.12417800  0.01786500  1
  Cl  Cl11  1  0.04393000  0.87582200  0.48213500  1
  Cl  Cl12  1  0.99478500  0.68518500  0.98184700  1
  Cl  Cl13  1  0.49478500  0.31481500  0.51815300  1
  Cl  Cl14  1  0.00521500  0.31481500  0.01815300  1
  Cl  Cl15  1  0.50521500  0.68518500  0.48184700  1
  Cl  Cl16  1  0.64822500  0.48673800  0.89373500  1
  Cl  Cl17  1  0.14822500  0.51326200  0.60626500  1
  Cl  Cl18  1  0.35177500  0.51326200  0.10626500  1
  Cl  Cl19  1  0.85177500  0.48673800  0.39373500  1
  O  O0  1  0.88718200  0.90547100  0.97855200  1
  O  O1  1  0.38718200  0.09452900  0.52144800  1
  O  O2  1  0.11281800  0.09452900  0.02144800  1
  O  O3  1  0.61281800  0.90547100  0.47855200  1
  O  O4  1  0.56248100  0.67302300  0.96843300  1
  O  O5  1  0.06248100  0.32697700  0.53156700  1
  O  O6  1  0.43751900  0.32697700  0.03156700  1
  O  O7  1  0.93751900  0.67302300  0.46843300  1
  O  O8  1  0.60203000  0.97862100  0.65461700  1
  O  O9  1  0.10203000  0.02137900  0.84538300  1
  O  O10  1  0.39797000  0.02137900  0.34538300  1
  O  O11  1  0.89797000  0.97862100  0.15461700  1
loop_
_geom_bond_atom_site_label_1
_geom_bond_atom_site_label_2
_geom_bond_distance
_geom_bond_site_symmetry_2
H0 N0 1.039004 1_555
H1 N1 1.039004 1_555
H2 N2 1.039004 1_555
H3 N3 1.039004 1_555
H4 N0 1.017211 1_555
H5 N1 1.017211 1_555
H6 N2 1.017211 1_555
H7 N3 1.017211 1_555
H8 N4 1.020910 1_555
H9 N5 1.020910 1_555
H10 N6 1.020910 1_555
H11 N7 1.020910 1_555
H12 N4 1.024490 1_555
H13 N5 1.024490 1_555
H14 N6 1.024490 1_555
H15 N7 1.024490 1_555
H16 N8 1.024581 1_555
H17 N9 1.024581 1_555
H18 N10 1.024581 1_555
H19 N11 1.024581 1_555
H20 N8 1.030602 1_555
H21 N9 1.030602 1_555
H22 N10 1.030602 1_555
H23 N11 1.030602 1_555
H24 N12 1.034592 1_555
H25 N13 1.034592 1_555
H26 N14 1.034592 1_555
H27 N15 1.034592 1_555
H28 N12 1.020448 1_555
H29 N13 1.020448 1_555
H30 N14 1.020448 1_555
H31 N15 1.020448 1_555
H32 O4 0.995676 1_555
H33 O5 0.995676 1_555
H34 O6 0.995676 1_555
H35 O7 0.995676 1_555
H36 O4 0.991385 1_554
H37 O5 0.991385 1_655
H38 O6 0.991385 1_556
H39 O7 0.991385 1_455
H40 O8 0.979863 1_555
H41 O9 0.979863 1_555
H42 O10 0.979863 1_555
H43 O11 0.979863 1_555
H44 O8 0.976174 1_545
H45 O9 0.976174 1_565
H46 O10 0.976174 1_565
H47 O11 0.976174 1_545
C0 N0 1.312005 1_555
C0 N4 1.326120 1_555
C0 S0 1.784924 1_555
C1 N1 1.312005 1_555
C1 N5 1.326120 1_555
C1 S1 1.784924 1_555
C2 N2 1.312005 1_555
C2 N6 1.326120 1_555
C2 S2 1.784924 1_555
C3 N3 1.312005 1_555
C3 N7 1.326120 1_555
C3 S3 1.784924 1_555
C4 N12 1.313053 1_455
C4 N8 1.321719 1_555
C4 S4 1.796927 1_555
C5 N13 1.313053 1_555
C5 N9 1.321719 1_555
C5 S5 1.796927 1_555
C6 N14 1.313053 1_655
C6 N10 1.321719 1_555
C6 S6 1.796927 1_555
C7 N15 1.313053 1_555
C7 N11 1.321719 1_555
C7 S7 1.796927 1_555
S0 S4 2.038234 1_555
S1 S5 2.038234 1_555
S2 S6 2.038234 1_555
S3 S7 2.038234 1_555
Cl0 Re0 2.379893 1_554
Cl1 Re1 2.379893 1_555
Cl2 Re2 2.379893 1_556
Cl3 Re3 2.379893 1_555
Cl4 Re0 2.368377 1_555
Cl5 Re1 2.368377 1_555
Cl6 Re2 2.368377 1_555
Cl7 Re3 2.368377 1_555
Cl8 Re0 2.385600 1_555
Cl9 Re1 2.385600 1_655
Cl10 Re2 2.385600 1_555
Cl11 Re3 2.385600 1_455
Cl12 Re0 2.353179 1_555
Cl13 Re1 2.353179 1_555
Cl14 Re2 2.353179 1_555
Cl15 Re3 2.353179 1_555
O0 Re0 1.698126 1_555
O1 Re1 1.698126 1_555
O2 Re2 1.698126 1_555
O3 Re3 1.698126 1_555
O4 Re0 2.307857 1_555
O5 Re1 2.307857 1_555
O6 Re2 2.307857 1_555
O7 Re3 2.307857 1_555
