# generated using pymatgen
data_InBP2H5NO9
_symmetry_space_group_name_H-M   'P 1'
_cell_length_a   5.37612700
_cell_length_b   8.51160569
_cell_length_c   8.58393205
_cell_angle_alpha   87.27459943
_cell_angle_beta   80.60451915
_cell_angle_gamma   86.73445646
_symmetry_Int_Tables_number   1
_chemical_formula_structural   InBP2H5NO9
_chemical_formula_sum   'In2 B2 P4 H10 N2 O18'
_cell_volume   386.60578311
_cell_formula_units_Z   2
loop_
 _symmetry_equiv_pos_site_id
 _symmetry_equiv_pos_as_xyz
  1  'x, y, z'
loop_
 _atom_site_type_symbol
 _atom_site_label
 _atom_site_symmetry_multiplicity
 _atom_site_fract_x
 _atom_site_fract_y
 _atom_site_fract_z
 _atom_site_occupancy
  In  In0  1  0.27695300  0.68246500  0.79288700  1
  In  In1  1  0.72304700  0.31753500  0.20711300  1
  B  B0  1  0.10710600  0.77468500  0.43635100  1
  B  B1  1  0.89289400  0.22531500  0.56364900  1
  P  P0  1  0.19552700  0.08404000  0.31039400  1
  P  P1  1  0.21987000  0.57105300  0.18920300  1
  P  P2  1  0.78013000  0.42894700  0.81079700  1
  P  P3  1  0.80447300  0.91596000  0.68960600  1
  H  H0  1  0.16393600  0.22026000  0.82325100  1
  H  H1  1  0.14559000  0.11741800  0.99794000  1
  H  H2  1  0.35650300  0.05927200  0.83923400  1
  H  H3  1  0.41994900  0.64020300  0.46819600  1
  H  H4  1  0.39940200  0.22306500  0.93336300  1
  H  H5  1  0.60059800  0.77693500  0.06663700  1
  H  H6  1  0.58005100  0.35979700  0.53180400  1
  H  H7  1  0.64349700  0.94072800  0.16076600  1
  H  H8  1  0.85441000  0.88258200  0.00206000  1
  H  H9  1  0.83606400  0.77974000  0.17674900  1
  N  N0  1  0.26654700  0.15498500  0.89821200  1
  N  N1  1  0.73345300  0.84501500  0.10178800  1
  O  O0  1  0.07653100  0.43155800  0.15346700  1
  O  O1  1  0.03947900  0.66840600  0.31988900  1
  O  O2  1  0.13076800  0.17399000  0.46787100  1
  O  O3  1  0.02260000  0.89653000  0.78644100  1
  O  O4  1  0.28280700  0.68652800  0.04413900  1
  O  O5  1  0.24851500  0.90601800  0.35114900  1
  O  O6  1  0.27581500  0.68986600  0.53574000  1
  O  O7  1  0.44494200  0.13823200  0.21720900  1
  O  O8  1  0.46622500  0.52105700  0.25525400  1
  O  O9  1  0.53377500  0.47894300  0.74474600  1
  O  O10  1  0.55505800  0.86176800  0.78279100  1
  O  O11  1  0.72418500  0.31013400  0.46426000  1
  O  O12  1  0.75148500  0.09398200  0.64885100  1
  O  O13  1  0.71719300  0.31347200  0.95586100  1
  O  O14  1  0.97740000  0.10347000  0.21355900  1
  O  O15  1  0.86923200  0.82601000  0.53212900  1
  O  O16  1  0.96052100  0.33159400  0.68011100  1
  O  O17  1  0.92346900  0.56844200  0.84653300  1
loop_
_geom_bond_atom_site_label_1
_geom_bond_atom_site_label_2
_geom_bond_distance
_geom_bond_site_symmetry_2
In0 O17 2.155756 1_455
In0 O4 2.164035 1_556
In0 O9 2.165013 1_555
In0 O10 2.185669 1_555
In0 O6 2.206233 1_555
In0 O3 2.219013 1_555
In1 O0 2.155756 1_655
In1 O13 2.164035 1_554
In1 O8 2.165013 1_555
In1 O7 2.185669 1_555
In1 O11 2.206233 1_555
In1 O14 2.219013 1_555
B0 O15 1.459261 1_455
B0 O6 1.480267 1_555
B0 O1 1.480553 1_555
B0 O5 1.483235 1_555
B1 O2 1.459261 1_655
B1 O11 1.480267 1_555
B1 O16 1.480553 1_555
B1 O12 1.483235 1_555
H0 N0 1.036351 1_555
H1 N0 1.036267 1_555
H2 N0 1.033573 1_555
H3 O6 0.977033 1_555
H4 N0 1.034949 1_555
H5 N1 1.034949 1_555
H6 O11 0.977033 1_555
H7 N1 1.033573 1_555
H8 N1 1.036267 1_555
H9 N1 1.036351 1_555
O0 P1 1.521097 1_555
O1 P1 1.589725 1_555
O2 P0 1.564950 1_555
O3 P3 1.541606 1_455
O4 P1 1.554040 1_555
O5 P0 1.559641 1_565
O7 P0 1.528318 1_555
O8 P1 1.553931 1_555
O9 P2 1.553931 1_555
O10 P3 1.528318 1_555
O12 P3 1.559641 1_545
O13 P2 1.554040 1_555
O14 P0 1.541606 1_655
O15 P3 1.564950 1_555
O16 P2 1.589725 1_555
O17 P2 1.521097 1_555
