# generated using pymatgen
data_LiVSiCO7
_symmetry_space_group_name_H-M   'P 1'
_cell_length_a   6.37317800
_cell_length_b   5.29400400
_cell_length_c   8.16728425
_cell_angle_alpha   83.88044873
_cell_angle_beta   90.00000000
_cell_angle_gamma   90.00000000
_symmetry_Int_Tables_number   1
_chemical_formula_structural   LiVSiCO7
_chemical_formula_sum   'Li2 V2 Si2 C2 O14'
_cell_volume   273.99089646
_cell_formula_units_Z   2
loop_
 _symmetry_equiv_pos_site_id
 _symmetry_equiv_pos_as_xyz
  1  'x, y, z'
loop_
 _atom_site_type_symbol
 _atom_site_label
 _atom_site_symmetry_multiplicity
 _atom_site_fract_x
 _atom_site_fract_y
 _atom_site_fract_z
 _atom_site_occupancy
  Li  Li0  1  0.75000000  0.23787800  0.90266300  1
  Li  Li1  1  0.25000000  0.76212200  0.09733700  1
  V  V0  1  0.25000000  0.20539900  0.67992100  1
  V  V1  1  0.75000000  0.79460100  0.32007900  1
  Si  Si0  1  0.75000000  0.25710600  0.57194200  1
  Si  Si1  1  0.25000000  0.74289400  0.42805800  1
  C  C0  1  0.25000000  0.31374200  0.96560700  1
  C  C1  1  0.75000000  0.68625800  0.03439300  1
  O  O0  1  0.25000000  0.07448100  0.92465100  1
  O  O1  1  0.75000000  0.62341800  0.89223300  1
  O  O2  1  0.25000000  0.47667800  0.83198600  1
  O  O3  1  0.95131800  0.20552200  0.69411600  1
  O  O4  1  0.54868200  0.20552200  0.69411600  1
  O  O5  1  0.25000000  0.91769500  0.58115700  1
  O  O6  1  0.75000000  0.55639900  0.49068600  1
  O  O7  1  0.25000000  0.44360100  0.50931400  1
  O  O8  1  0.75000000  0.08230500  0.41884300  1
  O  O9  1  0.45131800  0.79447800  0.30588400  1
  O  O10  1  0.04868200  0.79447800  0.30588400  1
  O  O11  1  0.75000000  0.52332200  0.16801400  1
  O  O12  1  0.25000000  0.37658200  0.10776700  1
  O  O13  1  0.75000000  0.92551900  0.07534900  1
loop_
_geom_bond_atom_site_label_1
_geom_bond_atom_site_label_2
_geom_bond_distance
_geom_bond_site_symmetry_2
Li0 O1 2.033734 1_555
Li0 O13 2.055821 1_546
Li0 O3 2.153794 1_555
Li0 O4 2.153794 1_555
Li1 O12 2.033734 1_555
Li1 O0 2.055821 1_564
Li1 O10 2.153794 1_555
Li1 O9 2.153794 1_555
C0 O12 1.241406 1_556
C0 O2 1.316939 1_555
C0 O0 1.344107 1_555
C1 O1 1.241406 1_554
C1 O11 1.316939 1_555
C1 O13 1.344107 1_555
O0 V0 2.044535 1_555
O2 V0 1.996316 1_555
O3 Si0 1.630436 1_555
O3 V0 1.907085 1_655
O4 Si0 1.630436 1_555
O4 V0 1.907085 1_555
O5 Si1 1.632965 1_555
O5 V0 1.797903 1_565
O6 Si0 1.651284 1_555
O6 V1 1.776836 1_555
O7 Si1 1.651284 1_555
O7 V0 1.776836 1_555
O8 Si0 1.632965 1_555
O8 V1 1.797903 1_545
O9 Si1 1.630436 1_555
O9 V1 1.907085 1_555
O10 Si1 1.630436 1_555
O10 V1 1.907085 1_455
O11 V1 1.996316 1_555
O13 V1 2.044535 1_555
