# generated using pymatgen
data_NiPH4ClO3
_symmetry_space_group_name_H-M   'P 1'
_cell_length_a   7.34602800
_cell_length_b   9.54351000
_cell_length_c   13.28189900
_cell_angle_alpha   90.00000000
_cell_angle_beta   90.00000000
_cell_angle_gamma   90.00000000
_symmetry_Int_Tables_number   1
_chemical_formula_structural   NiPH4ClO3
_chemical_formula_sum   'Ni8 P8 H32 Cl8 O24'
_cell_volume   931.15265447
_cell_formula_units_Z   8
loop_
 _symmetry_equiv_pos_site_id
 _symmetry_equiv_pos_as_xyz
  1  'x, y, z'
loop_
 _atom_site_type_symbol
 _atom_site_label
 _atom_site_symmetry_multiplicity
 _atom_site_fract_x
 _atom_site_fract_y
 _atom_site_fract_z
 _atom_site_occupancy
  Ni  Ni0  1  0.62109600  0.35647100  0.50361700  1
  Ni  Ni1  1  0.12109600  0.64352900  0.99638300  1
  Ni  Ni2  1  0.37890400  0.14352900  0.00361700  1
  Ni  Ni3  1  0.87890400  0.85647100  0.49638300  1
  Ni  Ni4  1  0.37890400  0.64352900  0.49638300  1
  Ni  Ni5  1  0.87890400  0.35647100  0.00361700  1
  Ni  Ni6  1  0.62109600  0.85647100  0.99638300  1
  Ni  Ni7  1  0.12109600  0.14352900  0.50361700  1
  P  P0  1  0.72224100  0.11025000  0.15266300  1
  P  P1  1  0.22224100  0.88975000  0.34733700  1
  P  P2  1  0.27775900  0.38975000  0.65266300  1
  P  P3  1  0.77775900  0.61025000  0.84733700  1
  P  P4  1  0.27775900  0.88975000  0.84733700  1
  P  P5  1  0.77775900  0.11025000  0.65266300  1
  P  P6  1  0.72224100  0.61025000  0.34733700  1
  P  P7  1  0.22224100  0.38975000  0.15266300  1
  H  H0  1  0.79853500  0.00951300  0.21752400  1
  H  H1  1  0.29853500  0.99048700  0.28247600  1
  H  H2  1  0.20146500  0.49048700  0.71752400  1
  H  H3  1  0.70146500  0.50951300  0.78247600  1
  H  H4  1  0.20146500  0.99048700  0.78247600  1
  H  H5  1  0.70146500  0.00951300  0.71752400  1
  H  H6  1  0.79853500  0.50951300  0.28247600  1
  H  H7  1  0.29853500  0.49048700  0.21752400  1
  H  H8  1  0.62717700  0.20581700  0.21441700  1
  H  H9  1  0.12717700  0.79418300  0.28558300  1
  H  H10  1  0.37282300  0.29418300  0.71441700  1
  H  H11  1  0.87282300  0.70581700  0.78558300  1
  H  H12  1  0.37282300  0.79418300  0.78558300  1
  H  H13  1  0.87282300  0.20581700  0.71441700  1
  H  H14  1  0.62717700  0.70581700  0.28558300  1
  H  H15  1  0.12717700  0.29418300  0.21441700  1
  H  H16  1  0.06896100  0.07558800  0.09328300  1
  H  H17  1  0.56896100  0.92441200  0.40671700  1
  H  H18  1  0.93103900  0.42441200  0.59328300  1
  H  H19  1  0.43103900  0.57558800  0.90671700  1
  H  H20  1  0.93103900  0.92441200  0.90671700  1
  H  H21  1  0.43103900  0.07558800  0.59328300  1
  H  H22  1  0.06896100  0.57558800  0.40671700  1
  H  H23  1  0.56896100  0.42441200  0.09328300  1
  H  H24  1  0.20192800  0.94042800  0.08929800  1
  H  H25  1  0.70192800  0.05957200  0.41070200  1
  H  H26  1  0.79807200  0.55957200  0.58929800  1
  H  H27  1  0.29807200  0.44042800  0.91070200  1
  H  H28  1  0.79807200  0.05957200  0.91070200  1
  H  H29  1  0.29807200  0.94042800  0.58929800  1
  H  H30  1  0.20192800  0.44042800  0.41070200  1
  H  H31  1  0.70192800  0.55957200  0.08929800  1
  Cl  Cl0  1  0.37387700  0.23658100  0.40142700  1
  Cl  Cl1  1  0.87387700  0.76341900  0.09857300  1
  Cl  Cl2  1  0.62612300  0.26341900  0.90142700  1
  Cl  Cl3  1  0.12612300  0.73658100  0.59857300  1
  Cl  Cl4  1  0.62612300  0.76341900  0.59857300  1
  Cl  Cl5  1  0.12612300  0.23658100  0.90142700  1
  Cl  Cl6  1  0.37387700  0.73658100  0.09857300  1
  Cl  Cl7  1  0.87387700  0.26341900  0.40142700  1
  O  O0  1  0.57988500  0.03610900  0.08574400  1
  O  O1  1  0.07988500  0.96389100  0.41425600  1
  O  O2  1  0.42011500  0.46389100  0.58574400  1
  O  O3  1  0.92011500  0.53610900  0.91425600  1
  O  O4  1  0.42011500  0.96389100  0.91425600  1
  O  O5  1  0.92011500  0.03610900  0.58574400  1
  O  O6  1  0.57988500  0.53610900  0.41425600  1
  O  O7  1  0.07988500  0.46389100  0.08574400  1
  O  O8  1  0.19724800  0.04241500  0.09858000  1
  O  O9  1  0.69724800  0.95758500  0.40142000  1
  O  O10  1  0.80275200  0.45758500  0.59858000  1
  O  O11  1  0.30275200  0.54241500  0.90142000  1
  O  O12  1  0.80275200  0.95758500  0.90142000  1
  O  O13  1  0.30275200  0.04241500  0.59858000  1
  O  O14  1  0.19724800  0.54241500  0.40142000  1
  O  O15  1  0.69724800  0.45758500  0.09858000  1
  O  O16  1  0.87856300  0.18219700  0.09629800  1
  O  O17  1  0.37856300  0.81780300  0.40370200  1
  O  O18  1  0.12143700  0.31780300  0.59629800  1
  O  O19  1  0.62143700  0.68219700  0.90370200  1
  O  O20  1  0.12143700  0.81780300  0.90370200  1
  O  O21  1  0.62143700  0.18219700  0.59629800  1
  O  O22  1  0.87856300  0.68219700  0.40370200  1
  O  O23  1  0.37856300  0.31780300  0.09629800  1
loop_
_geom_bond_atom_site_label_1
_geom_bond_atom_site_label_2
_geom_bond_distance
_geom_bond_site_symmetry_2
Ni0 O21 2.069179 1_555
Ni0 O10 2.074319 1_555
Ni0 O2 2.102523 1_555
Ni0 O6 2.106996 1_555
Ni1 O20 2.069179 1_555
Ni1 O11 2.074319 1_555
Ni1 O3 2.102523 1_455
Ni1 O7 2.106996 1_556
Ni2 O23 2.069179 1_555
Ni2 O8 2.074319 1_555
Ni2 O0 2.102523 1_555
Ni2 O4 2.106996 1_544
Ni3 O22 2.069179 1_555
Ni3 O9 2.074319 1_555
Ni3 O1 2.102523 1_655
Ni3 O5 2.106996 1_565
Ni4 O17 2.069179 1_555
Ni4 O14 2.074319 1_555
Ni4 O6 2.102523 1_555
Ni4 O2 2.106996 1_555
Ni5 O16 2.069179 1_555
Ni5 O15 2.074319 1_555
Ni5 O7 2.102523 1_655
Ni5 O3 2.106996 1_554
Ni6 O19 2.069179 1_555
Ni6 O12 2.074319 1_555
Ni6 O4 2.102523 1_555
Ni6 O0 2.106996 1_566
Ni7 O18 2.069179 1_555
Ni7 O13 2.074319 1_555
Ni7 O5 2.102523 1_455
Ni7 O1 2.106996 1_545
H0 P0 1.407308 1_555
H1 P1 1.407308 1_555
H2 P2 1.407308 1_555
H3 P3 1.407308 1_555
H4 P4 1.407308 1_555
H5 P5 1.407308 1_555
H6 P6 1.407308 1_555
H7 P7 1.407308 1_555
H8 P0 1.411472 1_555
H9 P1 1.411472 1_555
H10 P2 1.411472 1_555
H11 P3 1.411472 1_555
H12 P4 1.411472 1_555
H13 P5 1.411472 1_555
H14 P6 1.411472 1_555
H15 P7 1.411472 1_555
H16 O8 0.996642 1_555
H16 O16 1.730038 1_455
H17 O9 0.996642 1_555
H17 O17 1.730038 1_555
H18 O10 0.996642 1_555
H18 O18 1.730038 1_655
H19 O11 0.996642 1_555
H19 O19 1.730038 1_555
H20 O12 0.996642 1_555
H20 O20 1.730038 1_655
H21 O13 0.996642 1_555
H21 O21 1.730038 1_555
H22 O14 0.996642 1_555
H22 O22 1.730038 1_455
H23 O15 0.996642 1_555
H23 O23 1.730038 1_555
H24 O8 0.981693 1_565
H25 O9 0.981693 1_545
H26 O10 0.981693 1_555
H27 O11 0.981693 1_555
H28 O12 0.981693 1_545
H29 O13 0.981693 1_565
H30 O14 0.981693 1_555
H31 O15 0.981693 1_555
Cl0 Ni7 2.465570 1_555
Cl0 Ni0 2.539580 1_555
Cl1 Ni6 2.465570 1_554
Cl1 Ni1 2.539580 1_654
Cl2 Ni5 2.465570 1_556
Cl2 Ni2 2.539580 1_556
Cl3 Ni4 2.465570 1_555
Cl3 Ni3 2.539580 1_455
Cl4 Ni3 2.465570 1_555
Cl4 Ni4 2.539580 1_555
Cl5 Ni2 2.465570 1_556
Cl5 Ni5 2.539580 1_456
Cl6 Ni1 2.465570 1_554
Cl6 Ni6 2.539580 1_554
Cl7 Ni0 2.465570 1_555
Cl7 Ni7 2.539580 1_655
O0 P0 1.544095 1_555
O1 P1 1.544095 1_555
O2 P2 1.544095 1_555
O3 P3 1.544095 1_555
O4 P4 1.544095 1_555
O5 P5 1.544095 1_555
O6 P6 1.544095 1_555
O7 P7 1.544095 1_555
O16 P0 1.533169 1_555
O17 P1 1.533169 1_555
O18 P2 1.533169 1_555
O19 P3 1.533169 1_555
O20 P4 1.533169 1_555
O21 P5 1.533169 1_555
O22 P6 1.533169 1_555
O23 P7 1.533169 1_555
