# generated using pymatgen
data_Li2WS4
_symmetry_space_group_name_H-M   'P 1'
_cell_length_a   6.77864604
_cell_length_b   6.77864604
_cell_length_c   6.77864604
_cell_angle_alpha   126.68228744
_cell_angle_beta   126.68228744
_cell_angle_gamma   78.76961684
_symmetry_Int_Tables_number   1
_chemical_formula_structural   Li2WS4
_chemical_formula_sum   'Li2 W1 S4'
_cell_volume   193.85701118
_cell_formula_units_Z   1
loop_
 _symmetry_equiv_pos_site_id
 _symmetry_equiv_pos_as_xyz
  1  'x, y, z'
loop_
 _atom_site_type_symbol
 _atom_site_label
 _atom_site_symmetry_multiplicity
 _atom_site_fract_x
 _atom_site_fract_y
 _atom_site_fract_z
 _atom_site_occupancy
  Li  Li0  1  0.50000000  0.00000000  0.50000000  1
  Li  Li1  1  0.00000000  0.50000000  0.50000000  1
  W  W0  1  0.00000000  0.00000000  0.00000000  1
  S  S0  1  0.66860700  0.09351300  0.00000000  1
  S  S1  1  0.33139300  0.33139300  0.42490700  1
  S  S2  1  0.09351300  0.66860700  0.00000000  1
  S  S3  1  0.90648700  0.90648700  0.57509300  1
loop_
_geom_bond_atom_site_label_1
_geom_bond_atom_site_label_2
_geom_bond_distance
_geom_bond_site_symmetry_2
Li0 S1 2.506537 1_555
Li0 S0 2.506540 1_556
Li0 S2 2.506540 1_545
Li0 S3 2.506542 1_545
Li1 S1 2.506537 1_555
Li1 S2 2.506540 1_556
Li1 S0 2.506540 1_455
Li1 S3 2.506542 1_455
S0 W0 2.212117 1_655
S1 W0 2.212118 1_555
S2 W0 2.212117 1_565
S3 W0 2.212124 1_666
