# generated using pymatgen
data_Al2P3H17C4(NO6)2
_symmetry_space_group_name_H-M   'P 1'
_cell_length_a   9.70055282
_cell_length_b   9.70055282
_cell_length_c   35.94680839
_cell_angle_alpha   82.05844417
_cell_angle_beta   82.05844417
_cell_angle_gamma   30.34401309
_symmetry_Int_Tables_number   1
_chemical_formula_structural   Al2P3H17C4(NO6)2
_chemical_formula_sum   'Al8 P12 H68 C16 N8 O48'
_cell_volume   1691.26831154
_cell_formula_units_Z   4
loop_
 _symmetry_equiv_pos_site_id
 _symmetry_equiv_pos_as_xyz
  1  'x, y, z'
loop_
 _atom_site_type_symbol
 _atom_site_label
 _atom_site_symmetry_multiplicity
 _atom_site_fract_x
 _atom_site_fract_y
 _atom_site_fract_z
 _atom_site_occupancy
  Al  Al0  1  0.50923600  0.06920300  0.37623300  1
  Al  Al1  1  0.93079700  0.49076400  0.12376700  1
  Al  Al2  1  0.49076400  0.93079700  0.62376700  1
  Al  Al3  1  0.06920300  0.50923600  0.87623300  1
  Al  Al4  1  0.88050400  0.31885500  0.39566800  1
  Al  Al5  1  0.68114500  0.11949600  0.10433200  1
  Al  Al6  1  0.11949600  0.68114500  0.60433200  1
  Al  Al7  1  0.31885500  0.88050400  0.89566800  1
  P  P0  1  0.75695600  0.15442300  0.36225900  1
  P  P1  1  0.84557700  0.24304400  0.13774100  1
  P  P2  1  0.24304400  0.84557700  0.63774100  1
  P  P3  1  0.15442300  0.75695600  0.86225900  1
  P  P4  1  0.43733000  0.86671600  0.43600500  1
  P  P5  1  0.13328400  0.56267100  0.06399500  1
  P  P6  1  0.56267100  0.13328400  0.56399500  1
  P  P7  1  0.86671600  0.43732900  0.93600500  1
  P  P8  1  0.95454300  0.52072200  0.33698200  1
  P  P9  1  0.47927800  0.04545700  0.16301800  1
  P  P10  1  0.04545700  0.47927800  0.66301800  1
  P  P11  1  0.52072200  0.95454300  0.83698200  1
  H  H0  1  0.33867500  0.03486300  0.23721000  1
  H  H1  1  0.96513700  0.66132500  0.26279000  1
  H  H2  1  0.66132500  0.96513700  0.76279000  1
  H  H3  1  0.03486300  0.33867500  0.73721000  1
  H  H4  1  0.12062400  0.24971700  0.27287000  1
  H  H5  1  0.75028300  0.87937600  0.22713000  1
  H  H6  1  0.87937600  0.75028300  0.72713000  1
  H  H7  1  0.24971700  0.12062400  0.77287000  1
  H  H8  1  0.68647500  0.56952500  0.49964300  1
  H  H9  1  0.43047500  0.31352500  0.00035700  1
  H  H10  1  0.31352500  0.43047500  0.50035700  1
  H  H11  1  0.56952500  0.68647500  0.99964300  1
  H  H12  1  0.02955800  0.23764600  0.49751100  1
  H  H13  1  0.76235400  0.97044200  0.00248900  1
  H  H14  1  0.97044200  0.76235400  0.50248900  1
  H  H15  1  0.23764600  0.02955800  0.99751100  1
  H  H16  1  0.35848300  0.56787300  0.33933200  1
  H  H17  1  0.43212700  0.64151700  0.16066800  1
  H  H18  1  0.64151700  0.43212700  0.66066800  1
  H  H19  1  0.56787300  0.35848300  0.83933200  1
  H  H20  1  0.88439900  0.39582900  0.21935300  1
  H  H21  1  0.60417100  0.11560100  0.28064700  1
  H  H22  1  0.11560100  0.60417100  0.78064700  1
  H  H23  1  0.39582900  0.88439900  0.71935300  1
  H  H24  1  0.82837800  0.31281300  0.25926700  1
  H  H25  1  0.68718700  0.17162200  0.24073300  1
  H  H26  1  0.17162200  0.68718700  0.74073300  1
  H  H27  1  0.31281300  0.82837800  0.75926700  1
  H  H28  1  0.06439800  0.08013400  0.22176300  1
  H  H29  1  0.91986600  0.93560200  0.27823700  1
  H  H30  1  0.93560200  0.91986600  0.77823700  1
  H  H31  1  0.08013400  0.06439800  0.72176300  1
  H  H32  1  0.50798500  0.79082400  0.29693200  1
  H  H33  1  0.20917600  0.49201500  0.20306800  1
  H  H34  1  0.49201500  0.20917600  0.70306800  1
  H  H35  1  0.79082400  0.50798500  0.79693200  1
  H  H36  1  0.44039800  0.71494900  0.26900300  1
  H  H37  1  0.28505100  0.55960200  0.23099700  1
  H  H38  1  0.55960200  0.28505100  0.73099700  1
  H  H39  1  0.71494900  0.44039800  0.76900300  1
  H  H40  1  0.20683500  0.94500200  0.30642400  1
  H  H41  1  0.05499800  0.79316500  0.19357600  1
  H  H42  1  0.79316500  0.05499800  0.69357600  1
  H  H43  1  0.94500200  0.20683500  0.80642400  1
  H  H44  1  0.93638900  0.52243000  0.52723900  1
  H  H45  1  0.47757000  0.06361100  0.97276100  1
  H  H46  1  0.06361100  0.47757000  0.47276100  1
  H  H47  1  0.52243000  0.93638900  0.02723900  1
  H  H48  1  0.08026000  0.26183500  0.55903900  1
  H  H49  1  0.73816500  0.91974000  0.94096100  1
  H  H50  1  0.91974000  0.73816500  0.44096100  1
  H  H51  1  0.26183500  0.08026000  0.05903900  1
  H  H52  1  0.72054800  0.60651300  0.56136000  1
  H  H53  1  0.39348700  0.27945200  0.93864000  1
  H  H54  1  0.27945200  0.39348700  0.43864000  1
  H  H55  1  0.60651300  0.72054800  0.06136000  1
  H  H56  1  0.77003400  0.25194200  0.51258500  1
  H  H57  1  0.74805800  0.22996600  0.98741500  1
  H  H58  1  0.22996600  0.74805800  0.48741500  1
  H  H59  1  0.25194200  0.77003400  0.01258500  1
  H  H60  1  0.62052500  0.44650100  0.55298700  1
  H  H61  1  0.55349900  0.37947500  0.94701300  1
  H  H62  1  0.37947500  0.55349900  0.44701300  1
  H  H63  1  0.44650100  0.62052500  0.05298700  1
  H  H64  1  0.97786700  0.10329900  0.55060400  1
  H  H65  1  0.89670100  0.02213300  0.94939600  1
  H  H66  1  0.02213300  0.89670100  0.44939600  1
  H  H67  1  0.10329900  0.97786700  0.05060400  1
  C  C0  1  0.97927700  0.23135600  0.23831500  1
  C  C1  1  0.76864400  0.02072300  0.26168500  1
  C  C2  1  0.02072300  0.76864400  0.76168500  1
  C  C3  1  0.23135600  0.97927700  0.73831500  1
  C  C4  1  0.34826300  0.87358800  0.28437900  1
  C  C5  1  0.12641200  0.65173700  0.21562100  1
  C  C6  1  0.65173700  0.12641200  0.71562100  1
  C  C7  1  0.87358800  0.34826300  0.78437900  1
  C  C8  1  0.90180400  0.44840000  0.54278900  1
  C  C9  1  0.55160000  0.09819600  0.95721100  1
  C  C10  1  0.09819600  0.55160000  0.45721100  1
  C  C11  1  0.44840000  0.90180400  0.04278900  1
  C  C12  1  0.80181200  0.29151600  0.53418500  1
  C  C13  1  0.70848400  0.19818800  0.96581500  1
  C  C14  1  0.19818800  0.70848400  0.46581500  1
  C  C15  1  0.29151600  0.80181200  0.03418500  1
  N  N0  1  0.20025000  0.10279900  0.25781500  1
  N  N1  1  0.89720100  0.79975000  0.24218500  1
  N  N2  1  0.79975000  0.89720100  0.74218500  1
  N  N3  1  0.10279900  0.20025000  0.75781500  1
  N  N4  1  0.85485200  0.39019800  0.51550800  1
  N  N5  1  0.60980200  0.14514800  0.98449200  1
  N  N6  1  0.14514800  0.60980200  0.48449200  1
  N  N7  1  0.39019800  0.85485200  0.01550800  1
  O  O0  1  0.03458600  0.90166500  0.34445200  1
  O  O1  1  0.09833500  0.96541400  0.15554800  1
  O  O2  1  0.96541400  0.09833500  0.65554800  1
  O  O3  1  0.90166500  0.03458600  0.84445200  1
  O  O4  1  0.36011300  0.92107200  0.47772400  1
  O  O5  1  0.07892800  0.63988700  0.02227600  1
  O  O6  1  0.63988700  0.07892800  0.52227600  1
  O  O7  1  0.92107200  0.36011300  0.97772400  1
  O  O8  1  0.69482400  0.55305100  0.43093400  1
  O  O9  1  0.44694900  0.30517600  0.06906600  1
  O  O10  1  0.30517600  0.44694900  0.56906600  1
  O  O11  1  0.55305100  0.69482400  0.93093400  1
  O  O12  1  0.17218000  0.38499300  0.36235200  1
  O  O13  1  0.61500700  0.82782000  0.13764800  1
  O  O14  1  0.82782000  0.61500700  0.63764800  1
  O  O15  1  0.38499300  0.17218000  0.86235200  1
  O  O16  1  0.04518900  0.45485100  0.29590200  1
  O  O17  1  0.54514900  0.95481100  0.20409800  1
  O  O18  1  0.95481100  0.54514900  0.70409800  1
  O  O19  1  0.45485100  0.04518900  0.79590200  1
  O  O20  1  0.88432500  0.42628500  0.35254800  1
  O  O21  1  0.57371500  0.11567500  0.14745200  1
  O  O22  1  0.11567500  0.57371500  0.64745200  1
  O  O23  1  0.42628500  0.88432500  0.85254800  1
  O  O24  1  0.21158500  0.00817500  0.41226800  1
  O  O25  1  0.99182500  0.78841500  0.08773200  1
  O  O26  1  0.78841500  0.99182500  0.58773200  1
  O  O27  1  0.00817500  0.21158500  0.91226800  1
  O  O28  1  0.64094600  0.11604100  0.38497000  1
  O  O29  1  0.88395900  0.35905400  0.11503000  1
  O  O30  1  0.35905400  0.88395900  0.61503000  1
  O  O31  1  0.11604100  0.64094600  0.88497000  1
  O  O32  1  0.50972900  0.95761100  0.41945600  1
  O  O33  1  0.04238900  0.49027100  0.08054400  1
  O  O34  1  0.49027100  0.04238900  0.58054400  1
  O  O35  1  0.95761100  0.50972900  0.91945600  1
  O  O36  1  0.69419700  0.83454300  0.34151700  1
  O  O37  1  0.16545700  0.30580300  0.15848300  1
  O  O38  1  0.30580300  0.16545700  0.65848300  1
  O  O39  1  0.83454300  0.69419700  0.84151700  1
  O  O40  1  0.73977000  0.27753700  0.39081600  1
  O  O41  1  0.72246300  0.26023000  0.10918400  1
  O  O42  1  0.26023000  0.72246300  0.60918400  1
  O  O43  1  0.27753700  0.73977000  0.89081600  1
  O  O44  1  0.54850600  0.38322800  0.33020200  1
  O  O45  1  0.61677200  0.45149400  0.16979800  1
  O  O46  1  0.45149400  0.61677200  0.66979800  1
  O  O47  1  0.38322800  0.54850600  0.83020200  1
loop_
_geom_bond_atom_site_label_1
_geom_bond_atom_site_label_2
_geom_bond_distance
_geom_bond_site_symmetry_2
Al0 O12 1.750486 1_555
Al0 O36 1.753575 1_545
Al0 O28 1.757775 1_555
Al0 O32 1.764730 1_545
Al1 O13 1.750486 1_555
Al1 O37 1.753575 1_655
Al1 O29 1.757775 1_555
Al1 O33 1.764730 1_655
Al2 O14 1.750486 1_555
Al2 O38 1.753575 1_565
Al2 O30 1.757775 1_555
Al2 O34 1.764730 1_565
Al3 O15 1.750486 1_555
Al3 O39 1.753575 1_455
Al3 O31 1.757775 1_555
Al3 O35 1.764730 1_455
Al4 O24 1.754943 1_655
Al4 O40 1.756242 1_555
Al4 O20 1.759099 1_555
Al4 O8 1.764814 1_555
Al5 O25 1.754943 1_545
Al5 O41 1.756242 1_555
Al5 O21 1.759099 1_555
Al5 O9 1.764814 1_555
Al6 O26 1.754943 1_455
Al6 O42 1.756242 1_555
Al6 O22 1.759099 1_555
Al6 O10 1.764814 1_555
Al7 O27 1.754943 1_565
Al7 O43 1.756242 1_555
Al7 O23 1.759099 1_555
Al7 O11 1.764814 1_555
H0 N0 1.057676 1_555
H0 O17 1.715664 1_545
H1 N1 1.057676 1_555
H1 O16 1.715664 1_655
H2 N2 1.057676 1_555
H2 O19 1.715664 1_565
H3 N3 1.057676 1_555
H3 O18 1.715664 1_455
H4 N0 1.057455 1_555
H4 O16 1.719071 1_555
H5 N1 1.057455 1_555
H5 O17 1.719071 1_555
H6 N2 1.057455 1_555
H6 O18 1.719071 1_555
H7 N3 1.057455 1_555
H7 O19 1.719071 1_555
H8 N4 1.047980 1_555
H9 N5 1.047980 1_554
H10 N6 1.047980 1_555
H11 N7 1.047980 1_556
H12 N4 1.055192 1_455
H13 N5 1.055192 1_564
H14 N6 1.055192 1_655
H15 N7 1.055192 1_546
H16 O44 1.005144 1_555
H16 O0 1.683860 1_555
H17 O45 1.005144 1_555
H17 O1 1.683860 1_555
H18 O46 1.005144 1_555
H18 O2 1.683860 1_555
H19 O47 1.005144 1_555
H19 O3 1.683860 1_555
C0 H20 1.093414 1_555
C0 H24 1.094410 1_555
C0 H28 1.096571 1_655
C0 N0 1.483607 1_655
C1 H21 1.093414 1_555
C1 H25 1.094410 1_555
C1 H29 1.096571 1_545
C1 N1 1.483607 1_545
C2 H22 1.093414 1_555
C2 H26 1.094410 1_555
C2 H30 1.096571 1_455
C2 N2 1.483607 1_455
C3 H23 1.093414 1_555
C3 H27 1.094410 1_555
C3 H31 1.096571 1_565
C3 N3 1.483607 1_565
C4 H32 1.093086 1_555
C4 H36 1.094099 1_555
C4 H40 1.095868 1_555
C4 N0 1.482933 1_565
C5 H33 1.093086 1_555
C5 H37 1.094099 1_555
C5 H41 1.095868 1_555
C5 N1 1.482933 1_455
C6 H34 1.093086 1_555
C6 H38 1.094099 1_555
C6 H42 1.095868 1_555
C6 N2 1.482933 1_545
C7 H35 1.093086 1_555
C7 H39 1.094099 1_555
C7 H43 1.095868 1_555
C7 N3 1.482933 1_655
C8 H48 1.092285 1_655
C8 H52 1.092485 1_555
C8 H44 1.092623 1_555
C8 N4 1.485992 1_555
C9 H49 1.092285 1_545
C9 H53 1.092485 1_555
C9 H45 1.092623 1_555
C9 N5 1.485992 1_555
C10 H50 1.092285 1_455
C10 H54 1.092485 1_555
C10 H46 1.092623 1_555
C10 N6 1.485992 1_555
C11 H51 1.092285 1_565
C11 H55 1.092485 1_555
C11 H47 1.092623 1_555
C11 N7 1.485992 1_555
C12 H64 1.094238 1_555
C12 H56 1.094547 1_555
C12 H60 1.094827 1_555
C12 N4 1.486242 1_555
C13 H65 1.094238 1_555
C13 H57 1.094547 1_555
C13 H61 1.094827 1_555
C13 N5 1.486242 1_555
C14 H66 1.094238 1_555
C14 H58 1.094547 1_555
C14 H62 1.094827 1_555
C14 N6 1.486242 1_555
C15 H67 1.094238 1_555
C15 H59 1.094547 1_555
C15 H63 1.094827 1_555
C15 N7 1.486242 1_555
O0 P0 1.494820 1_465
O1 P1 1.494820 1_465
O2 P2 1.494820 1_645
O3 P3 1.494820 1_645
O4 P4 1.521344 1_555
O5 P5 1.521344 1_555
O6 P6 1.521344 1_555
O7 P7 1.521344 1_555
O8 P4 1.562025 1_555
O9 P5 1.562024 1_555
O10 P6 1.562024 1_555
O11 P7 1.562024 1_555
O12 P8 1.557186 1_455
O13 P9 1.557186 1_565
O14 P10 1.557186 1_655
O15 P11 1.557186 1_545
O16 P8 1.514683 1_455
O17 P9 1.514683 1_565
O18 P10 1.514683 1_655
O19 P11 1.514683 1_545
O20 P8 1.564083 1_555
O21 P9 1.564083 1_555
O22 P10 1.564083 1_555
O23 P11 1.564083 1_555
O24 P4 1.553277 1_545
O25 P5 1.553270 1_655
O26 P6 1.553270 1_565
O27 P7 1.553270 1_455
O28 P0 1.567449 1_555
O29 P1 1.567449 1_555
O30 P2 1.567449 1_555
O31 P3 1.567449 1_555
O32 P4 1.559815 1_555
O33 P5 1.559824 1_555
O34 P6 1.559824 1_555
O35 P7 1.559824 1_555
O36 P8 1.557397 1_555
O37 P9 1.557397 1_555
O38 P10 1.557397 1_555
O39 P11 1.557397 1_555
O40 P0 1.567060 1_555
O41 P1 1.567060 1_555
O42 P2 1.567060 1_555
O43 P3 1.567060 1_555
O44 P0 1.591754 1_555
O45 P1 1.591754 1_555
O46 P2 1.591754 1_555
O47 P3 1.591754 1_555
