# generated using pymatgen
data_Li2P3NO9
_symmetry_space_group_name_H-M   'P 1'
_cell_length_a   10.71335600
_cell_length_b   12.46490200
_cell_length_c   13.24153600
_cell_angle_alpha   90.00000000
_cell_angle_beta   90.00000000
_cell_angle_gamma   90.00000000
_symmetry_Int_Tables_number   1
_chemical_formula_structural   Li2P3NO9
_chemical_formula_sum   'Li16 P24 N8 O72'
_cell_volume   1768.28706691
_cell_formula_units_Z   8
loop_
 _symmetry_equiv_pos_site_id
 _symmetry_equiv_pos_as_xyz
  1  'x, y, z'
loop_
 _atom_site_type_symbol
 _atom_site_label
 _atom_site_symmetry_multiplicity
 _atom_site_fract_x
 _atom_site_fract_y
 _atom_site_fract_z
 _atom_site_occupancy
  Li  Li0  1  0.08259700  0.66749200  0.18117500  1
  Li  Li1  1  0.91740300  0.16749200  0.31882500  1
  Li  Li2  1  0.41740300  0.33250800  0.68117500  1
  Li  Li3  1  0.58259700  0.83250800  0.81882500  1
  Li  Li4  1  0.91740300  0.33250800  0.81882500  1
  Li  Li5  1  0.08259700  0.83250800  0.68117500  1
  Li  Li6  1  0.58259700  0.66749200  0.31882500  1
  Li  Li7  1  0.41740300  0.16749200  0.18117500  1
  Li  Li8  1  0.40665400  0.83268500  0.32307500  1
  Li  Li9  1  0.59334600  0.33268500  0.17692500  1
  Li  Li10  1  0.09334600  0.16731500  0.82307500  1
  Li  Li11  1  0.90665400  0.66731500  0.67692500  1
  Li  Li12  1  0.59334600  0.16731500  0.67692500  1
  Li  Li13  1  0.40665400  0.66731500  0.82307500  1
  Li  Li14  1  0.90665400  0.83268500  0.17692500  1
  Li  Li15  1  0.09334600  0.33268500  0.32307500  1
  P  P0  1  0.31182100  0.41133500  0.19517500  1
  P  P1  1  0.68817900  0.91133500  0.30482500  1
  P  P2  1  0.18817900  0.58866500  0.69517500  1
  P  P3  1  0.81182100  0.08866500  0.80482500  1
  P  P4  1  0.68817900  0.58866500  0.80482500  1
  P  P5  1  0.31182100  0.08866500  0.69517500  1
  P  P6  1  0.81182100  0.41133500  0.30482500  1
  P  P7  1  0.18817900  0.91133500  0.19517500  1
  P  P8  1  0.25540300  0.54759700  0.01477700  1
  P  P9  1  0.74459700  0.04759700  0.48522300  1
  P  P10  1  0.24459700  0.45240300  0.51477700  1
  P  P11  1  0.75540300  0.95240300  0.98522300  1
  P  P12  1  0.74459700  0.45240300  0.98522300  1
  P  P13  1  0.25540300  0.95240300  0.51477700  1
  P  P14  1  0.75540300  0.54759700  0.48522300  1
  P  P15  1  0.24459700  0.04759700  0.01477700  1
  P  P16  1  0.29713200  0.59236900  0.34060900  1
  P  P17  1  0.70286800  0.09236900  0.15939100  1
  P  P18  1  0.20286800  0.40763100  0.84060900  1
  P  P19  1  0.79713200  0.90763100  0.65939100  1
  P  P20  1  0.70286800  0.40763100  0.65939100  1
  P  P21  1  0.29713200  0.90763100  0.84060900  1
  P  P22  1  0.79713200  0.59236900  0.15939100  1
  P  P23  1  0.20286800  0.09236900  0.34060900  1
  N  N0  1  0.99522400  0.75826100  0.42842900  1
  N  N1  1  0.00477600  0.25826100  0.07157100  1
  N  N2  1  0.50477600  0.24173900  0.92842900  1
  N  N3  1  0.49522400  0.74173900  0.57157100  1
  N  N4  1  0.00477600  0.24173900  0.57157100  1
  N  N5  1  0.99522400  0.74173900  0.92842900  1
  N  N6  1  0.49522400  0.75826100  0.07157100  1
  N  N7  1  0.50477600  0.25826100  0.42842900  1
  O  O0  1  0.08913800  0.82715700  0.18356600  1
  O  O1  1  0.91086200  0.32715700  0.31643400  1
  O  O2  1  0.41086200  0.17284300  0.68356600  1
  O  O3  1  0.58913800  0.67284300  0.81643400  1
  O  O4  1  0.91086200  0.17284300  0.81643400  1
  O  O5  1  0.08913800  0.67284300  0.68356600  1
  O  O6  1  0.58913800  0.82715700  0.31643400  1
  O  O7  1  0.41086200  0.32715700  0.18356600  1
  O  O8  1  0.32176200  0.87833100  0.19949900  1
  O  O9  1  0.67823800  0.37833100  0.30050100  1
  O  O10  1  0.17823800  0.12166900  0.69949900  1
  O  O11  1  0.82176200  0.62166900  0.80050100  1
  O  O12  1  0.67823800  0.12166900  0.80050100  1
  O  O13  1  0.32176200  0.62166900  0.69949900  1
  O  O14  1  0.82176200  0.87833100  0.30050100  1
  O  O15  1  0.17823800  0.37833100  0.19949900  1
  O  O16  1  0.16473800  0.00080100  0.10761300  1
  O  O17  1  0.83526200  0.50080100  0.39238700  1
  O  O18  1  0.33526200  0.99919900  0.60761300  1
  O  O19  1  0.66473800  0.49919900  0.89238700  1
  O  O20  1  0.83526200  0.99919900  0.89238700  1
  O  O21  1  0.16473800  0.49919900  0.60761300  1
  O  O22  1  0.66473800  0.00080100  0.39238700  1
  O  O23  1  0.33526200  0.50080100  0.10761300  1
  O  O24  1  0.15084300  0.97997900  0.29461900  1
  O  O25  1  0.84915700  0.47997900  0.20538100  1
  O  O26  1  0.34915700  0.02002100  0.79461900  1
  O  O27  1  0.65084300  0.52002100  0.70538100  1
  O  O28  1  0.84915700  0.02002100  0.70538100  1
  O  O29  1  0.15084300  0.52002100  0.79461900  1
  O  O30  1  0.65084300  0.97997900  0.20538100  1
  O  O31  1  0.34915700  0.47997900  0.29461900  1
  O  O32  1  0.34247300  0.89008000  0.44867800  1
  O  O33  1  0.65752700  0.39008000  0.05132200  1
  O  O34  1  0.15752700  0.10992000  0.94867800  1
  O  O35  1  0.84247300  0.60992000  0.55132200  1
  O  O36  1  0.65752700  0.10992000  0.55132200  1
  O  O37  1  0.34247300  0.60992000  0.94867800  1
  O  O38  1  0.84247300  0.89008000  0.05132200  1
  O  O39  1  0.15752700  0.39008000  0.44867800  1
  O  O40  1  0.14257900  0.60591800  0.05439800  1
  O  O41  1  0.85742100  0.10591800  0.44560200  1
  O  O42  1  0.35742100  0.39408200  0.55439800  1
  O  O43  1  0.64257900  0.89408200  0.94560200  1
  O  O44  1  0.85742100  0.39408200  0.94560200  1
  O  O45  1  0.14257900  0.89408200  0.55439800  1
  O  O46  1  0.64257900  0.60591800  0.44560200  1
  O  O47  1  0.35742100  0.10591800  0.05439800  1
  O  O48  1  0.28898600  0.56181300  0.45949800  1
  O  O49  1  0.71101400  0.06181300  0.04050200  1
  O  O50  1  0.21101400  0.43818700  0.95949800  1
  O  O51  1  0.78898600  0.93818700  0.54050200  1
  O  O52  1  0.71101400  0.43818700  0.54050200  1
  O  O53  1  0.28898600  0.93818700  0.95949800  1
  O  O54  1  0.78898600  0.56181300  0.04050200  1
  O  O55  1  0.21101400  0.06181300  0.45949800  1
  O  O56  1  0.16989400  0.61826900  0.30143400  1
  O  O57  1  0.83010600  0.11826900  0.19856600  1
  O  O58  1  0.33010600  0.38173100  0.80143400  1
  O  O59  1  0.66989400  0.88173100  0.69856600  1
  O  O60  1  0.83010600  0.38173100  0.69856600  1
  O  O61  1  0.16989400  0.88173100  0.80143400  1
  O  O62  1  0.66989400  0.61826900  0.19856600  1
  O  O63  1  0.33010600  0.11826900  0.30143400  1
  O  O64  1  0.39824800  0.67435000  0.32931700  1
  O  O65  1  0.60175200  0.17435000  0.17068300  1
  O  O66  1  0.10175200  0.32565000  0.82931700  1
  O  O67  1  0.89824800  0.82565000  0.67068300  1
  O  O68  1  0.60175200  0.32565000  0.67068300  1
  O  O69  1  0.39824800  0.82565000  0.82931700  1
  O  O70  1  0.89824800  0.67435000  0.17068300  1
  O  O71  1  0.10175200  0.17435000  0.32931700  1
loop_
_geom_bond_atom_site_label_1
_geom_bond_atom_site_label_2
_geom_bond_distance
_geom_bond_site_symmetry_2
Li0 O56 1.946001 1_555
Li0 O40 1.954516 1_555
Li0 O70 1.981722 1_455
Li0 O0 1.991694 1_555
Li1 O57 1.946001 1_555
Li1 O41 1.954516 1_555
Li1 O71 1.981722 1_655
Li1 O1 1.991694 1_555
Li2 O58 1.946001 1_555
Li2 O42 1.954516 1_555
Li2 O68 1.981722 1_555
Li2 O2 1.991694 1_555
Li3 O59 1.946001 1_555
Li3 O43 1.954516 1_555
Li3 O69 1.981722 1_555
Li3 O3 1.991694 1_555
Li4 O60 1.946001 1_555
Li4 O44 1.954516 1_555
Li4 O66 1.981722 1_655
Li4 O4 1.991694 1_555
Li5 O61 1.946001 1_555
Li5 O45 1.954516 1_555
Li5 O67 1.981722 1_455
Li5 O5 1.991694 1_555
Li6 O62 1.946001 1_555
Li6 O46 1.954516 1_555
Li6 O64 1.981722 1_555
Li6 O6 1.991694 1_555
Li7 O63 1.946001 1_555
Li7 O47 1.954516 1_555
Li7 O65 1.981722 1_555
Li7 O7 1.991694 1_555
Li8 O32 1.936691 1_555
Li8 O8 1.956649 1_555
Li8 O6 1.958205 1_555
Li8 O64 1.977412 1_555
Li9 O33 1.936691 1_555
Li9 O9 1.956649 1_555
Li9 O7 1.958205 1_555
Li9 O65 1.977412 1_555
Li10 O34 1.936691 1_555
Li10 O10 1.956649 1_555
Li10 O4 1.958205 1_455
Li10 O66 1.977412 1_555
Li11 O35 1.936691 1_555
Li11 O11 1.956649 1_555
Li11 O5 1.958205 1_655
Li11 O67 1.977412 1_555
Li12 O36 1.936691 1_555
Li12 O12 1.956649 1_555
Li12 O2 1.958205 1_555
Li12 O68 1.977412 1_555
Li13 O37 1.936691 1_555
Li13 O13 1.956649 1_555
Li13 O3 1.958205 1_555
Li13 O69 1.977412 1_555
Li14 O38 1.936691 1_555
Li14 O14 1.956649 1_555
Li14 O0 1.958205 1_655
Li14 O70 1.977412 1_555
Li15 O39 1.936691 1_555
Li15 O15 1.956649 1_555
Li15 O1 1.958205 1_455
Li15 O71 1.977412 1_555
O0 P7 1.500150 1_555
O1 P6 1.500150 1_555
O2 P5 1.500150 1_555
O3 P4 1.500150 1_555
O4 P3 1.500150 1_555
O5 P2 1.500150 1_555
O6 P1 1.500150 1_555
O7 P0 1.500150 1_555
O8 P7 1.490179 1_555
O9 P6 1.490179 1_555
O10 P5 1.490179 1_555
O11 P4 1.490179 1_555
O12 P3 1.490179 1_555
O13 P2 1.490179 1_555
O14 P1 1.490179 1_555
O15 P0 1.490179 1_555
O16 P15 1.607291 1_555
O16 P7 1.628202 1_545
O17 P14 1.607291 1_555
O17 P6 1.628202 1_555
O18 P13 1.607291 1_555
O18 P5 1.628202 1_565
O19 P12 1.607291 1_555
O19 P4 1.628202 1_555
O20 P11 1.607291 1_555
O20 P3 1.628202 1_565
O21 P10 1.607291 1_555
O21 P2 1.628202 1_555
O22 P9 1.607291 1_555
O22 P1 1.628202 1_545
O23 P8 1.607291 1_555
O23 P0 1.628202 1_555
O24 P7 1.620511 1_555
O24 P23 1.626073 1_565
O25 P6 1.620511 1_555
O25 P22 1.626073 1_555
O26 P5 1.620511 1_555
O26 P21 1.626073 1_545
O27 P4 1.620511 1_555
O27 P20 1.626073 1_555
O28 P3 1.620511 1_555
O28 P19 1.626073 1_545
O29 P2 1.620511 1_555
O29 P18 1.626073 1_555
O30 P1 1.620511 1_555
O30 P17 1.626073 1_565
O31 P0 1.620511 1_555
O31 P16 1.626073 1_555
O32 P13 1.496563 1_555
O33 P12 1.496563 1_554
O34 P15 1.496563 1_556
O35 P14 1.496563 1_555
O36 P9 1.496563 1_555
O37 P8 1.496563 1_556
O38 P11 1.496563 1_554
O39 P10 1.496563 1_555
O40 P8 1.504906 1_555
O41 P9 1.504906 1_555
O42 P10 1.504906 1_555
O43 P11 1.504906 1_555
O44 P12 1.504906 1_555
O45 P13 1.504906 1_555
O46 P14 1.504906 1_555
O47 P15 1.504906 1_555
O48 P10 1.619214 1_555
O48 P16 1.622042 1_555
O49 P11 1.619214 1_544
O49 P17 1.622042 1_555
O50 P8 1.619214 1_556
O50 P18 1.622042 1_555
O51 P9 1.619214 1_565
O51 P19 1.622042 1_555
O52 P14 1.619214 1_555
O52 P20 1.622042 1_555
O53 P15 1.619214 1_566
O53 P21 1.622042 1_555
O54 P12 1.619214 1_554
O54 P22 1.622042 1_555
O55 P13 1.619214 1_545
O55 P23 1.622042 1_555
O56 P16 1.493814 1_555
O57 P17 1.493814 1_555
O58 P18 1.493814 1_555
O59 P19 1.493814 1_555
O60 P20 1.493814 1_555
O61 P21 1.493814 1_555
O62 P22 1.493814 1_555
O63 P23 1.493814 1_555
O64 P16 1.496706 1_555
O65 P17 1.496706 1_555
O66 P18 1.496706 1_555
O67 P19 1.496706 1_555
O68 P20 1.496706 1_555
O69 P21 1.496706 1_555
O70 P22 1.496706 1_555
O71 P23 1.496706 1_555
