# generated using pymatgen
data_Mg3Te4O11
_symmetry_space_group_name_H-M   'P 1'
_cell_length_a   8.20094400
_cell_length_b   8.29885900
_cell_length_c   8.92046606
_cell_angle_alpha   65.36461301
_cell_angle_beta   70.21186491
_cell_angle_gamma   75.79740348
_symmetry_Int_Tables_number   1
_chemical_formula_structural   Mg3Te4O11
_chemical_formula_sum   'Mg6 Te8 O22'
_cell_volume   515.39643949
_cell_formula_units_Z   2
loop_
 _symmetry_equiv_pos_site_id
 _symmetry_equiv_pos_as_xyz
  1  'x, y, z'
loop_
 _atom_site_type_symbol
 _atom_site_label
 _atom_site_symmetry_multiplicity
 _atom_site_fract_x
 _atom_site_fract_y
 _atom_site_fract_z
 _atom_site_occupancy
  Mg  Mg0  1  0.41041200  0.01399600  0.35380500  1
  Mg  Mg1  1  0.58958800  0.98600400  0.64619500  1
  Mg  Mg2  1  0.97688900  0.18614200  0.65156400  1
  Mg  Mg3  1  0.44773300  0.69820100  0.10657700  1
  Mg  Mg4  1  0.02311100  0.81385800  0.34843600  1
  Mg  Mg5  1  0.55226700  0.30179900  0.89342300  1
  Te  Te0  1  0.24088000  0.72722600  0.77324000  1
  Te  Te1  1  0.81678400  0.62823100  0.78034700  1
  Te  Te2  1  0.18321600  0.37176900  0.21965300  1
  Te  Te3  1  0.75912000  0.27277400  0.22676000  1
  Te  Te4  1  0.29736400  0.46018300  0.54832700  1
  Te  Te5  1  0.80329100  0.89888100  0.05313100  1
  Te  Te6  1  0.70263600  0.53981700  0.45167300  1
  Te  Te7  1  0.19670900  0.10111900  0.94686900  1
  O  O0  1  0.83800700  0.83798700  0.56940700  1
  O  O1  1  0.36633400  0.22410500  0.12161800  1
  O  O2  1  0.16199300  0.16201300  0.43059300  1
  O  O3  1  0.42547400  0.85716700  0.60670900  1
  O  O4  1  0.57452600  0.14283300  0.39329100  1
  O  O5  1  0.68396900  0.37107100  0.02569100  1
  O  O6  1  0.30142200  0.48927400  0.29123500  1
  O  O7  1  0.31603100  0.62892900  0.97430900  1
  O  O8  1  0.92262800  0.62339700  0.33509500  1
  O  O9  1  0.78495800  0.29379700  0.52025800  1
  O  O10  1  0.07737200  0.37660300  0.66490500  1
  O  O11  1  0.66248600  0.51652700  0.24293700  1
  O  O12  1  0.63366600  0.77589500  0.87838200  1
  O  O13  1  0.12229700  0.99614800  0.82961500  1
  O  O14  1  0.23832300  0.89062700  0.13458300  1
  O  O15  1  0.33751400  0.48347300  0.75706300  1
  O  O16  1  0.21504200  0.70620300  0.47974200  1
  O  O17  1  0.76167700  0.10937300  0.86541700  1
  O  O18  1  0.87770300  0.00385200  0.17038500  1
  O  O19  1  0.43150900  0.12499700  0.80229300  1
  O  O20  1  0.56849100  0.87500300  0.19770700  1
  O  O21  1  0.69857800  0.51072600  0.70876500  1
loop_
_geom_bond_atom_site_label_1
_geom_bond_atom_site_label_2
_geom_bond_distance
_geom_bond_site_symmetry_2
Mg0 O20 2.081618 1_545
Mg0 O4 2.102324 1_555
Mg0 O3 2.112041 1_545
Mg0 O1 2.155867 1_555
Mg0 O2 2.158050 1_555
Mg1 O19 2.081618 1_565
Mg1 O3 2.102324 1_555
Mg1 O4 2.112041 1_565
Mg1 O12 2.155867 1_555
Mg1 O0 2.158050 1_555
Mg2 O10 2.013435 1_655
Mg2 O9 2.081713 1_555
Mg2 O2 2.093768 1_655
Mg2 O17 2.102128 1_555
Mg2 O13 2.168585 1_645
Mg3 O12 2.042329 1_554
Mg3 O14 2.063550 1_555
Mg3 O6 2.112090 1_555
Mg3 O7 2.149939 1_554
Mg3 O11 2.339466 1_555
Mg3 O20 2.459053 1_555
Mg4 O8 2.013435 1_455
Mg4 O16 2.081713 1_555
Mg4 O0 2.093768 1_455
Mg4 O14 2.102128 1_555
Mg4 O18 2.168585 1_465
Mg5 O1 2.042329 1_556
Mg5 O17 2.063550 1_555
Mg5 O21 2.112090 1_555
Mg5 O5 2.149939 1_556
Mg5 O15 2.339466 1_555
Mg5 O19 2.459053 1_555
O0 Te1 1.948682 1_555
O1 Te2 1.903391 1_555
O2 Te2 1.948682 1_555
O3 Te0 1.898491 1_555
O4 Te3 1.898491 1_555
O5 Te3 1.882645 1_555
O5 Te1 2.482635 1_554
O6 Te2 1.923674 1_555
O6 Te4 2.193094 1_555
O7 Te0 1.882645 1_555
O7 Te2 2.482635 1_556
O8 Te6 1.886760 1_555
O9 Te6 1.886927 1_555
O10 Te4 1.886760 1_555
O11 Te3 2.029817 1_555
O11 Te6 2.087892 1_555
O12 Te1 1.903391 1_555
O13 Te7 1.917811 1_565
O13 Te0 2.391414 1_555
O14 Te7 1.904644 1_564
O15 Te0 2.029817 1_555
O15 Te4 2.087892 1_555
O16 Te4 1.886927 1_555
O17 Te5 1.904644 1_546
O18 Te5 1.917811 1_545
O18 Te3 2.391414 1_555
O19 Te7 1.924351 1_555
O20 Te5 1.924351 1_555
O21 Te1 1.923674 1_555
O21 Te6 2.193094 1_555
