# generated using pymatgen
data_Ge11N11O5
_symmetry_space_group_name_H-M   'P 1'
_cell_length_a   5.91496864
_cell_length_b   5.91496864
_cell_length_c   10.18740836
_cell_angle_alpha   73.36425771
_cell_angle_beta   73.36425771
_cell_angle_gamma   60.01856095
_symmetry_Int_Tables_number   1
_chemical_formula_structural   Ge11N11O5
_chemical_formula_sum   'Ge11 N11 O5'
_cell_volume   291.37087317
_cell_formula_units_Z   1
loop_
 _symmetry_equiv_pos_site_id
 _symmetry_equiv_pos_as_xyz
  1  'x, y, z'
loop_
 _atom_site_type_symbol
 _atom_site_label
 _atom_site_symmetry_multiplicity
 _atom_site_fract_x
 _atom_site_fract_y
 _atom_site_fract_z
 _atom_site_occupancy
  Ge  Ge0  1  0.06320300  0.06320300  0.31134700  1
  Ge  Ge1  1  0.31294000  0.31294000  0.05999300  1
  Ge  Ge2  1  0.00136200  0.00136200  0.99432400  1
  Ge  Ge3  1  0.56284200  0.05845800  0.81485500  1
  Ge  Ge4  1  0.07285600  0.56483900  0.30587800  1
  Ge  Ge5  1  0.56483900  0.07285600  0.30587800  1
  Ge  Ge6  1  0.62707100  0.62707100  0.12613700  1
  Ge  Ge7  1  0.56356000  0.56356000  0.81292900  1
  Ge  Ge8  1  0.81537900  0.81537900  0.56867800  1
  Ge  Ge9  1  0.48991100  0.48991100  0.50521300  1
  Ge  Ge10  1  0.05845800  0.56284200  0.81485500  1
  N  N0  1  0.69804400  0.15588000  0.43670300  1
  N  N1  1  0.95612800  0.42746800  0.19274800  1
  N  N2  1  0.42890100  0.42890100  0.18944100  1
  N  N3  1  0.93362100  0.93362100  0.19788800  1
  N  N4  1  0.19939100  0.19939100  0.93069600  1
  N  N5  1  0.43011100  0.43011100  0.70333200  1
  N  N6  1  0.66917000  0.20035500  0.93037600  1
  N  N7  1  0.15588000  0.69804400  0.43670300  1
  N  N8  1  0.20035500  0.66917000  0.93037600  1
  N  N9  1  0.42746800  0.95612800  0.19274800  1
  N  N10  1  0.69074900  0.69074900  0.92865400  1
  O  O0  1  0.19878300  0.19878300  0.40816200  1
  O  O1  1  0.69864700  0.69864700  0.43757400  1
  O  O2  1  0.47864100  0.91213000  0.69562500  1
  O  O3  1  0.91213000  0.47864100  0.69562500  1
  O  O4  1  0.91456000  0.91456000  0.69826300  1
loop_
_geom_bond_atom_site_label_1
_geom_bond_atom_site_label_2
_geom_bond_distance
_geom_bond_site_symmetry_2
Ge0 O0 1.951296 1_555
Ge0 N9 2.021641 1_545
Ge0 N1 2.021641 1_455
Ge0 N3 2.027962 1_445
Ge0 N7 2.057838 1_545
Ge0 N0 2.057838 1_455
Ge1 N4 2.025130 1_554
Ge1 N8 2.033450 1_554
Ge1 N6 2.033450 1_554
Ge1 N2 2.045979 1_555
Ge1 N1 2.050279 1_455
Ge1 N9 2.050279 1_545
Ge2 N8 1.911306 1_545
Ge2 N6 1.911306 1_455
Ge2 N4 1.914683 1_555
Ge2 N3 1.957196 1_446
Ge3 O2 1.962575 1_545
Ge3 O4 1.964075 1_545
Ge3 N6 2.000482 1_555
Ge3 N4 2.007184 1_555
Ge3 N10 2.015153 1_545
Ge3 N5 2.023738 1_555
Ge4 O0 1.967090 1_555
Ge4 N2 1.977912 1_555
Ge4 N3 1.999012 1_455
Ge4 N7 2.000235 1_555
Ge4 N1 2.004422 1_455
Ge4 O1 2.117191 1_455
Ge5 O0 1.967090 1_555
Ge5 N2 1.977912 1_555
Ge5 N3 1.999012 1_545
Ge5 N0 2.000235 1_555
Ge5 N9 2.004422 1_545
Ge5 O1 2.117191 1_545
Ge6 N10 1.898755 1_554
Ge6 N1 1.908816 1_555
Ge6 N9 1.908816 1_555
Ge6 N2 1.916094 1_555
Ge7 O3 1.956840 1_555
Ge7 O2 1.956840 1_555
Ge7 N8 2.012979 1_555
Ge7 N6 2.012979 1_555
Ge7 N10 2.025636 1_555
Ge7 N5 2.030931 1_555
Ge8 O4 1.913614 1_555
Ge8 O3 1.943430 1_555
Ge8 O2 1.943430 1_555
Ge8 N0 1.983059 1_565
Ge8 N7 1.983059 1_655
Ge8 O1 2.066364 1_555
Ge9 N5 1.905611 1_555
Ge9 N7 1.942425 1_555
Ge9 N0 1.942425 1_555
Ge9 O1 2.018146 1_555
Ge10 O3 1.962575 1_455
Ge10 O4 1.964075 1_455
Ge10 N8 2.000482 1_555
Ge10 N4 2.007184 1_555
Ge10 N10 2.015153 1_455
Ge10 N5 2.023738 1_555
