# generated using pymatgen
data_K2Pt(I2O)2
_symmetry_space_group_name_H-M   'P 1'
_cell_length_a   11.47072100
_cell_length_b   7.74995390
_cell_length_c   13.87177628
_cell_angle_alpha   90.06725882
_cell_angle_beta   90.24132673
_cell_angle_gamma   90.55828005
_symmetry_Int_Tables_number   1
_chemical_formula_structural   K2Pt(I2O)2
_chemical_formula_sum   'K8 Pt4 I16 O8'
_cell_volume   1233.09666190
_cell_formula_units_Z   4
loop_
 _symmetry_equiv_pos_site_id
 _symmetry_equiv_pos_as_xyz
  1  'x, y, z'
loop_
 _atom_site_type_symbol
 _atom_site_label
 _atom_site_symmetry_multiplicity
 _atom_site_fract_x
 _atom_site_fract_y
 _atom_site_fract_z
 _atom_site_occupancy
  K  K0  1  0.63156800  0.30893100  0.66768800  1
  K  K1  1  0.13737900  0.19537000  0.33128000  1
  K  K2  1  0.36502400  0.80313900  0.82947800  1
  K  K3  1  0.87157000  0.68788100  0.16699500  1
  K  K4  1  0.36964600  0.69203000  0.33111200  1
  K  K5  1  0.86215800  0.79923800  0.67275200  1
  K  K6  1  0.63523800  0.19605200  0.17058000  1
  K  K7  1  0.12655800  0.31706200  0.83515800  1
  Pt  Pt0  1  0.49994000  0.99966500  0.49935100  1
  Pt  Pt1  1  0.99999200  0.50093600  0.49951200  1
  Pt  Pt2  1  0.49905800  0.49764700  0.99880900  1
  Pt  Pt3  1  0.00181000  0.00052300  0.00106100  1
  I  I0  1  0.43949200  0.22635400  0.36790900  1
  I  I1  1  0.93454600  0.27770000  0.63197400  1
  I  I2  1  0.56840100  0.71693100  0.13255500  1
  I  I3  1  0.06381900  0.78065100  0.86814800  1
  I  I4  1  0.56097700  0.77611300  0.63158300  1
  I  I5  1  0.06722000  0.72226700  0.36713800  1
  I  I6  1  0.43045300  0.27782300  0.86537300  1
  I  I7  1  0.93819900  0.22213500  0.13432400  1
  I  I8  1  0.67621800  0.86075300  0.40753700  1
  I  I9  1  0.17510500  0.64380400  0.59440100  1
  I  I10  1  0.32405300  0.35692300  0.09326700  1
  I  I11  1  0.82424600  0.13833200  0.90854300  1
  I  I12  1  0.32314700  0.13673900  0.59122500  1
  I  I13  1  0.82332300  0.35926900  0.40642800  1
  I  I14  1  0.67516400  0.64080000  0.90626400  1
  I  I15  1  0.17913600  0.86333200  0.09334500  1
  O  O0  1  0.79256800  0.45021000  0.28119100  1
  O  O1  1  0.29123800  0.03854600  0.71365100  1
  O  O2  1  0.21143600  0.95478200  0.21717500  1
  O  O3  1  0.70419800  0.55472100  0.78044000  1
  O  O4  1  0.20276800  0.55493800  0.72021400  1
  O  O5  1  0.70535800  0.95099200  0.28244400  1
  O  O6  1  0.79409400  0.04774000  0.78382800  1
  O  O7  1  0.29490100  0.44967400  0.21727000  1
loop_
_geom_bond_atom_site_label_1
_geom_bond_atom_site_label_2
_geom_bond_distance
_geom_bond_site_symmetry_2
K0 O3 2.592297 1_555
K0 O6 3.197573 1_555
K0 Pt0 3.655656 1_545
K1 O2 2.595921 1_545
K1 O7 3.100369 1_555
K1 Pt1 3.691657 1_455
K2 O1 2.579119 1_565
K2 O4 3.059575 1_555
K2 Pt2 3.679687 1_555
K3 O0 2.590318 1_555
K3 O5 3.232878 1_555
K3 Pt3 3.656832 1_665
K4 O7 2.589789 1_555
K4 O2 3.161240 1_555
K4 Pt0 3.640405 1_555
K5 O6 2.593293 1_565
K5 O3 3.011327 1_555
K5 Pt1 3.702646 1_555
K6 O5 2.586122 1_545
K6 O0 3.064518 1_555
K6 Pt2 3.692391 1_554
K7 O4 2.586965 1_555
K7 O1 3.341569 1_555
K7 Pt3 3.651645 1_556
I0 Pt0 2.629141 1_545
I0 K1 3.506262 1_555
I0 K6 3.556699 1_555
I0 K4 3.739561 1_555
I1 Pt1 2.631886 1_555
I1 K0 3.523191 1_555
I1 K7 3.580615 1_655
I1 K5 3.835104 1_545
I2 Pt2 2.629967 1_554
I2 K3 3.517657 1_555
I2 K4 3.587056 1_555
I2 K6 3.819703 1_565
I3 Pt3 2.614614 1_566
I3 K2 3.501358 1_555
I3 K5 3.559913 1_455
I3 K7 3.699298 1_555
I4 Pt0 2.622350 1_555
I4 K5 3.502103 1_555
I4 K2 3.562556 1_555
I4 K0 3.751467 1_555
I5 Pt1 2.627233 1_455
I5 K4 3.516973 1_555
I5 K3 3.570692 1_455
I5 K1 3.780033 1_565
I6 Pt2 2.627168 1_555
I6 K7 3.525374 1_555
I6 K0 3.597772 1_555
I6 K2 3.779335 1_545
I7 Pt3 2.632069 1_655
I7 K6 3.517380 1_555
I7 K1 3.561681 1_655
I7 K3 3.724369 1_555
I8 O5 1.901349 1_555
I8 Pt0 2.632608 1_555
I9 O4 1.903502 1_555
I9 Pt1 2.631398 1_455
I10 O7 1.895793 1_555
I10 Pt2 2.630388 1_554
I11 O6 1.895491 1_555
I11 Pt3 2.638149 1_656
I12 O1 1.897374 1_555
I12 Pt0 2.631707 1_545
I13 O0 1.908353 1_555
I13 Pt1 2.628835 1_555
I14 O3 1.899703 1_555
I14 Pt2 2.634588 1_555
I15 O2 1.891263 1_555
I15 Pt3 2.632490 1_565
