# generated using pymatgen
data_V3(O2F)2
_symmetry_space_group_name_H-M   'P 1'
_cell_length_a   4.60997765
_cell_length_b   7.46224045
_cell_length_c   5.51359783
_cell_angle_alpha   94.89541458
_cell_angle_beta   90.00007896
_cell_angle_gamma   90.00077626
_symmetry_Int_Tables_number   1
_chemical_formula_structural   V3(O2F)2
_chemical_formula_sum   'V6 O8 F4'
_cell_volume   188.98006633
_cell_formula_units_Z   2
loop_
 _symmetry_equiv_pos_site_id
 _symmetry_equiv_pos_as_xyz
  1  'x, y, z'
loop_
 _atom_site_type_symbol
 _atom_site_label
 _atom_site_symmetry_multiplicity
 _atom_site_fract_x
 _atom_site_fract_y
 _atom_site_fract_z
 _atom_site_occupancy
  V  V0  1  0.49993669  0.33339597  0.83331776  1
  V  V1  1  0.00005997  0.33340450  0.33333647  1
  V  V2  1  0.46148935  0.99127232  0.48328998  1
  V  V3  1  0.96147768  0.67534636  0.68345323  1
  V  V4  1  0.53849659  0.67532356  0.18345506  1
  V  V5  1  0.03847134  0.99127419  0.98328307  1
  O  O0  1  0.80841386  0.43935522  0.63666081  1
  O  O1  1  0.69156561  0.43936312  0.13677541  1
  O  O2  1  0.30848600  0.22736895  0.52994322  1
  O  O3  1  0.19146164  0.22737355  0.02991359  1
  O  O4  1  0.79636082  0.77117483  0.97364744  1
  O  O5  1  0.70360885  0.77126013  0.47364104  1
  O  O6  1  0.29635492  0.89531635  0.19296177  1
  O  O7  1  0.20360487  0.89522599  0.69295930  1
  F  F0  1  0.79541041  0.09199752  0.28732148  1
  F  F1  1  0.70470918  0.09195804  0.78721655  1
  F  F2  1  0.29533762  0.57477655  0.87934343  1
  F  F3  1  0.20475560  0.57481584  0.37947739  1
loop_
_geom_bond_atom_site_label_1
_geom_bond_atom_site_label_2
_geom_bond_distance
_geom_bond_site_symmetry_2
O0 V3 1.894224 1_555
O0 V0 1.992352 1_555
O0 V1 1.994226 1_655
O1 V4 1.894006 1_555
O1 V1 1.992114 1_655
O1 V0 1.994811 1_554
O2 V2 1.894818 1_545
O2 V1 1.992289 1_555
O2 V0 1.994223 1_555
O3 V5 1.894789 1_544
O3 V0 1.992359 1_554
O3 V1 1.994359 1_555
O4 V4 1.845020 1_556
O4 V3 1.858910 1_555
O4 V5 1.982726 1_655
O5 V3 1.845267 1_555
O5 V4 1.859106 1_555
O5 V2 1.982234 1_555
O6 V5 1.844970 1_554
O6 V2 1.859842 1_555
O6 V4 1.982207 1_555
O7 V2 1.845220 1_555
O7 V5 1.860044 1_555
O7 V3 1.981447 1_455
F0 V1 2.030160 1_655
F0 V2 2.059286 1_545
F0 V5 2.101329 1_644
F1 V0 2.030673 1_555
F1 V5 2.058925 1_645
F1 V2 2.101152 1_545
F2 V0 2.029905 1_555
F2 V3 2.058373 1_455
F2 V4 2.101486 1_556
F3 V1 2.030322 1_555
F3 V4 2.058166 1_555
F3 V3 2.101182 1_455
