# generated using pymatgen
data_Fe(SO4)2
_symmetry_space_group_name_H-M   'P 1'
_cell_length_a   8.96725041
_cell_length_b   8.96725041
_cell_length_c   8.96725118
_cell_angle_alpha   56.21308920
_cell_angle_beta   56.21308920
_cell_angle_gamma   56.21308915
_symmetry_Int_Tables_number   1
_chemical_formula_structural   Fe(SO4)2
_chemical_formula_sum   'Fe3 S6 O24'
_cell_volume   465.18546945
_cell_formula_units_Z   3
loop_
 _symmetry_equiv_pos_site_id
 _symmetry_equiv_pos_as_xyz
  1  'x, y, z'
loop_
 _atom_site_type_symbol
 _atom_site_label
 _atom_site_symmetry_multiplicity
 _atom_site_fract_x
 _atom_site_fract_y
 _atom_site_fract_z
 _atom_site_occupancy
  Fe  Fe0  1  0.35615100  0.35615100  0.35615100  1
  Fe  Fe1  1  0.64349800  0.64349800  0.64349800  1
  Fe  Fe2  1  0.85105500  0.85105500  0.85105500  1
  S  S0  1  0.46712500  0.74395700  0.03926000  1
  S  S1  1  0.74395700  0.03926000  0.46712500  1
  S  S2  1  0.03926000  0.46712500  0.74395700  1
  S  S3  1  0.96036600  0.53928100  0.24937500  1
  S  S4  1  0.24937500  0.96036600  0.53928100  1
  S  S5  1  0.53928100  0.24937500  0.96036600  1
  O  O0  1  0.51332800  0.29117000  0.11417700  1
  O  O1  1  0.11417700  0.51332800  0.29117000  1
  O  O2  1  0.33901700  0.94319800  0.00498900  1
  O  O3  1  0.29117000  0.11417700  0.51332800  1
  O  O4  1  0.65506400  0.71866200  0.02366700  1
  O  O5  1  0.38799100  0.61074000  0.23213700  1
  O  O6  1  0.61074000  0.23213700  0.38799100  1
  O  O7  1  0.94319800  0.00498900  0.33901700  1
  O  O8  1  0.23213700  0.38799100  0.61074000  1
  O  O9  1  0.98052800  0.67904300  0.04764400  1
  O  O10  1  0.97065100  0.35913500  0.27386800  1
  O  O11  1  0.27386800  0.97065100  0.35913500  1
  O  O12  1  0.71866200  0.02366700  0.65506400  1
  O  O13  1  0.02366700  0.65506400  0.71866200  1
  O  O14  1  0.00498900  0.33901700  0.94319800  1
  O  O15  1  0.76893700  0.62892200  0.38051400  1
  O  O16  1  0.04764400  0.98052800  0.67904300  1
  O  O17  1  0.38051400  0.76893700  0.62892200  1
  O  O18  1  0.62892200  0.38051400  0.76893700  1
  O  O19  1  0.35913500  0.27386800  0.97065100  1
  O  O20  1  0.67997600  0.89431900  0.50461600  1
  O  O21  1  0.67904300  0.04764400  0.98052800  1
  O  O22  1  0.89431900  0.50461600  0.67997600  1
  O  O23  1  0.50461600  0.67997600  0.89431900  1
loop_
_geom_bond_atom_site_label_1
_geom_bond_atom_site_label_2
_geom_bond_distance
_geom_bond_site_symmetry_2
Fe0 O5 2.019472 1_555
Fe0 O6 2.019472 1_555
Fe0 O8 2.019473 1_555
Fe0 O3 2.031168 1_555
Fe0 O1 2.031168 1_555
Fe0 O0 2.031168 1_555
Fe1 O20 1.991622 1_555
Fe1 O22 1.991622 1_555
Fe1 O23 1.991622 1_555
Fe1 O18 2.018083 1_555
Fe1 O17 2.018083 1_555
Fe1 O15 2.018083 1_555
Fe2 O16 2.023652 1_655
Fe2 O21 2.023652 1_565
Fe2 O9 2.023652 1_556
Fe2 O4 2.036005 1_556
Fe2 O13 2.036005 1_655
Fe2 O12 2.036006 1_565
O0 S5 1.489262 1_554
O1 S3 1.489262 1_455
O2 S0 1.451013 1_555
O3 S4 1.489262 1_545
O4 S0 1.503078 1_555
O5 S0 1.483853 1_555
O6 S1 1.483853 1_555
O7 S1 1.451013 1_555
O8 S2 1.483853 1_555
O9 S3 1.497495 1_555
O10 S3 1.458945 1_555
O11 S4 1.458945 1_555
O12 S1 1.503078 1_555
O13 S2 1.503078 1_555
O14 S2 1.451014 1_555
O15 S3 1.499070 1_555
O16 S4 1.497494 1_555
O17 S4 1.499070 1_555
O18 S5 1.499070 1_555
O19 S5 1.458945 1_555
O20 S1 1.503439 1_565
O21 S5 1.497494 1_555
O22 S2 1.503439 1_655
O23 S0 1.503439 1_556
