# generated using pymatgen
data_Y6O5F8
_symmetry_space_group_name_H-M   'P 1'
_cell_length_a   5.61380100
_cell_length_b   5.48738400
_cell_length_c   33.53700573
_cell_angle_alpha   89.89461003
_cell_angle_beta   90.00000000
_cell_angle_gamma   90.00000000
_symmetry_Int_Tables_number   1
_chemical_formula_structural   Y6O5F8
_chemical_formula_sum   'Y24 O20 F32'
_cell_volume   1033.10845682
_cell_formula_units_Z   4
loop_
 _symmetry_equiv_pos_site_id
 _symmetry_equiv_pos_as_xyz
  1  'x, y, z'
loop_
 _atom_site_type_symbol
 _atom_site_label
 _atom_site_symmetry_multiplicity
 _atom_site_fract_x
 _atom_site_fract_y
 _atom_site_fract_z
 _atom_site_occupancy
  Y  Y0  1  0.25179300  0.71036800  0.99995800  1
  Y  Y1  1  0.24820700  0.71036800  0.49995800  1
  Y  Y2  1  0.71349500  0.72257200  0.74929000  1
  Y  Y3  1  0.78650500  0.72257200  0.24929000  1
  Y  Y4  1  0.21319000  0.70767200  0.33576600  1
  Y  Y5  1  0.26124700  0.71138900  0.66412600  1
  Y  Y6  1  0.23875300  0.71138900  0.16412600  1
  Y  Y7  1  0.28681000  0.70767200  0.83576600  1
  Y  Y8  1  0.72793800  0.70320200  0.91789800  1
  Y  Y9  1  0.72258700  0.70228000  0.58237200  1
  Y  Y10  1  0.77206200  0.70320200  0.41789800  1
  Y  Y11  1  0.77741300  0.70228000  0.08237200  1
  Y  Y12  1  0.22258700  0.29772000  0.91762800  1
  Y  Y13  1  0.27206200  0.29679800  0.08210200  1
  Y  Y14  1  0.22793800  0.29679800  0.58210200  1
  Y  Y15  1  0.27741300  0.29772000  0.41762800  1
  Y  Y16  1  0.76124700  0.28861100  0.83587400  1
  Y  Y17  1  0.71319000  0.29232800  0.16423400  1
  Y  Y18  1  0.73875300  0.28861100  0.33587400  1
  Y  Y19  1  0.78681000  0.29232800  0.66423400  1
  Y  Y20  1  0.28650500  0.27742800  0.25071000  1
  Y  Y21  1  0.21349500  0.27742800  0.75071000  1
  Y  Y22  1  0.75179300  0.28963200  0.50004200  1
  Y  Y23  1  0.74820700  0.28963200  0.00004200  1
  O  O0  1  0.99222900  0.53623800  0.71048300  1
  O  O1  1  0.50777100  0.53623800  0.21048300  1
  O  O2  1  0.49321100  0.53107000  0.12517900  1
  O  O3  1  0.49311700  0.53006800  0.37254100  1
  O  O4  1  0.00678900  0.53107000  0.62517900  1
  O  O5  1  0.00688300  0.53006800  0.87254100  1
  O  O6  1  0.52344600  0.51544500  0.45814100  1
  O  O7  1  0.52428300  0.51584200  0.04178400  1
  O  O8  1  0.97655400  0.51544500  0.95814100  1
  O  O9  1  0.97571700  0.51584200  0.54178400  1
  O  O10  1  0.02428300  0.48415800  0.45821600  1
  O  O11  1  0.47571700  0.48415800  0.95821600  1
  O  O12  1  0.47655400  0.48455500  0.54185900  1
  O  O13  1  0.02344600  0.48455500  0.04185900  1
  O  O14  1  0.99311700  0.46993200  0.12745900  1
  O  O15  1  0.99321100  0.46893000  0.37482100  1
  O  O16  1  0.50688300  0.46993200  0.62745900  1
  O  O17  1  0.50678900  0.46893000  0.87482100  1
  O  O18  1  0.49222900  0.46376200  0.78951700  1
  O  O19  1  0.00777100  0.46376200  0.28951700  1
  F  F0  1  0.58183300  0.97328000  0.96351100  1
  F  F1  1  0.58191800  0.97484500  0.53661000  1
  F  F2  1  0.91816700  0.97328000  0.46351100  1
  F  F3  1  0.91808200  0.97484500  0.03661000  1
  F  F4  1  0.38646800  0.94622500  0.88867300  1
  F  F5  1  0.38121500  0.94321700  0.61057200  1
  F  F6  1  0.11353200  0.94622500  0.38867300  1
  F  F7  1  0.11878500  0.94321700  0.11057200  1
  F  F8  1  0.64211000  0.90835700  0.81627400  1
  F  F9  1  0.63214900  0.90844300  0.68491900  1
  F  F10  1  0.86785100  0.90844300  0.18491900  1
  F  F11  1  0.85789000  0.90835700  0.31627400  1
  F  F12  1  0.34597600  0.89396900  0.74876900  1
  F  F13  1  0.15402400  0.89396900  0.24876900  1
  F  F14  1  0.50814900  0.54779700  0.29171800  1
  F  F15  1  0.99185100  0.54779700  0.79171800  1
  F  F16  1  0.49185100  0.45220300  0.70828200  1
  F  F17  1  0.00814900  0.45220300  0.20828200  1
  F  F18  1  0.65402400  0.10603100  0.25123100  1
  F  F19  1  0.84597600  0.10603100  0.75123100  1
  F  F20  1  0.13214900  0.09155700  0.81508100  1
  F  F21  1  0.35789000  0.09164300  0.18372600  1
  F  F22  1  0.14211000  0.09164300  0.68372600  1
  F  F23  1  0.36785100  0.09155700  0.31508100  1
  F  F24  1  0.61878500  0.05678300  0.38942800  1
  F  F25  1  0.88121500  0.05678300  0.88942800  1
  F  F26  1  0.61353200  0.05377500  0.11132700  1
  F  F27  1  0.88646800  0.05377500  0.61132700  1
  F  F28  1  0.08191800  0.02515500  0.96339000  1
  F  F29  1  0.08183300  0.02672000  0.53648900  1
  F  F30  1  0.41808200  0.02515500  0.46339000  1
  F  F31  1  0.41816700  0.02672000  0.03648900  1
loop_
_geom_bond_atom_site_label_1
_geom_bond_atom_site_label_2
_geom_bond_distance
_geom_bond_site_symmetry_2
O0 Y2 2.278742 1_555
O0 Y21 2.317944 1_655
O0 Y19 2.352577 1_555
O0 Y5 2.369813 1_655
O1 Y3 2.278742 1_555
O1 Y20 2.317944 1_555
O1 Y17 2.352577 1_555
O1 Y6 2.369813 1_555
O2 Y6 2.174957 1_555
O2 Y17 2.224980 1_555
O2 Y13 2.299525 1_555
O2 Y11 2.341829 1_555
O3 Y4 2.221698 1_555
O3 Y18 2.274908 1_555
O3 Y15 2.317587 1_555
O3 Y10 2.382006 1_555
O4 Y5 2.174957 1_555
O4 Y19 2.224980 1_455
O4 Y14 2.299525 1_555
O4 Y9 2.341829 1_455
O5 Y7 2.221698 1_555
O5 Y16 2.274908 1_455
O5 Y12 2.317587 1_555
O5 Y8 2.382006 1_455
O6 Y10 2.196774 1_555
O6 Y22 2.268690 1_555
O6 Y15 2.277512 1_555
O6 Y1 2.346022 1_555
O7 Y11 2.218994 1_555
O7 Y23 2.255473 1_555
O7 Y13 2.296061 1_555
O7 Y0 2.332710 1_554
O8 Y8 2.196774 1_555
O8 Y23 2.268690 1_556
O8 Y12 2.277512 1_655
O8 Y0 2.346022 1_655
O9 Y9 2.218994 1_555
O9 Y22 2.255473 1_555
O9 Y14 2.296061 1_655
O9 Y1 2.332710 1_655
O10 Y15 2.218994 1_555
O10 Y1 2.255473 1_555
O10 Y10 2.296061 1_455
O10 Y22 2.332710 1_455
O11 Y12 2.218994 1_555
O11 Y0 2.255473 1_555
O11 Y8 2.296061 1_555
O11 Y23 2.332710 1_556
O12 Y14 2.196774 1_555
O12 Y1 2.268690 1_555
O12 Y9 2.277512 1_555
O12 Y22 2.346022 1_555
O13 Y13 2.196774 1_555
O13 Y0 2.268690 1_554
O13 Y11 2.277512 1_455
O13 Y23 2.346022 1_455
O14 Y17 2.221698 1_555
O14 Y6 2.274908 1_655
O14 Y11 2.317587 1_555
O14 Y13 2.382006 1_655
O15 Y18 2.174957 1_555
O15 Y4 2.224980 1_655
O15 Y10 2.299525 1_555
O15 Y15 2.341829 1_655
O16 Y19 2.221698 1_555
O16 Y5 2.274908 1_555
O16 Y9 2.317587 1_555
O16 Y14 2.382006 1_555
O17 Y16 2.174957 1_555
O17 Y7 2.224980 1_555
O17 Y8 2.299525 1_555
O17 Y12 2.341829 1_555
O18 Y21 2.278742 1_555
O18 Y2 2.317944 1_555
O18 Y7 2.352577 1_555
O18 Y16 2.369813 1_555
O19 Y20 2.278742 1_555
O19 Y3 2.317944 1_455
O19 Y4 2.352577 1_555
O19 Y18 2.369813 1_455
F0 Y8 2.284189 1_555
F0 Y23 2.322636 1_566
F0 Y0 2.646083 1_555
F1 Y9 2.282007 1_555
F1 Y22 2.321512 1_565
F1 Y1 2.670825 1_555
F2 Y10 2.284189 1_555
F2 Y22 2.322636 1_565
F2 Y1 2.646083 1_655
F3 Y11 2.282007 1_555
F3 Y23 2.321512 1_565
F3 Y0 2.670825 1_654
F4 Y7 2.276707 1_555
F4 Y12 2.348717 1_565
F4 Y8 2.531578 1_555
F5 Y5 2.299835 1_555
F5 Y14 2.325884 1_565
F5 Y9 2.513878 1_555
F6 Y4 2.276707 1_555
F6 Y15 2.348717 1_565
F6 Y10 2.531578 1_455
F7 Y6 2.299835 1_555
F7 Y13 2.325884 1_565
F7 Y11 2.513878 1_455
F8 Y16 2.288740 1_565
F8 Y7 2.369760 1_555
F8 Y2 2.500970 1_555
F9 Y19 2.380576 1_565
F9 Y2 2.429237 1_555
F9 Y5 2.448207 1_555
F10 Y17 2.380576 1_565
F10 Y3 2.429237 1_555
F10 Y6 2.448207 1_655
F11 Y18 2.288740 1_565
F11 Y4 2.369760 1_655
F11 Y3 2.500970 1_555
F12 Y21 2.232816 1_565
F12 Y2 2.267494 1_555
F13 Y20 2.232816 1_565
F13 Y3 2.267494 1_455
F14 Y3 2.319756 1_555
F14 Y20 2.376602 1_555
F14 Y4 2.387144 1_555
F14 Y18 2.425675 1_555
F15 Y2 2.319756 1_555
F15 Y21 2.376602 1_655
F15 Y7 2.387144 1_655
F15 Y16 2.425675 1_555
F16 Y21 2.319756 1_555
F16 Y2 2.376602 1_555
F16 Y19 2.387144 1_555
F16 Y5 2.425675 1_555
F17 Y20 2.319756 1_555
F17 Y3 2.376602 1_455
F17 Y17 2.387144 1_455
F17 Y6 2.425675 1_555
F18 Y3 2.232816 1_545
F18 Y20 2.267494 1_555
F19 Y2 2.232816 1_545
F19 Y21 2.267494 1_655
F20 Y7 2.380576 1_545
F20 Y21 2.429237 1_555
F20 Y16 2.448207 1_455
F21 Y6 2.288740 1_545
F21 Y17 2.369760 1_555
F21 Y20 2.500970 1_555
F22 Y5 2.288740 1_545
F22 Y19 2.369760 1_455
F22 Y21 2.500970 1_555
F23 Y4 2.380576 1_545
F23 Y20 2.429237 1_555
F23 Y18 2.448207 1_555
F24 Y18 2.299835 1_555
F24 Y10 2.325884 1_545
F24 Y15 2.513878 1_555
F25 Y16 2.299835 1_555
F25 Y8 2.325884 1_545
F25 Y12 2.513878 1_655
F26 Y17 2.276707 1_555
F26 Y11 2.348717 1_545
F26 Y13 2.531578 1_555
F27 Y19 2.276707 1_555
F27 Y9 2.348717 1_545
F27 Y14 2.531578 1_655
F28 Y12 2.282007 1_555
F28 Y0 2.321512 1_545
F28 Y23 2.670825 1_456
F29 Y14 2.284189 1_555
F29 Y1 2.322636 1_545
F29 Y22 2.646083 1_455
F30 Y15 2.282007 1_555
F30 Y1 2.321512 1_545
F30 Y22 2.670825 1_555
F31 Y13 2.284189 1_555
F31 Y0 2.322636 1_544
F31 Y23 2.646083 1_555
