# generated using pymatgen
data_Li3Ti(BO3)2
_symmetry_space_group_name_H-M   'P 1'
_cell_length_a   8.94081300
_cell_length_b   5.19133400
_cell_length_c   11.18332185
_cell_angle_alpha   63.05189292
_cell_angle_beta   90.00000000
_cell_angle_gamma   90.00000000
_symmetry_Int_Tables_number   1
_chemical_formula_structural   Li3Ti(BO3)2
_chemical_formula_sum   'Li12 Ti4 B8 O24'
_cell_volume   462.70893291
_cell_formula_units_Z   4
loop_
 _symmetry_equiv_pos_site_id
 _symmetry_equiv_pos_as_xyz
  1  'x, y, z'
loop_
 _atom_site_type_symbol
 _atom_site_label
 _atom_site_symmetry_multiplicity
 _atom_site_fract_x
 _atom_site_fract_y
 _atom_site_fract_z
 _atom_site_occupancy
  Li  Li0  1  0.97499200  0.51190700  0.32997900  1
  Li  Li1  1  0.65688700  0.44801100  0.38145100  1
  Li  Li2  1  0.98582100  0.92251400  0.90122200  1
  Li  Li3  1  0.15688700  0.55198900  0.11854900  1
  Li  Li4  1  0.48582100  0.07748600  0.59877800  1
  Li  Li5  1  0.47499200  0.48809300  0.17002100  1
  Li  Li6  1  0.52500800  0.51190700  0.82997900  1
  Li  Li7  1  0.51417900  0.92251400  0.40122200  1
  Li  Li8  1  0.84311300  0.44801100  0.88145100  1
  Li  Li9  1  0.01417900  0.07748600  0.09877800  1
  Li  Li10  1  0.34311300  0.55198900  0.61854900  1
  Li  Li11  1  0.02500800  0.48809300  0.67002100  1
  Ti  Ti0  1  0.33221100  0.97020600  0.87706900  1
  Ti  Ti1  1  0.83221100  0.02979400  0.62293100  1
  Ti  Ti2  1  0.16778900  0.97020600  0.37706900  1
  Ti  Ti3  1  0.66778900  0.02979400  0.12293100  1
  B  B0  1  0.32463700  0.45661000  0.37914300  1
  B  B1  1  0.66744500  0.96491200  0.87035800  1
  B  B2  1  0.82463700  0.54339000  0.12085700  1
  B  B3  1  0.16744500  0.03508800  0.62964200  1
  B  B4  1  0.83255500  0.96491200  0.37035800  1
  B  B5  1  0.17536300  0.45661000  0.87914300  1
  B  B6  1  0.33255500  0.03508800  0.12964200  1
  B  B7  1  0.67536300  0.54339000  0.62085700  1
  O  O0  1  0.32736400  0.82486900  0.08527100  1
  O  O1  1  0.66214400  0.30682100  0.59389100  1
  O  O2  1  0.94884500  0.70206400  0.12036600  1
  O  O3  1  0.02844900  0.15439900  0.63605300  1
  O  O4  1  0.29329700  0.13227100  0.66861000  1
  O  O5  1  0.68340500  0.62039900  0.14857300  1
  O  O6  1  0.18340500  0.37960100  0.35142700  1
  O  O7  1  0.79329700  0.86772900  0.83139000  1
  O  O8  1  0.52844900  0.84560100  0.86394700  1
  O  O9  1  0.44884500  0.29793600  0.37963400  1
  O  O10  1  0.82736400  0.17513100  0.41472900  1
  O  O11  1  0.16214400  0.69317900  0.90610900  1
  O  O12  1  0.83785600  0.30682100  0.09389100  1
  O  O13  1  0.17263600  0.82486900  0.58527100  1
  O  O14  1  0.55115500  0.70206400  0.62036600  1
  O  O15  1  0.47155100  0.15439900  0.13605300  1
  O  O16  1  0.20670300  0.13227100  0.16861000  1
  O  O17  1  0.81659500  0.62039900  0.64857300  1
  O  O18  1  0.31659500  0.37960100  0.85142700  1
  O  O19  1  0.70670300  0.86772900  0.33139000  1
  O  O20  1  0.97155100  0.84560100  0.36394700  1
  O  O21  1  0.05115500  0.29793600  0.87963400  1
  O  O22  1  0.33785600  0.69317900  0.40610900  1
  O  O23  1  0.67263600  0.17513100  0.91472900  1
loop_
_geom_bond_atom_site_label_1
_geom_bond_atom_site_label_2
_geom_bond_distance
_geom_bond_site_symmetry_2
Li0 O20 1.934586 1_555
Li0 O6 1.962692 1_655
Li0 O10 2.048220 1_555
Li0 O2 2.104013 1_555
Li1 O10 1.997660 1_555
Li1 O9 2.020293 1_555
Li1 O19 2.038078 1_555
Li1 O1 2.146039 1_555
Li1 O5 2.351016 1_555
Li2 O21 1.942011 1_665
Li2 O11 1.961299 1_655
Li2 O7 1.963424 1_555
Li2 O2 2.209779 1_556
Li3 O0 1.997660 1_555
Li3 O2 2.020293 1_455
Li3 O16 2.038078 1_555
Li3 O11 2.146039 1_554
Li3 O6 2.351016 1_555
Li4 O14 1.942011 1_545
Li4 O1 1.961299 1_555
Li4 O4 1.963424 1_555
Li4 O9 2.209779 1_555
Li5 O15 1.934586 1_555
Li5 O5 1.962692 1_555
Li5 O0 2.048220 1_555
Li5 O9 2.104013 1_555
Li6 O8 1.934586 1_555
Li6 O18 1.962692 1_555
Li6 O23 2.048220 1_555
Li6 O14 2.104013 1_555
Li7 O9 1.942011 1_565
Li7 O22 1.961299 1_555
Li7 O19 1.963424 1_555
Li7 O14 2.209779 1_555
Li8 O23 1.997660 1_555
Li8 O21 2.020293 1_655
Li8 O7 2.038078 1_555
Li8 O12 2.146039 1_556
Li8 O17 2.351016 1_555
Li9 O2 1.942011 1_445
Li9 O12 1.961299 1_455
Li9 O16 1.963424 1_555
Li9 O21 2.209779 1_554
Li10 O13 1.997660 1_555
Li10 O14 2.020293 1_555
Li10 O4 2.038078 1_555
Li10 O22 2.146039 1_555
Li10 O18 2.351016 1_555
Li11 O3 1.934586 1_555
Li11 O17 1.962692 1_455
Li11 O13 2.048220 1_555
Li11 O21 2.104013 1_555
B0 O9 1.381201 1_555
B0 O22 1.396011 1_555
B0 O6 1.400961 1_555
B1 O7 1.381969 1_555
B1 O23 1.389309 1_565
B1 O8 1.404785 1_555
B2 O2 1.381201 1_555
B2 O12 1.396011 1_555
B2 O5 1.400961 1_555
B3 O4 1.381969 1_555
B3 O13 1.389309 1_545
B3 O3 1.404785 1_555
B4 O19 1.381969 1_555
B4 O10 1.389309 1_565
B4 O20 1.404785 1_555
B5 O21 1.381201 1_555
B5 O11 1.396011 1_555
B5 O18 1.400961 1_555
B6 O16 1.381969 1_555
B6 O0 1.389309 1_545
B6 O15 1.404785 1_555
B7 O14 1.381201 1_555
B7 O1 1.396011 1_555
B7 O17 1.400961 1_555
O0 Ti0 2.097683 1_554
O1 Ti1 2.015546 1_555
O3 Ti1 1.898519 1_455
O4 Ti0 2.118009 1_545
O5 Ti3 2.016497 1_565
O6 Ti2 2.016497 1_545
O7 Ti1 2.118009 1_565
O8 Ti0 1.898519 1_555
O10 Ti1 2.097683 1_555
O11 Ti0 2.015546 1_555
O12 Ti3 2.015546 1_555
O13 Ti2 2.097683 1_555
O15 Ti3 1.898519 1_555
O16 Ti2 2.118009 1_545
O17 Ti1 2.016497 1_565
O18 Ti0 2.016497 1_545
O19 Ti3 2.118009 1_565
O20 Ti2 1.898519 1_655
O22 Ti2 2.015546 1_555
O23 Ti3 2.097683 1_556
