# generated using pymatgen
data_Li3Si6NiO15
_symmetry_space_group_name_H-M   'P 1'
_cell_length_a   10.98024586
_cell_length_b   10.98024586
_cell_length_c   10.00927500
_cell_angle_alpha   90.00000000
_cell_angle_beta   90.00000000
_cell_angle_gamma   100.15429350
_symmetry_Int_Tables_number   1
_chemical_formula_structural   Li3Si6NiO15
_chemical_formula_sum   'Li12 Si24 Ni4 O60'
_cell_volume   1187.87397242
_cell_formula_units_Z   4
loop_
 _symmetry_equiv_pos_site_id
 _symmetry_equiv_pos_as_xyz
  1  'x, y, z'
loop_
 _atom_site_type_symbol
 _atom_site_label
 _atom_site_symmetry_multiplicity
 _atom_site_fract_x
 _atom_site_fract_y
 _atom_site_fract_z
 _atom_site_occupancy
  Li  Li0  1  0.23451100  0.23451100  0.00000000  1
  Li  Li1  1  0.48186300  0.01813700  0.25000000  1
  Li  Li2  1  0.01813700  0.48186300  0.75000000  1
  Li  Li3  1  0.26548900  0.26548900  0.50000000  1
  Li  Li4  1  0.56637500  0.43362500  0.71499400  1
  Li  Li5  1  0.06637500  0.93362500  0.78500600  1
  Li  Li6  1  0.43362500  0.56637500  0.28500600  1
  Li  Li7  1  0.93362500  0.06637500  0.21499400  1
  Li  Li8  1  0.73451100  0.73451100  0.50000000  1
  Li  Li9  1  0.51813700  0.98186300  0.75000000  1
  Li  Li10  1  0.98186300  0.51813700  0.25000000  1
  Li  Li11  1  0.76548900  0.76548900  0.00000000  1
  Si  Si0  1  0.04421600  0.18657200  0.80243500  1
  Si  Si1  1  0.18657200  0.04421600  0.19756500  1
  Si  Si2  1  0.31342800  0.45578400  0.69756500  1
  Si  Si3  1  0.45578400  0.31342800  0.30243500  1
  Si  Si4  1  0.51866700  0.26117300  0.00728800  1
  Si  Si5  1  0.01866700  0.76117300  0.49271200  1
  Si  Si6  1  0.76117300  0.01866700  0.50728800  1
  Si  Si7  1  0.26117300  0.51866700  0.99271200  1
  Si  Si8  1  0.70297000  0.07616700  0.04496900  1
  Si  Si9  1  0.20297000  0.57616700  0.45503100  1
  Si  Si10  1  0.07616700  0.70297000  0.95503100  1
  Si  Si11  1  0.57616700  0.20297000  0.54496900  1
  Si  Si12  1  0.92383300  0.29703000  0.04496900  1
  Si  Si13  1  0.42383300  0.79703000  0.45503100  1
  Si  Si14  1  0.29703000  0.92383300  0.95503100  1
  Si  Si15  1  0.79703000  0.42383300  0.54496900  1
  Si  Si16  1  0.73882700  0.48133300  0.00728800  1
  Si  Si17  1  0.23882700  0.98133300  0.49271200  1
  Si  Si18  1  0.48133300  0.73882700  0.99271200  1
  Si  Si19  1  0.98133300  0.23882700  0.50728800  1
  Si  Si20  1  0.54421600  0.68657200  0.69756500  1
  Si  Si21  1  0.68657200  0.54421600  0.30243500  1
  Si  Si22  1  0.81342800  0.95578400  0.80243500  1
  Si  Si23  1  0.95578400  0.81342800  0.19756500  1
  Ni  Ni0  1  0.15733600  0.34266400  0.25000000  1
  Ni  Ni1  1  0.34266400  0.15733600  0.75000000  1
  Ni  Ni2  1  0.84266400  0.65733600  0.75000000  1
  Ni  Ni3  1  0.65733600  0.84266400  0.25000000  1
  O  O0  1  0.28091700  0.01715900  0.07934200  1
  O  O1  1  0.01715900  0.28091700  0.92065800  1
  O  O2  1  0.03093800  0.26206300  0.66311900  1
  O  O3  1  0.26206300  0.03093800  0.33688100  1
  O  O4  1  0.13868800  0.17084500  0.16809400  1
  O  O5  1  0.17084500  0.13868800  0.83190600  1
  O  O6  1  0.25949200  0.10063600  0.58860100  1
  O  O7  1  0.10063600  0.25949200  0.41139900  1
  O  O8  1  0.64331100  0.01041800  0.17683000  1
  O  O9  1  0.14331100  0.51041800  0.32317000  1
  O  O10  1  0.01041800  0.64331100  0.82317000  1
  O  O11  1  0.51041800  0.14331100  0.67683000  1
  O  O12  1  0.24050800  0.39936400  0.08860100  1
  O  O13  1  0.39936400  0.24050800  0.91139900  1
  O  O14  1  0.36131200  0.32915500  0.66809400  1
  O  O15  1  0.32915500  0.36131200  0.33190600  1
  O  O16  1  0.46906200  0.23793700  0.16311900  1
  O  O17  1  0.23793700  0.46906200  0.83688100  1
  O  O18  1  0.21908300  0.48284100  0.57934200  1
  O  O19  1  0.48284100  0.21908300  0.42065800  1
  O  O20  1  0.66709100  0.11503100  0.48184100  1
  O  O21  1  0.16709100  0.61503100  0.01815900  1
  O  O22  1  0.11503100  0.66709100  0.51815900  1
  O  O23  1  0.61503100  0.16709100  0.98184100  1
  O  O24  1  0.59641700  0.40358300  0.98809700  1
  O  O25  1  0.34282500  0.65717500  0.42011500  1
  O  O26  1  0.56194400  0.43805600  0.30051300  1
  O  O27  1  0.93805600  0.06194400  0.80051300  1
  O  O28  1  0.15717500  0.84282500  0.92011500  1
  O  O29  1  0.09641700  0.90358300  0.51190300  1
  O  O30  1  0.06194400  0.93805600  0.19948700  1
  O  O31  1  0.40358300  0.59641700  0.01190300  1
  O  O32  1  0.43805600  0.56194400  0.69948700  1
  O  O33  1  0.84282500  0.15717500  0.07988500  1
  O  O34  1  0.90358300  0.09641700  0.48809700  1
  O  O35  1  0.65717500  0.34282500  0.57988500  1
  O  O36  1  0.88496900  0.33290900  0.48184100  1
  O  O37  1  0.33290900  0.88496900  0.51815900  1
  O  O38  1  0.38496900  0.83290900  0.01815900  1
  O  O39  1  0.83290900  0.38496900  0.98184100  1
  O  O40  1  0.51715900  0.78091700  0.57934200  1
  O  O41  1  0.78091700  0.51715900  0.42065800  1
  O  O42  1  0.53093800  0.76206300  0.83688100  1
  O  O43  1  0.76206300  0.53093800  0.16311900  1
  O  O44  1  0.63868800  0.67084500  0.33190600  1
  O  O45  1  0.67084500  0.63868800  0.66809400  1
  O  O46  1  0.60063600  0.75949200  0.08860100  1
  O  O47  1  0.75949200  0.60063600  0.91139900  1
  O  O48  1  0.48958200  0.85668900  0.32317000  1
  O  O49  1  0.35668900  0.98958200  0.82317000  1
  O  O50  1  0.98958200  0.35668900  0.17683000  1
  O  O51  1  0.85668900  0.48958200  0.67683000  1
  O  O52  1  0.74050800  0.89936400  0.41139900  1
  O  O53  1  0.89936400  0.74050800  0.58860100  1
  O  O54  1  0.82915500  0.86131200  0.16809400  1
  O  O55  1  0.86131200  0.82915500  0.83190600  1
  O  O56  1  0.96906200  0.73793700  0.33688100  1
  O  O57  1  0.73793700  0.96906200  0.66311900  1
  O  O58  1  0.71908300  0.98284100  0.92065800  1
  O  O59  1  0.98284100  0.71908300  0.07934200  1
loop_
_geom_bond_atom_site_label_1
_geom_bond_atom_site_label_2
_geom_bond_distance
_geom_bond_site_symmetry_2
Li0 O12 2.006324 1_555
Li0 O13 2.006324 1_554
Li0 O5 2.041370 1_554
Li0 O4 2.041370 1_555
Li1 O48 1.933686 1_545
Li1 O8 1.933686 1_555
Li2 O10 1.933686 1_555
Li2 O51 1.933686 1_455
Li3 O7 2.006324 1_555
Li3 O6 2.006324 1_555
Li3 O14 2.041370 1_555
Li3 O15 2.041370 1_555
Li4 O35 2.041413 1_555
Li4 O32 2.166677 1_555
Li4 O14 2.386503 1_555
Li4 O45 2.386503 1_555
Li5 O28 2.041413 1_555
Li5 O27 2.166677 1_465
Li5 O5 2.386503 1_565
Li5 O55 2.386503 1_455
Li6 O25 2.041413 1_555
Li6 O26 2.166677 1_555
Li6 O15 2.386503 1_555
Li6 O44 2.386503 1_555
Li7 O33 2.041413 1_555
Li7 O30 2.166677 1_645
Li7 O4 2.386503 1_655
Li7 O54 2.386503 1_545
Li8 O52 2.006324 1_555
Li8 O53 2.006324 1_555
Li8 O45 2.041370 1_555
Li8 O44 2.041370 1_555
Li9 O11 1.933686 1_565
Li9 O49 1.933686 1_555
Li10 O9 1.933686 1_655
Li10 O50 1.933686 1_555
Li11 O46 2.006324 1_555
Li11 O47 2.006324 1_554
Li11 O55 2.041370 1_554
Li11 O54 2.041370 1_555
Ni0 O12 1.905505 1_555
Ni0 O7 1.905505 1_555
Ni0 O9 2.013207 1_555
Ni0 O50 2.013207 1_455
Ni0 O15 2.033995 1_555
Ni0 O4 2.033995 1_555
Ni1 O13 1.905505 1_555
Ni1 O6 1.905505 1_555
Ni1 O11 2.013207 1_555
Ni1 O49 2.013207 1_545
Ni1 O14 2.033995 1_555
Ni1 O5 2.033995 1_555
Ni2 O47 1.905505 1_555
Ni2 O53 1.905505 1_555
Ni2 O51 2.013207 1_555
Ni2 O10 2.013207 1_655
Ni2 O55 2.033995 1_555
Ni2 O45 2.033995 1_555
Ni3 O46 1.905505 1_555
Ni3 O52 1.905505 1_555
Ni3 O48 2.013207 1_555
Ni3 O8 2.013207 1_565
Ni3 O44 2.033995 1_555
Ni3 O54 2.033995 1_555
O0 Si1 1.634074 1_555
O0 Si14 1.641194 1_544
O1 Si0 1.634074 1_555
O1 Si12 1.641194 1_456
O2 Si0 1.641785 1_555
O2 Si19 1.656986 1_455
O3 Si1 1.641785 1_555
O3 Si17 1.656986 1_545
O4 Si1 1.598276 1_555
O5 Si0 1.598276 1_555
O6 Si17 1.607449 1_545
O7 Si19 1.607449 1_455
O8 Si8 1.589189 1_555
O9 Si9 1.589189 1_555
O10 Si10 1.589189 1_555
O11 Si11 1.589189 1_555
O12 Si7 1.607449 1_554
O13 Si4 1.607449 1_556
O14 Si2 1.598276 1_555
O15 Si3 1.598276 1_555
O16 Si3 1.641785 1_555
O16 Si4 1.656986 1_555
O17 Si2 1.641785 1_555
O17 Si7 1.656986 1_555
O18 Si2 1.634074 1_555
O18 Si9 1.641194 1_555
O19 Si3 1.634074 1_555
O19 Si11 1.641194 1_555
O20 Si6 1.623898 1_555
O20 Si11 1.633484 1_555
O21 Si7 1.623898 1_554
O21 Si10 1.633484 1_554
O22 Si5 1.623898 1_555
O22 Si9 1.633484 1_555
O23 Si4 1.623898 1_556
O23 Si8 1.633484 1_556
O24 Si16 1.655346 1_556
O24 Si4 1.655346 1_556
O25 Si9 1.670299 1_555
O25 Si13 1.670299 1_555
O26 Si21 1.633811 1_555
O26 Si3 1.633811 1_555
O27 Si22 1.633811 1_545
O27 Si0 1.633811 1_655
O28 Si14 1.670299 1_555
O28 Si10 1.670299 1_555
O29 Si17 1.655346 1_555
O29 Si5 1.655346 1_555
O30 Si23 1.633811 1_455
O30 Si1 1.633811 1_565
O31 Si7 1.655346 1_554
O31 Si18 1.655346 1_554
O32 Si20 1.633811 1_555
O32 Si2 1.633811 1_555
O33 Si12 1.670299 1_555
O33 Si8 1.670299 1_555
O34 Si19 1.655346 1_555
O34 Si6 1.655346 1_555
O35 Si11 1.670299 1_555
O35 Si15 1.670299 1_555
O36 Si19 1.623898 1_555
O36 Si15 1.633484 1_555
O37 Si17 1.623898 1_555
O37 Si13 1.633484 1_555
O38 Si18 1.623898 1_554
O38 Si14 1.633484 1_554
O39 Si16 1.623898 1_556
O39 Si12 1.633484 1_556
O40 Si20 1.634074 1_555
O40 Si13 1.641194 1_555
O41 Si21 1.634074 1_555
O41 Si15 1.641194 1_555
O42 Si20 1.641785 1_555
O42 Si18 1.656986 1_555
O43 Si21 1.641785 1_555
O43 Si16 1.656986 1_555
O44 Si21 1.598276 1_555
O45 Si20 1.598276 1_555
O46 Si18 1.607449 1_554
O47 Si16 1.607449 1_556
O48 Si13 1.589189 1_555
O49 Si14 1.589189 1_555
O50 Si12 1.589189 1_555
O51 Si15 1.589189 1_555
O52 Si6 1.607449 1_565
O53 Si5 1.607449 1_655
O54 Si23 1.598276 1_555
O55 Si22 1.598276 1_555
O56 Si23 1.641785 1_555
O56 Si5 1.656986 1_655
O57 Si22 1.641785 1_555
O57 Si6 1.656986 1_565
O58 Si22 1.634074 1_555
O58 Si8 1.641194 1_566
O59 Si23 1.634074 1_555
O59 Si10 1.641194 1_654
