# generated using pymatgen
data_Na5Ni2As(CO4)4
_symmetry_space_group_name_H-M   'P 1'
_cell_length_a   9.95923284
_cell_length_b   9.95225809
_cell_length_c   9.93538448
_cell_angle_alpha   60.10249329
_cell_angle_beta   60.03277886
_cell_angle_gamma   59.86472785
_symmetry_Int_Tables_number   1
_chemical_formula_structural   Na5Ni2As(CO4)4
_chemical_formula_sum   'Na10 Ni4 As2 C8 O32'
_cell_volume   696.32701917
_cell_formula_units_Z   2
loop_
 _symmetry_equiv_pos_site_id
 _symmetry_equiv_pos_as_xyz
  1  'x, y, z'
loop_
 _atom_site_type_symbol
 _atom_site_label
 _atom_site_symmetry_multiplicity
 _atom_site_fract_x
 _atom_site_fract_y
 _atom_site_fract_z
 _atom_site_occupancy
  Na  Na0  1  0.15559400  0.59815500  0.33238900  1
  Na  Na1  1  0.91710100  0.33559200  0.65297300  1
  Na  Na2  1  0.91761100  0.33613800  0.09440600  1
  Na  Na3  1  0.33559200  0.91710100  0.09433400  1
  Na  Na4  1  0.15566600  0.59702700  0.91440800  1
  Na  Na5  1  0.59815500  0.15559400  0.91386200  1
  Na  Na6  1  0.59702700  0.15566600  0.33289900  1
  Na  Na7  1  0.33969400  0.33969400  0.66030600  1
  Na  Na8  1  0.33613800  0.91761100  0.65184500  1
  Na  Na9  1  0.58969400  0.58969400  0.91030600  1
  Ni  Ni0  1  0.24781200  0.75251500  0.50015600  1
  Ni  Ni1  1  0.75048300  0.74984400  0.49748500  1
  Ni  Ni2  1  0.75251500  0.24781200  0.49951700  1
  Ni  Ni3  1  0.74984400  0.75048300  0.00218800  1
  As  As0  1  0.12349700  0.12349700  0.87650300  1
  As  As1  1  0.37349700  0.37349700  0.12650300  1
  C  C0  1  0.53491400  0.89144100  0.28664300  1
  C  C1  1  0.89144100  0.53491400  0.28700200  1
  C  C2  1  0.53506400  0.53490200  0.64511100  1
  C  C3  1  0.53490200  0.53506400  0.28492300  1
  C  C4  1  0.96335700  0.96299800  0.71508600  1
  C  C5  1  0.96299800  0.96335700  0.35855900  1
  C  C6  1  0.96507700  0.60488900  0.71509800  1
  C  C7  1  0.60488900  0.96507700  0.71493600  1
  O  O0  1  0.10617800  0.85011700  0.35219200  1
  O  O1  1  0.89816000  0.64778000  0.31032500  1
  O  O2  1  0.64778000  0.89816000  0.14373500  1
  O  O3  1  0.94114800  0.60087400  0.60048800  1
  O  O4  1  0.89780800  0.55848700  0.14382200  1
  O  O5  1  0.19526600  0.19556800  0.66452500  1
  O  O6  1  0.19556800  0.19526600  0.94464100  1
  O  O7  1  0.88607500  0.39792600  0.40450300  1
  O  O8  1  0.39792600  0.88607500  0.31149600  1
  O  O9  1  0.65027800  0.56024600  0.64644600  1
  O  O10  1  0.56024600  0.65027800  0.14303000  1
  O  O11  1  0.20637500  0.91200900  0.93994000  1
  O  O12  1  0.91200900  0.20637500  0.94167500  1
  O  O13  1  0.10626500  0.93967500  0.60222000  1
  O  O14  1  0.93967500  0.10626500  0.35184000  1
  O  O15  1  0.64951200  0.39251000  0.30885200  1
  O  O16  1  0.85011700  0.10617800  0.69151300  1
  O  O17  1  0.56018100  0.39231300  0.64870900  1
  O  O18  1  0.39231300  0.56018100  0.39879700  1
  O  O19  1  0.30535900  0.58547500  0.05443200  1
  O  O20  1  0.58547500  0.30535900  0.05473400  1
  O  O21  1  0.93850400  0.84549700  0.85207400  1
  O  O22  1  0.84549700  0.93850400  0.36392500  1
  O  O23  1  0.10697000  0.60355400  0.68975400  1
  O  O24  1  0.60355400  0.10697000  0.59972200  1
  O  O25  1  0.31006000  0.30832500  0.04362500  1
  O  O26  1  0.30832500  0.31006000  0.33799100  1
  O  O27  1  0.60087400  0.94114800  0.85749000  1
  O  O28  1  0.55848700  0.89780800  0.39988300  1
  O  O29  1  0.60129100  0.85120300  0.68981900  1
  O  O30  1  0.85120300  0.60129100  0.85768700  1
  O  O31  1  0.39251000  0.64951200  0.64912600  1
loop_
_geom_bond_atom_site_label_1
_geom_bond_atom_site_label_2
_geom_bond_distance
_geom_bond_site_symmetry_2
Na0 O0 2.392675 1_555
Na0 O19 2.431165 1_555
Na0 O3 2.446991 1_455
Na0 O1 2.459148 1_455
Na0 O26 2.466582 1_555
Na0 O18 2.558688 1_555
Na1 O7 2.370105 1_555
Na1 O5 2.431384 1_655
Na1 O9 2.475193 1_555
Na1 O12 2.475231 1_555
Na1 O16 2.491430 1_555
Na1 O3 2.537192 1_555
Na2 O4 2.392675 1_555
Na2 O6 2.431165 1_654
Na2 O15 2.446991 1_555
Na2 O14 2.459148 1_555
Na2 O12 2.466590 1_554
Na2 O30 2.558688 1_554
Na3 O8 2.370105 1_555
Na3 O6 2.431384 1_564
Na3 O10 2.475193 1_555
Na3 O11 2.475240 1_554
Na3 O0 2.491430 1_555
Na3 O27 2.537192 1_554
Na4 O21 2.370105 1_455
Na4 O19 2.431384 1_556
Na4 O23 2.475193 1_555
Na4 O25 2.475234 1_556
Na4 O4 2.491430 1_456
Na4 O31 2.537192 1_555
Na5 O16 2.392675 1_555
Na5 O20 2.431165 1_556
Na5 O27 2.446991 1_545
Na5 O2 2.459148 1_546
Na5 O25 2.466585 1_556
Na5 O17 2.558688 1_555
Na6 O22 2.370105 1_545
Na6 O20 2.431384 1_555
Na6 O24 2.475193 1_555
Na6 O26 2.475232 1_555
Na6 O28 2.491430 1_545
Na6 O15 2.537192 1_555
Na7 O17 2.439494 1_555
Na7 O18 2.439494 1_555
Na7 O6 2.465691 1_555
Na7 O5 2.465691 1_555
Na7 O23 2.516078 1_555
Na7 O24 2.516078 1_555
Na8 O28 2.392675 1_555
Na8 O5 2.431165 1_565
Na8 O31 2.446991 1_555
Na8 O13 2.459148 1_555
Na8 O11 2.466582 1_555
Na8 O29 2.558688 1_555
Na9 O29 2.439494 1_555
Na9 O30 2.439494 1_555
Na9 O20 2.465691 1_556
Na9 O19 2.465691 1_556
Na9 O9 2.516078 1_555
Na9 O10 2.516078 1_556
Ni0 O8 2.056059 1_555
Ni0 O13 2.074469 1_555
Ni0 O0 2.089651 1_555
Ni0 O23 2.092389 1_555
Ni0 O31 2.110246 1_555
Ni0 O18 2.111180 1_555
Ni1 O22 2.056059 1_555
Ni1 O1 2.074469 1_555
Ni1 O28 2.089651 1_555
Ni1 O9 2.092389 1_555
Ni1 O3 2.110246 1_555
Ni1 O29 2.111180 1_555
Ni2 O7 2.056059 1_555
Ni2 O14 2.074469 1_555
Ni2 O16 2.089651 1_555
Ni2 O24 2.092389 1_555
Ni2 O15 2.110246 1_555
Ni2 O17 2.111180 1_555
Ni3 O21 2.056059 1_554
Ni3 O2 2.074469 1_555
Ni3 O4 2.089651 1_555
Ni3 O10 2.092389 1_555
Ni3 O27 2.110246 1_554
Ni3 O30 2.111180 1_554
As0 O12 1.720898 1_455
As0 O11 1.720898 1_545
As0 O5 1.722183 1_555
As0 O6 1.722183 1_555
As1 O25 1.720890 1_555
As1 O26 1.720899 1_555
As1 O20 1.722183 1_555
As1 O19 1.722183 1_555
C0 O8 1.283975 1_555
C0 O2 1.292423 1_555
C0 O28 1.294150 1_555
C1 O7 1.283975 1_555
C1 O1 1.292423 1_555
C1 O4 1.294150 1_555
C2 O17 1.295986 1_555
C2 O31 1.296547 1_555
C2 O9 1.299832 1_555
C3 O18 1.295986 1_555
C3 O15 1.296547 1_555
C3 O10 1.299832 1_555
C4 O21 1.283975 1_555
C4 O13 1.292423 1_655
C4 O16 1.294150 1_565
C5 O22 1.283975 1_555
C5 O14 1.292423 1_565
C5 O0 1.294150 1_655
C6 O30 1.295986 1_555
C6 O3 1.296547 1_555
C6 O23 1.299832 1_655
C7 O29 1.295986 1_555
C7 O27 1.296547 1_555
C7 O24 1.299832 1_565
