# generated using pymatgen
data_Al(SiO3)2
_symmetry_space_group_name_H-M   'P 1'
_cell_length_a   5.25737600
_cell_length_b   5.26197500
_cell_length_c   9.62748356
_cell_angle_alpha   86.30519714
_cell_angle_beta   100.83699889
_cell_angle_gamma   119.76885392
_symmetry_Int_Tables_number   1
_chemical_formula_structural   Al(SiO3)2
_chemical_formula_sum   'Al2 Si4 O12'
_cell_volume   226.93589210
_cell_formula_units_Z   2
loop_
 _symmetry_equiv_pos_site_id
 _symmetry_equiv_pos_as_xyz
  1  'x, y, z'
loop_
 _atom_site_type_symbol
 _atom_site_label
 _atom_site_symmetry_multiplicity
 _atom_site_fract_x
 _atom_site_fract_y
 _atom_site_fract_z
 _atom_site_occupancy
  Al  Al0  1  0.31373000  0.68587800  0.99992600  1
  Al  Al1  1  0.68627000  0.31412200  0.00007400  1
  Si  Si0  1  0.25657400  0.00243400  0.71043000  1
  Si  Si1  1  0.74342600  0.99756600  0.28957000  1
  Si  Si2  1  0.91144500  0.34631800  0.70984000  1
  Si  Si3  1  0.08855500  0.65368200  0.29016000  1
  O  O0  1  0.35690400  0.99343800  0.88304100  1
  O  O1  1  0.64309600  0.00656200  0.11695900  1
  O  O2  1  0.95684500  0.39351400  0.88255800  1
  O  O3  1  0.04315500  0.60648600  0.11744200  1
  O  O4  1  0.55497400  0.57658000  0.92981200  1
  O  O5  1  0.44502600  0.42342000  0.07018800  1
  O  O6  1  0.55586300  0.21247200  0.64477400  1
  O  O7  1  0.44413700  0.78752800  0.35522600  1
  O  O8  1  0.10255700  0.66740000  0.64512500  1
  O  O9  1  0.89744300  0.33260000  0.35487500  1
  O  O10  1  0.01928300  0.12121400  0.67121700  1
  O  O11  1  0.98071700  0.87878600  0.32878300  1
loop_
_geom_bond_atom_site_label_1
_geom_bond_atom_site_label_2
_geom_bond_distance
_geom_bond_site_symmetry_2
Al0 O3 1.852636 1_556
Al0 O0 1.852978 1_555
Al0 O4 1.868511 1_555
Al0 O5 1.868687 1_556
Al0 O2 1.929885 1_455
Al0 O1 1.930095 1_566
Al1 O2 1.852636 1_554
Al1 O1 1.852978 1_555
Al1 O5 1.868511 1_555
Al1 O4 1.868687 1_554
Al1 O3 1.929885 1_655
Al1 O0 1.930095 1_544
O0 Si0 1.651400 1_565
O1 Si1 1.651400 1_545
O2 Si2 1.651908 1_555
O3 Si3 1.651908 1_555
O4 O5 1.581420 1_556
O6 Si0 1.629102 1_555
O6 Si2 1.640820 1_555
O7 Si1 1.629102 1_555
O7 Si3 1.640820 1_555
O8 Si2 1.632866 1_455
O8 Si0 1.640980 1_565
O9 Si3 1.632866 1_655
O9 Si1 1.640980 1_545
O10 Si0 1.629803 1_555
O10 Si2 1.632665 1_455
O11 Si1 1.629803 1_555
O11 Si3 1.632665 1_655
