# generated using pymatgen
data_LiMnF3
_symmetry_space_group_name_H-M   'P 1'
_cell_length_a   5.19547800
_cell_length_b   5.97720700
_cell_length_c   8.33816400
_cell_angle_alpha   90.00000000
_cell_angle_beta   90.00000000
_cell_angle_gamma   90.00000000
_symmetry_Int_Tables_number   1
_chemical_formula_structural   LiMnF3
_chemical_formula_sum   'Li4 Mn4 F12'
_cell_volume   258.93707593
_cell_formula_units_Z   4
loop_
 _symmetry_equiv_pos_site_id
 _symmetry_equiv_pos_as_xyz
  1  'x, y, z'
loop_
 _atom_site_type_symbol
 _atom_site_label
 _atom_site_symmetry_multiplicity
 _atom_site_fract_x
 _atom_site_fract_y
 _atom_site_fract_z
 _atom_site_occupancy
  Li  Li0  1  0.96988500  0.64615700  0.75000000  1
  Li  Li1  1  0.53011500  0.14615700  0.75000000  1
  Li  Li2  1  0.46988500  0.85384300  0.25000000  1
  Li  Li3  1  0.03011500  0.35384300  0.25000000  1
  Mn  Mn0  1  0.00000000  0.00000000  0.00000000  1
  Mn  Mn1  1  0.00000000  0.00000000  0.50000000  1
  Mn  Mn2  1  0.50000000  0.50000000  0.00000000  1
  Mn  Mn3  1  0.50000000  0.50000000  0.50000000  1
  F  F0  1  0.34027400  0.52610400  0.25000000  1
  F  F1  1  0.31664800  0.19853800  0.57234300  1
  F  F2  1  0.31664800  0.19853800  0.92765700  1
  F  F3  1  0.18335200  0.69853800  0.57234300  1
  F  F4  1  0.18335200  0.69853800  0.92765700  1
  F  F5  1  0.15972600  0.02610400  0.25000000  1
  F  F6  1  0.84027400  0.97389600  0.75000000  1
  F  F7  1  0.81664800  0.30146200  0.42765700  1
  F  F8  1  0.81664800  0.30146200  0.07234300  1
  F  F9  1  0.68335200  0.80146200  0.07234300  1
  F  F10  1  0.68335200  0.80146200  0.42765700  1
  F  F11  1  0.65972600  0.47389600  0.75000000  1
loop_
_geom_bond_atom_site_label_1
_geom_bond_atom_site_label_2
_geom_bond_distance
_geom_bond_site_symmetry_2
F0 Li3 1.912288 1_555
F0 Li2 2.071472 1_555
F0 Mn2 2.249069 1_555
F0 Mn3 2.249069 1_555
F1 Li1 1.876805 1_555
F1 Mn1 2.116271 1_555
F1 Mn3 2.125595 1_555
F2 Li1 1.876805 1_555
F2 Mn0 2.116271 1_556
F2 Mn2 2.125595 1_556
F3 Li0 1.876805 1_455
F3 Mn3 2.116271 1_555
F3 Mn1 2.125595 1_565
F4 Li0 1.876805 1_455
F4 Mn2 2.116271 1_556
F4 Mn0 2.125595 1_566
F5 Li2 1.912288 1_545
F5 Li3 2.071472 1_555
F5 Mn0 2.249069 1_555
F5 Mn1 2.249069 1_555
F6 Li1 1.912288 1_565
F6 Li0 2.071472 1_555
F6 Mn1 2.249069 1_665
F6 Mn0 2.249069 1_666
F7 Li3 1.876805 1_655
F7 Mn3 2.116271 1_555
F7 Mn1 2.125595 1_655
F8 Li3 1.876805 1_655
F8 Mn2 2.116271 1_555
F8 Mn0 2.125595 1_655
F9 Li2 1.876805 1_555
F9 Mn0 2.116271 1_665
F9 Mn2 2.125595 1_555
F10 Li2 1.876805 1_555
F10 Mn1 2.116271 1_665
F10 Mn3 2.125595 1_555
F11 Li0 1.912288 1_555
F11 Li1 2.071472 1_555
F11 Mn3 2.249069 1_555
F11 Mn2 2.249069 1_556
