# generated using pymatgen
data_Li7Bi2P7O24
_symmetry_space_group_name_H-M   'P 1'
_cell_length_a   5.24686100
_cell_length_b   12.18278600
_cell_length_c   16.15529726
_cell_angle_alpha   84.51621349
_cell_angle_beta   90.00000000
_cell_angle_gamma   90.00000000
_symmetry_Int_Tables_number   1
_chemical_formula_structural   Li7Bi2P7O24
_chemical_formula_sum   'Li14 Bi4 P14 O48'
_cell_volume   1027.94273570
_cell_formula_units_Z   2
loop_
 _symmetry_equiv_pos_site_id
 _symmetry_equiv_pos_as_xyz
  1  'x, y, z'
loop_
 _atom_site_type_symbol
 _atom_site_label
 _atom_site_symmetry_multiplicity
 _atom_site_fract_x
 _atom_site_fract_y
 _atom_site_fract_z
 _atom_site_occupancy
  Li  Li0  1  0.23219100  0.47671400  0.03283500  1
  Li  Li1  1  0.22033000  0.11533700  0.13187400  1
  Li  Li2  1  0.76780900  0.97671400  0.03283500  1
  Li  Li3  1  0.77967000  0.61533700  0.13187400  1
  Li  Li4  1  0.83344500  0.44097200  0.42354500  1
  Li  Li5  1  0.16655500  0.94097200  0.42354500  1
  Li  Li6  1  0.28805700  0.25000000  0.50000000  1
  Li  Li7  1  0.71194300  0.75000000  0.50000000  1
  Li  Li8  1  0.83344500  0.05902800  0.57645500  1
  Li  Li9  1  0.16655500  0.55902800  0.57645500  1
  Li  Li10  1  0.22033000  0.38466300  0.86812600  1
  Li  Li11  1  0.23219100  0.02328600  0.96716500  1
  Li  Li12  1  0.77967000  0.88466300  0.86812600  1
  Li  Li13  1  0.76780900  0.52328600  0.96716500  1
  Bi  Bi0  1  0.33157000  0.30846400  0.27671100  1
  Bi  Bi1  1  0.66843000  0.80846400  0.27671100  1
  Bi  Bi2  1  0.33157000  0.19153600  0.72328900  1
  Bi  Bi3  1  0.66843000  0.69153600  0.72328900  1
  P  P0  1  0.53400900  0.25000000  0.00000000  1
  P  P1  1  0.46599100  0.75000000  0.00000000  1
  P  P2  1  0.86471300  0.34176300  0.12995700  1
  P  P3  1  0.13528700  0.84176300  0.12995700  1
  P  P4  1  0.60849500  0.05224800  0.27746800  1
  P  P5  1  0.39150500  0.55224800  0.27746800  1
  P  P6  1  0.81911100  0.19138600  0.39843400  1
  P  P7  1  0.18088900  0.69138600  0.39843400  1
  P  P8  1  0.81911100  0.30861400  0.60156600  1
  P  P9  1  0.18088900  0.80861400  0.60156600  1
  P  P10  1  0.60849500  0.44775200  0.72253200  1
  P  P11  1  0.39150500  0.94775200  0.72253200  1
  P  P12  1  0.86471300  0.15823700  0.87004300  1
  P  P13  1  0.13528700  0.65823700  0.87004300  1
  O  O0  1  0.39309900  0.14187900  0.01703600  1
  O  O1  1  0.60690100  0.64187900  0.01703600  1
  O  O2  1  0.72019500  0.25103000  0.07785500  1
  O  O3  1  0.88649900  0.45006500  0.07352700  1
  O  O4  1  0.27980500  0.75103000  0.07785500  1
  O  O5  1  0.11350100  0.95006500  0.07352700  1
  O  O6  1  0.12084000  0.28293100  0.14811500  1
  O  O7  1  0.75531800  0.98886700  0.21468600  1
  O  O8  1  0.70965900  0.35442900  0.20768400  1
  O  O9  1  0.87916000  0.78293100  0.14811500  1
  O  O10  1  0.24468200  0.48886700  0.21468600  1
  O  O11  1  0.40339300  0.12774300  0.23468600  1
  O  O12  1  0.29034100  0.85442900  0.20768400  1
  O  O13  1  0.59660700  0.62774300  0.23468600  1
  O  O14  1  0.82540600  0.13252700  0.31125600  1
  O  O15  1  0.17459400  0.63252700  0.31125600  1
  O  O16  1  0.98546200  0.29627200  0.37987400  1
  O  O17  1  0.49519900  0.47276200  0.34945100  1
  O  O18  1  0.53712200  0.22216500  0.41058000  1
  O  O19  1  0.01453800  0.79627200  0.37987400  1
  O  O20  1  0.50480100  0.97276200  0.34945100  1
  O  O21  1  0.46287800  0.72216500  0.41058000  1
  O  O22  1  0.93687900  0.10995800  0.46407800  1
  O  O23  1  0.06312100  0.60995800  0.46407800  1
  O  O24  1  0.93687900  0.39004200  0.53592200  1
  O  O25  1  0.06312100  0.89004200  0.53592200  1
  O  O26  1  0.53712200  0.27783500  0.58942000  1
  O  O27  1  0.49519900  0.02723800  0.65054800  1
  O  O28  1  0.98546200  0.20372800  0.62012600  1
  O  O29  1  0.46287800  0.77783500  0.58942000  1
  O  O30  1  0.50480100  0.52723800  0.65054800  1
  O  O31  1  0.01453800  0.70372800  0.62012600  1
  O  O32  1  0.82540600  0.36747300  0.68874400  1
  O  O33  1  0.17459400  0.86747300  0.68874400  1
  O  O34  1  0.40339300  0.37225700  0.76531400  1
  O  O35  1  0.70965900  0.14557100  0.79231600  1
  O  O36  1  0.59660700  0.87225700  0.76531400  1
  O  O37  1  0.75531800  0.51113300  0.78531400  1
  O  O38  1  0.12084000  0.21706900  0.85188500  1
  O  O39  1  0.29034100  0.64557100  0.79231600  1
  O  O40  1  0.24468200  0.01113300  0.78531400  1
  O  O41  1  0.87916000  0.71706900  0.85188500  1
  O  O42  1  0.88649900  0.04993500  0.92647300  1
  O  O43  1  0.72019500  0.24897000  0.92214500  1
  O  O44  1  0.11350100  0.54993500  0.92647300  1
  O  O45  1  0.27980500  0.74897000  0.92214500  1
  O  O46  1  0.39309900  0.35812100  0.98296400  1
  O  O47  1  0.60690100  0.85812100  0.98296400  1
loop_
_geom_bond_atom_site_label_1
_geom_bond_atom_site_label_2
_geom_bond_distance
_geom_bond_site_symmetry_2
Li0 O46 1.916196 1_554
Li0 O3 1.945928 1_455
Li0 O44 1.960401 1_554
Li1 O11 1.937054 1_555
Li1 O0 2.062415 1_555
Li1 O6 2.147677 1_555
Li1 O5 2.370553 1_545
Li2 O47 1.916196 1_554
Li2 O5 1.945928 1_655
Li2 O42 1.960401 1_564
Li3 O13 1.937054 1_555
Li3 O1 2.062415 1_555
Li3 O9 2.147677 1_555
Li3 O3 2.370553 1_555
Li4 O24 1.939122 1_555
Li4 O16 2.116433 1_555
Li4 O17 2.154968 1_555
Li4 O23 2.525271 1_655
Li5 O25 1.939122 1_555
Li5 O19 2.116433 1_555
Li5 O20 2.154968 1_555
Li5 O22 2.525271 1_465
Li6 O18 2.000816 1_555
Li6 O26 2.000816 1_555
Li6 O28 2.528953 1_455
Li6 O16 2.528953 1_455
Li6 O22 2.613793 1_455
Li6 O24 2.613793 1_455
Li7 O21 2.000816 1_555
Li7 O29 2.000816 1_555
Li7 O31 2.528953 1_655
Li7 O19 2.528953 1_655
Li7 O25 2.613793 1_655
Li7 O23 2.613793 1_655
Li8 O22 1.939122 1_555
Li8 O28 2.116433 1_555
Li8 O27 2.154960 1_555
Li8 O25 2.525271 1_645
Li9 O23 1.939122 1_555
Li9 O31 2.116433 1_555
Li9 O30 2.154960 1_555
Li9 O24 2.525271 1_455
Li10 O34 1.937054 1_555
Li10 O46 2.062415 1_555
Li10 O38 2.147677 1_555
Li10 O44 2.370553 1_555
Li11 O0 1.916196 1_556
Li11 O42 1.945928 1_455
Li11 O5 1.960401 1_546
Li12 O36 1.937054 1_555
Li12 O47 2.062415 1_555
Li12 O41 2.147677 1_555
Li12 O42 2.370553 1_565
Li13 O1 1.916196 1_556
Li13 O44 1.945928 1_655
Li13 O3 1.960401 1_556
Bi0 O8 2.318011 1_555
Bi0 O10 2.370941 1_555
Bi0 O11 2.395009 1_555
Bi0 O6 2.399753 1_555
Bi0 O16 2.459713 1_455
Bi0 O18 2.551704 1_555
Bi0 O17 2.563987 1_555
Bi1 O12 2.318011 1_555
Bi1 O7 2.370941 1_555
Bi1 O13 2.395009 1_555
Bi1 O9 2.399753 1_555
Bi1 O19 2.459713 1_655
Bi1 O21 2.551704 1_555
Bi1 O20 2.563987 1_555
Bi2 O35 2.318011 1_555
Bi2 O40 2.370941 1_555
Bi2 O34 2.395009 1_555
Bi2 O38 2.399753 1_555
Bi2 O28 2.459713 1_455
Bi2 O26 2.551704 1_555
Bi2 O27 2.563996 1_555
Bi3 O39 2.318011 1_555
Bi3 O37 2.370941 1_555
Bi3 O36 2.395009 1_555
Bi3 O41 2.399753 1_555
Bi3 O31 2.459713 1_655
Bi3 O29 2.551704 1_555
Bi3 O30 2.563996 1_555
O0 P0 1.512657 1_555
O1 P1 1.512657 1_555
O2 P0 1.593574 1_555
O2 P2 1.638036 1_555
O3 P2 1.534644 1_555
O4 P1 1.593574 1_555
O4 P3 1.638036 1_555
O5 P3 1.534644 1_555
O6 P2 1.538034 1_455
O7 P4 1.538861 1_565
O8 P2 1.516408 1_555
O9 P3 1.538034 1_655
O10 P5 1.538861 1_555
O11 P4 1.536295 1_555
O12 P3 1.516408 1_555
O13 P5 1.536295 1_555
O14 P4 1.628434 1_555
O14 P6 1.640686 1_555
O15 P5 1.628434 1_555
O15 P7 1.640686 1_555
O16 P6 1.552828 1_555
O17 P5 1.539757 1_555
O18 P6 1.543457 1_555
O19 P7 1.552828 1_555
O20 P4 1.539757 1_565
O21 P7 1.543457 1_555
O22 P6 1.513110 1_555
O23 P7 1.513110 1_555
O24 P8 1.513110 1_555
O25 P9 1.513110 1_555
O26 P8 1.543457 1_555
O27 P11 1.539769 1_545
O28 P8 1.552828 1_555
O29 P9 1.543457 1_555
O30 P10 1.539769 1_555
O31 P9 1.552828 1_555
O32 P10 1.628434 1_555
O32 P8 1.640686 1_555
O33 P11 1.628434 1_555
O33 P9 1.640686 1_555
O34 P10 1.536295 1_555
O35 P12 1.516408 1_555
O36 P11 1.536295 1_555
O37 P10 1.538861 1_555
O38 P12 1.538034 1_455
O39 P13 1.516408 1_555
O40 P11 1.538861 1_545
O41 P13 1.538034 1_655
O42 P12 1.534644 1_555
O43 P0 1.593574 1_556
O43 P12 1.638036 1_555
O44 P13 1.534644 1_555
O45 P1 1.593574 1_556
O45 P13 1.638036 1_555
O46 P0 1.512657 1_556
O47 P1 1.512657 1_556
