# generated using pymatgen
data_Li5V6(CuO4)6
_symmetry_space_group_name_H-M   'P 1'
_cell_length_a   8.96984600
_cell_length_b   8.14935300
_cell_length_c   12.79813389
_cell_angle_alpha   72.71011137
_cell_angle_beta   90.00000000
_cell_angle_gamma   90.00000000
_symmetry_Int_Tables_number   1
_chemical_formula_structural   Li5V6(CuO4)6
_chemical_formula_sum   'Li10 V12 Cu12 O48'
_cell_volume   893.25038109
_cell_formula_units_Z   2
loop_
 _symmetry_equiv_pos_site_id
 _symmetry_equiv_pos_as_xyz
  1  'x, y, z'
loop_
 _atom_site_type_symbol
 _atom_site_label
 _atom_site_symmetry_multiplicity
 _atom_site_fract_x
 _atom_site_fract_y
 _atom_site_fract_z
 _atom_site_occupancy
  Li  Li0  1  0.00007500  0.66787500  0.66651400  1
  Li  Li1  1  0.99764500  0.83774200  0.83726400  1
  Li  Li2  1  0.49764500  0.16225800  0.66273600  1
  Li  Li3  1  0.50000000  0.50000000  0.00000000  1
  Li  Li4  1  0.50007500  0.33212500  0.83348600  1
  Li  Li5  1  0.49992500  0.66787500  0.16651400  1
  Li  Li6  1  0.00235500  0.16225800  0.16273600  1
  Li  Li7  1  0.50235500  0.83774200  0.33726400  1
  Li  Li8  1  0.00000000  0.50000000  0.50000000  1
  Li  Li9  1  0.99992500  0.33212500  0.33348600  1
  V  V0  1  0.13408700  0.41985400  0.91580700  1
  V  V1  1  0.36485400  0.74837300  0.75219300  1
  V  V2  1  0.86485400  0.25162700  0.74780700  1
  V  V3  1  0.63293700  0.91660700  0.91624700  1
  V  V4  1  0.86591300  0.58014600  0.08419300  1
  V  V5  1  0.36706300  0.08339300  0.08375300  1
  V  V6  1  0.13514600  0.74837300  0.25219300  1
  V  V7  1  0.36591300  0.41985400  0.41580700  1
  V  V8  1  0.63408700  0.58014600  0.58419300  1
  V  V9  1  0.63514600  0.25162700  0.24780700  1
  V  V10  1  0.86706300  0.91660700  0.41624700  1
  V  V11  1  0.13293700  0.08339300  0.58375300  1
  Cu  Cu0  1  0.25030200  0.41669700  0.66650400  1
  Cu  Cu1  1  0.74535300  0.91622600  0.66533800  1
  Cu  Cu2  1  0.75030200  0.58330300  0.83349600  1
  Cu  Cu3  1  0.24535300  0.08377400  0.83466200  1
  Cu  Cu4  1  0.24488200  0.75232500  0.00105700  1
  Cu  Cu5  1  0.24969800  0.41669700  0.16650400  1
  Cu  Cu6  1  0.75511800  0.24767500  0.99894300  1
  Cu  Cu7  1  0.74969800  0.58330300  0.33349600  1
  Cu  Cu8  1  0.75464700  0.91622600  0.16533800  1
  Cu  Cu9  1  0.25464700  0.08377400  0.33466200  1
  Cu  Cu10  1  0.25511800  0.75232500  0.50105700  1
  Cu  Cu11  1  0.74488200  0.24767500  0.49894300  1
  O  O0  1  0.75024000  0.67416900  0.67279200  1
  O  O1  1  0.02430300  0.57725800  0.83590900  1
  O  O2  1  0.47532700  0.58937700  0.83022700  1
  O  O3  1  0.47545000  0.90296500  0.67793500  1
  O  O4  1  0.74891200  0.49204900  0.99386100  1
  O  O5  1  0.75175700  0.82800200  0.82602300  1
  O  O6  1  0.25175700  0.17199800  0.67397700  1
  O  O7  1  0.24705200  0.83999300  0.84110900  1
  O  O8  1  0.25108800  0.50795100  0.00613900  1
  O  O9  1  0.97584000  0.73096000  0.00520300  1
  O  O10  1  0.97545000  0.09703500  0.82206500  1
  O  O11  1  0.52453000  0.07510700  0.83686300  1
  O  O12  1  0.97569700  0.42274200  0.16409100  1
  O  O13  1  0.97532700  0.41062300  0.66977300  1
  O  O14  1  0.52443100  0.75723200  0.99526900  1
  O  O15  1  0.25024000  0.32583100  0.82720800  1
  O  O16  1  0.25015000  0.66064500  0.16002600  1
  O  O17  1  0.25813400  0.99394600  0.99386600  1
  O  O18  1  0.74985000  0.33935500  0.83997400  1
  O  O19  1  0.74186600  0.00605400  0.00613400  1
  O  O20  1  0.74976000  0.67416900  0.17279200  1
  O  O21  1  0.02416000  0.26904000  0.99479700  1
  O  O22  1  0.47556900  0.24276800  0.00473100  1
  O  O23  1  0.47547000  0.92489300  0.16313700  1
  O  O24  1  0.02455000  0.90296500  0.17793500  1
  O  O25  1  0.02467300  0.58937700  0.33022700  1
  O  O26  1  0.47569700  0.57725800  0.33590900  1
  O  O27  1  0.75294800  0.16000700  0.15889100  1
  O  O28  1  0.74824300  0.82800200  0.32602300  1
  O  O29  1  0.75108800  0.49204900  0.49386100  1
  O  O30  1  0.24824300  0.17199800  0.17397700  1
  O  O31  1  0.25294800  0.83999300  0.34110900  1
  O  O32  1  0.24891200  0.50795100  0.50613900  1
  O  O33  1  0.52455000  0.09703500  0.32206500  1
  O  O34  1  0.97556900  0.75723200  0.49526900  1
  O  O35  1  0.52430300  0.42274200  0.66409100  1
  O  O36  1  0.52467300  0.41062300  0.16977300  1
  O  O37  1  0.97547000  0.07510700  0.33686300  1
  O  O38  1  0.52416000  0.73096000  0.50520300  1
  O  O39  1  0.24976000  0.32583100  0.32720800  1
  O  O40  1  0.24985000  0.66064500  0.66002600  1
  O  O41  1  0.24186600  0.99394600  0.49386600  1
  O  O42  1  0.75015000  0.33935500  0.33997400  1
  O  O43  1  0.75813400  0.00605400  0.50613400  1
  O  O44  1  0.47584000  0.26904000  0.49479700  1
  O  O45  1  0.02453000  0.92489300  0.66313700  1
  O  O46  1  0.02443100  0.24276800  0.50473100  1
  O  O47  1  0.74705200  0.16000700  0.65889100  1
loop_
_geom_bond_atom_site_label_1
_geom_bond_atom_site_label_2
_geom_bond_distance
_geom_bond_site_symmetry_2
Li0 O1 2.083483 1_555
Li0 O45 2.093618 1_555
Li0 O13 2.096209 1_455
Li0 O34 2.105501 1_455
Li0 O40 2.243404 1_555
Li0 O0 2.243554 1_455
Li1 O10 2.073214 1_565
Li1 O9 2.074433 1_556
Li1 O1 2.141387 1_655
Li1 O45 2.141960 1_655
Li1 O5 2.213223 1_555
Li1 O7 2.237879 1_655
Li2 O3 2.073214 1_545
Li2 O44 2.074433 1_555
Li2 O35 2.141387 1_555
Li2 O11 2.141960 1_555
Li2 O6 2.213223 1_555
Li2 O47 2.237879 1_555
Li3 O36 2.088003 1_555
Li3 O2 2.088003 1_554
Li3 O14 2.090600 1_554
Li3 O22 2.090600 1_555
Li3 O4 2.235701 1_554
Li3 O8 2.235701 1_555
Li4 O35 2.083483 1_555
Li4 O11 2.093618 1_555
Li4 O2 2.096209 1_555
Li4 O22 2.105501 1_556
Li4 O18 2.243404 1_555
Li4 O15 2.243554 1_555
Li5 O26 2.083483 1_555
Li5 O23 2.093618 1_555
Li5 O36 2.096209 1_555
Li5 O14 2.105501 1_554
Li5 O16 2.243404 1_555
Li5 O20 2.243554 1_555
Li6 O24 2.073214 1_545
Li6 O21 2.074433 1_554
Li6 O12 2.141387 1_455
Li6 O37 2.141960 1_455
Li6 O30 2.213223 1_555
Li6 O27 2.237879 1_455
Li7 O33 2.073214 1_565
Li7 O38 2.074433 1_555
Li7 O26 2.141387 1_555
Li7 O23 2.141960 1_555
Li7 O28 2.213223 1_555
Li7 O31 2.237879 1_555
Li8 O25 2.088003 1_555
Li8 O13 2.088003 1_455
Li8 O34 2.090600 1_455
Li8 O46 2.090600 1_555
Li8 O32 2.235701 1_555
Li8 O29 2.235701 1_455
Li9 O12 2.083483 1_555
Li9 O37 2.093618 1_555
Li9 O25 2.096209 1_655
Li9 O46 2.105501 1_655
Li9 O42 2.243404 1_555
Li9 O39 2.243554 1_655
Cu0 O32 1.964227 1_555
Cu0 O40 1.964977 1_555
Cu0 O6 1.967877 1_555
Cu0 O15 1.968023 1_555
Cu0 O35 2.458250 1_555
Cu0 O13 2.467085 1_455
Cu1 O0 1.946881 1_555
Cu1 O43 1.952920 1_565
Cu1 O47 1.963775 1_565
Cu1 O5 1.967337 1_555
Cu1 O3 2.426623 1_555
Cu1 O45 2.505093 1_655
Cu2 O4 1.964227 1_555
Cu2 O18 1.964977 1_555
Cu2 O5 1.967877 1_555
Cu2 O0 1.968023 1_555
Cu2 O1 2.458250 1_655
Cu2 O2 2.467085 1_555
Cu3 O15 1.946881 1_555
Cu3 O17 1.952920 1_545
Cu3 O7 1.963775 1_545
Cu3 O6 1.967337 1_555
Cu3 O10 2.426623 1_455
Cu3 O11 2.505093 1_555
Cu4 O17 1.947321 1_554
Cu4 O16 1.948364 1_555
Cu4 O7 1.957509 1_554
Cu4 O8 1.973922 1_555
Cu4 O9 2.418985 1_455
Cu4 O14 2.508573 1_554
Cu5 O8 1.964227 1_555
Cu5 O16 1.964977 1_555
Cu5 O30 1.967877 1_555
Cu5 O39 1.968023 1_555
Cu5 O12 2.458250 1_455
Cu5 O36 2.467085 1_555
Cu6 O19 1.947321 1_556
Cu6 O18 1.948364 1_555
Cu6 O27 1.957509 1_556
Cu6 O4 1.973922 1_555
Cu6 O21 2.418985 1_655
Cu6 O22 2.508573 1_556
Cu7 O29 1.964227 1_555
Cu7 O42 1.964977 1_555
Cu7 O28 1.967877 1_555
Cu7 O20 1.968023 1_555
Cu7 O26 2.458250 1_555
Cu7 O25 2.467085 1_655
Cu8 O20 1.946881 1_555
Cu8 O19 1.952920 1_565
Cu8 O27 1.963775 1_565
Cu8 O28 1.967337 1_555
Cu8 O24 2.426623 1_655
Cu8 O23 2.505093 1_555
Cu9 O39 1.946881 1_555
Cu9 O41 1.952920 1_545
Cu9 O31 1.963775 1_545
Cu9 O30 1.967337 1_555
Cu9 O33 2.426623 1_555
Cu9 O37 2.505093 1_455
Cu10 O41 1.947321 1_555
Cu10 O40 1.948364 1_555
Cu10 O31 1.957509 1_555
Cu10 O32 1.973922 1_555
Cu10 O38 2.418985 1_555
Cu10 O34 2.508573 1_455
Cu11 O43 1.947321 1_555
Cu11 O42 1.948364 1_555
Cu11 O47 1.957509 1_555
Cu11 O29 1.973922 1_555
Cu11 O44 2.418985 1_555
Cu11 O46 2.508573 1_655
O0 V8 1.864076 1_555
O1 V0 1.697374 1_555
O2 V1 1.699709 1_555
O3 V1 1.662163 1_555
O4 V4 1.856534 1_556
O5 V3 1.867150 1_555
O6 V11 1.867150 1_555
O7 V1 1.863870 1_555
O8 V0 1.856534 1_554
O9 V4 1.663194 1_555
O10 V2 1.662163 1_555
O11 V3 1.692959 1_545
O12 V4 1.697374 1_555
O13 V2 1.699709 1_555
O14 V3 1.695933 1_555
O15 V0 1.864076 1_555
O16 V6 1.862229 1_555
O17 V5 1.818753 1_566
O18 V2 1.862229 1_555
O19 V3 1.818753 1_544
O20 V4 1.864076 1_555
O21 V0 1.663194 1_555
O22 V5 1.695933 1_555
O23 V5 1.692959 1_565
O24 V6 1.662163 1_555
O25 V6 1.699709 1_555
O26 V7 1.697374 1_555
O27 V9 1.863870 1_555
O28 V10 1.867150 1_555
O29 V8 1.856534 1_555
O30 V5 1.867150 1_555
O31 V6 1.863870 1_555
O32 V7 1.856534 1_555
O33 V9 1.662163 1_555
O34 V10 1.695933 1_555
O35 V8 1.697374 1_555
O36 V9 1.699709 1_555
O37 V10 1.692959 1_545
O38 V8 1.663194 1_555
O39 V7 1.864076 1_555
O40 V1 1.862229 1_555
O41 V11 1.818753 1_565
O42 V9 1.862229 1_555
O43 V10 1.818753 1_545
O44 V7 1.663194 1_555
O45 V11 1.692959 1_565
O46 V11 1.695933 1_555
O47 V2 1.863870 1_555
