# generated using pymatgen
data_FeOF
_symmetry_space_group_name_H-M   'P 1'
_cell_length_a   6.10473269
_cell_length_b   7.31251942
_cell_length_c   7.31341770
_cell_angle_alpha   100.03211226
_cell_angle_beta   65.33537662
_cell_angle_gamma   114.67072125
_symmetry_Int_Tables_number   1
_chemical_formula_structural   FeOF
_chemical_formula_sum   'Fe8 O8 F8'
_cell_volume   269.61061516
_cell_formula_units_Z   8
loop_
 _symmetry_equiv_pos_site_id
 _symmetry_equiv_pos_as_xyz
  1  'x, y, z'
loop_
 _atom_site_type_symbol
 _atom_site_label
 _atom_site_symmetry_multiplicity
 _atom_site_fract_x
 _atom_site_fract_y
 _atom_site_fract_z
 _atom_site_occupancy
  Fe  Fe0  1  0.50402377  0.49589136  0.02056755  1
  Fe  Fe1  1  0.99597605  0.50410530  0.97943452  1
  Fe  Fe2  1  0.47155947  -0.00386394  0.52054795  1
  Fe  Fe3  1  0.02844066  0.00386597  0.47945015  1
  Fe  Fe4  1  0.00774032  0.97959541  -0.00389454  1
  Fe  Fe5  1  0.49226148  0.02039991  0.00389217  1
  Fe  Fe6  1  0.02442904  0.52038768  0.50388283  1
  Fe  Fe7  1  0.47556762  0.47961403  0.49611988  1
  O  O0  1  0.33983424  0.49747604  0.30688575  1
  O  O1  1  0.35076192  0.99750115  0.80693809  1
  O  O2  1  0.65779318  0.30682627  0.00249855  1
  O  O3  1  0.14666493  0.80685278  0.50256148  1
  O  O4  1  0.84220934  0.69317103  0.99750091  1
  O  O5  1  0.35333530  0.19314926  0.49743751  1
  O  O6  1  0.16016466  0.50252510  0.69311484  1
  O  O7  1  0.14924026  0.00249941  0.19305897  1
  F  F0  1  0.85276351  0.50204501  0.30537015  1
  F  F1  1  0.84386916  0.00206119  0.80532521  1
  F  F2  1  0.14916092  0.30542530  0.99789071  1
  F  F3  1  0.65822521  0.80538841  0.49788670  1
  F  F4  1  0.35084040  0.69457458  0.00210948  1
  F  F5  1  0.84177648  0.19461322  0.50211141  1
  F  F6  1  0.64723076  0.49795481  0.69463734  1
  F  F7  1  0.65613332  0.99793773  0.19467337  1
loop_
_geom_bond_atom_site_label_1
_geom_bond_atom_site_label_2
_geom_bond_distance
_geom_bond_site_symmetry_2
Fe0 O0 1.907619 1_555
Fe0 O4 1.918248 1_554
Fe0 O2 1.930370 1_555
Fe1 O6 1.907627 1_655
Fe1 O2 1.918239 1_556
Fe1 O4 1.930366 1_555
Fe2 O1 1.908025 1_545
Fe2 O5 1.918231 1_555
Fe2 O3 1.931198 1_545
Fe3 O7 1.908031 1_555
Fe3 O3 1.918234 1_545
Fe3 O5 1.931201 1_555
Fe4 O4 1.907899 1_454
Fe4 O7 1.919019 1_565
Fe4 O1 1.931964 1_554
Fe5 O2 1.907912 1_555
Fe5 O1 1.919030 1_544
Fe5 O7 1.931971 1_555
Fe6 O3 1.908177 1_555
Fe6 O0 1.918621 1_555
Fe6 O6 1.931166 1_555
Fe7 O5 1.908176 1_555
Fe7 O6 1.918605 1_555
Fe7 O0 1.931168 1_555
F0 Fe6 2.075719 1_655
F0 Fe7 2.087758 1_555
F0 Fe1 2.169977 1_554
F1 Fe5 2.074869 1_556
F1 Fe4 2.087226 1_646
F1 Fe3 2.169562 1_655
F2 Fe1 2.076385 1_455
F2 Fe0 2.088292 1_556
F2 Fe4 2.168834 1_546
F3 Fe3 2.075591 1_665
F3 Fe2 2.088151 1_565
F3 Fe7 2.168487 1_555
F4 Fe0 2.076405 1_555
F4 Fe1 2.088299 1_454
F4 Fe5 2.168803 1_565
F5 Fe2 2.075598 1_555
F5 Fe3 2.088141 1_655
F5 Fe6 2.168487 1_655
F6 Fe7 2.075743 1_555
F6 Fe6 2.087774 1_655
F6 Fe0 2.169943 1_556
F7 Fe4 2.074878 1_655
F7 Fe5 2.087225 1_565
F7 Fe2 2.169561 1_565
