# generated using pymatgen
data_AlNiH16N(OF)6
_symmetry_space_group_name_H-M   'P 1'
_cell_length_a   6.52850800
_cell_length_b   12.67371100
_cell_length_c   12.81346475
_cell_angle_alpha   85.32923055
_cell_angle_beta   90.00000000
_cell_angle_gamma   90.00000000
_symmetry_Int_Tables_number   1
_chemical_formula_structural   AlNiH16N(OF)6
_chemical_formula_sum   'Al4 Ni4 H64 N4 O24 F24'
_cell_volume   1056.67066932
_cell_formula_units_Z   4
loop_
 _symmetry_equiv_pos_site_id
 _symmetry_equiv_pos_as_xyz
  1  'x, y, z'
loop_
 _atom_site_type_symbol
 _atom_site_label
 _atom_site_symmetry_multiplicity
 _atom_site_fract_x
 _atom_site_fract_y
 _atom_site_fract_z
 _atom_site_occupancy
  Al  Al0  1  0.00000000  0.00000000  0.50000000  1
  Al  Al1  1  0.50000000  0.00000000  0.00000000  1
  Al  Al2  1  0.00000000  0.50000000  0.50000000  1
  Al  Al3  1  0.50000000  0.50000000  0.00000000  1
  Ni  Ni0  1  0.46451600  0.76906200  0.69315900  1
  Ni  Ni1  1  0.03548400  0.76906200  0.19315900  1
  Ni  Ni2  1  0.96451600  0.23093800  0.80684100  1
  Ni  Ni3  1  0.53548400  0.23093800  0.30684100  1
  H  H0  1  0.40831100  0.97120600  0.63088200  1
  H  H1  1  0.64868500  0.95484300  0.62359900  1
  H  H2  1  0.09168900  0.97120600  0.13088200  1
  H  H3  1  0.85131500  0.95484300  0.12359900  1
  H  H4  1  0.21746400  0.87303000  0.80666000  1
  H  H5  1  0.09742500  0.85790400  0.69893500  1
  H  H6  1  0.63053300  0.84641500  0.86074700  1
  H  H7  1  0.28253600  0.87303000  0.30666000  1
  H  H8  1  0.40257500  0.85790400  0.19893500  1
  H  H9  1  0.86946700  0.84641500  0.36074700  1
  H  H10  1  0.30252700  0.82888600  0.50646100  1
  H  H11  1  0.19747300  0.82888600  0.00646100  1
  H  H12  1  0.82719900  0.77080300  0.61099100  1
  H  H13  1  0.53994200  0.73124500  0.89549000  1
  H  H14  1  0.67280100  0.77080300  0.11099100  1
  H  H15  1  0.96005800  0.73124500  0.39549000  1
  H  H16  1  0.99638500  0.68606700  0.94072200  1
  H  H17  1  0.23205100  0.71146000  0.53342100  1
  H  H18  1  0.02034800  0.68841100  0.81123200  1
  H  H19  1  0.50361500  0.68606700  0.44072200  1
  H  H20  1  0.26794900  0.71146000  0.03342100  1
  H  H21  1  0.47965200  0.68841100  0.31123200  1
  H  H22  1  0.75142000  0.64927500  0.60862800  1
  H  H23  1  0.84051900  0.60882700  0.87247700  1
  H  H24  1  0.74858000  0.64927500  0.10862800  1
  H  H25  1  0.09330000  0.57932600  0.88948200  1
  H  H26  1  0.45062200  0.57088800  0.77840300  1
  H  H27  1  0.65948100  0.60882700  0.37247700  1
  H  H28  1  0.27624200  0.57358100  0.68906600  1
  H  H29  1  0.40670000  0.57932600  0.38948200  1
  H  H30  1  0.04937800  0.57088800  0.27840300  1
  H  H31  1  0.22375800  0.57358100  0.18906600  1
  H  H32  1  0.77624200  0.42641900  0.81093400  1
  H  H33  1  0.95062200  0.42911200  0.72159700  1
  H  H34  1  0.59330000  0.42067400  0.61051800  1
  H  H35  1  0.72375800  0.42641900  0.31093400  1
  H  H36  1  0.34051900  0.39117300  0.62752300  1
  H  H37  1  0.54937800  0.42911200  0.22159700  1
  H  H38  1  0.90670000  0.42067400  0.11051800  1
  H  H39  1  0.25142000  0.35072500  0.89137200  1
  H  H40  1  0.15948100  0.39117300  0.12752300  1
  H  H41  1  0.24858000  0.35072500  0.39137200  1
  H  H42  1  0.52034800  0.31158900  0.68876800  1
  H  H43  1  0.73205100  0.28854000  0.96657900  1
  H  H44  1  0.49638500  0.31393300  0.55927800  1
  H  H45  1  0.97965200  0.31158900  0.18876800  1
  H  H46  1  0.76794900  0.28854000  0.46657900  1
  H  H47  1  0.00361500  0.31393300  0.05927800  1
  H  H48  1  0.03994200  0.26875500  0.60451000  1
  H  H49  1  0.32719900  0.22919700  0.88900900  1
  H  H50  1  0.46005800  0.26875500  0.10451000  1
  H  H51  1  0.17280100  0.22919700  0.38900900  1
  H  H52  1  0.80252700  0.17111400  0.99353900  1
  H  H53  1  0.69747300  0.17111400  0.49353900  1
  H  H54  1  0.13053300  0.15358500  0.63925300  1
  H  H55  1  0.59742500  0.14209600  0.80106500  1
  H  H56  1  0.71746400  0.12697000  0.69334000  1
  H  H57  1  0.36946700  0.15358500  0.13925300  1
  H  H58  1  0.90257500  0.14209600  0.30106500  1
  H  H59  1  0.78253600  0.12697000  0.19334000  1
  H  H60  1  0.14868500  0.04515700  0.87640100  1
  H  H61  1  0.90831100  0.02879400  0.86911800  1
  H  H62  1  0.35131500  0.04515700  0.37640100  1
  H  H63  1  0.59168900  0.02879400  0.36911800  1
  N  N0  1  0.98595500  0.63998100  0.87757300  1
  N  N1  1  0.51404500  0.63998100  0.37757300  1
  N  N2  1  0.48595500  0.36001900  0.62242700  1
  N  N3  1  0.01404500  0.36001900  0.12242700  1
  O  O0  1  0.52452800  0.92753500  0.65948800  1
  O  O1  1  0.97547200  0.92753500  0.15948800  1
  O  O2  1  0.18525700  0.82235900  0.75464300  1
  O  O3  1  0.31474300  0.82235900  0.25464300  1
  O  O4  1  0.60456000  0.77470100  0.83713800  1
  O  O5  1  0.34968500  0.76024500  0.54197500  1
  O  O6  1  0.89544000  0.77470100  0.33713800  1
  O  O7  1  0.15031500  0.76024500  0.04197500  1
  O  O8  1  0.74438600  0.71356400  0.64721700  1
  O  O9  1  0.75561400  0.71356400  0.14721700  1
  O  O10  1  0.36106300  0.61728900  0.73264800  1
  O  O11  1  0.13893700  0.61728900  0.23264800  1
  O  O12  1  0.86106300  0.38271100  0.76735200  1
  O  O13  1  0.63893700  0.38271100  0.26735200  1
  O  O14  1  0.24438600  0.28643600  0.85278300  1
  O  O15  1  0.25561400  0.28643600  0.35278300  1
  O  O16  1  0.84968500  0.23975500  0.95802500  1
  O  O17  1  0.10456000  0.22529900  0.66286200  1
  O  O18  1  0.65031500  0.23975500  0.45802500  1
  O  O19  1  0.39544000  0.22529900  0.16286200  1
  O  O20  1  0.68525700  0.17764100  0.74535700  1
  O  O21  1  0.81474300  0.17764100  0.24535700  1
  O  O22  1  0.02452800  0.07246500  0.84051200  1
  O  O23  1  0.47547200  0.07246500  0.34051200  1
  F  F0  1  0.69623600  0.95726900  0.91055000  1
  F  F1  1  0.29835100  0.92913600  0.93134500  1
  F  F2  1  0.80376400  0.95726900  0.41055000  1
  F  F3  1  0.20164900  0.92913600  0.43134500  1
  F  F4  1  0.95582100  0.88245600  0.58999000  1
  F  F5  1  0.54417900  0.88245600  0.08999000  1
  F  F6  1  0.44441400  0.64159700  0.98724300  1
  F  F7  1  0.05558600  0.64159700  0.48724300  1
  F  F8  1  0.61932500  0.51229100  0.86748800  1
  F  F9  1  0.75280400  0.52773500  0.55867500  1
  F  F10  1  0.25280400  0.47226500  0.94132500  1
  F  F11  1  0.11932500  0.48770900  0.63251200  1
  F  F12  1  0.88067500  0.51229100  0.36748800  1
  F  F13  1  0.74719600  0.52773500  0.05867500  1
  F  F14  1  0.24719600  0.47226500  0.44132500  1
  F  F15  1  0.38067500  0.48770900  0.13251200  1
  F  F16  1  0.94441400  0.35840300  0.51275700  1
  F  F17  1  0.55558600  0.35840300  0.01275700  1
  F  F18  1  0.45582100  0.11754400  0.91001000  1
  F  F19  1  0.04417900  0.11754400  0.41001000  1
  F  F20  1  0.79835100  0.07086400  0.56865500  1
  F  F21  1  0.19623600  0.04273100  0.58945000  1
  F  F22  1  0.70164900  0.07086400  0.06865500  1
  F  F23  1  0.30376400  0.04273100  0.08945000  1
loop_
_geom_bond_atom_site_label_1
_geom_bond_atom_site_label_2
_geom_bond_distance
_geom_bond_site_symmetry_2
Al0 F2 1.830126 1_445
Al0 F21 1.830126 1_555
Al0 F4 1.830927 1_445
Al0 F19 1.830927 1_555
Al0 F20 1.855329 1_455
Al0 F3 1.855329 1_545
Al1 F23 1.830126 1_555
Al1 F0 1.830126 1_544
Al1 F5 1.830927 1_545
Al1 F18 1.830927 1_554
Al1 F22 1.855329 1_555
Al1 F1 1.855329 1_544
Al2 F7 1.825125 1_555
Al2 F16 1.825125 1_455
Al2 F14 1.826544 1_555
Al2 F9 1.826544 1_455
Al2 F11 1.863074 1_555
Al2 F12 1.863074 1_455
Al3 F17 1.825125 1_555
Al3 F6 1.825125 1_554
Al3 F13 1.826544 1_555
Al3 F10 1.826544 1_554
Al3 F8 1.863074 1_554
Al3 F15 1.863074 1_555
Ni0 O0 2.057268 1_555
Ni0 O8 2.060852 1_555
Ni0 O10 2.062433 1_555
Ni0 O4 2.065437 1_555
Ni0 O5 2.088651 1_555
Ni0 O2 2.118360 1_555
Ni1 O1 2.057268 1_455
Ni1 O9 2.060852 1_455
Ni1 O11 2.062433 1_555
Ni1 O6 2.065437 1_455
Ni1 O7 2.088651 1_555
Ni1 O3 2.118360 1_555
Ni2 O22 2.057268 1_655
Ni2 O14 2.060852 1_655
Ni2 O12 2.062433 1_555
Ni2 O17 2.065437 1_655
Ni2 O16 2.088651 1_555
Ni2 O20 2.118360 1_555
Ni3 O23 2.057268 1_555
Ni3 O15 2.060852 1_555
Ni3 O13 2.062433 1_555
Ni3 O19 2.065437 1_555
Ni3 O18 2.088651 1_555
Ni3 O21 2.118360 1_555
H0 O0 0.991619 1_555
H1 O0 0.980990 1_555
H2 O1 0.991619 1_455
H3 O1 0.980990 1_555
H4 O2 0.985177 1_555
H5 O2 0.994434 1_555
H6 O4 0.995546 1_555
H7 O3 0.985177 1_555
H8 O3 0.994434 1_555
H9 O6 0.995546 1_555
H10 O5 0.997085 1_555
H11 O7 0.997085 1_555
H12 O8 0.989530 1_555
H13 O4 0.986543 1_555
H14 O9 0.989530 1_555
H15 O6 0.986543 1_555
H16 N0 1.038023 1_555
H17 O5 0.997554 1_555
H18 N0 1.031880 1_455
H19 N1 1.038023 1_555
H20 O7 0.997554 1_555
H21 N1 1.031880 1_555
H22 O8 0.987966 1_555
H23 N0 1.032410 1_555
H24 O9 0.987966 1_555
H25 N0 1.042229 1_455
H26 O10 0.987554 1_555
H27 N1 1.032410 1_555
H28 O10 0.987789 1_555
H29 N1 1.042229 1_555
H30 O11 0.987554 1_555
H31 O11 0.987789 1_555
H32 O12 0.987789 1_555
H33 O12 0.987554 1_555
H34 N2 1.042229 1_555
H35 O13 0.987789 1_555
H36 N2 1.032410 1_555
H37 O13 0.987554 1_555
H38 N3 1.042229 1_655
H39 O14 0.987966 1_555
H40 N3 1.032410 1_555
H41 O15 0.987966 1_555
H42 N2 1.031880 1_555
H43 O16 0.997554 1_555
H44 N2 1.038023 1_555
H45 N3 1.031880 1_655
H46 O18 0.997554 1_555
H47 N3 1.038023 1_555
H48 O17 0.986543 1_555
H49 O14 0.989530 1_555
H50 O19 0.986543 1_555
H51 O15 0.989530 1_555
H52 O16 0.997085 1_555
H53 O18 0.997085 1_555
H54 O17 0.995546 1_555
H55 O20 0.994434 1_555
H56 O20 0.985177 1_555
H57 O19 0.995546 1_555
H58 O21 0.994434 1_555
H59 O21 0.985177 1_555
H60 O22 0.980990 1_555
H61 O22 0.991619 1_655
H62 O23 0.980990 1_555
H63 O23 0.991619 1_555
F6 H20 1.595818 1_556
F6 H13 1.686565 1_555
F7 H17 1.595818 1_555
F7 H15 1.686565 1_455
F16 H46 1.595818 1_555
F16 H48 1.686565 1_655
F17 H43 1.595818 1_554
F17 H50 1.686565 1_555
