# generated using pymatgen
data_LiTiO4F3
_symmetry_space_group_name_H-M   'P 1'
_cell_length_a   6.04343519
_cell_length_b   6.04343519
_cell_length_c   7.36436200
_cell_angle_alpha   90.00000000
_cell_angle_beta   90.00000000
_cell_angle_gamma   94.74107601
_symmetry_Int_Tables_number   1
_chemical_formula_structural   LiTiO4F3
_chemical_formula_sum   'Li2 Ti2 O8 F6'
_cell_volume   268.04908638
_cell_formula_units_Z   2
loop_
 _symmetry_equiv_pos_site_id
 _symmetry_equiv_pos_as_xyz
  1  'x, y, z'
loop_
 _atom_site_type_symbol
 _atom_site_label
 _atom_site_symmetry_multiplicity
 _atom_site_fract_x
 _atom_site_fract_y
 _atom_site_fract_z
 _atom_site_occupancy
  Li  Li0  1  0.79165600  0.79165600  0.25000000  1
  Li  Li1  1  0.20834400  0.20834400  0.75000000  1
  Ti  Ti0  1  0.25284800  0.25284800  0.25000000  1
  Ti  Ti1  1  0.74715200  0.74715200  0.75000000  1
  O  O0  1  0.95951000  0.49891300  0.75000000  1
  O  O1  1  0.50108700  0.04049000  0.25000000  1
  O  O2  1  0.74945100  0.41071200  0.75000000  1
  O  O3  1  0.58928800  0.25054900  0.25000000  1
  O  O4  1  0.41071200  0.74945100  0.75000000  1
  O  O5  1  0.25054900  0.58928800  0.25000000  1
  O  O6  1  0.49891300  0.95951000  0.75000000  1
  O  O7  1  0.04049000  0.50108700  0.25000000  1
  F  F0  1  0.02325900  0.02325900  0.25000000  1
  F  F1  1  0.27172500  0.27172500  0.50319900  1
  F  F2  1  0.27172500  0.27172500  0.99680100  1
  F  F3  1  0.72827500  0.72827500  0.49680100  1
  F  F4  1  0.72827500  0.72827500  0.00319900  1
  F  F5  1  0.97674100  0.97674100  0.75000000  1
loop_
_geom_bond_atom_site_label_1
_geom_bond_atom_site_label_2
_geom_bond_distance
_geom_bond_site_symmetry_2
Li0 O7 2.404504 1_655
Li0 O1 2.404504 1_565
Li1 O6 2.404504 1_545
Li1 O0 2.404504 1_455
O0 O2 1.335606 1_555
O0 Ti1 2.053281 1_555
O1 O3 1.335606 1_555
O1 Ti0 2.053281 1_555
O2 Ti1 2.034449 1_555
O3 Ti0 2.034449 1_555
O4 O6 1.335606 1_555
O4 Ti1 2.034449 1_555
O5 O7 1.335606 1_555
O5 Ti0 2.034449 1_555
O6 Ti1 2.053281 1_555
O7 Ti0 2.053281 1_555
F0 Ti0 1.879389 1_555
F0 Li0 1.895876 1_445
F1 Ti0 1.871041 1_555
F1 Li1 1.890134 1_555
F2 Ti0 1.871041 1_556
F2 Li1 1.890134 1_555
F3 Ti1 1.871041 1_555
F3 Li0 1.890134 1_555
F4 Ti1 1.871041 1_554
F4 Li0 1.890134 1_555
F5 Ti1 1.879389 1_555
F5 Li1 1.895876 1_665
