# generated using pymatgen
data_Na5Mn2P2(CO7)2
_symmetry_space_group_name_H-M   'P 1'
_cell_length_a   9.03279141
_cell_length_b   6.60355800
_cell_length_c   10.55702079
_cell_angle_alpha   90.00000000
_cell_angle_beta   88.80260163
_cell_angle_gamma   90.00000000
_symmetry_Int_Tables_number   1
_chemical_formula_structural   Na5Mn2P2(CO7)2
_chemical_formula_sum   'Na10 Mn4 P4 C4 O28'
_cell_volume   629.57360070
_cell_formula_units_Z   2
loop_
 _symmetry_equiv_pos_site_id
 _symmetry_equiv_pos_as_xyz
  1  'x, y, z'
loop_
 _atom_site_type_symbol
 _atom_site_label
 _atom_site_symmetry_multiplicity
 _atom_site_fract_x
 _atom_site_fract_y
 _atom_site_fract_z
 _atom_site_occupancy
  Na  Na0  1  0.07738700  0.25000000  0.88545000  1
  Na  Na1  1  0.25393100  0.00722200  0.61505600  1
  Na  Na2  1  0.25393100  0.49277800  0.61505600  1
  Na  Na3  1  0.24247600  0.99971100  0.13234600  1
  Na  Na4  1  0.24247600  0.50028900  0.13234600  1
  Na  Na5  1  0.74606900  0.50722200  0.88494400  1
  Na  Na6  1  0.74606900  0.99277800  0.88494400  1
  Na  Na7  1  0.75752400  0.49971100  0.36765400  1
  Na  Na8  1  0.75752400  0.00028900  0.36765400  1
  Na  Na9  1  0.92261300  0.75000000  0.61455000  1
  Mn  Mn0  1  0.35388000  0.75000000  0.89017600  1
  Mn  Mn1  1  0.35737900  0.75000000  0.38774000  1
  Mn  Mn2  1  0.64612000  0.25000000  0.60982400  1
  Mn  Mn3  1  0.64262100  0.25000000  0.11226000  1
  P  P0  1  0.41939200  0.25000000  0.85019900  1
  P  P1  1  0.42391400  0.25000000  0.35148600  1
  P  P2  1  0.58060800  0.75000000  0.64980100  1
  P  P3  1  0.57608600  0.75000000  0.14851400  1
  C  C0  1  0.06607800  0.75000000  0.85987600  1
  C  C1  1  0.06967800  0.75000000  0.36923100  1
  C  C2  1  0.93392200  0.25000000  0.64012400  1
  C  C3  1  0.93032200  0.25000000  0.13076900  1
  O  O0  1  0.07546200  0.25000000  0.64774400  1
  O  O1  1  0.07143500  0.25000000  0.12374000  1
  O  O2  1  0.13404400  0.75000000  0.96766300  1
  O  O3  1  0.14500500  0.75000000  0.47608600  1
  O  O4  1  0.14943100  0.75000000  0.75669600  1
  O  O5  1  0.14812500  0.75000000  0.26606200  1
  O  O6  1  0.32274100  0.06277800  0.88759500  1
  O  O7  1  0.32274100  0.43722200  0.88759500  1
  O  O8  1  0.33306500  0.05923800  0.38953200  1
  O  O9  1  0.33306500  0.44076200  0.38953200  1
  O  O10  1  0.44494800  0.25000000  0.70230800  1
  O  O11  1  0.43024700  0.75000000  0.58447800  1
  O  O12  1  0.44557800  0.25000000  0.20294200  1
  O  O13  1  0.42273300  0.75000000  0.08562000  1
  O  O14  1  0.56975300  0.25000000  0.91552200  1
  O  O15  1  0.55505200  0.75000000  0.79769200  1
  O  O16  1  0.57726700  0.25000000  0.41438000  1
  O  O17  1  0.55442200  0.75000000  0.29705800  1
  O  O18  1  0.67725900  0.56277800  0.61240500  1
  O  O19  1  0.67725900  0.93722200  0.61240500  1
  O  O20  1  0.66693500  0.55923800  0.11046800  1
  O  O21  1  0.66693500  0.94076200  0.11046800  1
  O  O22  1  0.85056900  0.25000000  0.74330400  1
  O  O23  1  0.85187500  0.25000000  0.23393800  1
  O  O24  1  0.86595600  0.25000000  0.53233700  1
  O  O25  1  0.85499500  0.25000000  0.02391400  1
  O  O26  1  0.92453800  0.75000000  0.85225600  1
  O  O27  1  0.92856500  0.75000000  0.37626000  1
loop_
_geom_bond_atom_site_label_1
_geom_bond_atom_site_label_2
_geom_bond_distance
_geom_bond_site_symmetry_2
Na0 O25 2.459552 1_456
Na0 O0 2.509891 1_555
Na0 O1 2.515083 1_556
Na0 O6 2.538269 1_555
Na0 O7 2.538269 1_555
Na0 O22 2.564760 1_455
Na1 O0 2.294529 1_555
Na1 O11 2.346136 1_545
Na1 O4 2.439896 1_545
Na1 O3 2.462922 1_545
Na1 O8 2.495256 1_555
Na1 O10 2.542085 1_555
Na2 O0 2.294529 1_555
Na2 O11 2.346136 1_555
Na2 O4 2.439896 1_555
Na2 O3 2.462922 1_555
Na2 O9 2.495256 1_555
Na2 O10 2.542085 1_555
Na3 O1 2.265572 1_565
Na3 O5 2.321191 1_555
Na3 O13 2.362206 1_555
Na3 O12 2.590369 1_565
Na3 O2 2.602348 1_554
Na3 O6 2.701303 1_564
Na3 O8 2.879029 1_565
Na4 O1 2.265572 1_555
Na4 O5 2.321191 1_555
Na4 O13 2.362206 1_555
Na4 O12 2.590369 1_555
Na4 O2 2.602348 1_554
Na4 O7 2.701303 1_554
Na4 O9 2.879029 1_555
Na5 O26 2.294529 1_555
Na5 O14 2.346136 1_555
Na5 O22 2.439896 1_555
Na5 O25 2.462922 1_556
Na5 O20 2.495256 1_556
Na5 O15 2.542085 1_555
Na6 O26 2.294529 1_555
Na6 O14 2.346136 1_565
Na6 O22 2.439896 1_565
Na6 O25 2.462922 1_566
Na6 O21 2.495256 1_556
Na6 O15 2.542085 1_555
Na7 O27 2.265572 1_555
Na7 O23 2.321191 1_555
Na7 O16 2.362206 1_555
Na7 O17 2.590369 1_555
Na7 O24 2.602348 1_555
Na7 O18 2.701303 1_555
Na7 O20 2.879029 1_555
Na8 O27 2.265572 1_545
Na8 O23 2.321191 1_555
Na8 O16 2.362206 1_555
Na8 O17 2.590369 1_545
Na8 O24 2.602348 1_555
Na8 O19 2.701303 1_545
Na8 O21 2.879029 1_545
Na9 O3 2.459552 1_655
Na9 O26 2.509891 1_555
Na9 O27 2.515083 1_555
Na9 O18 2.538269 1_555
Na9 O19 2.538269 1_555
Na9 O4 2.564760 1_655
Mn0 O15 2.044782 1_555
Mn0 O7 2.084766 1_555
Mn0 O6 2.084766 1_565
Mn0 O2 2.131765 1_555
Mn0 O13 2.167410 1_556
Mn0 O4 2.346260 1_555
Mn1 O17 2.003280 1_555
Mn1 O8 2.053892 1_565
Mn1 O9 2.053892 1_555
Mn1 O3 2.115440 1_555
Mn1 O11 2.191839 1_555
Mn1 O5 2.307427 1_555
Mn2 O10 2.044782 1_555
Mn2 O19 2.084766 1_545
Mn2 O18 2.084766 1_555
Mn2 O24 2.131765 1_555
Mn2 O16 2.167410 1_555
Mn2 O22 2.346260 1_555
Mn3 O12 2.003280 1_555
Mn3 O20 2.053892 1_555
Mn3 O21 2.053892 1_545
Mn3 O25 2.115440 1_555
Mn3 O14 2.191839 1_554
Mn3 O23 2.307427 1_555
C0 O26 1.282706 1_455
C0 O2 1.304199 1_555
C0 O4 1.311150 1_555
C1 O27 1.275253 1_455
C1 O5 1.286902 1_555
C1 O3 1.329505 1_555
C2 O0 1.282706 1_655
C2 O24 1.304199 1_555
C2 O22 1.311150 1_555
C3 O1 1.275253 1_655
C3 O23 1.286902 1_555
C3 O25 1.329505 1_555
O6 P0 1.559535 1_555
O7 P0 1.559535 1_555
O8 P1 1.551719 1_555
O9 P1 1.551719 1_555
O10 P0 1.573482 1_555
O11 P2 1.536023 1_555
O12 P1 1.576281 1_555
O13 P3 1.548578 1_555
O14 P0 1.536023 1_555
O15 P2 1.573482 1_555
O16 P1 1.548578 1_555
O17 P3 1.576281 1_555
O18 P2 1.559535 1_555
O19 P2 1.559535 1_555
O20 P3 1.551719 1_555
O21 P3 1.551719 1_555
