# generated using pymatgen
data_LiFePO4
_symmetry_space_group_name_H-M   'P 1'
_cell_length_a   7.40018400
_cell_length_b   8.48569700
_cell_length_c   14.84516122
_cell_angle_alpha   89.04196257
_cell_angle_beta   90.00000000
_cell_angle_gamma   90.00000000
_symmetry_Int_Tables_number   1
_chemical_formula_structural   LiFePO4
_chemical_formula_sum   'Li12 Fe12 P12 O48'
_cell_volume   932.08226005
_cell_formula_units_Z   12
loop_
 _symmetry_equiv_pos_site_id
 _symmetry_equiv_pos_as_xyz
  1  'x, y, z'
loop_
 _atom_site_type_symbol
 _atom_site_label
 _atom_site_symmetry_multiplicity
 _atom_site_fract_x
 _atom_site_fract_y
 _atom_site_fract_z
 _atom_site_occupancy
  Li  Li0  1  0.33130600  0.06670700  0.59249700  1
  Li  Li1  1  0.17786600  0.07862600  0.24141800  1
  Li  Li2  1  0.32552800  0.09636200  0.91974800  1
  Li  Li3  1  0.82552800  0.40363800  0.58025200  1
  Li  Li4  1  0.67786600  0.42137400  0.25858200  1
  Li  Li5  1  0.83130600  0.43329300  0.90750300  1
  Li  Li6  1  0.16869400  0.56670700  0.09249700  1
  Li  Li7  1  0.32213400  0.57862600  0.74141800  1
  Li  Li8  1  0.17447200  0.59636200  0.41974800  1
  Li  Li9  1  0.67447200  0.90363800  0.08025200  1
  Li  Li10  1  0.82213400  0.92137400  0.75858200  1
  Li  Li11  1  0.66869400  0.93329300  0.40750300  1
  Fe  Fe0  1  0.03858500  0.23697400  0.07631900  1
  Fe  Fe1  1  0.95598000  0.24117500  0.41342600  1
  Fe  Fe2  1  0.04551700  0.24841900  0.75544500  1
  Fe  Fe3  1  0.54551700  0.25158100  0.74455500  1
  Fe  Fe4  1  0.45598000  0.25882500  0.08657400  1
  Fe  Fe5  1  0.53858500  0.26302600  0.42368100  1
  Fe  Fe6  1  0.46141500  0.73697400  0.57631900  1
  Fe  Fe7  1  0.54402000  0.74117500  0.91342600  1
  Fe  Fe8  1  0.45448300  0.74841900  0.25544500  1
  Fe  Fe9  1  0.95448300  0.75158100  0.24455500  1
  Fe  Fe10  1  0.04402000  0.75882500  0.58657400  1
  Fe  Fe11  1  0.96141500  0.76302600  0.92368100  1
  P  P0  1  0.74128200  0.05246700  0.58907900  1
  P  P1  1  0.76122200  0.08172600  0.22925600  1
  P  P2  1  0.73553000  0.10945200  0.92449800  1
  P  P3  1  0.23553000  0.39054800  0.57550200  1
  P  P4  1  0.26122200  0.41827400  0.27074400  1
  P  P5  1  0.24128200  0.44753300  0.91092100  1
  P  P6  1  0.75871800  0.55246700  0.08907900  1
  P  P7  1  0.73877800  0.58172600  0.72925600  1
  P  P8  1  0.76447000  0.60945200  0.42449800  1
  P  P9  1  0.26447000  0.89054800  0.07550200  1
  P  P10  1  0.23877800  0.91827400  0.77074400  1
  P  P11  1  0.25871800  0.94753300  0.41092100  1
  O  O0  1  0.43566800  0.04318200  0.39757100  1
  O  O1  1  0.10091000  0.04245300  0.36944900  1
  O  O2  1  0.23369500  0.06543500  0.04367800  1
  O  O3  1  0.94484100  0.07889200  0.17891100  1
  O  O4  1  0.61078300  0.09688500  0.15770500  1
  O  O5  1  0.26234800  0.08322400  0.72119100  1
  O  O6  1  0.76839400  0.09319800  0.48679500  1
  O  O7  1  0.72455700  0.11059800  0.81864600  1
  O  O8  1  0.55643500  0.17267000  0.96183300  1
  O  O9  1  0.75715200  0.21337400  0.30082900  1
  O  O10  1  0.72466500  0.21149000  0.63961600  1
  O  O11  1  0.89225400  0.21668700  0.95396300  1
  O  O12  1  0.39225400  0.28331300  0.54603700  1
  O  O13  1  0.22466500  0.28851000  0.86038400  1
  O  O14  1  0.25715200  0.28662600  0.19917100  1
  O  O15  1  0.05643500  0.32733000  0.53816700  1
  O  O16  1  0.22455700  0.38940200  0.68135400  1
  O  O17  1  0.26839400  0.40680200  0.01320500  1
  O  O18  1  0.11078300  0.40311500  0.34229500  1
  O  O19  1  0.76234800  0.41677600  0.77880900  1
  O  O20  1  0.44484100  0.42110800  0.32108900  1
  O  O21  1  0.73369500  0.43456500  0.45632200  1
  O  O22  1  0.60091000  0.45754700  0.13055100  1
  O  O23  1  0.93566800  0.45681800  0.10242900  1
  O  O24  1  0.06433200  0.54318200  0.89757100  1
  O  O25  1  0.39909000  0.54245300  0.86944900  1
  O  O26  1  0.26630500  0.56543500  0.54367800  1
  O  O27  1  0.55515900  0.57889200  0.67891100  1
  O  O28  1  0.23765200  0.58322400  0.22119100  1
  O  O29  1  0.88921700  0.59688500  0.65770500  1
  O  O30  1  0.73160600  0.59319800  0.98679500  1
  O  O31  1  0.77544300  0.61059800  0.31864600  1
  O  O32  1  0.94356500  0.67267000  0.46183300  1
  O  O33  1  0.74284800  0.71337400  0.80082900  1
  O  O34  1  0.77533500  0.71149000  0.13961600  1
  O  O35  1  0.60774600  0.71668700  0.45396300  1
  O  O36  1  0.10774600  0.78331300  0.04603700  1
  O  O37  1  0.27533500  0.78851000  0.36038400  1
  O  O38  1  0.24284800  0.78662600  0.69917100  1
  O  O39  1  0.44356500  0.82733000  0.03816700  1
  O  O40  1  0.27544300  0.88940200  0.18135400  1
  O  O41  1  0.23160600  0.90680200  0.51320500  1
  O  O42  1  0.73765200  0.91677600  0.27880900  1
  O  O43  1  0.38921700  0.90311500  0.84229500  1
  O  O44  1  0.05515900  0.92110800  0.82108900  1
  O  O45  1  0.76630500  0.93456500  0.95632200  1
  O  O46  1  0.89909000  0.95754700  0.63055100  1
  O  O47  1  0.56433200  0.95681800  0.60242900  1
loop_
_geom_bond_atom_site_label_1
_geom_bond_atom_site_label_2
_geom_bond_distance
_geom_bond_site_symmetry_2
Li0 O41 1.955638 1_545
Li0 O47 1.964776 1_545
Li0 O5 1.984679 1_555
Li0 O12 2.003788 1_555
Li1 O14 1.953429 1_555
Li1 O3 1.958222 1_455
Li1 O40 1.985601 1_545
Li1 O1 2.002864 1_555
Li2 O8 1.934679 1_555
Li2 O2 1.974659 1_556
Li2 O13 1.986017 1_555
Li2 O43 2.072749 1_545
Li3 O15 1.934679 1_655
Li3 O21 1.974659 1_555
Li3 O10 1.986017 1_555
Li3 O29 2.072749 1_555
Li4 O9 1.953429 1_555
Li4 O20 1.958222 1_555
Li4 O31 1.985601 1_555
Li4 O22 2.002864 1_555
Li5 O30 1.955638 1_555
Li5 O24 1.964776 1_655
Li5 O19 1.984679 1_555
Li5 O11 2.003788 1_555
Li6 O17 1.955638 1_555
Li6 O23 1.964776 1_455
Li6 O28 1.984679 1_555
Li6 O36 2.003788 1_555
Li7 O38 1.953429 1_555
Li7 O27 1.958222 1_555
Li7 O16 1.985601 1_555
Li7 O25 2.002864 1_555
Li8 O32 1.934679 1_455
Li8 O26 1.974659 1_555
Li8 O37 1.986017 1_555
Li8 O18 2.072749 1_555
Li9 O39 1.934679 1_555
Li9 O45 1.974659 1_554
Li9 O34 1.986017 1_555
Li9 O4 2.072749 1_565
Li10 O33 1.953429 1_555
Li10 O44 1.958222 1_655
Li10 O7 1.985601 1_565
Li10 O46 2.002864 1_555
Li11 O6 1.955638 1_565
Li11 O0 1.964776 1_565
Li11 O42 1.984679 1_555
Li11 O35 2.003788 1_555
Fe0 O23 2.057829 1_455
Fe0 O2 2.112331 1_555
Fe0 O11 2.124147 1_454
Fe0 O3 2.128825 1_455
Fe0 O17 2.408658 1_555
Fe0 O14 2.478993 1_555
Fe1 O18 2.065719 1_655
Fe1 O1 2.111134 1_655
Fe1 O15 2.135777 1_655
Fe1 O6 2.155072 1_555
Fe1 O9 2.242261 1_555
Fe1 O21 2.416477 1_555
Fe2 O13 2.077948 1_555
Fe2 O16 2.086247 1_555
Fe2 O5 2.195940 1_555
Fe2 O19 2.563001 1_455
Fe3 O10 2.077948 1_555
Fe3 O7 2.086247 1_555
Fe3 O19 2.195940 1_555
Fe3 O5 2.563001 1_555
Fe4 O4 2.065719 1_555
Fe4 O22 2.111134 1_555
Fe4 O8 2.135777 1_554
Fe4 O17 2.155072 1_555
Fe4 O14 2.242261 1_555
Fe4 O2 2.416477 1_555
Fe5 O0 2.057829 1_555
Fe5 O21 2.112331 1_555
Fe5 O12 2.124147 1_555
Fe5 O20 2.128825 1_555
Fe5 O6 2.408658 1_555
Fe5 O9 2.478993 1_555
Fe6 O47 2.057829 1_555
Fe6 O26 2.112331 1_555
Fe6 O35 2.124147 1_555
Fe6 O27 2.128825 1_555
Fe6 O41 2.408658 1_555
Fe6 O38 2.478993 1_555
Fe7 O43 2.065719 1_555
Fe7 O25 2.111134 1_555
Fe7 O39 2.135777 1_556
Fe7 O30 2.155072 1_555
Fe7 O33 2.242261 1_555
Fe7 O45 2.416477 1_555
Fe8 O37 2.077948 1_555
Fe8 O40 2.086247 1_555
Fe8 O28 2.195940 1_555
Fe8 O42 2.563001 1_555
Fe9 O34 2.077948 1_555
Fe9 O31 2.086247 1_555
Fe9 O42 2.195940 1_555
Fe9 O28 2.563001 1_655
Fe10 O29 2.065719 1_455
Fe10 O46 2.111134 1_455
Fe10 O32 2.135777 1_455
Fe10 O41 2.155072 1_555
Fe10 O38 2.242261 1_555
Fe10 O26 2.416477 1_555
Fe11 O24 2.057829 1_655
Fe11 O45 2.112331 1_555
Fe11 O36 2.124147 1_656
Fe11 O44 2.128825 1_655
Fe11 O30 2.408658 1_555
Fe11 O33 2.478993 1_555
O0 P11 1.551568 1_545
O1 P11 1.541103 1_545
O2 P9 1.566519 1_545
O3 P1 1.551171 1_555
O4 P1 1.542596 1_555
O5 P10 1.579979 1_545
O6 P0 1.564536 1_555
O7 P2 1.573354 1_555
O8 P2 1.536692 1_555
O9 P1 1.554832 1_555
O10 P0 1.559730 1_555
O11 P2 1.542005 1_555
O12 P3 1.542005 1_555
O13 P5 1.559730 1_555
O14 P4 1.554832 1_555
O15 P3 1.536692 1_555
O16 P3 1.573354 1_555
O17 P5 1.564536 1_554
O18 P4 1.542596 1_555
O19 P7 1.579979 1_555
O20 P4 1.551171 1_555
O21 P8 1.566519 1_555
O22 P6 1.541103 1_555
O23 P6 1.551568 1_555
O24 P5 1.551568 1_555
O25 P5 1.541103 1_555
O26 P3 1.566519 1_555
O27 P7 1.551171 1_555
O28 P4 1.579979 1_555
O29 P7 1.542596 1_555
O30 P6 1.564536 1_556
O31 P8 1.573354 1_555
O32 P8 1.536692 1_555
O33 P7 1.554832 1_555
O34 P6 1.559730 1_555
O35 P8 1.542005 1_555
O36 P9 1.542005 1_555
O37 P11 1.559730 1_555
O38 P10 1.554832 1_555
O39 P9 1.536692 1_555
O40 P9 1.573354 1_555
O41 P11 1.564536 1_555
O42 P1 1.579979 1_565
O43 P10 1.542596 1_555
O44 P10 1.551171 1_555
O45 P2 1.566519 1_565
O46 P0 1.541103 1_565
O47 P0 1.551568 1_565
