# generated using pymatgen
data_LiSb(TeO4)3
_symmetry_space_group_name_H-M   'P 1'
_cell_length_a   5.11805300
_cell_length_b   5.33546404
_cell_length_c   7.40074397
_cell_angle_alpha   93.40666165
_cell_angle_beta   90.14710390
_cell_angle_gamma   89.99324538
_symmetry_Int_Tables_number   1
_chemical_formula_structural   LiSb(TeO4)3
_chemical_formula_sum   'Li1 Sb1 Te3 O12'
_cell_volume   201.73572551
_cell_formula_units_Z   1
loop_
 _symmetry_equiv_pos_site_id
 _symmetry_equiv_pos_as_xyz
  1  'x, y, z'
loop_
 _atom_site_type_symbol
 _atom_site_label
 _atom_site_symmetry_multiplicity
 _atom_site_fract_x
 _atom_site_fract_y
 _atom_site_fract_z
 _atom_site_occupancy
  Li  Li0  1  0.49782200  0.92411100  0.78887600  1
  Sb  Sb0  1  0.99951700  0.00344200  0.00574100  1
  Te  Te0  1  0.00187600  0.00589000  0.49686200  1
  Te  Te1  1  0.49920800  0.49891200  0.00204500  1
  Te  Te2  1  0.50063100  0.50047200  0.49439500  1
  O  O0  1  0.33085500  0.82260800  0.04748100  1
  O  O1  1  0.68539400  0.81914100  0.56370500  1
  O  O2  1  0.18863300  0.69074500  0.42900900  1
  O  O3  1  0.79771100  0.69420800  0.92768900  1
  O  O4  1  0.63735800  0.50462600  0.24967900  1
  O  O5  1  0.37547300  0.52038300  0.74499300  1
  O  O6  1  0.18498300  0.32816500  0.06216200  1
  O  O7  1  0.81227700  0.31774000  0.56712100  1
  O  O8  1  0.31794300  0.18799500  0.43124200  1
  O  O9  1  0.68012000  0.19116800  0.93139300  1
  O  O10  1  0.86649800  0.00419100  0.25645800  1
  O  O11  1  0.12910100  0.00775600  0.74392700  1
loop_
_geom_bond_atom_site_label_1
_geom_bond_atom_site_label_2
_geom_bond_distance
_geom_bond_site_symmetry_2
Li0 O9 1.957009 1_565
Li0 O11 1.971123 1_565
Li0 O1 1.977232 1_555
Li0 O0 2.195023 1_556
Li0 O5 2.248058 1_555
Li0 O3 2.248779 1_555
O0 Te1 1.941746 1_555
O0 Sb0 1.983539 1_465
O1 Te0 1.980972 1_665
O1 Te2 1.985548 1_555
O2 Te2 1.966891 1_555
O2 Te0 1.973519 1_565
O3 Te1 1.948190 1_556
O3 Sb0 2.001680 1_566
O4 Te2 1.944601 1_555
O4 Te1 1.961192 1_555
O5 Te2 1.960577 1_555
O5 Te1 2.013182 1_556
O6 Te1 1.914799 1_555
O6 Sb0 1.997368 1_455
O7 Te2 1.960080 1_555
O7 Te0 1.969730 1_655
O8 Te2 1.943653 1_555
O8 Te0 1.963961 1_555
O9 Te1 1.930503 1_556
O9 Sb0 2.009645 1_556
O10 Te0 1.907183 1_655
O10 Sb0 1.977867 1_555
O11 Te0 1.938839 1_555
O11 Sb0 2.051013 1_456
