# generated using pymatgen
data_Ti3MnCo2(PO4)6
_symmetry_space_group_name_H-M   'P 1'
_cell_length_a   8.56731979
_cell_length_b   8.56731992
_cell_length_c   8.56731986
_cell_angle_alpha   60.83831163
_cell_angle_beta   60.83831473
_cell_angle_gamma   60.83831294
_symmetry_Int_Tables_number   1
_chemical_formula_structural   Ti3MnCo2(PO4)6
_chemical_formula_sum   'Ti3 Mn1 Co2 P6 O24'
_cell_volume   453.05714231
_cell_formula_units_Z   1
loop_
 _symmetry_equiv_pos_site_id
 _symmetry_equiv_pos_as_xyz
  1  'x, y, z'
loop_
 _atom_site_type_symbol
 _atom_site_label
 _atom_site_symmetry_multiplicity
 _atom_site_fract_x
 _atom_site_fract_y
 _atom_site_fract_z
 _atom_site_occupancy
  Ti  Ti0  1  0.14367300  0.14367300  0.14367300  1
  Ti  Ti1  1  0.35406800  0.35406800  0.35406800  1
  Ti  Ti2  1  0.64714300  0.64714300  0.64714300  1
  Mn  Mn0  1  0.85539000  0.85539000  0.85539000  1
  Co  Co0  1  0.99625000  0.99625000  0.99625000  1
  Co  Co1  1  0.49913700  0.49913700  0.49913700  1
  P  P0  1  0.04953800  0.75263300  0.44991300  1
  P  P1  1  0.44991300  0.04953800  0.75263300  1
  P  P2  1  0.25543200  0.54173900  0.95455300  1
  P  P3  1  0.54173900  0.95455300  0.25543200  1
  P  P4  1  0.95455300  0.25543200  0.54173900  1
  P  P5  1  0.75263300  0.44991300  0.04953800  1
  O  O0  1  0.11075900  0.33578000  0.47929100  1
  O  O1  1  0.33578000  0.47929100  0.11075900  1
  O  O2  1  0.05950300  0.91104000  0.25214900  1
  O  O3  1  0.47929100  0.11075900  0.33578000  1
  O  O4  1  0.02250700  0.81598900  0.59800400  1
  O  O5  1  0.24318200  0.58784600  0.42693700  1
  O  O6  1  0.25214900  0.05950300  0.91104000  1
  O  O7  1  0.42693700  0.24318200  0.58784600  1
  O  O8  1  0.18680400  0.38035300  0.00230000  1
  O  O9  1  0.58784600  0.42693700  0.24318200  1
  O  O10  1  0.10261600  0.73400300  0.95191000  1
  O  O11  1  0.38035300  0.00230000  0.18680400  1
  O  O12  1  0.59800400  0.02250700  0.81598900  1
  O  O13  1  0.91104000  0.25214900  0.05950300  1
  O  O14  1  0.41661800  0.55072600  0.75924200  1
  O  O15  1  0.81598900  0.59800400  0.02250700  1
  O  O16  1  0.55072600  0.75924200  0.41661800  1
  O  O17  1  0.73400300  0.95191000  0.10261600  1
  O  O18  1  0.75924200  0.41661800  0.55072600  1
  O  O19  1  0.00230000  0.18680400  0.38035300  1
  O  O20  1  0.50316000  0.88102500  0.68878900  1
  O  O21  1  0.95191000  0.10261600  0.73400300  1
  O  O22  1  0.68878900  0.50316000  0.88102500  1
  O  O23  1  0.88102500  0.68878900  0.50316000  1
loop_
_geom_bond_atom_site_label_1
_geom_bond_atom_site_label_2
_geom_bond_distance
_geom_bond_site_symmetry_2
Mn0 O12 2.050353 1_565
Mn0 O15 2.050353 1_556
Mn0 O4 2.050353 1_655
Mn0 O10 2.230173 1_655
Mn0 O21 2.230174 1_565
Mn0 O17 2.230174 1_556
Co0 O21 2.126436 1_565
Co0 O17 2.126436 1_556
Co0 O10 2.126436 1_655
Co0 O2 2.201277 1_656
Co0 O6 2.201277 1_665
Co0 O13 2.201277 1_566
Co1 O18 2.186537 1_555
Co1 O16 2.186537 1_555
Co1 O14 2.186537 1_555
Co1 O5 2.237945 1_555
Co1 O7 2.237945 1_555
Co1 O9 2.237945 1_555
O0 P4 1.546654 1_455
O0 Ti1 1.869691 1_555
O1 P2 1.546654 1_554
O1 Ti1 1.869691 1_555
O2 P0 1.565512 1_555
O2 Ti0 2.073242 1_565
O3 P3 1.546654 1_545
O3 Ti1 1.869691 1_555
O4 P0 1.490052 1_555
O5 P0 1.566591 1_555
O5 Ti1 2.022357 1_555
O6 P1 1.565512 1_555
O6 Ti0 2.073242 1_556
O7 P1 1.566591 1_555
O7 Ti1 2.022357 1_555
O8 P2 1.559294 1_554
O8 Ti0 1.901510 1_555
O9 P5 1.566591 1_555
O9 Ti1 2.022357 1_555
O10 P2 1.522725 1_555
O11 P3 1.559294 1_545
O11 Ti0 1.901510 1_555
O12 P1 1.490052 1_555
O13 P5 1.565512 1_555
O13 Ti0 2.073242 1_655
O14 P2 1.561721 1_555
O14 Ti2 2.115068 1_555
O15 P5 1.490052 1_555
O16 P3 1.561720 1_555
O16 Ti2 2.115068 1_555
O17 P3 1.522725 1_555
O18 P4 1.561720 1_555
O18 Ti2 2.115068 1_555
O19 P4 1.559294 1_455
O19 Ti0 1.901510 1_555
O20 P1 1.573573 1_565
O20 Ti2 1.876945 1_555
O21 P4 1.522725 1_555
O22 P5 1.573573 1_556
O22 Ti2 1.876945 1_555
O23 P0 1.573573 1_655
O23 Ti2 1.876945 1_555
