# generated using pymatgen
data_LiFePH2O5
_symmetry_space_group_name_H-M   'P 1'
_cell_length_a   5.08747100
_cell_length_b   10.30561700
_cell_length_c   16.89628800
_cell_angle_alpha   90.00000000
_cell_angle_beta   90.00000000
_cell_angle_gamma   90.00000000
_symmetry_Int_Tables_number   1
_chemical_formula_structural   LiFePH2O5
_chemical_formula_sum   'Li8 Fe8 P8 H16 O40'
_cell_volume   885.86439845
_cell_formula_units_Z   8
loop_
 _symmetry_equiv_pos_site_id
 _symmetry_equiv_pos_as_xyz
  1  'x, y, z'
loop_
 _atom_site_type_symbol
 _atom_site_label
 _atom_site_symmetry_multiplicity
 _atom_site_fract_x
 _atom_site_fract_y
 _atom_site_fract_z
 _atom_site_occupancy
  Li  Li0  1  0.47066800  0.17558500  0.49593200  1
  Li  Li1  1  0.52933200  0.17558500  0.99593200  1
  Li  Li2  1  0.91172500  0.39569500  0.24729400  1
  Li  Li3  1  0.08827500  0.39569500  0.74729400  1
  Li  Li4  1  0.47066800  0.67558500  0.00406800  1
  Li  Li5  1  0.52933200  0.67558500  0.50406800  1
  Li  Li6  1  0.08827500  0.89569500  0.75270600  1
  Li  Li7  1  0.91172500  0.89569500  0.25270600  1
  Fe  Fe0  1  0.45735800  0.14705400  0.68895000  1
  Fe  Fe1  1  0.54264200  0.14705400  0.18895000  1
  Fe  Fe2  1  0.11385600  0.42151100  0.94220100  1
  Fe  Fe3  1  0.88614400  0.42151100  0.44220100  1
  Fe  Fe4  1  0.54264200  0.64705400  0.31105000  1
  Fe  Fe5  1  0.45735800  0.64705400  0.81105000  1
  Fe  Fe6  1  0.11385600  0.92151100  0.55779900  1
  Fe  Fe7  1  0.88614400  0.92151100  0.05779900  1
  P  P0  1  0.01478400  0.22760600  0.09182900  1
  P  P1  1  0.98521600  0.22760600  0.59182900  1
  P  P2  1  0.41064100  0.34502800  0.34098300  1
  P  P3  1  0.58935900  0.34502800  0.84098300  1
  P  P4  1  0.01478400  0.72760600  0.40817100  1
  P  P5  1  0.98521600  0.72760600  0.90817100  1
  P  P6  1  0.58935900  0.84502800  0.65901700  1
  P  P7  1  0.41064100  0.84502800  0.15901700  1
  H  H0  1  0.09159100  0.00312400  0.37161100  1
  H  H1  1  0.90840900  0.00312400  0.87161100  1
  H  H2  1  0.63608600  0.05205700  0.38061000  1
  H  H3  1  0.36391400  0.05205700  0.88061000  1
  H  H4  1  0.13443900  0.11071900  0.30796200  1
  H  H5  1  0.86556100  0.11071900  0.80796200  1
  H  H6  1  0.62394900  0.44859800  0.05341900  1
  H  H7  1  0.37605100  0.44859800  0.55341900  1
  H  H8  1  0.09159100  0.50312400  0.12838900  1
  H  H9  1  0.90840900  0.50312400  0.62838900  1
  H  H10  1  0.36391400  0.55205700  0.61939000  1
  H  H11  1  0.63608600  0.55205700  0.11939000  1
  H  H12  1  0.86556100  0.61071900  0.69203800  1
  H  H13  1  0.13443900  0.61071900  0.19203800  1
  H  H14  1  0.62394900  0.94859800  0.44658100  1
  H  H15  1  0.37605100  0.94859800  0.94658100  1
  O  O0  1  0.52937700  0.02490800  0.42619400  1
  O  O1  1  0.47062300  0.02490800  0.92619400  1
  O  O2  1  0.01320400  0.03962300  0.32344300  1
  O  O3  1  0.98679600  0.03962300  0.82344300  1
  O  O4  1  0.86031800  0.11779500  0.04796600  1
  O  O5  1  0.13968200  0.11779500  0.54796600  1
  O  O6  1  0.31224200  0.19411700  0.09443800  1
  O  O7  1  0.68775800  0.19411700  0.59443800  1
  O  O8  1  0.57847100  0.21667900  0.79426900  1
  O  O9  1  0.42152900  0.21667900  0.29426900  1
  O  O10  1  0.89771300  0.24151800  0.17664000  1
  O  O11  1  0.10228700  0.24151800  0.67664000  1
  O  O12  1  0.46583100  0.32603400  0.92496900  1
  O  O13  1  0.53416900  0.32603400  0.42496900  1
  O  O14  1  0.96991500  0.35609600  0.04629300  1
  O  O15  1  0.03008500  0.35609600  0.54629300  1
  O  O16  1  0.12037400  0.38933400  0.34709400  1
  O  O17  1  0.87962600  0.38933400  0.84709400  1
  O  O18  1  0.57545900  0.45133000  0.29731100  1
  O  O19  1  0.42454100  0.45133000  0.79731100  1
  O  O20  1  0.47062300  0.52490800  0.57380600  1
  O  O21  1  0.52937700  0.52490800  0.07380600  1
  O  O22  1  0.98679600  0.53962300  0.67655700  1
  O  O23  1  0.01320400  0.53962300  0.17655700  1
  O  O24  1  0.13968200  0.61779500  0.95203400  1
  O  O25  1  0.86031800  0.61779500  0.45203400  1
  O  O26  1  0.68775800  0.69411700  0.90556200  1
  O  O27  1  0.31224200  0.69411700  0.40556200  1
  O  O28  1  0.42152900  0.71667900  0.20573100  1
  O  O29  1  0.57847100  0.71667900  0.70573100  1
  O  O30  1  0.10228700  0.74151800  0.82336000  1
  O  O31  1  0.89771300  0.74151800  0.32336000  1
  O  O32  1  0.46583100  0.82603400  0.57503100  1
  O  O33  1  0.53416900  0.82603400  0.07503100  1
  O  O34  1  0.96991500  0.85609600  0.45370700  1
  O  O35  1  0.03008500  0.85609600  0.95370700  1
  O  O36  1  0.87962600  0.88933400  0.65290600  1
  O  O37  1  0.12037400  0.88933400  0.15290600  1
  O  O38  1  0.42454100  0.95133000  0.70268900  1
  O  O39  1  0.57545900  0.95133000  0.20268900  1
loop_
_geom_bond_atom_site_label_1
_geom_bond_atom_site_label_2
_geom_bond_distance
_geom_bond_site_symmetry_2
Li0 O0 1.972024 1_555
Li0 O13 1.986442 1_555
Li0 O5 1.990756 1_555
Li0 O7 2.006599 1_555
Li1 O1 1.972024 1_555
Li1 O12 1.986442 1_555
Li1 O4 1.990756 1_556
Li1 O6 2.006599 1_556
Li2 O23 1.973601 1_655
Li2 O10 1.988664 1_555
Li2 O18 1.992379 1_555
Li2 O16 1.993617 1_655
Li3 O22 1.973601 1_455
Li3 O11 1.988664 1_555
Li3 O19 1.992379 1_555
Li3 O17 1.993617 1_455
Li4 O21 1.972024 1_555
Li4 O33 1.986442 1_555
Li4 O24 1.990756 1_554
Li4 O26 2.006599 1_554
Li5 O20 1.972024 1_555
Li5 O32 1.986442 1_555
Li5 O25 1.990756 1_555
Li5 O27 2.006599 1_555
Li6 O3 1.973601 1_465
Li6 O30 1.988664 1_555
Li6 O38 1.992379 1_555
Li6 O36 1.993617 1_455
Li7 O2 1.973601 1_665
Li7 O31 1.988664 1_555
Li7 O39 1.992379 1_555
Li7 O37 1.993617 1_655
Fe0 O8 2.015222 1_555
Fe0 O38 2.037223 1_545
Fe0 O7 2.039431 1_555
Fe0 O11 2.062550 1_555
Fe1 O9 2.015222 1_555
Fe1 O39 2.037223 1_545
Fe1 O6 2.039431 1_555
Fe1 O10 2.062550 1_555
Fe2 O14 2.020889 1_456
Fe2 O17 2.027873 1_455
Fe2 O24 2.033887 1_555
Fe2 O12 2.063832 1_555
Fe3 O15 2.020889 1_655
Fe3 O16 2.027873 1_655
Fe3 O25 2.033887 1_555
Fe3 O13 2.063832 1_555
Fe4 O28 2.015222 1_555
Fe4 O18 2.037223 1_555
Fe4 O27 2.039431 1_555
Fe4 O31 2.062550 1_555
Fe5 O29 2.015222 1_555
Fe5 O19 2.037223 1_555
Fe5 O26 2.039431 1_555
Fe5 O30 2.062550 1_555
Fe6 O34 2.020889 1_455
Fe6 O36 2.027873 1_455
Fe6 O5 2.033887 1_565
Fe6 O32 2.063832 1_555
Fe7 O35 2.020889 1_654
Fe7 O37 2.027873 1_655
Fe7 O4 2.033887 1_565
Fe7 O33 2.063832 1_555
H0 O2 0.981269 1_555
H1 O3 0.981269 1_555
H2 O0 0.982958 1_555
H3 O1 0.982958 1_555
H4 O2 0.992808 1_555
H5 O3 0.992808 1_555
H6 O21 0.984176 1_555
H7 O20 0.984176 1_555
H8 O23 0.981269 1_555
H9 O22 0.981269 1_555
H10 O20 0.982958 1_555
H11 O21 0.982958 1_555
H12 O22 0.992808 1_555
H13 O23 0.992808 1_555
H14 O0 0.984176 1_565
H15 O1 0.984176 1_565
O4 P0 1.564444 1_655
O5 P1 1.564444 1_455
O6 P0 1.552791 1_555
O7 P1 1.552791 1_555
O8 P3 1.541307 1_555
O9 P2 1.541307 1_555
O10 P0 1.558446 1_655
O11 P1 1.558446 1_455
O12 P3 1.564278 1_555
O13 P2 1.564278 1_555
O14 P0 1.548383 1_655
O15 P1 1.548383 1_455
O16 P2 1.549149 1_555
O17 P3 1.549149 1_555
O18 P2 1.564519 1_555
O19 P3 1.564519 1_555
O24 P5 1.564444 1_455
O25 P4 1.564444 1_655
O26 P5 1.552791 1_555
O27 P4 1.552791 1_555
O28 P7 1.541307 1_555
O29 P6 1.541307 1_555
O30 P5 1.558446 1_455
O31 P4 1.558446 1_655
O32 P6 1.564278 1_555
O33 P7 1.564278 1_555
O34 P4 1.548383 1_655
O35 P5 1.548383 1_455
O36 P6 1.549149 1_555
O37 P7 1.549149 1_555
O38 P6 1.564519 1_555
O39 P7 1.564519 1_555
