# generated using pymatgen
data_V3O7
_symmetry_space_group_name_H-M   'P 1'
_cell_length_a   10.01718820
_cell_length_b   10.01718820
_cell_length_c   10.01584910
_cell_angle_alpha   91.84374658
_cell_angle_beta   91.84373838
_cell_angle_gamma   159.33519052
_symmetry_Int_Tables_number   1
_chemical_formula_structural   V3O7
_chemical_formula_sum   'V9 O21'
_cell_volume   348.92260459
_cell_formula_units_Z   3
loop_
 _symmetry_equiv_pos_site_id
 _symmetry_equiv_pos_as_xyz
  1  'x, y, z'
loop_
 _atom_site_type_symbol
 _atom_site_label
 _atom_site_symmetry_multiplicity
 _atom_site_fract_x
 _atom_site_fract_y
 _atom_site_fract_z
 _atom_site_occupancy
  V  V0  1  0.81656424  0.18343576  0.00000000  1
  V  V1  1  -0.00000000  0.00000000  -0.00000000  1
  V  V2  1  0.36476170  0.00001732  0.36477902  1
  V  V3  1  0.63523830  0.99998268  0.63522098  1
  V  V4  1  0.18341662  0.18341662  0.36683425  1
  V  V5  1  0.81658338  0.81658338  0.63316575  1
  V  V6  1  0.18343576  0.81656424  -0.00000000  1
  V  V7  1  0.00001732  0.36476170  0.36477902  1
  V  V8  1  0.99998268  0.63523830  0.63522098  1
  O  O0  1  0.90072530  0.09927470  -0.00000000  1
  O  O1  1  0.70634093  0.29365907  0.00000000  1
  O  O2  1  0.90621297  0.29102905  0.19724203  1
  O  O3  1  0.50000000  0.50000000  -0.00000000  1
  O  O4  1  0.90665162  0.50005026  0.40670188  1
  O  O5  1  0.49994974  0.09334838  0.59329812  1
  O  O6  1  0.29091192  0.09368043  0.38459235  1
  O  O7  1  0.70897095  0.09378703  0.80275797  1
  O  O8  1  0.09924700  0.09924700  0.19849200  1
  O  O9  1  0.90631957  0.70908808  0.61540765  1
  O  O10  1  0.70635212  0.70635212  0.41270224  1
  O  O11  1  0.29365907  0.70634093  -0.00000000  1
  O  O12  1  0.29364788  0.29364788  0.58729776  1
  O  O13  1  0.09368043  0.29091192  0.38459235  1
  O  O14  1  0.09927470  0.90072530  0.00000000  1
  O  O15  1  0.90075300  0.90075300  0.80150800  1
  O  O16  1  0.70908808  0.90631957  0.61540765  1
  O  O17  1  0.29102905  0.90621297  0.19724203  1
  O  O18  1  0.50005026  0.90665162  0.40670188  1
  O  O19  1  0.09334838  0.49994974  0.59329812  1
  O  O20  1  0.09378703  0.70897095  0.80275797  1
loop_
_geom_bond_atom_site_label_1
_geom_bond_atom_site_label_2
_geom_bond_distance
_geom_bond_site_symmetry_2
O0 V0 1.658772 1_555
O0 V1 1.956654 1_655
O1 V6 1.852519 1_545
O1 V6 1.852519 1_655
O1 V0 2.172446 1_555
O2 V7 1.662615 1_655
O2 V0 1.951531 1_555
O3 V1 1.796669 1_665
O3 V1 1.796669 1_555
O4 V2 1.889128 1_665
O4 V2 1.889128 1_555
O4 V8 2.289157 1_555
O4 V7 2.290880 1_655
O5 V8 1.889128 1_445
O5 V8 1.889128 1_555
O5 V2 2.289157 1_555
O5 V3 2.290880 1_545
O6 V2 1.662301 1_555
O6 V4 1.951527 1_555
O7 V3 1.662615 1_545
O7 V0 1.951531 1_556
O8 V4 1.658741 1_555
O8 V1 1.955818 1_555
O9 V8 1.662301 1_555
O9 V5 1.951527 1_555
O10 V4 1.852637 1_665
O10 V4 1.852648 1_555
O10 V5 2.172312 1_555
O11 V0 1.852519 1_565
O11 V0 1.852519 1_455
O11 V6 2.172446 1_555
O12 V5 1.852637 1_445
O12 V5 1.852648 1_555
O12 V4 2.172312 1_555
O13 V7 1.662301 1_555
O13 V4 1.951527 1_555
O14 V6 1.658772 1_555
O14 V1 1.956654 1_565
O15 V5 1.658741 1_555
O15 V1 1.955818 1_666
O16 V3 1.662301 1_555
O16 V5 1.951527 1_555
O17 V2 1.662615 1_565
O17 V6 1.951531 1_555
O18 V7 1.889128 1_665
O18 V7 1.889128 1_555
O18 V3 2.289157 1_555
O18 V2 2.290880 1_565
O19 V3 1.889128 1_445
O19 V3 1.889128 1_555
O19 V7 2.289157 1_555
O19 V8 2.290880 1_455
O20 V8 1.662615 1_455
O20 V6 1.951531 1_556
