# generated using pymatgen
data_Li5Mn3Cu2(PO4)6
_symmetry_space_group_name_H-M   'P 1'
_cell_length_a   8.22794383
_cell_length_b   9.16489348
_cell_length_c   8.39505354
_cell_angle_alpha   60.30391188
_cell_angle_beta   63.16341234
_cell_angle_gamma   61.09175302
_symmetry_Int_Tables_number   1
_chemical_formula_structural   Li5Mn3Cu2(PO4)6
_chemical_formula_sum   'Li5 Mn3 Cu2 P6 O24'
_cell_volume   462.31151097
_cell_formula_units_Z   1
loop_
 _symmetry_equiv_pos_site_id
 _symmetry_equiv_pos_as_xyz
  1  'x, y, z'
loop_
 _atom_site_type_symbol
 _atom_site_label
 _atom_site_symmetry_multiplicity
 _atom_site_fract_x
 _atom_site_fract_y
 _atom_site_fract_z
 _atom_site_occupancy
  Li  Li0  1  0.76877900  0.13108100  0.35247600  1
  Li  Li1  1  0.18929000  0.85828200  0.66943500  1
  Li  Li2  1  0.67558600  0.16335100  0.84495400  1
  Li  Li3  1  0.86163200  0.67438000  0.19888300  1
  Li  Li4  1  0.84574100  0.82208900  0.85126600  1
  Mn  Mn0  1  0.14530700  0.16106800  0.13470100  1
  Mn  Mn1  1  0.35434400  0.35346900  0.35715400  1
  Mn  Mn2  1  0.63957200  0.66129500  0.64958800  1
  Cu  Cu0  1  0.01639300  0.98359000  0.99976800  1
  Cu  Cu1  1  0.49227200  0.50274700  0.50175500  1
  P  P0  1  0.74892100  0.46435800  0.06438800  1
  P  P1  1  0.05188600  0.74942400  0.45399400  1
  P  P2  1  0.43268900  0.04442900  0.75930300  1
  P  P3  1  0.25668800  0.54031200  0.94784000  1
  P  P4  1  0.56511600  0.97048400  0.25402600  1
  P  P5  1  0.95046200  0.24952700  0.53601800  1
  O  O0  1  0.09501900  0.34541200  0.45077600  1
  O  O1  1  0.35390300  0.47909200  0.09921000  1
  O  O2  1  0.03244000  0.91686100  0.26248700  1
  O  O3  1  0.55532400  0.10076800  0.32317400  1
  O  O4  1  0.02205200  0.81162200  0.60474000  1
  O  O5  1  0.25472200  0.60176400  0.42413100  1
  O  O6  1  0.23718900  0.06251800  0.92637900  1
  O  O7  1  0.40669500  0.23487800  0.59876400  1
  O  O8  1  0.20852900  0.39156000  0.96599500  1
  O  O9  1  0.59691900  0.41366900  0.26957500  1
  O  O10  1  0.09009800  0.71767600  0.95375600  1
  O  O11  1  0.38157300  0.02427800  0.20421100  1
  O  O12  1  0.60221300  0.00979700  0.81654400  1
  O  O13  1  0.90613400  0.27480100  0.07174800  1
  O  O14  1  0.40251900  0.59222400  0.73740400  1
  O  O15  1  0.80328800  0.60295100  0.05598200  1
  O  O16  1  0.58795700  0.77354300  0.40175800  1
  O  O17  1  0.75093800  0.95322500  0.08145100  1
  O  O18  1  0.73766600  0.38142900  0.58335800  1
  O  O19  1  0.96957100  0.18021000  0.39198400  1
  O  O20  1  0.45257100  0.90032200  0.70265100  1
  O  O21  1  0.97551900  0.08967400  0.72683100  1
  O  O22  1  0.68544100  0.51583600  0.89302600  1
  O  O23  1  0.89704000  0.67300100  0.50151400  1
loop_
_geom_bond_atom_site_label_1
_geom_bond_atom_site_label_2
_geom_bond_distance
_geom_bond_site_symmetry_2
Li0 O3 2.037596 1_555
Li0 O19 2.098595 1_555
Li0 O13 2.127224 1_555
Li0 O9 2.180230 1_555
Li0 O2 2.236851 1_645
Li1 O4 1.960891 1_555
Li1 O10 2.057747 1_555
Li1 O21 2.112846 1_465
Li1 O14 2.176849 1_555
Li1 O20 2.525410 1_555
Li2 O12 1.919852 1_555
Li2 O17 2.050278 1_546
Li2 O21 2.091000 1_555
Li2 O18 2.168816 1_555
Li3 O15 1.923569 1_555
Li3 O10 2.084531 1_654
Li3 O17 2.096797 1_555
Li3 O16 2.211229 1_555
Li4 O4 1.936050 1_655
Li4 O12 1.938365 1_565
Li4 O15 1.955907 1_556
Li4 O10 2.141115 1_655
Li4 O17 2.412647 1_556
Mn0 O11 1.906420 1_555
Mn0 O13 1.910101 1_455
Mn0 O19 2.024123 1_455
Mn0 O6 2.038871 1_554
Mn0 O8 2.042490 1_554
Mn0 O2 2.398660 1_545
Mn1 O1 1.883509 1_555
Mn1 O7 1.906021 1_555
Mn1 O0 1.938187 1_555
Mn1 O9 2.041162 1_555
Mn1 O3 2.169245 1_555
Mn1 O5 2.283552 1_555
Mn2 O22 1.899164 1_555
Mn2 O23 1.937640 1_555
Mn2 O16 1.955012 1_555
Mn2 O14 2.044886 1_555
Mn2 O20 2.110468 1_555
Mn2 O18 2.558479 1_555
Cu0 O6 2.005394 1_565
Cu0 O2 2.025905 1_556
Cu0 O17 2.089129 1_456
Cu0 O21 2.116819 1_465
Cu0 O10 2.397627 1_555
Cu1 O5 1.979310 1_555
Cu1 O18 2.026328 1_555
Cu1 O9 2.142151 1_555
Cu1 O14 2.198693 1_555
Cu1 O7 2.521621 1_555
Cu1 O16 2.590760 1_555
O0 P5 1.522497 1_455
O1 P3 1.531947 1_554
O2 P1 1.586074 1_555
O3 P4 1.523394 1_545
O4 P1 1.511863 1_555
O5 P1 1.566631 1_555
O6 P2 1.586740 1_555
O7 P2 1.573942 1_555
O8 P3 1.516806 1_555
O9 P0 1.603401 1_555
O10 P3 1.545301 1_555
O11 P4 1.531246 1_545
O12 P2 1.517651 1_555
O13 P0 1.577441 1_555
O14 P3 1.610058 1_555
O15 P0 1.500163 1_555
O16 P4 1.579825 1_555
O17 P4 1.566799 1_555
O18 P5 1.576790 1_555
O19 P5 1.543787 1_555
O20 P2 1.529866 1_565
O21 P5 1.560709 1_555
O22 P0 1.527304 1_556
O23 P1 1.549180 1_655
