# generated using pymatgen
data_Li2FeF4
_symmetry_space_group_name_H-M   'P 1'
_cell_length_a   5.53026100
_cell_length_b   5.85784812
_cell_length_c   5.87828268
_cell_angle_alpha   67.80720254
_cell_angle_beta   87.79100067
_cell_angle_gamma   88.17383689
_symmetry_Int_Tables_number   1
_chemical_formula_structural   Li2FeF4
_chemical_formula_sum   'Li4 Fe2 F8'
_cell_volume   176.16024633
_cell_formula_units_Z   2
loop_
 _symmetry_equiv_pos_site_id
 _symmetry_equiv_pos_as_xyz
  1  'x, y, z'
loop_
 _atom_site_type_symbol
 _atom_site_label
 _atom_site_symmetry_multiplicity
 _atom_site_fract_x
 _atom_site_fract_y
 _atom_site_fract_z
 _atom_site_occupancy
  Li  Li0  1  0.99997800  0.98080400  0.01791300  1
  Li  Li1  1  0.49877800  0.01313100  0.99278700  1
  Li  Li2  1  0.18254500  0.76724000  0.77321500  1
  Li  Li3  1  0.81954000  0.23475200  0.22435100  1
  Fe  Fe0  1  0.70419200  0.61868000  0.61096600  1
  Fe  Fe1  1  0.29587600  0.38175900  0.38824600  1
  F  F0  1  0.84280700  0.81098700  0.80035600  1
  F  F1  1  0.73495600  0.90133000  0.28117000  1
  F  F2  1  0.32912500  0.60025500  0.60280100  1
  F  F3  1  0.73394100  0.29396200  0.89752800  1
  F  F4  1  0.25460000  0.70991200  0.10648500  1
  F  F5  1  0.67110800  0.40028900  0.39561100  1
  F  F6  1  0.27261700  0.09569600  0.71414100  1
  F  F7  1  0.15994000  0.19134500  0.19398900  1
loop_
_geom_bond_atom_site_label_1
_geom_bond_atom_site_label_2
_geom_bond_distance
_geom_bond_site_symmetry_2
F0 Li2 1.896907 1_655
F0 Fe0 2.040666 1_555
F0 Li0 2.117167 1_556
F1 Li3 1.923142 1_565
F1 Li0 2.020887 1_555
F1 Fe0 2.023936 1_555
F1 Li1 2.070274 1_564
F2 Li2 1.801258 1_555
F2 Fe0 2.083792 1_555
F2 Fe1 2.124858 1_555
F3 Li3 1.895125 1_556
F3 Fe0 2.015836 1_555
F3 Li1 2.023721 1_555
F3 Li0 2.226673 1_546
F4 Li2 1.914187 1_554
F4 Li0 2.015423 1_455
F4 Fe1 2.021495 1_555
F4 Li1 2.147461 1_564
F5 Li3 1.802951 1_555
F5 Fe1 2.084384 1_555
F5 Fe0 2.128109 1_555
F6 Li2 1.900966 1_545
F6 Li1 2.000515 1_555
F6 Fe1 2.015962 1_555
F6 Li0 2.205475 1_446
F7 Li3 1.902155 1_455
F7 Fe1 2.048184 1_555
F7 Li0 2.116455 1_445
