# generated using pymatgen
data_GdOF
_symmetry_space_group_name_H-M   'P 1'
_cell_length_a   7.08740167
_cell_length_b   6.66306689
_cell_length_c   5.86301525
_cell_angle_alpha   68.57492060
_cell_angle_beta   61.06411705
_cell_angle_gamma   50.36096235
_symmetry_Int_Tables_number   1
_chemical_formula_structural   GdOF
_chemical_formula_sum   'Gd4 O4 F4'
_cell_volume   185.93763751
_cell_formula_units_Z   4
loop_
 _symmetry_equiv_pos_site_id
 _symmetry_equiv_pos_as_xyz
  1  'x, y, z'
loop_
 _atom_site_type_symbol
 _atom_site_label
 _atom_site_symmetry_multiplicity
 _atom_site_fract_x
 _atom_site_fract_y
 _atom_site_fract_z
 _atom_site_occupancy
  Gd  Gd0  1  0.19922100  0.80077900  0.19922100  1
  Gd  Gd1  1  0.44922100  0.05077900  0.44922100  1
  Gd  Gd2  1  0.80077900  0.19922100  0.80077900  1
  Gd  Gd3  1  0.05077900  0.44922100  0.05077900  1
  O  O0  1  0.13245400  0.13245400  0.86754600  1
  O  O1  1  0.86754600  0.86754600  0.13245400  1
  O  O2  1  0.38245400  0.38245400  0.11754600  1
  O  O3  1  0.11754600  0.11754600  0.38245400  1
  F  F0  1  0.62500000  0.62500000  0.12500000  1
  F  F1  1  0.62500000  0.62500000  0.62500000  1
  F  F2  1  0.62500000  0.12500000  0.62500000  1
  F  F3  1  0.12500000  0.62500000  0.62500000  1
loop_
_geom_bond_atom_site_label_1
_geom_bond_atom_site_label_2
_geom_bond_distance
_geom_bond_site_symmetry_2
Gd0 O1 2.303460 1_455
Gd0 O0 2.303460 1_564
Gd0 O2 2.332362 1_555
Gd0 O3 2.332362 1_565
Gd1 O3 2.303460 1_555
Gd1 O2 2.303460 1_555
Gd1 O1 2.332362 1_545
Gd1 O0 2.332362 1_555
Gd2 O1 2.303460 1_546
Gd2 O0 2.303460 1_655
Gd2 O2 2.332362 1_556
Gd2 O3 2.332362 1_655
Gd3 O3 2.303460 1_555
Gd3 O2 2.303460 1_555
Gd3 O0 2.332362 1_554
Gd3 O1 2.332362 1_455
F0 Gd3 2.293382 1_655
F0 Gd0 2.293382 1_555
F1 Gd1 2.293382 1_565
F1 Gd2 2.293382 1_555
F2 Gd2 2.293382 1_555
F2 Gd1 2.293382 1_555
F3 Gd3 2.293382 1_556
F3 Gd0 2.293382 1_555
