# generated using pymatgen
data_LiAgF2
_symmetry_space_group_name_H-M   'P 1'
_cell_length_a   6.39665587
_cell_length_b   6.39665587
_cell_length_c   6.71204257
_cell_angle_alpha   89.55048336
_cell_angle_beta   89.55048336
_cell_angle_gamma   127.05349761
_symmetry_Int_Tables_number   1
_chemical_formula_structural   LiAgF2
_chemical_formula_sum   'Li4 Ag4 F8'
_cell_volume   219.14731648
_cell_formula_units_Z   4
loop_
 _symmetry_equiv_pos_site_id
 _symmetry_equiv_pos_as_xyz
  1  'x, y, z'
loop_
 _atom_site_type_symbol
 _atom_site_label
 _atom_site_symmetry_multiplicity
 _atom_site_fract_x
 _atom_site_fract_y
 _atom_site_fract_z
 _atom_site_occupancy
  Li  Li0  1  0.57809400  0.93979000  0.64190900  1
  Li  Li1  1  0.93979000  0.57809400  0.14190900  1
  Li  Li2  1  0.06021000  0.42190600  0.85809100  1
  Li  Li3  1  0.42190600  0.06021000  0.35809100  1
  Ag  Ag0  1  0.66430100  0.79779700  0.05665700  1
  Ag  Ag1  1  0.20220300  0.33569900  0.44334300  1
  Ag  Ag2  1  0.79779700  0.66430100  0.55665700  1
  Ag  Ag3  1  0.33569900  0.20220300  0.94334300  1
  F  F0  1  0.57922300  0.88376600  0.36781100  1
  F  F1  1  0.09717700  0.90282300  0.25000000  1
  F  F2  1  0.39602200  0.60397800  0.75000000  1
  F  F3  1  0.11623400  0.42077700  0.13218900  1
  F  F4  1  0.88376600  0.57922300  0.86781100  1
  F  F5  1  0.60397800  0.39602200  0.25000000  1
  F  F6  1  0.90282300  0.09717700  0.75000000  1
  F  F7  1  0.42077700  0.11623400  0.63218900  1
loop_
_geom_bond_atom_site_label_1
_geom_bond_atom_site_label_2
_geom_bond_distance
_geom_bond_site_symmetry_2
Ag0 F0 2.306765 1_555
Ag0 F2 2.500016 1_554
Ag0 F6 2.568951 1_564
Ag1 F3 2.306765 1_555
Ag1 F2 2.500016 1_555
Ag1 F6 2.568951 1_455
Ag2 F4 2.306765 1_555
Ag2 F5 2.500016 1_555
Ag2 F1 2.568951 1_655
Ag3 F7 2.306765 1_555
Ag3 F5 2.500016 1_556
Ag3 F1 2.568951 1_546
F0 Li0 1.877882 1_555
F0 Li3 1.912947 1_565
F1 Li3 1.835632 1_565
F1 Li1 1.835632 1_455
F2 Li2 1.855901 1_555
F2 Li0 1.855901 1_555
F3 Li2 1.877882 1_554
F3 Li1 1.912947 1_455
F4 Li1 1.877882 1_556
F4 Li2 1.912947 1_655
F5 Li3 1.855901 1_555
F5 Li1 1.855901 1_555
F6 Li2 1.835632 1_655
F6 Li0 1.835632 1_545
F7 Li3 1.877882 1_555
F7 Li0 1.912947 1_545
