# generated using pymatgen
data_LiCr3P3(HO6)2
_symmetry_space_group_name_H-M   'P 1'
_cell_length_a   8.78920302
_cell_length_b   8.78920302
_cell_length_c   6.60020632
_cell_angle_alpha   72.55395873
_cell_angle_beta   72.55395873
_cell_angle_gamma   88.63788400
_symmetry_Int_Tables_number   1
_chemical_formula_structural   LiCr3P3(HO6)2
_chemical_formula_sum   'Li2 Cr6 P6 H4 O24'
_cell_volume   462.81143670
_cell_formula_units_Z   2
loop_
 _symmetry_equiv_pos_site_id
 _symmetry_equiv_pos_as_xyz
  1  'x, y, z'
loop_
 _atom_site_type_symbol
 _atom_site_label
 _atom_site_symmetry_multiplicity
 _atom_site_fract_x
 _atom_site_fract_y
 _atom_site_fract_z
 _atom_site_occupancy
  Li  Li0  1  0.98524300  0.01475700  0.25000000  1
  Li  Li1  1  0.01475700  0.98524300  0.75000000  1
  Cr  Cr0  1  0.94600900  0.62603100  0.13685800  1
  Cr  Cr1  1  0.62603100  0.94600900  0.63685800  1
  Cr  Cr2  1  0.27815600  0.72184400  0.25000000  1
  Cr  Cr3  1  0.72184400  0.27815600  0.75000000  1
  Cr  Cr4  1  0.37396900  0.05399100  0.36314200  1
  Cr  Cr5  1  0.05399100  0.37396900  0.86314200  1
  P  P0  1  0.67716100  0.89512700  0.10849400  1
  P  P1  1  0.89512700  0.67716100  0.60849400  1
  P  P2  1  0.67687800  0.32312200  0.25000000  1
  P  P3  1  0.32312200  0.67687800  0.75000000  1
  P  P4  1  0.10487300  0.32283900  0.39150600  1
  P  P5  1  0.32283900  0.10487300  0.89150600  1
  H  H0  1  0.62482300  0.62422500  0.18261800  1
  H  H1  1  0.62422500  0.62482300  0.68261800  1
  H  H2  1  0.37577500  0.37517700  0.31738200  1
  H  H3  1  0.37517700  0.37577500  0.81738200  1
  O  O0  1  0.85442200  0.85518000  0.08621900  1
  O  O1  1  0.60476500  0.96339600  0.30352400  1
  O  O2  1  0.85518000  0.85442200  0.58621900  1
  O  O3  1  0.96339600  0.60476500  0.80352400  1
  O  O4  1  0.32387600  0.98081100  0.11295800  1
  O  O5  1  0.57005200  0.74193100  0.14415800  1
  O  O6  1  0.70726200  0.50143600  0.22690300  1
  O  O7  1  0.71980900  0.22066300  0.46002500  1
  O  O8  1  0.98081100  0.32387600  0.61295800  1
  O  O9  1  0.74193100  0.57005200  0.64415800  1
  O  O10  1  0.50143600  0.70726200  0.72690300  1
  O  O11  1  0.77933700  0.28019100  0.03997500  1
  O  O12  1  0.22066300  0.71980900  0.96002500  1
  O  O13  1  0.49856400  0.29273800  0.27309700  1
  O  O14  1  0.25806900  0.42994800  0.35584200  1
  O  O15  1  0.01918900  0.67612400  0.38704200  1
  O  O16  1  0.28019100  0.77933700  0.53997500  1
  O  O17  1  0.29273800  0.49856400  0.77309700  1
  O  O18  1  0.42994800  0.25806900  0.85584200  1
  O  O19  1  0.67612400  0.01918900  0.88704200  1
  O  O20  1  0.03660400  0.39523500  0.19647600  1
  O  O21  1  0.14482000  0.14557800  0.41378100  1
  O  O22  1  0.39523500  0.03660400  0.69647600  1
  O  O23  1  0.14557800  0.14482000  0.91378100  1
loop_
_geom_bond_atom_site_label_1
_geom_bond_atom_site_label_2
_geom_bond_distance
_geom_bond_site_symmetry_2
Li0 O2 2.213036 1_545
Li0 O23 2.213036 1_654
Li0 O21 2.487734 1_655
Li0 O0 2.487734 1_545
Li1 O0 2.213036 1_456
Li1 O21 2.213036 1_565
Li1 O23 2.487734 1_565
Li1 O2 2.487734 1_455
Cr0 O15 2.102488 1_655
Cr0 O0 2.120532 1_555
Cr0 O20 2.129834 1_655
Cr0 O6 2.219666 1_555
Cr0 O3 2.223112 1_554
Cr0 O12 2.386901 1_654
Cr1 O19 2.102488 1_565
Cr1 O2 2.120532 1_555
Cr1 O22 2.129834 1_565
Cr1 O10 2.219666 1_555
Cr1 O1 2.223112 1_555
Cr1 O7 2.386901 1_565
Cr2 O16 2.125916 1_555
Cr2 O12 2.125916 1_554
Cr2 O15 2.179766 1_555
Cr2 O4 2.179766 1_555
Cr2 O14 2.444193 1_555
Cr2 O5 2.444193 1_555
Cr3 O11 2.125916 1_556
Cr3 O7 2.125916 1_555
Cr3 O19 2.179766 1_555
Cr3 O8 2.179766 1_555
Cr3 O18 2.444193 1_555
Cr3 O9 2.444193 1_555
Cr4 O4 2.102488 1_545
Cr4 O21 2.120532 1_555
Cr4 O1 2.129834 1_545
Cr4 O13 2.219666 1_555
Cr4 O22 2.223112 1_555
Cr4 O16 2.386901 1_545
Cr5 O8 2.102488 1_455
Cr5 O23 2.120532 1_555
Cr5 O3 2.129834 1_455
Cr5 O17 2.219666 1_555
Cr5 O20 2.223112 1_556
Cr5 O11 2.386901 1_456
H0 O5 1.121866 1_555
H0 O6 1.294534 1_555
H1 O9 1.121866 1_555
H1 O10 1.294534 1_555
H2 O14 1.121866 1_555
H2 O13 1.294534 1_555
H3 O18 1.121866 1_555
H3 O17 1.294534 1_555
O0 P0 1.561986 1_555
O1 P0 1.541347 1_555
O2 P1 1.561986 1_555
O3 P1 1.541347 1_555
O4 P5 1.541848 1_564
O5 P0 1.578600 1_555
O6 P2 1.550168 1_555
O7 P2 1.556879 1_555
O8 P4 1.541848 1_655
O9 P1 1.578600 1_555
O10 P3 1.550168 1_555
O11 P2 1.556879 1_555
O12 P3 1.556879 1_555
O13 P2 1.550168 1_555
O14 P4 1.578600 1_555
O15 P1 1.541848 1_455
O16 P3 1.556879 1_555
O17 P3 1.550168 1_555
O18 P5 1.578600 1_555
O19 P0 1.541848 1_546
O20 P4 1.541347 1_555
O21 P4 1.561986 1_555
O22 P5 1.541347 1_555
O23 P5 1.561986 1_555
