# generated using pymatgen
data_Mn2O3F
_symmetry_space_group_name_H-M   'P 1'
_cell_length_a   5.78228900
_cell_length_b   6.37038300
_cell_length_c   8.25490300
_cell_angle_alpha   90.00000000
_cell_angle_beta   90.00000000
_cell_angle_gamma   90.00000000
_symmetry_Int_Tables_number   1
_chemical_formula_structural   Mn2O3F
_chemical_formula_sum   'Mn8 O12 F4'
_cell_volume   304.07261720
_cell_formula_units_Z   4
loop_
 _symmetry_equiv_pos_site_id
 _symmetry_equiv_pos_as_xyz
  1  'x, y, z'
loop_
 _atom_site_type_symbol
 _atom_site_label
 _atom_site_symmetry_multiplicity
 _atom_site_fract_x
 _atom_site_fract_y
 _atom_site_fract_z
 _atom_site_occupancy
  Mn  Mn0  1  0.00000000  0.00000000  0.00000000  1
  Mn  Mn1  1  0.00000000  0.50000000  0.00000000  1
  Mn  Mn2  1  0.21902100  0.75000000  0.24790800  1
  Mn  Mn3  1  0.28097900  0.25000000  0.74790800  1
  Mn  Mn4  1  0.50000000  0.00000000  0.50000000  1
  Mn  Mn5  1  0.50000000  0.50000000  0.50000000  1
  Mn  Mn6  1  0.71902100  0.75000000  0.25209200  1
  Mn  Mn7  1  0.78097900  0.25000000  0.75209200  1
  O  O0  1  0.02893200  0.04816200  0.76645000  1
  O  O1  1  0.02893200  0.45183800  0.76645000  1
  O  O2  1  0.19776700  0.75000000  0.01667900  1
  O  O3  1  0.30223300  0.25000000  0.51667900  1
  O  O4  1  0.47106800  0.95183800  0.26645000  1
  O  O5  1  0.47106800  0.54816200  0.26645000  1
  O  O6  1  0.52893200  0.04816200  0.73355000  1
  O  O7  1  0.52893200  0.45183800  0.73355000  1
  O  O8  1  0.69776700  0.75000000  0.48332100  1
  O  O9  1  0.80223300  0.25000000  0.98332100  1
  O  O10  1  0.97106800  0.95183800  0.23355000  1
  O  O11  1  0.97106800  0.54816200  0.23355000  1
  F  F0  1  0.21899700  0.75000000  0.48378500  1
  F  F1  1  0.28100300  0.25000000  0.98378500  1
  F  F2  1  0.71899700  0.75000000  0.01621500  1
  F  F3  1  0.78100300  0.25000000  0.51621500  1
loop_
_geom_bond_atom_site_label_1
_geom_bond_atom_site_label_2
_geom_bond_distance
_geom_bond_site_symmetry_2
Mn0 O10 1.959348 1_445
Mn0 O0 1.959348 1_554
Mn0 O9 1.965455 1_454
Mn0 O2 1.965455 1_545
Mn1 O11 1.959348 1_455
Mn1 O1 1.959348 1_554
Mn1 O9 1.965455 1_454
Mn1 O2 1.965455 1_555
Mn2 O2 1.912725 1_555
Mn2 O10 1.929479 1_455
Mn2 O11 1.929479 1_455
Mn2 O4 1.949541 1_555
Mn2 O5 1.949541 1_555
Mn3 O3 1.912725 1_555
Mn3 O6 1.929479 1_555
Mn3 O7 1.929479 1_555
Mn3 O0 1.949541 1_555
Mn3 O1 1.949541 1_555
Mn4 O4 1.959348 1_545
Mn4 O6 1.959348 1_555
Mn4 O8 1.965455 1_545
Mn4 O3 1.965455 1_555
Mn5 O5 1.959348 1_555
Mn5 O7 1.959348 1_555
Mn5 O8 1.965455 1_555
Mn5 O3 1.965455 1_555
Mn6 O8 1.912725 1_555
Mn6 O4 1.929479 1_555
Mn6 O5 1.929479 1_555
Mn6 O11 1.949541 1_555
Mn6 O10 1.949541 1_555
Mn7 O9 1.912725 1_555
Mn7 O0 1.929479 1_655
Mn7 O1 1.929479 1_655
Mn7 O6 1.949541 1_555
Mn7 O7 1.949541 1_555
F0 Mn2 1.947142 1_555
F0 Mn4 2.279119 1_565
F0 Mn5 2.279119 1_555
F1 Mn3 1.947142 1_555
F1 Mn1 2.279119 1_556
F1 Mn0 2.279119 1_556
F2 Mn6 1.947142 1_555
F2 Mn0 2.279119 1_665
F2 Mn1 2.279119 1_655
F3 Mn7 1.947142 1_555
F3 Mn4 2.279119 1_555
F3 Mn5 2.279119 1_555
