# generated using pymatgen
data_Li2Mn3(BO3)3
_symmetry_space_group_name_H-M   'P 1'
_cell_length_a   6.20586400
_cell_length_b   7.82164675
_cell_length_c   9.10000410
_cell_angle_alpha   109.23152497
_cell_angle_beta   107.50501077
_cell_angle_gamma   100.17338313
_symmetry_Int_Tables_number   1
_chemical_formula_structural   Li2Mn3(BO3)3
_chemical_formula_sum   'Li4 Mn6 B6 O18'
_cell_volume   378.64893738
_cell_formula_units_Z   2
loop_
 _symmetry_equiv_pos_site_id
 _symmetry_equiv_pos_as_xyz
  1  'x, y, z'
loop_
 _atom_site_type_symbol
 _atom_site_label
 _atom_site_symmetry_multiplicity
 _atom_site_fract_x
 _atom_site_fract_y
 _atom_site_fract_z
 _atom_site_occupancy
  Li  Li0  1  0.01626000  0.32940200  0.28560300  1
  Li  Li1  1  0.33687200  0.99525700  0.39410600  1
  Li  Li2  1  0.65489900  0.34202500  0.05231200  1
  Li  Li3  1  0.00410800  0.65976400  0.71853200  1
  Mn  Mn0  1  0.39894500  0.63762200  0.61900900  1
  Mn  Mn1  1  0.29877100  0.04715900  0.72665600  1
  Mn  Mn2  1  0.04044000  0.29492300  0.92982000  1
  Mn  Mn3  1  0.96673300  0.71475500  0.05847400  1
  Mn  Mn4  1  0.70739500  0.94463100  0.27458800  1
  Mn  Mn5  1  0.61087300  0.36427200  0.38562100  1
  B  B0  1  0.71505600  0.97862900  0.95594600  1
  B  B1  1  0.61902700  0.37080300  0.71959000  1
  B  B2  1  0.96139000  0.69484900  0.38635400  1
  B  B3  1  0.05790800  0.29355300  0.60362900  1
  B  B4  1  0.35423400  0.63312200  0.28227200  1
  B  B5  1  0.28292300  0.02667700  0.04826700  1
  O  O0  1  0.54174700  0.92066800  0.79410200  1
  O  O1  1  0.33136900  0.50108800  0.35428600  1
  O  O2  1  0.85833000  0.16286100  0.04613900  1
  O  O3  1  0.32894700  0.15677500  0.97601600  1
  O  O4  1  0.74490000  0.43004300  0.89181800  1
  O  O5  1  0.09188600  0.76543900  0.55926400  1
  O  O6  1  0.46090100  0.19053500  0.62172900  1
  O  O7  1  0.81193900  0.51168500  0.29260100  1
  O  O8  1  0.99779000  0.81588300  0.30450600  1
  O  O9  1  0.05146100  0.16927400  0.68830500  1
  O  O10  1  0.18786900  0.47980900  0.69549100  1
  O  O11  1  0.51363200  0.80895300  0.37200700  1
  O  O12  1  0.91375300  0.22473600  0.43298400  1
  O  O13  1  0.19524700  0.57640300  0.11380200  1
  O  O14  1  0.72218700  0.84340800  0.02653900  1
  O  O15  1  0.11906500  0.85043600  0.94761200  1
  O  O16  1  0.66771200  0.49501600  0.64397400  1
  O  O17  1  0.40891700  0.08005700  0.21951600  1
loop_
_geom_bond_atom_site_label_1
_geom_bond_atom_site_label_2
_geom_bond_distance
_geom_bond_site_symmetry_2
Li0 O2 1.949410 1_455
Li0 O1 1.949916 1_555
Li0 O12 1.981465 1_455
Li0 O7 2.066885 1_455
Li1 O6 1.938377 1_565
Li1 O11 1.967615 1_555
Li1 O17 2.044701 1_565
Li1 O8 2.057327 1_455
Li2 O7 1.960033 1_555
Li2 O4 1.983996 1_554
Li2 O3 2.032319 1_554
Li2 O2 2.043660 1_555
Li3 O15 1.939126 1_555
Li3 O10 1.960128 1_555
Li3 O16 2.025013 1_455
Li3 O5 2.045872 1_555
Mn0 O10 2.065700 1_555
Mn0 O0 2.087839 1_555
Mn0 O1 2.158426 1_555
Mn0 O16 2.161931 1_555
Mn0 O5 2.309556 1_555
Mn1 O9 1.950598 1_555
Mn1 O0 1.999881 1_545
Mn1 O6 2.016542 1_555
Mn1 O3 2.079737 1_555
Mn1 O5 2.106445 1_545
Mn2 O13 2.104797 1_556
Mn2 O9 2.119450 1_555
Mn2 O2 2.119478 1_456
Mn2 O3 2.253849 1_555
Mn2 O4 2.268116 1_455
Mn3 O14 1.966474 1_555
Mn3 O13 1.976642 1_655
Mn3 O15 1.990563 1_654
Mn3 O8 2.048258 1_555
Mn3 O4 2.142553 1_554
Mn4 O11 2.041641 1_555
Mn4 O12 2.082227 1_565
Mn4 O14 2.168742 1_555
Mn4 O8 2.205109 1_555
Mn4 O17 2.299700 1_565
Mn5 O7 2.091192 1_555
Mn5 O17 2.111857 1_555
Mn5 O16 2.118330 1_555
Mn5 O1 2.189607 1_555
Mn5 O12 2.336054 1_555
B0 O2 1.367454 1_566
B0 O0 1.402272 1_555
B0 O14 1.407224 1_556
B1 O6 1.379283 1_555
B1 O4 1.392294 1_555
B1 O16 1.403733 1_555
B2 O7 1.374755 1_555
B2 O5 1.392727 1_655
B2 O8 1.411443 1_555
B3 O10 1.359672 1_555
B3 O12 1.394631 1_455
B3 O9 1.427764 1_555
B4 O11 1.352925 1_555
B4 O1 1.402184 1_555
B4 O13 1.417036 1_555
B5 O15 1.373309 1_544
B5 O17 1.391844 1_555
B5 O3 1.414348 1_554
