# generated using pymatgen
data_FePO4
_symmetry_space_group_name_H-M   'P 1'
_cell_length_a   10.38457960
_cell_length_b   10.38457960
_cell_length_c   17.17231827
_cell_angle_alpha   82.24640448
_cell_angle_beta   82.24640448
_cell_angle_gamma   59.44506508
_symmetry_Int_Tables_number   1
_chemical_formula_structural   FePO4
_chemical_formula_sum   'Fe16 P16 O64'
_cell_volume   1575.34859329
_cell_formula_units_Z   16
loop_
 _symmetry_equiv_pos_site_id
 _symmetry_equiv_pos_as_xyz
  1  'x, y, z'
loop_
 _atom_site_type_symbol
 _atom_site_label
 _atom_site_symmetry_multiplicity
 _atom_site_fract_x
 _atom_site_fract_y
 _atom_site_fract_z
 _atom_site_occupancy
  Fe  Fe0  1  0.69791500  0.81788400  0.00566100  1
  Fe  Fe1  1  0.63892200  0.31859100  0.00447900  1
  Fe  Fe2  1  0.32186300  0.13795500  0.50407300  1
  Fe  Fe3  1  0.19692700  0.82268200  0.00439200  1
  Fe  Fe4  1  0.25759900  0.07150200  0.25526700  1
  Fe  Fe5  1  0.31859100  0.63892200  0.50447900  1
  Fe  Fe6  1  0.07508400  0.75823200  0.75485300  1
  Fe  Fe7  1  0.20316400  0.57233400  0.25280900  1
  Fe  Fe8  1  0.07150200  0.25759900  0.75526700  1
  Fe  Fe9  1  0.57233400  0.20316400  0.75280900  1
  Fe  Fe10  1  0.57493700  0.70389700  0.75204400  1
  Fe  Fe11  1  0.82268200  0.19692700  0.50439200  1
  Fe  Fe12  1  0.13795500  0.32186300  0.00407300  1
  Fe  Fe13  1  0.70389700  0.57493700  0.25204400  1
  Fe  Fe14  1  0.75823200  0.07508400  0.25485300  1
  Fe  Fe15  1  0.81788400  0.69791500  0.50566100  1
  P  P0  1  0.91333700  0.10483000  0.68987900  1
  P  P1  1  0.54171400  0.66199400  0.94065700  1
  P  P2  1  0.16489500  0.98497500  0.43918600  1
  P  P3  1  0.66344700  0.04312600  0.44154300  1
  P  P4  1  0.60436300  0.91508900  0.19060500  1
  P  P5  1  0.04312600  0.66344700  0.94154300  1
  P  P6  1  0.04692700  0.41356900  0.18880100  1
  P  P7  1  0.98497500  0.16489500  0.93918600  1
  P  P8  1  0.91508900  0.60436300  0.69060500  1
  P  P9  1  0.10483000  0.91333700  0.18987900  1
  P  P10  1  0.16082300  0.48275400  0.43912700  1
  P  P11  1  0.41356900  0.04692700  0.68880100  1
  P  P12  1  0.41468400  0.54722200  0.68925300  1
  P  P13  1  0.66199400  0.54171400  0.44065700  1
  P  P14  1  0.48275400  0.16082300  0.93912700  1
  P  P15  1  0.54722200  0.41468400  0.18925300  1
  O  O0  1  0.11551400  0.27810800  0.25073700  1
  O  O1  1  0.17636800  0.66959300  0.96846800  1
  O  O2  1  0.48367100  0.23953800  0.85629900  1
  O  O3  1  0.04558300  0.94830600  0.71334200  1
  O  O4  1  0.54480600  0.05973500  0.71243300  1
  O  O5  1  0.49866700  0.74064000  0.85751400  1
  O  O6  1  0.36541300  0.13117800  0.60742100  1
  O  O7  1  0.40557700  0.74428800  0.00050100  1
  O  O8  1  0.82964600  0.17771100  0.96083600  1
  O  O9  1  0.22139500  0.96450800  0.18843400  1
  O  O10  1  0.56126200  0.54659600  0.21101300  1
  O  O11  1  0.14009300  0.77799600  0.25111200  1
  O  O12  1  0.67539000  0.66903200  0.96610900  1
  O  O13  1  0.71859700  0.96916100  0.18902600  1
  O  O14  1  0.49635700  0.58482400  0.43879300  1
  O  O15  1  0.66959300  0.17636800  0.46846800  1
  O  O16  1  0.90658200  0.74026500  0.00215100  1
  O  O17  1  0.77799600  0.14009300  0.75111200  1
  O  O18  1  0.58482400  0.49635700  0.93879300  1
  O  O19  1  0.61055300  0.86619000  0.10840600  1
  O  O20  1  0.17419100  0.32775900  0.46316500  1
  O  O21  1  0.27810800  0.11551400  0.75073700  1
  O  O22  1  0.51324200  0.23812500  0.99993900  1
  O  O23  1  0.78000900  0.64144200  0.75233300  1
  O  O24  1  0.74064000  0.49866700  0.35751400  1
  O  O25  1  0.99692300  0.10461000  0.43487500  1
  O  O26  1  0.36175100  0.63111100  0.60824400  1
  O  O27  1  0.64144200  0.78000900  0.25233300  1
  O  O28  1  0.74428800  0.40557700  0.50050100  1
  O  O29  1  0.94830600  0.04558300  0.21334200  1
  O  O30  1  0.99300900  0.60380000  0.43741400  1
  O  O31  1  0.01509200  0.23641700  0.00328400  1
  O  O32  1  0.44646500  0.04572900  0.21356500  1
  O  O33  1  0.74971900  0.99929100  0.36003100  1
  O  O34  1  0.66903200  0.67539000  0.46610800  1
  O  O35  1  0.10863300  0.86753500  0.10722200  1
  O  O36  1  0.17771100  0.82964600  0.46083600  1
  O  O37  1  0.86753500  0.10863300  0.60722200  1
  O  O38  1  0.23812500  0.51324200  0.49993900  1
  O  O39  1  0.87855200  0.46871400  0.18506100  1
  O  O40  1  0.10461000  0.99692300  0.93487500  1
  O  O41  1  0.23953800  0.48367100  0.35629900  1
  O  O42  1  0.37907800  0.46953300  0.18600800  1
  O  O43  1  0.61637100  0.28164800  0.25249900  1
  O  O44  1  0.60380000  0.99300900  0.93741400  1
  O  O45  1  0.46953300  0.37907800  0.68600800  1
  O  O46  1  0.74026500  0.90658200  0.50215100  1
  O  O47  1  0.13117800  0.36541300  0.10742100  1
  O  O48  1  0.32775900  0.17419100  0.96316500  1
  O  O49  1  0.05973500  0.54480600  0.21243300  1
  O  O50  1  0.23641700  0.01509200  0.50328400  1
  O  O51  1  0.96450800  0.22139500  0.68843400  1
  O  O52  1  0.49821700  0.08726000  0.43655600  1
  O  O53  1  0.28164800  0.61637100  0.75249900  1
  O  O54  1  0.96916100  0.71859700  0.68902600  1
  O  O55  1  0.98794400  0.25036500  0.85874600  1
  O  O56  1  0.46871400  0.87855200  0.68506100  1
  O  O57  1  0.25036500  0.98794400  0.35874600  1
  O  O58  1  0.08726000  0.49821700  0.93655600  1
  O  O59  1  0.86619000  0.61055300  0.60840600  1
  O  O60  1  0.04572900  0.44646500  0.71356500  1
  O  O61  1  0.54659600  0.56126200  0.71101300  1
  O  O62  1  0.63111100  0.36175100  0.10824400  1
  O  O63  1  0.99929100  0.74971900  0.86003100  1
loop_
_geom_bond_atom_site_label_1
_geom_bond_atom_site_label_2
_geom_bond_distance
_geom_bond_site_symmetry_2
Fe0 O19 1.879333 1_555
Fe0 O16 1.884382 1_555
Fe0 O44 1.887548 1_554
Fe0 O12 1.897154 1_554
Fe1 O62 1.876728 1_555
Fe1 O18 1.884268 1_554
Fe1 O22 1.887205 1_554
Fe1 O8 1.890506 1_554
Fe2 O6 1.873402 1_555
Fe2 O20 1.890508 1_555
Fe2 O50 1.890597 1_555
Fe2 O52 1.893890 1_555
Fe3 O35 1.877936 1_555
Fe3 O7 1.882595 1_555
Fe3 O40 1.892206 1_554
Fe3 O1 1.897036 1_554
Fe4 O57 1.878941 1_545
Fe4 O0 1.885114 1_555
Fe4 O32 1.889489 1_555
Fe4 O9 1.891625 1_545
Fe5 O26 1.876728 1_555
Fe5 O14 1.884268 1_555
Fe5 O38 1.887205 1_555
Fe5 O36 1.890506 1_555
Fe6 O63 1.879779 1_455
Fe6 O53 1.884933 1_555
Fe6 O3 1.887457 1_555
Fe6 O54 1.891692 1_455
Fe7 O41 1.880091 1_555
Fe7 O49 1.883070 1_555
Fe7 O11 1.886064 1_555
Fe7 O42 1.890744 1_555
Fe8 O55 1.878941 1_455
Fe8 O21 1.885114 1_555
Fe8 O60 1.889489 1_555
Fe8 O51 1.891625 1_455
Fe9 O2 1.880091 1_555
Fe9 O4 1.883070 1_555
Fe9 O17 1.886064 1_555
Fe9 O45 1.890744 1_555
Fe10 O5 1.882912 1_555
Fe10 O23 1.885073 1_555
Fe10 O61 1.886220 1_555
Fe10 O56 1.890698 1_555
Fe11 O37 1.877936 1_555
Fe11 O28 1.882595 1_555
Fe11 O25 1.892206 1_555
Fe11 O15 1.897036 1_555
Fe12 O47 1.873402 1_555
Fe12 O48 1.890508 1_554
Fe12 O31 1.890597 1_555
Fe12 O58 1.893890 1_554
Fe13 O24 1.882912 1_555
Fe13 O27 1.885073 1_555
Fe13 O10 1.886220 1_555
Fe13 O39 1.890698 1_555
Fe14 O33 1.879779 1_545
Fe14 O43 1.884933 1_555
Fe14 O29 1.887457 1_555
Fe14 O13 1.891692 1_545
Fe15 O59 1.879333 1_555
Fe15 O46 1.884382 1_555
Fe15 O30 1.887548 1_555
Fe15 O34 1.897163 1_555
O0 P6 1.548983 1_555
O1 P5 1.550080 1_555
O2 P14 1.543337 1_555
O3 P0 1.547060 1_465
O4 P11 1.545253 1_555
O5 P1 1.546518 1_555
O6 P11 1.543478 1_555
O7 P1 1.549716 1_554
O8 P7 1.546305 1_555
O9 P9 1.546151 1_555
O10 P15 1.547016 1_555
O11 P9 1.548208 1_555
O12 P1 1.548828 1_555
O13 P4 1.545232 1_555
O14 P13 1.545365 1_555
O15 P3 1.550080 1_555
O16 P5 1.551109 1_654
O17 P0 1.548208 1_555
O18 P1 1.545365 1_555
O19 P4 1.546024 1_555
O20 P10 1.545753 1_555
O21 P11 1.548983 1_555
O22 P14 1.552090 1_555
O23 P8 1.548984 1_555
O24 P13 1.546518 1_555
O25 P2 1.548641 1_645
O26 P12 1.545548 1_555
O27 P4 1.548984 1_555
O28 P13 1.549716 1_555
O29 P9 1.547060 1_645
O30 P10 1.547422 1_655
O31 P7 1.552635 1_454
O32 P4 1.546849 1_545
O33 P3 1.545336 1_565
O34 P13 1.548821 1_555
O35 P9 1.546112 1_555
O36 P2 1.546305 1_555
O37 P0 1.546112 1_555
O38 P10 1.552090 1_555
O39 P6 1.546499 1_655
O40 P7 1.548641 1_465
O41 P10 1.543337 1_555
O42 P15 1.543668 1_555
O43 P15 1.549436 1_555
O44 P14 1.547422 1_565
O45 P12 1.543668 1_555
O46 P3 1.551109 1_565
O47 P6 1.543478 1_555
O48 P14 1.545753 1_555
O49 P6 1.545253 1_555
O50 P2 1.552635 1_545
O51 P0 1.546151 1_555
O52 P3 1.546291 1_555
O53 P12 1.549436 1_555
O54 P8 1.545232 1_555
O55 P7 1.543486 1_555
O56 P11 1.546499 1_565
O57 P2 1.543486 1_555
O58 P5 1.546291 1_555
O59 P8 1.546024 1_555
O60 P8 1.546849 1_455
O61 P12 1.547016 1_555
O62 P15 1.545548 1_555
O63 P5 1.545336 1_655
