# generated using pymatgen
data_NaLi5Mn2P2(CO7)2
_symmetry_space_group_name_H-M   'P 1'
_cell_length_a   6.64317600
_cell_length_b   8.64950636
_cell_length_c   10.01801592
_cell_angle_alpha   91.92029012
_cell_angle_beta   90.13944748
_cell_angle_gamma   90.35213634
_symmetry_Int_Tables_number   1
_chemical_formula_structural   NaLi5Mn2P2(CO7)2
_chemical_formula_sum   'Na2 Li10 Mn4 P4 C4 O28'
_cell_volume   575.30098561
_cell_formula_units_Z   2
loop_
 _symmetry_equiv_pos_site_id
 _symmetry_equiv_pos_as_xyz
  1  'x, y, z'
loop_
 _atom_site_type_symbol
 _atom_site_label
 _atom_site_symmetry_multiplicity
 _atom_site_fract_x
 _atom_site_fract_y
 _atom_site_fract_z
 _atom_site_occupancy
  Na  Na0  1  0.24529800  0.91389100  0.37612400  1
  Na  Na1  1  0.50007700  0.24817800  0.37561000  1
  Li  Li0  1  0.24856600  0.92053100  0.87163000  1
  Li  Li1  1  0.02569200  0.73288200  0.61617300  1
  Li  Li2  1  0.47381000  0.73311900  0.61575900  1
  Li  Li3  1  0.02541000  0.73205400  0.11097200  1
  Li  Li4  1  0.47523600  0.73427800  0.11163200  1
  Li  Li5  1  0.52343700  0.26284200  0.88303600  1
  Li  Li6  1  0.97428800  0.26460000  0.88394500  1
  Li  Li7  1  0.97294600  0.27215300  0.38837600  1
  Li  Li8  1  0.75617200  0.08302600  0.63094900  1
  Li  Li9  1  0.76283500  0.08765700  0.12535600  1
  Mn  Mn0  1  0.75099700  0.65011100  0.88570700  1
  Mn  Mn1  1  0.74725300  0.64303800  0.38927700  1
  Mn  Mn2  1  0.24525400  0.35415500  0.61896500  1
  Mn  Mn3  1  0.24874200  0.35167500  0.10891000  1
  P  P0  1  0.25085900  0.59507200  0.85477100  1
  P  P1  1  0.24283600  0.58556700  0.35717200  1
  P  P2  1  0.74891900  0.40923200  0.65125500  1
  P  P3  1  0.75437000  0.40929400  0.14244600  1
  C  C0  1  0.75031900  0.96253800  0.86427600  1
  C  C1  1  0.75925900  0.95619900  0.36148600  1
  C  C2  1  0.24946000  0.04774700  0.64186600  1
  C  C3  1  0.25045200  0.03869800  0.12723100  1
  O  O0  1  0.25119100  0.89800400  0.65673200  1
  O  O1  1  0.24989400  0.89049300  0.14557600  1
  O  O2  1  0.75274300  0.91999100  0.98650400  1
  O  O3  1  0.75025000  0.92012200  0.48616100  1
  O  O4  1  0.75102300  0.85963800  0.76582200  1
  O  O5  1  0.74435800  0.84866400  0.26765000  1
  O  O6  1  0.06731700  0.68905900  0.90743700  1
  O  O7  1  0.43572300  0.68973900  0.90728800  1
  O  O8  1  0.06246800  0.68359300  0.40986300  1
  O  O9  1  0.43217300  0.67206100  0.41349200  1
  O  O10  1  0.24920200  0.58891700  0.69808300  1
  O  O11  1  0.75206800  0.57888800  0.60291300  1
  O  O12  1  0.24742700  0.58230300  0.20050900  1
  O  O13  1  0.75095200  0.57843800  0.09459400  1
  O  O14  1  0.25183700  0.42463800  0.89991400  1
  O  O15  1  0.75625800  0.41805700  0.80756400  1
  O  O16  1  0.22957700  0.41638900  0.40269700  1
  O  O17  1  0.76723600  0.41781500  0.29834200  1
  O  O18  1  0.56024700  0.31660800  0.60469000  1
  O  O19  1  0.92861900  0.31160700  0.59653800  1
  O  O20  1  0.56587600  0.31317800  0.09689700  1
  O  O21  1  0.93365900  0.31290400  0.08532700  1
  O  O22  1  0.24410300  0.13933400  0.74707700  1
  O  O23  1  0.25133200  0.13540900  0.22997200  1
  O  O24  1  0.25242100  0.10638200  0.52487300  1
  O  O25  1  0.24958100  0.09158800  0.00812200  1
  O  O26  1  0.74751900  0.10857600  0.83508700  1
  O  O27  1  0.78245900  0.09907000  0.32735100  1
loop_
_geom_bond_atom_site_label_1
_geom_bond_atom_site_label_2
_geom_bond_distance
_geom_bond_site_symmetry_2
Na0 O24 2.197117 1_565
Na0 O1 2.312010 1_555
Na0 O8 2.361087 1_555
Na0 O23 2.450273 1_565
Na0 O9 2.477642 1_555
Na0 O0 2.819276 1_555
Na1 O27 2.325619 1_555
Na1 O16 2.329737 1_555
Na1 O18 2.382937 1_555
Na1 O23 2.384068 1_555
Na1 O17 2.439824 1_555
Na1 O24 2.560671 1_555
Na1 O20 2.900240 1_555
Li0 O25 1.980685 1_566
Li0 O0 2.155261 1_555
Li0 O22 2.301801 1_565
Li0 O6 2.368024 1_555
Li0 O7 2.394691 1_555
Li1 O0 2.093050 1_555
Li1 O8 2.111364 1_555
Li1 O10 2.124591 1_555
Li1 O11 2.247922 1_455
Li1 O4 2.589747 1_455
Li2 O0 2.092664 1_555
Li2 O9 2.094069 1_555
Li2 O10 2.124691 1_555
Li2 O11 2.287609 1_555
Li2 O4 2.588524 1_555
Li3 O1 2.040266 1_555
Li3 O6 2.080050 1_554
Li3 O12 2.180032 1_555
Li3 O13 2.251855 1_455
Li3 O5 2.626454 1_455
Li4 O1 2.044223 1_555
Li4 O7 2.085979 1_554
Li4 O12 2.207157 1_555
Li4 O13 2.284161 1_555
Li4 O5 2.545418 1_555
Li5 O26 2.052336 1_555
Li5 O20 2.189115 1_556
Li5 O15 2.194183 1_555
Li5 O14 2.293290 1_555
Li5 O22 2.511113 1_555
Li6 O26 2.063346 1_555
Li6 O21 2.065201 1_556
Li6 O15 2.128734 1_555
Li6 O14 2.300807 1_655
Li6 O22 2.490594 1_655
Li7 O27 2.031736 1_555
Li7 O17 2.087995 1_555
Li7 O16 2.108123 1_655
Li7 O19 2.123316 1_555
Li8 O3 1.988197 1_545
Li8 O26 2.050572 1_555
Li8 O19 2.315159 1_555
Li8 O4 2.394694 1_545
Li8 O18 2.431345 1_555
Li9 O2 1.976298 1_544
Li9 O27 2.026530 1_555
Li9 O21 2.296038 1_555
Li9 O20 2.380153 1_555
Li9 O5 2.552556 1_545
Mn0 O15 2.130354 1_555
Mn0 O7 2.134687 1_555
Mn0 O6 2.135600 1_655
Mn0 O13 2.202357 1_556
Mn0 O4 2.207429 1_555
Mn0 O2 2.512077 1_555
Mn1 O9 2.123186 1_555
Mn1 O17 2.127751 1_555
Mn1 O8 2.129450 1_655
Mn1 O5 2.189486 1_555
Mn1 O11 2.229095 1_555
Mn1 O3 2.555336 1_555
Mn2 O18 2.124006 1_555
Mn2 O19 2.143155 1_455
Mn2 O10 2.154885 1_555
Mn2 O16 2.252201 1_555
Mn2 O22 2.293351 1_555
Mn2 O24 2.312967 1_555
Mn3 O21 2.129135 1_455
Mn3 O20 2.137999 1_555
Mn3 O12 2.167721 1_555
Mn3 O14 2.207032 1_554
Mn3 O23 2.263325 1_555
Mn3 O25 2.434806 1_555
C0 O2 1.290436 1_555
C0 O4 1.306231 1_555
C0 O26 1.306306 1_565
C1 O3 1.298923 1_555
C1 O27 1.301554 1_565
C1 O5 1.303243 1_555
C2 O24 1.292711 1_555
C2 O22 1.297813 1_555
C2 O0 1.308803 1_545
C3 O25 1.292172 1_555
C3 O1 1.301073 1_545
C3 O23 1.304361 1_555
O6 P0 1.553226 1_555
O7 P0 1.552766 1_555
O8 P1 1.555257 1_555
O9 P1 1.554602 1_555
O10 P0 1.568831 1_555
O11 P2 1.560659 1_555
O12 P1 1.569134 1_555
O13 P3 1.555019 1_555
O14 P0 1.556447 1_555
O15 P2 1.565834 1_555
O16 P1 1.549310 1_555
O17 P3 1.563143 1_555
O18 P2 1.546022 1_555
O19 P2 1.556651 1_555
O20 P3 1.557682 1_555
O21 P3 1.557139 1_555
