# generated using pymatgen
data_LuH6(ClO5)3
_symmetry_space_group_name_H-M   'P 1'
_cell_length_a   7.57200500
_cell_length_b   8.50178949
_cell_length_c   10.65389275
_cell_angle_alpha   79.66596565
_cell_angle_beta   78.40469728
_cell_angle_gamma   63.82220640
_symmetry_Int_Tables_number   1
_chemical_formula_structural   LuH6(ClO5)3
_chemical_formula_sum   'Lu2 H12 Cl6 O30'
_cell_volume   599.72257776
_cell_formula_units_Z   2
loop_
 _symmetry_equiv_pos_site_id
 _symmetry_equiv_pos_as_xyz
  1  'x, y, z'
loop_
 _atom_site_type_symbol
 _atom_site_label
 _atom_site_symmetry_multiplicity
 _atom_site_fract_x
 _atom_site_fract_y
 _atom_site_fract_z
 _atom_site_occupancy
  Lu  Lu0  1  0.78344000  0.01655400  0.25290400  1
  Lu  Lu1  1  0.21656000  0.98344600  0.74709600  1
  H  H0  1  0.05366100  0.29167100  0.55040600  1
  H  H1  1  0.14472000  0.17358100  0.97482900  1
  H  H2  1  0.19566200  0.28267200  0.84769200  1
  H  H3  1  0.36652800  0.29102800  0.29595000  1
  H  H4  1  0.42733800  0.26373100  0.14824700  1
  H  H5  1  0.10803000  0.78172100  0.39478200  1
  H  H6  1  0.89197000  0.21827900  0.60521800  1
  H  H7  1  0.57266200  0.73626900  0.85175300  1
  H  H8  1  0.63347200  0.70897200  0.70405000  1
  H  H9  1  0.80433800  0.71732800  0.15230800  1
  H  H10  1  0.85528000  0.82641900  0.02517100  1
  H  H11  1  0.94633900  0.70832900  0.44959400  1
  Cl  Cl0  1  0.03563000  0.65729900  0.75610800  1
  Cl  Cl1  1  0.26935300  0.77365300  0.07060000  1
  Cl  Cl2  1  0.51326100  0.21198200  0.55554500  1
  Cl  Cl3  1  0.48673900  0.78801800  0.44445500  1
  Cl  Cl4  1  0.73064700  0.22634700  0.92940000  1
  Cl  Cl5  1  0.96437000  0.34270100  0.24389200  1
  O  O0  1  0.11327100  0.28710000  0.13234400  1
  O  O1  1  0.02107600  0.21033000  0.61776100  1
  O  O2  1  0.04859200  0.37493500  0.34226600  1
  O  O3  1  0.19022000  0.16892300  0.88204800  1
  O  O4  1  0.27321200  0.60461400  0.12250900  1
  O  O5  1  0.13699100  0.90880600  0.15788100  1
  O  O6  1  0.35015300  0.33629100  0.48840200  1
  O  O7  1  0.47923800  0.23432000  0.23074200  1
  O  O8  1  0.21075000  0.50331200  0.79025400  1
  O  O9  1  0.09752800  0.80280300  0.69895600  1
  O  O10  1  0.43723600  0.12343800  0.67082600  1
  O  O11  1  0.65458200  0.07410200  0.47274000  1
  O  O12  1  0.38295700  0.70304700  0.40395100  1
  O  O13  1  0.18444000  0.82617800  0.94629300  1
  O  O14  1  0.46247100  0.77496100  0.04682300  1
  O  O15  1  0.53752900  0.22503900  0.95317700  1
  O  O16  1  0.81556000  0.17382200  0.05370700  1
  O  O17  1  0.61704300  0.29695300  0.59604900  1
  O  O18  1  0.34541800  0.92589800  0.52726000  1
  O  O19  1  0.56276400  0.87656200  0.32917400  1
  O  O20  1  0.90247200  0.19719700  0.30104400  1
  O  O21  1  0.78925000  0.49668800  0.20974600  1
  O  O22  1  0.52076200  0.76568000  0.76925800  1
  O  O23  1  0.64984700  0.66370900  0.51159800  1
  O  O24  1  0.86300900  0.09119400  0.84211900  1
  O  O25  1  0.72678800  0.39538600  0.87749100  1
  O  O26  1  0.80978000  0.83107700  0.11795200  1
  O  O27  1  0.95140800  0.62506500  0.65773400  1
  O  O28  1  0.97892400  0.78967000  0.38223900  1
  O  O29  1  0.88672900  0.71290000  0.86765600  1
loop_
_geom_bond_atom_site_label_1
_geom_bond_atom_site_label_2
_geom_bond_distance
_geom_bond_site_symmetry_2
Lu0 O26 2.239231 1_545
Lu0 O7 2.255723 1_555
Lu0 O20 2.263581 1_555
Lu0 O28 2.271024 1_545
Lu0 O16 2.326394 1_555
Lu0 O19 2.393914 1_545
Lu0 O11 2.397528 1_555
Lu0 O5 2.471908 1_645
Lu1 O3 2.239231 1_565
Lu1 O22 2.255723 1_555
Lu1 O9 2.263581 1_555
Lu1 O1 2.271024 1_565
Lu1 O13 2.326394 1_555
Lu1 O10 2.393914 1_565
Lu1 O18 2.397528 1_555
Lu1 O24 2.471908 1_465
H0 O1 0.977437 1_555
H1 O3 0.981051 1_555
H2 O3 0.986407 1_555
H3 O7 0.980928 1_555
H4 O7 0.981180 1_555
H5 O28 0.984425 1_455
H6 O1 0.984425 1_655
H7 O22 0.981180 1_555
H8 O22 0.980928 1_555
H9 O26 0.986407 1_555
H10 O26 0.981051 1_555
H11 O28 0.977437 1_555
Cl0 O8 1.447734 1_555
Cl0 O29 1.449023 1_455
Cl0 O27 1.451267 1_455
Cl0 O9 1.499100 1_555
Cl1 O4 1.433998 1_555
Cl1 O14 1.437712 1_555
Cl1 O5 1.477184 1_555
Cl1 O13 1.497838 1_554
Cl2 O17 1.440372 1_555
Cl2 O6 1.444388 1_555
Cl2 O10 1.474091 1_555
Cl2 O11 1.477237 1_555
Cl3 O12 1.440372 1_555
Cl3 O23 1.444388 1_555
Cl3 O19 1.474091 1_555
Cl3 O18 1.477237 1_555
Cl4 O25 1.433998 1_555
Cl4 O15 1.437712 1_555
Cl4 O24 1.477184 1_555
Cl4 O16 1.497838 1_556
Cl5 O21 1.447734 1_555
Cl5 O0 1.449023 1_655
Cl5 O2 1.451267 1_655
Cl5 O20 1.499100 1_555
