# generated using pymatgen
data_BaCa2I6
_symmetry_space_group_name_H-M   'P 1'
_cell_length_a   7.76948200
_cell_length_b   8.65773500
_cell_length_c   23.97326285
_cell_angle_alpha   86.68960431
_cell_angle_beta   90.00000000
_cell_angle_gamma   90.00000000
_symmetry_Int_Tables_number   1
_chemical_formula_structural   BaCa2I6
_chemical_formula_sum   'Ba4 Ca8 I24'
_cell_volume   1609.89744924
_cell_formula_units_Z   4
loop_
 _symmetry_equiv_pos_site_id
 _symmetry_equiv_pos_as_xyz
  1  'x, y, z'
loop_
 _atom_site_type_symbol
 _atom_site_label
 _atom_site_symmetry_multiplicity
 _atom_site_fract_x
 _atom_site_fract_y
 _atom_site_fract_z
 _atom_site_occupancy
  Ba  Ba0  1  0.03126200  0.14520900  0.59632400  1
  Ba  Ba1  1  0.46873800  0.14520900  0.09632400  1
  Ba  Ba2  1  0.53126200  0.85479100  0.90367600  1
  Ba  Ba3  1  0.96873800  0.85479100  0.40367600  1
  Ca  Ca0  1  0.48776300  0.25338000  0.75256800  1
  Ca  Ca1  1  0.96833500  0.37530900  0.91145500  1
  Ca  Ca2  1  0.01223700  0.25338000  0.25256800  1
  Ca  Ca3  1  0.53166500  0.37530900  0.41145500  1
  Ca  Ca4  1  0.46833500  0.62469100  0.58854500  1
  Ca  Ca5  1  0.98776300  0.74662000  0.74743200  1
  Ca  Ca6  1  0.03166500  0.62469100  0.08854500  1
  Ca  Ca7  1  0.51223700  0.74662000  0.24743200  1
  I  I0  1  0.79083500  0.03658100  0.79952900  1
  I  I1  1  0.27543100  0.17683000  0.85902500  1
  I  I2  1  0.73598100  0.13401600  0.97664200  1
  I  I3  1  0.70916500  0.03658100  0.29952900  1
  I  I4  1  0.22456900  0.17683000  0.35902500  1
  I  I5  1  0.76401900  0.13401600  0.47664200  1
  I  I6  1  0.28371400  0.38463600  0.51470100  1
  I  I7  1  0.68179400  0.34367400  0.64396500  1
  I  I8  1  0.20768500  0.47603800  0.68796300  1
  I  I9  1  0.70768500  0.52396200  0.81203700  1
  I  I10  1  0.21628600  0.38463600  0.01470100  1
  I  I11  1  0.18179400  0.65632600  0.85603500  1
  I  I12  1  0.81820600  0.34367400  0.14396500  1
  I  I13  1  0.78371400  0.61536400  0.98529900  1
  I  I14  1  0.29231500  0.47603800  0.18796300  1
  I  I15  1  0.79231500  0.52396200  0.31203700  1
  I  I16  1  0.31820600  0.65632600  0.35603500  1
  I  I17  1  0.71628600  0.61536400  0.48529900  1
  I  I18  1  0.23598100  0.86598400  0.52335800  1
  I  I19  1  0.77543100  0.82317000  0.64097500  1
  I  I20  1  0.29083500  0.96341900  0.70047100  1
  I  I21  1  0.26401900  0.86598400  0.02335800  1
  I  I22  1  0.72456900  0.82317000  0.14097500  1
  I  I23  1  0.20916500  0.96341900  0.20047100  1
loop_
_geom_bond_atom_site_label_1
_geom_bond_atom_site_label_2
_geom_bond_distance
_geom_bond_site_symmetry_2
Ba0 I6 3.391838 1_555
Ba0 I7 3.443210 1_455
Ba0 I18 3.452849 1_545
Ba0 I20 3.510598 1_545
Ba0 I19 3.539159 1_445
Ba0 I5 3.547508 1_455
Ba0 I8 3.954199 1_555
Ba1 I10 3.391838 1_555
Ba1 I12 3.443210 1_555
Ba1 I21 3.452849 1_545
Ba1 I23 3.510598 1_545
Ba1 I22 3.539159 1_545
Ba1 I2 3.547508 1_554
Ba1 I14 3.954199 1_555
Ba2 I13 3.391838 1_555
Ba2 I11 3.443210 1_555
Ba2 I2 3.452849 1_565
Ba2 I0 3.510598 1_565
Ba2 I1 3.539159 1_565
Ba2 I21 3.547508 1_556
Ba2 I9 3.954199 1_555
Ba3 I17 3.391838 1_555
Ba3 I16 3.443210 1_655
Ba3 I5 3.452849 1_565
Ba3 I3 3.510598 1_565
Ba3 I4 3.539159 1_665
Ba3 I18 3.547508 1_655
Ba3 I15 3.954199 1_555
Ca0 I7 3.070382 1_555
Ca0 I1 3.078760 1_555
Ca0 I0 3.176658 1_555
Ca0 I8 3.241183 1_555
Ca0 I20 3.250394 1_545
Ca0 I9 3.290247 1_555
Ca1 I2 3.112599 1_555
Ca1 I10 3.141202 1_656
Ca1 I13 3.152112 1_555
Ca1 I11 3.172020 1_655
Ca1 I1 3.236510 1_655
Ca1 I9 3.329215 1_555
Ca2 I12 3.070382 1_455
Ca2 I4 3.078760 1_555
Ca2 I3 3.176658 1_455
Ca2 I14 3.241183 1_555
Ca2 I23 3.250394 1_545
Ca2 I15 3.290247 1_455
Ca3 I5 3.112599 1_555
Ca3 I6 3.141202 1_555
Ca3 I17 3.152112 1_555
Ca3 I16 3.172020 1_555
Ca3 I4 3.236510 1_555
Ca3 I15 3.329215 1_555
Ca4 I18 3.112599 1_555
Ca4 I17 3.141202 1_555
Ca4 I6 3.152112 1_555
Ca4 I7 3.172020 1_555
Ca4 I19 3.236510 1_555
Ca4 I8 3.329215 1_555
Ca5 I11 3.070382 1_655
Ca5 I19 3.078760 1_555
Ca5 I20 3.176658 1_655
Ca5 I9 3.241183 1_555
Ca5 I0 3.250394 1_565
Ca5 I8 3.290247 1_655
Ca6 I21 3.112599 1_555
Ca6 I13 3.141202 1_454
Ca6 I10 3.152112 1_555
Ca6 I12 3.172020 1_455
Ca6 I22 3.236510 1_455
Ca6 I14 3.329215 1_555
Ca7 I16 3.070382 1_555
Ca7 I22 3.078760 1_555
Ca7 I23 3.176658 1_555
Ca7 I15 3.241183 1_555
Ca7 I3 3.250394 1_565
Ca7 I14 3.290247 1_555
