# generated using pymatgen
data_MgCoO3
_symmetry_space_group_name_H-M   'P 1'
_cell_length_a   4.92736200
_cell_length_b   5.14567800
_cell_length_c   7.19145900
_cell_angle_alpha   90.00000000
_cell_angle_beta   90.00000000
_cell_angle_gamma   90.00000000
_symmetry_Int_Tables_number   1
_chemical_formula_structural   MgCoO3
_chemical_formula_sum   'Mg4 Co4 O12'
_cell_volume   182.33669754
_cell_formula_units_Z   4
loop_
 _symmetry_equiv_pos_site_id
 _symmetry_equiv_pos_as_xyz
  1  'x, y, z'
loop_
 _atom_site_type_symbol
 _atom_site_label
 _atom_site_symmetry_multiplicity
 _atom_site_fract_x
 _atom_site_fract_y
 _atom_site_fract_z
 _atom_site_occupancy
  Mg  Mg0  1  0.48456400  0.56765100  0.75000000  1
  Mg  Mg1  1  0.98456400  0.93234900  0.25000000  1
  Mg  Mg2  1  0.01543600  0.06765100  0.75000000  1
  Mg  Mg3  1  0.51543600  0.43234900  0.25000000  1
  Co  Co0  1  0.00000000  0.50000000  0.50000000  1
  Co  Co1  1  0.50000000  0.00000000  0.50000000  1
  Co  Co2  1  0.50000000  0.00000000  0.00000000  1
  Co  Co3  1  0.00000000  0.50000000  0.00000000  1
  O  O0  1  0.37640300  0.05398800  0.25000000  1
  O  O1  1  0.87640300  0.44601200  0.75000000  1
  O  O2  1  0.12359700  0.55398800  0.25000000  1
  O  O3  1  0.62359700  0.94601200  0.75000000  1
  O  O4  1  0.18681400  0.81238100  0.93563500  1
  O  O5  1  0.68681400  0.68761900  0.06436500  1
  O  O6  1  0.31318600  0.31238100  0.56436500  1
  O  O7  1  0.81318600  0.18761900  0.43563500  1
  O  O8  1  0.18681400  0.81238100  0.56436500  1
  O  O9  1  0.68681400  0.68761900  0.43563500  1
  O  O10  1  0.81318600  0.18761900  0.06436500  1
  O  O11  1  0.31318600  0.31238100  0.93563500  1
loop_
_geom_bond_atom_site_label_1
_geom_bond_atom_site_label_2
_geom_bond_distance
_geom_bond_site_symmetry_2
Mg0 O1 2.029655 1_555
Mg0 O6 2.054422 1_555
Mg0 O11 2.054422 1_555
Mg0 O3 2.063935 1_555
Mg0 O4 2.349570 1_555
Mg0 O8 2.349570 1_555
Mg0 O9 2.546599 1_555
Mg0 O5 2.546599 1_556
Mg1 O0 2.029655 1_665
Mg1 O10 2.054422 1_565
Mg1 O7 2.054422 1_565
Mg1 O2 2.063935 1_655
Mg1 O5 2.349570 1_555
Mg1 O9 2.349570 1_555
Mg1 O8 2.546599 1_655
Mg1 O4 2.546599 1_654
Mg2 O3 2.029655 1_445
Mg2 O8 2.054422 1_545
Mg2 O4 2.054422 1_545
Mg2 O1 2.063935 1_455
Mg2 O11 2.349570 1_555
Mg2 O6 2.349570 1_555
Mg2 O10 2.546599 1_456
Mg2 O7 2.546599 1_455
Mg3 O2 2.029655 1_555
Mg3 O9 2.054422 1_555
Mg3 O5 2.054422 1_555
Mg3 O0 2.063935 1_555
Mg3 O7 2.349570 1_555
Mg3 O10 2.349570 1_555
Mg3 O6 2.546599 1_555
Mg3 O11 2.546599 1_554
Co0 O9 1.878221 1_455
Co0 O6 1.878221 1_555
Co0 O8 1.909280 1_555
Co0 O7 1.909280 1_455
Co0 O1 1.918432 1_455
Co0 O2 1.918432 1_555
Co1 O8 1.878221 1_545
Co1 O7 1.878221 1_555
Co1 O6 1.909280 1_555
Co1 O9 1.909280 1_545
Co1 O3 1.918432 1_545
Co1 O0 1.918432 1_555
Co2 O4 1.878221 1_544
Co2 O10 1.878221 1_555
Co2 O11 1.909280 1_554
Co2 O5 1.909280 1_545
Co2 O3 1.918432 1_544
Co2 O0 1.918432 1_555
Co3 O5 1.878221 1_455
Co3 O11 1.878221 1_554
Co3 O4 1.909280 1_554
Co3 O10 1.909280 1_455
Co3 O2 1.918432 1_555
Co3 O1 1.918432 1_454
