# generated using pymatgen
data_Dy2Ge2O7
_symmetry_space_group_name_H-M   'P 1'
_cell_length_a   7.01156517
_cell_length_b   7.01156517
_cell_length_c   7.01156517
_cell_angle_alpha   60.00000000
_cell_angle_beta   60.00000000
_cell_angle_gamma   60.00000000
_symmetry_Int_Tables_number   1
_chemical_formula_structural   Dy2Ge2O7
_chemical_formula_sum   'Dy4 Ge4 O14'
_cell_volume   243.74175149
_cell_formula_units_Z   2
loop_
 _symmetry_equiv_pos_site_id
 _symmetry_equiv_pos_as_xyz
  1  'x, y, z'
loop_
 _atom_site_type_symbol
 _atom_site_label
 _atom_site_symmetry_multiplicity
 _atom_site_fract_x
 _atom_site_fract_y
 _atom_site_fract_z
 _atom_site_occupancy
  Dy  Dy0  1  0.62500000  0.62500000  0.62500000  1
  Dy  Dy1  1  0.12500000  0.62500000  0.62500000  1
  Dy  Dy2  1  0.62500000  0.12500000  0.62500000  1
  Dy  Dy3  1  0.62500000  0.62500000  0.12500000  1
  Ge  Ge0  1  0.12500000  0.62500000  0.12500000  1
  Ge  Ge1  1  0.12500000  0.12500000  0.62500000  1
  Ge  Ge2  1  0.62500000  0.12500000  0.12500000  1
  Ge  Ge3  1  0.12500000  0.12500000  0.12500000  1
  O  O0  1  0.75000000  0.75000000  0.75000000  1
  O  O1  1  0.20173773  0.79826227  0.79826227  1
  O  O2  1  0.20173773  0.79826227  0.20173773  1
  O  O3  1  0.79826227  0.79826227  0.20173773  1
  O  O4  1  0.79826227  0.20173773  0.79826227  1
  O  O5  1  0.20173773  0.20173773  0.79826227  1
  O  O6  1  0.45173773  0.04826227  0.04826227  1
  O  O7  1  0.79826227  0.20173773  0.20173773  1
  O  O8  1  0.04826227  0.45173773  0.04826227  1
  O  O9  1  0.04826227  0.04826227  0.45173773  1
  O  O10  1  0.45173773  0.45173773  0.04826227  1
  O  O11  1  0.45173773  0.04826227  0.45173773  1
  O  O12  1  0.04826227  0.45173773  0.45173773  1
  O  O13  1  0.50000000  0.50000000  0.50000000  1
loop_
_geom_bond_atom_site_label_1
_geom_bond_atom_site_label_2
_geom_bond_distance
_geom_bond_site_symmetry_2
Dy0 O0 2.146845 1_555
Dy0 O13 2.146845 1_555
Dy0 O12 2.454445 1_655
Dy0 O10 2.454445 1_556
Dy0 O4 2.454445 1_555
Dy0 O1 2.454445 1_555
Dy0 O11 2.454445 1_565
Dy0 O3 2.454445 1_555
Dy1 O0 2.146845 1_455
Dy1 O13 2.146845 1_555
Dy1 O12 2.454445 1_555
Dy1 O9 2.454445 1_565
Dy1 O8 2.454445 1_556
Dy1 O5 2.454445 1_555
Dy1 O2 2.454445 1_555
Dy1 O1 2.454445 1_555
Dy2 O13 2.146845 1_555
Dy2 O0 2.146845 1_545
Dy2 O9 2.454445 1_655
Dy2 O6 2.454445 1_556
Dy2 O11 2.454445 1_555
Dy2 O5 2.454445 1_555
Dy2 O7 2.454445 1_555
Dy2 O4 2.454445 1_555
Dy3 O0 2.146845 1_554
Dy3 O13 2.146845 1_555
Dy3 O6 2.454445 1_565
Dy3 O8 2.454445 1_655
Dy3 O10 2.454445 1_555
Dy3 O7 2.454445 1_555
Dy3 O2 2.454445 1_555
Dy3 O3 2.454445 1_555
Ge0 O1 1.910923 1_554
Ge0 O10 1.910923 1_555
Ge0 O8 1.910923 1_555
Ge0 O3 1.910923 1_455
Ge0 O12 1.910923 1_555
Ge0 O2 1.910923 1_555
Ge1 O9 1.910923 1_555
Ge1 O4 1.910923 1_455
Ge1 O11 1.910923 1_555
Ge1 O1 1.910923 1_545
Ge1 O12 1.910923 1_555
Ge1 O5 1.910923 1_555
Ge2 O4 1.910923 1_554
Ge2 O11 1.910923 1_555
Ge2 O6 1.910923 1_555
Ge2 O3 1.910923 1_545
Ge2 O10 1.910923 1_555
Ge2 O7 1.910923 1_555
Ge3 O2 1.910923 1_545
Ge3 O7 1.910923 1_455
Ge3 O5 1.910923 1_554
Ge3 O9 1.910923 1_555
Ge3 O6 1.910923 1_555
Ge3 O8 1.910923 1_555
