# generated using pymatgen
data_Mn6O5F7
_symmetry_space_group_name_H-M   'P 1'
_cell_length_a   4.73984200
_cell_length_b   5.73160733
_cell_length_c   15.58641727
_cell_angle_alpha   89.92590802
_cell_angle_beta   89.91214340
_cell_angle_gamma   89.83304890
_symmetry_Int_Tables_number   1
_chemical_formula_structural   Mn6O5F7
_chemical_formula_sum   'Mn12 O10 F14'
_cell_volume   423.43219736
_cell_formula_units_Z   2
loop_
 _symmetry_equiv_pos_site_id
 _symmetry_equiv_pos_as_xyz
  1  'x, y, z'
loop_
 _atom_site_type_symbol
 _atom_site_label
 _atom_site_symmetry_multiplicity
 _atom_site_fract_x
 _atom_site_fract_y
 _atom_site_fract_z
 _atom_site_occupancy
  Mn  Mn0  1  0.96335400  0.16557500  0.58086600  1
  Mn  Mn1  1  0.99540800  0.81440100  0.74830600  1
  Mn  Mn2  1  0.95671600  0.16495800  0.91709600  1
  Mn  Mn3  1  0.02420600  0.15487100  0.25529800  1
  Mn  Mn4  1  0.99609700  0.86425700  0.42147800  1
  Mn  Mn5  1  0.94531200  0.83758400  0.08472100  1
  Mn  Mn6  1  0.52699200  0.33388600  0.41138100  1
  Mn  Mn7  1  0.51954800  0.34026300  0.07908300  1
  Mn  Mn8  1  0.49387700  0.37367300  0.75373800  1
  Mn  Mn9  1  0.48835200  0.63659300  0.91573400  1
  Mn  Mn10  1  0.53198800  0.65653200  0.57967600  1
  Mn  Mn11  1  0.52018600  0.65584700  0.24907500  1
  O  O0  1  0.80550600  0.10865300  0.36161900  1
  O  O1  1  0.76323800  0.10535300  0.02911800  1
  O  O2  1  0.78197200  0.90468400  0.52571100  1
  O  O3  1  0.79234900  0.89498500  0.19942500  1
  O  O4  1  0.70594300  0.39011400  0.85777000  1
  O  O5  1  0.70965000  0.59957100  0.69025700  1
  O  O6  1  0.71856200  0.38962300  0.52218100  1
  O  O7  1  0.70238500  0.59484800  0.02143100  1
  O  O8  1  0.27972400  0.60958600  0.80812800  1
  O  O9  1  0.31367700  0.37371600  0.30489300  1
  F  F0  1  0.73884400  0.11894600  0.70037300  1
  F  F1  1  0.75775300  0.88864200  0.85869100  1
  F  F2  1  0.75740500  0.60839600  0.36130700  1
  F  F3  1  0.76699000  0.40380800  0.19091800  1
  F  F4  1  0.23628100  0.37090300  0.97527400  1
  F  F5  1  0.24018000  0.38035900  0.64243700  1
  F  F6  1  0.27121100  0.63491300  0.47351000  1
  F  F7  1  0.26891200  0.61337300  0.13533800  1
  F  F8  1  0.22163000  0.12485200  0.80389800  1
  F  F9  1  0.25141800  0.13579800  0.47559300  1
  F  F10  1  0.22992000  0.89267200  0.63385200  1
  F  F11  1  0.21157200  0.86577700  0.97094000  1
  F  F12  1  0.25666000  0.12332100  0.14255700  1
  F  F13  1  0.25617700  0.86867000  0.31832400  1
loop_
_geom_bond_atom_site_label_1
_geom_bond_atom_site_label_2
_geom_bond_distance
_geom_bond_site_symmetry_2
Mn0 O2 1.930604 1_545
Mn0 O6 1.955373 1_555
Mn1 O8 2.013787 1_655
Mn1 O5 2.045888 1_555
Mn2 O4 1.981063 1_555
Mn2 O1 2.000417 1_556
Mn3 O0 1.971321 1_455
Mn3 O9 2.017225 1_555
Mn3 O3 2.049574 1_445
Mn4 O0 1.908027 1_565
Mn4 O2 1.928130 1_555
Mn5 O3 1.956110 1_555
Mn5 O1 1.960214 1_565
Mn5 O7 2.061773 1_555
Mn6 O9 1.957561 1_555
Mn6 O6 1.979119 1_555
Mn6 O0 2.000083 1_555
Mn7 O7 1.920752 1_555
Mn7 O1 1.935033 1_555
Mn8 O8 1.889356 1_555
Mn8 O4 1.911645 1_555
Mn8 O5 1.924233 1_555
Mn9 O7 1.950171 1_556
Mn9 O8 1.954849 1_555
Mn9 O4 1.966630 1_555
Mn10 O5 1.946217 1_555
Mn10 O6 1.979567 1_555
Mn10 O2 2.034225 1_555
Mn11 O3 2.036212 1_555
Mn11 O9 2.081553 1_555
F0 Mn8 2.040071 1_555
F0 Mn0 2.160490 1_555
F0 Mn1 2.251871 1_545
F1 Mn2 2.059447 1_565
F1 Mn1 2.098392 1_555
F1 Mn9 2.124138 1_555
F2 Mn6 2.069210 1_555
F2 Mn4 2.080056 1_555
F2 Mn11 2.097916 1_555
F3 Mn11 2.065733 1_555
F3 Mn3 2.125788 1_655
F3 Mn7 2.134718 1_555
F4 Mn2 1.996757 1_455
F4 Mn7 2.110933 1_556
F4 Mn9 2.147386 1_555
F5 Mn0 2.043144 1_455
F5 Mn8 2.112550 1_555
F5 Mn10 2.319519 1_555
F6 Mn4 2.019047 1_455
F6 Mn10 2.070999 1_555
F6 Mn6 2.317970 1_555
F7 Mn5 2.148502 1_455
F7 Mn7 2.149408 1_555
F7 Mn11 2.151668 1_555
F8 Mn8 2.077263 1_555
F8 Mn2 2.176007 1_455
F8 Mn1 2.254924 1_445
F9 Mn6 1.999628 1_555
F9 Mn0 2.139673 1_455
F9 Mn4 2.148427 1_445
F10 Mn10 2.140739 1_555
F10 Mn1 2.148012 1_455
F10 Mn0 2.171039 1_465
F11 Mn9 2.043626 1_555
F11 Mn5 2.181169 1_456
F11 Mn2 2.256399 1_465
F12 Mn7 2.019799 1_555
F12 Mn3 2.080439 1_555
F12 Mn5 2.386332 1_445
F13 Mn4 2.024674 1_455
F13 Mn11 2.051636 1_555
F13 Mn3 2.203053 1_565
