# generated using pymatgen
data_Li5TiMn9O20
_symmetry_space_group_name_H-M   'P 1'
_cell_length_a   5.79943457
_cell_length_b   5.79857525
_cell_length_c   23.90658115
_cell_angle_alpha   89.84437043
_cell_angle_beta   97.04773164
_cell_angle_gamma   120.08419086
_symmetry_Int_Tables_number   1
_chemical_formula_structural   Li5TiMn9O20
_chemical_formula_sum   'Li10 Ti2 Mn18 O40'
_cell_volume   688.76661790
_cell_formula_units_Z   2
loop_
 _symmetry_equiv_pos_site_id
 _symmetry_equiv_pos_as_xyz
  1  'x, y, z'
loop_
 _atom_site_type_symbol
 _atom_site_label
 _atom_site_symmetry_multiplicity
 _atom_site_fract_x
 _atom_site_fract_y
 _atom_site_fract_z
 _atom_site_occupancy
  Li  Li0  1  0.99455800  0.00276000  0.99891700  1
  Li  Li1  1  0.70188900  0.34736600  0.04953600  1
  Li  Li2  1  0.50568200  0.74740100  0.25084300  1
  Li  Li3  1  0.79961400  0.40150200  0.20052900  1
  Li  Li4  1  0.60135900  0.79453400  0.39927900  1
  Li  Li5  1  0.29874500  0.14770600  0.45047400  1
  Li  Li6  1  0.10082900  0.55206400  0.65066800  1
  Li  Li7  1  0.40093300  0.20060600  0.59859900  1
  Li  Li8  1  0.19694200  0.60087000  0.79906900  1
  Li  Li9  1  0.89868000  0.95361000  0.85036000  1
  Ti  Ti0  1  0.25127200  0.87512400  0.12506000  1
  Ti  Ti1  1  0.75172800  0.87690000  0.62448400  1
  Mn  Mn0  1  0.34961100  0.67297000  0.02447700  1
  Mn  Mn1  1  0.25031400  0.37422200  0.12500900  1
  Mn  Mn2  1  0.05346100  0.77158500  0.32479000  1
  Mn  Mn3  1  0.75028800  0.87403800  0.12505700  1
  Mn  Mn4  1  0.15016800  0.07555600  0.22570300  1
  Mn  Mn5  1  0.05332400  0.27150000  0.32539400  1
  Mn  Mn6  1  0.55245400  0.27048800  0.32475100  1
  Mn  Mn7  1  0.34728000  0.67355000  0.52371000  1
  Mn  Mn8  1  0.84919000  0.67300300  0.52354300  1
  Mn  Mn9  1  0.95001700  0.47179900  0.42422000  1
  Mn  Mn10  1  0.64837100  0.57477700  0.72545900  1
  Mn  Mn11  1  0.15073400  0.07682600  0.72551600  1
  Mn  Mn12  1  0.44643700  0.97728800  0.92511500  1
  Mn  Mn13  1  0.84942100  0.17547000  0.52372400  1
  Mn  Mn14  1  0.44650800  0.47759300  0.92449700  1
  Mn  Mn15  1  0.64845800  0.07632300  0.72561400  1
  Mn  Mn16  1  0.54836200  0.27732500  0.82539900  1
  Mn  Mn17  1  0.94695700  0.47803800  0.92505700  1
  O  O0  1  0.08396700  0.53670100  0.07695000  1
  O  O1  1  0.53978200  0.99173500  0.07670300  1
  O  O2  1  0.33549900  0.94100300  0.27725600  1
  O  O3  1  0.53431200  0.54278900  0.07755600  1
  O  O4  1  0.44881800  0.71871100  0.16824600  1
  O  O5  1  0.05177800  0.02969900  0.08181400  1
  O  O6  1  0.21511100  0.60300800  0.37227000  1
  O  O7  1  0.41693800  0.21223100  0.17334100  1
  O  O8  1  0.96146100  0.75685300  0.17343500  1
  O  O9  1  0.88986100  0.94061500  0.27812000  1
  O  O10  1  0.33737100  0.38806900  0.27803700  1
  O  O11  1  0.13181000  0.78742000  0.47639800  1
  O  O12  1  0.13374500  0.34248400  0.47706300  1
  O  O13  1  0.04373700  0.52172000  0.56624500  1
  O  O14  1  0.24744300  0.11853900  0.36703200  1
  O  O15  1  0.96590900  0.20581800  0.17244000  1
  O  O16  1  0.76759800  0.60241400  0.37152900  1
  O  O17  1  0.85932000  0.42305700  0.28305400  1
  O  O18  1  0.65423100  0.82706800  0.48208200  1
  O  O19  1  0.01813600  0.00863800  0.57051900  1
  O  O20  1  0.76733200  0.15498400  0.37228700  1
  O  O21  1  0.36541100  0.96180000  0.77274600  1
  O  O22  1  0.56226600  0.55396400  0.57079700  1
  O  O23  1  0.68673100  0.34267700  0.47662100  1
  O  O24  1  0.48240000  0.74243800  0.67835800  1
  O  O25  1  0.84339600  0.92264200  0.76707000  1
  O  O26  1  0.93707600  0.74193000  0.67857500  1
  O  O27  1  0.25191400  0.63089500  0.88287700  1
  O  O28  1  0.56116400  0.00835700  0.57064200  1
  O  O29  1  0.45468700  0.22868500  0.68292100  1
  O  O30  1  0.36407400  0.40745200  0.77235400  1
  O  O31  1  0.16397500  0.80764400  0.97281300  1
  O  O32  1  0.81031100  0.40663200  0.77262600  1
  O  O33  1  0.60960100  0.80776800  0.97187000  1
  O  O34  1  0.16295100  0.36087000  0.97179800  1
  O  O35  1  0.28443000  0.14627500  0.87764900  1
  O  O36  1  0.93663200  0.19727800  0.67849000  1
  O  O37  1  0.73146500  0.59351000  0.87763200  1
  O  O38  1  0.73166300  0.14647000  0.87807200  1
  O  O39  1  0.64090100  0.32528300  0.96689000  1
loop_
_geom_bond_atom_site_label_1
_geom_bond_atom_site_label_2
_geom_bond_distance
_geom_bond_site_symmetry_2
Li0 O33 1.949299 1_545
Li0 O34 1.949615 1_655
Li0 O5 1.962224 1_656
Li0 O31 1.975753 1_645
Li1 O0 1.937376 1_655
Li1 O1 1.938315 1_545
Li1 O39 1.956962 1_554
Li1 O3 1.986266 1_555
Li2 O9 1.946644 1_555
Li2 O4 1.955124 1_555
Li2 O10 1.956078 1_555
Li2 O2 1.975012 1_555
Li3 O8 1.936312 1_555
Li3 O7 1.939149 1_555
Li3 O17 1.954004 1_555
Li3 O15 1.982095 1_555
Li4 O6 1.955228 1_555
Li4 O20 1.959477 1_565
Li4 O18 1.960424 1_555
Li4 O16 1.961720 1_555
Li5 O11 1.948946 1_545
Li5 O12 1.957555 1_555
Li5 O23 1.959641 1_555
Li5 O14 1.975385 1_555
Li6 O24 1.936281 1_555
Li6 O36 1.940478 1_455
Li6 O26 1.940813 1_455
Li6 O13 1.998380 1_555
Li7 O22 1.933572 1_555
Li7 O28 1.935951 1_555
Li7 O19 1.943975 1_555
Li7 O29 1.996004 1_555
Li8 O32 1.954482 1_455
Li8 O21 1.955622 1_555
Li8 O30 1.962371 1_555
Li8 O27 1.983864 1_555
Li9 O35 1.954133 1_665
Li9 O37 1.960413 1_555
Li9 O38 1.968546 1_565
Li9 O25 1.971649 1_555
Mn0 O33 1.935082 1_554
Mn0 O34 1.935664 1_554
Mn0 O3 1.949179 1_555
Mn0 O31 1.950816 1_554
Mn0 O0 1.954444 1_555
Mn0 O1 1.955155 1_555
Mn1 O0 1.942087 1_555
Mn1 O7 1.944551 1_555
Mn1 O3 1.947706 1_555
Mn1 O5 1.948445 1_555
Mn1 O4 1.948761 1_555
Mn1 O15 1.948846 1_455
Mn2 O2 1.941889 1_555
Mn2 O9 1.942237 1_455
Mn2 O6 1.942774 1_555
Mn2 O16 1.943564 1_455
Mn2 O14 1.948362 1_565
Mn2 O17 1.949764 1_455
Mn3 O1 1.943490 1_555
Mn3 O8 1.944645 1_555
Mn3 O4 1.947624 1_555
Mn3 O5 1.948557 1_665
Mn3 O3 1.949006 1_555
Mn3 O15 1.949473 1_565
Mn4 O10 1.932468 1_555
Mn4 O9 1.932921 1_445
Mn4 O2 1.947652 1_545
Mn4 O15 1.950357 1_455
Mn4 O8 1.955408 1_445
Mn4 O7 1.956850 1_555
Mn5 O14 1.940672 1_555
Mn5 O17 1.941582 1_455
Mn5 O6 1.943402 1_555
Mn5 O9 1.944885 1_445
Mn5 O10 1.946655 1_555
Mn5 O20 1.947530 1_455
Mn6 O16 1.942566 1_555
Mn6 O2 1.942610 1_545
Mn6 O10 1.942829 1_555
Mn6 O20 1.943728 1_555
Mn6 O17 1.948230 1_555
Mn6 O14 1.948949 1_555
Mn7 O12 1.936968 1_555
Mn7 O11 1.937292 1_555
Mn7 O13 1.946453 1_555
Mn7 O18 1.947551 1_555
Mn7 O22 1.954645 1_555
Mn7 O28 1.955138 1_565
Mn8 O11 1.938034 1_655
Mn8 O23 1.938533 1_555
Mn8 O13 1.946640 1_655
Mn8 O18 1.947241 1_555
Mn8 O22 1.956288 1_555
Mn8 O19 1.959348 1_665
Mn9 O16 1.936666 1_555
Mn9 O12 1.938828 1_655
Mn9 O11 1.942227 1_655
Mn9 O6 1.943095 1_655
Mn9 O20 1.943470 1_555
Mn9 O23 1.944099 1_555
Mn10 O32 1.938119 1_555
Mn10 O30 1.939217 1_555
Mn10 O25 1.945550 1_555
Mn10 O29 1.947851 1_555
Mn10 O24 1.950850 1_555
Mn10 O26 1.956203 1_555
Mn11 O21 1.937333 1_545
Mn11 O30 1.937461 1_555
Mn11 O25 1.948122 1_445
Mn11 O29 1.949123 1_555
Mn11 O36 1.953486 1_455
Mn11 O26 1.955508 1_445
Mn12 O33 1.943711 1_555
Mn12 O35 1.945741 1_565
Mn12 O27 1.945891 1_555
Mn12 O38 1.946035 1_565
Mn12 O31 1.946315 1_555
Mn12 O39 1.947859 1_565
Mn13 O12 1.935386 1_655
Mn13 O23 1.936174 1_555
Mn13 O18 1.948202 1_545
Mn13 O13 1.948336 1_655
Mn13 O19 1.954272 1_655
Mn13 O28 1.954978 1_555
Mn14 O35 1.942089 1_555
Mn14 O37 1.942869 1_555
Mn14 O33 1.943236 1_555
Mn14 O34 1.943557 1_555
Mn14 O27 1.944015 1_555
Mn14 O39 1.947065 1_555
Mn15 O21 1.939616 1_545
Mn15 O32 1.939868 1_555
Mn15 O25 1.945432 1_545
Mn15 O29 1.947843 1_555
Mn15 O24 1.956453 1_545
Mn15 O36 1.958759 1_555
Mn16 O38 1.940732 1_555
Mn16 O35 1.943856 1_555
Mn16 O37 1.945131 1_555
Mn16 O32 1.945493 1_555
Mn16 O30 1.946909 1_555
Mn16 O21 1.948395 1_545
Mn17 O38 1.943719 1_555
Mn17 O37 1.944912 1_555
Mn17 O34 1.945494 1_655
Mn17 O31 1.946278 1_655
Mn17 O39 1.946740 1_555
Mn17 O27 1.947184 1_655
O0 Ti0 1.986127 1_555
O1 Ti0 1.982274 1_555
O4 Ti0 1.986811 1_555
O5 Ti0 1.987931 1_545
O7 Ti0 1.983340 1_545
O8 Ti0 1.987396 1_655
O19 Ti1 1.983824 1_445
O22 Ti1 1.991318 1_555
O24 Ti1 1.993406 1_555
O26 Ti1 1.984175 1_555
O28 Ti1 1.987314 1_545
O36 Ti1 1.985982 1_545
