# generated using pymatgen
data_Gd3AsO7
_symmetry_space_group_name_H-M   'P 1'
_cell_length_a   7.35617900
_cell_length_b   7.37866000
_cell_length_c   10.54630700
_cell_angle_alpha   90.00000000
_cell_angle_beta   90.00000000
_cell_angle_gamma   90.00000000
_symmetry_Int_Tables_number   1
_chemical_formula_structural   Gd3AsO7
_chemical_formula_sum   'Gd12 As4 O28'
_cell_volume   572.44029506
_cell_formula_units_Z   4
loop_
 _symmetry_equiv_pos_site_id
 _symmetry_equiv_pos_as_xyz
  1  'x, y, z'
loop_
 _atom_site_type_symbol
 _atom_site_label
 _atom_site_symmetry_multiplicity
 _atom_site_fract_x
 _atom_site_fract_y
 _atom_site_fract_z
 _atom_site_occupancy
  Gd  Gd0  1  0.27264600  0.00370600  0.75000000  1
  Gd  Gd1  1  0.45436500  0.25346300  0.02602600  1
  Gd  Gd2  1  0.45436500  0.25346300  0.47397400  1
  Gd  Gd3  1  0.95436500  0.24653700  0.52602600  1
  Gd  Gd4  1  0.95436500  0.24653700  0.97397400  1
  Gd  Gd5  1  0.77264600  0.49629400  0.25000000  1
  Gd  Gd6  1  0.22735400  0.50370600  0.75000000  1
  Gd  Gd7  1  0.04563500  0.75346300  0.02602600  1
  Gd  Gd8  1  0.04563500  0.75346300  0.47397400  1
  Gd  Gd9  1  0.54563500  0.74653700  0.52602600  1
  Gd  Gd10  1  0.54563500  0.74653700  0.97397400  1
  Gd  Gd11  1  0.72735400  0.99629400  0.25000000  1
  As  As0  1  0.25084600  0.00199600  0.25000000  1
  As  As1  1  0.75084600  0.49800400  0.75000000  1
  As  As2  1  0.24915400  0.50199600  0.25000000  1
  As  As3  1  0.74915400  0.99800400  0.75000000  1
  O  O0  1  0.56575600  0.03173700  0.62843100  1
  O  O1  1  0.56575600  0.03173700  0.87156900  1
  O  O2  1  0.07960200  0.03654400  0.12461000  1
  O  O3  1  0.07960200  0.03654400  0.37539000  1
  O  O4  1  0.82748400  0.24746100  0.75000000  1
  O  O5  1  0.22906900  0.25074300  0.61719800  1
  O  O6  1  0.22906900  0.25074300  0.88280200  1
  O  O7  1  0.72906900  0.24925700  0.11719800  1
  O  O8  1  0.72906900  0.24925700  0.38280200  1
  O  O9  1  0.32748400  0.25253900  0.25000000  1
  O  O10  1  0.57960200  0.46345600  0.62461000  1
  O  O11  1  0.57960200  0.46345600  0.87539000  1
  O  O12  1  0.06575600  0.46826300  0.12843100  1
  O  O13  1  0.06575600  0.46826300  0.37156900  1
  O  O14  1  0.93424400  0.53173700  0.62843100  1
  O  O15  1  0.93424400  0.53173700  0.87156900  1
  O  O16  1  0.42039800  0.53654400  0.12461000  1
  O  O17  1  0.42039800  0.53654400  0.37539000  1
  O  O18  1  0.67251600  0.74746100  0.75000000  1
  O  O19  1  0.27093100  0.75074300  0.61719800  1
  O  O20  1  0.27093100  0.75074300  0.88280200  1
  O  O21  1  0.77093100  0.74925700  0.11719800  1
  O  O22  1  0.77093100  0.74925700  0.38280200  1
  O  O23  1  0.17251600  0.75253900  0.25000000  1
  O  O24  1  0.92039800  0.96345600  0.62461000  1
  O  O25  1  0.92039800  0.96345600  0.87539000  1
  O  O26  1  0.43424400  0.96826300  0.12843100  1
  O  O27  1  0.43424400  0.96826300  0.37156900  1
loop_
_geom_bond_atom_site_label_1
_geom_bond_atom_site_label_2
_geom_bond_distance
_geom_bond_site_symmetry_2
Gd0 O5 2.320983 1_555
Gd0 O6 2.320983 1_555
Gd0 O20 2.333599 1_545
Gd0 O19 2.333599 1_545
Gd0 O1 2.517069 1_555
Gd0 O0 2.517069 1_555
Gd0 O24 2.924254 1_445
Gd0 O25 2.924254 1_445
Gd1 O7 2.238083 1_555
Gd1 O6 2.242469 1_554
Gd1 O16 2.346554 1_555
Gd1 O26 2.369973 1_545
Gd1 O11 2.402790 1_554
Gd1 O1 2.449805 1_554
Gd1 O9 2.539826 1_555
Gd2 O8 2.238083 1_555
Gd2 O5 2.242469 1_555
Gd2 O17 2.346554 1_555
Gd2 O27 2.369973 1_545
Gd2 O10 2.402790 1_555
Gd2 O0 2.449805 1_555
Gd2 O9 2.539826 1_555
Gd3 O5 2.238083 1_655
Gd3 O8 2.242469 1_555
Gd3 O24 2.346554 1_545
Gd3 O14 2.369973 1_555
Gd3 O3 2.402790 1_655
Gd3 O13 2.449805 1_655
Gd3 O4 2.539826 1_555
Gd4 O6 2.238083 1_655
Gd4 O7 2.242469 1_556
Gd4 O25 2.346554 1_545
Gd4 O15 2.369973 1_555
Gd4 O2 2.402790 1_656
Gd4 O12 2.449805 1_656
Gd4 O4 2.539826 1_555
Gd5 O7 2.320983 1_555
Gd5 O8 2.320983 1_555
Gd5 O22 2.333599 1_555
Gd5 O21 2.333599 1_555
Gd5 O13 2.517069 1_655
Gd5 O12 2.517069 1_655
Gd5 O16 2.924254 1_555
Gd5 O17 2.924254 1_555
Gd6 O19 2.320983 1_555
Gd6 O20 2.320983 1_555
Gd6 O6 2.333599 1_555
Gd6 O5 2.333599 1_555
Gd6 O15 2.517069 1_455
Gd6 O14 2.517069 1_455
Gd6 O10 2.924254 1_555
Gd6 O11 2.924254 1_555
Gd7 O21 2.238083 1_455
Gd7 O20 2.242469 1_554
Gd7 O2 2.346554 1_565
Gd7 O12 2.369973 1_555
Gd7 O25 2.402790 1_454
Gd7 O15 2.449805 1_454
Gd7 O23 2.539826 1_555
Gd8 O22 2.238083 1_455
Gd8 O19 2.242469 1_555
Gd8 O3 2.346554 1_565
Gd8 O13 2.369973 1_555
Gd8 O24 2.402790 1_455
Gd8 O14 2.449805 1_455
Gd8 O23 2.539826 1_555
Gd9 O19 2.238083 1_555
Gd9 O22 2.242469 1_555
Gd9 O10 2.346554 1_555
Gd9 O0 2.369973 1_565
Gd9 O17 2.402790 1_555
Gd9 O27 2.449805 1_555
Gd9 O18 2.539826 1_555
Gd10 O20 2.238083 1_555
Gd10 O21 2.242469 1_556
Gd10 O11 2.346554 1_555
Gd10 O1 2.369973 1_565
Gd10 O16 2.402790 1_556
Gd10 O26 2.449805 1_556
Gd10 O18 2.539826 1_555
Gd11 O22 2.320983 1_555
Gd11 O21 2.320983 1_555
Gd11 O8 2.333599 1_565
Gd11 O7 2.333599 1_565
Gd11 O26 2.517069 1_555
Gd11 O27 2.517069 1_555
Gd11 O2 2.924254 1_665
Gd11 O3 2.924254 1_665
As0 O2 1.844065 1_555
As0 O3 1.844065 1_555
As0 O27 1.877721 1_545
As0 O26 1.877721 1_545
As0 O23 1.928741 1_545
As0 O9 1.932722 1_555
As1 O10 1.844065 1_555
As1 O11 1.844065 1_555
As1 O15 1.877721 1_555
As1 O14 1.877721 1_555
As1 O18 1.928741 1_555
As1 O4 1.932722 1_555
As2 O16 1.844065 1_555
As2 O17 1.844065 1_555
As2 O13 1.877721 1_555
As2 O12 1.877721 1_555
As2 O9 1.928741 1_555
As2 O23 1.932722 1_555
As3 O24 1.844065 1_555
As3 O25 1.844065 1_555
As3 O1 1.877721 1_565
As3 O0 1.877721 1_565
As3 O4 1.928741 1_565
As3 O18 1.932722 1_555
