# generated using pymatgen
data_Li7V3P8O29
_symmetry_space_group_name_H-M   'P 1'
_cell_length_a   9.82175900
_cell_length_b   9.82788442
_cell_length_c   13.90089537
_cell_angle_alpha   89.82295281
_cell_angle_beta   89.91021213
_cell_angle_gamma   60.05729279
_symmetry_Int_Tables_number   1
_chemical_formula_structural   Li7V3P8O29
_chemical_formula_sum   'Li14 V6 P16 O58'
_cell_volume   1162.70913313
_cell_formula_units_Z   2
loop_
 _symmetry_equiv_pos_site_id
 _symmetry_equiv_pos_as_xyz
  1  'x, y, z'
loop_
 _atom_site_type_symbol
 _atom_site_label
 _atom_site_symmetry_multiplicity
 _atom_site_fract_x
 _atom_site_fract_y
 _atom_site_fract_z
 _atom_site_occupancy
  Li  Li0  1  0.67200700  0.23168500  0.93588800  1
  Li  Li1  1  0.66508500  0.09632400  0.43624100  1
  Li  Li2  1  0.23538500  0.66674800  0.43805800  1
  Li  Li3  1  0.34002200  0.33403600  0.11507200  1
  Li  Li4  1  0.09204500  0.67322200  0.93732900  1
  Li  Li5  1  0.23557500  0.09510600  0.93786300  1
  Li  Li6  1  0.89409000  0.76224400  0.55973800  1
  Li  Li7  1  0.09951900  0.23974000  0.44109600  1
  Li  Li8  1  0.90058600  0.33169400  0.05844700  1
  Li  Li9  1  0.76403500  0.33483100  0.56315300  1
  Li  Li10  1  0.33547200  0.90043000  0.56139600  1
  Li  Li11  1  0.33320000  0.76540500  0.06230100  1
  Li  Li12  1  0.96323800  0.98213400  0.00583000  1
  Li  Li13  1  0.00129300  0.99971300  0.49947100  1
  V  V0  1  0.99948200  0.56633700  0.75189800  1
  V  V1  1  0.99952700  0.43831400  0.24967200  1
  V  V2  1  0.56658300  0.99564000  0.24664900  1
  V  V3  1  0.43727800  0.99864000  0.74969600  1
  V  V4  1  0.56511300  0.43420500  0.75012300  1
  V  V5  1  0.43815800  0.56346600  0.25371500  1
  P  P0  1  0.68589500  0.22181900  0.15726000  1
  P  P1  1  0.68929900  0.08248800  0.65440400  1
  P  P2  1  0.22268000  0.68984000  0.65763600  1
  P  P3  1  0.33078200  0.33235100  0.87359500  1
  P  P4  1  0.33224200  0.32874700  0.37098800  1
  P  P5  1  0.09068800  0.68808500  0.15482700  1
  P  P6  1  0.91383900  0.77547700  0.34083200  1
  P  P7  1  0.22385900  0.09019300  0.15750300  1
  P  P8  1  0.77822000  0.91411800  0.84125900  1
  P  P9  1  0.08895600  0.22683900  0.65811600  1
  P  P10  1  0.91624600  0.31181200  0.84353500  1
  P  P11  1  0.66771900  0.66875100  0.62885300  1
  P  P12  1  0.66936100  0.66584300  0.12834400  1
  P  P13  1  0.77712500  0.31035900  0.34396600  1
  P  P14  1  0.31016000  0.91771500  0.34490500  1
  P  P15  1  0.31186000  0.77545600  0.84222200  1
  O  O0  1  0.78539200  0.21298700  0.43198900  1
  O  O1  1  0.66687900  0.24774800  0.65557900  1
  O  O2  1  0.79508100  0.00666500  0.92156700  1
  O  O3  1  0.66514600  0.07768300  0.15980400  1
  O  O4  1  0.52364000  0.37062300  0.16473900  1
  O  O5  1  0.48630300  0.32215000  0.84009400  1
  O  O6  1  0.37549100  0.53614000  0.66539300  1
  O  O7  1  0.21733600  0.78676200  0.93158800  1
  O  O8  1  0.25531900  0.66840500  0.15858700  1
  O  O9  1  0.48575000  0.18687600  0.32742100  1
  O  O10  1  0.53152700  0.08623100  0.67159900  1
  O  O11  1  0.32297100  0.48469600  0.33742500  1
  O  O12  1  0.31816300  0.33356100  0.98212800  1
  O  O13  1  0.32336800  0.31503100  0.47757000  1
  O  O14  1  0.18806300  0.48968900  0.83320700  1
  O  O15  1  0.37183600  0.10752400  0.17005300  1
  O  O16  1  0.31998500  0.19021300  0.83174300  1
  O  O17  1  0.07744400  0.66564700  0.66053700  1
  O  O18  1  0.99831500  0.79490400  0.24663700  1
  O  O19  1  0.00245100  0.77841200  0.42972600  1
  O  O20  1  0.00635400  0.77158600  0.06434900  1
  O  O21  1  0.10519000  0.52368200  0.16864500  1
  O  O22  1  0.18636000  0.32475500  0.32326400  1
  O  O23  1  0.91867700  0.74346400  0.84275000  1
  O  O24  1  0.08911300  0.38113000  0.66993400  1
  O  O25  1  0.25672200  0.08247700  0.65699700  1
  O  O26  1  0.80265400  0.98710200  0.74215100  1
  O  O27  1  0.77123600  0.99561500  0.56300900  1
  O  O28  1  0.21892800  0.00903900  0.43344000  1
  O  O29  1  0.74716800  0.91852600  0.34124700  1
  O  O30  1  0.91333700  0.61990500  0.33124500  1
  O  O31  1  0.07762500  0.25520600  0.15448300  1
  O  O32  1  0.80924300  0.68065200  0.67309700  1
  O  O33  1  0.91222400  0.46960500  0.82775500  1
  O  O34  1  0.00638200  0.22816200  0.93337700  1
  O  O35  1  0.99971300  0.22285000  0.56971700  1
  O  O36  1  0.00502900  0.20299500  0.75154700  1
  O  O37  1  0.92323400  0.33052600  0.34220300  1
  O  O38  1  0.66751800  0.81246600  0.17606100  1
  O  O39  1  0.62006900  0.92040300  0.83429100  1
  O  O40  1  0.81810400  0.51568700  0.17450200  1
  O  O41  1  0.68707700  0.65728400  0.02192500  1
  O  O42  1  0.66652700  0.68504900  0.52169900  1
  O  O43  1  0.67878200  0.51274900  0.66329100  1
  O  O44  1  0.46463000  0.91858000  0.33184000  1
  O  O45  1  0.51033400  0.81147500  0.67169900  1
  O  O46  1  0.75137800  0.33324400  0.84395700  1
  O  O47  1  0.79216200  0.20806800  0.24935700  1
  O  O48  1  0.77968100  0.21819000  0.06858100  1
  O  O49  1  0.62529800  0.46658700  0.33693800  1
  O  O50  1  0.51913700  0.66871000  0.16484500  1
  O  O51  1  0.46614800  0.62401900  0.83315400  1
  O  O52  1  0.33557600  0.92109100  0.83821200  1
  O  O53  1  0.23312500  0.99653300  0.06917000  1
  O  O54  1  0.20343100  0.00491800  0.25069700  1
  O  O55  1  0.33180800  0.75297500  0.34671900  1
  O  O56  1  0.20952600  0.78727400  0.56866300  1
  O  O57  1  0.20118000  0.79810900  0.75019200  1
loop_
_geom_bond_atom_site_label_1
_geom_bond_atom_site_label_2
_geom_bond_distance
_geom_bond_site_symmetry_2
Li0 O2 1.929975 1_555
Li0 O46 2.000691 1_555
Li0 O5 2.066861 1_555
Li0 O48 2.098322 1_556
Li1 O29 2.012869 1_545
Li1 O0 2.016463 1_555
Li1 O27 2.033907 1_545
Li1 O9 2.148939 1_555
Li2 O19 1.986345 1_555
Li2 O55 2.004468 1_555
Li2 O11 2.091249 1_555
Li2 O56 2.115477 1_555
Li3 O12 1.861093 1_554
Li3 O4 2.123956 1_555
Li3 O15 2.221099 1_555
Li3 O21 2.249445 1_555
Li4 O23 1.983053 1_455
Li4 O20 1.988525 1_556
Li4 O7 2.033653 1_555
Li4 O14 2.133435 1_555
Li5 O34 1.960257 1_555
Li5 O52 2.035168 1_545
Li5 O53 2.069530 1_546
Li5 O16 2.120925 1_555
Li6 O27 1.989013 1_555
Li6 O17 2.097788 1_655
Li6 O32 2.115597 1_555
Li6 O19 2.141323 1_655
Li7 O28 1.968264 1_555
Li7 O37 2.035055 1_455
Li7 O35 2.083350 1_455
Li7 O22 2.192509 1_555
Li8 O48 1.998805 1_555
Li8 O31 2.016690 1_655
Li8 O34 2.021765 1_654
Li8 O40 2.253953 1_555
Li9 O35 2.008642 1_555
Li9 O1 2.024449 1_555
Li9 O43 2.060599 1_555
Li9 O0 2.136326 1_555
Li10 O56 2.036989 1_555
Li10 O25 2.048261 1_565
Li10 O28 2.094835 1_565
Li10 O45 2.136840 1_555
Li11 O53 1.976657 1_555
Li11 O8 2.000559 1_555
Li11 O7 2.099129 1_554
Li11 O50 2.130124 1_555
Li12 O2 1.940294 1_564
Li12 O20 2.058821 1_655
Li12 O48 2.285954 1_565
Li12 O7 2.490147 1_654
Li13 O56 2.279943 1_555
Li13 O0 2.308037 1_465
Li13 O28 2.368330 1_565
Li13 O19 2.378797 1_555
Li13 O35 2.396261 1_465
Li13 O27 2.443712 1_455
O0 P13 1.528093 1_555
O1 P1 1.526357 1_555
O1 V4 2.065575 1_555
O2 P8 1.502715 1_545
O3 P0 1.528807 1_555
O3 V2 1.952996 1_545
O4 P0 1.537221 1_555
O4 V5 2.061406 1_555
O5 P3 1.550914 1_555
O5 V4 2.053180 1_555
O6 P2 1.510724 1_555
O6 V4 1.999131 1_555
O7 P15 1.520443 1_555
O8 P5 1.530595 1_555
O8 V5 2.046301 1_555
O9 P4 1.577289 1_555
O9 V2 1.985954 1_545
O10 P1 1.549752 1_555
O10 V3 1.887609 1_545
O11 P4 1.559287 1_555
O11 V5 2.024327 1_555
O12 P3 1.513192 1_555
O13 P4 1.493637 1_555
O14 P3 1.582555 1_555
O14 V0 1.970802 1_455
O15 P7 1.555604 1_555
O15 V2 1.975090 1_545
O16 P3 1.566583 1_555
O16 V3 2.004162 1_545
O17 P2 1.559270 1_555
O17 V0 1.971591 1_455
O18 P6 1.610144 1_555
O18 P5 1.614888 1_655
O19 P6 1.521158 1_455
O20 P5 1.503242 1_555
O21 P5 1.560836 1_555
O21 V1 1.977186 1_455
O22 P4 1.598083 1_555
O22 V1 1.901001 1_455
O23 P8 1.551325 1_555
O23 V0 1.971409 1_555
O24 P9 1.526498 1_555
O24 V0 1.948418 1_455
O25 P9 1.547442 1_555
O25 V3 2.006541 1_545
O26 P1 1.600455 1_565
O26 P8 1.623208 1_555
O27 P1 1.519303 1_565
O28 P14 1.524355 1_545
O29 P6 1.535863 1_555
O29 V2 2.027002 1_555
O30 P6 1.537609 1_555
O30 V1 1.920618 1_555
O31 P7 1.539223 1_555
O31 V1 2.052135 1_455
O32 P11 1.577816 1_555
O32 V0 1.963819 1_555
O33 P10 1.546396 1_555
O33 V0 1.885341 1_555
O34 P10 1.513238 1_455
O35 P9 1.522438 1_655
O36 P9 1.615182 1_555
O36 P10 1.616547 1_455
O37 P13 1.543709 1_555
O37 V1 2.029561 1_555
O38 P12 1.580063 1_555
O38 V2 1.847346 1_555
O39 P8 1.526649 1_555
O39 V3 1.954547 1_555
O40 P12 1.602697 1_555
O40 V1 1.869103 1_555
O41 P12 1.486973 1_555
O42 P11 1.497071 1_555
O43 P11 1.555928 1_555
O43 V4 2.037044 1_555
O44 P14 1.531945 1_555
O44 V2 1.930407 1_555
O45 P11 1.596717 1_555
O45 V3 1.940681 1_555
O46 P10 1.525125 1_555
O46 V4 2.054312 1_555
O47 P0 1.615220 1_555
O47 P13 1.619078 1_555
O48 P0 1.527510 1_555
O49 P13 1.518084 1_555
O49 V5 1.968793 1_555
O50 P12 1.546441 1_555
O50 V5 2.009682 1_555
O51 P15 1.508787 1_555
O51 V4 1.989132 1_555
O52 P15 1.561480 1_555
O52 V3 1.960355 1_555
O53 P7 1.512062 1_565
O54 P7 1.606619 1_555
O54 P14 1.627536 1_545
O55 P14 1.524228 1_555
O55 V5 2.073618 1_555
O56 P2 1.527416 1_555
O57 P2 1.617244 1_555
O57 P15 1.621388 1_555
