# generated using pymatgen
data_H6PtN2ClO5
_symmetry_space_group_name_H-M   'P 1'
_cell_length_a   7.43566000
_cell_length_b   13.10220900
_cell_length_c   14.18420000
_cell_angle_alpha   90.00000000
_cell_angle_beta   90.00000000
_cell_angle_gamma   90.00000000
_symmetry_Int_Tables_number   1
_chemical_formula_structural   H6PtN2ClO5
_chemical_formula_sum   'H48 Pt8 N16 Cl8 O40'
_cell_volume   1381.87542107
_cell_formula_units_Z   8
loop_
 _symmetry_equiv_pos_site_id
 _symmetry_equiv_pos_as_xyz
  1  'x, y, z'
loop_
 _atom_site_type_symbol
 _atom_site_label
 _atom_site_symmetry_multiplicity
 _atom_site_fract_x
 _atom_site_fract_y
 _atom_site_fract_z
 _atom_site_occupancy
  H  H0  1  0.93591400  0.83782800  0.64246900  1
  H  H1  1  0.56408600  0.16217200  0.14246900  1
  H  H2  1  0.43591400  0.66217200  0.35753100  1
  H  H3  1  0.06408600  0.33782800  0.85753100  1
  H  H4  1  0.13415300  0.89640600  0.63692600  1
  H  H5  1  0.36584700  0.10359400  0.13692600  1
  H  H6  1  0.63415300  0.60359400  0.36307400  1
  H  H7  1  0.86584700  0.39640600  0.86307400  1
  H  H8  1  0.11588500  0.78680800  0.69488000  1
  H  H9  1  0.38411500  0.21319200  0.19488000  1
  H  H10  1  0.61588500  0.71319200  0.30512000  1
  H  H11  1  0.88411500  0.28680800  0.80512000  1
  H  H12  1  0.95200200  0.88827700  0.42532700  1
  H  H13  1  0.54799800  0.11172300  0.92532700  1
  H  H14  1  0.45200200  0.61172300  0.57467300  1
  H  H15  1  0.04799800  0.38827700  0.07467300  1
  H  H16  1  0.15144300  0.87239400  0.37371500  1
  H  H17  1  0.34855700  0.12760600  0.87371500  1
  H  H18  1  0.65144300  0.62760600  0.62628500  1
  H  H19  1  0.84855700  0.37239400  0.12628500  1
  H  H20  1  0.13438200  0.94030700  0.47250800  1
  H  H21  1  0.36561800  0.05969300  0.97250800  1
  H  H22  1  0.63438200  0.55969300  0.52749200  1
  H  H23  1  0.86561800  0.44030700  0.02749200  1
  H  H24  1  0.19923800  0.35570200  0.55850000  1
  H  H25  1  0.30076200  0.64429800  0.05850000  1
  H  H26  1  0.69923800  0.14429800  0.44150000  1
  H  H27  1  0.80076200  0.85570200  0.94150000  1
  H  H28  1  0.99324500  0.34568300  0.51557600  1
  H  H29  1  0.50675500  0.65431700  0.01557600  1
  H  H30  1  0.49324500  0.15431700  0.48442400  1
  H  H31  1  0.00675500  0.84568300  0.98442400  1
  H  H32  1  0.02921200  0.41274600  0.61292400  1
  H  H33  1  0.47078800  0.58725400  0.11292400  1
  H  H34  1  0.52921200  0.08725400  0.38707600  1
  H  H35  1  0.97078800  0.91274600  0.88707600  1
  H  H36  1  0.18084800  0.38611700  0.34086000  1
  H  H37  1  0.31915200  0.61388300  0.84086000  1
  H  H38  1  0.68084800  0.11388300  0.65914000  1
  H  H39  1  0.81915200  0.88611700  0.15914000  1
  H  H40  1  0.08630400  0.48816100  0.29010200  1
  H  H41  1  0.41369600  0.51183900  0.79010200  1
  H  H42  1  0.58630400  0.01183900  0.70989800  1
  H  H43  1  0.91369600  0.98816100  0.20989800  1
  H  H44  1  0.96030600  0.40503100  0.35089100  1
  H  H45  1  0.53969400  0.59496900  0.85089100  1
  H  H46  1  0.46030600  0.09496900  0.64910900  1
  H  H47  1  0.03969400  0.90503100  0.14910900  1
  Pt  Pt0  1  0.12834800  0.74436000  0.51450400  1
  Pt  Pt1  1  0.37165200  0.25564000  0.01450400  1
  Pt  Pt2  1  0.62834800  0.75564000  0.48549600  1
  Pt  Pt3  1  0.87165200  0.24436000  0.98549600  1
  Pt  Pt4  1  0.12949700  0.52486300  0.46968200  1
  Pt  Pt5  1  0.37050300  0.47513700  0.96968200  1
  Pt  Pt6  1  0.62949700  0.97513700  0.53031800  1
  Pt  Pt7  1  0.87050300  0.02486300  0.03031800  1
  N  N0  1  0.07306800  0.82596000  0.63637100  1
  N  N1  1  0.42693200  0.17404000  0.13637100  1
  N  N2  1  0.57306800  0.67404000  0.36362900  1
  N  N3  1  0.92693200  0.32596000  0.86362900  1
  N  N4  1  0.08759100  0.87681200  0.43795900  1
  N  N5  1  0.41240900  0.12318800  0.93795900  1
  N  N6  1  0.58759100  0.62318800  0.56204100  1
  N  N7  1  0.91240900  0.37681200  0.06204100  1
  N  N8  1  0.08113800  0.39480300  0.54801400  1
  N  N9  1  0.41886200  0.60519700  0.04801400  1
  N  N10  1  0.58113800  0.10519700  0.45198600  1
  N  N11  1  0.91886200  0.89480300  0.95198600  1
  N  N12  1  0.08335000  0.44121000  0.34855500  1
  N  N13  1  0.41665000  0.55879000  0.84855500  1
  N  N14  1  0.58335000  0.05879000  0.65144500  1
  N  N15  1  0.91665000  0.94121000  0.15144500  1
  Cl  Cl0  1  0.92977600  0.61287000  0.81150300  1
  Cl  Cl1  1  0.57022400  0.38713000  0.31150300  1
  Cl  Cl2  1  0.42977600  0.88713000  0.18849700  1
  Cl  Cl3  1  0.07022400  0.11287000  0.68849700  1
  Cl  Cl4  1  0.94593300  0.64892300  0.16648800  1
  Cl  Cl5  1  0.55406700  0.35107700  0.66648800  1
  Cl  Cl6  1  0.44593300  0.85107700  0.83351200  1
  Cl  Cl7  1  0.05406700  0.14892300  0.33351200  1
  O  O0  1  0.17834100  0.61449700  0.57803800  1
  O  O1  1  0.32165900  0.38550300  0.07803800  1
  O  O2  1  0.67834100  0.88550300  0.42196200  1
  O  O3  1  0.82165900  0.11449700  0.92196200  1
  O  O4  1  0.17465700  0.65487800  0.40524800  1
  O  O5  1  0.32534300  0.34512200  0.90524800  1
  O  O6  1  0.67465700  0.84512200  0.59475200  1
  O  O7  1  0.82534300  0.15487800  0.09475200  1
  O  O8  1  0.83545100  0.55884200  0.88861400  1
  O  O9  1  0.66454900  0.44115800  0.38861400  1
  O  O10  1  0.33545100  0.94115800  0.11138600  1
  O  O11  1  0.16454900  0.05884200  0.61138600  1
  O  O12  1  0.03398400  0.53963300  0.75701500  1
  O  O13  1  0.46601600  0.46036700  0.25701500  1
  O  O14  1  0.53398400  0.96036700  0.24298500  1
  O  O15  1  0.96601600  0.03963300  0.74298500  1
  O  O16  1  0.79565700  0.66360500  0.75186600  1
  O  O17  1  0.70434300  0.33639500  0.25186600  1
  O  O18  1  0.29565700  0.83639500  0.24813400  1
  O  O19  1  0.20434300  0.16360500  0.74813400  1
  O  O20  1  0.05018100  0.68998500  0.85124600  1
  O  O21  1  0.44981900  0.31001500  0.35124600  1
  O  O22  1  0.55018100  0.81001500  0.14875400  1
  O  O23  1  0.94981900  0.18998500  0.64875400  1
  O  O24  1  0.98432600  0.71488600  0.08568800  1
  O  O25  1  0.51567400  0.28511400  0.58568800  1
  O  O26  1  0.48432600  0.78511400  0.91431200  1
  O  O27  1  0.01567400  0.21488600  0.41431200  1
  O  O28  1  0.91966400  0.71034700  0.25104100  1
  O  O29  1  0.58033600  0.28965300  0.75104100  1
  O  O30  1  0.41966400  0.78965300  0.74895900  1
  O  O31  1  0.08033600  0.21034700  0.24895900  1
  O  O32  1  0.09896100  0.57898400  0.17925100  1
  O  O33  1  0.40103900  0.42101600  0.67925100  1
  O  O34  1  0.59896100  0.92101600  0.82074900  1
  O  O35  1  0.90103900  0.07898400  0.32074900  1
  O  O36  1  0.78415600  0.58813400  0.14840600  1
  O  O37  1  0.71584400  0.41186600  0.64840600  1
  O  O38  1  0.28415600  0.91186600  0.85159400  1
  O  O39  1  0.21584400  0.08813400  0.35159400  1
loop_
_geom_bond_atom_site_label_1
_geom_bond_atom_site_label_2
_geom_bond_distance
_geom_bond_site_symmetry_2
H0 N0 1.035237 1_655
H1 N1 1.035237 1_555
H2 N2 1.035237 1_555
H3 N3 1.035237 1_455
H4 N0 1.028733 1_555
H5 N1 1.028733 1_555
H6 N2 1.028733 1_555
H7 N3 1.028733 1_555
H8 N0 1.026278 1_555
H9 N1 1.026278 1_555
H10 N2 1.026278 1_555
H11 N3 1.026278 1_555
H12 N4 1.034951 1_655
H13 N5 1.034951 1_555
H14 N6 1.034951 1_555
H15 N7 1.034951 1_455
H16 N4 1.029147 1_555
H17 N5 1.029147 1_555
H18 N6 1.029147 1_555
H19 N7 1.029147 1_555
H20 N4 1.026303 1_555
H21 N5 1.026303 1_555
H22 N6 1.026303 1_555
H23 N7 1.026303 1_555
H24 N8 1.027489 1_555
H25 N9 1.027489 1_555
H26 N10 1.027489 1_555
H27 N11 1.027489 1_555
H28 N8 1.026164 1_655
H29 N9 1.026164 1_555
H30 N10 1.026164 1_555
H31 N11 1.026164 1_455
H32 N8 1.025684 1_555
H33 N9 1.025684 1_555
H34 N10 1.025684 1_555
H35 N11 1.025684 1_555
H36 N12 1.028852 1_555
H37 N13 1.028852 1_555
H38 N14 1.028852 1_555
H39 N15 1.028852 1_555
H40 N12 1.032632 1_555
H41 N13 1.032632 1_555
H42 N14 1.032632 1_555
H43 N15 1.032632 1_555
H44 N12 1.030953 1_655
H45 N13 1.030953 1_555
H46 N14 1.030953 1_555
H47 N15 1.030953 1_455
N0 Pt0 2.073651 1_555
N1 Pt1 2.073651 1_555
N2 Pt2 2.073651 1_555
N3 Pt3 2.073651 1_555
N4 Pt0 2.069375 1_555
N5 Pt1 2.069375 1_556
N6 Pt2 2.069375 1_555
N7 Pt3 2.069375 1_554
N8 Pt4 2.065831 1_555
N9 Pt5 2.065831 1_554
N10 Pt6 2.065831 1_545
N11 Pt7 2.065831 1_566
N12 Pt4 2.066609 1_555
N13 Pt5 2.066609 1_555
N14 Pt6 2.066609 1_545
N15 Pt7 2.066609 1_565
Cl0 O12 1.455505 1_655
Cl0 O20 1.462939 1_655
Cl0 O16 1.466958 1_555
Cl0 O8 1.479637 1_555
Cl1 O13 1.455505 1_555
Cl1 O21 1.462939 1_555
Cl1 O17 1.466958 1_555
Cl1 O9 1.479637 1_555
Cl2 O14 1.455505 1_555
Cl2 O22 1.462939 1_555
Cl2 O18 1.466958 1_555
Cl2 O10 1.479637 1_555
Cl3 O15 1.455505 1_455
Cl3 O23 1.462939 1_455
Cl3 O19 1.466958 1_555
Cl3 O11 1.479637 1_555
Cl4 O28 1.457464 1_555
Cl4 O24 1.463541 1_555
Cl4 O36 1.465319 1_555
Cl4 O32 1.472146 1_655
Cl5 O29 1.457464 1_555
Cl5 O25 1.463541 1_555
Cl5 O37 1.465319 1_555
Cl5 O33 1.472146 1_555
Cl6 O30 1.457464 1_555
Cl6 O26 1.463541 1_555
Cl6 O38 1.465319 1_555
Cl6 O34 1.472146 1_555
Cl7 O31 1.457464 1_555
Cl7 O27 1.463541 1_555
Cl7 O39 1.465319 1_555
Cl7 O35 1.472146 1_455
O0 Pt0 1.960965 1_555
O0 Pt4 1.968076 1_555
O1 Pt1 1.960965 1_555
O1 Pt5 1.968076 1_554
O2 Pt2 1.960965 1_555
O2 Pt6 1.968076 1_555
O3 Pt3 1.960965 1_555
O3 Pt7 1.968076 1_556
O4 Pt4 1.962119 1_555
O4 Pt0 1.973504 1_555
O5 Pt5 1.962119 1_555
O5 Pt1 1.973504 1_556
O6 Pt6 1.962119 1_555
O6 Pt2 1.973504 1_555
O7 Pt7 1.962119 1_555
O7 Pt3 1.973504 1_554
