# generated using pymatgen
data_MgB3H15O13
_symmetry_space_group_name_H-M   'P 1'
_cell_length_a   13.16383700
_cell_length_b   6.84912200
_cell_length_c   12.10909732
_cell_angle_alpha   75.35854467
_cell_angle_beta   90.00000000
_cell_angle_gamma   90.00000000
_symmetry_Int_Tables_number   1
_chemical_formula_structural   MgB3H15O13
_chemical_formula_sum   'Mg4 B12 H60 O52'
_cell_volume   1056.31161073
_cell_formula_units_Z   4
loop_
 _symmetry_equiv_pos_site_id
 _symmetry_equiv_pos_as_xyz
  1  'x, y, z'
loop_
 _atom_site_type_symbol
 _atom_site_label
 _atom_site_symmetry_multiplicity
 _atom_site_fract_x
 _atom_site_fract_y
 _atom_site_fract_z
 _atom_site_occupancy
  Mg  Mg0  1  0.71544100  0.74565100  0.61662000  1
  Mg  Mg1  1  0.21544100  0.25434900  0.88338000  1
  Mg  Mg2  1  0.28455900  0.25434900  0.38338000  1
  Mg  Mg3  1  0.78455900  0.74565100  0.11662000  1
  B  B0  1  0.61812300  0.40028000  0.81429200  1
  B  B1  1  0.11812300  0.59972000  0.68570800  1
  B  B2  1  0.38187700  0.59972000  0.18570800  1
  B  B3  1  0.88187700  0.40028000  0.31429200  1
  B  B4  1  0.48602700  0.62069400  0.69238000  1
  B  B5  1  0.98602700  0.37930600  0.80762000  1
  B  B6  1  0.51397300  0.37930600  0.30762000  1
  B  B7  1  0.01397300  0.62069400  0.19238000  1
  B  B8  1  0.51631500  0.27757500  0.66951900  1
  B  B9  1  0.01631500  0.72242500  0.83048100  1
  B  B10  1  0.48368500  0.72242500  0.33048100  1
  B  B11  1  0.98368500  0.27757500  0.16951900  1
  H  H0  1  0.58864700  0.26131900  0.98567700  1
  H  H1  1  0.08864700  0.73868100  0.51432300  1
  H  H2  1  0.41135300  0.73868100  0.01432300  1
  H  H3  1  0.91135300  0.26131900  0.48567700  1
  H  H4  1  0.77194500  0.41787000  0.77158700  1
  H  H5  1  0.27194500  0.58213000  0.72841300  1
  H  H6  1  0.22805500  0.58213000  0.22841300  1
  H  H7  1  0.72805500  0.41787000  0.27158700  1
  H  H8  1  0.39037800  0.80718900  0.75394700  1
  H  H9  1  0.89037800  0.19281100  0.74605300  1
  H  H10  1  0.60962200  0.19281100  0.24605300  1
  H  H11  1  0.10962200  0.80718900  0.25394700  1
  H  H12  1  0.52711700  0.00485200  0.62478800  1
  H  H13  1  0.02711700  0.99514800  0.87521200  1
  H  H14  1  0.47288300  0.99514800  0.37521200  1
  H  H15  1  0.97288300  0.00485200  0.12478800  1
  H  H16  1  0.53528100  0.78986500  0.53576000  1
  H  H17  1  0.03528100  0.21013500  0.96424000  1
  H  H18  1  0.46471900  0.21013500  0.46424000  1
  H  H19  1  0.96471900  0.78986500  0.03576000  1
  H  H20  1  0.75802700  0.49165100  0.47405900  1
  H  H21  1  0.25802700  0.50834900  0.02594100  1
  H  H22  1  0.24197300  0.50834900  0.52594100  1
  H  H23  1  0.74197300  0.49165100  0.97405900  1
  H  H24  1  0.64230800  0.55585400  0.44797000  1
  H  H25  1  0.14230800  0.44414600  0.05203000  1
  H  H26  1  0.35769200  0.44414600  0.55203000  1
  H  H27  1  0.85769200  0.55585400  0.94797000  1
  H  H28  1  0.76904500  0.12180100  0.47063500  1
  H  H29  1  0.26904500  0.87819900  0.02936500  1
  H  H30  1  0.23095500  0.87819900  0.52936500  1
  H  H31  1  0.73095500  0.12180100  0.97063500  1
  H  H32  1  0.66269900  0.06747800  0.43045100  1
  H  H33  1  0.16269900  0.93252200  0.06954900  1
  H  H34  1  0.33730100  0.93252200  0.56954900  1
  H  H35  1  0.83730100  0.06747800  0.93045100  1
  H  H36  1  0.91642500  0.61445000  0.64187200  1
  H  H37  1  0.41642500  0.38555000  0.85812800  1
  H  H38  1  0.08357500  0.38555000  0.35812800  1
  H  H39  1  0.58357500  0.61445000  0.14187200  1
  H  H40  1  0.90442200  0.78297800  0.52898400  1
  H  H41  1  0.40442200  0.21702200  0.97101600  1
  H  H42  1  0.09557800  0.21702200  0.47101600  1
  H  H43  1  0.59557800  0.78297800  0.02898400  1
  H  H44  1  0.68591300  0.04561200  0.73836500  1
  H  H45  1  0.18591300  0.95438800  0.76163500  1
  H  H46  1  0.31408700  0.95438800  0.26163500  1
  H  H47  1  0.81408700  0.04561200  0.23836500  1
  H  H48  1  0.74653100  0.86258500  0.81308700  1
  H  H49  1  0.24653100  0.13741500  0.68691300  1
  H  H50  1  0.25346900  0.13741500  0.18691300  1
  H  H51  1  0.75346900  0.86258500  0.31308700  1
  H  H52  1  0.53455800  0.97433400  0.86415800  1
  H  H53  1  0.03455800  0.02566600  0.63584200  1
  H  H54  1  0.46544200  0.02566600  0.13584200  1
  H  H55  1  0.96544200  0.97433400  0.36415800  1
  H  H56  1  0.53352400  0.73498000  0.87032400  1
  H  H57  1  0.03352400  0.26502000  0.62967600  1
  H  H58  1  0.46647600  0.26502000  0.12967600  1
  H  H59  1  0.96647600  0.73498000  0.37032400  1
  O  O0  1  0.64619200  0.31388700  0.93481400  1
  O  O1  1  0.14619200  0.68611300  0.56518600  1
  O  O2  1  0.35380800  0.68611300  0.06518600  1
  O  O3  1  0.85380800  0.31388700  0.43481400  1
  O  O4  1  0.70895400  0.49987700  0.75446400  1
  O  O5  1  0.20895400  0.50012300  0.74553600  1
  O  O6  1  0.29104600  0.50012300  0.24553600  1
  O  O7  1  0.79104600  0.49987700  0.25446400  1
  O  O8  1  0.58452200  0.23126100  0.75915400  1
  O  O9  1  0.08452200  0.76873900  0.74084600  1
  O  O10  1  0.41547800  0.76873900  0.24084600  1
  O  O11  1  0.91547800  0.23126100  0.25915400  1
  O  O12  1  0.53312900  0.54443900  0.80426900  1
  O  O13  1  0.03312900  0.45556100  0.69573100  1
  O  O14  1  0.46687100  0.45556100  0.19573100  1
  O  O15  1  0.96687100  0.54443900  0.30426900  1
  O  O16  1  0.38689600  0.71936000  0.70220200  1
  O  O17  1  0.88689600  0.28064000  0.79779800  1
  O  O18  1  0.61310400  0.28064000  0.29779800  1
  O  O19  1  0.11310400  0.71936000  0.20220200  1
  O  O20  1  0.46526400  0.45737300  0.63632600  1
  O  O21  1  0.96526400  0.54262700  0.86367400  1
  O  O22  1  0.53473600  0.54262700  0.36367400  1
  O  O23  1  0.03473600  0.45737300  0.13632600  1
  O  O24  1  0.49250900  0.13934800  0.60788700  1
  O  O25  1  0.99250900  0.86065200  0.89211300  1
  O  O26  1  0.50749100  0.86065200  0.39211300  1
  O  O27  1  0.00749100  0.13934800  0.10788700  1
  O  O28  1  0.55694300  0.77069900  0.61675800  1
  O  O29  1  0.05694300  0.22930100  0.88324200  1
  O  O30  1  0.44305700  0.22930100  0.38324200  1
  O  O31  1  0.94305700  0.77069900  0.11675800  1
  O  O32  1  0.70397600  0.58054400  0.48984400  1
  O  O33  1  0.20397600  0.41945600  0.01015600  1
  O  O34  1  0.29602400  0.41945600  0.51015600  1
  O  O35  1  0.79602400  0.58054400  0.98984400  1
  O  O36  1  0.71719900  0.01130700  0.48473400  1
  O  O37  1  0.21719900  0.98869300  0.01526600  1
  O  O38  1  0.28280100  0.98869300  0.51526600  1
  O  O39  1  0.78280100  0.01130700  0.98473400  1
  O  O40  1  0.87001400  0.72355500  0.60339300  1
  O  O41  1  0.37001400  0.27644500  0.89660700  1
  O  O42  1  0.12998600  0.27644500  0.39660700  1
  O  O43  1  0.62998600  0.72355500  0.10339300  1
  O  O44  1  0.73382600  0.93692700  0.73398000  1
  O  O45  1  0.23382600  0.06307300  0.76602000  1
  O  O46  1  0.26617400  0.06307300  0.26602000  1
  O  O47  1  0.76617400  0.93692700  0.23398000  1
  O  O48  1  0.51891100  0.83961700  0.91366400  1
  O  O49  1  0.01891100  0.16038300  0.58633600  1
  O  O50  1  0.48108900  0.16038300  0.08633600  1
  O  O51  1  0.98108900  0.83961700  0.41366400  1
loop_
_geom_bond_atom_site_label_1
_geom_bond_atom_site_label_2
_geom_bond_distance
_geom_bond_site_symmetry_2
Mg0 O40 2.049662 1_555
Mg0 O4 2.050995 1_555
Mg0 O28 2.093518 1_555
Mg0 O36 2.095861 1_565
Mg0 O32 2.129754 1_555
Mg0 O44 2.176156 1_555
Mg1 O41 2.049662 1_555
Mg1 O5 2.050995 1_555
Mg1 O29 2.093518 1_555
Mg1 O37 2.095861 1_546
Mg1 O33 2.129754 1_556
Mg1 O45 2.176156 1_555
Mg2 O42 2.049662 1_555
Mg2 O6 2.050995 1_555
Mg2 O30 2.093518 1_555
Mg2 O38 2.095861 1_545
Mg2 O34 2.129754 1_555
Mg2 O46 2.176156 1_555
Mg3 O43 2.049662 1_555
Mg3 O7 2.050995 1_555
Mg3 O31 2.093518 1_555
Mg3 O39 2.095861 1_564
Mg3 O35 2.129754 1_554
Mg3 O47 2.176156 1_555
B0 O4 1.473094 1_555
B0 O0 1.476475 1_555
B0 O12 1.476771 1_555
B0 O8 1.540221 1_555
B1 O5 1.473094 1_555
B1 O1 1.476475 1_555
B1 O13 1.476771 1_555
B1 O9 1.540221 1_555
B2 O6 1.473094 1_555
B2 O2 1.476475 1_555
B2 O14 1.476771 1_555
B2 O10 1.540221 1_555
B3 O7 1.473094 1_555
B3 O3 1.476475 1_555
B3 O15 1.476771 1_555
B3 O11 1.540221 1_555
B4 O12 1.461227 1_555
B4 O20 1.473276 1_555
B4 O16 1.488062 1_555
B4 O28 1.513257 1_555
B5 O13 1.461227 1_655
B5 O21 1.473276 1_555
B5 O17 1.488062 1_555
B5 O29 1.513257 1_655
B6 O14 1.461227 1_555
B6 O22 1.473276 1_555
B6 O18 1.488062 1_555
B6 O30 1.513257 1_555
B7 O15 1.461227 1_455
B7 O23 1.473276 1_555
B7 O19 1.488062 1_555
B7 O31 1.513257 1_455
B8 O20 1.370926 1_555
B8 O24 1.381549 1_555
B8 O8 1.382324 1_555
B9 O21 1.370926 1_455
B9 O25 1.381549 1_455
B9 O9 1.382324 1_555
B10 O22 1.370926 1_555
B10 O26 1.381549 1_555
B10 O10 1.382324 1_555
B11 O23 1.370926 1_655
B11 O27 1.381549 1_655
B11 O11 1.382324 1_555
H0 O0 0.985237 1_555
H1 O1 0.985237 1_555
H2 O2 0.985237 1_555
H3 O3 0.985237 1_555
H4 O4 0.993566 1_555
H5 O5 0.993566 1_555
H6 O6 0.993566 1_555
H7 O7 0.993566 1_555
H8 O16 0.973203 1_555
H9 O17 0.973203 1_555
H10 O18 0.973203 1_555
H11 O19 0.973203 1_555
H12 O24 1.001348 1_555
H12 O28 1.677627 1_545
H13 O25 1.001348 1_455
H13 O29 1.677627 1_565
H14 O26 1.001348 1_555
H14 O30 1.677627 1_565
H15 O27 1.001348 1_655
H15 O31 1.677627 1_545
H16 O28 0.997722 1_555
H17 O29 0.997722 1_555
H18 O30 0.997722 1_555
H19 O31 0.997722 1_555
H20 O32 0.986058 1_555
H21 O33 0.986058 1_555
H22 O34 0.986058 1_555
H23 O35 0.986058 1_555
H24 O32 0.994007 1_555
H25 O33 0.994007 1_555
H26 O34 0.994007 1_555
H27 O35 0.994007 1_555
H28 O36 1.001175 1_555
H29 O37 1.001175 1_555
H30 O38 1.001175 1_555
H31 O39 1.001175 1_555
H32 O36 0.983331 1_555
H33 O37 0.983331 1_555
H34 O38 0.983331 1_555
H35 O39 0.983331 1_555
H36 O40 0.986284 1_555
H37 O41 0.986284 1_555
H38 O42 0.986284 1_555
H39 O43 0.986284 1_555
H40 O40 0.998629 1_555
H41 O41 0.998629 1_555
H42 O42 0.998629 1_555
H43 O43 0.998629 1_555
H44 O44 0.987286 1_545
H45 O45 0.987286 1_565
H46 O46 0.987286 1_565
H47 O47 0.987286 1_545
H48 O44 0.978906 1_555
H49 O45 0.978906 1_555
H50 O46 0.978906 1_555
H51 O47 0.978906 1_555
H52 O48 0.986675 1_555
H53 O49 0.986675 1_555
H54 O50 0.986675 1_555
H55 O51 0.986675 1_555
H56 O48 1.008061 1_555
H57 O49 1.008061 1_555
H58 O50 1.008061 1_555
H59 O51 1.008061 1_555
