# generated using pymatgen
data_Li4Ti3Cr3(TeO8)2
_symmetry_space_group_name_H-M   'P 1'
_cell_length_a   5.98813410
_cell_length_b   10.63855754
_cell_length_c   11.84667364
_cell_angle_alpha   116.48055276
_cell_angle_beta   104.63911937
_cell_angle_gamma   90.00873928
_symmetry_Int_Tables_number   1
_chemical_formula_structural   Li4Ti3Cr3(TeO8)2
_chemical_formula_sum   'Li8 Ti6 Cr6 Te4 O32'
_cell_volume   648.01410199
_cell_formula_units_Z   2
loop_
 _symmetry_equiv_pos_site_id
 _symmetry_equiv_pos_as_xyz
  1  'x, y, z'
loop_
 _atom_site_type_symbol
 _atom_site_label
 _atom_site_symmetry_multiplicity
 _atom_site_fract_x
 _atom_site_fract_y
 _atom_site_fract_z
 _atom_site_occupancy
  Li  Li0  1  0.45001000  0.78557100  0.89984500  1
  Li  Li1  1  0.95002700  0.28557200  0.89988100  1
  Li  Li2  1  0.99505300  0.98886500  0.99004400  1
  Li  Li3  1  0.49500500  0.48873100  0.98996700  1
  Li  Li4  1  0.24590800  0.24767900  0.49178400  1
  Li  Li5  1  0.74589700  0.74758300  0.49175700  1
  Li  Li6  1  0.70189300  0.36757900  0.40396100  1
  Li  Li7  1  0.20185800  0.86750600  0.40387000  1
  Ti  Ti0  1  0.86289200  0.68720300  0.72555600  1
  Ti  Ti1  1  0.36286000  0.18714800  0.72547500  1
  Ti  Ti2  1  0.36378100  0.51718100  0.22331300  1
  Ti  Ti3  1  0.86376800  0.01711500  0.22323800  1
  Ti  Ti4  1  0.85950500  0.51729800  0.22341100  1
  Ti  Ti5  1  0.35945600  0.01722500  0.22333900  1
  Cr  Cr0  1  0.10550600  0.44340900  0.71214700  1
  Cr  Cr1  1  0.60553400  0.94338000  0.71209700  1
  Cr  Cr2  1  0.60674400  0.44339800  0.71213700  1
  Cr  Cr3  1  0.10666800  0.94338000  0.71210000  1
  Cr  Cr4  1  0.10581600  0.27425600  0.21206000  1
  Cr  Cr5  1  0.60581300  0.77397300  0.21185200  1
  Te  Te0  1  0.25031700  0.59081900  0.50058300  1
  Te  Te1  1  0.75025600  0.09082800  0.50043700  1
  Te  Te2  1  0.99729700  0.64269800  0.99465700  1
  Te  Te3  1  0.49728700  0.14259200  0.99464100  1
  O  O0  1  0.16840500  0.65202300  0.33672600  1
  O  O1  1  0.66847600  0.15204600  0.33685600  1
  O  O2  1  0.05767300  0.39648400  0.11542600  1
  O  O3  1  0.55768200  0.89636200  0.11541600  1
  O  O4  1  0.15441000  0.15625500  0.30884800  1
  O  O5  1  0.65442600  0.65628500  0.30886500  1
  O  O6  1  0.90228800  0.89796500  0.80449700  1
  O  O7  1  0.40224700  0.39787600  0.80442000  1
  O  O8  1  0.55707200  0.40752900  0.11420400  1
  O  O9  1  0.05709200  0.90754900  0.11425100  1
  O  O10  1  0.30053000  0.45606100  0.60096100  1
  O  O11  1  0.80054000  0.95587100  0.60097200  1
  O  O12  1  0.80560800  0.47947600  0.61109800  1
  O  O13  1  0.30556900  0.97942500  0.61103000  1
  O  O14  1  0.91978900  0.44080100  0.83946300  1
  O  O15  1  0.41969800  0.94062600  0.83926600  1
  O  O16  1  0.55536200  0.72540300  0.60037700  1
  O  O17  1  0.05525100  0.22545900  0.60028000  1
  O  O18  1  0.04507200  0.72541600  0.60035900  1
  O  O19  1  0.54508800  0.22545900  0.60025600  1
  O  O20  1  0.41524600  0.43581300  0.33431800  1
  O  O21  1  0.91476800  0.93552300  0.33412200  1
  O  O22  1  0.91879200  0.43604400  0.33446500  1
  O  O23  1  0.41912200  0.93573500  0.33425300  1
  O  O24  1  0.14243800  0.65923500  0.82004100  1
  O  O25  1  0.64242100  0.15916600  0.81993000  1
  O  O26  1  0.67782900  0.65921700  0.82007400  1
  O  O27  1  0.17774600  0.15916300  0.81997400  1
  O  O28  1  0.79117700  0.11058500  0.08921000  1
  O  O29  1  0.29143600  0.61080900  0.08925600  1
  O  O30  1  0.29813100  0.11047800  0.08913200  1
  O  O31  1  0.79789500  0.61070700  0.08918200  1
loop_
_geom_bond_atom_site_label_1
_geom_bond_atom_site_label_2
_geom_bond_distance
_geom_bond_site_symmetry_2
Li0 O24 2.019491 1_555
Li0 O26 2.020005 1_555
Li0 O15 2.063735 1_555
Li0 O3 2.193170 1_556
Li1 O25 2.019890 1_555
Li1 O27 2.020348 1_655
Li1 O14 2.064202 1_555
Li1 O2 2.192932 1_656
Li2 O6 1.887447 1_555
Li2 O9 1.977495 1_656
Li2 O30 1.978297 1_666
Li2 O28 1.978934 1_566
Li3 O7 1.887450 1_555
Li3 O8 1.976879 1_556
Li3 O31 1.979045 1_556
Li3 O29 1.979679 1_556
Li4 O4 1.860852 1_555
Li4 O10 1.980742 1_555
Li4 O17 2.005978 1_555
Li4 O19 2.006025 1_555
Li5 O5 1.860401 1_555
Li5 O11 1.979965 1_555
Li5 O18 2.006496 1_655
Li5 O16 2.006502 1_555
Li6 O22 1.992549 1_555
Li6 O20 1.993139 1_555
Li6 O1 2.055129 1_555
Li6 O12 2.109209 1_555
Li7 O23 1.993886 1_555
Li7 O21 1.994327 1_455
Li7 O0 2.054565 1_555
Li7 O13 2.109448 1_555
Cr0 O10 2.013082 1_555
Cr0 O7 2.019334 1_555
Cr0 O12 2.031864 1_455
Cr0 O24 2.048016 1_555
Cr0 O17 2.069056 1_555
Cr0 O14 2.097035 1_455
Cr1 O11 2.011788 1_555
Cr1 O6 2.019429 1_555
Cr1 O13 2.032149 1_555
Cr1 O25 2.047601 1_565
Cr1 O16 2.069124 1_555
Cr1 O15 2.096565 1_555
Cr2 O10 2.013128 1_555
Cr2 O7 2.019384 1_555
Cr2 O12 2.031791 1_555
Cr2 O26 2.047993 1_555
Cr2 O19 2.068967 1_555
Cr2 O14 2.097122 1_555
Cr3 O11 2.011830 1_455
Cr3 O6 2.019399 1_455
Cr3 O13 2.032097 1_555
Cr3 O27 2.047614 1_565
Cr3 O18 2.069025 1_555
Cr3 O15 2.096671 1_555
Cr4 O4 2.022486 1_555
Cr4 O2 2.060421 1_555
Cr4 O20 2.215316 1_555
Cr4 O22 2.217013 1_455
Cr4 O28 2.247863 1_455
Cr4 O30 2.251288 1_555
Cr5 O5 2.021732 1_555
Cr5 O3 2.060047 1_555
Cr5 O21 2.213386 1_555
Cr5 O23 2.215522 1_555
Cr5 O29 2.243915 1_555
Cr5 O31 2.246385 1_555
O0 Ti4 2.075117 1_455
O0 Ti2 2.075575 1_555
O0 Te0 2.253585 1_555
O1 Ti5 2.076323 1_555
O1 Ti3 2.076761 1_555
O1 Te1 2.250627 1_555
O2 Ti2 1.998452 1_555
O2 Ti4 1.999528 1_455
O3 Ti3 1.998472 1_565
O3 Ti5 1.999607 1_565
O4 Ti5 2.003625 1_555
O4 Ti3 2.004232 1_455
O5 Ti4 2.003321 1_555
O5 Ti2 2.004079 1_555
O6 Ti0 1.994005 1_555
O7 Ti1 1.993671 1_555
O8 Ti2 1.945051 1_555
O8 Ti4 1.945505 1_555
O8 Te3 2.502352 1_554
O9 Ti3 1.944133 1_465
O9 Ti5 1.944661 1_565
O9 Te2 2.501563 1_454
O10 Te0 2.213480 1_555
O11 Te1 2.216830 1_565
O12 Ti0 1.983024 1_555
O13 Ti1 1.982968 1_565
O14 Te2 2.062958 1_555
O15 Te3 2.064224 1_565
O16 Te0 2.045101 1_555
O16 Ti0 2.216497 1_555
O17 Te1 2.045122 1_455
O17 Ti1 2.217481 1_555
O18 Te0 2.045364 1_555
O18 Ti0 2.215981 1_455
O19 Te1 2.045393 1_555
O19 Ti1 2.216902 1_555
O20 Ti2 1.839575 1_555
O20 Te0 2.379400 1_555
O21 Ti3 1.840230 1_565
O21 Te1 2.379244 1_565
O22 Ti4 1.839110 1_555
O22 Te0 2.379005 1_655
O23 Ti5 1.839669 1_565
O23 Te1 2.378878 1_565
O24 Ti0 1.869129 1_455
O24 Te2 2.509736 1_455
O25 Ti1 1.869102 1_555
O25 Te3 2.510946 1_555
O26 Ti0 1.869464 1_555
O26 Te2 2.508474 1_555
O27 Ti1 1.869503 1_555
O27 Te3 2.509618 1_555
O28 Te3 1.952428 1_554
O28 Ti3 2.181309 1_555
O29 Te2 1.953167 1_454
O29 Ti2 2.182901 1_555
O30 Te3 1.951339 1_554
O30 Ti5 2.181398 1_555
O31 Te2 1.952215 1_554
O31 Ti4 2.182898 1_555
