# generated using pymatgen
data_Na5GaO4
_symmetry_space_group_name_H-M   'P 1'
_cell_length_a   5.90413663
_cell_length_b   10.21494050
_cell_length_c   17.87166041
_cell_angle_alpha   90.00000000
_cell_angle_beta   90.00000000
_cell_angle_gamma   90.00000000
_symmetry_Int_Tables_number   1
_chemical_formula_structural   Na5GaO4
_chemical_formula_sum   'Na40 Ga8 O32'
_cell_volume   1077.84706626
_cell_formula_units_Z   8
loop_
 _symmetry_equiv_pos_site_id
 _symmetry_equiv_pos_as_xyz
  1  'x, y, z'
loop_
 _atom_site_type_symbol
 _atom_site_label
 _atom_site_symmetry_multiplicity
 _atom_site_fract_x
 _atom_site_fract_y
 _atom_site_fract_z
 _atom_site_occupancy
  Na  Na0  1  0.92503098  0.20064278  0.36088050  1
  Na  Na1  1  0.42503098  0.79935722  0.13911950  1
  Na  Na2  1  0.57496902  0.70064278  0.63911950  1
  Na  Na3  1  0.07496902  0.29935722  0.86088050  1
  Na  Na4  1  0.07496902  0.79935722  0.63911950  1
  Na  Na5  1  0.57496902  0.20064278  0.86088050  1
  Na  Na6  1  0.42503098  0.29935722  0.36088050  1
  Na  Na7  1  0.92503098  0.70064278  0.13911950  1
  Na  Na8  1  0.90884616  0.16152856  0.99803630  1
  Na  Na9  1  0.40884616  0.83847144  0.50196370  1
  Na  Na10  1  0.59115384  0.66152856  0.00196370  1
  Na  Na11  1  0.09115384  0.33847144  0.49803630  1
  Na  Na12  1  0.09115384  0.83847144  0.00196370  1
  Na  Na13  1  0.59115384  0.16152856  0.49803630  1
  Na  Na14  1  0.40884616  0.33847144  0.99803630  1
  Na  Na15  1  0.90884616  0.66152856  0.50196370  1
  Na  Na16  1  0.89564419  0.08293924  0.74830173  1
  Na  Na17  1  0.39564419  0.91706076  0.75169827  1
  Na  Na18  1  0.60435581  0.58293924  0.25169827  1
  Na  Na19  1  0.10435581  0.41706076  0.24830173  1
  Na  Na20  1  0.10435581  0.91706076  0.25169827  1
  Na  Na21  1  0.60435581  0.08293924  0.24830173  1
  Na  Na22  1  0.39564419  0.41706076  0.74830173  1
  Na  Na23  1  0.89564419  0.58293924  0.75169827  1
  Na  Na24  1  0.91843169  0.43940158  0.06539584  1
  Na  Na25  1  0.41843169  0.56059842  0.43460416  1
  Na  Na26  1  0.58156831  0.93940158  0.93460416  1
  Na  Na27  1  0.08156831  0.06059842  0.56539584  1
  Na  Na28  1  0.08156831  0.56059842  0.93460416  1
  Na  Na29  1  0.58156831  0.43940158  0.56539584  1
  Na  Na30  1  0.41843169  0.06059842  0.06539584  1
  Na  Na31  1  0.91843169  0.93940158  0.43460416  1
  Na  Na32  1  0.89593609  0.32806559  0.67121659  1
  Na  Na33  1  0.39593609  0.67193441  0.82878341  1
  Na  Na34  1  0.60406391  0.82806559  0.32878341  1
  Na  Na35  1  0.10406391  0.17193441  0.17121659  1
  Na  Na36  1  0.10406391  0.67193441  0.32878341  1
  Na  Na37  1  0.60406391  0.32806559  0.17121659  1
  Na  Na38  1  0.39593609  0.17193441  0.67121659  1
  Na  Na39  1  0.89593609  0.82806559  0.82878341  1
  Ga  Ga0  1  0.82584198  0.45986723  0.37587359  1
  Ga  Ga1  1  0.32584198  0.54013277  0.12412641  1
  Ga  Ga2  1  0.67415802  0.95986723  0.62412641  1
  Ga  Ga3  1  0.17415802  0.04013277  0.87587359  1
  Ga  Ga4  1  0.17415802  0.54013277  0.62412641  1
  Ga  Ga5  1  0.67415802  0.45986723  0.87587359  1
  Ga  Ga6  1  0.32584198  0.04013277  0.37587359  1
  Ga  Ga7  1  0.82584198  0.95986723  0.12412641  1
  O  O0  1  0.86058508  0.04910109  0.87899552  1
  O  O1  1  0.36058508  0.95089891  0.62100448  1
  O  O2  1  0.63941492  0.54910109  0.12100448  1
  O  O3  1  0.13941492  0.45089891  0.37899552  1
  O  O4  1  0.13941492  0.95089891  0.12100448  1
  O  O5  1  0.63941492  0.04910109  0.37899552  1
  O  O6  1  0.36058508  0.45089891  0.87899552  1
  O  O7  1  0.86058508  0.54910109  0.62100448  1
  O  O8  1  0.80434266  0.36838274  0.95466980  1
  O  O9  1  0.30434266  0.63161726  0.54533020  1
  O  O10  1  0.69565734  0.86838274  0.04533020  1
  O  O11  1  0.19565734  0.13161726  0.45466980  1
  O  O12  1  0.19565734  0.63161726  0.04533020  1
  O  O13  1  0.69565734  0.36838274  0.45466980  1
  O  O14  1  0.30434266  0.13161726  0.95466980  1
  O  O15  1  0.80434266  0.86838274  0.54533020  1
  O  O16  1  0.73303202  0.37362863  0.28777597  1
  O  O17  1  0.23303202  0.62637137  0.21222403  1
  O  O18  1  0.76696798  0.87362863  0.71222403  1
  O  O19  1  0.26696798  0.12637137  0.78777597  1
  O  O20  1  0.26696798  0.62637137  0.71222403  1
  O  O21  1  0.76696798  0.37362863  0.78777597  1
  O  O22  1  0.23303202  0.12637137  0.28777597  1
  O  O23  1  0.73303202  0.87362863  0.21222403  1
  O  O24  1  0.73775949  0.13633697  0.12516586  1
  O  O25  1  0.23775949  0.86366303  0.37483414  1
  O  O26  1  0.76224051  0.63633697  0.87483414  1
  O  O27  1  0.26224051  0.36366303  0.62516586  1
  O  O28  1  0.26224051  0.86366303  0.87483414  1
  O  O29  1  0.76224051  0.13633697  0.62516586  1
  O  O30  1  0.23775949  0.36366303  0.12516586  1
  O  O31  1  0.73775949  0.63633697  0.37483414  1
loop_
_geom_bond_atom_site_label_1
_geom_bond_atom_site_label_2
_geom_bond_distance
_geom_bond_site_symmetry_2
Na0 O5 2.311870 1_555
Na0 O22 2.364192 1_655
Na0 O11 2.420685 1_655
Na0 O16 2.472730 1_555
Na0 O13 2.753084 1_555
Na1 O4 2.311870 1_555
Na1 O23 2.364192 1_555
Na1 O10 2.420685 1_555
Na1 O17 2.472730 1_555
Na1 O12 2.753084 1_555
Na2 O7 2.311870 1_555
Na2 O20 2.364192 1_555
Na2 O9 2.420685 1_555
Na2 O18 2.472730 1_555
Na2 O15 2.753084 1_555
Na3 O6 2.311870 1_555
Na3 O21 2.364192 1_455
Na3 O8 2.420685 1_455
Na3 O19 2.472730 1_555
Na3 O14 2.753084 1_555
Na4 O1 2.311870 1_555
Na4 O18 2.364192 1_455
Na4 O15 2.420685 1_455
Na4 O20 2.472730 1_555
Na4 O9 2.753084 1_555
Na5 O0 2.311870 1_555
Na5 O19 2.364192 1_555
Na5 O14 2.420685 1_555
Na5 O21 2.472730 1_555
Na5 O8 2.753084 1_555
Na6 O3 2.311870 1_555
Na6 O16 2.364192 1_555
Na6 O13 2.420685 1_555
Na6 O22 2.472730 1_555
Na6 O11 2.753084 1_555
Na7 O2 2.311870 1_555
Na7 O17 2.364192 1_655
Na7 O12 2.420685 1_655
Na7 O23 2.472730 1_555
Na7 O10 2.753084 1_555
Na8 O8 2.333698 1_555
Na8 O0 2.434374 1_555
Na8 O14 2.479226 1_655
Na8 O24 2.499724 1_556
Na9 O9 2.333698 1_555
Na9 O1 2.434374 1_555
Na9 O15 2.479226 1_555
Na9 O25 2.499724 1_555
Na10 O10 2.333698 1_555
Na10 O2 2.434374 1_555
Na10 O12 2.479226 1_555
Na10 O26 2.499724 1_554
Na11 O11 2.333698 1_555
Na11 O3 2.434374 1_555
Na11 O13 2.479226 1_455
Na11 O27 2.499724 1_555
Na12 O12 2.333698 1_555
Na12 O4 2.434374 1_555
Na12 O10 2.479226 1_455
Na12 O28 2.499724 1_554
Na13 O13 2.333698 1_555
Na13 O5 2.434374 1_555
Na13 O11 2.479226 1_555
Na13 O29 2.499724 1_555
Na14 O14 2.333698 1_555
Na14 O6 2.434374 1_555
Na14 O8 2.479226 1_555
Na14 O30 2.499724 1_556
Na15 O15 2.333698 1_555
Na15 O7 2.434374 1_555
Na15 O9 2.479226 1_655
Na15 O31 2.499724 1_555
Na16 O19 2.345400 1_655
Na16 O18 2.358889 1_545
Na16 O0 2.370208 1_555
Na16 O29 2.400149 1_555
Na17 O18 2.345400 1_555
Na17 O19 2.358889 1_565
Na17 O1 2.370208 1_555
Na17 O28 2.400149 1_555
Na18 O17 2.345400 1_555
Na18 O16 2.358889 1_555
Na18 O2 2.370208 1_555
Na18 O31 2.400149 1_555
Na19 O16 2.345400 1_455
Na19 O17 2.358889 1_555
Na19 O3 2.370208 1_555
Na19 O30 2.400149 1_555
Na20 O23 2.345400 1_455
Na20 O22 2.358889 1_565
Na20 O4 2.370208 1_555
Na20 O25 2.400149 1_555
Na21 O22 2.345400 1_555
Na21 O23 2.358889 1_545
Na21 O5 2.370208 1_555
Na21 O24 2.400149 1_555
Na22 O21 2.345400 1_555
Na22 O20 2.358889 1_555
Na22 O6 2.370208 1_555
Na22 O27 2.400149 1_555
Na23 O20 2.345400 1_655
Na23 O21 2.358889 1_555
Na23 O7 2.370208 1_555
Na23 O26 2.400149 1_555
Na24 O8 2.212667 1_554
Na24 O2 2.226462 1_555
Na24 O30 2.300902 1_655
Na24 O12 2.581252 1_655
Na25 O9 2.212667 1_555
Na25 O3 2.226462 1_555
Na25 O31 2.300902 1_555
Na25 O13 2.581252 1_555
Na26 O10 2.212667 1_556
Na26 O0 2.226462 1_565
Na26 O28 2.300902 1_555
Na26 O14 2.581252 1_565
Na27 O11 2.212667 1_555
Na27 O1 2.226462 1_545
Na27 O29 2.300902 1_455
Na27 O15 2.581252 1_445
Na28 O12 2.212667 1_556
Na28 O6 2.226462 1_555
Na28 O26 2.300902 1_455
Na28 O8 2.581252 1_455
Na29 O13 2.212667 1_555
Na29 O7 2.226462 1_555
Na29 O27 2.300902 1_555
Na29 O9 2.581252 1_555
Na30 O14 2.212667 1_554
Na30 O4 2.226462 1_545
Na30 O24 2.300902 1_555
Na30 O10 2.581252 1_545
Na31 O15 2.212667 1_555
Na31 O5 2.226462 1_565
Na31 O25 2.300902 1_655
Na31 O11 2.581252 1_665
Na32 O21 2.266222 1_555
Na32 O29 2.266302 1_555
Na32 O27 2.342409 1_655
Na32 O7 2.438605 1_555
Na33 O20 2.266222 1_555
Na33 O28 2.266302 1_555
Na33 O26 2.342409 1_555
Na33 O6 2.438605 1_555
Na34 O23 2.266222 1_555
Na34 O31 2.266302 1_555
Na34 O25 2.342409 1_555
Na34 O5 2.438605 1_565
Na35 O22 2.266222 1_555
Na35 O30 2.266302 1_555
Na35 O24 2.342409 1_455
Na35 O4 2.438605 1_545
Na36 O17 2.266222 1_555
Na36 O25 2.266302 1_555
Na36 O31 2.342409 1_455
Na36 O3 2.438605 1_555
Na37 O16 2.266222 1_555
Na37 O24 2.266302 1_555
Na37 O30 2.342409 1_555
Na37 O2 2.438605 1_555
Na38 O19 2.266222 1_555
Na38 O27 2.266302 1_555
Na38 O29 2.342409 1_555
Na38 O1 2.438605 1_545
Na39 O18 2.266222 1_555
Na39 O26 2.266302 1_555
Na39 O28 2.342409 1_655
Na39 O0 2.438605 1_565
Ga0 O3 1.854482 1_655
Ga0 O13 1.856657 1_555
Ga0 O31 1.876237 1_555
Ga0 O16 1.885519 1_555
Ga1 O2 1.854482 1_555
Ga1 O12 1.856657 1_555
Ga1 O30 1.876237 1_555
Ga1 O17 1.885519 1_555
Ga2 O1 1.854482 1_555
Ga2 O15 1.856657 1_555
Ga2 O29 1.876237 1_565
Ga2 O18 1.885519 1_555
Ga3 O0 1.854482 1_455
Ga3 O14 1.856657 1_555
Ga3 O28 1.876237 1_545
Ga3 O19 1.885519 1_555
Ga4 O7 1.854482 1_455
Ga4 O9 1.856657 1_555
Ga4 O27 1.876237 1_555
Ga4 O20 1.885519 1_555
Ga5 O6 1.854482 1_555
Ga5 O8 1.856657 1_555
Ga5 O26 1.876237 1_555
Ga5 O21 1.885519 1_555
Ga6 O5 1.854482 1_555
Ga6 O11 1.856657 1_555
Ga6 O25 1.876237 1_545
Ga6 O22 1.885519 1_555
Ga7 O4 1.854482 1_655
Ga7 O10 1.856657 1_555
Ga7 O24 1.876237 1_565
Ga7 O23 1.885519 1_555
