# generated using pymatgen
data_Li3TiS3
_symmetry_space_group_name_H-M   'P 1'
_cell_length_a   6.96171316
_cell_length_b   6.96171316
_cell_length_c   5.91519397
_cell_angle_alpha   73.75828174
_cell_angle_beta   73.75828174
_cell_angle_gamma   113.23680705
_symmetry_Int_Tables_number   1
_chemical_formula_structural   Li3TiS3
_chemical_formula_sum   'Li6 Ti2 S6'
_cell_volume   226.85360637
_cell_formula_units_Z   2
loop_
 _symmetry_equiv_pos_site_id
 _symmetry_equiv_pos_as_xyz
  1  'x, y, z'
loop_
 _atom_site_type_symbol
 _atom_site_label
 _atom_site_symmetry_multiplicity
 _atom_site_fract_x
 _atom_site_fract_y
 _atom_site_fract_z
 _atom_site_occupancy
  Li  Li0  1  0.09850200  0.55363800  0.20083800  1
  Li  Li1  1  0.53824800  0.46175200  0.25000000  1
  Li  Li2  1  0.55363800  0.09850200  0.70083800  1
  Li  Li3  1  0.44636200  0.90149800  0.29916200  1
  Li  Li4  1  0.46175200  0.53824800  0.75000000  1
  Li  Li5  1  0.90149800  0.44636200  0.79916200  1
  Ti  Ti0  1  0.00000000  0.00000000  0.50000000  1
  Ti  Ti1  1  0.00000000  0.00000000  0.00000000  1
  S  S0  1  0.64079100  0.82742400  0.92472700  1
  S  S1  1  0.82354500  0.17645500  0.25000000  1
  S  S2  1  0.35920900  0.17257600  0.07527300  1
  S  S3  1  0.17645500  0.82354500  0.75000000  1
  S  S4  1  0.82742400  0.64079100  0.42472700  1
  S  S5  1  0.17257600  0.35920900  0.57527300  1
loop_
_geom_bond_atom_site_label_1
_geom_bond_atom_site_label_2
_geom_bond_distance
_geom_bond_site_symmetry_2
Li0 S4 2.374520 1_455
Li0 S1 2.437017 1_455
Li0 S5 2.552709 1_555
Li0 S3 2.553389 1_554
Li1 S0 2.397919 1_554
Li1 S5 2.397919 1_555
Li1 S4 2.564984 1_555
Li1 S2 2.564984 1_555
Li2 S0 2.374520 1_545
Li2 S3 2.437017 1_545
Li2 S2 2.552709 1_556
Li2 S1 2.553389 1_555
Li3 S2 2.374520 1_565
Li3 S1 2.437017 1_565
Li3 S0 2.552709 1_554
Li3 S3 2.553389 1_555
Li4 S4 2.397919 1_555
Li4 S2 2.397919 1_556
Li4 S0 2.564984 1_555
Li4 S5 2.564984 1_555
Li5 S5 2.374520 1_655
Li5 S3 2.437017 1_655
Li5 S4 2.552709 1_555
Li5 S1 2.553389 1_556
S0 Ti0 2.536798 1_665
S0 Ti1 2.539020 1_666
S1 Ti0 2.528962 1_655
S1 Ti1 2.528962 1_655
S2 Ti0 2.536798 1_555
S2 Ti1 2.539020 1_555
S3 Ti0 2.528962 1_565
S3 Ti1 2.528962 1_566
S4 Ti1 2.536798 1_665
S4 Ti0 2.539020 1_665
S5 Ti1 2.536798 1_556
S5 Ti0 2.539020 1_555
