# generated using pymatgen
data_Li2Mn2C2O7
_symmetry_space_group_name_H-M   'P 1'
_cell_length_a   6.85324900
_cell_length_b   9.62748600
_cell_length_c   10.33578883
_cell_angle_alpha   64.58250910
_cell_angle_beta   90.00000000
_cell_angle_gamma   90.00000000
_symmetry_Int_Tables_number   1
_chemical_formula_structural   Li2Mn2C2O7
_chemical_formula_sum   'Li8 Mn8 C8 O28'
_cell_volume   615.94088869
_cell_formula_units_Z   4
loop_
 _symmetry_equiv_pos_site_id
 _symmetry_equiv_pos_as_xyz
  1  'x, y, z'
loop_
 _atom_site_type_symbol
 _atom_site_label
 _atom_site_symmetry_multiplicity
 _atom_site_fract_x
 _atom_site_fract_y
 _atom_site_fract_z
 _atom_site_occupancy
  Li  Li0  1  0.25285000  0.26065600  0.00362400  1
  Li  Li1  1  0.64607000  0.42382900  0.14923000  1
  Li  Li2  1  0.14607000  0.07617100  0.85077000  1
  Li  Li3  1  0.75285000  0.23934400  0.99637600  1
  Li  Li4  1  0.24715000  0.76065600  0.00362400  1
  Li  Li5  1  0.85393000  0.92382900  0.14923000  1
  Li  Li6  1  0.35393000  0.57617100  0.85077000  1
  Li  Li7  1  0.74715000  0.73934400  0.99637600  1
  Mn  Mn0  1  0.95287100  0.41427900  0.66389200  1
  Mn  Mn1  1  0.54712900  0.91427900  0.66389200  1
  Mn  Mn2  1  0.45287100  0.08572100  0.33610800  1
  Mn  Mn3  1  0.04712900  0.58572100  0.33610800  1
  Mn  Mn4  1  0.63537600  0.27353500  0.51504400  1
  Mn  Mn5  1  0.86462400  0.77353500  0.51504400  1
  Mn  Mn6  1  0.13537600  0.22646500  0.48495600  1
  Mn  Mn7  1  0.36462400  0.72646500  0.48495600  1
  C  C0  1  0.35518700  0.35032100  0.71676800  1
  C  C1  1  0.76184300  0.06505600  0.84941800  1
  C  C2  1  0.26184300  0.43494400  0.15058200  1
  C  C3  1  0.14481300  0.85032100  0.71676800  1
  C  C4  1  0.85518700  0.14967900  0.28323200  1
  C  C5  1  0.73815700  0.56505600  0.84941800  1
  C  C6  1  0.23815700  0.93494400  0.15058200  1
  C  C7  1  0.64481300  0.64967900  0.28323200  1
  O  O0  1  0.51210400  0.38203800  0.64480100  1
  O  O1  1  0.40811600  0.12945300  0.51292400  1
  O  O2  1  0.32055700  0.39947700  0.81483800  1
  O  O3  1  0.21556700  0.26816600  0.69479700  1
  O  O4  1  0.76095300  0.44419500  0.96927900  1
  O  O5  1  0.70059700  0.06889200  0.73006500  1
  O  O6  1  0.85263800  0.18450400  0.85142100  1
  O  O7  1  0.98789600  0.88203800  0.64480100  1
  O  O8  1  0.09188400  0.62945300  0.51292400  1
  O  O9  1  0.17944300  0.89947700  0.81483800  1
  O  O10  1  0.28443300  0.76816600  0.69479700  1
  O  O11  1  0.35263800  0.31549600  0.14857900  1
  O  O12  1  0.20059700  0.43110800  0.26993500  1
  O  O13  1  0.73904700  0.94419500  0.96927900  1
  O  O14  1  0.26095300  0.05580500  0.03072100  1
  O  O15  1  0.79940300  0.56889200  0.73006500  1
  O  O16  1  0.64736200  0.68450400  0.85142100  1
  O  O17  1  0.71556700  0.23183400  0.30520300  1
  O  O18  1  0.82055700  0.10052300  0.18516200  1
  O  O19  1  0.90811600  0.37054700  0.48707600  1
  O  O20  1  0.01210400  0.11796200  0.35519900  1
  O  O21  1  0.14736200  0.81549600  0.14857900  1
  O  O22  1  0.29940300  0.93110800  0.26993500  1
  O  O23  1  0.23904700  0.55580500  0.03072100  1
  O  O24  1  0.78443300  0.73183400  0.30520300  1
  O  O25  1  0.67944300  0.60052300  0.18516200  1
  O  O26  1  0.59188400  0.87054700  0.48707600  1
  O  O27  1  0.48789600  0.61796200  0.35519900  1
loop_
_geom_bond_atom_site_label_1
_geom_bond_atom_site_label_2
_geom_bond_distance
_geom_bond_site_symmetry_2
Li0 O14 1.870012 1_555
Li0 O2 1.889521 1_554
Li0 O11 1.915761 1_555
Li1 O25 1.904303 1_555
Li1 O17 1.919488 1_555
Li1 O4 1.950546 1_554
Li1 O11 2.266679 1_555
Li2 O9 1.904303 1_545
Li2 O3 1.919488 1_555
Li2 O14 1.950546 1_556
Li2 O6 2.266679 1_455
Li3 O4 1.870012 1_555
Li3 O18 1.889521 1_556
Li3 O6 1.915761 1_555
Li4 O23 1.870012 1_555
Li4 O9 1.889521 1_554
Li4 O21 1.915761 1_555
Li5 O18 1.904303 1_565
Li5 O24 1.919488 1_555
Li5 O13 1.950546 1_554
Li5 O21 2.266679 1_655
Li6 O2 1.904303 1_555
Li6 O10 1.919488 1_555
Li6 O23 1.950546 1_556
Li6 O16 2.266679 1_555
Li7 O13 1.870012 1_555
Li7 O25 1.889521 1_556
Li7 O16 1.915761 1_555
Mn0 O19 2.066815 1_555
Mn0 O15 2.159550 1_555
Mn0 O8 2.204324 1_655
Mn0 O3 2.221773 1_655
Mn0 O6 2.332737 1_555
Mn1 O26 2.066815 1_555
Mn1 O5 2.159550 1_565
Mn1 O1 2.204324 1_565
Mn1 O10 2.221773 1_555
Mn1 O16 2.332737 1_555
Mn2 O1 2.066815 1_555
Mn2 O22 2.159550 1_545
Mn2 O26 2.204324 1_545
Mn2 O17 2.221773 1_555
Mn2 O11 2.332737 1_555
Mn3 O8 2.066815 1_555
Mn3 O12 2.159550 1_555
Mn3 O19 2.204324 1_455
Mn3 O24 2.221773 1_455
Mn3 O21 2.332737 1_555
Mn4 O19 2.053743 1_555
Mn4 O1 2.091999 1_555
Mn4 O0 2.192306 1_555
Mn4 O5 2.293884 1_555
Mn4 O17 2.432013 1_555
Mn5 O26 2.053743 1_555
Mn5 O8 2.091999 1_655
Mn5 O7 2.192306 1_555
Mn5 O15 2.293884 1_555
Mn5 O24 2.432013 1_555
Mn6 O1 2.053743 1_555
Mn6 O19 2.091999 1_455
Mn6 O20 2.192306 1_555
Mn6 O12 2.293884 1_555
Mn6 O3 2.432013 1_555
Mn7 O8 2.053743 1_555
Mn7 O26 2.091999 1_555
Mn7 O27 2.192306 1_555
Mn7 O22 2.293884 1_555
Mn7 O10 2.432013 1_555
C0 O0 1.268078 1_555
C0 O2 1.311305 1_555
C0 O3 1.321708 1_555
C1 O5 1.288495 1_555
C1 O13 1.294481 1_545
C1 O6 1.315489 1_555
C2 O12 1.288495 1_555
C2 O23 1.294481 1_555
C2 O11 1.315489 1_555
C3 O7 1.268078 1_455
C3 O9 1.311305 1_555
C3 O10 1.321708 1_555
C4 O20 1.268078 1_655
C4 O18 1.311305 1_555
C4 O17 1.321708 1_555
C5 O15 1.288495 1_555
C5 O4 1.294481 1_555
C5 O16 1.315489 1_555
C6 O22 1.288495 1_555
C6 O14 1.294481 1_565
C6 O21 1.315489 1_555
C7 O27 1.268078 1_555
C7 O25 1.311305 1_555
C7 O24 1.321708 1_555
