# generated using pymatgen
data_V3O5F
_symmetry_space_group_name_H-M   'P 1'
_cell_length_a   4.69112000
_cell_length_b   5.55330635
_cell_length_c   7.50442225
_cell_angle_alpha   96.10259640
_cell_angle_beta   90.26773526
_cell_angle_gamma   90.29246910
_symmetry_Int_Tables_number   1
_chemical_formula_structural   V3O5F
_chemical_formula_sum   'V6 O10 F2'
_cell_volume   194.38632687
_cell_formula_units_Z   2
loop_
 _symmetry_equiv_pos_site_id
 _symmetry_equiv_pos_as_xyz
  1  'x, y, z'
loop_
 _atom_site_type_symbol
 _atom_site_label
 _atom_site_symmetry_multiplicity
 _atom_site_fract_x
 _atom_site_fract_y
 _atom_site_fract_z
 _atom_site_occupancy
  V  V0  1  0.46830500  0.84815200  0.34464800  1
  V  V1  1  0.49741400  0.48301700  0.99518300  1
  V  V2  1  0.50230600  0.16687900  0.66277300  1
  V  V3  1  0.00811800  0.31894900  0.32696700  1
  V  V4  1  0.00743700  0.67353800  0.68577300  1
  V  V5  1  0.01706000  0.00823300  0.99132700  1
  O  O0  1  0.17932400  0.37263200  0.55682000  1
  O  O1  1  0.20526200  0.69169700  0.89885900  1
  O  O2  1  0.20093900  0.03544000  0.23495500  1
  O  O3  1  0.30350100  0.20126800  0.90124500  1
  O  O4  1  0.31916300  0.54239100  0.22987100  1
  O  O5  1  0.28887000  0.86068500  0.56503300  1
  O  O6  1  0.69715500  0.11771400  0.41998200  1
  O  O7  1  0.69997300  0.47631300  0.78074200  1
  O  O8  1  0.79814900  0.95904300  0.75847300  1
  O  O9  1  0.80889400  0.30824600  0.10958900  1
  F  F0  1  0.70323400  0.80209500  0.10271500  1
  F  F1  1  0.79489700  0.63370800  0.43504900  1
loop_
_geom_bond_atom_site_label_1
_geom_bond_atom_site_label_2
_geom_bond_distance
_geom_bond_site_symmetry_2
O0 V3 1.893284 1_555
O0 V4 2.014004 1_555
O0 V2 2.105473 1_555
O1 V4 1.838304 1_555
O1 V1 1.982139 1_555
O1 V5 2.028091 1_565
O2 V0 1.875689 1_545
O2 V3 1.887590 1_555
O2 V5 2.008665 1_554
O3 V1 1.875502 1_555
O3 V5 1.886693 1_555
O3 V2 2.013367 1_555
O4 V0 1.945721 1_555
O4 V1 1.950095 1_554
O4 V3 2.093663 1_555
O5 V0 1.854126 1_555
O5 V4 1.959978 1_555
O5 V2 2.035290 1_565
O6 V0 1.873771 1_545
O6 V3 2.005694 1_655
O6 V2 2.035215 1_555
O7 V1 1.869743 1_555
O7 V4 1.986785 1_655
O7 V2 2.061318 1_555
O8 V4 1.900619 1_655
O8 V2 1.989286 1_565
O8 V5 2.015347 1_665
O9 V3 1.871544 1_655
O9 V1 1.998522 1_554
O9 V5 2.056052 1_654
F0 V5 2.091480 1_664
F0 V1 2.096289 1_554
F0 V0 2.121115 1_555
F1 V0 2.099137 1_555
F1 V3 2.106583 1_655
F1 V4 2.115408 1_655
