# generated using pymatgen
data_LiMn2(BO3)2
_symmetry_space_group_name_H-M   'P 1'
_cell_length_a   5.32549800
_cell_length_b   9.09815117
_cell_length_c   10.33022701
_cell_angle_alpha   88.60733000
_cell_angle_beta   87.91583354
_cell_angle_gamma   89.21672168
_symmetry_Int_Tables_number   1
_chemical_formula_structural   LiMn2(BO3)2
_chemical_formula_sum   'Li4 Mn8 B8 O24'
_cell_volume   500.00226472
_cell_formula_units_Z   4
loop_
 _symmetry_equiv_pos_site_id
 _symmetry_equiv_pos_as_xyz
  1  'x, y, z'
loop_
 _atom_site_type_symbol
 _atom_site_label
 _atom_site_symmetry_multiplicity
 _atom_site_fract_x
 _atom_site_fract_y
 _atom_site_fract_z
 _atom_site_occupancy
  Li  Li0  1  0.83974800  0.00070000  0.66039100  1
  Li  Li1  1  0.35959400  0.51344700  0.67244500  1
  Li  Li2  1  0.36116100  0.49236900  0.16166600  1
  Li  Li3  1  0.15333400  0.97956300  0.34414000  1
  Mn  Mn0  1  0.85510600  0.31780900  0.63469500  1
  Mn  Mn1  1  0.85307400  0.68995000  0.12478000  1
  Mn  Mn2  1  0.63810300  0.81125800  0.87270900  1
  Mn  Mn3  1  0.66776500  0.16445200  0.38262300  1
  Mn  Mn4  1  0.33602000  0.84692800  0.62050600  1
  Mn  Mn5  1  0.35805100  0.16905300  0.13449600  1
  Mn  Mn6  1  0.15028400  0.34057500  0.89051400  1
  Mn  Mn7  1  0.15333600  0.65221500  0.38492900  1
  B  B0  1  0.84264800  0.65568500  0.63600900  1
  B  B1  1  0.83504300  0.34872100  0.13431400  1
  B  B2  1  0.65484600  0.16195100  0.87245400  1
  B  B3  1  0.66638300  0.83374700  0.37189000  1
  B  B4  1  0.32683100  0.17791700  0.63132600  1
  B  B5  1  0.33295600  0.82925800  0.12425200  1
  B  B6  1  0.16936500  0.68301000  0.87519200  1
  B  B7  1  0.16685400  0.31696200  0.37342800  1
  O  O0  1  0.92848800  0.69749600  0.93526900  1
  O  O1  1  0.94643200  0.30124300  0.44917500  1
  O  O2  1  0.80712100  0.95258600  0.39805800  1
  O  O3  1  0.78504200  0.28724900  0.82165400  1
  O  O4  1  0.78442000  0.71300300  0.30923100  1
  O  O5  1  0.72834700  0.02635300  0.83973900  1
  O  O6  1  0.72291800  0.78689200  0.68382800  1
  O  O7  1  0.71229300  0.52994300  0.63244200  1
  O  O8  1  0.71638300  0.48052900  0.12426800  1
  O  O9  1  0.70901000  0.22301000  0.18181200  1
  O  O10  1  0.58119000  0.17670100  0.59128400  1
  O  O11  1  0.57165600  0.81772400  0.06268300  1
  O  O12  1  0.44095700  0.19374400  0.95127500  1
  O  O13  1  0.41388300  0.82500000  0.41217300  1
  O  O14  1  0.28576800  0.81362200  0.83479300  1
  O  O15  1  0.27417600  0.55031800  0.85571200  1
  O  O16  1  0.27653400  0.44594800  0.34479500  1
  O  O17  1  0.27246100  0.18313900  0.32418700  1
  O  O18  1  0.22304900  0.31129300  0.67613500  1
  O  O19  1  0.23234100  0.96078400  0.15516900  1
  O  O20  1  0.21504400  0.69567300  0.15693600  1
  O  O21  1  0.18448000  0.05656900  0.62224200  1
  O  O22  1  0.09264800  0.66664100  0.59152800  1
  O  O23  1  0.09100800  0.33320200  0.09576100  1
loop_
_geom_bond_atom_site_label_1
_geom_bond_atom_site_label_2
_geom_bond_distance
_geom_bond_site_symmetry_2
Li0 O21 1.935781 1_655
Li0 O5 1.943256 1_555
Li0 O6 2.056451 1_545
Li0 O10 2.219322 1_555
Li1 O7 1.915602 1_555
Li1 O15 1.966643 1_555
Li1 O18 1.985983 1_555
Li1 O22 2.153596 1_555
Li2 O8 1.919064 1_555
Li2 O16 1.965862 1_555
Li2 O20 1.997066 1_555
Li2 O23 2.192386 1_555
Li3 O2 1.923784 1_455
Li3 O17 1.969654 1_565
Li3 O19 1.992856 1_555
Li3 O13 2.089563 1_555
Mn0 O3 1.967455 1_555
Mn0 O1 1.968841 1_555
Mn0 O18 2.020627 1_655
Mn0 O10 2.025831 1_555
Mn0 O7 2.064692 1_555
Mn1 O4 1.942924 1_555
Mn1 O20 1.969550 1_655
Mn1 O0 1.983835 1_554
Mn1 O11 1.998758 1_555
Mn1 O8 2.049137 1_555
Mn2 O14 1.930426 1_555
Mn2 O0 1.968967 1_555
Mn2 O11 1.983562 1_556
Mn2 O6 2.003613 1_555
Mn2 O5 2.039142 1_565
Mn3 O2 2.060667 1_545
Mn3 O1 2.095285 1_555
Mn3 O9 2.133461 1_555
Mn3 O10 2.192995 1_555
Mn3 O17 2.214225 1_555
Mn4 O21 2.061093 1_565
Mn4 O22 2.137791 1_555
Mn4 O13 2.190227 1_555
Mn4 O14 2.233861 1_555
Mn4 O6 2.240866 1_555
Mn5 O12 1.936241 1_554
Mn5 O17 2.002416 1_555
Mn5 O9 2.019004 1_555
Mn5 O19 2.022106 1_545
Mn5 O23 2.089799 1_555
Mn6 O15 2.046924 1_555
Mn6 O23 2.131803 1_556
Mn6 O12 2.132649 1_555
Mn6 O3 2.160556 1_455
Mn6 O18 2.255872 1_555
Mn7 O16 2.026949 1_555
Mn7 O13 2.141328 1_555
Mn7 O22 2.153796 1_555
Mn7 O4 2.199607 1_455
Mn7 O20 2.390267 1_555
B0 O7 1.348215 1_555
B0 O22 1.396617 1_655
B0 O6 1.435458 1_555
B1 O8 1.351370 1_555
B1 O9 1.403260 1_555
B1 O23 1.412333 1_655
B2 O5 1.336737 1_555
B2 O12 1.406807 1_555
B2 O3 1.421885 1_555
B3 O2 1.361965 1_555
B3 O13 1.395816 1_555
B3 O4 1.416691 1_555
B4 O21 1.354810 1_555
B4 O10 1.401853 1_555
B4 O18 1.408053 1_555
B5 O19 1.345239 1_555
B5 O20 1.403903 1_555
B5 O11 1.404374 1_555
B6 O15 1.339672 1_555
B6 O14 1.395631 1_555
B6 O0 1.410505 1_455
B7 O16 1.339831 1_555
B7 O1 1.393921 1_455
B7 O17 1.431095 1_555
