# generated using pymatgen
data_Li4V3CrO8
_symmetry_space_group_name_H-M   'P 1'
_cell_length_a   5.16193300
_cell_length_b   5.22475890
_cell_length_c   5.97065305
_cell_angle_alpha   90.43369951
_cell_angle_beta   106.50046955
_cell_angle_gamma   98.82119435
_symmetry_Int_Tables_number   1
_chemical_formula_structural   Li4V3CrO8
_chemical_formula_sum   'Li4 V3 Cr1 O8'
_cell_volume   152.34760294
_cell_formula_units_Z   1
loop_
 _symmetry_equiv_pos_site_id
 _symmetry_equiv_pos_as_xyz
  1  'x, y, z'
loop_
 _atom_site_type_symbol
 _atom_site_label
 _atom_site_symmetry_multiplicity
 _atom_site_fract_x
 _atom_site_fract_y
 _atom_site_fract_z
 _atom_site_occupancy
  Li  Li0  1  0.99749300  0.75625500  0.62267400  1
  Li  Li1  1  0.00118600  0.24590200  0.87363200  1
  Li  Li2  1  0.99881400  0.75409800  0.12636800  1
  Li  Li3  1  0.00250700  0.24374500  0.37732600  1
  V  V0  1  0.49906600  0.50040100  0.74916200  1
  V  V1  1  0.50000000  0.00000000  0.00000000  1
  V  V2  1  0.50093400  0.49959900  0.25083800  1
  Cr  Cr0  1  0.50000000  0.00000000  0.50000000  1
  O  O0  1  0.72852900  0.87827400  0.80563200  1
  O  O1  1  0.26969700  0.12678600  0.68769400  1
  O  O2  1  0.72462300  0.37077000  0.05497100  1
  O  O3  1  0.27537700  0.62923000  0.94502900  1
  O  O4  1  0.73030300  0.87321400  0.31230600  1
  O  O5  1  0.27147100  0.12172600  0.19436800  1
  O  O6  1  0.72212400  0.36891900  0.55501300  1
  O  O7  1  0.27787600  0.63108100  0.44498700  1
loop_
_geom_bond_atom_site_label_1
_geom_bond_atom_site_label_2
_geom_bond_distance
_geom_bond_site_symmetry_2
Li0 O4 2.129190 1_555
Li0 O0 2.156327 1_555
Li0 O1 2.171943 1_665
Li0 O7 2.190890 1_655
Li0 O3 2.223834 1_655
Li0 O6 2.249080 1_555
Li1 O1 2.160804 1_555
Li1 O0 2.160911 1_445
Li1 O2 2.188360 1_456
Li1 O5 2.193959 1_556
Li1 O6 2.202943 1_455
Li1 O3 2.229594 1_555
Li2 O4 2.160804 1_555
Li2 O5 2.160911 1_665
Li2 O3 2.188360 1_654
Li2 O0 2.193959 1_554
Li2 O7 2.202943 1_655
Li2 O2 2.229594 1_555
Li3 O1 2.129190 1_555
Li3 O5 2.156327 1_555
Li3 O4 2.171943 1_445
Li3 O6 2.190890 1_455
Li3 O2 2.223834 1_455
Li3 O7 2.249080 1_555
Cr0 O1 2.023613 1_555
Cr0 O4 2.023613 1_545
Cr0 O0 2.037376 1_545
Cr0 O5 2.037376 1_555
Cr0 O7 2.058278 1_545
Cr0 O6 2.058278 1_555
O0 V1 2.034553 1_566
O0 V0 2.111952 1_555
O1 V1 2.080887 1_556
O1 V0 2.092960 1_555
O2 V2 2.036529 1_555
O2 V0 2.049671 1_554
O2 V1 2.071261 1_555
O3 V0 2.036529 1_555
O3 V2 2.049671 1_556
O3 V1 2.071261 1_566
O4 V1 2.080887 1_565
O4 V2 2.092960 1_555
O5 V1 2.034553 1_555
O5 V2 2.111952 1_555
O6 V0 2.032268 1_555
O6 V2 2.036685 1_555
O7 V2 2.032268 1_555
O7 V0 2.036685 1_555
