# generated using pymatgen
data_V2OF5
_symmetry_space_group_name_H-M   'P 1'
_cell_length_a   5.23736240
_cell_length_b   5.23736240
_cell_length_c   13.52627700
_cell_angle_alpha   90.00000000
_cell_angle_beta   90.00000000
_cell_angle_gamma   120.00000502
_symmetry_Int_Tables_number   1
_chemical_formula_structural   V2OF5
_chemical_formula_sum   'V6 O3 F15'
_cell_volume   321.31732169
_cell_formula_units_Z   3
loop_
 _symmetry_equiv_pos_site_id
 _symmetry_equiv_pos_as_xyz
  1  'x, y, z'
loop_
 _atom_site_type_symbol
 _atom_site_label
 _atom_site_symmetry_multiplicity
 _atom_site_fract_x
 _atom_site_fract_y
 _atom_site_fract_z
 _atom_site_occupancy
  V  V0  1  0.33535600  0.30916200  0.24593600  1
  V  V1  1  0.30916200  0.33535600  0.75406400  1
  V  V2  1  0.97380700  0.66464400  0.57927000  1
  V  V3  1  0.66464400  0.97380700  0.42073000  1
  V  V4  1  0.02619300  0.69083800  0.08739700  1
  V  V5  1  0.69083800  0.02619300  0.91260300  1
  O  O0  1  0.75504700  0.75504700  0.50000000  1
  O  O1  1  0.24495300  0.00000000  0.16666700  1
  O  O2  1  0.00000000  0.24495300  0.83333300  1
  F  F0  1  0.33304200  0.92782600  0.50010800  1
  F  F1  1  0.66695800  0.59478400  0.16655800  1
  F  F2  1  0.40521600  0.07217400  0.83322500  1
  F  F3  1  0.64967800  0.40041600  0.66977900  1
  F  F4  1  0.59958400  0.24926300  0.33644500  1
  F  F5  1  0.93437100  0.93437100  0.00000000  1
  F  F6  1  0.35032200  0.75073700  0.99688800  1
  F  F7  1  0.06562900  0.00000000  0.66666700  1
  F  F8  1  0.40041600  0.64967800  0.33022100  1
  F  F9  1  0.75073700  0.35032200  0.00311200  1
  F  F10  1  0.92782600  0.33304200  0.49989200  1
  F  F11  1  0.59478400  0.66695800  0.83344200  1
  F  F12  1  0.07217400  0.40521600  0.16677500  1
  F  F13  1  0.24926300  0.59958400  0.66355500  1
  F  F14  1  0.00000000  0.06562900  0.33333300  1
loop_
_geom_bond_atom_site_label_1
_geom_bond_atom_site_label_2
_geom_bond_distance
_geom_bond_site_symmetry_2
O0 V3 1.796944 1_555
O0 V2 1.796944 1_555
O1 V0 1.796932 1_555
O1 V4 1.796941 1_545
O2 V1 1.796932 1_555
O2 V5 1.796941 1_455
F0 V3 1.951605 1_555
F0 V2 1.998239 1_455
F1 V0 1.951607 1_555
F1 V4 1.998231 1_655
F2 V5 1.951609 1_555
F2 V1 1.998235 1_555
F3 V2 1.986560 1_555
F3 V1 1.997173 1_555
F4 V0 1.986555 1_555
F4 V3 1.997173 1_545
F5 V4 1.966969 1_655
F5 V5 1.966969 1_564
F6 V4 1.986563 1_556
F6 V5 1.997173 1_565
F7 V1 1.966972 1_555
F7 V2 1.966973 1_445
F8 V3 1.986560 1_555
F8 V0 1.997173 1_555
F9 V5 1.986563 1_554
F9 V4 1.997173 1_655
F10 V2 1.951605 1_555
F10 V3 1.998239 1_545
F11 V1 1.951607 1_555
F11 V5 1.998231 1_565
F12 V4 1.951609 1_555
F12 V0 1.998235 1_555
F13 V1 1.986555 1_555
F13 V2 1.997173 1_455
F14 V0 1.966972 1_555
F14 V3 1.966973 1_445
