# generated using pymatgen
data_Fe5(O4F)2
_symmetry_space_group_name_H-M   'P 1'
_cell_length_a   4.66634300
_cell_length_b   5.56693471
_cell_length_c   12.89759801
_cell_angle_alpha   101.93107211
_cell_angle_beta   90.37013116
_cell_angle_gamma   91.73178570
_symmetry_Int_Tables_number   1
_chemical_formula_structural   Fe5(O4F)2
_chemical_formula_sum   'Fe10 O16 F4'
_cell_volume   327.62849266
_cell_formula_units_Z   2
loop_
 _symmetry_equiv_pos_site_id
 _symmetry_equiv_pos_as_xyz
  1  'x, y, z'
loop_
 _atom_site_type_symbol
 _atom_site_label
 _atom_site_symmetry_multiplicity
 _atom_site_fract_x
 _atom_site_fract_y
 _atom_site_fract_z
 _atom_site_occupancy
  Fe  Fe0  1  0.49511400  0.48928200  0.00045400  1
  Fe  Fe1  1  0.49677900  0.90246700  0.60041600  1
  Fe  Fe2  1  0.46337000  0.70856800  0.79817800  1
  Fe  Fe3  1  0.51744200  0.08422200  0.39457600  1
  Fe  Fe4  1  0.52605100  0.28965300  0.19878100  1
  Fe  Fe5  1  0.99453900  0.39665500  0.60026700  1
  Fe  Fe6  1  0.00079300  0.80558100  0.19563000  1
  Fe  Fe7  1  0.00230200  0.18968100  0.80294300  1
  Fe  Fe8  1  0.97846800  0.61929000  0.40469000  1
  Fe  Fe9  1  0.01804100  0.01131900  0.00372900  1
  O  O0  1  0.81620100  0.05302400  0.13164600  1
  O  O1  1  0.81822700  0.85532800  0.33294700  1
  O  O2  1  0.81244200  0.24778700  0.94036100  1
  O  O3  1  0.80401600  0.64575800  0.54083400  1
  O  O4  1  0.69508700  0.15624800  0.53797700  1
  O  O5  1  0.69763100  0.35396300  0.33790900  1
  O  O6  1  0.69935400  0.55331800  0.14045600  1
  O  O7  1  0.68403300  0.95835300  0.73886600  1
  O  O8  1  0.29564900  0.64365700  0.65716300  1
  O  O9  1  0.31716600  0.04264200  0.25877200  1
  O  O10  1  0.29966500  0.44552000  0.86164600  1
  O  O11  1  0.31733700  0.24928000  0.06920400  1
  O  O12  1  0.30470000  0.84938600  0.46133300  1
  O  O13  1  0.19316700  0.94361300  0.86818200  1
  O  O14  1  0.19016900  0.74564100  0.05797400  1
  O  O15  1  0.17693400  0.15426200  0.66455800  1
  F  F0  1  0.79139700  0.46520800  0.74365500  1
  F  F1  1  0.69447500  0.75266700  0.93667400  1
  F  F2  1  0.19636900  0.34396500  0.45701700  1
  F  F3  1  0.20308200  0.54366200  0.26316300  1
loop_
_geom_bond_atom_site_label_1
_geom_bond_atom_site_label_2
_geom_bond_distance
_geom_bond_site_symmetry_2
Fe0 O11 1.921429 1_555
Fe0 O10 1.970135 1_554
Fe0 O6 1.996744 1_555
Fe0 O2 2.074865 1_554
Fe0 O14 2.076191 1_555
Fe1 O7 1.944900 1_555
Fe1 O12 1.962800 1_555
Fe1 O8 1.963550 1_555
Fe1 O4 1.975304 1_565
Fe1 O3 2.090988 1_555
Fe1 O15 2.130666 1_565
Fe2 O13 1.934693 1_555
Fe2 O8 1.934878 1_555
Fe2 O10 1.958088 1_555
Fe2 O7 1.985575 1_555
Fe3 O9 1.947570 1_555
Fe3 O12 1.958040 1_545
Fe3 O5 1.970140 1_555
Fe3 O4 1.980446 1_555
Fe3 O1 1.982227 1_545
Fe4 O11 1.898027 1_555
Fe4 O5 1.920322 1_555
Fe4 O6 1.940869 1_555
Fe4 O9 1.951487 1_555
Fe4 O0 1.992363 1_555
Fe5 O15 1.937975 1_655
Fe5 O3 1.950966 1_555
Fe5 O4 1.953725 1_555
Fe5 O8 1.963719 1_655
Fe6 O1 1.941665 1_455
Fe6 O14 1.958968 1_555
Fe6 O0 1.962914 1_465
Fe6 O6 1.977774 1_455
Fe6 O9 2.001660 1_565
Fe7 O15 1.942049 1_555
Fe7 O2 1.957390 1_455
Fe7 O13 1.979482 1_545
Fe7 O10 1.987020 1_555
Fe7 O7 1.993884 1_445
Fe8 O3 1.920007 1_555
Fe8 O1 1.922266 1_555
Fe8 O12 1.993182 1_655
Fe8 O5 1.995828 1_555
Fe9 O0 1.880910 1_455
Fe9 O13 1.905469 1_544
Fe9 O14 1.953071 1_545
Fe9 O11 1.956766 1_555
Fe9 O2 1.957646 1_454
F0 Fe5 2.053545 1_555
F0 Fe2 2.101963 1_555
F0 Fe7 2.114810 1_655
F1 Fe0 2.029322 1_556
F1 Fe2 2.047386 1_555
F1 Fe9 2.106612 1_666
F2 Fe5 2.049805 1_455
F2 Fe8 2.086052 1_455
F2 Fe3 2.156192 1_555
F3 Fe8 2.083601 1_455
F3 Fe6 2.091267 1_555
F3 Fe4 2.149383 1_555
