# generated using pymatgen
data_BaSrI4
_symmetry_space_group_name_H-M   'P 1'
_cell_length_a   20.97855200
_cell_length_b   6.08189400
_cell_length_c   10.09807446
_cell_angle_alpha   89.98272288
_cell_angle_beta   90.00000000
_cell_angle_gamma   90.00000000
_symmetry_Int_Tables_number   1
_chemical_formula_structural   BaSrI4
_chemical_formula_sum   'Ba4 Sr4 I16'
_cell_volume   1288.40649128
_cell_formula_units_Z   4
loop_
 _symmetry_equiv_pos_site_id
 _symmetry_equiv_pos_as_xyz
  1  'x, y, z'
loop_
 _atom_site_type_symbol
 _atom_site_label
 _atom_site_symmetry_multiplicity
 _atom_site_fract_x
 _atom_site_fract_y
 _atom_site_fract_z
 _atom_site_occupancy
  Ba  Ba0  1  0.86544300  0.18533500  0.75504300  1
  Ba  Ba1  1  0.63455700  0.18533500  0.25504300  1
  Ba  Ba2  1  0.36544300  0.81466500  0.74495700  1
  Ba  Ba3  1  0.13455700  0.81466500  0.24495700  1
  Sr  Sr0  1  0.15363800  0.29492400  0.75549300  1
  Sr  Sr1  1  0.34636200  0.29492400  0.25549300  1
  Sr  Sr2  1  0.65363800  0.70507600  0.74450700  1
  Sr  Sr3  1  0.84636200  0.70507600  0.24450700  1
  I  I0  1  0.69790300  0.20460700  0.78171100  1
  I  I1  1  0.39756000  0.30827400  0.55991100  1
  I  I2  1  0.30528300  0.30069400  0.91720800  1
  I  I3  1  0.80209700  0.20460700  0.28171100  1
  I  I4  1  0.01273700  0.25479400  0.64848100  1
  I  I5  1  0.10244000  0.30827400  0.05991100  1
  I  I6  1  0.19471700  0.30069400  0.41720800  1
  I  I7  1  0.48726300  0.25479400  0.14848100  1
  I  I8  1  0.51273700  0.74520600  0.85151900  1
  I  I9  1  0.80528300  0.69930600  0.58279200  1
  I  I10  1  0.89756000  0.69172600  0.94008900  1
  I  I11  1  0.98726300  0.74520600  0.35151900  1
  I  I12  1  0.19790300  0.79539300  0.71828900  1
  I  I13  1  0.69471700  0.69930600  0.08279200  1
  I  I14  1  0.60244000  0.69172600  0.44008900  1
  I  I15  1  0.30209700  0.79539300  0.21828900  1
loop_
_geom_bond_atom_site_label_1
_geom_bond_atom_site_label_2
_geom_bond_distance
_geom_bond_site_symmetry_2
Ba0 I4 3.299137 1_655
Ba0 I0 3.526999 1_555
Ba0 I10 3.599270 1_545
Ba0 I9 3.655030 1_545
Ba0 I10 3.665297 1_555
Ba0 I9 3.792944 1_555
Ba1 I7 3.299137 1_555
Ba1 I3 3.526999 1_555
Ba1 I14 3.599270 1_545
Ba1 I13 3.655030 1_545
Ba1 I14 3.665297 1_555
Ba1 I13 3.792944 1_555
Ba2 I8 3.299137 1_555
Ba2 I12 3.526999 1_555
Ba2 I1 3.599270 1_565
Ba2 I2 3.655030 1_565
Ba2 I1 3.665297 1_555
Ba2 I2 3.792944 1_555
Ba3 I11 3.299137 1_455
Ba3 I15 3.526999 1_555
Ba3 I5 3.599270 1_565
Ba3 I6 3.655030 1_565
Ba3 I5 3.665297 1_555
Ba3 I6 3.792944 1_555
I0 Sr2 3.199090 1_545
I0 Sr2 3.204293 1_555
I1 Sr1 3.257306 1_555
I2 Sr1 3.523218 1_556
I2 Sr0 3.576117 1_555
I3 Sr3 3.199090 1_545
I3 Sr3 3.204293 1_555
I4 Sr0 3.156706 1_555
I5 Sr0 3.257306 1_554
I6 Sr0 3.523218 1_555
I6 Sr1 3.576117 1_555
I7 Sr1 3.156706 1_555
I8 Sr2 3.156706 1_555
I9 Sr3 3.523218 1_555
I9 Sr2 3.576117 1_555
I10 Sr3 3.257306 1_556
I11 Sr3 3.156706 1_555
I12 Sr0 3.199090 1_565
I12 Sr0 3.204293 1_555
I13 Sr2 3.523218 1_554
I13 Sr3 3.576117 1_555
I14 Sr2 3.257306 1_555
I15 Sr1 3.199090 1_565
I15 Sr1 3.204293 1_555
