# generated using pymatgen
data_Li3Co3NiO8
_symmetry_space_group_name_H-M   'P 1'
_cell_length_a   5.90067648
_cell_length_b   5.76802041
_cell_length_c   5.76801969
_cell_angle_alpha   59.99999938
_cell_angle_beta   60.74093947
_cell_angle_gamma   89.99999958
_symmetry_Int_Tables_number   1
_chemical_formula_structural   Li3Co3NiO8
_chemical_formula_sum   'Li3 Co3 Ni1 O8'
_cell_volume   140.35063995
_cell_formula_units_Z   1
loop_
 _symmetry_equiv_pos_site_id
 _symmetry_equiv_pos_as_xyz
  1  'x, y, z'
loop_
 _atom_site_type_symbol
 _atom_site_label
 _atom_site_symmetry_multiplicity
 _atom_site_fract_x
 _atom_site_fract_y
 _atom_site_fract_z
 _atom_site_occupancy
  Li  Li0  1  0.50000000  0.00000000  0.00000000  1
  Li  Li1  1  0.50000000  0.00000000  0.50000000  1
  Li  Li2  1  0.50000000  0.50000000  0.50000000  1
  Co  Co0  1  0.00000000  0.00000000  0.50000000  1
  Co  Co1  1  0.00000000  0.50000000  0.00000000  1
  Co  Co2  1  0.00000000  0.50000000  0.50000000  1
  Ni  Ni0  1  0.00000000  0.00000000  0.00000000  1
  O  O0  1  0.21692800  0.23164300  0.01471500  1
  O  O1  1  0.21692800  0.23164300  0.53671400  1
  O  O2  1  0.21692800  0.75364200  0.01471500  1
  O  O3  1  0.23073100  0.74357700  0.51284600  1
  O  O4  1  0.76926900  0.25642300  0.48715300  1
  O  O5  1  0.78307200  0.24635800  0.98528500  1
  O  O6  1  0.78307200  0.76835700  0.46328600  1
  O  O7  1  0.78307200  0.76835700  0.98528500  1
loop_
_geom_bond_atom_site_label_1
_geom_bond_atom_site_label_2
_geom_bond_distance
_geom_bond_site_symmetry_2
Li0 O3 2.119651 1_545
Li0 O4 2.119655 1_554
Li0 O7 2.134761 1_544
Li0 O0 2.134761 1_555
Li0 O5 2.134761 1_554
Li0 O2 2.134761 1_545
Li1 O4 2.119647 1_555
Li1 O3 2.119651 1_545
Li1 O2 2.134761 1_546
Li1 O5 2.134761 1_554
Li1 O6 2.134761 1_545
Li1 O1 2.134761 1_555
Li2 O3 2.119651 1_555
Li2 O4 2.119651 1_555
Li2 O0 2.134761 1_556
Li2 O7 2.134761 1_554
Li2 O6 2.134761 1_555
Li2 O1 2.134761 1_555
Co0 O7 2.004106 1_445
Co0 O0 2.004106 1_555
Co0 O1 2.004106 1_555
Co0 O6 2.004106 1_445
Co0 O3 2.008907 1_545
Co0 O4 2.008907 1_455
Co1 O0 2.004106 1_555
Co1 O7 2.004106 1_454
Co1 O2 2.004106 1_555
Co1 O5 2.004106 1_454
Co1 O4 2.008902 1_455
Co1 O3 2.008906 1_554
Co2 O5 2.004106 1_455
Co2 O2 2.004106 1_555
Co2 O1 2.004106 1_555
Co2 O6 2.004106 1_455
Co2 O3 2.008907 1_555
Co2 O4 2.008911 1_455
Ni0 O1 1.910625 1_554
Ni0 O6 1.910625 1_445
Ni0 O5 1.910625 1_454
Ni0 O2 1.910625 1_545
Ni0 O0 1.910625 1_555
Ni0 O7 1.910625 1_444
