# generated using pymatgen
data_LiFeSiO4
_symmetry_space_group_name_H-M   'P 1'
_cell_length_a   5.43843419
_cell_length_b   8.16104116
_cell_length_c   18.41021638
_cell_angle_alpha   90.00000000
_cell_angle_beta   90.00000000
_cell_angle_gamma   89.99918772
_symmetry_Int_Tables_number   1
_chemical_formula_structural   LiFeSiO4
_chemical_formula_sum   'Li12 Fe12 Si12 O48'
_cell_volume   817.10588544
_cell_formula_units_Z   12
loop_
 _symmetry_equiv_pos_site_id
 _symmetry_equiv_pos_as_xyz
  1  'x, y, z'
loop_
 _atom_site_type_symbol
 _atom_site_label
 _atom_site_symmetry_multiplicity
 _atom_site_fract_x
 _atom_site_fract_y
 _atom_site_fract_z
 _atom_site_occupancy
  Li  Li0  1  0.00946122  0.08001535  0.08303787  1
  Li  Li1  1  0.50165060  0.57963244  0.08314339  1
  Li  Li2  1  0.00579983  0.41818014  0.25000140  1
  Li  Li3  1  0.50579983  0.91818014  0.24999860  1
  Li  Li4  1  0.00165060  0.07963244  0.41685661  1
  Li  Li5  1  0.50946122  0.58001535  0.41696213  1
  Li  Li6  1  0.00948522  0.41999892  0.58302827  1
  Li  Li7  1  0.50158698  0.92036390  0.58314190  1
  Li  Li8  1  0.00569300  0.08189973  0.74998971  1
  Li  Li9  1  0.50569300  0.58189973  0.75001029  1
  Li  Li10  1  0.00158698  0.42036390  0.91685810  1
  Li  Li11  1  0.50948522  0.91999892  0.91697173  1
  Fe  Fe0  1  0.00562624  0.75001688  0.00001344  1
  Fe  Fe1  1  0.50563313  0.24994776  0.00001255  1
  Fe  Fe2  1  0.50714757  0.24947596  0.16674263  1
  Fe  Fe3  1  0.00537876  0.74959455  0.16668399  1
  Fe  Fe4  1  0.50537876  0.24959455  0.33331601  1
  Fe  Fe5  1  0.00714757  0.74947596  0.33325737  1
  Fe  Fe6  1  0.00563313  0.74994776  0.49998745  1
  Fe  Fe7  1  0.50562624  0.25001688  0.49998656  1
  Fe  Fe8  1  0.50718754  0.25054616  0.66672920  1
  Fe  Fe9  1  0.00543751  0.75039645  0.66666682  1
  Fe  Fe10  1  0.50543751  0.25039645  0.83333318  1
  Fe  Fe11  1  0.00718754  0.75054616  0.83327080  1
  Si  Si0  1  0.00594944  0.40194183  0.08338129  1
  Si  Si1  1  0.50584575  0.90183541  0.08343919  1
  Si  Si2  1  0.00636841  0.09725568  0.24997723  1
  Si  Si3  1  0.50636841  0.59725568  0.25002277  1
  Si  Si4  1  0.00584575  0.40183541  0.41656081  1
  Si  Si5  1  0.50594944  0.90194183  0.41661871  1
  Si  Si6  1  0.00594211  0.09805003  0.58336316  1
  Si  Si7  1  0.50589544  0.59816772  0.58342895  1
  Si  Si8  1  0.00639872  0.40272908  0.74997317  1
  Si  Si9  1  0.50639872  0.90272908  0.75002683  1
  Si  Si10  1  0.00589544  0.09816772  0.91657105  1
  Si  Si11  1  0.50594211  0.59805003  0.91663684  1
  O  O0  1  0.50612872  0.48516467  0.98838244  1
  O  O1  1  0.00612551  0.51479869  0.01164899  1
  O  O2  1  0.50486321  0.01478569  0.01174567  1
  O  O3  1  0.74486274  0.77482919  0.08330984  1
  O  O4  1  0.26598452  0.77534153  0.08333038  1
  O  O5  1  0.24584359  0.27541162  0.08332511  1
  O  O6  1  0.76700176  0.27487264  0.08329735  1
  O  O7  1  0.00650952  0.51434721  0.15526074  1
  O  O8  1  0.50590997  0.01422835  0.15532676  1
  O  O9  1  0.00615990  0.98489373  0.17809649  1
  O  O10  1  0.50660880  0.48473048  0.17819911  1
  O  O11  1  0.26714633  0.72429451  0.24996858  1
  O  O12  1  0.74572904  0.72418567  0.25000798  1
  O  O13  1  0.76714633  0.22429451  0.25003142  1
  O  O14  1  0.24572904  0.22418567  0.24999202  1
  O  O15  1  0.00660880  0.98473048  0.32180089  1
  O  O16  1  0.50615990  0.48489373  0.32190351  1
  O  O17  1  0.00590997  0.51422835  0.34467324  1
  O  O18  1  0.50650952  0.01434721  0.34473926  1
  O  O19  1  0.26700176  0.77487264  0.41670265  1
  O  O20  1  0.74584359  0.77541162  0.41667489  1
  O  O21  1  0.76598452  0.27534153  0.41666962  1
  O  O22  1  0.24486274  0.27482919  0.41669016  1
  O  O23  1  0.00486321  0.51478569  0.48825433  1
  O  O24  1  0.50612551  0.01479869  0.48835101  1
  O  O25  1  0.00612872  0.98516467  0.51161756  1
  O  O26  1  0.50487198  0.48520205  0.51171286  1
  O  O27  1  0.74489246  0.72518256  0.58329096  1
  O  O28  1  0.26602074  0.72466181  0.58332090  1
  O  O29  1  0.24584848  0.22458031  0.58330375  1
  O  O30  1  0.76697420  0.22512609  0.58328210  1
  O  O31  1  0.00654512  0.98564438  0.65522513  1
  O  O32  1  0.50595711  0.48581221  0.65531148  1
  O  O33  1  0.00619775  0.51508927  0.67808321  1
  O  O34  1  0.50661326  0.01527484  0.67820298  1
  O  O35  1  0.74578983  0.77580995  0.75000853  1
  O  O36  1  0.26717197  0.77568456  0.74996954  1
  O  O37  1  0.24578983  0.27580995  0.74999147  1
  O  O38  1  0.76717197  0.27568456  0.75003046  1
  O  O39  1  0.00661326  0.51527484  0.82179702  1
  O  O40  1  0.50619775  0.01508927  0.82191679  1
  O  O41  1  0.00595711  0.98581221  0.84468852  1
  O  O42  1  0.50654512  0.48564438  0.84477487  1
  O  O43  1  0.26697420  0.72512609  0.91671790  1
  O  O44  1  0.74584848  0.72458031  0.91669625  1
  O  O45  1  0.76602074  0.22466181  0.91667910  1
  O  O46  1  0.24489246  0.22518256  0.91670904  1
  O  O47  1  0.00487198  0.98520205  0.98828714  1
loop_
_geom_bond_atom_site_label_1
_geom_bond_atom_site_label_2
_geom_bond_distance
_geom_bond_site_symmetry_2
Li0 O47 1.908460 1_544
Li0 O9 1.914582 1_545
Li0 O5 2.048314 1_555
Li0 O6 2.065799 1_455
Li1 O0 1.907482 1_554
Li1 O10 1.913913 1_555
Li1 O4 2.047830 1_555
Li1 O3 2.070571 1_555
Li2 O17 1.911080 1_555
Li2 O7 1.912638 1_555
Li2 O13 2.046535 1_455
Li2 O14 2.051599 1_555
Li3 O8 1.911080 1_565
Li3 O18 1.912638 1_565
Li3 O11 2.046535 1_555
Li3 O12 2.051599 1_555
Li4 O25 1.907482 1_545
Li4 O15 1.913913 1_545
Li4 O21 2.047830 1_455
Li4 O22 2.070571 1_555
Li5 O26 1.908460 1_555
Li5 O16 1.914582 1_555
Li5 O20 2.048314 1_555
Li5 O19 2.065799 1_555
Li6 O23 1.908765 1_555
Li6 O33 1.914416 1_555
Li6 O29 2.048362 1_555
Li6 O30 2.066104 1_455
Li7 O24 1.907882 1_565
Li7 O34 1.914038 1_565
Li7 O28 2.047474 1_555
Li7 O27 2.070769 1_555
Li8 O41 1.911665 1_545
Li8 O31 1.913337 1_545
Li8 O38 2.045414 1_455
Li8 O37 2.051677 1_555
Li9 O32 1.911665 1_555
Li9 O42 1.913337 1_555
Li9 O36 2.045414 1_555
Li9 O35 2.051677 1_555
Li10 O1 1.907882 1_556
Li10 O39 1.914038 1_555
Li10 O45 2.047474 1_455
Li10 O46 2.070769 1_555
Li11 O2 1.908765 1_566
Li11 O40 1.914416 1_565
Li11 O44 2.048362 1_555
Li11 O43 2.066104 1_555
Fe0 O47 1.931463 1_554
Fe0 O1 1.931542 1_555
Fe0 O44 2.095679 1_454
Fe0 O4 2.097715 1_555
Fe0 O3 2.098516 1_455
Fe0 O43 2.100715 1_554
Fe1 O2 1.931290 1_555
Fe1 O0 1.931521 1_554
Fe1 O5 2.095678 1_555
Fe1 O45 2.098010 1_554
Fe1 O46 2.098494 1_554
Fe1 O6 2.100678 1_555
Fe2 O8 1.931347 1_555
Fe2 O10 1.931475 1_555
Fe2 O13 2.095898 1_555
Fe2 O6 2.097654 1_555
Fe2 O14 2.100677 1_555
Fe2 O5 2.103035 1_555
Fe3 O7 1.931357 1_555
Fe3 O9 1.931751 1_555
Fe3 O12 2.095279 1_455
Fe3 O3 2.098988 1_455
Fe3 O4 2.099460 1_555
Fe3 O11 2.102438 1_555
Fe4 O18 1.931357 1_555
Fe4 O16 1.931751 1_555
Fe4 O14 2.095279 1_555
Fe4 O22 2.098988 1_555
Fe4 O21 2.099460 1_555
Fe4 O13 2.102438 1_555
Fe5 O17 1.931347 1_555
Fe5 O15 1.931475 1_555
Fe5 O11 2.095898 1_555
Fe5 O19 2.097654 1_555
Fe5 O12 2.100677 1_455
Fe5 O20 2.103035 1_455
Fe6 O23 1.931290 1_555
Fe6 O25 1.931521 1_555
Fe6 O20 2.095678 1_455
Fe6 O28 2.098010 1_555
Fe6 O27 2.098494 1_455
Fe6 O19 2.100678 1_555
Fe7 O26 1.931463 1_555
Fe7 O24 1.931542 1_555
Fe7 O29 2.095679 1_555
Fe7 O21 2.097715 1_555
Fe7 O22 2.098516 1_555
Fe7 O30 2.100715 1_555
Fe8 O32 1.931500 1_555
Fe8 O34 1.931646 1_555
Fe8 O38 2.095983 1_555
Fe8 O30 2.097446 1_555
Fe8 O37 2.100748 1_555
Fe8 O29 2.103299 1_555
Fe9 O31 1.931399 1_555
Fe9 O33 1.931823 1_555
Fe9 O35 2.095510 1_455
Fe9 O27 2.099105 1_455
Fe9 O28 2.099259 1_555
Fe9 O36 2.102554 1_555
Fe10 O42 1.931399 1_555
Fe10 O40 1.931823 1_555
Fe10 O37 2.095510 1_555
Fe10 O46 2.099105 1_555
Fe10 O45 2.099259 1_555
Fe10 O38 2.102554 1_555
Fe11 O41 1.931500 1_555
Fe11 O39 1.931646 1_555
Fe11 O36 2.095983 1_555
Fe11 O43 2.097446 1_555
Fe11 O35 2.100748 1_455
Fe11 O44 2.103299 1_455
O0 Si11 1.610396 1_555
O1 Si0 1.610062 1_555
O2 Si1 1.609921 1_545
O3 Si1 1.662525 1_555
O4 Si1 1.663542 1_555
O5 Si0 1.663842 1_555
O6 Si0 1.662573 1_655
O7 Si0 1.610185 1_555
O8 Si1 1.610248 1_545
O9 Si2 1.610000 1_565
O10 Si3 1.609897 1_555
O11 Si3 1.663562 1_555
O12 Si3 1.663620 1_555
O13 Si2 1.663562 1_655
O14 Si2 1.663620 1_555
O15 Si2 1.609897 1_565
O16 Si3 1.610000 1_555
O17 Si4 1.610248 1_555
O18 Si5 1.610185 1_545
O19 Si5 1.662573 1_555
O20 Si5 1.663842 1_555
O21 Si4 1.663542 1_655
O22 Si4 1.662525 1_555
O23 Si4 1.609921 1_555
O24 Si5 1.610062 1_545
O25 Si6 1.610396 1_565
O26 Si7 1.610335 1_555
O27 Si7 1.662507 1_555
O28 Si7 1.663577 1_555
O29 Si6 1.663918 1_555
O30 Si6 1.662671 1_655
O31 Si6 1.609923 1_565
O32 Si7 1.609997 1_555
O33 Si8 1.610132 1_555
O34 Si9 1.609995 1_545
O35 Si9 1.663672 1_555
O36 Si9 1.663633 1_555
O37 Si8 1.663672 1_555
O38 Si8 1.663633 1_655
O39 Si8 1.609995 1_555
O40 Si9 1.610132 1_545
O41 Si10 1.609997 1_565
O42 Si11 1.609923 1_555
O43 Si11 1.662671 1_555
O44 Si11 1.663918 1_555
O45 Si10 1.663577 1_655
O46 Si10 1.662507 1_555
O47 Si10 1.610335 1_565
