# generated using pymatgen
data_RbSi2Mo3P6O25
_symmetry_space_group_name_H-M   'P 1'
_cell_length_a   9.21373289
_cell_length_b   9.21373289
_cell_length_c   13.12597400
_cell_angle_alpha   90.00000000
_cell_angle_beta   90.00000000
_cell_angle_gamma   120.00000637
_symmetry_Int_Tables_number   1
_chemical_formula_structural   RbSi2Mo3P6O25
_chemical_formula_sum   'Rb2 Si4 Mo6 P12 O50'
_cell_volume   965.01347718
_cell_formula_units_Z   2
loop_
 _symmetry_equiv_pos_site_id
 _symmetry_equiv_pos_as_xyz
  1  'x, y, z'
loop_
 _atom_site_type_symbol
 _atom_site_label
 _atom_site_symmetry_multiplicity
 _atom_site_fract_x
 _atom_site_fract_y
 _atom_site_fract_z
 _atom_site_occupancy
  Rb  Rb0  1  0.66666700  0.33333300  0.75000000  1
  Rb  Rb1  1  0.33333300  0.66666700  0.25000000  1
  Si  Si0  1  0.00000000  0.00000000  0.86636800  1
  Si  Si1  1  0.00000000  0.00000000  0.63363200  1
  Si  Si2  1  0.00000000  0.00000000  0.36636800  1
  Si  Si3  1  0.00000000  0.00000000  0.13363200  1
  Mo  Mo0  1  0.66666700  0.33333300  0.25000000  1
  Mo  Mo1  1  0.66666700  0.33333300  0.49243700  1
  Mo  Mo2  1  0.66666700  0.33333300  0.00756300  1
  Mo  Mo3  1  0.33333300  0.66666700  0.99243700  1
  Mo  Mo4  1  0.33333300  0.66666700  0.50756300  1
  Mo  Mo5  1  0.33333300  0.66666700  0.75000000  1
  P  P0  1  0.93536100  0.55971100  0.10340200  1
  P  P1  1  0.44028900  0.06463900  0.39659800  1
  P  P2  1  0.93536100  0.37565000  0.39659800  1
  P  P3  1  0.44028900  0.37565000  0.10340200  1
  P  P4  1  0.62435000  0.06463900  0.10340200  1
  P  P5  1  0.37565000  0.44028900  0.60340200  1
  P  P6  1  0.62435000  0.55971100  0.39659800  1
  P  P7  1  0.37565000  0.93536100  0.89659800  1
  P  P8  1  0.55971100  0.62435000  0.89659800  1
  P  P9  1  0.06463900  0.62435000  0.60340200  1
  P  P10  1  0.55971100  0.93536100  0.60340200  1
  P  P11  1  0.06463900  0.44028900  0.89659800  1
  O  O0  1  0.59041800  0.11166900  0.58602300  1
  O  O1  1  0.47874900  0.88833100  0.08602300  1
  O  O2  1  0.61695900  0.77017700  0.96995800  1
  O  O3  1  0.84678100  0.22982300  0.46995800  1
  O  O4  1  0.66723700  0.56542700  0.28574100  1
  O  O5  1  0.10181000  0.43457300  0.78574100  1
  O  O6  1  0.88833100  0.40958200  0.91397700  1
  O  O7  1  0.47874900  0.59041800  0.41397700  1
  O  O8  1  0.66723700  0.10181000  0.21425900  1
  O  O9  1  0.56542700  0.89819000  0.71425900  1
  O  O10  1  0.22982300  0.38304100  0.53004200  1
  O  O11  1  0.84678100  0.61695900  0.03004200  1
  O  O12  1  0.80852900  0.88898300  0.19245300  1
  O  O13  1  0.91954600  0.11101700  0.69245300  1
  O  O14  1  0.11166900  0.52125100  0.41397700  1
  O  O15  1  0.59041800  0.47874900  0.91397700  1
  O  O16  1  0.88898300  0.08045400  0.80754700  1
  O  O17  1  0.80852900  0.91954600  0.30754700  1
  O  O18  1  0.77017700  0.15321900  0.03004200  1
  O  O19  1  0.61695900  0.84678100  0.53004200  1
  O  O20  1  0.11101700  0.19147100  0.30754700  1
  O  O21  1  0.91954600  0.80852900  0.80754700  1
  O  O22  1  0.43457300  0.33276300  0.21425900  1
  O  O23  1  0.10181000  0.66723700  0.71425900  1
  O  O24  1  0.00000000  0.00000000  0.00000000  1
  O  O25  1  0.00000000  0.00000000  0.50000000  1
  O  O26  1  0.89819000  0.33276300  0.28574100  1
  O  O27  1  0.56542700  0.66723700  0.78574100  1
  O  O28  1  0.08045400  0.19147100  0.19245300  1
  O  O29  1  0.88898300  0.80852900  0.69245300  1
  O  O30  1  0.38304100  0.15321900  0.46995800  1
  O  O31  1  0.22982300  0.84678100  0.96995800  1
  O  O32  1  0.19147100  0.08045400  0.69245300  1
  O  O33  1  0.11101700  0.91954600  0.19245300  1
  O  O34  1  0.40958200  0.52125100  0.08602300  1
  O  O35  1  0.88833100  0.47874900  0.58602300  1
  O  O36  1  0.08045400  0.88898300  0.30754700  1
  O  O37  1  0.19147100  0.11101700  0.80754700  1
  O  O38  1  0.15321900  0.38304100  0.96995800  1
  O  O39  1  0.77017700  0.61695900  0.46995800  1
  O  O40  1  0.43457300  0.10181000  0.28574100  1
  O  O41  1  0.33276300  0.89819000  0.78574100  1
  O  O42  1  0.52125100  0.40958200  0.58602300  1
  O  O43  1  0.11166900  0.59041800  0.08602300  1
  O  O44  1  0.89819000  0.56542700  0.21425900  1
  O  O45  1  0.33276300  0.43457300  0.71425900  1
  O  O46  1  0.15321900  0.77017700  0.53004200  1
  O  O47  1  0.38304100  0.22982300  0.03004200  1
  O  O48  1  0.52125100  0.11166900  0.91397700  1
  O  O49  1  0.40958200  0.88833100  0.41397700  1
loop_
_geom_bond_atom_site_label_1
_geom_bond_atom_site_label_2
_geom_bond_distance
_geom_bond_site_symmetry_2
Mo0 O8 2.186738 1_555
Mo0 O26 2.186738 1_555
Mo0 O40 2.186742 1_555
Mo0 O44 2.186742 1_555
Mo0 O22 2.186747 1_555
Mo0 O4 2.186747 1_555
Mo1 O0 2.176906 1_555
Mo1 O35 2.176907 1_555
Mo1 O42 2.176913 1_555
Mo1 O3 2.309405 1_555
Mo1 O30 2.309419 1_555
Mo1 O39 2.309422 1_555
Mo2 O6 2.176906 1_554
Mo2 O48 2.176907 1_554
Mo2 O15 2.176913 1_554
Mo2 O18 2.309405 1_555
Mo2 O11 2.309419 1_555
Mo2 O47 2.309422 1_555
Mo3 O43 2.176906 1_556
Mo3 O1 2.176907 1_556
Mo3 O34 2.176913 1_556
Mo3 O31 2.309405 1_555
Mo3 O38 2.309419 1_555
Mo3 O2 2.309422 1_555
Mo4 O49 2.176906 1_555
Mo4 O14 2.176907 1_555
Mo4 O7 2.176913 1_555
Mo4 O46 2.309405 1_555
Mo4 O19 2.309419 1_555
Mo4 O10 2.309422 1_555
Mo5 O23 2.186738 1_555
Mo5 O41 2.186738 1_555
Mo5 O5 2.186742 1_555
Mo5 O9 2.186742 1_555
Mo5 O27 2.186747 1_555
Mo5 O45 2.186747 1_555
O0 P10 1.520308 1_545
O0 Rb0 2.804029 1_555
O1 P4 1.520308 1_565
O1 Rb1 2.804030 1_555
O2 P8 1.517241 1_555
O3 P2 1.517241 1_555
O4 P6 1.501812 1_555
O5 P11 1.501812 1_555
O6 P11 1.520308 1_655
O6 Rb0 2.804029 1_555
O7 P6 1.520308 1_555
O7 Rb1 2.804035 1_555
O8 P4 1.501812 1_555
O9 P10 1.501812 1_555
O10 P5 1.517241 1_555
O11 P0 1.517247 1_555
O12 Si3 1.717597 1_665
O13 Si1 1.717597 1_655
O14 P2 1.520308 1_455
O14 Rb1 2.804030 1_555
O15 P8 1.520308 1_555
O15 Rb0 2.804035 1_555
O16 Si0 1.717597 1_655
O17 Si2 1.717597 1_665
O18 P4 1.517241 1_555
O19 P10 1.517247 1_555
O20 Si2 1.717597 1_555
O21 Si0 1.717597 1_665
O22 P3 1.501812 1_555
O23 P9 1.501812 1_555
O24 Si0 1.754050 1_554
O24 Si3 1.754050 1_555
O25 Si1 1.754050 1_555
O25 Si2 1.754050 1_555
O26 P2 1.501812 1_555
O27 P8 1.501812 1_555
O28 Si3 1.717597 1_555
O29 Si1 1.717597 1_665
O30 P1 1.517247 1_555
O31 P7 1.517241 1_555
O32 Si1 1.717597 1_555
O33 Si3 1.717597 1_565
O34 P3 1.520308 1_555
O34 Rb1 2.804035 1_555
O35 P9 1.520308 1_655
O35 Rb0 2.804030 1_555
O36 Si2 1.717597 1_565
O37 Si0 1.717597 1_555
O38 P11 1.517247 1_555
O39 P6 1.517241 1_555
O40 P1 1.501812 1_555
O41 P7 1.501812 1_555
O42 P5 1.520308 1_555
O42 Rb0 2.804035 1_555
O43 P0 1.520308 1_455
O43 Rb1 2.804029 1_555
O44 P0 1.501812 1_555
O45 P5 1.501812 1_555
O46 P9 1.517241 1_555
O47 P3 1.517241 1_555
O48 P7 1.520308 1_545
O48 Rb0 2.804030 1_555
O49 P1 1.520308 1_565
O49 Rb1 2.804029 1_555
