# generated using pymatgen
data_Na2Fe2O5
_symmetry_space_group_name_H-M   'P 1'
_cell_length_a   5.42084900
_cell_length_b   5.53526500
_cell_length_c   14.55295300
_cell_angle_alpha   90.00000000
_cell_angle_beta   90.00000000
_cell_angle_gamma   90.00000000
_symmetry_Int_Tables_number   1
_chemical_formula_structural   Na2Fe2O5
_chemical_formula_sum   'Na8 Fe8 O20'
_cell_volume   436.67351725
_cell_formula_units_Z   4
loop_
 _symmetry_equiv_pos_site_id
 _symmetry_equiv_pos_as_xyz
  1  'x, y, z'
loop_
 _atom_site_type_symbol
 _atom_site_label
 _atom_site_symmetry_multiplicity
 _atom_site_fract_x
 _atom_site_fract_y
 _atom_site_fract_z
 _atom_site_occupancy
  Na  Na0  1  0.51523600  0.02238800  0.60771800  1
  Na  Na1  1  0.51523600  0.02238800  0.89228200  1
  Na  Na2  1  0.01523600  0.47761200  0.60771800  1
  Na  Na3  1  0.01523600  0.47761200  0.89228200  1
  Na  Na4  1  0.98476400  0.52238800  0.10771800  1
  Na  Na5  1  0.98476400  0.52238800  0.39228200  1
  Na  Na6  1  0.48476400  0.97761200  0.10771800  1
  Na  Na7  1  0.48476400  0.97761200  0.39228200  1
  Fe  Fe0  1  0.00000000  0.00000000  0.50000000  1
  Fe  Fe1  1  0.00000000  0.00000000  0.00000000  1
  Fe  Fe2  1  0.95146700  0.07018300  0.25000000  1
  Fe  Fe3  1  0.45146700  0.42981700  0.25000000  1
  Fe  Fe4  1  0.50000000  0.50000000  0.50000000  1
  Fe  Fe5  1  0.50000000  0.50000000  0.00000000  1
  Fe  Fe6  1  0.54853300  0.57018300  0.75000000  1
  Fe  Fe7  1  0.04853300  0.92981700  0.75000000  1
  O  O0  1  0.98421500  0.05569600  0.63865800  1
  O  O1  1  0.98421500  0.05569600  0.86134200  1
  O  O2  1  0.61222600  0.13124500  0.25000000  1
  O  O3  1  0.74545200  0.24208500  0.01175300  1
  O  O4  1  0.74545200  0.24208500  0.48824700  1
  O  O5  1  0.24545200  0.25791500  0.01175300  1
  O  O6  1  0.24545200  0.25791500  0.48824700  1
  O  O7  1  0.11222600  0.36875500  0.25000000  1
  O  O8  1  0.48421500  0.44430400  0.63865800  1
  O  O9  1  0.48421500  0.44430400  0.86134200  1
  O  O10  1  0.51578500  0.55569600  0.13865800  1
  O  O11  1  0.51578500  0.55569600  0.36134200  1
  O  O12  1  0.88777400  0.63124500  0.75000000  1
  O  O13  1  0.75454800  0.74208500  0.51175300  1
  O  O14  1  0.75454800  0.74208500  0.98824700  1
  O  O15  1  0.25454800  0.75791500  0.98824700  1
  O  O16  1  0.25454800  0.75791500  0.51175300  1
  O  O17  1  0.38777400  0.86875500  0.75000000  1
  O  O18  1  0.01578500  0.94430400  0.13865800  1
  O  O19  1  0.01578500  0.94430400  0.36134200  1
loop_
_geom_bond_atom_site_label_1
_geom_bond_atom_site_label_2
_geom_bond_distance
_geom_bond_site_symmetry_2
Na0 O17 2.342664 1_545
Na0 O8 2.384364 1_555
Na0 O13 2.457774 1_545
Na0 O4 2.461544 1_555
Na0 O16 2.467894 1_545
Na0 O0 2.588405 1_555
Na0 O6 2.619419 1_555
Na0 O0 2.919415 1_455
Na1 O17 2.342664 1_545
Na1 O9 2.384364 1_555
Na1 O14 2.457774 1_545
Na1 O3 2.461544 1_556
Na1 O15 2.467894 1_545
Na1 O1 2.588405 1_555
Na1 O5 2.619419 1_556
Na1 O1 2.919415 1_455
Na2 O12 2.342664 1_455
Na2 O0 2.384364 1_455
Na2 O16 2.457774 1_555
Na2 O6 2.461544 1_555
Na2 O13 2.467894 1_455
Na2 O8 2.588405 1_555
Na2 O4 2.619419 1_455
Na2 O8 2.919415 1_455
Na3 O12 2.342664 1_455
Na3 O1 2.384364 1_455
Na3 O15 2.457774 1_555
Na3 O5 2.461544 1_556
Na3 O14 2.467894 1_455
Na3 O9 2.588405 1_555
Na3 O3 2.619419 1_456
Na3 O9 2.919415 1_455
Na4 O7 2.342664 1_655
Na4 O18 2.384364 1_655
Na4 O3 2.457774 1_555
Na4 O14 2.461544 1_554
Na4 O5 2.467894 1_655
Na4 O10 2.588405 1_555
Na4 O15 2.619419 1_654
Na4 O10 2.919415 1_655
Na5 O7 2.342664 1_655
Na5 O19 2.384364 1_655
Na5 O4 2.457774 1_555
Na5 O13 2.461544 1_555
Na5 O6 2.467894 1_655
Na5 O11 2.588405 1_555
Na5 O16 2.619419 1_655
Na5 O11 2.919415 1_655
Na6 O2 2.342664 1_565
Na6 O10 2.384364 1_555
Na6 O5 2.457774 1_565
Na6 O15 2.461544 1_554
Na6 O3 2.467894 1_565
Na6 O18 2.588405 1_555
Na6 O14 2.619419 1_554
Na6 O18 2.919415 1_655
Na7 O2 2.342664 1_565
Na7 O11 2.384364 1_555
Na7 O6 2.457774 1_565
Na7 O16 2.461544 1_555
Na7 O4 2.467894 1_565
Na7 O19 2.588405 1_555
Na7 O13 2.619419 1_555
Na7 O19 2.919415 1_655
Fe0 O16 1.931036 1_545
Fe0 O4 1.931036 1_455
Fe0 O6 1.959021 1_555
Fe0 O13 1.959021 1_445
Fe0 O0 2.043091 1_455
Fe0 O19 2.043091 1_545
Fe1 O15 1.931036 1_544
Fe1 O3 1.931036 1_455
Fe1 O5 1.959021 1_555
Fe1 O14 1.959021 1_444
Fe1 O18 2.043091 1_545
Fe1 O1 2.043091 1_454
Fe2 O18 1.797945 1_645
Fe2 O19 1.797945 1_645
Fe2 O7 1.868358 1_655
Fe2 O2 1.869777 1_555
Fe3 O10 1.797945 1_555
Fe3 O11 1.797945 1_555
Fe3 O2 1.868358 1_555
Fe3 O7 1.869777 1_555
Fe4 O13 1.931036 1_555
Fe4 O6 1.931036 1_555
Fe4 O4 1.959021 1_555
Fe4 O16 1.959021 1_555
Fe4 O8 2.043091 1_555
Fe4 O11 2.043091 1_555
Fe5 O14 1.931036 1_554
Fe5 O5 1.931036 1_555
Fe5 O3 1.959021 1_555
Fe5 O15 1.959021 1_554
Fe5 O10 2.043091 1_555
Fe5 O9 2.043091 1_554
Fe6 O9 1.797945 1_555
Fe6 O8 1.797945 1_555
Fe6 O17 1.868358 1_555
Fe6 O12 1.869777 1_555
Fe7 O1 1.797945 1_465
Fe7 O0 1.797945 1_465
Fe7 O12 1.868358 1_455
Fe7 O17 1.869777 1_555
