# generated using pymatgen
data_K2MgO2
_symmetry_space_group_name_H-M   'P 1'
_cell_length_a   5.43970098
_cell_length_b   5.96587279
_cell_length_c   10.40397358
_cell_angle_alpha   90.00000000
_cell_angle_beta   90.00000000
_cell_angle_gamma   90.00000000
_symmetry_Int_Tables_number   1
_chemical_formula_structural   K2MgO2
_chemical_formula_sum   'K8 Mg4 O8'
_cell_volume   337.63561911
_cell_formula_units_Z   4
loop_
 _symmetry_equiv_pos_site_id
 _symmetry_equiv_pos_as_xyz
  1  'x, y, z'
loop_
 _atom_site_type_symbol
 _atom_site_label
 _atom_site_symmetry_multiplicity
 _atom_site_fract_x
 _atom_site_fract_y
 _atom_site_fract_z
 _atom_site_occupancy
  K  K0  1  0.96667108  0.37577005  0.15501626  1
  K  K1  1  0.46667108  0.62422995  0.15501626  1
  K  K2  1  0.46667108  0.12422995  0.34498374  1
  K  K3  1  0.96667108  0.87577005  0.34498374  1
  K  K4  1  0.03332892  0.12422995  0.65501626  1
  K  K5  1  0.53332892  0.87577005  0.65501626  1
  K  K6  1  0.53332892  0.37577005  0.84498374  1
  K  K7  1  0.03332892  0.62422995  0.84498374  1
  Mg  Mg0  1  0.25000000  0.00837180  -0.00000000  1
  Mg  Mg1  1  0.75000000  0.99162820  -0.00000000  1
  Mg  Mg2  1  0.75000000  0.49162820  0.50000000  1
  Mg  Mg3  1  0.25000000  0.50837180  0.50000000  1
  O  O0  1  0.00487614  0.81960586  0.09450354  1
  O  O1  1  0.50487614  0.18039414  0.09450354  1
  O  O2  1  0.00487614  0.31960586  0.40549646  1
  O  O3  1  0.50487614  0.68039414  0.40549646  1
  O  O4  1  0.49512386  0.31960586  0.59450354  1
  O  O5  1  0.99512386  0.68039414  0.59450354  1
  O  O6  1  0.99512386  0.18039414  0.90549646  1
  O  O7  1  0.49512386  0.81960586  0.90549646  1
loop_
_geom_bond_atom_site_label_1
_geom_bond_atom_site_label_2
_geom_bond_distance
_geom_bond_site_symmetry_2
K0 O2 2.635648 1_655
K0 O0 2.729608 1_655
K0 O1 2.839935 1_555
K0 O6 2.849869 1_554
K1 O3 2.635648 1_555
K1 O1 2.729608 1_555
K1 O0 2.839935 1_555
K1 O7 2.849869 1_554
K2 O1 2.635648 1_555
K2 O3 2.729608 1_545
K2 O2 2.839935 1_555
K2 O4 2.849869 1_555
K3 O0 2.635648 1_655
K3 O2 2.729608 1_665
K3 O3 2.839935 1_555
K3 O5 2.849869 1_555
K4 O6 2.635648 1_455
K4 O5 2.729608 1_445
K4 O4 2.839935 1_555
K4 O2 2.849869 1_555
K5 O7 2.635648 1_555
K5 O4 2.729608 1_565
K5 O5 2.839935 1_555
K5 O3 2.849869 1_555
K6 O4 2.635648 1_555
K6 O7 2.729608 1_555
K6 O6 2.839935 1_555
K6 O1 2.849869 1_556
K7 O5 2.635648 1_455
K7 O6 2.729608 1_455
K7 O7 2.839935 1_555
K7 O0 2.849869 1_556
Mg0 O6 1.985489 1_454
Mg0 O1 1.985489 1_555
Mg0 O0 2.003219 1_545
Mg0 O7 2.003219 1_544
Mg1 O7 1.985489 1_554
Mg1 O0 1.985489 1_655
Mg1 O6 2.003219 1_564
Mg1 O1 2.003219 1_565
Mg2 O2 1.985489 1_655
Mg2 O4 1.985489 1_555
Mg2 O3 2.003219 1_555
Mg2 O5 2.003219 1_555
Mg3 O3 1.985489 1_555
Mg3 O5 1.985489 1_455
Mg3 O2 2.003219 1_555
Mg3 O4 2.003219 1_555
