# generated using pymatgen
data_Li2Ni3SnO8
_symmetry_space_group_name_H-M   'P 1'
_cell_length_a   5.84365416
_cell_length_b   5.84365416
_cell_length_c   9.53811300
_cell_angle_alpha   90.00000000
_cell_angle_beta   90.00000000
_cell_angle_gamma   120.00000181
_symmetry_Int_Tables_number   1
_chemical_formula_structural   Li2Ni3SnO8
_chemical_formula_sum   'Li4 Ni6 Sn2 O16'
_cell_volume   282.07337714
_cell_formula_units_Z   2
loop_
 _symmetry_equiv_pos_site_id
 _symmetry_equiv_pos_as_xyz
  1  'x, y, z'
loop_
 _atom_site_type_symbol
 _atom_site_label
 _atom_site_symmetry_multiplicity
 _atom_site_fract_x
 _atom_site_fract_y
 _atom_site_fract_z
 _atom_site_occupancy
  Li  Li0  1  0.33333300  0.66666700  0.89102900  1
  Li  Li1  1  0.00000000  0.00000000  0.99518900  1
  Li  Li2  1  0.00000000  0.00000000  0.49518900  1
  Li  Li3  1  0.66666700  0.33333300  0.39102900  1
  Ni  Ni0  1  0.16977800  0.83022200  0.21504900  1
  Ni  Ni1  1  0.16977800  0.33955500  0.21504900  1
  Ni  Ni2  1  0.66044500  0.83022200  0.21504900  1
  Ni  Ni3  1  0.33955500  0.16977800  0.71504900  1
  Ni  Ni4  1  0.83022200  0.66044500  0.71504900  1
  Ni  Ni5  1  0.83022200  0.16977800  0.71504900  1
  Sn  Sn0  1  0.33333300  0.66666700  0.49308700  1
  Sn  Sn1  1  0.66666700  0.33333300  0.99308700  1
  O  O0  1  0.15859100  0.84140900  0.60140600  1
  O  O1  1  0.03365400  0.51682700  0.33523100  1
  O  O2  1  0.33333300  0.66666700  0.11165100  1
  O  O3  1  0.00000000  0.00000000  0.30517500  1
  O  O4  1  0.00000000  0.00000000  0.80517500  1
  O  O5  1  0.15859100  0.31718300  0.60140600  1
  O  O6  1  0.48317300  0.96634600  0.33523100  1
  O  O7  1  0.48317300  0.51682700  0.33523100  1
  O  O8  1  0.31718300  0.15859100  0.10140600  1
  O  O9  1  0.68281700  0.84140900  0.60140600  1
  O  O10  1  0.51682700  0.48317300  0.83523100  1
  O  O11  1  0.51682700  0.03365400  0.83523100  1
  O  O12  1  0.66666700  0.33333300  0.61165100  1
  O  O13  1  0.84140900  0.68281700  0.10140600  1
  O  O14  1  0.96634600  0.48317300  0.83523100  1
  O  O15  1  0.84140900  0.15859100  0.10140600  1
loop_
_geom_bond_atom_site_label_1
_geom_bond_atom_site_label_2
_geom_bond_distance
_geom_bond_site_symmetry_2
Li0 O14 1.931981 1_455
Li0 O11 1.931981 1_565
Li0 O10 1.931986 1_555
Li0 O2 2.104318 1_556
Li1 O4 1.812375 1_555
Li1 O15 1.898155 1_456
Li1 O13 1.898160 1_446
Li1 O8 1.898160 1_556
Li2 O3 1.812375 1_555
Li2 O0 1.898155 1_545
Li2 O9 1.898160 1_445
Li2 O5 1.898160 1_555
Li3 O6 1.931981 1_545
Li3 O1 1.931981 1_655
Li3 O7 1.931986 1_555
Li3 O12 2.104318 1_555
Ni0 O3 1.921431 1_565
Ni0 O2 1.926930 1_555
Ni0 O1 1.960592 1_555
Ni0 O6 1.960592 1_555
Ni0 O8 1.986479 1_565
Ni0 O13 1.986479 1_455
Ni1 O3 1.921426 1_555
Ni1 O2 1.926938 1_555
Ni1 O7 1.960593 1_555
Ni1 O1 1.960597 1_555
Ni1 O15 1.986479 1_455
Ni1 O8 1.986479 1_555
Ni2 O3 1.921426 1_665
Ni2 O2 1.926938 1_555
Ni2 O7 1.960593 1_555
Ni2 O6 1.960597 1_555
Ni2 O15 1.986479 1_565
Ni2 O13 1.986479 1_555
Ni3 O4 1.921426 1_555
Ni3 O12 1.926938 1_555
Ni3 O10 1.960593 1_555
Ni3 O11 1.960597 1_555
Ni3 O0 1.986479 1_545
Ni3 O5 1.986479 1_555
Ni4 O4 1.921426 1_665
Ni4 O12 1.926938 1_555
Ni4 O10 1.960593 1_555
Ni4 O14 1.960597 1_555
Ni4 O0 1.986479 1_655
Ni4 O9 1.986479 1_555
Ni5 O4 1.921431 1_655
Ni5 O12 1.926930 1_555
Ni5 O11 1.960592 1_555
Ni5 O14 1.960592 1_555
Ni5 O5 1.986479 1_655
Ni5 O9 1.986479 1_545
O0 Sn0 2.048304 1_555
O1 Sn0 2.137067 1_555
O5 Sn0 2.048304 1_555
O6 Sn0 2.137067 1_555
O7 Sn0 2.137071 1_555
O8 Sn1 2.048304 1_554
O9 Sn0 2.048304 1_555
O10 Sn1 2.137071 1_555
O11 Sn1 2.137067 1_555
O13 Sn1 2.048304 1_554
O14 Sn1 2.137067 1_555
O15 Sn1 2.048304 1_554
