# generated using pymatgen
data_K2HI2ClO6
_symmetry_space_group_name_H-M   'P 1'
_cell_length_a   6.67371500
_cell_length_b   8.77393600
_cell_length_c   15.18664800
_cell_angle_alpha   90.00000000
_cell_angle_beta   90.00000000
_cell_angle_gamma   90.00000000
_symmetry_Int_Tables_number   1
_chemical_formula_structural   K2HI2ClO6
_chemical_formula_sum   'K8 H4 I8 Cl4 O24'
_cell_volume   889.25035104
_cell_formula_units_Z   4
loop_
 _symmetry_equiv_pos_site_id
 _symmetry_equiv_pos_as_xyz
  1  'x, y, z'
loop_
 _atom_site_type_symbol
 _atom_site_label
 _atom_site_symmetry_multiplicity
 _atom_site_fract_x
 _atom_site_fract_y
 _atom_site_fract_z
 _atom_site_occupancy
  K  K0  1  0.01972400  0.23854500  0.01536100  1
  K  K1  1  0.98027600  0.73854500  0.98463900  1
  K  K2  1  0.01972400  0.73854500  0.48463900  1
  K  K3  1  0.98027600  0.23854500  0.51536100  1
  K  K4  1  0.44151400  0.74527500  0.76390400  1
  K  K5  1  0.55848600  0.24527500  0.23609600  1
  K  K6  1  0.44151400  0.24527500  0.73609600  1
  K  K7  1  0.55848600  0.74527500  0.26390400  1
  H  H0  1  0.28601400  0.97552100  0.10796300  1
  H  H1  1  0.71398600  0.47552100  0.89203700  1
  H  H2  1  0.28601400  0.47552100  0.39203700  1
  H  H3  1  0.71398600  0.97552100  0.60796300  1
  I  I0  1  0.06450100  0.00651100  0.28207800  1
  I  I1  1  0.93549900  0.50651100  0.71792200  1
  I  I2  1  0.06450100  0.50651100  0.21792200  1
  I  I3  1  0.93549900  0.00651100  0.78207800  1
  I  I4  1  0.49544900  0.99848600  0.96553300  1
  I  I5  1  0.50455100  0.49848600  0.03446700  1
  I  I6  1  0.49544900  0.49848600  0.53446700  1
  I  I7  1  0.50455100  0.99848600  0.46553300  1
  Cl  Cl0  1  0.22381500  0.46662600  0.87565100  1
  Cl  Cl1  1  0.77618500  0.96662600  0.12434900  1
  Cl  Cl2  1  0.22381500  0.96662600  0.62434900  1
  Cl  Cl3  1  0.77618500  0.46662600  0.37565100  1
  O  O0  1  0.28953300  0.99162800  0.21298600  1
  O  O1  1  0.71046700  0.49162800  0.78701400  1
  O  O2  1  0.28953300  0.49162800  0.28701400  1
  O  O3  1  0.71046700  0.99162800  0.71298600  1
  O  O4  1  0.18857300  0.06821300  0.38576500  1
  O  O5  1  0.81142700  0.56821300  0.61423500  1
  O  O6  1  0.18857300  0.56821300  0.11423500  1
  O  O7  1  0.81142700  0.06821300  0.88576500  1
  O  O8  1  0.01546500  0.80585800  0.30473200  1
  O  O9  1  0.98453500  0.30585800  0.69526800  1
  O  O10  1  0.01546500  0.30585800  0.19526800  1
  O  O11  1  0.98453500  0.80585800  0.80473200  1
  O  O12  1  0.26266600  0.96407800  0.04163600  1
  O  O13  1  0.73733400  0.46407800  0.95836400  1
  O  O14  1  0.26266600  0.46407800  0.45836400  1
  O  O15  1  0.73733400  0.96407800  0.54163600  1
  O  O16  1  0.33382200  0.04271100  0.87267600  1
  O  O17  1  0.66617800  0.54271100  0.12732400  1
  O  O18  1  0.33382200  0.54271100  0.62732400  1
  O  O19  1  0.66617800  0.04271100  0.37267600  1
  O  O20  1  0.54911300  0.79875000  0.94486600  1
  O  O21  1  0.45088700  0.29875000  0.05513400  1
  O  O22  1  0.54911300  0.29875000  0.55513400  1
  O  O23  1  0.45088700  0.79875000  0.44486600  1
loop_
_geom_bond_atom_site_label_1
_geom_bond_atom_site_label_2
_geom_bond_distance
_geom_bond_site_symmetry_2
K0 O10 2.795433 1_555
K0 O7 2.835388 1_454
K0 O13 2.866466 1_454
K0 O12 2.930382 1_545
K0 O21 2.987246 1_555
K1 O11 2.795433 1_555
K1 O6 2.835388 1_656
K1 O12 2.866466 1_656
K1 O13 2.930382 1_555
K1 O20 2.987246 1_555
K2 O8 2.795433 1_555
K2 O5 2.835388 1_455
K2 O15 2.866466 1_455
K2 O14 2.930382 1_555
K2 O23 2.987246 1_555
K3 O9 2.795433 1_555
K3 O4 2.835388 1_655
K3 O14 2.866466 1_655
K3 O15 2.930382 1_545
K3 O22 2.987246 1_555
K4 O18 2.824455 1_555
K4 O20 2.878961 1_555
K4 O1 2.880568 1_555
K4 O3 2.914051 1_555
K4 O11 3.157207 1_455
K4 O16 3.171073 1_565
K5 O19 2.824455 1_555
K5 O21 2.878961 1_555
K5 O0 2.880568 1_545
K5 O2 2.914051 1_555
K5 O10 3.157207 1_655
K5 O17 3.171073 1_555
K6 O16 2.824455 1_555
K6 O22 2.878961 1_555
K6 O3 2.880568 1_545
K6 O1 2.914051 1_555
K6 O9 3.157207 1_455
K6 O18 3.171073 1_555
K7 O17 2.824455 1_555
K7 O23 2.878961 1_555
K7 O2 2.880568 1_555
K7 O0 2.914051 1_555
K7 O8 3.157207 1_655
K7 O19 3.171073 1_565
H0 O12 1.024198 1_555
H0 O0 1.601368 1_555
H1 O13 1.024198 1_555
H1 O1 1.601368 1_555
H2 O14 1.024198 1_555
H2 O2 1.601368 1_555
H3 O15 1.024198 1_555
H3 O3 1.601368 1_555
I0 O8 1.823424 1_545
I0 O0 1.836691 1_545
I0 O4 1.859636 1_555
I1 O9 1.823424 1_555
I1 O1 1.836691 1_555
I1 O5 1.859636 1_555
I2 O10 1.823424 1_555
I2 O2 1.836691 1_555
I2 O6 1.859636 1_555
I3 O11 1.823424 1_545
I3 O3 1.836691 1_545
I3 O7 1.859636 1_555
I4 O20 1.816020 1_555
I4 O16 1.817328 1_565
I4 O12 1.959680 1_556
I4 O7 2.507708 1_565
I5 O21 1.816020 1_555
I5 O17 1.817328 1_555
I5 O13 1.959680 1_554
I5 O6 2.507708 1_555
I6 O22 1.816020 1_555
I6 O18 1.817328 1_555
I6 O14 1.959680 1_555
I6 O5 2.507708 1_555
I7 O23 1.816020 1_555
I7 O19 1.817328 1_565
I7 O15 1.959680 1_555
I7 O4 2.507708 1_565
Cl0 I5 3.066841 1_556
Cl0 I1 3.092345 1_455
Cl0 K0 3.218938 1_556
Cl0 K6 3.220928 1_555
Cl0 K4 3.311814 1_555
Cl0 K1 3.327647 1_455
Cl1 I4 3.066841 1_554
Cl1 I0 3.092345 1_665
Cl1 K1 3.218938 1_554
Cl1 K7 3.220928 1_555
Cl1 K5 3.311814 1_565
Cl1 K0 3.327647 1_665
Cl2 I7 3.066841 1_555
Cl2 I3 3.092345 1_465
Cl2 K2 3.218938 1_555
Cl2 K4 3.220928 1_555
Cl2 K6 3.311814 1_565
Cl2 K3 3.327647 1_465
Cl3 I6 3.066841 1_555
Cl3 I2 3.092345 1_655
Cl3 K3 3.218938 1_555
Cl3 K5 3.220928 1_555
Cl3 K7 3.311814 1_555
Cl3 K2 3.327647 1_655
