# generated using pymatgen
data_Li4Mn3V3(SbO8)2
_symmetry_space_group_name_H-M   'P 1'
_cell_length_a   6.06822200
_cell_length_b   5.93637047
_cell_length_c   9.79082322
_cell_angle_alpha   90.06542179
_cell_angle_beta   91.61344245
_cell_angle_gamma   119.27948799
_symmetry_Int_Tables_number   1
_chemical_formula_structural   Li4Mn3V3(SbO8)2
_chemical_formula_sum   'Li4 Mn3 V3 Sb2 O16'
_cell_volume   307.47097155
_cell_formula_units_Z   1
loop_
 _symmetry_equiv_pos_site_id
 _symmetry_equiv_pos_as_xyz
  1  'x, y, z'
loop_
 _atom_site_type_symbol
 _atom_site_label
 _atom_site_symmetry_multiplicity
 _atom_site_fract_x
 _atom_site_fract_y
 _atom_site_fract_z
 _atom_site_occupancy
  Li  Li0  1  0.31930200  0.65900100  0.90224000  1
  Li  Li1  1  0.00541600  0.00508200  0.98903200  1
  Li  Li2  1  0.01305100  0.00744500  0.48775400  1
  Li  Li3  1  0.66221300  0.32931700  0.40304000  1
  Mn  Mn0  1  0.66714300  0.83401300  0.21012100  1
  Mn  Mn1  1  0.82921900  0.66154400  0.71196300  1
  Mn  Mn2  1  0.82892000  0.16775300  0.71197300  1
  V  V0  1  0.17445900  0.82824100  0.21355400  1
  V  V1  1  0.17455500  0.35027100  0.21746100  1
  V  V2  1  0.34107200  0.17077800  0.71717500  1
  Sb  Sb0  1  0.33737700  0.66881500  0.48823300  1
  Sb  Sb1  1  0.66185700  0.33235900  0.98808700  1
  O  O0  1  0.17910400  0.84034500  0.59230900  1
  O  O1  1  0.03439600  0.50864000  0.34490100  1
  O  O2  1  0.30772500  0.63832600  0.10631500  1
  O  O3  1  0.02796300  0.02375600  0.30025800  1
  O  O4  1  0.99886300  0.99963800  0.79959000  1
  O  O5  1  0.18083000  0.33973600  0.59332100  1
  O  O6  1  0.46661900  0.95972200  0.34864600  1
  O  O7  1  0.46603800  0.50424900  0.34929000  1
  O  O8  1  0.33835200  0.17345300  0.09844000  1
  O  O9  1  0.67972900  0.84010500  0.59024100  1
  O  O10  1  0.50136300  0.47341600  0.85227800  1
  O  O11  1  0.49939600  0.02794600  0.85343700  1
  O  O12  1  0.66373900  0.33191400  0.61511600  1
  O  O13  1  0.84692500  0.67112100  0.08969700  1
  O  O14  1  0.94929200  0.47440400  0.84266600  1
  O  O15  1  0.84508200  0.17891200  0.09070100  1
loop_
_geom_bond_atom_site_label_1
_geom_bond_atom_site_label_2
_geom_bond_distance
_geom_bond_site_symmetry_2
Li0 O10 1.973151 1_555
Li0 O11 1.977410 1_565
Li0 O2 2.003068 1_556
Li0 O14 2.024981 1_455
Li1 O4 1.854005 1_445
Li1 O13 2.004885 1_446
Li1 O15 2.009125 1_456
Li1 O8 2.031920 1_556
Li2 O3 1.840841 1_555
Li2 O5 1.991902 1_555
Li2 O0 1.992287 1_545
Li2 O9 2.058176 1_445
Li3 O6 1.980092 1_545
Li3 O7 1.986868 1_555
Li3 O1 2.068846 1_655
Li3 O12 2.076165 1_555
Mn0 O3 2.078031 1_665
Mn0 O2 2.129213 1_555
Mn0 O13 2.148749 1_555
Mn0 O15 2.153866 1_565
Mn0 O6 2.203604 1_555
Mn0 O7 2.222852 1_555
Mn1 O4 1.936342 1_555
Mn1 O12 1.938217 1_555
Mn1 O14 2.035972 1_555
Mn1 O9 2.061396 1_555
Mn1 O0 2.223854 1_655
Mn1 O10 2.253175 1_555
Mn2 O4 1.937572 1_545
Mn2 O12 1.938490 1_555
Mn2 O14 2.031294 1_555
Mn2 O9 2.057877 1_545
Mn2 O5 2.227548 1_655
Mn2 O11 2.267367 1_555
O0 Sb0 2.001745 1_555
O0 V2 2.085531 1_565
O1 V1 2.000825 1_555
O1 Sb0 2.096532 1_555
O1 V0 2.113202 1_555
O2 V1 1.861037 1_555
O2 V0 1.991063 1_555
O3 V1 1.887637 1_555
O3 V0 1.976736 1_545
O4 V2 2.007026 1_665
O5 Sb0 2.005435 1_555
O5 V2 2.076624 1_555
O6 V0 2.003461 1_555
O6 Sb0 2.050887 1_555
O7 V1 1.979232 1_555
O7 Sb0 2.053623 1_555
O8 Sb1 2.054604 1_554
O8 V1 2.128526 1_555
O8 V0 2.129287 1_545
O9 Sb0 2.040071 1_555
O10 V2 2.033796 1_555
O10 Sb1 2.035941 1_555
O11 V2 2.036924 1_555
O11 Sb1 2.038216 1_555
O12 V2 2.006902 1_555
O13 Sb1 2.004634 1_554
O13 V0 2.083088 1_655
O14 Sb1 2.117659 1_555
O15 Sb1 2.001301 1_554
O15 V1 2.107224 1_655
