# generated using pymatgen
data_Li4MnFe5O12
_symmetry_space_group_name_H-M   'P 1'
_cell_length_a   4.86351781
_cell_length_b   4.86351781
_cell_length_c   10.05800471
_cell_angle_alpha   89.92943006
_cell_angle_beta   89.92943006
_cell_angle_gamma   119.10644969
_symmetry_Int_Tables_number   1
_chemical_formula_structural   Li4MnFe5O12
_chemical_formula_sum   'Li4 Mn1 Fe5 O12'
_cell_volume   207.86558603
_cell_formula_units_Z   1
loop_
 _symmetry_equiv_pos_site_id
 _symmetry_equiv_pos_as_xyz
  1  'x, y, z'
loop_
 _atom_site_type_symbol
 _atom_site_label
 _atom_site_symmetry_multiplicity
 _atom_site_fract_x
 _atom_site_fract_y
 _atom_site_fract_z
 _atom_site_occupancy
  Li  Li0  1  0.35277500  0.84429400  0.24957700  1
  Li  Li1  1  0.15570600  0.64722500  0.75042300  1
  Li  Li2  1  0.84429400  0.35277500  0.24957700  1
  Li  Li3  1  0.64722500  0.15570600  0.75042300  1
  Mn  Mn0  1  0.00000000  0.00000000  0.00000000  1
  Fe  Fe0  1  0.16206100  0.83793900  0.50000000  1
  Fe  Fe1  1  0.66173800  0.33826200  0.00000000  1
  Fe  Fe2  1  0.33826200  0.66173800  0.00000000  1
  Fe  Fe3  1  0.83793900  0.16206100  0.50000000  1
  Fe  Fe4  1  0.50000000  0.50000000  0.50000000  1
  O  O0  1  0.33356000  0.99409900  0.89561800  1
  O  O1  1  0.00590100  0.66644000  0.10438200  1
  O  O2  1  0.49406600  0.83172600  0.60295300  1
  O  O3  1  0.83172600  0.49406600  0.60295300  1
  O  O4  1  0.16827400  0.50593400  0.39704700  1
  O  O5  1  0.82878100  0.82878100  0.39798200  1
  O  O6  1  0.50593400  0.16827400  0.39704700  1
  O  O7  1  0.99409900  0.33356000  0.89561800  1
  O  O8  1  0.67091500  0.67091500  0.89633400  1
  O  O9  1  0.66644000  0.00590100  0.10438200  1
  O  O10  1  0.32908500  0.32908500  0.10366600  1
  O  O11  1  0.17121900  0.17121900  0.60201800  1
loop_
_geom_bond_atom_site_label_1
_geom_bond_atom_site_label_2
_geom_bond_distance
_geom_bond_site_symmetry_2
Li0 O9 1.975561 1_565
Li0 O6 2.025906 1_565
Li0 O4 2.065773 1_555
Li0 O1 2.077612 1_555
Li1 O7 1.975561 1_455
Li1 O3 2.025906 1_455
Li1 O2 2.065773 1_555
Li1 O0 2.077612 1_555
Li2 O1 1.975561 1_655
Li2 O4 2.025906 1_655
Li2 O6 2.065773 1_555
Li2 O9 2.077612 1_555
Li3 O0 1.975561 1_545
Li3 O2 2.025906 1_545
Li3 O3 2.065773 1_555
Li3 O7 2.077612 1_555
Mn0 O10 1.930422 1_555
Mn0 O8 1.930422 1_444
Mn0 O9 1.943196 1_455
Mn0 O1 1.943196 1_545
Mn0 O0 1.943196 1_544
Mn0 O7 1.943196 1_454
Fe0 O11 1.901629 1_565
Fe0 O5 1.901629 1_455
Fe0 O4 1.931834 1_555
Fe0 O2 1.931834 1_555
Fe0 O3 1.956541 1_455
Fe0 O6 1.956541 1_565
Fe1 O8 1.905813 1_554
Fe1 O10 1.905813 1_555
Fe1 O9 1.935844 1_555
Fe1 O7 1.935844 1_554
Fe1 O1 1.964903 1_655
Fe1 O0 1.964903 1_544
Fe2 O8 1.905813 1_554
Fe2 O10 1.905813 1_555
Fe2 O1 1.935844 1_555
Fe2 O0 1.935844 1_554
Fe2 O9 1.964903 1_565
Fe2 O7 1.964903 1_454
Fe3 O11 1.901629 1_655
Fe3 O5 1.901629 1_545
Fe3 O6 1.931834 1_555
Fe3 O3 1.931834 1_555
Fe3 O2 1.956541 1_545
Fe3 O4 1.956541 1_655
Fe4 O11 1.916004 1_555
Fe4 O5 1.916004 1_555
Fe4 O2 1.930117 1_555
Fe4 O3 1.930117 1_555
Fe4 O4 1.930117 1_555
Fe4 O6 1.930117 1_555
