# generated using pymatgen
data_V3Fe2Te(PO4)6
_symmetry_space_group_name_H-M   'P 1'
_cell_length_a   8.64464439
_cell_length_b   8.76659879
_cell_length_c   8.76659883
_cell_angle_alpha   59.99999633
_cell_angle_beta   59.53221116
_cell_angle_gamma   59.53221504
_symmetry_Int_Tables_number   1
_chemical_formula_structural   V3Fe2Te(PO4)6
_chemical_formula_sum   'V3 Fe2 Te1 P6 O24'
_cell_volume   466.43078141
_cell_formula_units_Z   1
loop_
 _symmetry_equiv_pos_site_id
 _symmetry_equiv_pos_as_xyz
  1  'x, y, z'
loop_
 _atom_site_type_symbol
 _atom_site_label
 _atom_site_symmetry_multiplicity
 _atom_site_fract_x
 _atom_site_fract_y
 _atom_site_fract_z
 _atom_site_occupancy
  V  V0  1  0.06764200  0.64411900  0.64411900  1
  V  V1  1  0.42853800  0.85715400  0.85715400  1
  V  V2  1  0.92621500  0.35792800  0.35792800  1
  Fe  Fe0  1  0.01160100  0.99613300  0.99613300  1
  Fe  Fe1  1  0.49862800  0.50045700  0.50045700  1
  Te  Te0  1  0.56515900  0.14494700  0.14494700  1
  P  P0  1  0.24084400  0.25326700  0.55419400  1
  P  P1  1  0.24084400  0.95169500  0.25326700  1
  P  P2  1  0.24084400  0.55419400  0.95169500  1
  P  P3  1  0.75210900  0.46334500  0.04196100  1
  P  P4  1  0.75210900  0.04196100  0.74258500  1
  P  P5  1  0.75210900  0.74258500  0.46334500  1
  O  O0  1  0.07004700  0.11516900  0.31107100  1
  O  O1  1  0.07004700  0.50371300  0.11516900  1
  O  O2  1  0.07004700  0.31107100  0.50371300  1
  O  O3  1  0.22493200  0.09349400  0.74502700  1
  O  O4  1  0.43348200  0.18940900  0.40287700  1
  O  O5  1  0.25845200  0.41383100  0.56998900  1
  O  O6  1  0.22493200  0.93654800  0.09349400  1
  O  O7  1  0.25845200  0.75772800  0.41383100  1
  O  O8  1  0.57112400  0.61283400  0.00297400  1
  O  O9  1  0.25845200  0.56998900  0.75772800  1
  O  O10  1  0.78563800  0.26461100  0.05037100  1
  O  O11  1  0.57112400  0.00297400  0.81306900  1
  O  O12  1  0.43348200  0.97423300  0.18940900  1
  O  O13  1  0.22493200  0.74502700  0.93654800  1
  O  O14  1  0.73122100  0.44424100  0.23797500  1
  O  O15  1  0.43348200  0.40287700  0.97423300  1
  O  O16  1  0.73122100  0.23797500  0.58656300  1
  O  O17  1  0.78563800  0.05037100  0.89937900  1
  O  O18  1  0.73122100  0.58656300  0.44424100  1
  O  O19  1  0.57112400  0.81306900  0.61283400  1
  O  O20  1  0.78563800  0.89937900  0.26461100  1
  O  O21  1  0.93289200  0.67372000  0.50688700  1
  O  O22  1  0.93289200  0.50688700  0.88650200  1
  O  O23  1  0.93289200  0.88650200  0.67372000  1
loop_
_geom_bond_atom_site_label_1
_geom_bond_atom_site_label_2
_geom_bond_distance
_geom_bond_site_symmetry_2
Fe0 O13 2.139112 1_555
Fe0 O3 2.139115 1_565
Fe0 O6 2.139118 1_556
Fe0 O10 2.257473 1_466
Fe0 O20 2.257475 1_456
Fe0 O17 2.257479 1_465
Fe1 O14 2.240043 1_555
Fe1 O16 2.240046 1_555
Fe1 O18 2.240049 1_555
Fe1 O5 2.260895 1_555
Fe1 O7 2.260899 1_555
Fe1 O9 2.260901 1_555
O0 P1 1.520607 1_545
O0 V2 1.979048 1_455
O1 P2 1.520607 1_554
O1 V2 1.979052 1_455
O2 P0 1.520607 1_555
O2 V2 1.979056 1_455
O3 P0 1.548655 1_555
O3 V1 2.092051 1_545
O4 P0 1.550243 1_555
O4 Te0 2.093264 1_555
O5 P0 1.567560 1_555
O5 V0 2.016615 1_555
O6 P1 1.548650 1_555
O6 V1 2.092054 1_554
O7 P1 1.567560 1_555
O7 V0 2.016618 1_555
O8 P3 1.515638 1_555
O8 V1 1.980811 1_554
O9 P2 1.567560 1_555
O9 V0 2.016622 1_555
O10 P3 1.583004 1_555
O10 Te0 2.230682 1_555
O11 P4 1.515636 1_555
O11 V1 1.980815 1_545
O12 P1 1.550248 1_555
O12 Te0 2.093256 1_565
O13 P2 1.548659 1_555
O13 V1 2.092048 1_555
O14 P3 1.562590 1_555
O14 V2 2.056265 1_555
O15 P2 1.550246 1_555
O15 Te0 2.093260 1_556
O16 P4 1.562589 1_555
O16 V2 2.056268 1_555
O17 P4 1.582996 1_555
O17 Te0 2.230689 1_556
O18 P5 1.562590 1_555
O18 V2 2.056272 1_555
O19 P5 1.515640 1_555
O19 V1 1.980808 1_555
O20 P5 1.583001 1_555
O20 Te0 2.230685 1_565
O21 P5 1.539563 1_555
O21 V0 1.916776 1_655
O22 P3 1.539561 1_556
O22 V0 1.916785 1_655
O23 P4 1.539558 1_565
O23 V0 1.916791 1_655
