# generated using pymatgen
data_LiV6O7F5
_symmetry_space_group_name_H-M   'P 1'
_cell_length_a   5.70326500
_cell_length_b   5.72894561
_cell_length_c   7.71228902
_cell_angle_alpha   69.54504653
_cell_angle_beta   69.93645658
_cell_angle_gamma   70.23818854
_symmetry_Int_Tables_number   1
_chemical_formula_structural   LiV6O7F5
_chemical_formula_sum   'Li1 V6 O7 F5'
_cell_volume   214.84657562
_cell_formula_units_Z   1
loop_
 _symmetry_equiv_pos_site_id
 _symmetry_equiv_pos_as_xyz
  1  'x, y, z'
loop_
 _atom_site_type_symbol
 _atom_site_label
 _atom_site_symmetry_multiplicity
 _atom_site_fract_x
 _atom_site_fract_y
 _atom_site_fract_z
 _atom_site_occupancy
  Li  Li0  1  0.57953900  0.08607500  0.41980600  1
  V  V0  1  0.29483000  0.32513000  0.14566100  1
  V  V1  1  0.66765500  0.65728200  0.31308400  1
  V  V2  1  0.01379200  0.99894600  0.50642900  1
  V  V3  1  0.32772100  0.34845500  0.69015700  1
  V  V4  1  0.67840800  0.69350500  0.84394900  1
  V  V5  1  0.02240100  0.97194100  0.99756100  1
  O  O0  1  0.77288600  0.77562900  0.03383000  1
  O  O1  1  0.94584300  0.35342600  0.33293000  1
  O  O2  1  0.37406500  0.97788100  0.33511900  1
  O  O3  1  0.03239300  0.64467400  0.67127400  1
  O  O4  1  0.63600500  0.05395400  0.65393600  1
  O  O5  1  0.22095800  0.21874900  0.96478400  1
  O  O6  1  0.31659500  0.68036400  0.99668600  1
  F  F0  1  0.41606200  0.43571900  0.37286000  1
  F  F1  1  0.90146800  0.88942100  0.30135100  1
  F  F2  1  0.10913200  0.10592900  0.70108000  1
  F  F3  1  0.56981300  0.58281200  0.62439300  1
  F  F4  1  0.70379800  0.29213900  0.00342500  1
loop_
_geom_bond_atom_site_label_1
_geom_bond_atom_site_label_2
_geom_bond_distance
_geom_bond_site_symmetry_2
Li0 O2 1.866375 1_545
Li0 O4 1.877421 1_555
O0 V1 1.956006 1_555
O0 V4 1.962297 1_554
O0 V5 1.989332 1_654
O1 V1 1.919299 1_555
O1 V2 1.997270 1_645
O1 V0 2.011681 1_655
O2 V2 2.015733 1_555
O2 V0 2.027372 1_565
O2 V1 2.036979 1_555
O3 V3 1.949554 1_555
O3 V2 1.972383 1_555
O3 V4 1.990316 1_455
O4 V3 2.000605 1_555
O4 V2 2.036052 1_645
O4 V4 2.064113 1_545
O5 V0 1.914678 1_556
O5 V3 1.931305 1_555
O5 V5 1.995511 1_545
O6 V5 1.926250 1_555
O6 V0 1.978853 1_556
O6 V4 2.006645 1_555
F0 Li0 1.864016 1_555
F0 V1 2.061896 1_555
F0 V3 2.227405 1_555
F0 V0 2.419326 1_555
F1 Li0 1.909099 1_565
F1 V5 2.127452 1_654
F1 V1 2.141822 1_555
F1 V2 2.228510 1_655
F2 V5 2.077537 1_545
F2 V2 2.086490 1_545
F2 V3 2.123492 1_555
F3 V3 2.064792 1_555
F3 V1 2.187137 1_555
F3 V4 2.321338 1_555
F4 V5 2.101528 1_644
F4 V4 2.177455 1_554
F4 V0 2.184185 1_555
