# generated using pymatgen
data_Na2NdPCO7
_symmetry_space_group_name_H-M   'P 1'
_cell_length_a   7.15236700
_cell_length_b   5.22405300
_cell_length_c   9.45251142
_cell_angle_alpha   88.84714040
_cell_angle_beta   90.00000000
_cell_angle_gamma   90.00000000
_symmetry_Int_Tables_number   1
_chemical_formula_structural   Na2NdPCO7
_chemical_formula_sum   'Na4 Nd2 P2 C2 O14'
_cell_volume   353.11539736
_cell_formula_units_Z   2
loop_
 _symmetry_equiv_pos_site_id
 _symmetry_equiv_pos_as_xyz
  1  'x, y, z'
loop_
 _atom_site_type_symbol
 _atom_site_label
 _atom_site_symmetry_multiplicity
 _atom_site_fract_x
 _atom_site_fract_y
 _atom_site_fract_z
 _atom_site_occupancy
  Na  Na0  1  0.49350700  0.22879700  0.79303600  1
  Na  Na1  1  0.00649300  0.22879700  0.79303600  1
  Na  Na2  1  0.50649300  0.77120300  0.20696400  1
  Na  Na3  1  0.99350700  0.77120300  0.20696400  1
  Nd  Nd0  1  0.75000000  0.75937700  0.62252400  1
  Nd  Nd1  1  0.25000000  0.24062300  0.37747600  1
  P  P0  1  0.25000000  0.71029000  0.58807700  1
  P  P1  1  0.75000000  0.28971000  0.41192300  1
  C  C0  1  0.75000000  0.73178200  0.92526500  1
  C  C1  1  0.25000000  0.26821800  0.07473500  1
  O  O0  1  0.25000000  0.29705800  0.94209000  1
  O  O1  1  0.75000000  0.95594500  0.85968800  1
  O  O2  1  0.75000000  0.53196900  0.84017300  1
  O  O3  1  0.07256600  0.83300800  0.65014100  1
  O  O4  1  0.42743400  0.83300800  0.65014100  1
  O  O5  1  0.75000000  0.24583400  0.57816000  1
  O  O6  1  0.25000000  0.41384400  0.61244100  1
  O  O7  1  0.75000000  0.58615600  0.38755900  1
  O  O8  1  0.25000000  0.75416600  0.42184000  1
  O  O9  1  0.57256600  0.16699200  0.34985900  1
  O  O10  1  0.92743400  0.16699200  0.34985900  1
  O  O11  1  0.25000000  0.46803100  0.15982700  1
  O  O12  1  0.25000000  0.04405500  0.14031200  1
  O  O13  1  0.75000000  0.70294200  0.05791000  1
loop_
_geom_bond_atom_site_label_1
_geom_bond_atom_site_label_2
_geom_bond_distance
_geom_bond_site_symmetry_2
Na0 O0 2.272846 1_555
Na0 O1 2.399594 1_545
Na0 O2 2.469982 1_555
Na0 O4 2.536771 1_545
Na0 O6 2.610662 1_555
Na0 O5 2.737078 1_555
Na1 O0 2.272846 1_555
Na1 O1 2.399594 1_445
Na1 O2 2.469982 1_455
Na1 O3 2.536771 1_545
Na1 O6 2.610662 1_555
Na1 O5 2.737078 1_455
Na2 O13 2.272846 1_555
Na2 O12 2.399594 1_565
Na2 O11 2.469982 1_555
Na2 O9 2.536771 1_565
Na2 O7 2.610662 1_555
Na2 O8 2.737078 1_555
Na3 O13 2.272846 1_555
Na3 O12 2.399594 1_665
Na3 O11 2.469982 1_655
Na3 O10 2.536771 1_565
Na3 O7 2.610662 1_555
Na3 O8 2.737078 1_655
Nd0 O3 2.354337 1_655
Nd0 O4 2.354337 1_555
Nd0 O2 2.354905 1_555
Nd0 O7 2.415084 1_555
Nd0 O1 2.484505 1_555
Nd0 O5 2.567306 1_565
Nd0 O5 2.723676 1_555
Nd1 O10 2.354337 1_455
Nd1 O9 2.354337 1_555
Nd1 O11 2.354905 1_555
Nd1 O6 2.415084 1_555
Nd1 O12 2.484505 1_555
Nd1 O8 2.567306 1_545
Nd1 O8 2.723676 1_555
C0 O13 1.259835 1_556
C0 O1 1.313910 1_555
C0 O2 1.330536 1_555
C1 O0 1.259835 1_554
C1 O12 1.313910 1_555
C1 O11 1.330536 1_555
O3 P0 1.542998 1_555
O4 P0 1.542998 1_555
O5 P1 1.583416 1_555
O6 P0 1.561090 1_555
O7 P1 1.561090 1_555
O8 P0 1.583416 1_555
O9 P1 1.542998 1_555
O10 P1 1.542998 1_555
