# generated using pymatgen
data_K2Cr2O7
_symmetry_space_group_name_H-M   'P 1'
_cell_length_a   8.69685896
_cell_length_b   8.69685896
_cell_length_c   8.14085835
_cell_angle_alpha   86.33990029
_cell_angle_beta   86.33990029
_cell_angle_gamma   45.43875955
_symmetry_Int_Tables_number   1
_chemical_formula_structural   K2Cr2O7
_chemical_formula_sum   'K4 Cr4 O14'
_cell_volume   437.66104873
_cell_formula_units_Z   2
loop_
 _symmetry_equiv_pos_site_id
 _symmetry_equiv_pos_as_xyz
  1  'x, y, z'
loop_
 _atom_site_type_symbol
 _atom_site_label
 _atom_site_symmetry_multiplicity
 _atom_site_fract_x
 _atom_site_fract_y
 _atom_site_fract_z
 _atom_site_occupancy
  K  K0  1  0.35395800  0.35395800  0.76030800  1
  K  K1  1  0.63157700  0.63157700  0.71393000  1
  K  K2  1  0.36842300  0.36842300  0.28607000  1
  K  K3  1  0.64604200  0.64604200  0.23969200  1
  Cr  Cr0  1  0.86402800  0.86402800  0.43433300  1
  Cr  Cr1  1  0.13597200  0.13597200  0.56566700  1
  Cr  Cr2  1  0.87066200  0.87066200  0.00215700  1
  Cr  Cr3  1  0.12933800  0.12933800  0.99784300  1
  O  O0  1  0.30057100  0.89524600  0.48824000  1
  O  O1  1  0.69942900  0.10475400  0.51176000  1
  O  O2  1  0.89524600  0.30057100  0.48824000  1
  O  O3  1  0.28560000  0.88550500  0.07755200  1
  O  O4  1  0.11316400  0.11316400  0.78185900  1
  O  O5  1  0.23828700  0.23828700  0.53334100  1
  O  O6  1  0.71440000  0.11449500  0.92244800  1
  O  O7  1  0.88683600  0.88683600  0.21814100  1
  O  O8  1  0.88550500  0.28560000  0.07755200  1
  O  O9  1  0.76171300  0.76171300  0.46665900  1
  O  O10  1  0.77005200  0.77005200  0.97400500  1
  O  O11  1  0.10475400  0.69942900  0.51176000  1
  O  O12  1  0.11449500  0.71440000  0.92244800  1
  O  O13  1  0.22994800  0.22994800  0.02599500  1
loop_
_geom_bond_atom_site_label_1
_geom_bond_atom_site_label_2
_geom_bond_distance
_geom_bond_site_symmetry_2
K0 O12 2.630920 1_555
K0 O6 2.630920 1_555
K0 O5 2.707910 1_555
K0 O13 2.835699 1_556
K0 O1 2.909297 1_555
K0 O11 2.909297 1_555
K1 O0 2.791892 1_555
K1 O2 2.791892 1_555
K1 O9 2.798177 1_555
K1 O10 3.173286 1_555
K2 O1 2.791892 1_555
K2 O11 2.791892 1_555
K2 O5 2.798177 1_555
K2 O13 3.173286 1_555
K3 O8 2.630920 1_555
K3 O3 2.630920 1_555
K3 O9 2.707910 1_555
K3 O10 2.835699 1_554
K3 O2 2.909297 1_555
K3 O0 2.909297 1_555
Cr0 O1 1.636170 1_565
Cr0 O11 1.636170 1_655
Cr0 O9 1.644431 1_555
Cr0 O7 1.772660 1_555
Cr1 O2 1.636170 1_455
Cr1 O0 1.636170 1_545
Cr1 O5 1.644431 1_555
Cr1 O4 1.772660 1_555
Cr2 O6 1.630176 1_564
Cr2 O12 1.630176 1_654
Cr2 O10 1.646013 1_554
Cr2 O7 1.795020 1_555
Cr3 O8 1.630176 1_456
Cr3 O3 1.630176 1_546
Cr3 O13 1.646013 1_556
Cr3 O4 1.795020 1_555
