# generated using pymatgen
data_Co6O5F7
_symmetry_space_group_name_H-M   'P 1'
_cell_length_a   7.02024900
_cell_length_b   5.57117559
_cell_length_c   5.57144845
_cell_angle_alpha   73.66051234
_cell_angle_beta   73.43250802
_cell_angle_gamma   73.15607451
_symmetry_Int_Tables_number   1
_chemical_formula_structural   Co6O5F7
_chemical_formula_sum   'Co6 O5 F7'
_cell_volume   195.15257178
_cell_formula_units_Z   1
loop_
 _symmetry_equiv_pos_site_id
 _symmetry_equiv_pos_as_xyz
  1  'x, y, z'
loop_
 _atom_site_type_symbol
 _atom_site_label
 _atom_site_symmetry_multiplicity
 _atom_site_fract_x
 _atom_site_fract_y
 _atom_site_fract_z
 _atom_site_occupancy
  Co  Co0  1  0.84167700  0.67345600  0.70635300  1
  Co  Co1  1  0.32053500  0.68509100  0.60958700  1
  Co  Co2  1  0.66229000  0.36321400  0.31758500  1
  Co  Co3  1  0.16498700  0.31268700  0.32932000  1
  Co  Co4  1  0.50052700  0.98888200  0.00592200  1
  Co  Co5  1  0.00433600  0.99302500  0.01306400  1
  O  O0  1  0.94762300  0.24782500  0.24810200  1
  O  O1  1  0.37779000  0.41707100  0.41967600  1
  O  O2  1  0.04473300  0.76033700  0.77126800  1
  O  O3  1  0.33972000  0.95935100  0.33753300  1
  O  O4  1  0.65957200  0.66073300  0.03211000  1
  F  F0  1  0.33961400  0.34486900  0.95753700  1
  F  F1  1  0.66037100  0.03741200  0.65505200  1
  F  F2  1  0.63578600  0.57376300  0.57640000  1
  F  F3  1  0.31300500  0.88902300  0.89107800  1
  F  F4  1  0.69023300  0.10134400  0.10432100  1
  F  F5  1  0.99820000  0.30066600  0.70635800  1
  F  F6  1  0.99900000  0.69125000  0.31873800  1
loop_
_geom_bond_atom_site_label_1
_geom_bond_atom_site_label_2
_geom_bond_distance
_geom_bond_site_symmetry_2
Co0 O2 1.785927 1_655
Co0 O4 1.894810 1_556
Co0 F5 2.048967 1_555
Co0 F1 2.049115 1_565
Co0 F2 2.051879 1_555
Co0 F6 2.115698 1_555
Co1 O3 1.830293 1_555
Co1 O2 1.866404 1_555
Co1 O1 1.951739 1_555
Co1 F2 2.086271 1_555
Co1 F3 2.161870 1_555
Co1 F0 2.302655 1_555
Co2 O1 1.871756 1_555
Co2 O0 1.878057 1_555
Co2 O4 1.947596 1_555
Co2 F2 2.040113 1_555
Co2 F4 2.062839 1_555
Co2 F1 2.215714 1_555
Co3 O0 1.862580 1_455
Co3 O1 1.980037 1_555
Co3 O3 1.990912 1_545
Co3 F0 2.072648 1_554
Co3 F5 2.086091 1_455
Co3 F6 2.086706 1_455
Co4 O4 1.835766 1_555
Co4 O3 1.860672 1_555
Co4 F3 1.886015 1_554
Co4 F4 1.886789 1_565
Co4 F1 1.944532 1_564
Co4 F0 1.963821 1_564
Co5 F6 2.029149 1_455
Co5 O2 2.031609 1_554
Co5 F3 2.036488 1_554
Co5 F5 2.051996 1_464
Co5 F4 2.060860 1_465
Co5 O0 2.075919 1_465
