# generated using pymatgen
data_U3O5
_symmetry_space_group_name_H-M   'P 1'
_cell_length_a   3.82685109
_cell_length_b   3.82685109
_cell_length_c   9.44733000
_cell_angle_alpha   90.00000000
_cell_angle_beta   90.00000000
_cell_angle_gamma   119.99998430
_symmetry_Int_Tables_number   1
_chemical_formula_structural   U3O5
_chemical_formula_sum   'U3 O5'
_cell_volume   119.81823373
_cell_formula_units_Z   1
loop_
 _symmetry_equiv_pos_site_id
 _symmetry_equiv_pos_as_xyz
  1  'x, y, z'
loop_
 _atom_site_type_symbol
 _atom_site_label
 _atom_site_symmetry_multiplicity
 _atom_site_fract_x
 _atom_site_fract_y
 _atom_site_fract_z
 _atom_site_occupancy
  U  U0  1  0.00000000  0.00000000  0.00085300  1
  U  U1  1  0.33333300  0.66666700  0.65792600  1
  U  U2  1  0.66666700  0.33333300  0.32948300  1
  O  O0  1  0.33333300  0.66666700  0.41516100  1
  O  O1  1  0.00000000  0.00000000  0.76399600  1
  O  O2  1  0.66666700  0.33333300  0.58118400  1
  O  O3  1  0.00000000  0.00000000  0.24225300  1
  O  O4  1  0.66666700  0.33333300  0.05492400  1
loop_
_geom_bond_atom_site_label_1
_geom_bond_atom_site_label_2
_geom_bond_distance
_geom_bond_site_symmetry_2
O0 U1 2.293481 1_555
O0 U2 2.353033 1_455
O0 U2 2.353033 1_565
O0 U2 2.353038 1_555
O1 U0 2.237666 1_556
O1 U1 2.426056 1_545
O1 U1 2.426059 1_445
O1 U1 2.426059 1_555
O2 U1 2.325344 1_545
O2 U1 2.325344 1_655
O2 U1 2.325350 1_555
O2 U2 2.377902 1_555
O3 U0 2.280585 1_555
O3 U2 2.358116 1_455
O3 U2 2.358120 1_555
O3 U2 2.358120 1_445
O4 U0 2.267715 1_655
O4 U0 2.267718 1_665
O4 U0 2.267718 1_555
O4 U2 2.593849 1_555
