# generated using pymatgen
data_Pt(NF3)2
_symmetry_space_group_name_H-M   'P 1'
_cell_length_a   5.76556626
_cell_length_b   5.76556626
_cell_length_c   5.76556626
_cell_angle_alpha   60.00000000
_cell_angle_beta   60.00000000
_cell_angle_gamma   60.00000000
_symmetry_Int_Tables_number   1
_chemical_formula_structural   Pt(NF3)2
_chemical_formula_sum   'Pt1 N2 F6'
_cell_volume   135.52234410
_cell_formula_units_Z   1
loop_
 _symmetry_equiv_pos_site_id
 _symmetry_equiv_pos_as_xyz
  1  'x, y, z'
loop_
 _atom_site_type_symbol
 _atom_site_label
 _atom_site_symmetry_multiplicity
 _atom_site_fract_x
 _atom_site_fract_y
 _atom_site_fract_z
 _atom_site_occupancy
  Pt  Pt0  1  0.00000000  0.00000000  0.00000000  1
  N  N0  1  0.75000000  0.75000000  0.75000000  1
  N  N1  1  0.25000000  0.25000000  0.25000000  1
  F  F0  1  0.76533200  0.23466800  0.23466800  1
  F  F1  1  0.76533200  0.76533200  0.23466800  1
  F  F2  1  0.23466800  0.76533200  0.23466800  1
  F  F3  1  0.23466800  0.23466800  0.76533200  1
  F  F4  1  0.76533200  0.23466800  0.76533200  1
  F  F5  1  0.23466800  0.76533200  0.76533200  1
loop_
_geom_bond_atom_site_label_1
_geom_bond_atom_site_label_2
_geom_bond_distance
_geom_bond_site_symmetry_2
F0 Pt0 1.913422 1_655
F1 Pt0 1.913422 1_665
F2 Pt0 1.913422 1_565
F3 Pt0 1.913422 1_556
F4 Pt0 1.913422 1_656
F5 Pt0 1.913422 1_566
