# generated using pymatgen
data_LiV2S2(O4F3)2
_symmetry_space_group_name_H-M   'P 1'
_cell_length_a   7.18146600
_cell_length_b   7.95278500
_cell_length_c   12.64978843
_cell_angle_alpha   54.00981985
_cell_angle_beta   90.00000000
_cell_angle_gamma   90.00000000
_symmetry_Int_Tables_number   1
_chemical_formula_structural   LiV2S2(O4F3)2
_chemical_formula_sum   'Li2 V4 S4 O16 F12'
_cell_volume   584.55761970
_cell_formula_units_Z   2
loop_
 _symmetry_equiv_pos_site_id
 _symmetry_equiv_pos_as_xyz
  1  'x, y, z'
loop_
 _atom_site_type_symbol
 _atom_site_label
 _atom_site_symmetry_multiplicity
 _atom_site_fract_x
 _atom_site_fract_y
 _atom_site_fract_z
 _atom_site_occupancy
  Li  Li0  1  0.89150800  0.63852800  0.27876600  1
  Li  Li1  1  0.10849200  0.63852800  0.77876600  1
  V  V0  1  0.24630700  0.99579400  0.00010100  1
  V  V1  1  0.25377400  0.00903100  0.48932600  1
  V  V2  1  0.74622600  0.00903100  0.98932600  1
  V  V3  1  0.75369300  0.99579400  0.50010100  1
  S  S0  1  0.51601300  0.32735600  0.50011500  1
  S  S1  1  0.48398700  0.32735600  0.00011500  1
  S  S2  1  0.98838700  0.64912900  0.51363500  1
  S  S3  1  0.01161300  0.64912900  0.01363500  1
  O  O0  1  0.35801500  0.26633000  0.44595800  1
  O  O1  1  0.35216500  0.12655500  0.06790900  1
  O  O2  1  0.37894600  0.49859800  0.89274200  1
  O  O3  1  0.44701800  0.34215000  0.59983800  1
  O  O4  1  0.62105400  0.49859800  0.39274200  1
  O  O5  1  0.55298200  0.34215000  0.09983800  1
  O  O6  1  0.64198500  0.26633000  0.94595800  1
  O  O7  1  0.64783500  0.12655500  0.56790900  1
  O  O8  1  0.85558600  0.72143100  0.05893600  1
  O  O9  1  0.84767800  0.84461000  0.44439300  1
  O  O10  1  0.95409000  0.63770900  0.90835000  1
  O  O11  1  0.89556800  0.47269100  0.62353900  1
  O  O12  1  0.10443200  0.47269100  0.12353900  1
  O  O13  1  0.04591000  0.63770900  0.40835000  1
  O  O14  1  0.14441400  0.72143100  0.55893600  1
  O  O15  1  0.15232200  0.84461000  0.94439300  1
  F  F0  1  0.25900300  0.88694600  0.66521900  1
  F  F1  1  0.26640200  0.22376300  0.83824300  1
  F  F2  1  0.50894200  0.90093400  0.49918300  1
  F  F3  1  0.49105800  0.90093400  0.99918300  1
  F  F4  1  0.74099700  0.88694600  0.16521900  1
  F  F5  1  0.73359800  0.22376300  0.33824300  1
  F  F6  1  0.77196600  0.07939700  0.83008300  1
  F  F7  1  0.82030900  0.78754000  0.66413400  1
  F  F8  1  0.00359400  0.10937600  0.48850000  1
  F  F9  1  0.99640600  0.10937600  0.98850000  1
  F  F10  1  0.17969100  0.78754000  0.16413400  1
  F  F11  1  0.22803400  0.07939700  0.33008300  1
loop_
_geom_bond_atom_site_label_1
_geom_bond_atom_site_label_2
_geom_bond_distance
_geom_bond_site_symmetry_2
Li0 O13 1.975858 1_655
Li0 O4 2.281176 1_555
Li0 O8 2.465626 1_555
Li1 O10 1.975858 1_455
Li1 O2 2.281176 1_555
Li1 O14 2.465626 1_555
O0 S0 1.543724 1_555
O0 V1 1.931098 1_555
O1 S1 1.603826 1_555
O1 V0 1.855653 1_545
O2 S1 1.447252 1_556
O3 S0 1.423060 1_555
O4 S0 1.447252 1_555
O5 S1 1.423060 1_555
O6 S1 1.543724 1_556
O6 V2 1.931098 1_555
O7 S0 1.603826 1_555
O7 V3 1.855653 1_545
O8 S3 1.517169 1_655
O8 V2 2.063126 1_564
O9 S2 1.613926 1_555
O9 V3 1.842161 1_555
O10 S3 1.447356 1_656
O11 S2 1.432938 1_555
O12 S3 1.432938 1_555
O13 S2 1.447356 1_455
O14 S2 1.517169 1_455
O14 V1 2.063126 1_565
O15 S3 1.613926 1_556
O15 V0 1.842161 1_556
F0 V1 1.831877 1_565
F0 Li1 1.949199 1_555
F1 V0 1.771200 1_546
F2 V3 1.915453 1_555
F2 V1 1.996644 1_565
F3 V0 1.915453 1_556
F3 V2 1.996644 1_565
F4 V2 1.831877 1_564
F4 Li0 1.949199 1_555
F5 V3 1.771200 1_545
F6 V2 1.755059 1_555
F7 V3 1.799562 1_555
F7 Li1 2.402201 1_655
F8 V1 1.963449 1_555
F8 V3 1.975466 1_445
F9 V2 1.963449 1_555
F9 V0 1.975466 1_646
F10 V0 1.799562 1_555
F10 Li0 2.402201 1_455
F11 V1 1.755059 1_555
