# generated using pymatgen
data_Li4Mn3Ni3(PO4)6
_symmetry_space_group_name_H-M   'P 1'
_cell_length_a   8.45771000
_cell_length_b   8.55010166
_cell_length_c   8.55893080
_cell_angle_alpha   62.35464524
_cell_angle_beta   62.74566381
_cell_angle_gamma   62.72286474
_symmetry_Int_Tables_number   1
_chemical_formula_structural   Li4Mn3Ni3(PO4)6
_chemical_formula_sum   'Li4 Mn3 Ni3 P6 O24'
_cell_volume   463.05212743
_cell_formula_units_Z   1
loop_
 _symmetry_equiv_pos_site_id
 _symmetry_equiv_pos_as_xyz
  1  'x, y, z'
loop_
 _atom_site_type_symbol
 _atom_site_label
 _atom_site_symmetry_multiplicity
 _atom_site_fract_x
 _atom_site_fract_y
 _atom_site_fract_z
 _atom_site_occupancy
  Li  Li0  1  0.25067400  0.64574300  0.85125700  1
  Li  Li1  1  0.72604400  0.35368800  0.14583000  1
  Li  Li2  1  0.35552900  0.14356700  0.72577800  1
  Li  Li3  1  0.14462700  0.72287900  0.35500800  1
  Mn  Mn0  1  0.98320400  0.00111400  0.99662800  1
  Mn  Mn1  1  0.14559500  0.14714700  0.15186200  1
  Mn  Mn2  1  0.51236900  0.49929000  0.49511900  1
  Ni  Ni0  1  0.64307900  0.64708100  0.64378300  1
  Ni  Ni1  1  0.85700700  0.85369700  0.85232500  1
  Ni  Ni2  1  0.35562300  0.34999500  0.35373800  1
  P  P0  1  0.95293700  0.54875500  0.25507400  1
  P  P1  1  0.54893600  0.25238900  0.95404000  1
  P  P2  1  0.25314600  0.95282700  0.55000700  1
  P  P3  1  0.75477900  0.04413500  0.45585500  1
  P  P4  1  0.44792000  0.75285700  0.04309500  1
  P  P5  1  0.05167900  0.45628600  0.75551500  1
  O  O0  1  0.52639400  0.31457800  0.10654400  1
  O  O1  1  0.31977200  0.10379500  0.52360300  1
  O  O2  1  0.10586800  0.51804600  0.32397100  1
  O  O3  1  0.95257300  0.73146600  0.08579500  1
  O  O4  1  0.98893100  0.38439300  0.19426700  1
  O  O5  1  0.75852400  0.56632600  0.40377800  1
  O  O6  1  0.73832900  0.09643200  0.92858500  1
  O  O7  1  0.54072800  0.41585800  0.76854200  1
  O  O8  1  0.82219600  0.01064800  0.60649400  1
  O  O9  1  0.40068100  0.75536000  0.56745700  1
  O  O10  1  0.91296400  0.06981500  0.25321100  1
  O  O11  1  0.61063800  0.81287000  0.99382800  1
  O  O12  1  0.38315200  0.18629100  0.99868900  1
  O  O13  1  0.09909600  0.92857300  0.74403000  1
  O  O14  1  0.60162600  0.24211400  0.42810000  1
  O  O15  1  0.19004000  0.99016900  0.38724400  1
  O  O16  1  0.42870800  0.59904900  0.24017000  1
  O  O17  1  0.24795500  0.91339300  0.07265100  1
  O  O18  1  0.24726500  0.42285200  0.60074600  1
  O  O19  1  0.04042200  0.60359800  0.81635800  1
  O  O20  1  0.06674600  0.25561400  0.91616600  1
  O  O21  1  0.88456300  0.49604100  0.70588600  1
  O  O22  1  0.69780800  0.88924100  0.47840800  1
  O  O23  1  0.45187600  0.69902400  0.89356200  1
loop_
_geom_bond_atom_site_label_1
_geom_bond_atom_site_label_2
_geom_bond_distance
_geom_bond_site_symmetry_2
Li0 O13 2.123697 1_555
Li0 O9 2.131422 1_555
Li0 O19 2.134231 1_555
Li0 O23 2.159264 1_555
Li0 O7 2.379853 1_555
Li0 O3 2.441249 1_456
Li1 O0 2.053803 1_555
Li1 O14 2.075338 1_555
Li1 O10 2.231280 1_555
Li1 O16 2.500739 1_555
Li1 O4 2.581598 1_555
Li1 O20 2.645283 1_654
Li2 O18 2.051266 1_555
Li2 O1 2.078702 1_555
Li2 O20 2.279781 1_555
Li2 O14 2.508369 1_555
Li3 O2 2.069528 1_555
Li3 O16 2.081109 1_555
Li3 O17 2.230423 1_555
Li3 O18 2.526265 1_555
Mn0 O6 2.099969 1_555
Mn0 O3 2.167609 1_546
Mn0 O13 2.183077 1_645
Mn0 O10 2.281024 1_556
Mn0 O20 2.298140 1_655
Mn0 O17 2.311289 1_646
Mn1 O12 1.914229 1_554
Mn1 O15 1.929588 1_545
Mn1 O4 1.944555 1_455
Mn1 O10 2.039070 1_455
Mn1 O20 2.074475 1_554
Mn1 O17 2.082671 1_545
Mn2 O5 2.112172 1_555
Mn2 O7 2.202510 1_555
Mn2 O9 2.212654 1_555
Mn2 O14 2.233020 1_555
Mn2 O16 2.263505 1_555
Mn2 O18 2.282563 1_555
Ni0 O21 2.015287 1_555
Ni0 O22 2.015792 1_555
Ni0 O9 2.100617 1_555
Ni0 O23 2.106932 1_555
Ni0 O5 2.123926 1_555
Ni0 O7 2.135657 1_555
Ni1 O11 1.973212 1_555
Ni1 O8 1.974726 1_565
Ni1 O19 2.051058 1_655
Ni1 O13 2.091397 1_655
Ni1 O6 2.118602 1_565
Ni1 O3 2.122630 1_556
Ni2 O2 1.990655 1_555
Ni2 O1 1.994506 1_555
Ni2 O0 2.012202 1_555
Ni2 O14 2.119870 1_555
Ni2 O16 2.144011 1_555
Ni2 O18 2.149836 1_555
O0 P1 1.531678 1_554
O1 P2 1.521220 1_545
O2 P0 1.527504 1_455
O3 P0 1.561697 1_555
O4 P0 1.574776 1_555
O5 P0 1.542866 1_555
O6 P1 1.543885 1_555
O7 P1 1.559407 1_555
O8 P3 1.500174 1_555
O9 P2 1.560626 1_555
O10 P3 1.623865 1_555
O11 P4 1.500019 1_556
O12 P1 1.570544 1_555
O13 P2 1.563553 1_555
O14 P3 1.580687 1_555
O15 P2 1.561894 1_555
O16 P4 1.577121 1_555
O17 P4 1.615840 1_555
O18 P5 1.576032 1_555
O19 P5 1.523161 1_555
O20 P5 1.619100 1_555
O21 P5 1.506403 1_655
O22 P3 1.511903 1_565
O23 P4 1.531111 1_556
