# generated using pymatgen
data_LiB2SbO5
_symmetry_space_group_name_H-M   'P 1'
_cell_length_a   7.44964042
_cell_length_b   7.44964042
_cell_length_c   10.14781132
_cell_angle_alpha   71.07528718
_cell_angle_beta   71.07528718
_cell_angle_gamma   93.39687448
_symmetry_Int_Tables_number   1
_chemical_formula_structural   LiB2SbO5
_chemical_formula_sum   'Li4 B8 Sb4 O20'
_cell_volume   495.35358620
_cell_formula_units_Z   4
loop_
 _symmetry_equiv_pos_site_id
 _symmetry_equiv_pos_as_xyz
  1  'x, y, z'
loop_
 _atom_site_type_symbol
 _atom_site_label
 _atom_site_symmetry_multiplicity
 _atom_site_fract_x
 _atom_site_fract_y
 _atom_site_fract_z
 _atom_site_occupancy
  Li  Li0  1  0.86370100  0.13629900  0.25000000  1
  Li  Li1  1  0.37799100  0.62200900  0.25000000  1
  Li  Li2  1  0.62200900  0.37799100  0.75000000  1
  Li  Li3  1  0.13629900  0.86370100  0.75000000  1
  B  B0  1  0.79734300  0.74546900  0.39467400  1
  B  B1  1  0.73592900  0.37794300  0.48930600  1
  B  B2  1  0.74546900  0.79734300  0.89467400  1
  B  B3  1  0.37794300  0.73592900  0.98930600  1
  B  B4  1  0.62205700  0.26407100  0.01069400  1
  B  B5  1  0.25453100  0.20265700  0.10532600  1
  B  B6  1  0.26407100  0.62205700  0.51069400  1
  B  B7  1  0.20265700  0.25453100  0.60532600  1
  Sb  Sb0  1  0.93986300  0.59224600  0.13820400  1
  Sb  Sb1  1  0.59224600  0.93986300  0.63820400  1
  Sb  Sb2  1  0.40775400  0.06013700  0.36179600  1
  Sb  Sb3  1  0.06013700  0.40775400  0.86179600  1
  O  O0  1  0.79117100  0.90447600  0.43172500  1
  O  O1  1  0.85485600  0.77169200  0.24418800  1
  O  O2  1  0.90447600  0.79117100  0.93172500  1
  O  O3  1  0.80445000  0.35482400  0.35579300  1
  O  O4  1  0.34530700  0.77561300  0.37444400  1
  O  O5  1  0.77169200  0.85485600  0.74418800  1
  O  O6  1  0.55793300  0.73729200  0.00863400  1
  O  O7  1  0.26270800  0.44206700  0.49136600  1
  O  O8  1  0.35482400  0.80445000  0.85579300  1
  O  O9  1  0.77561300  0.34530700  0.87444400  1
  O  O10  1  0.22438700  0.65469300  0.12555600  1
  O  O11  1  0.64517600  0.19555000  0.14420700  1
  O  O12  1  0.73729200  0.55793300  0.50863400  1
  O  O13  1  0.44206700  0.26270800  0.99136600  1
  O  O14  1  0.22830800  0.14514400  0.25581200  1
  O  O15  1  0.65469300  0.22438700  0.62555600  1
  O  O16  1  0.19555000  0.64517600  0.64420700  1
  O  O17  1  0.09552400  0.20882900  0.06827500  1
  O  O18  1  0.14514400  0.22830800  0.75581200  1
  O  O19  1  0.20882900  0.09552400  0.56827500  1
loop_
_geom_bond_atom_site_label_1
_geom_bond_atom_site_label_2
_geom_bond_distance
_geom_bond_site_symmetry_2
Li0 O17 1.962779 1_655
Li0 O0 1.962779 1_545
Li0 O3 2.215618 1_555
Li0 O11 2.215618 1_555
Li1 O4 1.932447 1_555
Li1 O10 1.932447 1_555
Li1 O7 2.214303 1_555
Li1 O6 2.214303 1_555
Li2 O9 1.932447 1_555
Li2 O15 1.932447 1_555
Li2 O13 2.214303 1_555
Li2 O12 2.214303 1_555
Li3 O19 1.962779 1_565
Li3 O2 1.962779 1_455
Li3 O8 2.215618 1_555
Li3 O16 2.215618 1_555
B0 O0 1.353055 1_555
B0 O1 1.387785 1_555
B0 O12 1.425373 1_555
B1 O3 1.356119 1_555
B1 O15 1.391327 1_555
B1 O12 1.416598 1_555
B2 O2 1.353055 1_555
B2 O5 1.387785 1_555
B2 O6 1.425373 1_556
B3 O8 1.356119 1_555
B3 O10 1.391327 1_556
B3 O6 1.416598 1_556
B4 O11 1.356119 1_555
B4 O9 1.391327 1_554
B4 O13 1.416598 1_554
B5 O17 1.353055 1_555
B5 O14 1.387785 1_555
B5 O13 1.425373 1_554
B6 O16 1.356119 1_555
B6 O4 1.391327 1_555
B6 O7 1.416598 1_555
B7 O19 1.353055 1_555
B7 O18 1.387785 1_555
B7 O7 1.425373 1_555
O0 Sb1 2.246415 1_555
O1 Sb0 1.983918 1_555
O2 Sb0 2.246415 1_556
O3 Sb0 2.198170 1_555
O4 Sb2 2.096081 1_565
O5 Sb1 1.983918 1_555
O8 Sb1 2.198170 1_555
O9 Sb3 2.096081 1_655
O10 Sb0 2.096081 1_455
O11 Sb2 2.198170 1_555
O14 Sb2 1.983918 1_555
O15 Sb1 2.096081 1_545
O16 Sb3 2.198170 1_555
O17 Sb3 2.246415 1_554
O18 Sb3 1.983918 1_555
O19 Sb2 2.246415 1_555
