# generated using pymatgen
data_Li2Mn3CrO8
_symmetry_space_group_name_H-M   'P 1'
_cell_length_a   8.25171923
_cell_length_b   8.23568148
_cell_length_c   8.24037006
_cell_angle_alpha   89.98713321
_cell_angle_beta   89.99955745
_cell_angle_gamma   89.91387059
_symmetry_Int_Tables_number   1
_chemical_formula_structural   Li2Mn3CrO8
_chemical_formula_sum   'Li8 Mn12 Cr4 O32'
_cell_volume   560.00279884
_cell_formula_units_Z   4
loop_
 _symmetry_equiv_pos_site_id
 _symmetry_equiv_pos_as_xyz
  1  'x, y, z'
loop_
 _atom_site_type_symbol
 _atom_site_label
 _atom_site_symmetry_multiplicity
 _atom_site_fract_x
 _atom_site_fract_y
 _atom_site_fract_z
 _atom_site_occupancy
  Li  Li0  1  0.00185800  0.00244900  0.99924900  1
  Li  Li1  1  0.24834500  0.25093100  0.24781000  1
  Li  Li2  1  0.25190900  0.74961600  0.74729700  1
  Li  Li3  1  0.49792100  0.99691800  0.50003600  1
  Li  Li4  1  0.50167500  0.49751600  0.00032000  1
  Li  Li5  1  0.74848900  0.24960700  0.75232500  1
  Li  Li6  1  0.75192200  0.75014100  0.25278900  1
  Li  Li7  1  0.99791800  0.50267500  0.50021400  1
  Mn  Mn0  1  0.12381200  0.12945100  0.62370600  1
  Mn  Mn1  1  0.12479800  0.37911000  0.87062700  1
  Mn  Mn2  1  0.12606100  0.62602900  0.12062000  1
  Mn  Mn3  1  0.37390800  0.37413200  0.62066000  1
  Mn  Mn4  1  0.37517800  0.62093800  0.37066400  1
  Mn  Mn5  1  0.37629400  0.87068300  0.12391500  1
  Mn  Mn6  1  0.62385700  0.37047300  0.37625800  1
  Mn  Mn7  1  0.62474200  0.12094300  0.12943400  1
  Mn  Mn8  1  0.62627700  0.87396900  0.87933000  1
  Mn  Mn9  1  0.87349500  0.12580600  0.37935600  1
  Mn  Mn10  1  0.87528100  0.87910500  0.62933800  1
  Mn  Mn11  1  0.87624600  0.62936500  0.87608500  1
  Cr  Cr0  1  0.12496000  0.87581100  0.37410600  1
  Cr  Cr1  1  0.37502700  0.12436300  0.87416600  1
  Cr  Cr2  1  0.62533000  0.62422100  0.62593700  1
  Cr  Cr3  1  0.87461600  0.37571500  0.12594300  1
  O  O0  1  0.10916200  0.11656500  0.38892100  1
  O  O1  1  0.11078700  0.89319200  0.61438200  1
  O  O2  1  0.11175300  0.61494900  0.88485900  1
  O  O3  1  0.13524900  0.14335700  0.85823900  1
  O  O4  1  0.11454100  0.39128900  0.10633900  1
  O  O5  1  0.13826000  0.36525800  0.63496000  1
  O  O6  1  0.13949400  0.63555100  0.35668100  1
  O  O7  1  0.14074700  0.86080600  0.13319400  1
  O  O8  1  0.35937000  0.13940200  0.63324200  1
  O  O9  1  0.36030900  0.36468200  0.85669100  1
  O  O10  1  0.36172800  0.63489900  0.13518200  1
  O  O11  1  0.38544800  0.60872800  0.60644600  1
  O  O12  1  0.36483900  0.85667000  0.35839600  1
  O  O13  1  0.38835900  0.38525600  0.38503600  1
  O  O14  1  0.38955800  0.10709100  0.11461100  1
  O  O15  1  0.39072300  0.88363600  0.88913700  1
  O  O16  1  0.60940800  0.38325300  0.61098800  1
  O  O17  1  0.61088900  0.60672500  0.38574500  1
  O  O18  1  0.61176000  0.88490000  0.11507600  1
  O  O19  1  0.63480200  0.35681700  0.14188500  1
  O  O20  1  0.61485700  0.10868800  0.89361600  1
  O  O21  1  0.63794100  0.13471200  0.36504700  1
  O  O22  1  0.63977800  0.86448600  0.64327100  1
  O  O23  1  0.64073700  0.63933200  0.86676200  1
  O  O24  1  0.85922600  0.36046600  0.36665500  1
  O  O25  1  0.85985500  0.13523700  0.14309900  1
  O  O26  1  0.86182600  0.86509400  0.86479900  1
  O  O27  1  0.88524900  0.89122600  0.39366500  1
  O  O28  1  0.86513600  0.64327600  0.64169500  1
  O  O29  1  0.88838100  0.11490800  0.61505200  1
  O  O30  1  0.88933900  0.39313200  0.88549100  1
  O  O31  1  0.89057100  0.61659000  0.11079000  1
loop_
_geom_bond_atom_site_label_1
_geom_bond_atom_site_label_2
_geom_bond_distance
_geom_bond_site_symmetry_2
Li0 O26 1.961333 1_445
Li0 O7 1.971793 1_546
Li0 O3 1.977789 1_555
Li0 O25 1.992694 1_456
Li1 O13 1.960044 1_555
Li1 O0 1.974575 1_555
Li1 O4 1.977341 1_555
Li1 O14 1.990551 1_555
Li2 O2 1.963629 1_555
Li2 O15 1.975056 1_555
Li2 O11 1.975966 1_555
Li2 O1 1.987247 1_555
Li3 O21 1.965577 1_565
Li3 O8 1.971164 1_565
Li3 O12 1.976556 1_555
Li3 O22 1.987086 1_555
Li4 O10 1.960960 1_555
Li4 O23 1.973715 1_554
Li4 O19 1.976332 1_555
Li4 O9 1.990675 1_554
Li5 O29 1.959443 1_555
Li5 O16 1.969945 1_555
Li5 O20 1.980312 1_555
Li5 O30 1.989197 1_555
Li6 O18 1.962850 1_555
Li6 O31 1.970953 1_555
Li6 O27 1.978020 1_555
Li6 O17 1.988290 1_555
Li7 O5 1.962221 1_655
Li7 O24 1.974167 1_555
Li7 O28 1.974169 1_555
Li7 O6 1.991110 1_655
Mn0 O3 1.938363 1_555
Mn0 O0 1.941426 1_555
Mn0 O8 1.947196 1_555
Mn0 O29 1.947886 1_455
Mn0 O5 1.948096 1_555
Mn0 O1 1.950413 1_545
Mn1 O3 1.946073 1_555
Mn1 O4 1.946798 1_556
Mn1 O5 1.948515 1_555
Mn1 O2 1.948672 1_555
Mn1 O30 1.950048 1_455
Mn1 O9 1.950206 1_555
Mn2 O4 1.939323 1_555
Mn2 O7 1.940316 1_555
Mn2 O31 1.946556 1_455
Mn2 O2 1.948510 1_554
Mn2 O10 1.949837 1_555
Mn2 O6 1.949988 1_555
Mn3 O11 1.938062 1_555
Mn3 O8 1.939810 1_555
Mn3 O16 1.946475 1_555
Mn3 O13 1.947430 1_555
Mn3 O5 1.949546 1_555
Mn3 O9 1.949760 1_555
Mn4 O12 1.945764 1_555
Mn4 O10 1.946993 1_555
Mn4 O11 1.947348 1_555
Mn4 O13 1.947462 1_555
Mn4 O6 1.951741 1_555
Mn4 O17 1.952323 1_555
Mn5 O12 1.937942 1_555
Mn5 O15 1.941236 1_554
Mn5 O7 1.946992 1_555
Mn5 O10 1.947932 1_555
Mn5 O18 1.948060 1_555
Mn5 O14 1.951708 1_565
Mn6 O19 1.936716 1_555
Mn6 O16 1.940802 1_555
Mn6 O24 1.945433 1_555
Mn6 O21 1.947167 1_555
Mn6 O13 1.948235 1_555
Mn6 O17 1.950061 1_555
Mn7 O25 1.947093 1_555
Mn7 O19 1.947209 1_555
Mn7 O20 1.947585 1_554
Mn7 O21 1.947930 1_555
Mn7 O14 1.948030 1_555
Mn7 O18 1.950703 1_545
Mn8 O23 1.938688 1_555
Mn8 O20 1.938829 1_565
Mn8 O15 1.946914 1_555
Mn8 O18 1.948416 1_556
Mn8 O26 1.948631 1_555
Mn8 O22 1.949976 1_555
Mn9 O27 1.937778 1_545
Mn9 O24 1.938795 1_555
Mn9 O0 1.947628 1_655
Mn9 O29 1.948144 1_555
Mn9 O21 1.948569 1_555
Mn9 O25 1.951619 1_555
Mn10 O27 1.946319 1_555
Mn10 O28 1.946783 1_555
Mn10 O26 1.946866 1_555
Mn10 O29 1.948699 1_565
Mn10 O22 1.950591 1_555
Mn10 O1 1.950858 1_655
Mn11 O28 1.936993 1_555
Mn11 O31 1.940487 1_556
Mn11 O23 1.946480 1_555
Mn11 O26 1.947055 1_555
Mn11 O2 1.948124 1_655
Mn11 O30 1.949899 1_555
Cr0 O6 1.987382 1_555
Cr0 O27 1.988451 1_455
Cr0 O1 1.988591 1_555
Cr0 O12 1.989662 1_555
Cr0 O0 1.990633 1_565
Cr0 O7 1.993322 1_555
Cr1 O9 1.987921 1_555
Cr1 O3 1.988854 1_555
Cr1 O20 1.989488 1_555
Cr1 O14 1.990027 1_556
Cr1 O15 1.990382 1_545
Cr1 O8 1.993315 1_555
Cr2 O22 1.987684 1_555
Cr2 O17 1.988130 1_555
Cr2 O28 1.989505 1_555
Cr2 O11 1.990233 1_555
Cr2 O23 1.992486 1_555
Cr2 O16 1.992916 1_555
Cr3 O25 1.989423 1_555
Cr3 O19 1.989560 1_555
Cr3 O30 1.990290 1_554
Cr3 O4 1.990698 1_655
Cr3 O24 1.991564 1_555
Cr3 O31 1.992220 1_555
