# generated using pymatgen
data_Li2Cr2CoO6
_symmetry_space_group_name_H-M   'P 1'
_cell_length_a   2.91520991
_cell_length_b   11.74412150
_cell_length_c   6.82594740
_cell_angle_alpha   104.64949415
_cell_angle_beta   102.36365008
_cell_angle_gamma   90.17010887
_symmetry_Int_Tables_number   1
_chemical_formula_structural   Li2Cr2CoO6
_chemical_formula_sum   'Li4 Cr4 Co2 O12'
_cell_volume   220.45243434
_cell_formula_units_Z   2
loop_
 _symmetry_equiv_pos_site_id
 _symmetry_equiv_pos_as_xyz
  1  'x, y, z'
loop_
 _atom_site_type_symbol
 _atom_site_label
 _atom_site_symmetry_multiplicity
 _atom_site_fract_x
 _atom_site_fract_y
 _atom_site_fract_z
 _atom_site_occupancy
  Li  Li0  1  0.01910300  0.26554700  0.03982600  1
  Li  Li1  1  0.02009500  0.76498900  0.03927700  1
  Li  Li2  1  0.31421600  0.06793000  0.62714500  1
  Li  Li3  1  0.31328000  0.56799800  0.62731600  1
  Cr  Cr0  1  0.00760200  0.99947400  0.00726600  1
  Cr  Cr1  1  0.33132600  0.83366400  0.65974400  1
  Cr  Cr2  1  0.00202000  0.49964300  0.00669300  1
  Cr  Cr3  1  0.32670700  0.33375000  0.65911700  1
  Co  Co0  1  0.66661100  0.66643300  0.33308000  1
  Co  Co1  1  0.66487900  0.16651800  0.33295400  1
  O  O0  1  0.52578500  0.12329300  0.03816700  1
  O  O1  1  0.51871800  0.62325900  0.03794300  1
  O  O2  1  0.80959500  0.21022700  0.62844800  1
  O  O3  1  0.81460300  0.71021800  0.62859500  1
  O  O4  1  0.16437600  0.27374600  0.34581700  1
  O  O5  1  0.17457400  0.77373700  0.34626100  1
  O  O6  1  0.16677700  0.05987200  0.32149900  1
  O  O7  1  0.15910600  0.55961600  0.32086700  1
  O  O8  1  0.84488000  0.45584400  0.69332500  1
  O  O9  1  0.84949900  0.95572200  0.69418200  1
  O  O10  1  0.48375800  0.37762500  0.97249900  1
  O  O11  1  0.48916100  0.87756700  0.97331200  1
loop_
_geom_bond_atom_site_label_1
_geom_bond_atom_site_label_2
_geom_bond_distance
_geom_bond_site_symmetry_2
Li0 O4 2.017532 1_555
Li0 O10 2.083400 1_554
Li0 O10 2.095323 1_454
Li0 O0 2.197405 1_455
Li0 O0 2.232760 1_555
Li1 O5 2.022628 1_555
Li1 O11 2.088357 1_454
Li1 O11 2.091573 1_554
Li1 O1 2.208878 1_455
Li1 O1 2.212672 1_555
Li2 O6 2.015521 1_555
Li2 O9 2.083545 1_445
Li2 O9 2.095811 1_545
Li2 O2 2.202500 1_555
Li2 O2 2.229255 1_455
Li3 O7 2.019980 1_555
Li3 O8 2.086345 1_555
Li3 O8 2.086965 1_455
Li3 O3 2.213220 1_555
Li3 O3 2.217131 1_455
Cr0 O11 2.014196 1_454
Cr0 O11 2.014365 1_554
Cr0 O9 2.016181 1_454
Cr0 O0 2.028739 1_465
Cr0 O6 2.030141 1_565
Cr0 O0 2.033801 1_565
Cr1 O9 2.014094 1_555
Cr1 O9 2.016424 1_455
Cr1 O11 2.019283 1_555
Cr1 O5 2.024988 1_555
Cr1 O3 2.027337 1_455
Cr1 O3 2.028888 1_555
Cr2 O10 2.014336 1_454
Cr2 O10 2.015773 1_554
Cr2 O8 2.018008 1_454
Cr2 O1 2.028493 1_555
Cr2 O7 2.029371 1_555
Cr2 O1 2.030368 1_455
Cr3 O8 2.014734 1_555
Cr3 O8 2.016579 1_455
Cr3 O10 2.018087 1_555
Cr3 O4 2.023951 1_555
Cr3 O2 2.028462 1_555
Cr3 O2 2.029545 1_455
Co0 O1 1.900427 1_555
Co0 O3 1.902859 1_555
Co0 O7 1.910762 1_655
Co0 O7 1.911226 1_555
Co0 O5 1.913715 1_555
Co0 O5 1.914031 1_655
Co1 O6 1.890592 1_555
Co1 O4 1.895341 1_655
Co1 O0 1.898360 1_555
Co1 O2 1.902757 1_555
Co1 O6 1.930256 1_655
Co1 O4 1.931910 1_555
