# generated using pymatgen
data_Li4V3P8O29
_symmetry_space_group_name_H-M   'P 1'
_cell_length_a   9.76686800
_cell_length_b   9.77722804
_cell_length_c   14.31263798
_cell_angle_alpha   89.32346706
_cell_angle_beta   89.57932816
_cell_angle_gamma   60.32786132
_symmetry_Int_Tables_number   1
_chemical_formula_structural   Li4V3P8O29
_chemical_formula_sum   'Li8 V6 P16 O58'
_cell_volume   1187.45128156
_cell_formula_units_Z   2
loop_
 _symmetry_equiv_pos_site_id
 _symmetry_equiv_pos_as_xyz
  1  'x, y, z'
loop_
 _atom_site_type_symbol
 _atom_site_label
 _atom_site_symmetry_multiplicity
 _atom_site_fract_x
 _atom_site_fract_y
 _atom_site_fract_z
 _atom_site_occupancy
  Li  Li0  1  0.90835600  0.77856400  0.45156000  1
  Li  Li1  1  0.31287700  0.91689000  0.43800800  1
  Li  Li2  1  0.33614100  0.76414100  0.94545600  1
  Li  Li3  1  0.90530500  0.33006900  0.93709100  1
  Li  Li4  1  0.22366900  0.69178600  0.56038200  1
  Li  Li5  1  0.77220400  0.31137500  0.44116700  1
  Li  Li6  1  0.09416700  0.67331900  0.05681700  1
  Li  Li7  1  0.94490100  0.02820400  0.99399000  1
  V  V0  1  0.43988100  0.56287700  0.75148100  1
  V  V1  1  0.56564100  0.42791100  0.24846000  1
  V  V2  1  0.99766000  0.56541700  0.24942700  1
  V  V3  1  0.00101300  0.43160600  0.75133500  1
  V  V4  1  0.56774400  0.99732200  0.75228600  1
  V  V5  1  0.43506200  0.00273900  0.24543000  1
  P  P0  1  0.77926700  0.91807100  0.15647300  1
  P  P1  1  0.91176200  0.77141500  0.66532400  1
  P  P2  1  0.31828800  0.91232700  0.65560500  1
  P  P3  1  0.66436200  0.66663800  0.86949800  1
  P  P4  1  0.66442800  0.66403500  0.36704400  1
  P  P5  1  0.31686100  0.77076600  0.16250800  1
  P  P6  1  0.22969300  0.67785400  0.34219700  1
  P  P7  1  0.91305000  0.31309300  0.15598600  1
  P  P8  1  0.09065100  0.68320100  0.84359700  1
  P  P9  1  0.77213800  0.31926600  0.65608600  1
  P  P10  1  0.69402500  0.21911200  0.83541800  1
  P  P11  1  0.33469000  0.33314400  0.63550100  1
  P  P12  1  0.32753200  0.34137300  0.13166600  1
  P  P13  1  0.68813600  0.08146800  0.33953800  1
  P  P14  1  0.08708000  0.22498200  0.33587100  1
  P  P15  1  0.22317100  0.07970000  0.83709500  1
  O  O0  1  0.77125200  0.99266700  0.42463800  1
  O  O1  1  0.74510100  0.91729800  0.66953100  1
  O  O2  1  0.01860400  0.77005500  0.93199800  1
  O  O3  1  0.91956200  0.74229800  0.16702200  1
  O  O4  1  0.62200200  0.92057300  0.16585700  1
  O  O5  1  0.67092100  0.81032000  0.82348300  1
  O  O6  1  0.47718600  0.90524000  0.67750800  1
  O  O7  1  0.21215500  0.98592600  0.91702000  1
  O  O8  1  0.34529900  0.91128200  0.16725900  1
  O  O9  1  0.81518200  0.66273300  0.32052000  1
  O  O10  1  0.90048700  0.62219100  0.68202500  1
  O  O11  1  0.51641900  0.81304500  0.32917800  1
  O  O12  1  0.64200600  0.67491600  0.97284500  1
  O  O13  1  0.68111400  0.65676600  0.47042600  1
  O  O14  1  0.51013600  0.67490800  0.82495100  1
  O  O15  1  0.91333600  0.47048600  0.17135100  1
  O  O16  1  0.81137500  0.51201300  0.83664100  1
  O  O17  1  0.33824700  0.74318200  0.66463600  1
  O  O18  1  0.20764700  0.78868100  0.25230000  1
  O  O19  1  0.24074500  0.75560400  0.42959000  1
  O  O20  1  0.23511600  0.76824700  0.07468300  1
  O  O21  1  0.47472500  0.61546500  0.17758800  1
  O  O22  1  0.66308200  0.51441400  0.32790400  1
  O  O23  1  0.26376600  0.65310000  0.83697200  1
  O  O24  1  0.62057400  0.47968200  0.68080200  1
  O  O25  1  0.91583700  0.34123200  0.66892700  1
  O  O26  1  0.00505900  0.79161700  0.75231700  1
  O  O27  1  0.99826900  0.76303000  0.57621100  1
  O  O28  1  0.98903900  0.23673700  0.41762400  1
  O  O29  1  0.08030400  0.66003100  0.34264000  1
  O  O30  1  0.37990500  0.51944700  0.32363100  1
  O  O31  1  0.74281500  0.34235000  0.17238500  1
  O  O32  1  0.33925100  0.48221600  0.67867600  1
  O  O33  1  0.53847100  0.38012100  0.82825100  1
  O  O34  1  0.79726200  0.20810000  0.91486200  1
  O  O35  1  0.75721700  0.25880400  0.56513100  1
  O  O36  1  0.78648400  0.19941200  0.73880800  1
  O  O37  1  0.65991400  0.25365700  0.33817200  1
  O  O38  1  0.18247600  0.49546300  0.17610500  1
  O  O39  1  0.08690500  0.52990500  0.83110400  1
  O  O40  1  0.47979400  0.33582300  0.17732000  1
  O  O41  1  0.32021700  0.36657700  0.02908700  1
  O  O42  1  0.33659100  0.34403800  0.53213400  1
  O  O43  1  0.47865900  0.18305100  0.68059900  1
  O  O44  1  0.09489100  0.37946500  0.31786200  1
  O  O45  1  0.18754900  0.33585800  0.67811600  1
  O  O46  1  0.65534500  0.08395400  0.83553900  1
  O  O47  1  0.79663000  0.00303900  0.24871900  1
  O  O48  1  0.80899500  0.98913800  0.07283300  1
  O  O49  1  0.52805400  0.08963900  0.32067100  1
  O  O50  1  0.32398400  0.19672200  0.17154000  1
  O  O51  1  0.38289100  0.07747500  0.82790700  1
  O  O52  1  0.08539500  0.25150000  0.83891200  1
  O  O53  1  0.97429500  0.23939800  0.06343300  1
  O  O54  1  0.01310300  0.19937500  0.24006900  1
  O  O55  1  0.25503200  0.08215900  0.33730300  1
  O  O56  1  0.25078600  0.98199700  0.56317700  1
  O  O57  1  0.20126800  0.01021000  0.73922300  1
loop_
_geom_bond_atom_site_label_1
_geom_bond_atom_site_label_2
_geom_bond_distance
_geom_bond_site_symmetry_2
Li0 O0 1.880657 1_555
Li0 O27 1.965136 1_555
Li0 O29 2.161248 1_655
Li0 O9 2.593048 1_555
Li1 O56 1.900321 1_555
Li1 O55 2.015153 1_565
Li1 O19 2.025637 1_555
Li1 O11 2.324358 1_555
Li2 O7 1.928932 1_555
Li2 O20 2.081313 1_556
Li2 O23 2.214714 1_555
Li2 O14 2.269011 1_555
Li3 O34 1.973994 1_555
Li3 O53 1.974450 1_556
Li3 O52 2.076034 1_655
Li3 O16 2.101507 1_555
Li4 O27 1.964966 1_455
Li4 O19 1.998077 1_555
Li4 O17 2.080944 1_555
Li4 O32 2.448556 1_555
Li5 O35 1.866208 1_555
Li5 O28 1.896406 1_555
Li5 O37 2.085776 1_555
Li5 O22 2.357821 1_555
Li6 O2 1.979680 1_554
Li6 O20 2.024281 1_555
Li6 O3 2.167467 1_455
Li6 O38 2.269216 1_555
Li7 O48 1.910763 1_546
Li7 O34 1.980262 1_555
Li7 O2 2.433222 1_645
Li7 O53 2.444102 1_556
O0 P13 1.479216 1_565
O1 P1 1.545819 1_555
O1 V4 1.914567 1_555
O2 P8 1.495935 1_555
O3 P0 1.587224 1_555
O3 V2 1.903345 1_555
O4 P0 1.528967 1_555
O4 V5 1.953186 1_565
O5 P3 1.574160 1_555
O5 V4 1.882470 1_555
O6 P2 1.552979 1_555
O6 V4 1.887686 1_555
O7 P15 1.493946 1_565
O8 P5 1.532820 1_555
O8 V5 1.906351 1_565
O9 P4 1.605849 1_555
O9 V2 1.853202 1_555
O10 P1 1.532445 1_555
O10 V3 1.891978 1_655
O11 P4 1.553608 1_555
O11 V5 2.002597 1_565
O12 P3 1.490890 1_555
O13 P4 1.486816 1_555
O14 P3 1.604464 1_555
O14 V0 1.886350 1_555
O15 P7 1.558441 1_555
O15 V2 1.892975 1_555
O16 P3 1.557588 1_555
O16 V3 2.021663 1_655
O17 P2 1.570287 1_555
O17 V0 1.967722 1_555
O18 P6 1.617454 1_555
O18 P5 1.618741 1_555
O19 P6 1.503251 1_555
O20 P5 1.501013 1_555
O21 P5 1.551988 1_555
O21 V1 1.880755 1_555
O22 P4 1.578768 1_555
O22 V1 1.936345 1_555
O23 P8 1.568445 1_555
O23 V0 1.930382 1_555
O24 P9 1.575790 1_555
O24 V0 1.836156 1_555
O25 P9 1.533895 1_555
O25 V3 1.905462 1_655
O26 P1 1.618725 1_455
O26 P8 1.623357 1_555
O27 P1 1.505125 1_555
O28 P14 1.475472 1_655
O29 P6 1.552688 1_555
O29 V2 2.017768 1_455
O30 P6 1.541445 1_555
O30 V1 1.906830 1_555
O31 P7 1.557669 1_555
O31 V1 1.854831 1_555
O32 P11 1.610633 1_555
O32 V0 1.864301 1_555
O33 P10 1.558023 1_555
O33 V0 1.895526 1_555
O34 P10 1.492520 1_555
O35 P9 1.473651 1_555
O36 P10 1.606331 1_555
O36 P9 1.612990 1_555
O37 P13 1.565406 1_555
O37 V1 1.952361 1_555
O38 P12 1.605499 1_555
O38 V2 1.895835 1_455
O39 P8 1.529856 1_555
O39 V3 1.941433 1_555
O40 P12 1.604676 1_555
O40 V1 1.825379 1_555
O41 P12 1.482207 1_555
O42 P11 1.482669 1_555
O43 P11 1.579660 1_555
O43 V4 1.874067 1_545
O44 P14 1.567870 1_555
O44 V2 1.851726 1_455
O45 P11 1.545236 1_555
O45 V3 1.897453 1_555
O46 P10 1.543767 1_555
O46 V4 1.904107 1_545
O47 P13 1.612240 1_555
O47 P0 1.621951 1_545
O48 P0 1.474846 1_555
O49 P13 1.551082 1_555
O49 V5 1.872561 1_555
O50 P12 1.535017 1_555
O50 V5 1.955725 1_555
O51 P15 1.553934 1_555
O51 V4 1.906751 1_545
O52 P15 1.547759 1_555
O52 V3 1.969126 1_555
O53 P7 1.488600 1_555
O54 P7 1.596677 1_455
O54 P14 1.632976 1_555
O55 P14 1.540493 1_555
O55 V5 2.015472 1_555
O56 P2 1.481752 1_555
O57 P2 1.605769 1_545
O57 P15 1.624934 1_555
