# generated using pymatgen
data_Li2Ti3CrO8
_symmetry_space_group_name_H-M   'P 1'
_cell_length_a   5.89554411
_cell_length_b   5.89554411
_cell_length_c   9.64688900
_cell_angle_alpha   90.00000000
_cell_angle_beta   90.00000000
_cell_angle_gamma   120.00000123
_symmetry_Int_Tables_number   1
_chemical_formula_structural   Li2Ti3CrO8
_chemical_formula_sum   'Li4 Ti6 Cr2 O16'
_cell_volume   290.37932666
_cell_formula_units_Z   2
loop_
 _symmetry_equiv_pos_site_id
 _symmetry_equiv_pos_as_xyz
  1  'x, y, z'
loop_
 _atom_site_type_symbol
 _atom_site_label
 _atom_site_symmetry_multiplicity
 _atom_site_fract_x
 _atom_site_fract_y
 _atom_site_fract_z
 _atom_site_occupancy
  Li  Li0  1  0.33333300  0.66666700  0.89218500  1
  Li  Li1  1  0.00000000  0.00000000  0.99660000  1
  Li  Li2  1  0.00000000  0.00000000  0.49660000  1
  Li  Li3  1  0.66666700  0.33333300  0.39218500  1
  Ti  Ti0  1  0.16905600  0.83094400  0.21348100  1
  Ti  Ti1  1  0.16905600  0.33811100  0.21348100  1
  Ti  Ti2  1  0.66188900  0.83094400  0.21348100  1
  Ti  Ti3  1  0.33811100  0.16905600  0.71348100  1
  Ti  Ti4  1  0.83094400  0.66188900  0.71348100  1
  Ti  Ti5  1  0.83094400  0.16905600  0.71348100  1
  Cr  Cr0  1  0.33333300  0.66666700  0.48403900  1
  Cr  Cr1  1  0.66666700  0.33333300  0.98403900  1
  O  O0  1  0.16353800  0.83646200  0.60351200  1
  O  O1  1  0.03991000  0.51995500  0.33835800  1
  O  O2  1  0.33333300  0.66666700  0.10290100  1
  O  O3  1  0.00000000  0.00000000  0.31220700  1
  O  O4  1  0.00000000  0.00000000  0.81220700  1
  O  O5  1  0.16353800  0.32707500  0.60351200  1
  O  O6  1  0.48004500  0.96009000  0.33835800  1
  O  O7  1  0.48004500  0.51995500  0.33835800  1
  O  O8  1  0.32707500  0.16353800  0.10351200  1
  O  O9  1  0.67292500  0.83646200  0.60351200  1
  O  O10  1  0.51995500  0.48004500  0.83835800  1
  O  O11  1  0.51995500  0.03991000  0.83835800  1
  O  O12  1  0.66666700  0.33333300  0.60290100  1
  O  O13  1  0.83646200  0.67292500  0.10351200  1
  O  O14  1  0.96009000  0.48004500  0.83835800  1
  O  O15  1  0.83646200  0.16353800  0.10351200  1
loop_
_geom_bond_atom_site_label_1
_geom_bond_atom_site_label_2
_geom_bond_distance
_geom_bond_site_symmetry_2
Li0 O11 1.975142 1_565
Li0 O14 1.975142 1_455
Li0 O10 1.975147 1_555
Li0 O2 2.032754 1_556
Li1 O4 1.778819 1_555
Li1 O8 1.962762 1_556
Li1 O13 1.962762 1_446
Li1 O15 1.962766 1_456
Li2 O3 1.778819 1_555
Li2 O5 1.962762 1_555
Li2 O9 1.962762 1_445
Li2 O0 1.962766 1_545
Li3 O1 1.975142 1_655
Li3 O6 1.975142 1_545
Li3 O7 1.975147 1_555
Li3 O12 2.032754 1_555
Cr0 O1 2.054129 1_555
Cr0 O6 2.054129 1_555
Cr0 O7 2.054133 1_555
Cr0 O0 2.081961 1_555
Cr0 O5 2.081969 1_555
Cr0 O9 2.081969 1_555
Cr1 O11 2.054129 1_555
Cr1 O14 2.054129 1_555
Cr1 O10 2.054133 1_555
Cr1 O15 2.081961 1_556
Cr1 O13 2.081969 1_556
Cr1 O8 2.081969 1_556
O0 Ti3 2.002853 1_565
O0 Ti4 2.002853 1_455
O1 Ti0 1.999131 1_555
O1 Ti1 1.999135 1_555
O2 Ti0 1.987952 1_555
O2 Ti2 1.987960 1_555
O2 Ti1 1.987960 1_555
O3 Ti1 1.971583 1_555
O3 Ti2 1.971583 1_445
O3 Ti0 1.971588 1_545
O4 Ti3 1.971583 1_555
O4 Ti4 1.971583 1_445
O4 Ti5 1.971588 1_455
O5 Ti3 2.002845 1_555
O5 Ti5 2.002853 1_455
O6 Ti0 1.999131 1_555
O6 Ti2 1.999135 1_555
O7 Ti2 1.999131 1_555
O7 Ti1 1.999131 1_555
O8 Ti1 2.002845 1_555
O8 Ti0 2.002853 1_545
O9 Ti4 2.002845 1_555
O9 Ti5 2.002853 1_565
O10 Ti4 1.999131 1_555
O10 Ti3 1.999131 1_555
O11 Ti5 1.999131 1_555
O11 Ti3 1.999135 1_555
O12 Ti5 1.987952 1_555
O12 Ti4 1.987960 1_555
O12 Ti3 1.987960 1_555
O13 Ti2 2.002845 1_555
O13 Ti0 2.002853 1_655
O14 Ti5 1.999131 1_555
O14 Ti4 1.999135 1_555
O15 Ti2 2.002853 1_545
O15 Ti1 2.002853 1_655
