# generated using pymatgen
data_VH8C2N2O6F
_symmetry_space_group_name_H-M   'P 1'
_cell_length_a   9.58382400
_cell_length_b   7.29852300
_cell_length_c   11.44350988
_cell_angle_alpha   84.97565179
_cell_angle_beta   90.00000000
_cell_angle_gamma   90.00000000
_symmetry_Int_Tables_number   1
_chemical_formula_structural   VH8C2N2O6F
_chemical_formula_sum   'V4 H32 C8 N8 O24 F4'
_cell_volume   797.37221685
_cell_formula_units_Z   4
loop_
 _symmetry_equiv_pos_site_id
 _symmetry_equiv_pos_as_xyz
  1  'x, y, z'
loop_
 _atom_site_type_symbol
 _atom_site_label
 _atom_site_symmetry_multiplicity
 _atom_site_fract_x
 _atom_site_fract_y
 _atom_site_fract_z
 _atom_site_occupancy
  V  V0  1  0.53178200  0.15291700  0.26337000  1
  V  V1  1  0.03178200  0.34708300  0.73663000  1
  V  V2  1  0.46821800  0.84708300  0.73663000  1
  V  V3  1  0.96821800  0.65291700  0.26337000  1
  H  H0  1  0.96079000  0.13781000  0.16522200  1
  H  H1  1  0.46079000  0.36219000  0.83477800  1
  H  H2  1  0.03921000  0.86219000  0.83477800  1
  H  H3  1  0.53921000  0.63781000  0.16522200  1
  H  H4  1  0.80419100  0.24738400  0.13599100  1
  H  H5  1  0.30419100  0.25261600  0.86400900  1
  H  H6  1  0.19580900  0.75261600  0.86400900  1
  H  H7  1  0.69580900  0.74738400  0.13599100  1
  H  H8  1  0.95750900  0.34443700  0.09140700  1
  H  H9  1  0.45750900  0.15556300  0.90859300  1
  H  H10  1  0.04249100  0.65556300  0.90859300  1
  H  H11  1  0.54249100  0.84443700  0.09140700  1
  H  H12  1  0.89571800  0.15823100  0.02799600  1
  H  H13  1  0.39571800  0.34176900  0.97200400  1
  H  H14  1  0.10428200  0.84176900  0.97200400  1
  H  H15  1  0.60428200  0.65823100  0.02799600  1
  H  H16  1  0.87990700  0.24215800  0.38664100  1
  H  H17  1  0.37990700  0.25784200  0.61335900  1
  H  H18  1  0.12009300  0.75784200  0.61335900  1
  H  H19  1  0.62009300  0.74215800  0.38664100  1
  H  H20  1  0.73949600  0.15073000  0.45485400  1
  H  H21  1  0.23949600  0.34927000  0.54514600  1
  H  H22  1  0.26050400  0.84927000  0.54514600  1
  H  H23  1  0.76050400  0.65073000  0.45485400  1
  H  H24  1  0.86914200  0.00813200  0.41781700  1
  H  H25  1  0.36914200  0.49186800  0.58218300  1
  H  H26  1  0.13085800  0.99186800  0.58218300  1
  H  H27  1  0.63085800  0.50813200  0.41781700  1
  H  H28  1  0.89420700  0.15005700  0.52578200  1
  H  H29  1  0.39420700  0.34994300  0.47421800  1
  H  H30  1  0.10579300  0.84994300  0.47421800  1
  H  H31  1  0.60579300  0.65005700  0.52578200  1
  C  C0  1  0.77427500  0.45018300  0.84439300  1
  C  C1  1  0.27427500  0.04981700  0.15560700  1
  C  C2  1  0.22572500  0.54981700  0.15560700  1
  C  C3  1  0.72572500  0.95018300  0.84439300  1
  C  C4  1  0.73057700  0.37623900  0.72652600  1
  C  C5  1  0.23057700  0.12376100  0.27347400  1
  C  C6  1  0.26942300  0.62376100  0.27347400  1
  C  C7  1  0.76942300  0.87623900  0.72652600  1
  N  N0  1  0.90437700  0.22159600  0.10483400  1
  N  N1  1  0.40437700  0.27840400  0.89516600  1
  N  N2  1  0.09562300  0.77840400  0.89516600  1
  N  N3  1  0.59562300  0.72159600  0.10483400  1
  N  N4  1  0.84605000  0.13545700  0.44658400  1
  N  N5  1  0.34605000  0.36454300  0.55341600  1
  N  N6  1  0.15395000  0.86454300  0.55341600  1
  N  N7  1  0.65395000  0.63545700  0.44658400  1
  O  O0  1  0.61721900  0.29468000  0.16753800  1
  O  O1  1  0.11721900  0.20532000  0.83246200  1
  O  O2  1  0.38278100  0.70532000  0.83246200  1
  O  O3  1  0.88278100  0.79468000  0.16753800  1
  O  O4  1  0.87358800  0.46395300  0.29219000  1
  O  O5  1  0.37358800  0.03604700  0.70781000  1
  O  O6  1  0.12641200  0.53604700  0.70781000  1
  O  O7  1  0.62641200  0.96395300  0.29219000  1
  O  O8  1  0.90916700  0.44852000  0.85981900  1
  O  O9  1  0.40916700  0.05148000  0.14018100  1
  O  O10  1  0.09083300  0.55148000  0.14018100  1
  O  O11  1  0.59083300  0.94852000  0.85981900  1
  O  O12  1  0.83739100  0.32755800  0.66590200  1
  O  O13  1  0.33739100  0.17244200  0.33409800  1
  O  O14  1  0.16260900  0.67244200  0.33409800  1
  O  O15  1  0.66260900  0.82755800  0.66590200  1
  O  O16  1  0.81306900  0.00517100  0.91289600  1
  O  O17  1  0.31306900  0.49482900  0.08710400  1
  O  O18  1  0.18693100  0.99482900  0.08710400  1
  O  O19  1  0.68693100  0.50517100  0.91289600  1
  O  O20  1  0.60704100  0.36870200  0.69641900  1
  O  O21  1  0.10704100  0.13129800  0.30358100  1
  O  O22  1  0.39295900  0.63129800  0.30358100  1
  O  O23  1  0.89295900  0.86870200  0.69641900  1
  F  F0  1  0.57422200  0.27077200  0.40319300  1
  F  F1  1  0.07422200  0.22922800  0.59680700  1
  F  F2  1  0.42577800  0.72922800  0.59680700  1
  F  F3  1  0.92577800  0.77077200  0.40319300  1
loop_
_geom_bond_atom_site_label_1
_geom_bond_atom_site_label_2
_geom_bond_distance
_geom_bond_site_symmetry_2
H0 N0 1.034304 1_555
H1 N1 1.034304 1_555
H2 N2 1.034304 1_555
H3 N3 1.034304 1_555
H4 N0 1.047005 1_555
H5 N1 1.047005 1_555
H6 N2 1.047005 1_555
H7 N3 1.047005 1_555
H8 N0 1.030819 1_555
H9 N1 1.030819 1_555
H10 N2 1.030819 1_555
H11 N3 1.030819 1_555
H12 N0 1.032064 1_555
H13 N1 1.032064 1_555
H14 N2 1.032064 1_555
H15 N3 1.032064 1_555
H16 N4 1.043419 1_555
H17 N5 1.043419 1_555
H18 N6 1.043419 1_555
H19 N7 1.043419 1_555
H20 N4 1.032506 1_555
H21 N5 1.032506 1_555
H22 N6 1.032506 1_555
H23 N7 1.032506 1_555
H24 N4 1.036581 1_555
H25 N5 1.036581 1_555
H26 N6 1.036581 1_555
H27 N7 1.036581 1_555
H28 N4 1.030856 1_555
H29 N5 1.030856 1_555
H30 N6 1.030856 1_555
H31 N7 1.030856 1_555
C0 O19 1.237503 1_555
C0 O8 1.304690 1_555
C1 O18 1.237503 1_545
C1 O9 1.304690 1_555
C2 O17 1.237503 1_555
C2 O10 1.304690 1_555
C3 O16 1.237503 1_565
C3 O11 1.304690 1_555
C4 O20 1.235628 1_555
C4 O12 1.303318 1_555
C5 O21 1.235628 1_555
C5 O13 1.303318 1_555
C6 O22 1.235628 1_555
C6 O14 1.303318 1_555
C7 O23 1.235628 1_555
C7 O15 1.303318 1_555
O0 V0 1.656769 1_555
O1 V1 1.656769 1_555
O2 V2 1.656769 1_555
O3 V3 1.656769 1_555
O4 V3 1.659420 1_555
O5 V2 1.659420 1_545
O6 V1 1.659420 1_555
O7 V0 1.659420 1_565
O8 V1 2.024627 1_655
O9 V0 2.024627 1_555
O10 V3 2.024627 1_455
O11 V2 2.024627 1_555
O12 V1 2.041177 1_655
O13 V0 2.041177 1_555
O14 V3 2.041177 1_455
O15 V2 2.041177 1_555
F0 V0 1.925255 1_555
F1 V1 1.925255 1_555
F2 V2 1.925255 1_555
F3 V3 1.925255 1_555
