# generated using pymatgen
data_Ba2YBr7
_symmetry_space_group_name_H-M   'P 1'
_cell_length_a   12.05825542
_cell_length_b   12.05825542
_cell_length_c   12.26346747
_cell_angle_alpha   65.64077209
_cell_angle_beta   65.64077209
_cell_angle_gamma   68.94159229
_symmetry_Int_Tables_number   1
_chemical_formula_structural   Ba2YBr7
_chemical_formula_sum   'Ba8 Y4 Br28'
_cell_volume   1440.81079966
_cell_formula_units_Z   4
loop_
 _symmetry_equiv_pos_site_id
 _symmetry_equiv_pos_as_xyz
  1  'x, y, z'
loop_
 _atom_site_type_symbol
 _atom_site_label
 _atom_site_symmetry_multiplicity
 _atom_site_fract_x
 _atom_site_fract_y
 _atom_site_fract_z
 _atom_site_occupancy
  Ba  Ba0  1  0.26045500  0.90092400  0.96343000  1
  Ba  Ba1  1  0.32026100  0.43641800  0.96798100  1
  Ba  Ba2  1  0.43641800  0.32026100  0.46798100  1
  Ba  Ba3  1  0.09907600  0.73954500  0.53657000  1
  Ba  Ba4  1  0.90092400  0.26045500  0.46343000  1
  Ba  Ba5  1  0.56358200  0.67973900  0.53201900  1
  Ba  Ba6  1  0.67973900  0.56358200  0.03201900  1
  Ba  Ba7  1  0.73954500  0.09907600  0.03657000  1
  Y  Y0  1  0.01164100  0.33157300  0.82509700  1
  Y  Y1  1  0.66842700  0.98835900  0.67490300  1
  Y  Y2  1  0.33157300  0.01164100  0.32509700  1
  Y  Y3  1  0.98835900  0.66842700  0.17490300  1
  Br  Br0  1  0.21886400  0.62320500  0.21066600  1
  Br  Br1  1  0.09164800  0.03781800  0.32383600  1
  Br  Br2  1  0.03678300  0.42524900  0.16413600  1
  Br  Br3  1  0.43949800  0.13021600  0.06877700  1
  Br  Br4  1  0.22542800  0.23227200  0.89546300  1
  Br  Br5  1  0.42524900  0.03678300  0.66413600  1
  Br  Br6  1  0.13021600  0.43949800  0.56877700  1
  Br  Br7  1  0.76772800  0.77457200  0.60453700  1
  Br  Br8  1  0.13185000  0.72579000  0.92128400  1
  Br  Br9  1  0.62320500  0.21886400  0.71066600  1
  Br  Br10  1  0.72579000  0.13185000  0.42128400  1
  Br  Br11  1  0.35281500  0.52003600  0.65160000  1
  Br  Br12  1  0.96218200  0.90835200  0.17616400  1
  Br  Br13  1  0.52003600  0.35281500  0.15160000  1
  Br  Br14  1  0.47996400  0.64718500  0.84840000  1
  Br  Br15  1  0.03781800  0.09164800  0.82383600  1
  Br  Br16  1  0.64718500  0.47996400  0.34840000  1
  Br  Br17  1  0.27421000  0.86815000  0.57871600  1
  Br  Br18  1  0.37679500  0.78113600  0.28933400  1
  Br  Br19  1  0.86815000  0.27421000  0.07871600  1
  Br  Br20  1  0.23227200  0.22542800  0.39546300  1
  Br  Br21  1  0.86978400  0.56050200  0.43122300  1
  Br  Br22  1  0.57475100  0.96321700  0.33586400  1
  Br  Br23  1  0.77457200  0.76772800  0.10453700  1
  Br  Br24  1  0.56050200  0.86978400  0.93122300  1
  Br  Br25  1  0.96321700  0.57475100  0.83586400  1
  Br  Br26  1  0.90835200  0.96218200  0.67616400  1
  Br  Br27  1  0.78113600  0.37679500  0.78933400  1
loop_
_geom_bond_atom_site_label_1
_geom_bond_atom_site_label_2
_geom_bond_distance
_geom_bond_site_symmetry_2
Ba0 Br8 3.323666 1_555
Ba0 Br24 3.369637 1_555
Ba0 Br5 3.386288 1_565
Ba0 Br15 3.396078 1_565
Ba0 Br12 3.459918 1_456
Ba0 Br0 3.497960 1_556
Ba0 Br14 3.608026 1_555
Ba0 Br4 3.628700 1_565
Ba1 Br14 3.229749 1_555
Ba1 Br2 3.281729 1_556
Ba1 Br3 3.333785 1_556
Ba1 Br8 3.375325 1_555
Ba1 Br11 3.467781 1_555
Ba1 Br13 3.570267 1_556
Ba1 Br4 3.581333 1_555
Ba2 Br16 3.229749 1_555
Ba2 Br5 3.281729 1_555
Ba2 Br6 3.333785 1_555
Ba2 Br10 3.375325 1_555
Ba2 Br13 3.467781 1_555
Ba2 Br11 3.570267 1_555
Ba2 Br20 3.581333 1_555
Ba3 Br17 3.323666 1_555
Ba3 Br6 3.369637 1_555
Ba3 Br25 3.386288 1_455
Ba3 Br26 3.396078 1_455
Ba3 Br1 3.459918 1_565
Ba3 Br18 3.497960 1_555
Ba3 Br11 3.608026 1_555
Ba3 Br7 3.628700 1_455
Ba4 Br10 3.323666 1_555
Ba4 Br21 3.369637 1_555
Ba4 Br2 3.386288 1_655
Ba4 Br1 3.396078 1_655
Ba4 Br26 3.459918 1_545
Ba4 Br9 3.497960 1_555
Ba4 Br16 3.608026 1_555
Ba4 Br20 3.628700 1_655
Ba5 Br11 3.229749 1_555
Ba5 Br22 3.281729 1_555
Ba5 Br21 3.333785 1_555
Ba5 Br17 3.375325 1_555
Ba5 Br14 3.467781 1_555
Ba5 Br16 3.570267 1_555
Ba5 Br7 3.581333 1_555
Ba6 Br13 3.229749 1_555
Ba6 Br25 3.281729 1_554
Ba6 Br24 3.333785 1_554
Ba6 Br19 3.375325 1_555
Ba6 Br16 3.467781 1_555
Ba6 Br14 3.570267 1_554
Ba6 Br23 3.581333 1_555
Ba7 Br19 3.323666 1_555
Ba7 Br3 3.369637 1_555
Ba7 Br22 3.386288 1_545
Ba7 Br12 3.396078 1_545
Ba7 Br15 3.459918 1_654
Ba7 Br27 3.497960 1_554
Ba7 Br13 3.608026 1_555
Ba7 Br23 3.628700 1_545
Br0 Y3 2.816799 1_455
Br1 Y2 2.801141 1_555
Br2 Y3 2.825265 1_455
Br3 Y2 2.806053 1_555
Br4 Y0 2.754705 1_555
Br5 Y1 2.825265 1_545
Br6 Y0 2.806053 1_555
Br7 Y1 2.754705 1_555
Br8 Y3 2.791412 1_456
Br9 Y1 2.816799 1_545
Br10 Y1 2.791412 1_545
Br12 Y3 2.801141 1_555
Br15 Y0 2.801141 1_555
Br17 Y2 2.791412 1_565
Br18 Y2 2.816799 1_565
Br19 Y0 2.791412 1_654
Br20 Y2 2.754705 1_555
Br21 Y3 2.806053 1_555
Br22 Y2 2.825265 1_565
Br23 Y3 2.754705 1_555
Br24 Y1 2.806053 1_555
Br25 Y0 2.825265 1_655
Br26 Y1 2.801141 1_555
Br27 Y0 2.816799 1_655
