# generated using pymatgen
data_NaFePO4
_symmetry_space_group_name_H-M   'P 1'
_cell_length_a   5.07389687
_cell_length_b   5.07382308
_cell_length_c   13.77613100
_cell_angle_alpha   89.99870881
_cell_angle_beta   89.99760478
_cell_angle_gamma   65.50497553
_symmetry_Int_Tables_number   1
_chemical_formula_structural   NaFePO4
_chemical_formula_sum   'Na4 Fe4 P4 O16'
_cell_volume   322.73369673
_cell_formula_units_Z   4
loop_
 _symmetry_equiv_pos_site_id
 _symmetry_equiv_pos_as_xyz
  1  'x, y, z'
loop_
 _atom_site_type_symbol
 _atom_site_label
 _atom_site_symmetry_multiplicity
 _atom_site_fract_x
 _atom_site_fract_y
 _atom_site_fract_z
 _atom_site_occupancy
  Na  Na0  1  0.31572900  0.31568100  0.37499700  1
  Na  Na1  1  0.31577600  0.31575800  0.87498800  1
  Na  Na2  1  0.68420200  0.68422800  0.12501600  1
  Na  Na3  1  0.68423300  0.68424300  0.62499300  1
  Fe  Fe0  1  0.99995600  0.99995600  0.49998800  1
  Fe  Fe1  1  0.99991800  0.99989200  0.75001500  1
  Fe  Fe2  1  0.99991000  0.99993200  0.99997800  1
  Fe  Fe3  1  0.99992800  0.99992100  0.24997200  1
  P  P0  1  0.33615700  0.33621100  0.12498200  1
  P  P1  1  0.33623900  0.33623700  0.62501100  1
  P  P2  1  0.66384600  0.66380400  0.37500600  1
  P  P3  1  0.66383000  0.66381900  0.87502300  1
  O  O0  1  0.21043900  0.67600000  0.12499400  1
  O  O1  1  0.21049500  0.67597400  0.62501300  1
  O  O2  1  0.32407600  0.78950300  0.37500000  1
  O  O3  1  0.32409600  0.78951200  0.87502800  1
  O  O4  1  0.67594100  0.21048800  0.12498400  1
  O  O5  1  0.67597100  0.21048100  0.62500100  1
  O  O6  1  0.78953800  0.32404100  0.37499900  1
  O  O7  1  0.78951800  0.32406600  0.87500700  1
  O  O8  1  0.23134500  0.23138500  0.03381100  1
  O  O9  1  0.23130500  0.23132200  0.53386000  1
  O  O10  1  0.23125900  0.23133600  0.21613500  1
  O  O11  1  0.23133700  0.23132700  0.71617200  1
  O  O12  1  0.76872700  0.76870100  0.28385200  1
  O  O13  1  0.76873400  0.76874800  0.78387100  1
  O  O14  1  0.76875100  0.76874000  0.46614000  1
  O  O15  1  0.76874400  0.76869300  0.96616300  1
loop_
_geom_bond_atom_site_label_1
_geom_bond_atom_site_label_2
_geom_bond_distance
_geom_bond_site_symmetry_2
Na0 O9 2.303957 1_555
Na0 O10 2.304039 1_555
Na0 O6 2.421952 1_555
Na0 O2 2.421955 1_555
Na0 O2 2.652454 1_545
Na0 O6 2.652533 1_455
Na1 O8 2.303462 1_556
Na1 O11 2.303511 1_555
Na1 O7 2.421499 1_555
Na1 O3 2.421552 1_555
Na1 O3 2.652854 1_545
Na1 O7 2.652979 1_455
Na2 O12 2.303943 1_555
Na2 O15 2.304125 1_554
Na2 O4 2.421352 1_555
Na2 O0 2.421432 1_555
Na2 O0 2.653035 1_655
Na2 O4 2.653046 1_565
Na3 O14 2.304136 1_555
Na3 O13 2.304504 1_555
Na3 O1 2.421394 1_555
Na3 O5 2.421466 1_555
Na3 O5 2.652932 1_565
Na3 O1 2.653079 1_655
Fe0 O14 2.027604 1_555
Fe0 O9 2.028901 1_665
Fe0 O6 2.313615 1_565
Fe0 O5 2.313659 1_565
Fe0 O2 2.313698 1_655
Fe0 O1 2.313815 1_655
Fe1 O13 2.027209 1_555
Fe1 O11 2.029352 1_665
Fe1 O1 2.313432 1_655
Fe1 O5 2.313690 1_565
Fe1 O7 2.313854 1_565
Fe1 O3 2.314111 1_655
Fe2 O15 2.027433 1_555
Fe2 O8 2.029496 1_666
Fe2 O3 2.313454 1_655
Fe2 O7 2.313538 1_565
Fe2 O4 2.313572 1_566
Fe2 O0 2.313583 1_656
Fe3 O12 2.027671 1_555
Fe3 O10 2.028884 1_665
Fe3 O0 2.313138 1_655
Fe3 O4 2.313510 1_565
Fe3 O6 2.314062 1_565
Fe3 O2 2.314218 1_655
O0 P0 1.570747 1_555
O1 P1 1.570495 1_555
O2 P2 1.570686 1_555
O3 P3 1.570517 1_555
O4 P0 1.570746 1_555
O5 P1 1.570492 1_555
O6 P2 1.570631 1_555
O7 P3 1.570585 1_555
O8 P0 1.542021 1_555
O9 P1 1.542319 1_555
O10 P0 1.542098 1_555
O11 P1 1.542284 1_555
O12 P2 1.542121 1_555
O13 P3 1.542235 1_555
O14 P2 1.542109 1_555
O15 P3 1.542045 1_555
