# generated using pymatgen
data_Li4Cu3Ni(PO4)4
_symmetry_space_group_name_H-M   'P 1'
_cell_length_a   4.73731941
_cell_length_b   9.96623351
_cell_length_c   6.07298800
_cell_angle_alpha   90.00000000
_cell_angle_beta   90.00000000
_cell_angle_gamma   89.07857057
_symmetry_Int_Tables_number   1
_chemical_formula_structural   Li4Cu3Ni(PO4)4
_chemical_formula_sum   'Li4 Cu3 Ni1 P4 O16'
_cell_volume   286.68831074
_cell_formula_units_Z   1
loop_
 _symmetry_equiv_pos_site_id
 _symmetry_equiv_pos_as_xyz
  1  'x, y, z'
loop_
 _atom_site_type_symbol
 _atom_site_label
 _atom_site_symmetry_multiplicity
 _atom_site_fract_x
 _atom_site_fract_y
 _atom_site_fract_z
 _atom_site_occupancy
  Li  Li0  1  0.99750200  0.99773900  0.99992200  1
  Li  Li1  1  0.99750200  0.99773900  0.50007800  1
  Li  Li2  1  0.50079000  0.50037200  0.49739300  1
  Li  Li3  1  0.50079000  0.50037200  0.00260700  1
  Cu  Cu0  1  0.04968700  0.71320500  0.75000000  1
  Cu  Cu1  1  0.44991800  0.21688100  0.75000000  1
  Cu  Cu2  1  0.54773400  0.78456800  0.25000000  1
  Ni  Ni0  1  0.97885800  0.27796600  0.25000000  1
  P  P0  1  0.08161700  0.59628500  0.25000000  1
  P  P1  1  0.42021600  0.09423400  0.25000000  1
  P  P2  1  0.57604100  0.90490200  0.75000000  1
  P  P3  1  0.91866300  0.40325500  0.75000000  1
  O  O0  1  0.19867300  0.44983300  0.25000000  1
  O  O1  1  0.21804200  0.66522400  0.04615200  1
  O  O2  1  0.21804200  0.66522400  0.45384800  1
  O  O3  1  0.24615700  0.39461400  0.75000000  1
  O  O4  1  0.25114100  0.89748700  0.75000000  1
  O  O5  1  0.27336100  0.16525200  0.04899300  1
  O  O6  1  0.27336100  0.16525200  0.45100700  1
  O  O7  1  0.30772700  0.94790700  0.25000000  1
  O  O8  1  0.68235900  0.05333400  0.75000000  1
  O  O9  1  0.71796500  0.83792100  0.54569300  1
  O  O10  1  0.71796500  0.83792100  0.95430700  1
  O  O11  1  0.74248600  0.09984400  0.25000000  1
  O  O12  1  0.75541400  0.60466800  0.25000000  1
  O  O13  1  0.78340400  0.33775600  0.54338000  1
  O  O14  1  0.78340400  0.33775600  0.95662000  1
  O  O15  1  0.81118400  0.55248700  0.75000000  1
loop_
_geom_bond_atom_site_label_1
_geom_bond_atom_site_label_2
_geom_bond_distance
_geom_bond_site_symmetry_2
Li0 O10 2.105990 1_555
Li0 O5 2.157297 1_666
Li0 O7 2.165528 1_656
Li0 O4 2.169576 1_655
Li0 O11 2.182195 1_566
Li0 O8 2.193827 1_565
Li1 O9 2.105990 1_555
Li1 O6 2.157297 1_665
Li1 O7 2.165528 1_655
Li1 O4 2.169576 1_655
Li1 O11 2.182195 1_565
Li1 O8 2.193827 1_565
Li2 O13 2.104103 1_555
Li2 O2 2.119581 1_555
Li2 O0 2.140686 1_555
Li2 O15 2.193151 1_555
Li2 O12 2.198411 1_555
Li2 O3 2.227180 1_555
Li3 O14 2.104103 1_554
Li3 O1 2.119581 1_555
Li3 O0 2.140686 1_555
Li3 O15 2.193151 1_554
Li3 O12 2.198411 1_555
Li3 O3 2.227180 1_554
Cu0 O15 1.974947 1_455
Cu0 O1 2.021680 1_556
Cu0 O2 2.021680 1_555
Cu0 O4 2.083327 1_555
Cu0 O10 2.343309 1_455
Cu0 O9 2.343309 1_455
Cu1 O8 1.952314 1_555
Cu1 O3 2.003592 1_555
Cu1 O5 2.067665 1_556
Cu1 O6 2.067665 1_555
Cu1 O13 2.362800 1_555
Cu1 O14 2.362800 1_555
Cu2 O7 1.970582 1_555
Cu2 O12 2.031207 1_555
Cu2 O9 2.042438 1_555
Cu2 O10 2.042438 1_554
Cu2 O2 2.333752 1_555
Cu2 O1 2.333752 1_555
Ni0 O0 2.018825 1_655
Ni0 O14 2.090240 1_554
Ni0 O13 2.090240 1_555
Ni0 O11 2.114042 1_555
Ni0 O6 2.155938 1_655
Ni0 O5 2.155938 1_655
O0 P0 1.553007 1_555
O1 P0 1.560957 1_555
O2 P0 1.560957 1_555
O3 P3 1.552449 1_455
O4 P2 1.542115 1_555
O5 P1 1.568202 1_555
O6 P1 1.568202 1_555
O7 P1 1.560672 1_565
O8 P2 1.570347 1_545
O9 P2 1.556501 1_555
O10 P2 1.556501 1_555
O11 P1 1.528618 1_555
O12 P0 1.546242 1_655
O13 P3 1.557138 1_555
O14 P3 1.557138 1_555
O15 P3 1.564256 1_555
