# generated using pymatgen
data_Li7V3P8O29
_symmetry_space_group_name_H-M   'P 1'
_cell_length_a   9.86174804
_cell_length_b   9.86174804
_cell_length_c   13.86120385
_cell_angle_alpha   89.79078552
_cell_angle_beta   89.79078552
_cell_angle_gamma   59.70754129
_symmetry_Int_Tables_number   1
_chemical_formula_structural   Li7V3P8O29
_chemical_formula_sum   'Li14 V6 P16 O58'
_cell_volume   1163.98694847
_cell_formula_units_Z   2
loop_
 _symmetry_equiv_pos_site_id
 _symmetry_equiv_pos_as_xyz
  1  'x, y, z'
loop_
 _atom_site_type_symbol
 _atom_site_label
 _atom_site_symmetry_multiplicity
 _atom_site_fract_x
 _atom_site_fract_y
 _atom_site_fract_z
 _atom_site_occupancy
  Li  Li0  1  0.67310800  0.23422500  0.56180400  1
  Li  Li1  1  0.23422500  0.67310800  0.06180400  1
  Li  Li2  1  0.33679500  0.33107500  0.88299700  1
  Li  Li3  1  0.33107500  0.33679500  0.38299700  1
  Li  Li4  1  0.23590100  0.09600300  0.56227800  1
  Li  Li5  1  0.90399700  0.76409900  0.93772200  1
  Li  Li6  1  0.09600300  0.23590100  0.06227800  1
  Li  Li7  1  0.76409900  0.90399700  0.43772200  1
  Li  Li8  1  0.66320500  0.66892500  0.11700300  1
  Li  Li9  1  0.66892500  0.66320500  0.61700300  1
  Li  Li10  1  0.76577500  0.32689200  0.93819600  1
  Li  Li11  1  0.32689200  0.76577500  0.43819600  1
  Li  Li12  1  0.00000000  0.00000000  0.50000000  1
  Li  Li13  1  0.00000000  0.00000000  0.00000000  1
  V  V0  1  0.00371800  0.56386100  0.74456600  1
  V  V1  1  0.99628200  0.43613900  0.25543400  1
  V  V2  1  0.56386100  0.00371800  0.24456600  1
  V  V3  1  0.43613900  0.99628200  0.75543400  1
  V  V4  1  0.56489400  0.43510600  0.75000000  1
  V  V5  1  0.43510600  0.56489400  0.25000000  1
  P  P0  1  0.68514500  0.22392600  0.34388600  1
  P  P1  1  0.68796700  0.08645500  0.84426700  1
  P  P2  1  0.22392600  0.68514500  0.84388600  1
  P  P3  1  0.33573100  0.32825900  0.62600700  1
  P  P4  1  0.32825900  0.33573100  0.12600700  1
  P  P5  1  0.08645500  0.68796700  0.34426700  1
  P  P6  1  0.91141300  0.77200900  0.15597400  1
  P  P7  1  0.22799100  0.08858700  0.34402600  1
  P  P8  1  0.77200900  0.91141300  0.65597400  1
  P  P9  1  0.08858700  0.22799100  0.84402600  1
  P  P10  1  0.91354500  0.31203300  0.65573300  1
  P  P11  1  0.67174100  0.66426900  0.87399300  1
  P  P12  1  0.66426900  0.67174100  0.37399300  1
  P  P13  1  0.77607400  0.31485500  0.15611400  1
  P  P14  1  0.31203300  0.91354500  0.15573300  1
  P  P15  1  0.31485500  0.77607400  0.65611400  1
  O  O0  1  0.78141400  0.22885500  0.06576200  1
  O  O1  1  0.66775200  0.25146500  0.84484200  1
  O  O2  1  0.76911100  0.00047100  0.56586800  1
  O  O3  1  0.66657000  0.07722100  0.33854200  1
  O  O4  1  0.51930500  0.37035300  0.33263000  1
  O  O5  1  0.48419800  0.32824900  0.66171200  1
  O  O6  1  0.37035300  0.51930500  0.83263000  1
  O  O7  1  0.22885500  0.78141400  0.56576200  1
  O  O8  1  0.25146500  0.66775200  0.34484200  1
  O  O9  1  0.47516100  0.18629300  0.17145200  1
  O  O10  1  0.52161300  0.10543100  0.83267800  1
  O  O11  1  0.32824900  0.48419800  0.16171200  1
  O  O12  1  0.32954800  0.32502400  0.51811600  1
  O  O13  1  0.32502400  0.32954800  0.01811600  1
  O  O14  1  0.18629300  0.47516100  0.67145200  1
  O  O15  1  0.37738700  0.10241200  0.33209600  1
  O  O16  1  0.33542700  0.18028900  0.66902100  1
  O  O17  1  0.07722100  0.66657000  0.83854200  1
  O  O18  1  0.00659300  0.78407600  0.24580300  1
  O  O19  1  0.00047100  0.76911100  0.06586800  1
  O  O20  1  0.98822900  0.78517100  0.42714000  1
  O  O21  1  0.10543100  0.52161300  0.33267800  1
  O  O22  1  0.18028900  0.33542700  0.16902100  1
  O  O23  1  0.91508500  0.74637900  0.65871800  1
  O  O24  1  0.10241200  0.37738700  0.83209600  1
  O  O25  1  0.25362100  0.08491500  0.84128200  1
  O  O26  1  0.78407600  0.00659300  0.74580300  1
  O  O27  1  0.78517100  0.98822900  0.92714000  1
  O  O28  1  0.21482900  0.01177100  0.07286000  1
  O  O29  1  0.74637900  0.91508500  0.15871800  1
  O  O30  1  0.89758800  0.62261300  0.16790400  1
  O  O31  1  0.08491500  0.25362100  0.34128200  1
  O  O32  1  0.81971100  0.66457300  0.83097900  1
  O  O33  1  0.89456900  0.47838700  0.66732200  1
  O  O34  1  0.01177100  0.21482900  0.57286000  1
  O  O35  1  0.99952900  0.23088900  0.93413200  1
  O  O36  1  0.99340700  0.21592400  0.75419700  1
  O  O37  1  0.92277900  0.33343000  0.16145800  1
  O  O38  1  0.66457300  0.81971100  0.33097900  1
  O  O39  1  0.62261300  0.89758800  0.66790400  1
  O  O40  1  0.81370700  0.52483900  0.32854800  1
  O  O41  1  0.67045200  0.67497600  0.48188400  1
  O  O42  1  0.67497600  0.67045200  0.98188400  1
  O  O43  1  0.67175100  0.51580200  0.83828800  1
  O  O44  1  0.47838700  0.89456900  0.16732200  1
  O  O45  1  0.52483900  0.81370700  0.82854800  1
  O  O46  1  0.74853500  0.33224800  0.65515800  1
  O  O47  1  0.78759500  0.21240500  0.25000000  1
  O  O48  1  0.77114500  0.21858600  0.43423800  1
  O  O49  1  0.62964700  0.48069500  0.16737000  1
  O  O50  1  0.51580200  0.67175100  0.33828800  1
  O  O51  1  0.48069500  0.62964700  0.66737000  1
  O  O52  1  0.33343000  0.92277900  0.66145800  1
  O  O53  1  0.23088900  0.99952900  0.43413200  1
  O  O54  1  0.21592400  0.99340700  0.25419700  1
  O  O55  1  0.33224800  0.74853500  0.15515800  1
  O  O56  1  0.21858600  0.77114500  0.93423800  1
  O  O57  1  0.21240500  0.78759500  0.75000000  1
loop_
_geom_bond_atom_site_label_1
_geom_bond_atom_site_label_2
_geom_bond_distance
_geom_bond_site_symmetry_2
Li0 O46 1.975796 1_555
Li0 O48 1.980958 1_555
Li0 O2 2.002814 1_555
Li0 O5 2.120408 1_555
Li1 O55 1.975796 1_555
Li1 O56 1.980958 1_554
Li1 O19 2.002814 1_555
Li1 O11 2.120408 1_555
Li2 O13 1.876558 1_556
Li2 O6 2.156684 1_555
Li2 O10 2.161162 1_555
Li2 O24 2.234648 1_555
Li3 O12 1.876558 1_555
Li3 O4 2.156684 1_555
Li3 O21 2.161162 1_555
Li3 O15 2.234648 1_555
Li4 O34 1.914706 1_555
Li4 O52 2.016987 1_545
Li4 O53 2.030548 1_545
Li4 O16 2.164727 1_555
Li5 O27 1.914706 1_555
Li5 O17 2.016987 1_655
Li5 O19 2.030548 1_656
Li5 O32 2.164727 1_555
Li6 O28 1.914706 1_555
Li6 O37 2.016987 1_455
Li6 O35 2.030548 1_454
Li6 O22 2.164727 1_555
Li7 O20 1.914706 1_555
Li7 O3 2.016987 1_565
Li7 O2 2.030548 1_565
Li7 O38 2.164727 1_555
Li8 O42 1.876558 1_554
Li8 O49 2.156684 1_555
Li8 O44 2.161162 1_555
Li8 O30 2.234648 1_555
Li9 O41 1.876558 1_555
Li9 O51 2.156684 1_555
Li9 O33 2.161162 1_555
Li9 O39 2.234648 1_555
Li10 O1 1.975796 1_555
Li10 O0 1.980958 1_556
Li10 O35 2.002814 1_555
Li10 O43 2.120408 1_555
Li11 O8 1.975796 1_555
Li11 O7 1.980958 1_555
Li11 O53 2.002814 1_555
Li11 O50 2.120408 1_555
Li12 O7 2.379910 1_545
Li12 O48 2.379910 1_455
Li12 O20 2.405501 1_445
Li12 O34 2.405501 1_555
Li12 O53 2.447933 1_545
Li12 O2 2.447933 1_455
Li13 O0 2.379910 1_455
Li13 O56 2.379910 1_544
Li13 O28 2.405501 1_555
Li13 O27 2.405501 1_444
Li13 O19 2.447933 1_545
Li13 O35 2.447933 1_454
O0 P13 1.500919 1_555
O1 P1 1.536451 1_555
O1 V4 2.043543 1_555
O2 P8 1.516260 1_545
O3 P0 1.549330 1_555
O3 V2 2.001356 1_555
O4 P0 1.549848 1_555
O4 V5 2.016384 1_555
O5 P3 1.547192 1_555
O5 V4 2.025826 1_555
O6 P2 1.549848 1_555
O6 V4 2.016384 1_555
O7 P15 1.500919 1_555
O8 P5 1.536451 1_555
O8 V5 2.043543 1_555
O9 P4 1.585389 1_555
O9 V2 1.854278 1_555
O10 P1 1.563390 1_555
O10 V3 1.986425 1_545
O11 P4 1.547192 1_555
O11 V5 2.025826 1_555
O12 P3 1.498076 1_555
O13 P4 1.498076 1_555
O14 P3 1.585389 1_555
O14 V0 1.854278 1_555
O15 P7 1.554754 1_555
O15 V2 1.996943 1_555
O16 P3 1.575732 1_555
O16 V3 1.971963 1_545
O17 P2 1.549330 1_555
O17 V0 2.001356 1_555
O18 P6 1.602461 1_455
O18 P5 1.620714 1_555
O19 P6 1.516260 1_455
O20 P5 1.496648 1_655
O21 P5 1.563390 1_555
O21 V1 1.986425 1_455
O22 P4 1.575732 1_555
O22 V1 1.971963 1_455
O23 P8 1.524601 1_555
O23 V0 1.955655 1_655
O24 P9 1.554754 1_555
O24 V0 1.996943 1_555
O25 P9 1.524601 1_555
O25 V3 1.955655 1_545
O26 P8 1.602461 1_545
O26 P1 1.620714 1_555
O27 P1 1.496648 1_565
O28 P14 1.496648 1_545
O29 P6 1.524601 1_555
O29 V2 1.955655 1_565
O30 P6 1.554754 1_555
O30 V1 1.996943 1_555
O31 P7 1.524601 1_555
O31 V1 1.955655 1_455
O32 P11 1.575732 1_555
O32 V0 1.971963 1_655
O33 P10 1.563390 1_555
O33 V0 1.986425 1_655
O34 P10 1.496648 1_455
O35 P9 1.516260 1_655
O36 P9 1.602461 1_655
O36 P10 1.620714 1_555
O37 P13 1.549330 1_555
O37 V1 2.001356 1_555
O38 P12 1.575732 1_555
O38 V2 1.971963 1_565
O39 P8 1.554754 1_555
O39 V3 1.996943 1_555
O40 P12 1.585389 1_555
O40 V1 1.854278 1_555
O41 P12 1.498076 1_555
O42 P11 1.498076 1_555
O43 P11 1.547192 1_555
O43 V4 2.025826 1_555
O44 P14 1.563390 1_555
O44 V2 1.986425 1_565
O45 P11 1.585389 1_555
O45 V3 1.854278 1_555
O46 P10 1.536451 1_555
O46 V4 2.043543 1_555
O47 P13 1.613361 1_555
O47 P0 1.613361 1_555
O48 P0 1.500919 1_555
O49 P13 1.549848 1_555
O49 V5 2.016384 1_555
O50 P12 1.547192 1_555
O50 V5 2.025826 1_555
O51 P15 1.549848 1_555
O51 V4 2.016384 1_555
O52 P15 1.549330 1_555
O52 V3 2.001356 1_555
O53 P7 1.516260 1_565
O54 P7 1.602461 1_565
O54 P14 1.620714 1_555
O55 P14 1.536451 1_555
O55 V5 2.043543 1_555
O56 P2 1.500919 1_555
O57 P15 1.613361 1_555
O57 P2 1.613361 1_555
