# generated using pymatgen
data_Li4Cr3GaO8
_symmetry_space_group_name_H-M   'P 1'
_cell_length_a   5.16070289
_cell_length_b   9.84308773
_cell_length_c   5.90949853
_cell_angle_alpha   89.99997997
_cell_angle_beta   90.00003113
_cell_angle_gamma   100.36856754
_symmetry_Int_Tables_number   1
_chemical_formula_structural   Li4Cr3GaO8
_chemical_formula_sum   'Li8 Cr6 Ga2 O16'
_cell_volume   295.28434653
_cell_formula_units_Z   2
loop_
 _symmetry_equiv_pos_site_id
 _symmetry_equiv_pos_as_xyz
  1  'x, y, z'
loop_
 _atom_site_type_symbol
 _atom_site_label
 _atom_site_symmetry_multiplicity
 _atom_site_fract_x
 _atom_site_fract_y
 _atom_site_fract_z
 _atom_site_occupancy
  Li  Li0  1  0.49993500  0.50004600  0.99998300  1
  Li  Li1  1  0.99993500  0.00004800  0.49998400  1
  Li  Li2  1  0.00006400  0.99995500  0.99998200  1
  Li  Li3  1  0.50006200  0.49995500  0.49998300  1
  Li  Li4  1  0.24999800  0.25000100  0.25025700  1
  Li  Li5  1  0.75000000  0.75000100  0.75026200  1
  Li  Li6  1  0.25000000  0.25000000  0.75010100  1
  Li  Li7  1  0.74999800  0.75000200  0.25008500  1
  Cr  Cr0  1  0.25004900  0.74995500  0.50094600  1
  Cr  Cr1  1  0.99922800  0.49916000  0.24859100  1
  Cr  Cr2  1  0.50075700  0.00082700  0.24858700  1
  Cr  Cr3  1  0.75000600  0.25000500  0.00100300  1
  Cr  Cr4  1  0.49923000  0.99918800  0.74858400  1
  Cr  Cr5  1  0.00075900  0.50082700  0.74858600  1
  Ga  Ga0  1  0.74999900  0.25000000  0.50080800  1
  Ga  Ga1  1  0.24999800  0.75000700  0.00080700  1
  O  O0  1  0.39563000  0.12174200  0.49980700  1
  O  O1  1  0.89562000  0.62173200  0.99981100  1
  O  O2  1  0.10437300  0.37826500  0.49980700  1
  O  O3  1  0.60437200  0.87826800  0.99981200  1
  O  O4  1  0.39455200  0.12126000  0.99869800  1
  O  O5  1  0.89454700  0.62124900  0.49870100  1
  O  O6  1  0.10545200  0.37874700  0.99870400  1
  O  O7  1  0.60544200  0.87874900  0.49869500  1
  O  O8  1  0.85361500  0.12903500  0.75021300  1
  O  O9  1  0.35360100  0.62903000  0.25021700  1
  O  O10  1  0.85634900  0.12938600  0.25163700  1
  O  O11  1  0.35634200  0.62937800  0.75164000  1
  O  O12  1  0.64364900  0.37062200  0.25163900  1
  O  O13  1  0.14365600  0.87062100  0.75163700  1
  O  O14  1  0.64638600  0.37097100  0.75021400  1
  O  O15  1  0.14639400  0.87097000  0.25021800  1
loop_
_geom_bond_atom_site_label_1
_geom_bond_atom_site_label_2
_geom_bond_distance
_geom_bond_site_symmetry_2
Li0 O11 2.159423 1_555
Li0 O6 2.166834 1_555
Li0 O14 2.170168 1_555
Li0 O9 2.171185 1_556
Li0 O1 2.173489 1_555
Li0 O12 2.173641 1_556
Li1 O10 2.159461 1_555
Li1 O7 2.166877 1_545
Li1 O15 2.170194 1_645
Li1 O8 2.171151 1_555
Li1 O0 2.173562 1_655
Li1 O13 2.173664 1_645
Li2 O13 2.159442 1_555
Li2 O4 2.166878 1_565
Li2 O8 2.170194 1_465
Li2 O15 2.171188 1_556
Li2 O3 2.173523 1_455
Li2 O10 2.173685 1_466
Li3 O12 2.159420 1_555
Li3 O5 2.166824 1_555
Li3 O9 2.170178 1_555
Li3 O14 2.171148 1_555
Li3 O2 2.173521 1_555
Li3 O11 2.173654 1_555
Li4 O10 2.160651 1_455
Li4 O12 2.160682 1_555
Li4 O0 2.162171 1_555
Li4 O2 2.162188 1_555
Li4 O6 2.170832 1_554
Li4 O4 2.170844 1_554
Li5 O13 2.160700 1_655
Li5 O11 2.160720 1_555
Li5 O1 2.162203 1_555
Li5 O3 2.162214 1_555
Li5 O5 2.170906 1_555
Li5 O7 2.170929 1_555
Li6 O4 2.158883 1_555
Li6 O6 2.158943 1_555
Li6 O0 2.165163 1_555
Li6 O2 2.165199 1_555
Li6 O8 2.173830 1_455
Li6 O14 2.173857 1_555
Li7 O7 2.158990 1_555
Li7 O5 2.159035 1_555
Li7 O3 2.165118 1_554
Li7 O1 2.165139 1_554
Li7 O15 2.173889 1_655
Li7 O9 2.173908 1_555
Cr0 O9 2.031426 1_555
Cr0 O15 2.032177 1_555
Cr0 O7 2.033276 1_555
Cr0 O5 2.033321 1_455
Cr0 O11 2.034363 1_555
Cr0 O13 2.035098 1_555
Cr1 O6 2.029739 1_654
Cr1 O12 2.032911 1_555
Cr1 O1 2.033493 1_554
Cr1 O9 2.034021 1_655
Cr1 O2 2.036379 1_655
Cr1 O5 2.038199 1_555
Cr2 O4 2.029834 1_554
Cr2 O10 2.033059 1_555
Cr2 O3 2.033405 1_544
Cr2 O15 2.033921 1_545
Cr2 O0 2.036487 1_555
Cr2 O7 2.038128 1_545
Cr3 O14 2.032068 1_554
Cr3 O8 2.032077 1_554
Cr3 O6 2.033258 1_654
Cr3 O4 2.033305 1_554
Cr3 O10 2.034463 1_555
Cr3 O12 2.034487 1_555
Cr4 O7 2.029886 1_555
Cr4 O13 2.033022 1_555
Cr4 O0 2.033352 1_565
Cr4 O8 2.033964 1_565
Cr4 O3 2.036580 1_555
Cr4 O4 2.038104 1_565
Cr5 O5 2.029762 1_455
Cr5 O11 2.032986 1_555
Cr5 O2 2.033439 1_555
Cr5 O14 2.033957 1_455
Cr5 O1 2.036469 1_455
Cr5 O6 2.038199 1_555
Ga0 O8 2.026097 1_555
Ga0 O14 2.026134 1_555
Ga0 O0 2.026635 1_555
Ga0 O2 2.026687 1_655
Ga0 O10 2.028161 1_555
Ga0 O12 2.028201 1_555
Ga1 O15 2.026088 1_555
Ga1 O9 2.026169 1_555
Ga1 O3 2.026669 1_554
Ga1 O1 2.026749 1_454
Ga1 O13 2.028140 1_554
Ga1 O11 2.028226 1_554
