# generated using pymatgen
data_LiCoGeO4
_symmetry_space_group_name_H-M   'P 1'
_cell_length_a   5.42989900
_cell_length_b   5.14067100
_cell_length_c   8.38079390
_cell_angle_alpha   52.00648860
_cell_angle_beta   90.00000000
_cell_angle_gamma   90.00000000
_symmetry_Int_Tables_number   1
_chemical_formula_structural   LiCoGeO4
_chemical_formula_sum   'Li2 Co2 Ge2 O8'
_cell_volume   184.36024968
_cell_formula_units_Z   2
loop_
 _symmetry_equiv_pos_site_id
 _symmetry_equiv_pos_as_xyz
  1  'x, y, z'
loop_
 _atom_site_type_symbol
 _atom_site_label
 _atom_site_symmetry_multiplicity
 _atom_site_fract_x
 _atom_site_fract_y
 _atom_site_fract_z
 _atom_site_occupancy
  Li  Li0  1  0.17022600  0.50447900  0.99636700  1
  Li  Li1  1  0.82977400  0.50447900  0.49636700  1
  Co  Co0  1  0.83067000  0.99849900  0.00281500  1
  Co  Co1  1  0.16933000  0.99849900  0.50281500  1
  Ge  Ge0  1  0.32001000  0.75705000  0.24629300  1
  Ge  Ge1  1  0.67999000  0.75705000  0.74629300  1
  O  O0  1  0.27165200  0.08446000  0.26092500  1
  O  O1  1  0.84283000  0.85799400  0.53026100  1
  O  O2  1  0.36134000  0.70205700  0.73293000  1
  O  O3  1  0.82616000  0.40130800  0.96054000  1
  O  O4  1  0.72834800  0.08446000  0.76092500  1
  O  O5  1  0.15717000  0.85799400  0.03026100  1
  O  O6  1  0.63866000  0.70205700  0.23293000  1
  O  O7  1  0.17384000  0.40130800  0.46054000  1
loop_
_geom_bond_atom_site_label_1
_geom_bond_atom_site_label_2
_geom_bond_distance
_geom_bond_site_symmetry_2
Li0 O0 1.996860 1_556
Li0 O5 2.005954 1_556
Li0 O3 2.014407 1_455
Li0 O2 2.054790 1_555
Li1 O4 1.996860 1_555
Li1 O1 2.005954 1_555
Li1 O7 2.014407 1_655
Li1 O6 2.054790 1_555
Co0 O6 1.873592 1_555
Co0 O4 1.873695 1_564
Co0 O3 1.873695 1_564
Co0 O5 1.874329 1_655
Co1 O2 1.873592 1_555
Co1 O0 1.873695 1_565
Co1 O7 1.873695 1_565
Co1 O1 1.874329 1_455
Ge0 O6 1.767813 1_555
Ge0 O7 1.776424 1_555
Ge0 O0 1.780713 1_565
Ge0 O5 1.781123 1_555
Ge1 O2 1.767813 1_555
Ge1 O3 1.776424 1_555
Ge1 O4 1.780713 1_565
Ge1 O1 1.781123 1_555
