# generated using pymatgen
data_Li4V(PO4)2
_symmetry_space_group_name_H-M   'P 1'
_cell_length_a   6.23488732
_cell_length_b   10.54277072
_cell_length_c   10.49065076
_cell_angle_alpha   68.92653994
_cell_angle_beta   94.22843435
_cell_angle_gamma   95.78343992
_symmetry_Int_Tables_number   1
_chemical_formula_structural   Li4V(PO4)2
_chemical_formula_sum   'Li16 V4 P8 O32'
_cell_volume   639.66491534
_cell_formula_units_Z   4
loop_
 _symmetry_equiv_pos_site_id
 _symmetry_equiv_pos_as_xyz
  1  'x, y, z'
loop_
 _atom_site_type_symbol
 _atom_site_label
 _atom_site_symmetry_multiplicity
 _atom_site_fract_x
 _atom_site_fract_y
 _atom_site_fract_z
 _atom_site_occupancy
  Li  Li0  1  0.51714900  0.07688700  0.10776300  1
  Li  Li1  1  0.51718500  0.07693000  0.60774100  1
  Li  Li2  1  0.51724800  0.57691700  0.35775700  1
  Li  Li3  1  0.51712800  0.57694400  0.85773900  1
  Li  Li4  1  0.48287400  0.42310000  0.14224700  1
  Li  Li5  1  0.48279700  0.42307000  0.64228200  1
  Li  Li6  1  0.48281500  0.92305100  0.39225400  1
  Li  Li7  1  0.48281300  0.92307200  0.89225300  1
  Li  Li8  1  0.20575600  0.17650600  0.22128800  1
  Li  Li9  1  0.20570700  0.17644200  0.72135400  1
  Li  Li10  1  0.20568400  0.67641900  0.47136600  1
  Li  Li11  1  0.20574200  0.67648500  0.97129000  1
  Li  Li12  1  0.79426200  0.32348300  0.02873100  1
  Li  Li13  1  0.79433800  0.32357000  0.52867700  1
  Li  Li14  1  0.79432800  0.82352300  0.27872800  1
  Li  Li15  1  0.79430100  0.82355300  0.77867600  1
  V  V0  1  0.99988800  0.00001800  0.49977500  1
  V  V1  1  0.99986900  0.49997300  0.75009400  1
  V  V2  1  0.99998600  0.00004500  0.00000500  1
  V  V3  1  0.99997100  0.50008500  0.24985600  1
  P  P0  1  0.73083900  0.18362900  0.31737200  1
  P  P1  1  0.73074500  0.18358700  0.81750000  1
  P  P2  1  0.73077600  0.68359800  0.56748500  1
  P  P3  1  0.73080900  0.68361700  0.06743700  1
  P  P4  1  0.26919800  0.31638200  0.93263900  1
  P  P5  1  0.26923000  0.31642000  0.43251800  1
  P  P6  1  0.26922700  0.81638800  0.18256900  1
  P  P7  1  0.26916400  0.81642100  0.68253900  1
  O  O0  1  0.91811800  0.11274200  0.28647900  1
  O  O1  1  0.91801700  0.11268400  0.78676000  1
  O  O2  1  0.91802200  0.61268000  0.53676300  1
  O  O3  1  0.91807100  0.61277100  0.03654500  1
  O  O4  1  0.08193200  0.38725700  0.96349600  1
  O  O5  1  0.08191800  0.38732600  0.46322700  1
  O  O6  1  0.08196300  0.88724400  0.21342800  1
  O  O7  1  0.08190700  0.88732400  0.71323700  1
  O  O8  1  0.51163600  0.12293600  0.27656000  1
  O  O9  1  0.51156800  0.12293400  0.77660900  1
  O  O10  1  0.51160900  0.62293200  0.52660100  1
  O  O11  1  0.51158300  0.62295800  0.02659900  1
  O  O12  1  0.48846300  0.37701000  0.97342500  1
  O  O13  1  0.48842600  0.37705800  0.47340700  1
  O  O14  1  0.48846000  0.87700500  0.22342300  1
  O  O15  1  0.48833300  0.87708200  0.72343100  1
  O  O16  1  0.24529700  0.16057100  0.01655100  1
  O  O17  1  0.24530300  0.16061300  0.51640700  1
  O  O18  1  0.24531500  0.66058300  0.26643700  1
  O  O19  1  0.24523000  0.66063300  0.76656100  1
  O  O20  1  0.75476600  0.33939800  0.23344400  1
  O  O21  1  0.75467500  0.33940100  0.73357800  1
  O  O22  1  0.75474100  0.83936300  0.48344900  1
  O  O23  1  0.75470300  0.83942800  0.98356400  1
  O  O24  1  0.74950900  0.14797700  0.97648900  1
  O  O25  1  0.74954300  0.14810100  0.47634300  1
  O  O26  1  0.74953900  0.64799900  0.22643900  1
  O  O27  1  0.74941400  0.64803100  0.72648300  1
  O  O28  1  0.25056400  0.35199900  0.27353900  1
  O  O29  1  0.25045400  0.35190000  0.77366700  1
  O  O30  1  0.25056400  0.85196200  0.52355000  1
  O  O31  1  0.25052900  0.85198400  0.02357600  1
loop_
_geom_bond_atom_site_label_1
_geom_bond_atom_site_label_2
_geom_bond_distance
_geom_bond_site_symmetry_2
Li0 O24 1.972370 1_554
Li0 O8 2.000785 1_555
Li0 O16 2.005496 1_555
Li0 O14 2.015505 1_545
Li1 O25 1.973209 1_555
Li1 O9 2.001313 1_555
Li1 O17 2.005981 1_555
Li1 O15 2.015313 1_545
Li2 O26 1.972328 1_555
Li2 O10 2.001148 1_555
Li2 O18 2.006151 1_555
Li2 O13 2.015305 1_555
Li3 O27 1.971907 1_555
Li3 O11 2.001243 1_556
Li3 O19 2.005668 1_555
Li3 O12 2.016014 1_555
Li4 O28 1.972260 1_555
Li4 O12 2.001335 1_554
Li4 O20 2.005736 1_555
Li4 O11 2.015272 1_555
Li5 O29 1.973054 1_555
Li5 O13 2.001440 1_555
Li5 O21 2.005805 1_555
Li5 O10 2.015405 1_555
Li6 O30 1.972004 1_555
Li6 O14 2.001203 1_555
Li6 O22 2.005859 1_555
Li6 O8 2.015637 1_565
Li7 O31 1.972331 1_556
Li7 O15 2.000696 1_555
Li7 O23 2.005816 1_555
Li7 O9 2.015305 1_565
Li8 O0 1.934724 1_455
Li8 O8 2.027517 1_555
Li8 O28 2.098632 1_555
Li8 O16 2.246791 1_555
Li9 O1 1.935684 1_455
Li9 O9 2.027207 1_555
Li9 O29 2.098637 1_555
Li9 O17 2.248559 1_555
Li10 O2 1.935470 1_455
Li10 O10 2.027501 1_555
Li10 O30 2.098751 1_555
Li10 O18 2.248444 1_555
Li11 O3 1.935045 1_456
Li11 O11 2.027209 1_556
Li11 O31 2.098898 1_556
Li11 O19 2.246270 1_555
Li12 O4 1.935057 1_654
Li12 O12 2.026957 1_554
Li12 O24 2.098701 1_554
Li12 O20 2.246398 1_555
Li13 O5 1.935189 1_655
Li13 O13 2.027470 1_555
Li13 O25 2.098881 1_555
Li13 O21 2.248168 1_555
Li14 O6 1.934989 1_655
Li14 O14 2.027236 1_555
Li14 O26 2.099170 1_555
Li14 O22 2.246248 1_555
Li15 O7 1.935324 1_655
Li15 O15 2.027887 1_555
Li15 O27 2.098592 1_555
Li15 O23 2.248156 1_555
O0 P0 1.559759 1_555
O0 V0 2.172726 1_555
O1 P1 1.559132 1_555
O1 V2 2.172376 1_556
O2 P2 1.559018 1_555
O2 V1 2.173092 1_555
O3 P3 1.559397 1_555
O3 V3 2.172948 1_555
O4 P4 1.559450 1_555
O4 V1 2.174008 1_455
O5 P5 1.559213 1_555
O5 V3 2.173678 1_455
O6 P6 1.559322 1_555
O6 V2 2.174252 1_465
O7 P7 1.558865 1_555
O7 V0 2.174416 1_465
O8 P0 1.547612 1_555
O9 P1 1.547599 1_555
O10 P2 1.547579 1_555
O11 P3 1.547676 1_555
O12 P4 1.547541 1_555
O13 P5 1.547622 1_555
O14 P6 1.547585 1_555
O15 P7 1.547598 1_555
O16 P4 1.557446 1_554
O16 V2 2.209992 1_455
O17 P5 1.557369 1_555
O17 V0 2.211187 1_455
O18 P6 1.557306 1_555
O18 V3 2.210015 1_455
O19 P7 1.557472 1_555
O19 V1 2.210954 1_455
O20 P0 1.557111 1_555
O20 V3 2.210394 1_555
O21 P1 1.557499 1_555
O21 V1 2.209804 1_555
O22 P2 1.557302 1_555
O22 V0 2.209656 1_565
O23 P3 1.557366 1_556
O23 V2 2.210247 1_566
O24 P1 1.570443 1_555
O24 V2 2.255996 1_556
O25 P0 1.570370 1_555
O25 V0 2.256693 1_555
O26 P3 1.570560 1_555
O26 V3 2.255846 1_555
O27 P2 1.570581 1_555
O27 V1 2.256662 1_555
O28 P5 1.570374 1_555
O28 V3 2.257380 1_455
O29 P4 1.570399 1_555
O29 V1 2.257463 1_455
O30 P7 1.570522 1_555
O30 V0 2.257359 1_465
O31 P6 1.570496 1_555
O31 V2 2.257178 1_465
