# generated using pymatgen
data_Li7Cr3(SiO6)2
_symmetry_space_group_name_H-M   'P 1'
_cell_length_a   4.94260379
_cell_length_b   10.61893190
_cell_length_c   8.56054394
_cell_angle_alpha   66.22738741
_cell_angle_beta   90.00020639
_cell_angle_gamma   94.45195013
_symmetry_Int_Tables_number   1
_chemical_formula_structural   Li7Cr3(SiO6)2
_chemical_formula_sum   'Li14 Cr6 Si4 O24'
_cell_volume   409.69778319
_cell_formula_units_Z   2
loop_
 _symmetry_equiv_pos_site_id
 _symmetry_equiv_pos_as_xyz
  1  'x, y, z'
loop_
 _atom_site_type_symbol
 _atom_site_label
 _atom_site_symmetry_multiplicity
 _atom_site_fract_x
 _atom_site_fract_y
 _atom_site_fract_z
 _atom_site_occupancy
  Li  Li0  1  0.37499100  0.25000100  0.20833100  1
  Li  Li1  1  0.87500300  0.24999900  0.70833100  1
  Li  Li2  1  0.24334500  0.49442200  0.58611700  1
  Li  Li3  1  0.74335700  0.49428600  0.08624300  1
  Li  Li4  1  0.00665400  0.00557600  0.33054900  1
  Li  Li5  1  0.50664200  0.00571700  0.83053500  1
  Li  Li6  1  0.99807300  0.00565800  0.66661300  1
  Li  Li7  1  0.49817300  0.00552000  0.16675900  1
  Li  Li8  1  0.25193300  0.49439100  0.24989000  1
  Li  Li9  1  0.75193900  0.49442400  0.75001100  1
  Li  Li10  1  0.25191200  0.49434700  0.92227900  1
  Li  Li11  1  0.75181000  0.49448300  0.42228700  1
  Li  Li12  1  0.49804000  0.00558300  0.49443600  1
  Li  Li13  1  0.99805100  0.00561700  0.99428200  1
  Cr  Cr0  1  0.12500600  0.74999000  0.95589500  1
  Cr  Cr1  1  0.62500200  0.75000500  0.46070400  1
  Cr  Cr2  1  0.62499900  0.75001400  0.12566100  1
  Cr  Cr3  1  0.12499700  0.75000200  0.28907500  1
  Cr  Cr4  1  0.62500300  0.74999900  0.79401400  1
  Cr  Cr5  1  0.12500100  0.75000400  0.62463700  1
  Si  Si0  1  0.87499900  0.24998700  0.37502400  1
  Si  Si1  1  0.37500800  0.24999800  0.87501500  1
  Si  Si2  1  0.37503800  0.24998600  0.54168000  1
  Si  Si3  1  0.87498000  0.25001400  0.04166500  1
  O  O0  1  0.30995200  0.86932300  0.39794600  1
  O  O1  1  0.81308600  0.87014200  0.89945200  1
  O  O2  1  0.43692600  0.62987000  0.01957600  1
  O  O3  1  0.94004100  0.63067700  0.51726900  1
  O  O4  1  0.23172900  0.14691100  0.75985700  1
  O  O5  1  0.73166400  0.14681900  0.25996300  1
  O  O6  1  0.01827500  0.35308800  0.15675100  1
  O  O7  1  0.51833900  0.35317800  0.65676700  1
  O  O8  1  0.07917700  0.35319500  0.46978200  1
  O  O9  1  0.57912200  0.35308200  0.96987100  1
  O  O10  1  0.17084600  0.14692600  0.44682100  1
  O  O11  1  0.67084800  0.14689100  0.94685000  1
  O  O12  1  0.17083600  0.14679600  0.07300600  1
  O  O13  1  0.67089000  0.14691100  0.57297900  1
  O  O14  1  0.57916900  0.35309800  0.34373700  1
  O  O15  1  0.07916800  0.35306400  0.84374400  1
  O  O16  1  0.93820800  0.63236700  0.18195500  1
  O  O17  1  0.43827400  0.63234800  0.68577200  1
  O  O18  1  0.31178300  0.86763300  0.06430300  1
  O  O19  1  0.81173500  0.86765700  0.56809100  1
  O  O20  1  0.44054700  0.63273900  0.35097500  1
  O  O21  1  0.93737200  0.63193800  0.84941700  1
  O  O22  1  0.31261200  0.86806200  0.73136400  1
  O  O23  1  0.80944800  0.86725900  0.23372300  1
loop_
_geom_bond_atom_site_label_1
_geom_bond_atom_site_label_2
_geom_bond_distance
_geom_bond_site_symmetry_2
Li0 O9 2.100075 1_554
Li0 O10 2.100296 1_555
Li0 O6 2.100418 1_555
Li0 O14 2.100516 1_555
Li0 O5 2.100737 1_555
Li0 O12 2.100748 1_555
Li1 O13 2.099955 1_555
Li1 O15 2.100293 1_655
Li1 O4 2.100467 1_655
Li1 O11 2.100539 1_555
Li1 O7 2.100682 1_555
Li1 O8 2.100862 1_655
Li2 O7 2.011939 1_555
Li2 O3 2.082640 1_455
Li2 O20 2.133871 1_555
Li2 O17 2.142296 1_555
Li2 O8 2.216848 1_555
Li2 O15 2.217550 1_555
Li3 O6 2.011333 1_655
Li3 O2 2.090118 1_555
Li3 O16 2.120881 1_555
Li3 O21 2.135325 1_554
Li3 O14 2.216299 1_555
Li3 O9 2.216978 1_554
Li4 O5 2.011917 1_455
Li4 O0 2.082604 1_545
Li4 O23 2.133936 1_445
Li4 O19 2.141980 1_445
Li4 O12 2.216676 1_555
Li4 O10 2.217579 1_555
Li5 O4 2.011286 1_555
Li5 O1 2.090108 1_545
Li5 O18 2.120712 1_546
Li5 O22 2.135414 1_545
Li5 O11 2.216317 1_555
Li5 O13 2.216791 1_555
Li6 O10 2.011302 1_655
Li6 O1 2.088784 1_545
Li6 O19 2.119888 1_545
Li6 O22 2.135116 1_645
Li6 O13 2.216921 1_555
Li6 O4 2.217451 1_655
Li7 O11 2.012128 1_554
Li7 O0 2.087450 1_545
Li7 O23 2.126809 1_545
Li7 O18 2.141924 1_545
Li7 O5 2.217234 1_555
Li7 O12 2.217750 1_555
Li8 O8 2.011559 1_555
Li8 O2 2.074124 1_555
Li8 O16 2.134258 1_455
Li8 O20 2.142073 1_555
Li8 O6 2.217302 1_555
Li8 O14 2.217538 1_555
Li9 O9 2.012015 1_555
Li9 O3 2.096309 1_555
Li9 O21 2.119091 1_555
Li9 O17 2.134042 1_555
Li9 O7 2.217264 1_555
Li9 O15 2.217841 1_655
Li10 O15 2.011495 1_555
Li10 O2 2.088797 1_556
Li10 O17 2.119788 1_555
Li10 O21 2.135088 1_455
Li10 O9 2.217138 1_555
Li10 O6 2.217240 1_556
Li11 O14 2.012308 1_555
Li11 O3 2.087448 1_555
Li11 O20 2.126729 1_555
Li11 O16 2.141814 1_555
Li11 O7 2.217032 1_555
Li11 O8 2.217980 1_655
Li12 O13 2.012136 1_555
Li12 O0 2.096399 1_545
Li12 O22 2.119096 1_545
Li12 O19 2.134165 1_545
Li12 O5 2.217149 1_555
Li12 O10 2.217605 1_555
Li13 O12 2.011661 1_656
Li13 O1 2.074058 1_545
Li13 O18 2.134337 1_646
Li13 O23 2.142075 1_546
Li13 O4 2.217181 1_655
Li13 O11 2.217297 1_555
Cr0 O22 2.000730 1_555
Cr0 O21 2.000784 1_455
Cr0 O18 2.007415 1_556
Cr0 O16 2.007424 1_456
Cr0 O2 2.011395 1_556
Cr0 O1 2.011598 1_455
Cr1 O19 2.001175 1_555
Cr1 O17 2.001306 1_555
Cr1 O23 2.007544 1_555
Cr1 O20 2.007719 1_555
Cr1 O0 2.018975 1_555
Cr1 O3 2.018994 1_555
Cr2 O23 1.997315 1_555
Cr2 O20 1.997381 1_555
Cr2 O18 2.000937 1_555
Cr2 O16 2.001081 1_555
Cr2 O1 2.016374 1_554
Cr2 O2 2.016549 1_555
Cr3 O16 1.999525 1_455
Cr3 O18 1.999568 1_555
Cr3 O23 2.008277 1_455
Cr3 O20 2.008316 1_555
Cr3 O3 2.020366 1_455
Cr3 O0 2.020390 1_555
Cr4 O21 2.000362 1_555
Cr4 O22 2.000462 1_555
Cr4 O17 2.006370 1_555
Cr4 O19 2.006527 1_555
Cr4 O2 2.012453 1_556
Cr4 O1 2.012658 1_555
Cr5 O19 2.001328 1_455
Cr5 O17 2.001377 1_555
Cr5 O21 2.002274 1_455
Cr5 O22 2.002296 1_555
Cr5 O0 2.011175 1_555
Cr5 O3 2.011282 1_455
O4 Si2 1.849218 1_555
O4 Si1 1.849681 1_555
O5 Si0 1.849802 1_555
O5 Si3 1.850226 1_555
O6 Si3 1.849125 1_455
O6 Si0 1.849839 1_455
O7 Si1 1.849896 1_555
O7 Si2 1.850115 1_555
O8 Si0 1.850026 1_455
O8 Si2 1.850223 1_555
O9 Si3 1.849350 1_556
O9 Si1 1.849480 1_555
O10 Si0 1.849268 1_455
O10 Si2 1.849505 1_555
O11 Si1 1.849523 1_555
O11 Si3 1.849587 1_556
O12 Si1 1.850107 1_554
O12 Si3 1.850242 1_455
O13 Si2 1.849356 1_555
O13 Si0 1.849502 1_555
O14 Si0 1.849502 1_555
O14 Si2 1.849555 1_555
O15 Si1 1.849272 1_555
O15 Si3 1.849450 1_456
