# generated using pymatgen
data_BH2OF3
_symmetry_space_group_name_H-M   'P 1'
_cell_length_a   7.91573600
_cell_length_b   5.48839500
_cell_length_c   9.02540477
_cell_angle_alpha   54.10010083
_cell_angle_beta   90.00000000
_cell_angle_gamma   90.00000000
_symmetry_Int_Tables_number   1
_chemical_formula_structural   BH2OF3
_chemical_formula_sum   'B4 H8 O4 F12'
_cell_volume   317.62249104
_cell_formula_units_Z   4
loop_
 _symmetry_equiv_pos_site_id
 _symmetry_equiv_pos_as_xyz
  1  'x, y, z'
loop_
 _atom_site_type_symbol
 _atom_site_label
 _atom_site_symmetry_multiplicity
 _atom_site_fract_x
 _atom_site_fract_y
 _atom_site_fract_z
 _atom_site_occupancy
  B  B0  1  0.19236200  0.10750100  0.86961300  1
  B  B1  1  0.30763800  0.10750100  0.36961300  1
  B  B2  1  0.80763800  0.89249900  0.13038700  1
  B  B3  1  0.69236200  0.89249900  0.63038700  1
  H  H0  1  0.43678900  0.19111900  0.73506800  1
  H  H1  1  0.06321100  0.19111900  0.23506800  1
  H  H2  1  0.56321100  0.80888100  0.26493200  1
  H  H3  1  0.93678900  0.80888100  0.76493200  1
  H  H4  1  0.33538400  0.50312000  0.66659700  1
  H  H5  1  0.16461600  0.50312000  0.16659700  1
  H  H6  1  0.66461600  0.49688000  0.33340300  1
  H  H7  1  0.83538400  0.49688000  0.83340300  1
  O  O0  1  0.35514100  0.28584600  0.76892700  1
  O  O1  1  0.14485900  0.28584600  0.26892700  1
  O  O2  1  0.64485900  0.71415400  0.23107300  1
  O  O3  1  0.85514100  0.71415400  0.73107300  1
  F  F0  1  0.11333900  0.27174100  0.92112700  1
  F  F1  1  0.38666100  0.27174100  0.42112700  1
  F  F2  1  0.88666100  0.72825900  0.07887300  1
  F  F3  1  0.61333900  0.72825900  0.57887300  1
  F  F4  1  0.09286100  0.07914000  0.75225200  1
  F  F5  1  0.40713900  0.07914000  0.25225200  1
  F  F6  1  0.90713900  0.92086000  0.24774800  1
  F  F7  1  0.59286100  0.92086000  0.74774800  1
  F  F8  1  0.25083200  0.82505100  0.01962600  1
  F  F9  1  0.24916800  0.82505100  0.51962600  1
  F  F10  1  0.74916800  0.17494900  0.98037400  1
  F  F11  1  0.75083200  0.17494900  0.48037400  1
loop_
_geom_bond_atom_site_label_1
_geom_bond_atom_site_label_2
_geom_bond_distance
_geom_bond_site_symmetry_2
B0 F0 1.382566 1_555
B0 F4 1.399966 1_555
B0 F8 1.410330 1_546
B0 O0 1.549524 1_555
B1 F1 1.382566 1_555
B1 F5 1.399966 1_555
B1 F9 1.410330 1_545
B1 O1 1.549524 1_555
B2 F2 1.382566 1_555
B2 F6 1.399966 1_555
B2 F10 1.410330 1_564
B2 O2 1.549524 1_555
B3 F3 1.382566 1_555
B3 F7 1.399966 1_555
B3 F11 1.410330 1_565
B3 O3 1.549524 1_555
H0 O0 0.983723 1_555
H1 O1 0.983723 1_555
H2 O2 0.983723 1_555
H3 O3 0.983723 1_555
H4 O0 1.003927 1_555
H5 O1 1.003927 1_555
H6 O2 1.003927 1_555
H7 O3 1.003927 1_555
