# generated using pymatgen
data_LiFe2OF5
_symmetry_space_group_name_H-M   'P 1'
_cell_length_a   9.05735637
_cell_length_b   9.05735637
_cell_length_c   5.43179139
_cell_angle_alpha   80.62448645
_cell_angle_beta   80.62448645
_cell_angle_gamma   143.57172016
_symmetry_Int_Tables_number   1
_chemical_formula_structural   LiFe2OF5
_chemical_formula_sum   'Li2 Fe4 O2 F10'
_cell_volume   225.82653635
_cell_formula_units_Z   2
loop_
 _symmetry_equiv_pos_site_id
 _symmetry_equiv_pos_as_xyz
  1  'x, y, z'
loop_
 _atom_site_type_symbol
 _atom_site_label
 _atom_site_symmetry_multiplicity
 _atom_site_fract_x
 _atom_site_fract_y
 _atom_site_fract_z
 _atom_site_occupancy
  Li  Li0  1  0.45549500  0.54450500  0.50000000  1
  Li  Li1  1  0.22253800  0.77746200  0.00000000  1
  Fe  Fe0  1  0.96273200  0.03726800  0.50000000  1
  Fe  Fe1  1  0.62231500  0.37768500  0.50000000  1
  Fe  Fe2  1  0.28876100  0.71123900  0.50000000  1
  Fe  Fe3  1  0.04154700  0.95845300  0.00000000  1
  O  O0  1  0.26504600  0.18857100  0.56962400  1
  O  O1  1  0.81142900  0.73495400  0.43037600  1
  F  F0  1  0.44899400  0.03514500  0.53057700  1
  F  F1  1  0.39586900  0.14184300  0.93553800  1
  F  F2  1  0.18458600  0.25655500  0.06481500  1
  F  F3  1  0.85815700  0.60413100  0.06446200  1
  F  F4  1  0.09148000  0.51292400  0.89943400  1
  F  F5  1  0.13769700  0.37722100  0.49737600  1
  F  F6  1  0.96485500  0.55100600  0.46942300  1
  F  F7  1  0.62277900  0.86230300  0.50262400  1
  F  F8  1  0.48707600  0.90852000  0.10056600  1
  F  F9  1  0.74344500  0.81541400  0.93518500  1
loop_
_geom_bond_atom_site_label_1
_geom_bond_atom_site_label_2
_geom_bond_distance
_geom_bond_site_symmetry_2
Li0 O1 1.988227 1_555
Li0 O0 1.988227 1_555
Fe0 O1 1.996612 1_545
Fe0 O0 1.996612 1_655
Fe1 O0 2.004741 1_555
Fe1 O1 2.004741 1_555
Fe3 O1 1.997014 1_455
Fe3 O0 1.997014 1_564
F0 Fe1 2.006788 1_555
F0 Fe2 2.031357 1_545
F0 Li1 2.193047 1_546
F1 Fe3 2.011739 1_546
F1 Fe1 2.022084 1_555
F1 Li1 2.141528 1_546
F2 Fe3 1.980351 1_545
F2 Fe0 2.017601 1_455
F3 Fe3 2.011739 1_655
F3 Fe1 2.022084 1_555
F3 Li1 2.141528 1_655
F4 Fe2 1.851730 1_555
F4 Li1 1.873286 1_556
F5 Li0 1.892998 1_555
F5 Fe0 2.029417 1_455
F5 Fe2 2.093842 1_555
F6 Fe1 2.006788 1_555
F6 Fe2 2.031357 1_655
F6 Li1 2.193047 1_655
F7 Li0 1.892998 1_555
F7 Fe0 2.029417 1_565
F7 Fe2 2.093842 1_555
F8 Fe2 1.851730 1_555
F8 Li1 1.873286 1_555
F9 Fe3 1.980351 1_656
F9 Fe0 2.017601 1_565
