# generated using pymatgen
data_Fe3Cu2Te(PO4)6
_symmetry_space_group_name_H-M   'P 1'
_cell_length_a   8.66793059
_cell_length_b   8.66793059
_cell_length_c   8.66793031
_cell_angle_alpha   59.97424509
_cell_angle_beta   59.97424509
_cell_angle_gamma   59.97424451
_symmetry_Int_Tables_number   1
_chemical_formula_structural   Fe3Cu2Te(PO4)6
_chemical_formula_sum   'Fe3 Cu2 Te1 P6 O24'
_cell_volume   460.23278152
_cell_formula_units_Z   1
loop_
 _symmetry_equiv_pos_site_id
 _symmetry_equiv_pos_as_xyz
  1  'x, y, z'
loop_
 _atom_site_type_symbol
 _atom_site_label
 _atom_site_symmetry_multiplicity
 _atom_site_fract_x
 _atom_site_fract_y
 _atom_site_fract_z
 _atom_site_occupancy
  Fe  Fe0  1  0.14460000  0.14460000  0.14460000  1
  Fe  Fe1  1  0.35547800  0.35547800  0.35547800  1
  Fe  Fe2  1  0.64290500  0.64290500  0.64290500  1
  Cu  Cu0  1  0.00931800  0.00931800  0.00931800  1
  Cu  Cu1  1  0.50012700  0.50012700  0.50012700  1
  Te  Te0  1  0.85701600  0.85701600  0.85701600  1
  P  P0  1  0.25291800  0.95520400  0.53686900  1
  P  P1  1  0.53686900  0.25291800  0.95520400  1
  P  P2  1  0.95520400  0.53686900  0.25291800  1
  P  P3  1  0.04517500  0.45373300  0.74486500  1
  P  P4  1  0.45373300  0.74486500  0.04517500  1
  P  P5  1  0.74486500  0.04517500  0.45373300  1
  O  O0  1  0.11574600  0.51163000  0.29937700  1
  O  O1  1  0.29937700  0.11574600  0.51163000  1
  O  O2  1  0.05692500  0.26856300  0.91419900  1
  O  O3  1  0.51163000  0.29937700  0.11574600  1
  O  O4  1  0.01414900  0.61951900  0.80394400  1
  O  O5  1  0.23653700  0.44577300  0.58334700  1
  O  O6  1  0.26856300  0.91419900  0.05692500  1
  O  O7  1  0.44577300  0.58334700  0.23653700  1
  O  O8  1  0.18563900  0.99392100  0.38611400  1
  O  O9  1  0.58334700  0.23653700  0.44577300  1
  O  O10  1  0.07909600  0.94134400  0.73897600  1
  O  O11  1  0.38611400  0.18563900  0.99392100  1
  O  O12  1  0.61951900  0.80394400  0.01414900  1
  O  O13  1  0.91419900  0.05692500  0.26856300  1
  O  O14  1  0.40905600  0.76032400  0.56344700  1
  O  O15  1  0.80394400  0.01414900  0.61951900  1
  O  O16  1  0.56344700  0.40905600  0.76032400  1
  O  O17  1  0.73897600  0.07909600  0.94134400  1
  O  O18  1  0.76032400  0.56344700  0.40905600  1
  O  O19  1  0.99392100  0.38611400  0.18563900  1
  O  O20  1  0.50246400  0.68866100  0.88304400  1
  O  O21  1  0.94134400  0.73897600  0.07909600  1
  O  O22  1  0.68866100  0.88304400  0.50246400  1
  O  O23  1  0.88304400  0.50246400  0.68866100  1
loop_
_geom_bond_atom_site_label_1
_geom_bond_atom_site_label_2
_geom_bond_distance
_geom_bond_site_symmetry_2
Fe0 O8 1.938763 1_545
Fe0 O19 1.938763 1_455
Fe0 O11 1.938763 1_554
Fe0 O2 2.067517 1_554
Fe0 O6 2.067517 1_545
Fe0 O13 2.067517 1_455
Fe1 O3 1.980978 1_555
Fe1 O0 1.980978 1_555
Fe1 O1 1.980978 1_555
Fe1 O5 2.068417 1_555
Fe1 O9 2.068417 1_555
Fe1 O7 2.068417 1_555
Fe2 O20 1.943970 1_555
Fe2 O23 1.943970 1_555
Fe2 O22 1.943971 1_555
Fe2 O18 2.061528 1_555
Fe2 O14 2.061528 1_555
Fe2 O16 2.061528 1_555
Cu0 O13 2.152429 1_455
Cu0 O6 2.152429 1_545
Cu0 O2 2.152429 1_554
Cu0 O10 2.410548 1_544
Cu0 O17 2.410548 1_454
Cu0 O21 2.410548 1_445
Cu1 O16 2.243778 1_555
Cu1 O14 2.243778 1_555
Cu1 O18 2.243778 1_555
Cu1 O7 2.247286 1_555
Cu1 O9 2.247286 1_555
Cu1 O5 2.247286 1_555
O0 P2 1.521340 1_455
O1 P0 1.521340 1_545
O2 P3 1.539230 1_555
O3 P1 1.521340 1_554
O4 P3 1.616004 1_555
O4 Te0 1.954286 1_455
O5 P3 1.540860 1_555
O6 P4 1.539230 1_555
O7 P4 1.540860 1_555
O8 P0 1.512669 1_555
O9 P5 1.540860 1_555
O10 P0 1.637828 1_555
O10 Te0 1.993808 1_455
O11 P1 1.512669 1_555
O12 P4 1.616004 1_555
O12 Te0 1.954286 1_554
O13 P5 1.539230 1_555
O14 P0 1.540390 1_555
O15 P5 1.616004 1_555
O15 Te0 1.954286 1_545
O16 P1 1.540390 1_555
O17 P1 1.637828 1_555
O17 Te0 1.993808 1_545
O18 P2 1.540390 1_555
O19 P2 1.512669 1_555
O20 P4 1.508608 1_556
O21 P2 1.637828 1_555
O21 Te0 1.993808 1_554
O22 P5 1.508608 1_565
O23 P3 1.508608 1_655
