# generated using pymatgen
data_Li4Mn3V2Cr3O16
_symmetry_space_group_name_H-M   'P 1'
_cell_length_a   5.83444404
_cell_length_b   5.82115929
_cell_length_c   9.41696694
_cell_angle_alpha   89.99738122
_cell_angle_beta   90.37002865
_cell_angle_gamma   119.88952310
_symmetry_Int_Tables_number   1
_chemical_formula_structural   Li4Mn3V2Cr3O16
_chemical_formula_sum   'Li4 Mn3 V2 Cr3 O16'
_cell_volume   277.28161352
_cell_formula_units_Z   1
loop_
 _symmetry_equiv_pos_site_id
 _symmetry_equiv_pos_as_xyz
  1  'x, y, z'
loop_
 _atom_site_type_symbol
 _atom_site_label
 _atom_site_symmetry_multiplicity
 _atom_site_fract_x
 _atom_site_fract_y
 _atom_site_fract_z
 _atom_site_occupancy
  Li  Li0  1  0.33538400  0.66766200  0.89752100  1
  Li  Li1  1  0.99410600  0.99713700  0.99623400  1
  Li  Li2  1  0.99716700  0.99862900  0.49520900  1
  Li  Li3  1  0.67281400  0.33638400  0.39352400  1
  Mn  Mn0  1  0.65851000  0.82926200  0.21528100  1
  Mn  Mn1  1  0.83013200  0.66034000  0.71430900  1
  Mn  Mn2  1  0.83057500  0.17046300  0.71443900  1
  V  V0  1  0.32746000  0.66383500  0.49160800  1
  V  V1  1  0.65794700  0.32905100  0.99277900  1
  Cr  Cr0  1  0.16996800  0.83122000  0.21312900  1
  Cr  Cr1  1  0.17003700  0.33863800  0.21322300  1
  Cr  Cr2  1  0.33940700  0.16965600  0.71337200  1
  O  O0  1  0.17322700  0.83681700  0.59617400  1
  O  O1  1  0.04836700  0.52438300  0.34171300  1
  O  O2  1  0.33841700  0.66914700  0.10606300  1
  O  O3  1  0.99406600  0.99705700  0.30787100  1
  O  O4  1  0.99829400  0.99898100  0.80782100  1
  O  O5  1  0.17179200  0.33597200  0.59657200  1
  O  O6  1  0.48290200  0.96175300  0.33870200  1
  O  O7  1  0.48319800  0.52165600  0.33884700  1
  O  O8  1  0.33088100  0.16534100  0.09953000  1
  O  O9  1  0.66544100  0.83265500  0.59796100  1
  O  O10  1  0.52013900  0.47712500  0.84346900  1
  O  O11  1  0.52132900  0.04280100  0.84273800  1
  O  O12  1  0.67034500  0.33541400  0.60708600  1
  O  O13  1  0.82723300  0.66065400  0.09719900  1
  O  O14  1  0.96373200  0.48174900  0.83821100  1
  O  O15  1  0.82712800  0.16652100  0.09725200  1
loop_
_geom_bond_atom_site_label_1
_geom_bond_atom_site_label_2
_geom_bond_distance
_geom_bond_site_symmetry_2
Li0 O14 1.957196 1_455
Li0 O10 1.962140 1_555
Li0 O2 1.963779 1_556
Li0 O11 1.964125 1_565
Li1 O4 1.774563 1_555
Li1 O15 1.948259 1_566
Li1 O13 1.949262 1_556
Li1 O8 1.955419 1_666
Li2 O3 1.764109 1_555
Li2 O9 1.943210 1_555
Li2 O0 1.948853 1_655
Li2 O5 1.949093 1_665
Li3 O7 1.958042 1_555
Li3 O6 1.958186 1_545
Li3 O1 1.964855 1_655
Li3 O12 2.011238 1_555
Mn0 O3 1.902458 1_555
Mn0 O2 1.911743 1_555
Mn0 O7 1.948415 1_555
Mn0 O6 1.948958 1_555
Mn0 O13 2.036190 1_555
Mn0 O15 2.036293 1_565
Mn1 O4 1.919741 1_555
Mn1 O12 1.922704 1_555
Mn1 O14 1.961005 1_555
Mn1 O10 1.998450 1_555
Mn1 O9 2.019109 1_555
Mn1 O0 2.068607 1_655
Mn2 O4 1.920848 1_545
Mn2 O12 1.923617 1_555
Mn2 O14 1.957301 1_555
Mn2 O11 1.989753 1_555
Mn2 O9 2.023991 1_545
Mn2 O5 2.059213 1_655
Cr0 O3 1.944358 1_455
Cr0 O2 1.951812 1_555
Cr0 O6 1.974525 1_555
Cr0 O1 1.976814 1_555
Cr0 O8 2.000396 1_565
Cr0 O13 2.041915 1_455
Cr1 O3 1.944026 1_445
Cr1 O2 1.952911 1_555
Cr1 O7 1.976109 1_555
Cr1 O1 1.978206 1_555
Cr1 O8 2.000298 1_555
Cr1 O15 2.042866 1_455
Cr2 O4 1.947088 1_445
Cr2 O12 1.956780 1_555
Cr2 O10 1.979597 1_555
Cr2 O11 1.979996 1_555
Cr2 O0 2.006527 1_545
Cr2 O5 2.008260 1_555
O0 V0 1.925609 1_555
O1 V0 1.988964 1_555
O5 V0 1.930869 1_555
O6 V0 2.086260 1_555
O7 V0 2.084841 1_555
O8 V1 1.942266 1_554
O9 V0 1.974968 1_555
O10 V1 2.010581 1_555
O11 V1 2.017478 1_555
O13 V1 1.938043 1_554
O14 V1 2.131810 1_555
O15 V1 1.937908 1_554
