# generated using pymatgen
data_Co7(SbO6)2
_symmetry_space_group_name_H-M   'P 1'
_cell_length_a   6.11421463
_cell_length_b   6.11421463
_cell_length_c   15.12143045
_cell_angle_alpha   89.74757563
_cell_angle_beta   89.74757563
_cell_angle_gamma   60.39447215
_symmetry_Int_Tables_number   1
_chemical_formula_structural   Co7(SbO6)2
_chemical_formula_sum   'Co14 Sb4 O24'
_cell_volume   491.48678242
_cell_formula_units_Z   2
loop_
 _symmetry_equiv_pos_site_id
 _symmetry_equiv_pos_as_xyz
  1  'x, y, z'
loop_
 _atom_site_type_symbol
 _atom_site_label
 _atom_site_symmetry_multiplicity
 _atom_site_fract_x
 _atom_site_fract_y
 _atom_site_fract_z
 _atom_site_occupancy
  Co  Co0  1  0.18085600  0.49695200  0.54171400  1
  Co  Co1  1  0.66595300  0.00568000  0.66183500  1
  Co  Co2  1  0.15458000  0.50542400  0.80119400  1
  Co  Co3  1  0.81450500  0.18549500  0.50000000  1
  Co  Co4  1  0.66553600  0.49596800  0.66176400  1
  Co  Co5  1  0.49457600  0.84542000  0.19880600  1
  Co  Co6  1  0.50403200  0.33446400  0.33823600  1
  Co  Co7  1  0.99432000  0.33404700  0.33816500  1
  Co  Co8  1  0.50304800  0.81914400  0.45828600  1
  Co  Co9  1  0.33415600  0.16616900  0.99939100  1
  Co  Co10  1  0.84156900  0.16362000  0.87167900  1
  Co  Co11  1  0.83383100  0.66584400  0.00060900  1
  Co  Co12  1  0.33454400  0.66545600  0.00000000  1
  Co  Co13  1  0.83638000  0.15843100  0.12832100  1
  Sb  Sb0  1  0.50910100  0.82875300  0.83536200  1
  Sb  Sb1  1  0.99574800  0.83856600  0.33829300  1
  Sb  Sb2  1  0.16143400  0.00425200  0.66170700  1
  Sb  Sb3  1  0.17124700  0.49089900  0.16463800  1
  O  O0  1  0.79862800  0.68451400  0.74959100  1
  O  O1  1  0.33680400  0.13700900  0.74832300  1
  O  O2  1  0.85224400  0.15622800  0.73733800  1
  O  O3  1  0.00104800  0.85581100  0.58722400  1
  O  O4  1  0.52252900  0.32216800  0.58733000  1
  O  O5  1  0.30648100  0.66385800  0.25200700  1
  O  O6  1  0.00239700  0.31806400  0.58933300  1
  O  O7  1  0.33614200  0.69351900  0.74799300  1
  O  O8  1  0.14418900  0.99895200  0.41277600  1
  O  O9  1  0.67783200  0.47747100  0.41267000  1
  O  O10  1  0.84377200  0.14775600  0.26266200  1
  O  O11  1  0.48472700  0.84284500  0.59339100  1
  O  O12  1  0.31548600  0.20137200  0.25040900  1
  O  O13  1  0.15715500  0.51527300  0.40660900  1
  O  O14  1  0.50058700  0.83424500  0.07143900  1
  O  O15  1  0.65384900  0.98914500  0.91184500  1
  O  O16  1  0.86299100  0.66319600  0.25167700  1
  O  O17  1  0.47615900  0.34653900  0.08810000  1
  O  O18  1  0.01085500  0.34615100  0.08815500  1
  O  O19  1  0.68193600  0.99760300  0.41066700  1
  O  O20  1  0.01801200  0.79846300  0.08794200  1
  O  O21  1  0.16575500  0.49941300  0.92856100  1
  O  O22  1  0.65346100  0.52384100  0.91190000  1
  O  O23  1  0.20153700  0.98198800  0.91205800  1
loop_
_geom_bond_atom_site_label_1
_geom_bond_atom_site_label_2
_geom_bond_distance
_geom_bond_site_symmetry_2
Co0 O4 1.944837 1_555
Co0 O6 2.017599 1_555
Co0 O3 2.029715 1_555
Co0 O13 2.047406 1_555
Co1 O4 2.023771 1_555
Co1 O11 2.097469 1_545
Co1 O3 2.108096 1_645
Co1 O2 2.122455 1_555
Co1 O0 2.165090 1_545
Co1 O1 2.189673 1_555
Co2 O21 1.927029 1_555
Co2 O0 2.048724 1_455
Co2 O7 2.108922 1_555
Co2 O1 2.117281 1_555
Co3 O4 2.035706 1_555
Co3 O9 2.035706 1_555
Co3 O19 2.178283 1_545
Co3 O6 2.178283 1_655
Co3 O3 2.195905 1_645
Co3 O8 2.195905 1_645
Co4 O4 2.024323 1_555
Co4 O6 2.098077 1_655
Co4 O11 2.112662 1_555
Co4 O2 2.138148 1_555
Co4 O0 2.169065 1_555
Co4 O7 2.191445 1_555
Co5 O14 1.927029 1_555
Co5 O12 2.048724 1_565
Co5 O5 2.108922 1_555
Co5 O16 2.117281 1_555
Co6 O9 2.024323 1_555
Co6 O19 2.098077 1_545
Co6 O13 2.112662 1_555
Co6 O10 2.138148 1_555
Co6 O12 2.169065 1_555
Co6 O5 2.191445 1_555
Co7 O9 2.023771 1_555
Co7 O13 2.097469 1_655
Co7 O8 2.108096 1_645
Co7 O10 2.122455 1_555
Co7 O12 2.165090 1_655
Co7 O16 2.189673 1_555
Co8 O9 1.944837 1_555
Co8 O19 2.017599 1_555
Co8 O8 2.029715 1_555
Co8 O11 2.047406 1_555
Co9 O21 2.067959 1_555
Co9 O14 2.071455 1_546
Co9 O23 2.143452 1_545
Co9 O15 2.155039 1_545
Co9 O17 2.176876 1_556
Co9 O18 2.181833 1_556
Co10 O15 2.005539 1_545
Co10 O23 2.010232 1_645
Co10 O22 2.011555 1_555
Co10 O2 2.032173 1_555
Co11 O14 2.067959 1_555
Co11 O21 2.071455 1_654
Co11 O20 2.143452 1_655
Co11 O18 2.155039 1_655
Co11 O22 2.176876 1_554
Co11 O15 2.181833 1_554
Co12 O21 2.077830 1_554
Co12 O14 2.077830 1_555
Co12 O20 2.146408 1_555
Co12 O23 2.146408 1_554
Co12 O17 2.155403 1_555
Co12 O22 2.155403 1_554
Co13 O18 2.005539 1_655
Co13 O20 2.010232 1_645
Co13 O17 2.011555 1_555
Co13 O10 2.032173 1_555
O0 Sb0 2.010213 1_555
O1 Sb2 2.098986 1_555
O1 Sb0 2.103064 1_545
O2 Sb2 1.999964 1_655
O3 Sb2 1.987973 1_565
O5 Sb3 2.105544 1_555
O5 Sb1 2.106721 1_455
O6 Sb2 1.993023 1_555
O7 Sb0 2.105544 1_555
O7 Sb2 2.106721 1_565
O8 Sb1 1.987973 1_455
O10 Sb1 1.999964 1_545
O11 Sb2 2.002978 1_565
O12 Sb3 2.010213 1_555
O13 Sb1 2.002978 1_455
O15 Sb0 1.989749 1_555
O16 Sb1 2.098986 1_555
O16 Sb3 2.103064 1_655
O17 Sb3 1.989547 1_555
O18 Sb3 1.989749 1_555
O19 Sb1 1.993023 1_555
O20 Sb3 2.002172 1_555
O22 Sb0 1.989547 1_555
O23 Sb0 2.002172 1_555
