# generated using pymatgen
data_CrHSe3O8
_symmetry_space_group_name_H-M   'P 1'
_cell_length_a   7.73348800
_cell_length_b   8.99553700
_cell_length_c   11.43803500
_cell_angle_alpha   90.00000000
_cell_angle_beta   90.00000000
_cell_angle_gamma   90.00000000
_symmetry_Int_Tables_number   1
_chemical_formula_structural   CrHSe3O8
_chemical_formula_sum   'Cr4 H4 Se12 O32'
_cell_volume   795.70837903
_cell_formula_units_Z   4
loop_
 _symmetry_equiv_pos_site_id
 _symmetry_equiv_pos_as_xyz
  1  'x, y, z'
loop_
 _atom_site_type_symbol
 _atom_site_label
 _atom_site_symmetry_multiplicity
 _atom_site_fract_x
 _atom_site_fract_y
 _atom_site_fract_z
 _atom_site_occupancy
  Cr  Cr0  1  0.00000000  0.00000000  0.00000000  1
  Cr  Cr1  1  0.00000000  0.00000000  0.50000000  1
  Cr  Cr2  1  0.50000000  0.50000000  0.50000000  1
  Cr  Cr3  1  0.50000000  0.50000000  0.00000000  1
  H  H0  1  0.55522200  0.13336600  0.25000000  1
  H  H1  1  0.05522200  0.36663400  0.75000000  1
  H  H2  1  0.94477800  0.63336600  0.25000000  1
  H  H3  1  0.44477800  0.86663400  0.75000000  1
  Se  Se0  1  0.19556700  0.01296100  0.75000000  1
  Se  Se1  1  0.70600100  0.21812900  0.60673800  1
  Se  Se2  1  0.70600100  0.21812900  0.89326200  1
  Se  Se3  1  0.20600100  0.28187100  0.10673800  1
  Se  Se4  1  0.20600100  0.28187100  0.39326200  1
  Se  Se5  1  0.69556700  0.48703900  0.25000000  1
  Se  Se6  1  0.30443300  0.51296100  0.75000000  1
  Se  Se7  1  0.79399900  0.71812900  0.60673800  1
  Se  Se8  1  0.79399900  0.71812900  0.89326200  1
  Se  Se9  1  0.29399900  0.78187100  0.10673800  1
  Se  Se10  1  0.29399900  0.78187100  0.39326200  1
  Se  Se11  1  0.80443300  0.98703900  0.25000000  1
  O  O0  1  0.57589100  0.02533100  0.25000000  1
  O  O1  1  0.86884900  0.09543800  0.13431700  1
  O  O2  1  0.86884900  0.09543800  0.36568300  1
  O  O3  1  0.21592200  0.11994100  0.03045100  1
  O  O4  1  0.21592200  0.11994100  0.46954900  1
  O  O5  1  0.91796300  0.16516000  0.60470300  1
  O  O6  1  0.91796300  0.16516000  0.89529700  1
  O  O7  1  0.21395200  0.18830800  0.25000000  1
  O  O8  1  0.71395200  0.31169200  0.75000000  1
  O  O9  1  0.41796300  0.33484000  0.10470300  1
  O  O10  1  0.41796300  0.33484000  0.39529700  1
  O  O11  1  0.71592200  0.38005900  0.53045100  1
  O  O12  1  0.71592200  0.38005900  0.96954900  1
  O  O13  1  0.36884900  0.40456200  0.63431700  1
  O  O14  1  0.36884900  0.40456200  0.86568300  1
  O  O15  1  0.07589100  0.47466900  0.75000000  1
  O  O16  1  0.92410900  0.52533100  0.25000000  1
  O  O17  1  0.63115100  0.59543800  0.13431700  1
  O  O18  1  0.63115100  0.59543800  0.36568300  1
  O  O19  1  0.28407800  0.61994100  0.03045100  1
  O  O20  1  0.28407800  0.61994100  0.46954900  1
  O  O21  1  0.58203700  0.66516000  0.60470300  1
  O  O22  1  0.58203700  0.66516000  0.89529700  1
  O  O23  1  0.28604800  0.68830800  0.25000000  1
  O  O24  1  0.78604800  0.81169200  0.75000000  1
  O  O25  1  0.08203700  0.83484000  0.10470300  1
  O  O26  1  0.08203700  0.83484000  0.39529700  1
  O  O27  1  0.78407800  0.88005900  0.53045100  1
  O  O28  1  0.78407800  0.88005900  0.96954900  1
  O  O29  1  0.13115100  0.90456200  0.63431700  1
  O  O30  1  0.13115100  0.90456200  0.86568300  1
  O  O31  1  0.42410900  0.97466900  0.75000000  1
loop_
_geom_bond_atom_site_label_1
_geom_bond_atom_site_label_2
_geom_bond_distance
_geom_bond_site_symmetry_2
Cr0 O6 2.010984 1_454
Cr0 O25 2.010984 1_545
Cr0 O28 2.018352 1_444
Cr0 O3 2.018352 1_555
Cr0 O1 2.031268 1_455
Cr0 O30 2.031268 1_544
Cr1 O26 2.010984 1_545
Cr1 O5 2.010984 1_455
Cr1 O27 2.018352 1_445
Cr1 O4 2.018352 1_555
Cr1 O2 2.031268 1_455
Cr1 O29 2.031268 1_545
Cr2 O21 2.010984 1_555
Cr2 O10 2.010984 1_555
Cr2 O11 2.018352 1_555
Cr2 O20 2.018352 1_555
Cr2 O13 2.031268 1_555
Cr2 O18 2.031268 1_555
Cr3 O9 2.010984 1_555
Cr3 O22 2.010984 1_554
Cr3 O12 2.018352 1_554
Cr3 O19 2.018352 1_555
Cr3 O17 2.031268 1_555
Cr3 O14 2.031268 1_554
H0 O0 0.984890 1_555
H1 O15 0.984890 1_555
H2 O16 0.984890 1_555
H3 O31 0.984890 1_555
O0 Se11 1.800680 1_545
O1 Se11 1.717504 1_545
O2 Se11 1.717504 1_545
O3 Se3 1.699733 1_555
O4 Se4 1.699733 1_555
O5 Se1 1.707212 1_555
O6 Se2 1.707212 1_555
O7 Se3 1.843172 1_555
O7 Se4 1.843172 1_555
O8 Se1 1.843172 1_555
O8 Se2 1.843172 1_555
O9 Se3 1.707212 1_555
O10 Se4 1.707212 1_555
O11 Se1 1.699733 1_555
O12 Se2 1.699733 1_555
O13 Se6 1.717504 1_555
O14 Se6 1.717504 1_555
O15 Se6 1.800680 1_555
O16 Se5 1.800680 1_555
O17 Se5 1.717504 1_555
O18 Se5 1.717504 1_555
O19 Se9 1.699733 1_555
O20 Se10 1.699733 1_555
O21 Se7 1.707212 1_555
O22 Se8 1.707212 1_555
O23 Se10 1.843172 1_555
O23 Se9 1.843172 1_555
O24 Se8 1.843172 1_555
O24 Se7 1.843172 1_555
O25 Se9 1.707212 1_555
O26 Se10 1.707212 1_555
O27 Se7 1.699733 1_555
O28 Se8 1.699733 1_555
O29 Se0 1.717504 1_565
O30 Se0 1.717504 1_565
O31 Se0 1.800680 1_565
