# generated using pymatgen
data_LiFeSiO4
_symmetry_space_group_name_H-M   'P 1'
_cell_length_a   11.32490600
_cell_length_b   5.27585600
_cell_length_c   5.96096189
_cell_angle_alpha   88.62681798
_cell_angle_beta   90.00000000
_cell_angle_gamma   90.00000000
_symmetry_Int_Tables_number   1
_chemical_formula_structural   LiFeSiO4
_chemical_formula_sum   'Li4 Fe4 Si4 O16'
_cell_volume   356.05668526
_cell_formula_units_Z   4
loop_
 _symmetry_equiv_pos_site_id
 _symmetry_equiv_pos_as_xyz
  1  'x, y, z'
loop_
 _atom_site_type_symbol
 _atom_site_label
 _atom_site_symmetry_multiplicity
 _atom_site_fract_x
 _atom_site_fract_y
 _atom_site_fract_z
 _atom_site_occupancy
  Li  Li0  1  0.67059200  0.05566000  0.24385900  1
  Li  Li1  1  0.17059200  0.94434000  0.75614100  1
  Li  Li2  1  0.32899200  0.56883700  0.22105900  1
  Li  Li3  1  0.82899200  0.43116300  0.77894100  1
  Fe  Fe0  1  0.42342300  0.07911800  0.99540400  1
  Fe  Fe1  1  0.92342300  0.92088200  0.00459600  1
  Fe  Fe2  1  0.07697300  0.56872400  0.48793000  1
  Fe  Fe3  1  0.57697300  0.43127600  0.51207000  1
  Si  Si0  1  0.91697900  0.07052000  0.50047700  1
  Si  Si1  1  0.41697900  0.92948000  0.49952300  1
  Si  Si2  1  0.58338500  0.57323600  0.00839900  1
  Si  Si3  1  0.08338500  0.42676400  0.99160100  1
  O  O0  1  0.06500800  0.11718300  0.97397200  1
  O  O1  1  0.54513500  0.07722400  0.49911300  1
  O  O2  1  0.84234000  0.00974400  0.73457100  1
  O  O3  1  0.34128700  0.00187800  0.72541600  1
  O  O4  1  0.84128700  0.99812200  0.27458400  1
  O  O5  1  0.34234000  0.99025600  0.26542900  1
  O  O6  1  0.04513500  0.92277600  0.50088700  1
  O  O7  1  0.56500800  0.88281700  0.02602800  1
  O  O8  1  0.43699000  0.61934500  0.49099400  1
  O  O9  1  0.15609600  0.53987600  0.77079700  1
  O  O10  1  0.95168400  0.56477200  0.99423000  1
  O  O11  1  0.65916200  0.50293300  0.78170500  1
  O  O12  1  0.15916200  0.49706700  0.21829500  1
  O  O13  1  0.45168400  0.43522800  0.00577000  1
  O  O14  1  0.65609600  0.46012400  0.22920300  1
  O  O15  1  0.93699000  0.38065500  0.50900600  1
loop_
_geom_bond_atom_site_label_1
_geom_bond_atom_site_label_2
_geom_bond_distance
_geom_bond_site_symmetry_2
Li0 O4 1.964669 1_545
Li0 O7 2.001031 1_545
Li0 O1 2.086869 1_555
Li0 O14 2.139895 1_555
Li1 O3 1.964669 1_565
Li1 O0 2.001031 1_565
Li1 O6 2.086869 1_555
Li1 O9 2.139895 1_555
Li2 O12 1.960373 1_555
Li2 O13 2.029241 1_555
Li2 O8 2.043665 1_555
Li2 O5 2.250390 1_555
Li3 O11 1.960373 1_555
Li3 O10 2.029241 1_555
Li3 O15 2.043665 1_555
Li3 O2 2.250390 1_555
Fe0 O5 1.902016 1_546
Fe0 O13 1.908311 1_556
Fe0 O3 1.911247 1_555
Fe0 O7 1.915165 1_546
Fe1 O2 1.902016 1_564
Fe1 O10 1.908311 1_554
Fe1 O4 1.911247 1_555
Fe1 O0 1.915165 1_664
Fe2 O15 1.872826 1_455
Fe2 O12 1.903093 1_555
Fe2 O6 1.905791 1_555
Fe2 O9 1.912308 1_555
Fe3 O8 1.872826 1_555
Fe3 O11 1.903093 1_555
Fe3 O1 1.905791 1_555
Fe3 O14 1.912308 1_555
O0 Si3 1.652352 1_555
O1 Si1 1.647400 1_545
O2 Si0 1.656224 1_555
O3 Si1 1.648792 1_545
O4 Si0 1.648792 1_565
O5 Si1 1.656224 1_555
O6 Si0 1.647400 1_465
O7 Si2 1.652352 1_555
O8 Si1 1.653835 1_555
O9 Si3 1.651949 1_555
O10 Si3 1.659974 1_655
O11 Si2 1.650484 1_556
O12 Si3 1.650484 1_554
O13 Si2 1.659974 1_555
O14 Si2 1.651949 1_555
O15 Si0 1.653835 1_555
