# generated using pymatgen
data_Li2V(OF)2
_symmetry_space_group_name_H-M   'P 1'
_cell_length_a   5.84904216
_cell_length_b   10.16546796
_cell_length_c   5.97356504
_cell_angle_alpha   106.60283058
_cell_angle_beta   60.71069946
_cell_angle_gamma   90.03257767
_symmetry_Int_Tables_number   1
_chemical_formula_structural   Li2V(OF)2
_chemical_formula_sum   'Li8 V4 O8 F8'
_cell_volume   292.70996530
_cell_formula_units_Z   4
loop_
 _symmetry_equiv_pos_site_id
 _symmetry_equiv_pos_as_xyz
  1  'x, y, z'
loop_
 _atom_site_type_symbol
 _atom_site_label
 _atom_site_symmetry_multiplicity
 _atom_site_fract_x
 _atom_site_fract_y
 _atom_site_fract_z
 _atom_site_occupancy
  Li  Li0  1  0.88608300  0.37149200  0.22828200  1
  Li  Li1  1  0.38585500  0.87125900  0.22810700  1
  Li  Li2  1  0.18344400  0.43277600  0.63346000  1
  Li  Li3  1  0.68277700  0.93240100  0.63355800  1
  Li  Li4  1  0.92303000  0.69151400  0.63416600  1
  Li  Li5  1  0.42206700  0.19202200  0.63512400  1
  Li  Li6  1  0.44242500  0.69178000  0.63492900  1
  Li  Li7  1  0.94270500  0.19203300  0.63509800  1
  V  V0  1  0.93972400  0.68476100  0.11880500  1
  V  V1  1  0.99558900  0.00145300  0.00869700  1
  V  V2  1  0.43998700  0.18454000  0.11894800  1
  V  V3  1  0.49656100  0.50111600  0.00670300  1
  O  O0  1  0.32581600  0.55826100  0.34842000  1
  O  O1  1  0.82492500  0.05867700  0.35034100  1
  O  O2  1  0.30238200  0.56629100  0.89222900  1
  O  O3  1  0.80196600  0.06644600  0.89341300  1
  O  O4  1  0.80645300  0.56662300  0.89215200  1
  O  O5  1  0.30550300  0.06675000  0.89336100  1
  O  O6  1  0.05298900  0.81696400  0.89428400  1
  O  O7  1  0.55399000  0.31665600  0.89224900  1
  F  F0  1  0.57718300  0.80820700  0.84619500  1
  F  F1  1  0.07684800  0.30862700  0.84656900  1
  F  F2  1  0.54575000  0.30558600  0.37017000  1
  F  F3  1  0.04554600  0.80553300  0.37066300  1
  F  F4  1  0.08359100  0.30587000  0.37104300  1
  F  F5  1  0.58237800  0.80593000  0.37193400  1
  F  F6  1  0.81223900  0.57330200  0.37542600  1
  F  F7  1  0.31219000  0.07313400  0.37567900  1
loop_
_geom_bond_atom_site_label_1
_geom_bond_atom_site_label_2
_geom_bond_distance
_geom_bond_site_symmetry_2
Li2 O2 2.137203 1_555
Li2 O4 2.137592 1_455
Li2 O0 2.252229 1_555
Li3 O5 2.141161 1_565
Li3 O3 2.145055 1_565
Li3 O1 2.250520 1_565
Li4 O4 2.130891 1_555
Li4 O6 2.154216 1_655
Li4 O0 2.246426 1_655
Li5 O5 2.135107 1_555
Li5 O7 2.146201 1_555
Li5 O1 2.246653 1_555
Li6 O2 2.132618 1_555
Li6 O6 2.152178 1_555
Li6 O0 2.247257 1_555
Li7 O3 2.137814 1_555
Li7 O7 2.146582 1_555
Li7 O1 2.243542 1_555
O0 V3 1.682257 1_555
O1 V1 1.681897 1_555
O2 V3 1.793372 1_556
O2 V0 2.010984 1_456
O3 V1 1.793679 1_556
O3 V2 2.006636 1_556
O4 V3 1.800709 1_556
O4 V0 1.996336 1_556
O5 V1 1.799768 1_456
O5 V2 1.995588 1_556
O6 V1 1.772211 1_466
O6 V0 2.050226 1_456
O7 V3 1.771929 1_556
O7 V2 2.058399 1_556
F0 Li1 1.880165 1_556
F0 Li6 1.932186 1_555
F0 Li3 1.933053 1_555
F0 Li4 1.934071 1_555
F1 Li0 1.879192 1_456
F1 Li7 1.931125 1_455
F1 Li5 1.931135 1_555
F1 Li2 1.934599 1_555
F2 Li0 1.949867 1_555
F2 V2 2.000263 1_555
F2 Li2 2.053301 1_555
F2 Li5 2.069776 1_555
F3 Li1 1.949036 1_555
F3 V0 2.002144 1_455
F3 Li3 2.053550 1_455
F3 Li4 2.067022 1_455
F4 Li0 1.948517 1_455
F4 V2 2.001108 1_555
F4 Li2 2.049852 1_555
F4 Li7 2.067960 1_455
F5 Li1 1.947739 1_555
F5 V0 2.004616 1_555
F5 Li3 2.046712 1_555
F5 Li6 2.065697 1_555
F6 Li0 1.940834 1_555
F6 V0 2.015661 1_555
F6 Li4 2.042191 1_555
F6 Li6 2.046362 1_555
F7 Li1 1.941555 1_545
F7 V2 2.015724 1_555
F7 Li5 2.044219 1_555
F7 Li7 2.046605 1_455
