# generated using pymatgen
data_Li2MnV(P2O7)2
_symmetry_space_group_name_H-M   'P 1'
_cell_length_a   8.31238500
_cell_length_b   7.15444500
_cell_length_c   9.73260352
_cell_angle_alpha   69.15100608
_cell_angle_beta   90.00000000
_cell_angle_gamma   90.00000000
_symmetry_Int_Tables_number   1
_chemical_formula_structural   Li2MnV(P2O7)2
_chemical_formula_sum   'Li4 Mn2 V2 P8 O28'
_cell_volume   540.90377513
_cell_formula_units_Z   2
loop_
 _symmetry_equiv_pos_site_id
 _symmetry_equiv_pos_as_xyz
  1  'x, y, z'
loop_
 _atom_site_type_symbol
 _atom_site_label
 _atom_site_symmetry_multiplicity
 _atom_site_fract_x
 _atom_site_fract_y
 _atom_site_fract_z
 _atom_site_occupancy
  Li  Li0  1  0.63964200  0.67330000  0.50273900  1
  Li  Li1  1  0.13964200  0.32670000  0.49726100  1
  Li  Li2  1  0.64002900  0.67430100  0.00013800  1
  Li  Li3  1  0.14002900  0.32569900  0.99986200  1
  Mn  Mn0  1  0.00184100  0.72922600  0.99084500  1
  Mn  Mn1  1  0.50184100  0.27077400  0.00915500  1
  V  V0  1  0.99997100  0.72784100  0.49357900  1
  V  V1  1  0.49997100  0.27215900  0.50642100  1
  P  P0  1  0.21666500  0.91391600  0.68715900  1
  P  P1  1  0.32029100  0.52215100  0.69009000  1
  P  P2  1  0.82029100  0.47784900  0.30991000  1
  P  P3  1  0.21276900  0.90971300  0.18634100  1
  P  P4  1  0.71666500  0.08608400  0.31284100  1
  P  P5  1  0.32086100  0.51767000  0.19001200  1
  P  P6  1  0.82086100  0.48233000  0.80998800  1
  P  P7  1  0.71276900  0.09028700  0.81365900  1
  O  O0  1  0.34739500  0.75325400  0.67200300  1
  O  O1  1  0.06773000  0.91600400  0.59378900  1
  O  O2  1  0.82645100  0.60375000  0.64405800  1
  O  O3  1  0.15743000  0.50727400  0.62041500  1
  O  O4  1  0.46094400  0.48392600  0.60164300  1
  O  O5  1  0.67214700  0.15422000  0.65041200  1
  O  O6  1  0.30437500  0.11407400  0.62452100  1
  O  O7  1  0.80437500  0.88592600  0.37547900  1
  O  O8  1  0.17214700  0.84578000  0.34958800  1
  O  O9  1  0.96094400  0.51607400  0.39835700  1
  O  O10  1  0.65743000  0.49272600  0.37958500  1
  O  O11  1  0.32645100  0.39625000  0.35594200  1
  O  O12  1  0.56773000  0.08399600  0.40621100  1
  O  O13  1  0.84739500  0.24674600  0.32799700  1
  O  O14  1  0.34466900  0.74982100  0.17144600  1
  O  O15  1  0.06227300  0.90733400  0.09353300  1
  O  O16  1  0.82225500  0.60597200  0.14588900  1
  O  O17  1  0.15929100  0.49436800  0.12598100  1
  O  O18  1  0.46548600  0.47849400  0.10453600  1
  O  O19  1  0.67684600  0.14170500  0.15012700  1
  O  O20  1  0.29505900  0.11125000  0.12933100  1
  O  O21  1  0.79505900  0.88875000  0.87066900  1
  O  O22  1  0.17684600  0.85829500  0.84987300  1
  O  O23  1  0.96548600  0.52150600  0.89546400  1
  O  O24  1  0.65929100  0.50563200  0.87401900  1
  O  O25  1  0.32225500  0.39402800  0.85411100  1
  O  O26  1  0.56227300  0.09266600  0.90646700  1
  O  O27  1  0.84466900  0.25017900  0.82855400  1
loop_
_geom_bond_atom_site_label_1
_geom_bond_atom_site_label_2
_geom_bond_distance
_geom_bond_site_symmetry_2
Li0 O4 2.010061 1_555
Li0 O2 2.015799 1_555
Li0 O10 2.056644 1_555
Li0 O7 2.093338 1_555
Li1 O9 2.010061 1_455
Li1 O11 2.015799 1_555
Li1 O3 2.056644 1_555
Li1 O6 2.093338 1_555
Li2 O24 2.010688 1_554
Li2 O16 2.012965 1_555
Li2 O18 2.021561 1_555
Li2 O21 2.055791 1_554
Li3 O17 2.010688 1_556
Li3 O25 2.012965 1_555
Li3 O23 2.021561 1_455
Li3 O20 2.055791 1_556
Mn0 O15 1.944593 1_556
Mn0 O22 1.987334 1_555
Mn0 O23 2.035591 1_455
Mn0 O16 2.082275 1_456
Mn0 O21 2.162141 1_455
Mn0 O17 2.166335 1_556
Mn1 O26 1.944593 1_554
Mn1 O19 1.987334 1_555
Mn1 O18 2.035591 1_555
Mn1 O25 2.082275 1_554
Mn1 O20 2.162141 1_555
Mn1 O24 2.166335 1_554
O0 P1 1.615038 1_555
O0 P0 1.626206 1_555
O1 P0 1.532649 1_555
O1 V0 2.003820 1_455
O2 P6 1.538246 1_555
O2 V0 2.021881 1_555
O3 P1 1.534674 1_555
O3 V0 2.083399 1_455
O4 P1 1.533073 1_555
O4 V1 2.063743 1_555
O5 P7 1.526527 1_555
O5 V1 1.970412 1_555
O6 P0 1.527243 1_545
O6 V1 2.078086 1_555
O7 P4 1.527243 1_565
O7 V0 2.078086 1_555
O8 P3 1.526527 1_555
O8 V0 1.970412 1_455
O9 P2 1.533073 1_555
O9 V0 2.063743 1_555
O10 P2 1.534674 1_555
O10 V1 2.083399 1_555
O11 P5 1.538246 1_555
O11 V1 2.021881 1_555
O12 P4 1.532649 1_555
O12 V1 2.003820 1_555
O13 P2 1.615038 1_555
O13 P4 1.626206 1_555
O14 P5 1.617657 1_555
O14 P3 1.627806 1_555
O15 P3 1.546632 1_555
O16 P2 1.532077 1_555
O17 P5 1.514544 1_555
O18 P5 1.543317 1_555
O19 P4 1.525523 1_555
O20 P3 1.511725 1_545
O21 P7 1.511725 1_565
O22 P0 1.525523 1_555
O23 P6 1.543317 1_555
O24 P6 1.514544 1_555
O25 P1 1.532077 1_555
O26 P7 1.546632 1_555
O27 P6 1.617657 1_555
O27 P7 1.627806 1_555
